0:0
     RDKit          3D

 47 49  0  0  0  0  0  0  0  0999 V2000
   60.5320   33.7970   50.0790 C   0  0  0  0  0  0  0  0  0  0  0  0
   61.4770   33.7180   48.9140 C   0  0  0  0  0  0  0  0  0  0  0  0
   62.8590   33.5820   49.1330 C   0  0  0  0  0  0  0  0  0  0  0  0
   63.7400   33.4960   48.0520 C   0  0  0  0  0  0  0  0  0  0  0  0
   63.2520   33.5440   46.7470 C   0  0  0  0  0  0  0  0  0  0  0  0
   61.8820   33.6870   46.5140 C   0  0  0  0  0  0  0  0  0  0  0  0
   60.9820   33.7780   47.5960 C   0  0  0  0  0  0  0  0  0  0  0  0
   59.5980   33.9300   47.3980 O   0  0  0  0  0  0  0  0  0  0  0  0
   59.0120   34.7350   46.3780 C   0  0  0  0  0  0  0  0  0  0  0  0
   58.5030   33.8530   45.2750 C   0  0  0  0  0  0  0  0  0  0  0  0
   59.0410   33.9250   44.1390 O   0  0  0  0  0  0  0  0  0  0  0  0
   57.4020   32.9540   45.4640 N   0  0  0  0  0  0  0  0  0  0  0  0
   57.4020   31.5390   45.2240 C   0  0  0  0  0  0  0  0  0  0  0  0
   56.3920   30.9160   44.4740 C   0  0  0  0  0  0  0  0  0  0  0  0
   56.4140   29.5330   44.2710 C   0  0  0  0  0  0  0  0  0  0  0  0
   57.4420   28.7520   44.8290 C   0  0  0  0  0  0  0  0  0  0  0  0
   57.5190   27.3340   44.6220 N   0  0  0  0  0  0  0  0  0  0  0  0
   56.9780   26.1350   45.7510 S   0  0  0  0  0  0  0  0  0  0  0  0
   55.5050   26.3120   45.9920 O   0  0  0  0  0  0  0  0  0  0  0  0
   57.7100   26.3140   47.0520 O   0  0  0  0  0  0  0  0  0  0  0  0
   57.3300   24.5320   45.1170 C   0  0  0  0  0  0  0  0  0  0  0  0
   56.4650   23.9550   44.1740 C   0  0  0  0  0  0  0  0  0  0  0  0
   56.7140   22.6700   43.6850 C   0  0  0  0  0  0  0  0  0  0  0  0
   57.8260   21.9540   44.1370 C   0  0  0  0  0  0  0  0  0  0  0  0
   58.6960   22.5230   45.0820 C   0  0  0  0  0  0  0  0  0  0  0  0
   59.8010   21.8110   45.5510 O   0  0  0  0  0  0  0  0  0  0  0  0
   58.4500   23.8130   45.5660 C   0  0  0  0  0  0  0  0  0  0  0  0
   58.4260   29.3700   45.6080 C   0  0  0  0  0  0  0  0  0  0  0  0
   58.4010   30.7540   45.8120 C   0  0  0  0  0  0  0  0  0  0  0  0
   61.1029   33.7493   51.0181 H   0  0  0  0  0  0  0  0  0  0  0  0
   59.9754   34.7448   50.0360 H   0  0  0  0  0  0  0  0  0  0  0  0
   59.8257   32.9548   50.0360 H   0  0  0  0  0  0  0  0  0  0  0  0
   63.2488   33.5431   50.1609 H   0  0  0  0  0  0  0  0  0  0  0  0
   64.8202   33.3903   48.2309 H   0  0  0  0  0  0  0  0  0  0  0  0
   63.9477   33.4691   45.8983 H   0  0  0  0  0  0  0  0  0  0  0  0
   61.5035   33.7288   45.4820 H   0  0  0  0  0  0  0  0  0  0  0  0
   58.1766   35.3121   46.8010 H   0  0  0  0  0  0  0  0  0  0  0  0
   59.7682   35.4254   45.9760 H   0  0  0  0  0  0  0  0  0  0  0  0
   55.5790   31.5192   44.0438 H   0  0  0  0  0  0  0  0  0  0  0  0
   55.6247   29.0541   43.6729 H   0  0  0  0  0  0  0  0  0  0  0  0
   55.5882   24.5163   43.8188 H   0  0  0  0  0  0  0  0  0  0  0  0
   56.0350   22.2220   42.9445 H   0  0  0  0  0  0  0  0  0  0  0  0
   58.0205   20.9422   43.7518 H   0  0  0  0  0  0  0  0  0  0  0  0
   59.9720   20.8520   45.2680 H   0  0  0  0  0  0  0  0  0  0  0  0
   59.1347   24.2644   46.2991 H   0  0  0  0  0  0  0  0  0  0  0  0
   59.2239   28.7645   46.0627 H   0  0  0  0  0  0  0  0  0  0  0  0
   59.1710   31.2282   46.4382 H   0  0  0  0  0  0  0  0  0  0  0  0
  1  2  1  0
  2  3  2  0
  3  4  1  0
  4  5  2  0
  5  6  1  0
  6  7  2  0
  7  8  1  0
  8  9  1  0
  9 10  1  0
 10 11  2  0
 10 12  1  0
 12 13  1  0
 13 14  2  0
 14 15  1  0
 15 16  2  0
 16 17  1  0
 17 18  1  0
 18 19  2  0
 18 20  2  0
 18 21  1  0
 21 22  2  0
 22 23  1  0
 23 24  2  0
 24 25  1  0
 25 26  1  0
 25 27  2  0
 16 28  1  0
 28 29  2  0
  7  2  1  0
 29 13  1  0
 27 21  1  0
  1 30  1  0
  1 31  1  0
  1 32  1  0
  3 33  1  0
  4 34  1  0
  5 35  1  0
  6 36  1  0
  9 37  1  0
  9 38  1  0
 14 39  1  0
 15 40  1  0
 22 41  1  0
 23 42  1  0
 24 43  1  0
 26 44  1  0
 27 45  1  0
 28 46  1  0
 29 47  1  0
M  CHG  2  12  -1  17  -1
M  END
>  <UniqueID>  (1) 
1

>  <SMILES>  (1) 
Cc1ccccc1OCC(=O)[N-]c1ccc([N-]S(=O)(=O)c2cccc(O)c2)cc1

>  <Energy>  (1) 
55.22755406141971

>  <Genealogy>  (1) 
Cc1ccccc1OCC(=O)[N-]c1ccc([N-]S(=O)(=O)c2cccc(O)c2)cc1 (protonated)
Cc1ccccc1OCC(=O)[N-]c1ccc([N-]S(=O)(=O)c2cccc(O)c2)cc1 (3D coordinates assigned)
Cc1ccccc1OCC(=O)[N-]c1ccc([N-]S(=O)(=O)c2cccc(O)c2)cc1 (optimized conformer: 55.22755406141971 kcal/mol)

>  <smiles>  (1) 
Cc1ccccc1OCC(=O)Nc1ccc(NS(=O)(=O)c2cccc(O)c2)cc1

>  <score_type>  (1) 
oracle

>  <origin>  (1) 
adg

>  <m_score__min__energy>  (1) 
-11.640000000000001

>  <m_primary>  (1) 
energy

$$$$
1:0
     RDKit          3D

 53 55  0  0  0  0  0  0  0  0999 V2000
   64.4540   33.3530   47.8620 N   0  0  0  0  0  0  0  0  0  0  0  0
   64.4990   32.5740   49.0660 C   0  0  0  0  0  0  0  0  0  0  0  0
   65.7020   32.4920   49.7850 C   0  0  0  0  0  0  0  0  0  0  0  0
   65.7750   31.7500   50.9680 C   0  0  0  0  0  0  0  0  0  0  0  0
   66.9440   31.6720   51.6500 F   0  0  0  0  0  0  0  0  0  0  0  0
   64.6460   31.0820   51.4430 C   0  0  0  0  0  0  0  0  0  0  0  0
   63.4420   31.1610   50.7420 C   0  0  0  0  0  0  0  0  0  0  0  0
   63.3520   31.9100   49.5550 C   0  0  0  0  0  0  0  0  0  0  0  0
   62.1120   31.9600   48.8330 N   0  0  0  0  0  0  0  0  0  0  0  0
   61.5120   33.2000   48.4130 C   0  0  0  0  0  0  0  0  0  0  0  0
   62.0770   34.2920   48.6950 O   0  0  0  0  0  0  0  0  0  0  0  0
   60.2520   33.2270   47.6280 C   0  0  0  0  0  0  0  0  0  0  0  0
   59.0050   32.9760   48.2330 C   0  0  0  0  0  0  0  0  0  0  0  0
   57.8390   32.9400   47.4630 C   0  0  0  0  0  0  0  0  0  0  0  0
   57.8940   33.1640   46.0790 C   0  0  0  0  0  0  0  0  0  0  0  0
   56.6450   33.0540   45.2480 C   0  0  0  0  0  0  0  0  0  0  0  0
   56.6800   31.8340   44.4510 N   0  0  0  0  0  0  0  0  0  0  0  0
   57.0740   30.5610   44.9770 C   0  0  0  0  0  0  0  0  0  0  0  0
   57.8060   30.4930   46.0000 O   0  0  0  0  0  0  0  0  0  0  0  0
   56.6440   29.3030   44.2880 C   0  0  0  0  0  0  0  0  0  0  0  0
   55.8990   28.4380   45.2010 N   0  0  0  0  0  0  0  0  0  0  0  0
   56.3010   27.1290   45.6280 C   0  0  0  0  0  0  0  0  0  0  0  0
   55.4380   26.3850   46.1730 O   0  0  0  0  0  0  0  0  0  0  0  0
   57.7320   26.6590   45.4910 C   0  0  0  0  0  0  0  0  0  0  0  0
   58.7190   27.6360   46.0840 C   0  0  0  0  0  0  0  0  0  0  0  0
   59.6890   28.2400   45.2680 C   0  0  0  0  0  0  0  0  0  0  0  0
   60.5890   29.1650   45.8070 C   0  0  0  0  0  0  0  0  0  0  0  0
   60.5240   29.4940   47.1640 C   0  0  0  0  0  0  0  0  0  0  0  0
   59.5530   28.9090   47.9810 C   0  0  0  0  0  0  0  0  0  0  0  0
   58.6470   27.9880   47.4430 C   0  0  0  0  0  0  0  0  0  0  0  0
   59.1320   33.4290   45.4740 C   0  0  0  0  0  0  0  0  0  0  0  0
   60.3000   33.4530   46.2410 C   0  0  0  0  0  0  0  0  0  0  0  0
   64.9240   33.0130   46.9930 H   0  0  0  0  0  0  0  0  0  0  0  0
   63.9530   34.2690   47.8130 H   0  0  0  0  0  0  0  0  0  0  0  0
   66.5953   33.0162   49.4144 H   0  0  0  0  0  0  0  0  0  0  0  0
   64.7050   30.4930   52.3702 H   0  0  0  0  0  0  0  0  0  0  0  0
   62.5550   30.6325   51.1213 H   0  0  0  0  0  0  0  0  0  0  0  0
   61.6490   31.0520   48.6040 H   0  0  0  0  0  0  0  0  0  0  0  0
   58.9484   32.8072   49.3185 H   0  0  0  0  0  0  0  0  0  0  0  0
   56.8719   32.7347   47.9452 H   0  0  0  0  0  0  0  0  0  0  0  0
   55.7676   33.0305   45.9111 H   0  0  0  0  0  0  0  0  0  0  0  0
   56.5823   33.9221   44.5753 H   0  0  0  0  0  0  0  0  0  0  0  0
   56.0025   29.5618   43.4327 H   0  0  0  0  0  0  0  0  0  0  0  0
   57.5404   28.7649   43.9462 H   0  0  0  0  0  0  0  0  0  0  0  0
   57.8375   25.6934   46.0072 H   0  0  0  0  0  0  0  0  0  0  0  0
   57.9537   26.5689   44.4173 H   0  0  0  0  0  0  0  0  0  0  0  0
   59.7413   27.9844   44.1994 H   0  0  0  0  0  0  0  0  0  0  0  0
   61.3479   29.6335   45.1631 H   0  0  0  0  0  0  0  0  0  0  0  0
   61.2382   30.2144   47.5893 H   0  0  0  0  0  0  0  0  0  0  0  0
   59.5007   29.1726   49.0477 H   0  0  0  0  0  0  0  0  0  0  0  0
   57.8760   27.5381   48.0857 H   0  0  0  0  0  0  0  0  0  0  0  0
   59.1834   33.6186   44.3917 H   0  0  0  0  0  0  0  0  0  0  0  0
   61.2667   33.6507   45.7547 H   0  0  0  0  0  0  0  0  0  0  0  0
  1  2  1  0
  2  3  2  0
  3  4  1  0
  4  5  1  0
  4  6  2  0
  6  7  1  0
  7  8  2  0
  8  9  1  0
  9 10  1  0
 10 11  2  0
 10 12  1  0
 12 13  2  0
 13 14  1  0
 14 15  2  0
 15 16  1  0
 16 17  1  0
 17 18  1  0
 18 19  2  0
 18 20  1  0
 20 21  1  0
 21 22  1  0
 22 23  2  0
 22 24  1  0
 24 25  1  0
 25 26  2  0
 26 27  1  0
 27 28  2  0
 28 29  1  0
 29 30  2  0
 15 31  1  0
 31 32  2  0
  8  2  1  0
 32 12  1  0
 30 25  1  0
  1 33  1  0
  1 34  1  0
  3 35  1  0
  6 36  1  0
  7 37  1  0
  9 38  1  0
 13 39  1  0
 14 40  1  0
 16 41  1  0
 16 42  1  0
 20 43  1  0
 20 44  1  0
 24 45  1  0
 24 46  1  0
 26 47  1  0
 27 48  1  0
 28 49  1  0
 29 50  1  0
 30 51  1  0
 31 52  1  0
 32 53  1  0
M  CHG  2  17  -1  21  -1
M  END
>  <UniqueID>  (2) 
2

>  <SMILES>  (2) 
Nc1cc(F)ccc1NC(=O)c1ccc(C[N-]C(=O)C[N-]C(=O)Cc2ccccc2)cc1

>  <Energy>  (2) 
53.96501893829968

>  <Genealogy>  (2) 
Nc1cc(F)ccc1NC(=O)c1ccc(C[N-]C(=O)C[N-]C(=O)Cc2ccccc2)cc1 (protonated)
Nc1cc(F)ccc1NC(=O)c1ccc(C[N-]C(=O)C[N-]C(=O)Cc2ccccc2)cc1 (3D coordinates assigned)
Nc1cc(F)ccc1NC(=O)c1ccc(C[N-]C(=O)C[N-]C(=O)Cc2ccccc2)cc1 (optimized conformer: 53.96501893829968 kcal/mol)

>  <smiles>  (2) 
Nc1cc(F)ccc1NC(=O)c1ccc(CNC(=O)CNC(=O)Cc2ccccc2)cc1

>  <score_type>  (2) 
oracle

>  <origin>  (2) 
adg

>  <m_score__min__energy>  (2) 
-11.779999999999999

>  <m_primary>  (2) 
energy

$$$$
2:0
     RDKit          3D

 54 57  0  0  0  0  0  0  0  0999 V2000
   57.6000   27.1750   46.9490 O   0  0  0  0  0  0  0  0  0  0  0  0
   56.7080   27.0830   46.0640 C   0  0  0  0  0  0  0  0  0  0  0  0
   56.0240   25.8330   45.9070 N   0  0  0  0  0  0  0  0  0  0  0  0
   56.5070   24.6950   45.1810 C   0  0  0  0  0  0  0  0  0  0  0  0
   57.7770   24.1390   45.4360 C   0  0  0  0  0  0  0  0  0  0  0  0
   58.2110   23.0170   44.7220 C   0  0  0  0  0  0  0  0  0  0  0  0
   57.3740   22.4280   43.7700 C   0  0  0  0  0  0  0  0  0  0  0  0
   56.0980   22.9540   43.5350 C   0  0  0  0  0  0  0  0  0  0  0  0
   55.6650   24.0810   44.2450 C   0  0  0  0  0  0  0  0  0  0  0  0
   56.3630   28.2210   45.2490 N   0  0  0  0  0  0  0  0  0  0  0  0
   56.9850   29.5150   45.3480 C   0  0  0  0  0  0  0  0  0  0  0  0
   57.8780   29.8290   46.3890 C   0  0  0  0  0  0  0  0  0  0  0  0
   58.4290   31.1110   46.4860 C   0  0  0  0  0  0  0  0  0  0  0  0
   58.0690   32.1060   45.5650 C   0  0  0  0  0  0  0  0  0  0  0  0
   58.6740   33.7520   45.7290 S   0  0  0  0  0  0  0  0  0  0  0  0
   58.0620   34.6640   44.7030 O   0  0  0  0  0  0  0  0  0  0  0  0
   58.3170   34.2610   47.0980 O   0  0  0  0  0  0  0  0  0  0  0  0
   60.3980   33.7440   45.5580 N   0  0  0  0  0  0  0  0  0  0  0  0
   61.3260   33.6310   46.6450 C   0  0  0  0  0  0  0  0  0  0  0  0
   60.9050   33.3380   47.9550 C   0  0  0  0  0  0  0  0  0  0  0  0
   61.8380   33.2650   48.9940 C   0  0  0  0  0  0  0  0  0  0  0  0
   63.2020   33.4880   48.7390 C   0  0  0  0  0  0  0  0  0  0  0  0
   64.1630   33.4500   49.8090 N   0  0  0  0  0  0  0  0  0  0  0  0
   63.8140   34.0280   51.1120 C   0  0  0  0  0  0  0  0  0  0  0  0
   65.0890   34.4500   51.8510 C   0  0  0  0  0  0  0  0  0  0  0  0
   66.0340   33.3910   51.8860 O   0  0  0  0  0  0  0  0  0  0  0  0
   66.4510   33.0720   50.5720 C   0  0  0  0  0  0  0  0  0  0  0  0
   65.2840   32.5060   49.7650 C   0  0  0  0  0  0  0  0  0  0  0  0
   63.6220   33.7570   47.4280 C   0  0  0  0  0  0  0  0  0  0  0  0
   62.6900   33.8180   46.3880 C   0  0  0  0  0  0  0  0  0  0  0  0
   57.1600   31.8050   44.5410 C   0  0  0  0  0  0  0  0  0  0  0  0
   56.6250   30.5180   44.4340 C   0  0  0  0  0  0  0  0  0  0  0  0
   58.4291   24.5890   46.1991 H   0  0  0  0  0  0  0  0  0  0  0  0
   59.2107   22.5984   44.9097 H   0  0  0  0  0  0  0  0  0  0  0  0
   57.7185   21.5497   43.2045 H   0  0  0  0  0  0  0  0  0  0  0  0
   55.4362   22.4826   42.7935 H   0  0  0  0  0  0  0  0  0  0  0  0
   54.6580   24.4862   44.0666 H   0  0  0  0  0  0  0  0  0  0  0  0
   55.6390   28.0980   44.5020 H   0  0  0  0  0  0  0  0  0  0  0  0
   58.1444   29.0618   47.1309 H   0  0  0  0  0  0  0  0  0  0  0  0
   59.1471   31.3397   47.2873 H   0  0  0  0  0  0  0  0  0  0  0  0
   59.8386   33.1658   48.1626 H   0  0  0  0  0  0  0  0  0  0  0  0
   61.5029   33.0320   50.0155 H   0  0  0  0  0  0  0  0  0  0  0  0
   63.1713   34.9078   50.9609 H   0  0  0  0  0  0  0  0  0  0  0  0
   63.2788   33.2766   51.7111 H   0  0  0  0  0  0  0  0  0  0  0  0
   65.5350   35.3125   51.3341 H   0  0  0  0  0  0  0  0  0  0  0  0
   64.8222   34.7143   52.8849 H   0  0  0  0  0  0  0  0  0  0  0  0
   66.8246   33.9819   50.0795 H   0  0  0  0  0  0  0  0  0  0  0  0
   67.2481   32.3158   50.6246 H   0  0  0  0  0  0  0  0  0  0  0  0
   65.5973   32.3557   48.7213 H   0  0  0  0  0  0  0  0  0  0  0  0
   64.9719   31.5423   50.1937 H   0  0  0  0  0  0  0  0  0  0  0  0
   64.6892   33.9206   47.2174 H   0  0  0  0  0  0  0  0  0  0  0  0
   63.0303   34.0143   45.3605 H   0  0  0  0  0  0  0  0  0  0  0  0
   56.8673   32.5829   43.8205 H   0  0  0  0  0  0  0  0  0  0  0  0
   55.9150   30.2889   43.6257 H   0  0  0  0  0  0  0  0  0  0  0  0
  1  2  2  0
  2  3  1  0
  3  4  1  0
  4  5  2  0
  5  6  1  0
  6  7  2  0
  7  8  1  0
  8  9  2  0
  2 10  1  0
 10 11  1  0
 11 12  2  0
 12 13  1  0
 13 14  2  0
 14 15  1  0
 15 16  2  0
 15 17  2  0
 15 18  1  0
 18 19  1  0
 19 20  2  0
 20 21  1  0
 21 22  2  0
 22 23  1  0
 23 24  1  0
 24 25  1  0
 25 26  1  0
 26 27  1  0
 27 28  1  0
 22 29  1  0
 29 30  2  0
 14 31  1  0
 31 32  2  0
  9  4  1  0
 32 11  1  0
 30 19  1  0
 28 23  1  0
  5 33  1  0
  6 34  1  0
  7 35  1  0
  8 36  1  0
  9 37  1  0
 10 38  1  0
 12 39  1  0
 13 40  1  0
 20 41  1  0
 21 42  1  0
 24 43  1  0
 24 44  1  0
 25 45  1  0
 25 46  1  0
 27 47  1  0
 27 48  1  0
 28 49  1  0
 28 50  1  0
 29 51  1  0
 30 52  1  0
 31 53  1  0
 32 54  1  0
M  CHG  2   3  -1  18  -1
M  END
>  <UniqueID>  (3) 
3

>  <SMILES>  (3) 
O=C([N-]c1ccccc1)Nc1ccc(S(=O)(=O)[N-]c2ccc(N3CCOCC3)cc2)cc1

>  <Energy>  (3) 
75.2185210026134

>  <Genealogy>  (3) 
O=C([N-]c1ccccc1)Nc1ccc(S(=O)(=O)[N-]c2ccc(N3CCOCC3)cc2)cc1 (protonated)
O=C([N-]c1ccccc1)Nc1ccc(S(=O)(=O)[N-]c2ccc(N3CCOCC3)cc2)cc1 (3D coordinates assigned)
O=C([N-]c1ccccc1)Nc1ccc(S(=O)(=O)[N-]c2ccc(N3CCOCC3)cc2)cc1 (nonaromatic ring conformer: 75.2185210026134 kcal/mol)

>  <smiles>  (3) 
O=C(Nc1ccccc1)Nc1ccc(S(=O)(=O)Nc2ccc(N3CCOCC3)cc2)cc1

>  <score_type>  (3) 
oracle

>  <origin>  (3) 
adg

>  <m_score__min__energy>  (3) 
-11.949999999999999

>  <m_primary>  (3) 
energy

$$$$
3:0
     RDKit          3D

 51 53  0  0  0  0  0  0  0  0999 V2000
   56.6650   29.1640   45.5750 O   0  0  0  0  0  0  0  0  0  0  0  0
   57.7420   29.1790   44.9180 C   0  0  0  0  0  0  0  0  0  0  0  0
   58.9950   28.6400   45.5350 C   0  0  0  0  0  0  0  0  0  0  0  0
   59.3010   29.4160   46.7880 C   0  0  0  0  0  0  0  0  0  0  0  0
   58.5770   29.1750   47.9640 C   0  0  0  0  0  0  0  0  0  0  0  0
   58.9190   29.8310   49.1470 C   0  0  0  0  0  0  0  0  0  0  0  0
   59.9910   30.7270   49.1690 C   0  0  0  0  0  0  0  0  0  0  0  0
   60.7350   30.9800   48.0020 C   0  0  0  0  0  0  0  0  0  0  0  0
   61.8340   31.9150   48.0190 N   0  0  0  0  0  0  0  0  0  0  0  0
   61.7800   33.1220   48.8510 C   0  0  0  0  0  0  0  0  0  0  0  0
   63.1990   33.5830   49.2160 C   0  0  0  0  0  0  0  0  0  0  0  0
   64.0910   33.7500   48.0500 N   0  0  0  0  0  0  0  0  0  0  0  0
   63.6470   33.0670   46.8240 C   0  0  0  0  0  0  0  0  0  0  0  0
   62.9840   31.7200   47.1260 C   0  0  0  0  0  0  0  0  0  0  0  0
   60.3820   30.3120   46.8130 C   0  0  0  0  0  0  0  0  0  0  0  0
   57.7900   29.7930   43.6230 N   0  0  0  0  0  0  0  0  0  0  0  0
   56.9210   30.9130   43.2840 C   0  0  0  0  0  0  0  0  0  0  0  0
   57.7200   32.1910   43.2830 C   0  0  0  0  0  0  0  0  0  0  0  0
   58.1120   32.6520   42.1740 O   0  0  0  0  0  0  0  0  0  0  0  0
   58.0460   32.8920   44.5030 N   0  0  0  0  0  0  0  0  0  0  0  0
   59.1570   33.8540   44.5140 C   0  0  0  0  0  0  0  0  0  0  0  0
   60.0200   33.6460   45.7570 C   0  0  0  0  0  0  0  0  0  0  0  0
   59.1180   33.9080   47.3360 S   0  0  0  0  0  0  0  0  0  0  0  0
   57.3990   33.8550   46.7100 C   0  0  0  0  0  0  0  0  0  0  0  0
   57.1960   32.7290   45.6950 C   0  0  0  0  0  0  0  0  0  0  0  0
   58.8552   27.5779   45.7846 H   0  0  0  0  0  0  0  0  0  0  0  0
   59.8295   28.7387   44.8252 H   0  0  0  0  0  0  0  0  0  0  0  0
   57.7360   28.4660   47.9541 H   0  0  0  0  0  0  0  0  0  0  0  0
   58.3431   29.6423   50.0650 H   0  0  0  0  0  0  0  0  0  0  0  0
   60.2553   31.2386   50.1062 H   0  0  0  0  0  0  0  0  0  0  0  0
   61.2701   33.9229   48.2955 H   0  0  0  0  0  0  0  0  0  0  0  0
   61.2293   32.8944   49.7756 H   0  0  0  0  0  0  0  0  0  0  0  0
   63.1263   34.5485   49.7379 H   0  0  0  0  0  0  0  0  0  0  0  0
   63.6392   32.7957   49.8456 H   0  0  0  0  0  0  0  0  0  0  0  0
   64.1810   34.7700   47.8380 H   0  0  0  0  0  0  0  0  0  0  0  0
   62.9233   33.7099   46.3015 H   0  0  0  0  0  0  0  0  0  0  0  0
   64.5333   32.8774   46.2006 H   0  0  0  0  0  0  0  0  0  0  0  0
   62.6416   31.2635   46.1856 H   0  0  0  0  0  0  0  0  0  0  0  0
   63.7144   31.0600   47.6168 H   0  0  0  0  0  0  0  0  0  0  0  0
   60.9592   30.4942   45.8945 H   0  0  0  0  0  0  0  0  0  0  0  0
   58.6290   29.6270   43.0180 H   0  0  0  0  0  0  0  0  0  0  0  0
   56.4880   30.7513   42.2858 H   0  0  0  0  0  0  0  0  0  0  0  0
   56.1141   30.9874   44.0279 H   0  0  0  0  0  0  0  0  0  0  0  0
   59.7734   33.7081   43.6147 H   0  0  0  0  0  0  0  0  0  0  0  0
   58.7485   34.8753   44.5265 H   0  0  0  0  0  0  0  0  0  0  0  0
   60.4048   32.6156   45.7439 H   0  0  0  0  0  0  0  0  0  0  0  0
   60.8243   34.3954   45.7185 H   0  0  0  0  0  0  0  0  0  0  0  0
   56.7165   33.6967   47.5580 H   0  0  0  0  0  0  0  0  0  0  0  0
   57.1902   34.8101   46.2058 H   0  0  0  0  0  0  0  0  0  0  0  0
   57.4410   31.7705   46.1760 H   0  0  0  0  0  0  0  0  0  0  0  0
   56.1465   32.7565   45.3667 H   0  0  0  0  0  0  0  0  0  0  0  0
  1  2  2  0
  2  3  1  0
  3  4  1  0
  4  5  2  0
  5  6  1  0
  6  7  2  0
  7  8  1  0
  8  9  1  0
  9 10  1  0
 10 11  1  0
 11 12  1  0
 12 13  1  0
 13 14  1  0
  8 15  2  0
  2 16  1  0
 16 17  1  0
 17 18  1  0
 18 19  2  0
 18 20  1  0
 20 21  1  0
 21 22  1  0
 22 23  1  0
 23 24  1  0
 24 25  1  0
 15  4  1  0
 25 20  1  0
 14  9  1  0
  3 26  1  0
  3 27  1  0
  5 28  1  0
  6 29  1  0
  7 30  1  0
 10 31  1  0
 10 32  1  0
 11 33  1  0
 11 34  1  0
 12 35  1  0
 13 36  1  0
 13 37  1  0
 14 38  1  0
 14 39  1  0
 15 40  1  0
 16 41  1  0
 17 42  1  0
 17 43  1  0
 21 44  1  0
 21 45  1  0
 22 46  1  0
 22 47  1  0
 24 48  1  0
 24 49  1  0
 25 50  1  0
 25 51  1  0
M  END
>  <UniqueID>  (4) 
4

>  <SMILES>  (4) 
O=C(Cc1cccc(N2CCNCC2)c1)NCC(=O)N1CCSCC1

>  <Energy>  (4) 
53.080546463738216

>  <Genealogy>  (4) 
O=C(Cc1cccc(N2CCNCC2)c1)NCC(=O)N1CCSCC1 (3D coordinates assigned)
O=C(Cc1cccc(N2CCNCC2)c1)NCC(=O)N1CCSCC1 (nonaromatic ring conformer: 53.080546463738216 kcal/mol)

>  <smiles>  (4) 
O=C(Cc1cccc(N2CCNCC2)c1)NCC(=O)N1CCSCC1

>  <score_type>  (4) 
oracle

>  <origin>  (4) 
adg

>  <m_score__min__energy>  (4) 
-8.3599999999999994

>  <m_primary>  (4) 
energy

$$$$
4:0
     RDKit          3D

 62 67  0  0  0  0  0  0  0  0999 V2000
   58.7269   35.8933   45.1303 H   0  0  0  0  0  0  0  0  0  0  0  0
   58.5950   34.8040   45.2080 C   0  0  0  0  0  0  0  0  0  0  0  0
   57.5650   34.2000   44.5610 N   0  0  0  0  0  0  0  0  0  0  0  0
   57.3660   32.8570   44.6250 C   0  0  0  0  0  0  0  0  0  0  0  0
   56.5176   32.4031   44.0919 H   0  0  0  0  0  0  0  0  0  0  0  0
   58.2390   32.0460   45.3690 C   0  0  0  0  0  0  0  0  0  0  0  0
   58.0150   30.5830   45.4740 C   0  0  0  0  0  0  0  0  0  0  0  0
   57.2460   29.9080   44.5090 C   0  0  0  0  0  0  0  0  0  0  0  0
   56.8042   30.4695   43.6726 H   0  0  0  0  0  0  0  0  0  0  0  0
   57.0390   28.5290   44.6050 C   0  0  0  0  0  0  0  0  0  0  0  0
   56.4311   28.0152   43.8458 H   0  0  0  0  0  0  0  0  0  0  0  0
   57.6000   27.7930   45.6620 C   0  0  0  0  0  0  0  0  0  0  0  0
   57.3770   26.3720   45.7720 N   0  0  0  0  0  0  0  0  0  0  0  0
   56.1320   25.7320   45.9940 C   0  0  0  0  0  0  0  0  0  0  0  0
   55.0280   26.3410   46.0020 O   0  0  0  0  0  0  0  0  0  0  0  0
   56.2510   24.2670   46.1280 C   0  0  0  0  0  0  0  0  0  0  0  0
   55.7419   23.7528   45.2995 H   0  0  0  0  0  0  0  0  0  0  0  0
   55.7870   23.8795   47.0470 H   0  0  0  0  0  0  0  0  0  0  0  0
   57.7660   24.0300   46.0740 C   0  0  0  0  0  0  0  0  0  0  0  0
   57.9997   23.2468   45.3378 H   0  0  0  0  0  0  0  0  0  0  0  0
   58.1463   23.6991   47.0517 H   0  0  0  0  0  0  0  0  0  0  0  0
   58.4160   25.3610   45.6540 C   0  0  0  0  0  0  0  0  0  0  0  0
   58.7735   25.3003   44.6155 H   0  0  0  0  0  0  0  0  0  0  0  0
   59.2841   25.6012   46.2854 H   0  0  0  0  0  0  0  0  0  0  0  0
   58.3560   28.4700   46.6330 C   0  0  0  0  0  0  0  0  0  0  0  0
   58.7869   27.9100   47.4761 H   0  0  0  0  0  0  0  0  0  0  0  0
   58.5660   29.8490   46.5380 C   0  0  0  0  0  0  0  0  0  0  0  0
   59.1673   30.3634   47.3021 H   0  0  0  0  0  0  0  0  0  0  0  0
   59.3180   32.6550   46.0270 C   0  0  0  0  0  0  0  0  0  0  0  0
   60.0347   32.0382   46.5890 H   0  0  0  0  0  0  0  0  0  0  0  0
   59.4880   34.0480   45.9720 C   0  0  0  0  0  0  0  0  0  0  0  0
   60.5170   34.7080   46.6620 O   0  0  0  0  0  0  0  0  0  0  0  0
   61.5450   34.0740   47.3780 C   0  0  0  0  0  0  0  0  0  0  0  0
   62.7320   33.7850   46.6950 C   0  0  0  0  0  0  0  0  0  0  0  0
   62.8329   34.0660   45.6363 H   0  0  0  0  0  0  0  0  0  0  0  0
   63.7890   33.1440   47.3430 C   0  0  0  0  0  0  0  0  0  0  0  0
   64.7115   32.9132   46.7901 H   0  0  0  0  0  0  0  0  0  0  0  0
   63.6800   32.7950   48.6890 C   0  0  0  0  0  0  0  0  0  0  0  0
   64.5120   32.2803   49.1919 H   0  0  0  0  0  0  0  0  0  0  0  0
   62.5120   33.0990   49.4020 C   0  0  0  0  0  0  0  0  0  0  0  0
   62.4010   32.7700   50.7590 C   0  0  0  0  0  0  0  0  0  0  0  0
   63.2287   32.2541   51.2677 H   0  0  0  0  0  0  0  0  0  0  0  0
   61.2750   33.0860   51.4480 N   0  0  0  0  0  0  0  0  0  0  0  0
   60.2250   33.7330   50.8760 C   0  0  0  0  0  0  0  0  0  0  0  0
   59.1730   33.9720   51.6100 N   0  0  0  0  0  0  0  0  0  0  0  0
   58.1560   33.0440   52.0200 C   0  0  0  0  0  0  0  0  0  0  0  0
   57.0320   33.4940   52.3650 O   0  0  0  0  0  0  0  0  0  0  0  0
   58.3690   31.5810   52.0260 C   0  0  0  0  0  0  0  0  0  0  0  0
   57.3980   30.6400   52.1020 N   0  0  0  0  0  0  0  0  0  0  0  0
   55.9550   30.8220   52.2420 C   0  0  0  0  0  0  0  0  0  0  0  0
   55.6915   30.8552   53.3095 H   0  0  0  0  0  0  0  0  0  0  0  0
   55.6560   31.7650   51.7610 H   0  0  0  0  0  0  0  0  0  0  0  0
   55.4312   29.9828   51.7610 H   0  0  0  0  0  0  0  0  0  0  0  0
   58.0330   29.4560   52.0100 C   0  0  0  0  0  0  0  0  0  0  0  0
   57.5532   28.4662   52.0201 H   0  0  0  0  0  0  0  0  0  0  0  0
   59.3870   29.6950   51.9010 C   0  0  0  0  0  0  0  0  0  0  0  0
   60.1688   28.9261   51.8138 H   0  0  0  0  0  0  0  0  0  0  0  0
   59.5930   31.0240   51.9190 N   0  0  0  0  0  0  0  0  0  0  0  0
   60.5100   31.5160   51.8310 H   0  0  0  0  0  0  0  0  0  0  0  0
   60.2960   34.0820   49.5120 C   0  0  0  0  0  0  0  0  0  0  0  0
   59.4581   34.6140   49.0377 H   0  0  0  0  0  0  0  0  0  0  0  0
   61.4350   33.7520   48.7560 C   0  0  0  0  0  0  0  0  0  0  0  0
  1  2  1  0
  2  3  2  0
  3  4  1  0
  4  5  1  0
  4  6  2  0
  6  7  1  0
  7  8  2  0
  8  9  1  0
  8 10  1  0
 10 11  1  0
 10 12  2  0
 12 13  1  0
 13 14  1  0
 14 15  2  0
 14 16  1  0
 16 17  1  0
 16 18  1  0
 16 19  1  0
 19 20  1  0
 19 21  1  0
 19 22  1  0
 22 23  1  0
 22 24  1  0
 12 25  1  0
 25 26  1  0
 25 27  2  0
 27 28  1  0
  6 29  1  0
 29 30  1  0
 29 31  2  0
 31 32  1  0
 32 33  1  0
 33 34  2  0
 34 35  1  0
 34 36  1  0
 36 37  1  0
 36 38  2  0
 38 39  1  0
 38 40  1  0
 40 41  2  0
 41 42  1  0
 41 43  1  0
 43 44  1  0
 44 45  2  0
 45 46  1  0
 46 47  2  0
 46 48  1  0
 48 49  1  0
 49 50  1  0
 50 51  1  0
 50 52  1  0
 50 53  1  0
 49 54  1  0
 54 55  1  0
 54 56  2  0
 56 57  1  0
 56 58  1  0
 58 59  1  0
 44 60  1  0
 60 61  1  0
 60 62  2  0
 31  2  1  0
 62 33  1  0
 27  7  1  0
 62 40  1  0
 22 13  1  0
 58 48  2  0
M  CHG  2  43  -1  58   1
M  END
>  <UniqueID>  (5) 
5

>  <SMILES>  (5) 
Cn1cc[nH+]c1C(=O)/N=c1\cc2c(Oc3cncc(-c4ccc(N5CCCC5=O)cc4)c3)cccc2c[n-]1

>  <Energy>  (5) 
136.9601613118195

>  <Genealogy>  (5) 
Cn1cc[nH+]c1C(=O)N=c1cc2c(Oc3cncc(-c4ccc(N5CCCC5=O)cc4)c3)cccc2c[n-]1 (protonated)
Cn1cc[nH+]c1C(=O)/N=c1\cc2c(Oc3cncc(-c4ccc(N5CCCC5=O)cc4)c3)cccc2c[n-]1 (cis-trans isomerization)
Cn1cc[nH+]c1C(=O)/N=c1\cc2c(Oc3cncc(-c4ccc(N5CCCC5=O)cc4)c3)cccc2c[n-]1 (3D coordinates assigned)
Cn1cc[nH+]c1C(=O)/N=c1\cc2c(Oc3cncc(-c4ccc(N5CCCC5=O)cc4)c3)cccc2c[n-]1 (nonaromatic ring conformer: 136.9601613118195 kcal/mol)

>  <smiles>  (5) 
Cn1ccnc1C(=O)N=c1cc2c(Oc3cncc(-c4ccc(N5CCCC5=O)cc4)c3)cccc2c[nH]1

>  <score_type>  (5) 
oracle

>  <origin>  (5) 
adg

>  <m_score__min__energy>  (5) 
-10.85

>  <m_primary>  (5) 
energy

$$$$
5:0
     RDKit          3D

 38 40  0  0  0  0  0  0  0  0999 V2000
   56.2740   24.2380   47.5100 C   0  0  0  0  0  0  0  0  0  0  0  0
   56.8520   25.2840   46.6120 C   0  0  0  0  0  0  0  0  0  0  0  0
   58.1390   25.1360   46.0820 C   0  0  0  0  0  0  0  0  0  0  0  0
   58.6570   26.1340   45.2550 C   0  0  0  0  0  0  0  0  0  0  0  0
   57.8930   27.2660   44.9660 C   0  0  0  0  0  0  0  0  0  0  0  0
   56.6110   27.3890   45.5160 C   0  0  0  0  0  0  0  0  0  0  0  0
   55.8950   28.4370   45.2460 N   0  0  0  0  0  0  0  0  0  0  0  0
   56.4820   29.7960   44.3390 S   0  0  0  0  0  0  0  0  0  0  0  0
   55.3500   30.7530   44.0910 O   0  0  0  0  0  0  0  0  0  0  0  0
   57.0080   29.3190   43.0140 O   0  0  0  0  0  0  0  0  0  0  0  0
   57.7410   30.6240   45.2510 C   0  0  0  0  0  0  0  0  0  0  0  0
   58.4490   29.9310   46.2400 C   0  0  0  0  0  0  0  0  0  0  0  0
   59.4760   30.5650   46.9450 C   0  0  0  0  0  0  0  0  0  0  0  0
   59.8130   31.9020   46.6680 C   0  0  0  0  0  0  0  0  0  0  0  0
   60.9090   32.5750   47.4120 C   0  0  0  0  0  0  0  0  0  0  0  0
   62.2520   32.2190   47.1840 C   0  0  0  0  0  0  0  0  0  0  0  0
   63.2820   32.8560   47.8840 C   0  0  0  0  0  0  0  0  0  0  0  0
   62.9840   33.8500   48.8180 C   0  0  0  0  0  0  0  0  0  0  0  0
   61.6560   34.2120   49.0530 C   0  0  0  0  0  0  0  0  0  0  0  0
   60.6220   33.5800   48.3550 C   0  0  0  0  0  0  0  0  0  0  0  0
   59.0970   32.5910   45.6710 C   0  0  0  0  0  0  0  0  0  0  0  0
   58.0710   31.9560   44.9680 C   0  0  0  0  0  0  0  0  0  0  0  0
   56.1310   26.4020   46.3240 N   0  0  0  0  0  0  0  0  0  0  0  0
   56.4335   24.5267   48.5594 H   0  0  0  0  0  0  0  0  0  0  0  0
   55.1955   24.1432   47.3157 H   0  0  0  0  0  0  0  0  0  0  0  0
   56.7677   23.2744   47.3157 H   0  0  0  0  0  0  0  0  0  0  0  0
   58.7362   24.2421   46.3149 H   0  0  0  0  0  0  0  0  0  0  0  0
   59.6666   26.0286   44.8313 H   0  0  0  0  0  0  0  0  0  0  0  0
   58.2943   28.0543   44.3121 H   0  0  0  0  0  0  0  0  0  0  0  0
   58.1962   28.8839   46.4631 H   0  0  0  0  0  0  0  0  0  0  0  0
   60.0250   30.0138   47.7227 H   0  0  0  0  0  0  0  0  0  0  0  0
   62.4928   31.4351   46.4509 H   0  0  0  0  0  0  0  0  0  0  0  0
   64.3287   32.5732   47.6982 H   0  0  0  0  0  0  0  0  0  0  0  0
   63.7955   34.3481   49.3689 H   0  0  0  0  0  0  0  0  0  0  0  0
   61.4227   34.9959   49.7886 H   0  0  0  0  0  0  0  0  0  0  0  0
   59.5779   33.8700   48.5440 H   0  0  0  0  0  0  0  0  0  0  0  0
   59.3476   33.6377   45.4439 H   0  0  0  0  0  0  0  0  0  0  0  0
   57.5199   32.5035   44.1892 H   0  0  0  0  0  0  0  0  0  0  0  0
  1  2  1  0
  2  3  2  0
  3  4  1  0
  4  5  2  0
  5  6  1  0
  6  7  2  3
  7  8  1  0
  8  9  2  0
  8 10  2  0
  8 11  1  0
 11 12  2  0
 12 13  1  0
 13 14  2  0
 14 15  1  0
 15 16  2  0
 16 17  1  0
 17 18  2  0
 18 19  1  0
 19 20  2  0
 14 21  1  0
 21 22  2  0
  6 23  1  0
 23  2  1  0
 22 11  1  0
 20 15  1  0
  1 24  1  0
  1 25  1  0
  1 26  1  0
  3 27  1  0
  4 28  1  0
  5 29  1  0
 12 30  1  0
 13 31  1  0
 16 32  1  0
 17 33  1  0
 18 34  1  0
 19 35  1  0
 20 36  1  0
 21 37  1  0
 22 38  1  0
M  CHG  1  23  -1
M  END
>  <UniqueID>  (6) 
6

>  <SMILES>  (6) 
Cc1cccc(=NS(=O)(=O)c2ccc(-c3ccccc3)cc2)[n-]1

>  <Energy>  (6) 
47.61312145771097

>  <Genealogy>  (6) 
Cc1cccc(=NS(=O)(=O)c2ccc(-c3ccccc3)cc2)[n-]1 (protonated)
Cc1cccc(=NS(=O)(=O)c2ccc(-c3ccccc3)cc2)[n-]1 (3D coordinates assigned)
Cc1cccc(=NS(=O)(=O)c2ccc(-c3ccccc3)cc2)[n-]1 (optimized conformer: 47.61312145771097 kcal/mol)

>  <smiles>  (6) 
Cc1cccc(=NS(=O)(=O)c2ccc(-c3ccccc3)cc2)[nH]1

>  <score_type>  (6) 
oracle

>  <origin>  (6) 
adg

>  <m_score__min__energy>  (6) 
-9.9600000000000009

>  <m_primary>  (6) 
energy

$$$$
6:0
     RDKit          3D

 58 61  0  0  0  0  0  0  0  0999 V2000
   59.0520   32.5420   52.2780 C   0  0  0  0  0  0  0  0  0  0  0  0
   58.2460   31.8140   51.2970 N   0  0  0  0  0  0  0  0  0  0  0  0
   56.8360   31.5530   51.5920 C   0  0  0  0  0  0  0  0  0  0  0  0
   58.8470   31.1940   50.1460 C   0  0  0  0  0  0  0  0  0  0  0  0
   58.4690   30.0450   49.7930 O   0  0  0  0  0  0  0  0  0  0  0  0
   59.8910   31.8700   49.3480 C   0  0  0  0  0  0  0  0  0  0  0  0
   61.2180   31.6630   49.5360 N   0  0  0  0  0  0  0  0  0  0  0  0
   61.8460   32.3510   48.5630 C   0  0  0  0  0  0  0  0  0  0  0  0
   63.2190   32.4250   48.3340 C   0  0  0  0  0  0  0  0  0  0  0  0
   63.6620   33.1850   47.2370 C   0  0  0  0  0  0  0  0  0  0  0  0
   62.7340   33.8440   46.3990 C   0  0  0  0  0  0  0  0  0  0  0  0
   61.3540   33.7480   46.6520 C   0  0  0  0  0  0  0  0  0  0  0  0
   60.9460   32.9880   47.7470 C   0  0  0  0  0  0  0  0  0  0  0  0
   59.6940   32.6920   48.2390 C   0  0  0  0  0  0  0  0  0  0  0  0
   58.4480   32.9900   47.6120 N   0  0  0  0  0  0  0  0  0  0  0  0
   58.0960   32.4430   46.0080 S   0  0  0  0  0  0  0  0  0  0  0  0
   56.8080   33.0710   45.5540 O   0  0  0  0  0  0  0  0  0  0  0  0
   59.1880   32.8550   45.0620 O   0  0  0  0  0  0  0  0  0  0  0  0
   57.9500   30.6910   46.0210 C   0  0  0  0  0  0  0  0  0  0  0  0
   56.9990   30.0390   45.2070 C   0  0  0  0  0  0  0  0  0  0  0  0
   56.8570   28.6440   45.2620 C   0  0  0  0  0  0  0  0  0  0  0  0
   57.6550   27.9270   46.1600 C   0  0  0  0  0  0  0  0  0  0  0  0
   58.6000   28.5530   46.9220 C   0  0  0  0  0  0  0  0  0  0  0  0
   58.7730   29.9360   46.8760 C   0  0  0  0  0  0  0  0  0  0  0  0
   59.3680   27.5630   47.7280 C   0  0  0  0  0  0  0  0  0  0  0  0
   58.7650   26.2050   47.2950 C   0  0  0  0  0  0  0  0  0  0  0  0
   57.6820   26.5230   46.3650 N   0  0  0  0  0  0  0  0  0  0  0  0
   56.7600   25.5480   45.8570 C   0  0  0  0  0  0  0  0  0  0  0  0
   55.5230   25.7390   46.0050 O   0  0  0  0  0  0  0  0  0  0  0  0
   57.2440   24.3230   45.1250 C   0  0  0  0  0  0  0  0  0  0  0  0
   56.6440   24.2110   43.7160 C   0  0  0  0  0  0  0  0  0  0  0  0
   55.5340   23.2010   43.6550 C   0  0  0  0  0  0  0  0  0  0  0  0
   54.4060   23.3050   44.5240 N   0  0  0  0  0  0  0  0  0  0  0  0
   55.6050   22.2420   42.8390 O   0  0  0  0  0  0  0  0  0  0  0  0
   58.7381   32.2584   53.2934 H   0  0  0  0  0  0  0  0  0  0  0  0
   60.1139   32.2908   52.1390 H   0  0  0  0  0  0  0  0  0  0  0  0
   58.9098   33.6239   52.1390 H   0  0  0  0  0  0  0  0  0  0  0  0
   56.6883   31.5257   52.6817 H   0  0  0  0  0  0  0  0  0  0  0  0
   56.2166   32.3518   51.1580 H   0  0  0  0  0  0  0  0  0  0  0  0
   56.5436   30.5855   51.1580 H   0  0  0  0  0  0  0  0  0  0  0  0
   61.6650   31.0700   50.2710 H   0  0  0  0  0  0  0  0  0  0  0  0
   63.9329   31.9056   48.9902 H   0  0  0  0  0  0  0  0  0  0  0  0
   64.7391   33.2673   47.0294 H   0  0  0  0  0  0  0  0  0  0  0  0
   63.0933   34.4354   45.5439 H   0  0  0  0  0  0  0  0  0  0  0  0
   60.6212   34.2556   46.0075 H   0  0  0  0  0  0  0  0  0  0  0  0
   56.3661   30.6272   44.5262 H   0  0  0  0  0  0  0  0  0  0  0  0
   56.1347   28.1261   44.6139 H   0  0  0  0  0  0  0  0  0  0  0  0
   59.5378   30.4266   47.4960 H   0  0  0  0  0  0  0  0  0  0  0  0
   60.4413   27.6106   47.4918 H   0  0  0  0  0  0  0  0  0  0  0  0
   59.2942   27.7405   48.8111 H   0  0  0  0  0  0  0  0  0  0  0  0
   59.5283   25.5894   46.7966 H   0  0  0  0  0  0  0  0  0  0  0  0
   58.3983   25.6329   48.1600 H   0  0  0  0  0  0  0  0  0  0  0  0
   58.3396   24.3715   45.0401 H   0  0  0  0  0  0  0  0  0  0  0  0
   56.9241   23.4402   45.6981 H   0  0  0  0  0  0  0  0  0  0  0  0
   56.2469   25.1932   43.4202 H   0  0  0  0  0  0  0  0  0  0  0  0
   57.4408   23.8814   43.0330 H   0  0  0  0  0  0  0  0  0  0  0  0
   53.6410   22.5970   44.4810 H   0  0  0  0  0  0  0  0  0  0  0  0
   54.3380   24.0800   45.2200 H   0  0  0  0  0  0  0  0  0  0  0  0
  1  2  1  0
  2  3  1  0
  2  4  1  0
  4  5  2  0
  4  6  1  0
  6  7  1  0
  7  8  1  0
  8  9  2  0
  9 10  1  0
 10 11  2  0
 11 12  1  0
 12 13  2  0
 13 14  1  0
 14 15  1  0
 15 16  1  0
 16 17  2  0
 16 18  2  0
 16 19  1  0
 19 20  2  0
 20 21  1  0
 21 22  2  0
 22 23  1  0
 23 24  2  0
 23 25  1  0
 25 26  1  0
 26 27  1  0
 27 28  1  0
 28 29  2  0
 28 30  1  0
 30 31  1  0
 31 32  1  0
 32 33  1  0
 32 34  2  0
 14  6  2  0
 24 19  1  0
 13  8  1  0
 27 22  1  0
  1 35  1  0
  1 36  1  0
  1 37  1  0
  3 38  1  0
  3 39  1  0
  3 40  1  0
  7 41  1  0
  9 42  1  0
 10 43  1  0
 11 44  1  0
 12 45  1  0
 20 46  1  0
 21 47  1  0
 24 48  1  0
 25 49  1  0
 25 50  1  0
 26 51  1  0
 26 52  1  0
 30 53  1  0
 30 54  1  0
 31 55  1  0
 31 56  1  0
 33 57  1  0
 33 58  1  0
M  CHG  1  15  -1
M  END
>  <UniqueID>  (7) 
7

>  <SMILES>  (7) 
CN(C)C(=O)c1[nH]c2ccccc2c1[N-]S(=O)(=O)c1ccc2c(c1)CCN2C(=O)CCC(N)=O

>  <Energy>  (7) 
117.66007934660814

>  <Genealogy>  (7) 
CN(C)C(=O)c1[nH]c2ccccc2c1[N-]S(=O)(=O)c1ccc2c(c1)CCN2C(=O)CCC(N)=O (protonated)
CN(C)C(=O)c1[nH]c2ccccc2c1[N-]S(=O)(=O)c1ccc2c(c1)CCN2C(=O)CCC(N)=O (3D coordinates assigned)
CN(C)C(=O)c1[nH]c2ccccc2c1[N-]S(=O)(=O)c1ccc2c(c1)CCN2C(=O)CCC(N)=O (nonaromatic ring conformer: 117.66007934660814 kcal/mol)

>  <smiles>  (7) 
CN(C)C(=O)c1[nH]c2ccccc2c1NS(=O)(=O)c1ccc2c(c1)CCN2C(=O)CCC(N)=O

>  <score_type>  (7) 
oracle

>  <origin>  (7) 
adg

>  <m_score__min__energy>  (7) 
-11.19

>  <m_primary>  (7) 
energy

$$$$
7:0
     RDKit          3D

 50 53  0  0  0  0  0  0  0  0999 V2000
   57.7440   26.6200   44.2480 C   0  0  0  0  0  0  0  0  0  0  0  0
   58.1300   27.2010   45.3960 C   0  0  0  0  0  0  0  0  0  0  0  0
   58.0050   26.6820   46.6970 C   0  0  0  0  0  0  0  0  0  0  0  0
   57.3780   25.5830   47.1620 C   0  0  0  0  0  0  0  0  0  0  0  0
   56.2220   24.9120   46.5380 C   0  0  0  0  0  0  0  0  0  0  0  0
   55.1540   25.6450   45.9920 C   0  0  0  0  0  0  0  0  0  0  0  0
   55.1710   27.0350   45.9960 O   0  0  0  0  0  0  0  0  0  0  0  0
   54.0920   24.9940   45.4540 N   0  0  0  0  0  0  0  0  0  0  0  0
   54.0240   23.6370   45.4580 C   0  0  0  0  0  0  0  0  0  0  0  0
   53.0330   23.0560   44.9470 O   0  0  0  0  0  0  0  0  0  0  0  0
   55.0220   22.9100   46.0210 N   0  0  0  0  0  0  0  0  0  0  0  0
   56.1080   23.5140   46.5680 C   0  0  0  0  0  0  0  0  0  0  0  0
   57.0120   22.8070   47.0920 O   0  0  0  0  0  0  0  0  0  0  0  0
   58.6780   27.5600   47.5290 C   0  0  0  0  0  0  0  0  0  0  0  0
   59.1480   28.5860   46.7380 C   0  0  0  0  0  0  0  0  0  0  0  0
   59.9180   29.7650   47.2530 C   0  0  0  0  0  0  0  0  0  0  0  0
   58.8100   28.3800   45.4440 N   0  0  0  0  0  0  0  0  0  0  0  0
   59.1960   29.2320   44.3070 C   0  0  0  0  0  0  0  0  0  0  0  0
   58.4750   30.5460   44.3580 C   0  0  0  0  0  0  0  0  0  0  0  0
   58.4600   31.2840   43.3350 O   0  0  0  0  0  0  0  0  0  0  0  0
   57.8070   30.9630   45.5570 N   0  0  0  0  0  0  0  0  0  0  0  0
   57.5960   32.3740   45.8670 C   0  0  0  0  0  0  0  0  0  0  0  0
   58.6840   32.8570   46.7860 C   0  0  0  0  0  0  0  0  0  0  0  0
   58.4090   33.1080   48.1390 C   0  0  0  0  0  0  0  0  0  0  0  0
   59.4040   33.4880   48.9840 N   0  0  0  0  0  0  0  0  0  0  0  0
   60.6890   33.6220   48.5620 C   0  0  0  0  0  0  0  0  0  0  0  0
   61.6880   34.0120   49.4610 C   0  0  0  0  0  0  0  0  0  0  0  0
   63.0150   34.1180   49.0310 C   0  0  0  0  0  0  0  0  0  0  0  0
   63.3460   33.8430   47.7000 C   0  0  0  0  0  0  0  0  0  0  0  0
   62.3530   33.4660   46.7900 C   0  0  0  0  0  0  0  0  0  0  0  0
   61.0210   33.3560   47.2150 C   0  0  0  0  0  0  0  0  0  0  0  0
   60.0040   32.9760   46.3290 C   0  0  0  0  0  0  0  0  0  0  0  0
   57.9006   27.1373   43.2900 H   0  0  0  0  0  0  0  0  0  0  0  0
   57.2713   25.6269   44.2660 H   0  0  0  0  0  0  0  0  0  0  0  0
   57.7647   25.1455   48.0942 H   0  0  0  0  0  0  0  0  0  0  0  0
   58.8123   27.4581   48.6160 H   0  0  0  0  0  0  0  0  0  0  0  0
   59.9115   29.7551   48.3529 H   0  0  0  0  0  0  0  0  0  0  0  0
   60.9557   29.7113   46.8919 H   0  0  0  0  0  0  0  0  0  0  0  0
   59.4517   30.6936   46.8919 H   0  0  0  0  0  0  0  0  0  0  0  0
   60.2802   29.4138   44.3442 H   0  0  0  0  0  0  0  0  0  0  0  0
   58.9261   28.7175   43.3730 H   0  0  0  0  0  0  0  0  0  0  0  0
   57.6170   30.2610   46.3050 H   0  0  0  0  0  0  0  0  0  0  0  0
   57.6159   32.9602   44.9364 H   0  0  0  0  0  0  0  0  0  0  0  0
   56.6202   32.4978   46.3595 H   0  0  0  0  0  0  0  0  0  0  0  0
   57.3824   32.9967   48.5181 H   0  0  0  0  0  0  0  0  0  0  0  0
   61.4296   34.2354   50.5066 H   0  0  0  0  0  0  0  0  0  0  0  0
   63.7997   34.4182   49.7410 H   0  0  0  0  0  0  0  0  0  0  0  0
   64.3915   33.9236   47.3677 H   0  0  0  0  0  0  0  0  0  0  0  0
   62.6163   33.2561   45.7428 H   0  0  0  0  0  0  0  0  0  0  0  0
   60.2415   32.7710   45.2747 H   0  0  0  0  0  0  0  0  0  0  0  0
  1  2  2  0
  2  3  1  0
  3  4  2  3
  4  5  1  0
  5  6  2  0
  6  7  1  0
  6  8  1  0
  8  9  1  0
  9 10  2  0
  9 11  1  0
 11 12  1  0
 12 13  2  0
  3 14  1  0
 14 15  2  0
 15 16  1  0
 15 17  1  0
 17 18  1  0
 18 19  1  0
 19 20  2  0
 19 21  1  0
 21 22  1  0
 22 23  1  0
 23 24  2  0
 24 25  1  0
 25 26  2  0
 26 27  1  0
 27 28  2  0
 28 29  1  0
 29 30  2  0
 30 31  1  0
 31 32  2  0
 17  2  1  0
 32 23  1  0
 12  5  1  0
 31 26  1  0
  1 33  1  0
  1 34  1  0
  4 35  1  0
 14 36  1  0
 16 37  1  0
 16 38  1  0
 16 39  1  0
 18 40  1  0
 18 41  1  0
 21 42  1  0
 22 43  1  0
 22 44  1  0
 24 45  1  0
 27 46  1  0
 28 47  1  0
 29 48  1  0
 30 49  1  0
 32 50  1  0
M  CHG  3   7  -1   8  -1  11  -1
M  END
>  <UniqueID>  (8) 
8

>  <SMILES>  (8) 
C=c1c(=Cc2c([O-])[n-]c(=O)[n-]c2=O)cc(C)n1CC(=O)NCc1cnc2ccccc2c1

>  <Energy>  (8) 
91.08385427078456

>  <Genealogy>  (8) 
C=c1c(=Cc2c([O-])[n-]c(=O)[n-]c2=O)cc(C)n1CC(=O)NCc1cnc2ccccc2c1 (protonated)
C=c1c(=Cc2c([O-])[n-]c(=O)[n-]c2=O)cc(C)n1CC(=O)NCc1cnc2ccccc2c1 (3D coordinates assigned)
C=c1c(=Cc2c([O-])[n-]c(=O)[n-]c2=O)cc(C)n1CC(=O)NCc1cnc2ccccc2c1 (optimized conformer: 91.08385427078456 kcal/mol)

>  <smiles>  (8) 
C=c1c(=Cc2c(O)[nH]c(=O)[nH]c2=O)cc(C)n1CC(=O)NCc1cnc2ccccc2c1

>  <score_type>  (8) 
oracle

>  <origin>  (8) 
adg

>  <m_score__min__energy>  (8) 
-16.449999999999999

>  <m_primary>  (8) 
energy

$$$$
8:0
     RDKit          3D

 62 66  0  0  0  0  0  0  0  0999 V2000
   57.9330   25.8340   47.1760 H   0  0  0  0  0  0  0  0  0  0  0  0
   57.6860   24.8690   46.9890 O   0  0  0  0  0  0  0  0  0  0  0  0
   56.4400   24.5160   46.4700 C   0  0  0  0  0  0  0  0  0  0  0  0
   56.0660   23.1640   46.4570 C   0  0  0  0  0  0  0  0  0  0  0  0
   56.7832   22.3956   46.7813 H   0  0  0  0  0  0  0  0  0  0  0  0
   54.7920   22.7880   46.0360 C   0  0  0  0  0  0  0  0  0  0  0  0
   54.4989   21.7278   46.0262 H   0  0  0  0  0  0  0  0  0  0  0  0
   53.8950   23.7710   45.6280 C   0  0  0  0  0  0  0  0  0  0  0  0
   52.8793   23.4916   45.3113 H   0  0  0  0  0  0  0  0  0  0  0  0
   54.2740   25.0750   45.6210 N   0  0  0  0  0  0  0  0  0  0  0  0
   55.5160   25.4870   46.0010 C   0  0  0  0  0  0  0  0  0  0  0  0
   55.7640   26.7680   45.9430 N   0  0  0  0  0  0  0  0  0  0  0  0
   57.0130   27.4750   45.9800 C   0  0  0  0  0  0  0  0  0  0  0  0
   57.7180   27.4820   47.0210 O   0  0  0  0  0  0  0  0  0  0  0  0
   57.5560   28.0770   44.7200 C   0  0  0  0  0  0  0  0  0  0  0  0
   58.6050   27.7708   44.5937 H   0  0  0  0  0  0  0  0  0  0  0  0
   56.9568   27.7255   43.8671 H   0  0  0  0  0  0  0  0  0  0  0  0
   57.4810   29.5810   44.7870 C   0  0  0  0  0  0  0  0  0  0  0  0
   57.7720   30.2470   45.9880 C   0  0  0  0  0  0  0  0  0  0  0  0
   57.9732   29.6654   46.8998 H   0  0  0  0  0  0  0  0  0  0  0  0
   57.8080   31.6430   46.0340 C   0  0  0  0  0  0  0  0  0  0  0  0
   58.0401   32.1522   46.9810 H   0  0  0  0  0  0  0  0  0  0  0  0
   57.5500   32.4010   44.8800 C   0  0  0  0  0  0  0  0  0  0  0  0
   57.7060   33.8730   44.9060 C   0  0  0  0  0  0  0  0  0  0  0  0
   56.7250   34.6080   45.2080 O   0  0  0  0  0  0  0  0  0  0  0  0
   58.9870   34.4680   44.6610 N   0  0  0  0  0  0  0  0  0  0  0  0
   59.6800   35.2610   45.6730 C   0  0  0  0  0  0  0  0  0  0  0  0
   60.5278   35.7896   45.2128 H   0  0  0  0  0  0  0  0  0  0  0  0
   58.9911   36.0008   46.1066 H   0  0  0  0  0  0  0  0  0  0  0  0
   60.1830   34.3360   46.7480 C   0  0  0  0  0  0  0  0  0  0  0  0
   59.3020   33.8550   47.7290 C   0  0  0  0  0  0  0  0  0  0  0  0
   58.2866   34.2712   47.8045 H   0  0  0  0  0  0  0  0  0  0  0  0
   59.7090   32.8500   48.6100 C   0  0  0  0  0  0  0  0  0  0  0  0
   59.0112   32.4820   49.3766 H   0  0  0  0  0  0  0  0  0  0  0  0
   61.0010   32.3050   48.5260 C   0  0  0  0  0  0  0  0  0  0  0  0
   61.4000   31.1670   49.3870 C   0  0  0  0  0  0  0  0  0  0  0  0
   62.2790   31.3300   50.2750 O   0  0  0  0  0  0  0  0  0  0  0  0
   60.8360   29.8630   49.2040 N   0  0  0  0  0  0  0  0  0  0  0  0
   60.7790   29.1870   47.9600 C   0  0  0  0  0  0  0  0  0  0  0  0
   60.8360   29.7660   46.6860 C   0  0  0  0  0  0  0  0  0  0  0  0
   60.9560   30.8527   46.5649 H   0  0  0  0  0  0  0  0  0  0  0  0
   60.7360   28.9230   45.5670 C   0  0  0  0  0  0  0  0  0  0  0  0
   60.7786   29.3491   44.5538 H   0  0  0  0  0  0  0  0  0  0  0  0
   60.5810   27.5310   45.7390 C   0  0  0  0  0  0  0  0  0  0  0  0
   60.5108   26.8744   44.8593 H   0  0  0  0  0  0  0  0  0  0  0  0
   60.5160   26.9810   47.0300 C   0  0  0  0  0  0  0  0  0  0  0  0
   60.3884   25.8980   47.1744 H   0  0  0  0  0  0  0  0  0  0  0  0
   60.6170   27.8400   48.1250 C   0  0  0  0  0  0  0  0  0  0  0  0
   60.5590   27.4960   49.5710 C   0  0  0  0  0  0  0  0  0  0  0  0
   61.3640   26.7972   49.8424 H   0  0  0  0  0  0  0  0  0  0  0  0
   59.6225   26.9949   49.8571 H   0  0  0  0  0  0  0  0  0  0  0  0
   60.7530   28.8670   50.2720 C   0  0  0  0  0  0  0  0  0  0  0  0
   61.6800   28.8647   50.8642 H   0  0  0  0  0  0  0  0  0  0  0  0
   59.9239   29.0860   50.9609 H   0  0  0  0  0  0  0  0  0  0  0  0
   61.8870   32.8070   47.5530 C   0  0  0  0  0  0  0  0  0  0  0  0
   62.9095   32.4066   47.4889 H   0  0  0  0  0  0  0  0  0  0  0  0
   61.4800   33.8070   46.6700 C   0  0  0  0  0  0  0  0  0  0  0  0
   62.1794   34.1827   45.9087 H   0  0  0  0  0  0  0  0  0  0  0  0
   57.2340   31.7330   43.6840 C   0  0  0  0  0  0  0  0  0  0  0  0
   57.0059   32.3147   42.7786 H   0  0  0  0  0  0  0  0  0  0  0  0
   57.2070   30.3350   43.6350 C   0  0  0  0  0  0  0  0  0  0  0  0
   56.9420   29.7160   42.4570 F   0  0  0  0  0  0  0  0  0  0  0  0
  1  2  1  0
  2  3  1  0
  3  4  2  0
  4  5  1  0
  4  6  1  0
  6  7  1  0
  6  8  2  0
  8  9  1  0
  8 10  1  0
 10 11  1  0
 11 12  2  0
 12 13  1  0
 13 14  2  0
 13 15  1  0
 15 16  1  0
 15 17  1  0
 15 18  1  0
 18 19  2  0
 19 20  1  0
 19 21  1  0
 21 22  1  0
 21 23  2  0
 23 24  1  0
 24 25  2  0
 24 26  1  0
 26 27  1  0
 27 28  1  0
 27 29  1  0
 27 30  1  0
 30 31  2  0
 31 32  1  0
 31 33  1  0
 33 34  1  0
 33 35  2  0
 35 36  1  0
 36 37  2  0
 36 38  1  0
 38 39  1  0
 39 40  2  0
 40 41  1  0
 40 42  1  0
 42 43  1  0
 42 44  2  0
 44 45  1  0
 44 46  1  0
 46 47  1  0
 46 48  2  0
 48 49  1  0
 49 50  1  0
 49 51  1  0
 49 52  1  0
 52 53  1  0
 52 54  1  0
 35 55  1  0
 55 56  1  0
 55 57  2  0
 57 58  1  0
 23 59  1  0
 59 60  1  0
 59 61  2  0
 61 62  1  0
 11  3  1  0
 61 18  1  0
 57 30  1  0
 52 38  1  0
 48 39  1  0
M  CHG  2  10  -1  26  -1
M  END
>  <UniqueID>  (9) 
9

>  <SMILES>  (9) 
O=C(Cc1ccc(C(=O)[N-]Cc2ccc(C(=O)N3CCc4ccccc43)cc2)cc1F)/N=c1/[n-]cccc1O

>  <Energy>  (9) 
102.4473319990187

>  <Genealogy>  (9) 
O=C(Cc1ccc(C(=O)[N-]Cc2ccc(C(=O)N3CCc4ccccc43)cc2)cc1F)N=c1[n-]cccc1O (protonated)
O=C(Cc1ccc(C(=O)[N-]Cc2ccc(C(=O)N3CCc4ccccc43)cc2)cc1F)/N=c1/[n-]cccc1O (cis-trans isomerization)
O=C(Cc1ccc(C(=O)[N-]Cc2ccc(C(=O)N3CCc4ccccc43)cc2)cc1F)/N=c1/[n-]cccc1O (3D coordinates assigned)
O=C(Cc1ccc(C(=O)[N-]Cc2ccc(C(=O)N3CCc4ccccc43)cc2)cc1F)/N=c1/[n-]cccc1O (nonaromatic ring conformer: 102.4473319990187 kcal/mol)

>  <smiles>  (9) 
O=C(Cc1ccc(C(=O)NCc2ccc(C(=O)N3CCc4ccccc43)cc2)cc1F)N=c1[nH]cccc1O

>  <score_type>  (9) 
oracle

>  <origin>  (9) 
adg

>  <m_score__min__energy>  (9) 
-13.970000000000001

>  <m_primary>  (9) 
energy

$$$$
9:0
     RDKit          3D

 27 28  0  0  0  0  0  0  0  0999 V2000
   54.7270   28.9660   45.2870 H   0  0  0  0  0  0  0  0  0  0  0  0
   55.6980   29.0050   45.0030 O   0  0  0  0  0  0  0  0  0  0  0  0
   56.6220   28.0020   45.3090 C   0  0  0  0  0  0  0  0  0  0  0  0
   56.1510   26.8110   45.8810 C   0  0  0  0  0  0  0  0  0  0  0  0
   54.7950   26.6530   46.1440 O   0  0  0  0  0  0  0  0  0  0  0  0
   57.0380   25.7750   46.1870 C   0  0  0  0  0  0  0  0  0  0  0  0
   56.6606   24.8417   46.6303 H   0  0  0  0  0  0  0  0  0  0  0  0
   58.4010   25.9230   45.9310 C   0  0  0  0  0  0  0  0  0  0  0  0
   59.0969   25.1062   46.1731 H   0  0  0  0  0  0  0  0  0  0  0  0
   58.8840   27.1060   45.3680 C   0  0  0  0  0  0  0  0  0  0  0  0
   59.9617   27.2204   45.1796 H   0  0  0  0  0  0  0  0  0  0  0  0
   58.0040   28.1520   45.0400 C   0  0  0  0  0  0  0  0  0  0  0  0
   58.5350   29.4230   44.4920 C   0  0  0  0  0  0  0  0  0  0  0  0
   58.8146   29.4543   43.4286 H   0  0  0  0  0  0  0  0  0  0  0  0
   58.6940   30.5440   45.2270 C   0  0  0  0  0  0  0  0  0  0  0  0
   59.8170   30.7040   45.9780 N   0  0  0  0  0  0  0  0  0  0  0  0
   60.0470   31.8100   46.7260 C   0  0  0  0  0  0  0  0  0  0  0  0
   60.9713   31.8862   47.3175 H   0  0  0  0  0  0  0  0  0  0  0  0
   59.1200   32.8540   46.7520 C   0  0  0  0  0  0  0  0  0  0  0  0
   59.4190   34.0080   47.5700 C   0  0  0  0  0  0  0  0  0  0  0  0
   59.6580   34.9320   48.2240 N   0  0  0  0  0  0  0  0  0  0  0  0
   57.9330   32.7460   45.9840 C   0  0  0  0  0  0  0  0  0  0  0  0
   57.0150   33.7330   45.9790 C   0  0  0  0  0  0  0  0  0  0  0  0
   56.1004   33.6304   45.3766 H   0  0  0  0  0  0  0  0  0  0  0  0
   57.1805   34.6411   46.5774 H   0  0  0  0  0  0  0  0  0  0  0  0
   57.7250   31.5750   45.2130 C   0  0  0  0  0  0  0  0  0  0  0  0
   56.6770   31.4510   44.5150 O   0  0  0  0  0  0  0  0  0  0  0  0
  1  2  1  0
  2  3  1  0
  3  4  2  0
  4  5  1  0
  4  6  1  0
  6  7  1  0
  6  8  2  0
  8  9  1  0
  8 10  1  0
 10 11  1  0
 10 12  2  0
 12 13  1  0
 13 14  1  0
 13 15  2  0
 15 16  1  0
 16 17  1  0
 17 18  1  0
 17 19  2  0
 19 20  1  0
 20 21  3  0
 19 22  1  0
 22 23  2  0
 23 24  1  0
 23 25  1  0
 22 26  1  0
 26 27  2  0
 12  3  1  0
 26 15  1  0
M  CHG  2   5  -1  16  -1
M  END
>  <UniqueID>  (10) 
10

>  <SMILES>  (10) 
C=c1c(C#N)c[n-]/c(=C\c2cccc([O-])c2O)c1=O

>  <Energy>  (10) 
42.634795851256925

>  <Genealogy>  (10) 
C=c1c(C#N)c[n-]c(=Cc2cccc([O-])c2O)c1=O (protonated)
C=c1c(C#N)c[n-]/c(=C\c2cccc([O-])c2O)c1=O (cis-trans isomerization)
C=c1c(C#N)c[n-]/c(=C\c2cccc([O-])c2O)c1=O (3D coordinates assigned)
C=c1c(C#N)c[n-]/c(=C\c2cccc([O-])c2O)c1=O (optimized conformer: 42.634795851256925 kcal/mol)

>  <smiles>  (10) 
C=c1c(C#N)c[nH]c(=Cc2cccc(O)c2O)c1=O

>  <score_type>  (10) 
oracle

>  <origin>  (10) 
adg

>  <m_score__min__energy>  (10) 
-12.74

>  <m_primary>  (10) 
energy

$$$$
10:0
     RDKit          3D

 70 74  0  0  1  0  0  0  0  0999 V2000
   54.3510   24.6770   45.6310 C   0  0  0  0  0  0  0  0  0  0  0  0
   55.6590   25.2630   45.8430 N   0  0  0  0  0  0  0  0  0  0  0  0
   56.5040   24.8530   44.7160 C   0  0  0  0  0  0  0  0  0  0  0  0
   57.6880   25.7950   44.7000 C   0  0  0  0  0  0  0  0  0  0  0  0
   58.1380   25.9560   46.0870 N   0  0  0  0  0  0  0  0  0  0  0  0
   58.8720   27.1100   46.4460 C   0  0  0  0  0  0  0  0  0  0  0  0
   59.5530   27.9150   45.5650 C   0  0  0  0  0  0  0  0  0  0  0  0
   60.2550   29.0490   45.9610 C   0  0  0  0  0  0  0  0  0  0  0  0
   60.2980   29.4160   47.2810 C   0  0  0  0  0  0  0  0  0  0  0  0
   60.9880   30.5250   47.8080 N   0  0  0  0  0  0  0  0  0  0  0  0
   60.4820   31.7930   48.0910 C   0  0  0  0  0  0  0  0  0  0  0  0
   59.9100   32.5480   47.0550 C   0  0  0  0  0  0  0  0  0  0  0  0
   59.3710   33.7990   47.2710 C   0  0  0  0  0  0  0  0  0  0  0  0
   58.8650   34.4590   46.3650 N   0  0  0  0  0  0  0  0  0  0  0  0
   58.2360   34.1960   45.1900 C   0  0  0  0  0  0  0  0  0  0  0  0
   57.8870   32.9290   44.5970 C   0  0  0  0  0  0  0  0  0  0  0  0
   57.4100   31.8260   45.3250 C   0  0  0  0  0  0  0  0  0  0  0  0
   57.0650   30.6420   44.7120 C   0  0  0  0  0  0  0  0  0  0  0  0
   57.1710   30.4800   43.3480 C   0  0  0  0  0  0  0  0  0  0  0  0
   57.6400   31.5620   42.6160 C   0  0  0  0  0  0  0  0  0  0  0  0
   57.9860   32.7460   43.2280 C   0  0  0  0  0  0  0  0  0  0  0  0
   59.4130   34.2740   48.5180 N   0  0  0  0  0  0  0  0  0  0  0  0
   59.9420   33.6010   49.5310 C   0  0  0  0  0  0  0  0  0  0  0  0
   59.9300   34.1370   50.6940 N   0  0  0  0  0  0  0  0  0  0  0  0
   58.9080   33.9630   51.6720 C   0  0  0  0  0  0  0  0  0  0  0  0
   58.5900   32.5130   51.9680 C   0  0  1  0  0  0  0  0  0  0  0  0
   57.6130   31.8590   51.0880 C   0  0  0  0  0  0  0  0  0  0  0  0
   58.1950   30.5110   50.8020 C   0  0  0  0  0  0  0  0  0  0  0  0
   59.4500   30.4840   51.6280 C   0  0  0  0  0  0  0  0  0  0  0  0
   59.7780   31.7970   51.9210 O   0  0  0  0  0  0  0  0  0  0  0  0
   60.4620   32.3810   49.2990 N   0  0  0  0  0  0  0  0  0  0  0  0
   59.6100   28.6040   48.1870 C   0  0  0  0  0  0  0  0  0  0  0  0
   58.9180   27.4840   47.7850 C   0  0  0  0  0  0  0  0  0  0  0  0
   57.7900   24.8840   46.9910 C   0  0  0  0  0  0  0  0  0  0  0  0
   56.2870   24.6650   47.0200 C   0  0  0  0  0  0  0  0  0  0  0  0
   53.8815   24.4667   46.6033 H   0  0  0  0  0  0  0  0  0  0  0  0
   53.7220   25.3794   45.0644 H   0  0  0  0  0  0  0  0  0  0  0  0
   54.4564   23.7401   45.0644 H   0  0  0  0  0  0  0  0  0  0  0  0
   56.8452   23.8165   44.8546 H   0  0  0  0  0  0  0  0  0  0  0  0
   55.9491   24.8962   43.7672 H   0  0  0  0  0  0  0  0  0  0  0  0
   58.4980   25.3707   44.0886 H   0  0  0  0  0  0  0  0  0  0  0  0
   57.4063   26.7663   44.2674 H   0  0  0  0  0  0  0  0  0  0  0  0
   59.5427   27.6506   44.4973 H   0  0  0  0  0  0  0  0  0  0  0  0
   60.7798   29.6561   45.2087 H   0  0  0  0  0  0  0  0  0  0  0  0
   62.0220   30.3590   48.0120 H   0  0  0  0  0  0  0  0  0  0  0  0
   59.8911   32.1284   46.0383 H   0  0  0  0  0  0  0  0  0  0  0  0
   57.2775   34.7295   45.2713 H   0  0  0  0  0  0  0  0  0  0  0  0
   59.0669   34.4518   44.5161 H   0  0  0  0  0  0  0  0  0  0  0  0
   57.3091   31.9107   46.4171 H   0  0  0  0  0  0  0  0  0  0  0  0
   56.6964   29.8066   45.3254 H   0  0  0  0  0  0  0  0  0  0  0  0
   56.8957   29.5335   42.8598 H   0  0  0  0  0  0  0  0  0  0  0  0
   57.7373   31.4718   41.5240 H   0  0  0  0  0  0  0  0  0  0  0  0
   58.3542   33.5761   42.6072 H   0  0  0  0  0  0  0  0  0  0  0  0
   59.0240   35.1970   48.6870 H   0  0  0  0  0  0  0  0  0  0  0  0
   59.2349   34.4444   52.6055 H   0  0  0  0  0  0  0  0  0  0  0  0
   57.9924   34.4163   51.2645 H   0  0  0  0  0  0  0  0  0  0  0  0
   58.1111   32.5169   52.9582 H   0  0  0  0  0  0  0  0  0  0  0  0
   56.6410   31.7616   51.5936 H   0  0  0  0  0  0  0  0  0  0  0  0
   57.4322   32.4356   50.1689 H   0  0  0  0  0  0  0  0  0  0  0  0
   57.5048   29.7120   51.1105 H   0  0  0  0  0  0  0  0  0  0  0  0
   58.3852   30.3466   49.7311 H   0  0  0  0  0  0  0  0  0  0  0  0
   59.2766   29.9227   52.5580 H   0  0  0  0  0  0  0  0  0  0  0  0
   60.2667   29.9914   51.0799 H   0  0  0  0  0  0  0  0  0  0  0  0
   60.8540   31.8850   50.1240 H   0  0  0  0  0  0  0  0  0  0  0  0
   59.6219   28.8682   49.2547 H   0  0  0  0  0  0  0  0  0  0  0  0
   58.3927   26.8746   48.5351 H   0  0  0  0  0  0  0  0  0  0  0  0
   58.2824   23.9583   46.6583 H   0  0  0  0  0  0  0  0  0  0  0  0
   58.1250   25.1553   48.0030 H   0  0  0  0  0  0  0  0  0  0  0  0
   56.0788   23.5849   47.0318 H   0  0  0  0  0  0  0  0  0  0  0  0
   55.8758   25.1407   47.9226 H   0  0  0  0  0  0  0  0  0  0  0  0
  1  2  1  0
  2  3  1  0
  3  4  1  0
  4  5  1  0
  5  6  1  0
  6  7  2  0
  7  8  1  0
  8  9  2  0
  9 10  1  0
 10 11  1  0
 11 12  2  0
 12 13  1  0
 13 14  2  0
 14 15  1  0
 15 16  1  0
 16 17  2  0
 17 18  1  0
 18 19  2  0
 19 20  1  0
 20 21  2  0
 13 22  1  0
 22 23  1  0
 23 24  2  0
 24 25  1  0
 25 26  1  0
 26 27  1  0
 27 28  1  0
 28 29  1  0
 29 30  1  0
 23 31  1  0
  9 32  1  0
 32 33  2  0
  5 34  1  0
 34 35  1  0
 35  2  1  0
 33  6  1  0
 31 11  1  0
 21 16  1  0
 30 26  1  0
  1 36  1  0
  1 37  1  0
  1 38  1  0
  3 39  1  0
  3 40  1  0
  4 41  1  0
  4 42  1  0
  7 43  1  0
  8 44  1  0
 10 45  1  0
 12 46  1  0
 15 47  1  0
 15 48  1  0
 17 49  1  0
 18 50  1  0
 19 51  1  0
 20 52  1  0
 21 53  1  0
 22 54  1  0
 25 55  1  0
 25 56  1  0
 26 57  1  1
 27 58  1  0
 27 59  1  0
 28 60  1  0
 28 61  1  0
 29 62  1  0
 29 63  1  0
 31 64  1  0
 32 65  1  0
 33 66  1  0
 34 67  1  0
 34 68  1  0
 35 69  1  0
 35 70  1  0
M  END
>  <smiles>  (11) 
CN1CCN(c2ccc(Nc3cc(=NCc4ccccc4)[nH]c(=NCC4CCCO4)[nH]3)cc2)CC1

>  <score_type>  (11) 
oracle

>  <origin>  (11) 
adg

>  <m_score__min__energy>  (11) 
-9.9700000000000006

>  <m_primary>  (11) 
energy

$$$$
11:0
     RDKit          3D

 63 66  0  0  1  0  0  0  0  0999 V2000
   63.3970   32.0110   47.5750 C   0  0  0  0  0  0  0  0  0  0  0  0
   63.7370   33.3370   48.2280 C   0  0  0  0  0  0  0  0  0  0  0  0
   63.6320   33.2780   49.6800 N   0  0  0  0  0  0  0  0  0  0  0  0
   63.1420   34.4400   50.4020 C   0  0  0  0  0  0  0  0  0  0  0  0
   63.9110   34.5060   51.7200 C   0  0  0  0  0  0  0  0  0  0  0  0
   64.0170   32.0690   50.3350 C   0  0  0  0  0  0  0  0  0  0  0  0
   65.2980   31.6920   50.4860 N   0  0  0  0  0  0  0  0  0  0  0  0
   65.5980   30.5400   51.1170 C   0  0  0  0  0  0  0  0  0  0  0  0
   66.9130   30.1960   51.2390 C   0  0  0  0  0  0  0  0  0  0  0  0
   67.1870   29.0050   51.8830 C   0  0  0  0  0  0  0  0  0  0  0  0
   66.2500   28.1620   52.3940 C   0  0  0  0  0  0  0  0  0  0  0  0
   66.5550   26.9810   53.0290 O   0  0  0  0  0  0  0  0  0  0  0  0
   65.7070   26.0610   53.6120 C   0  0  0  0  0  0  0  0  0  0  0  0
   64.8850   28.5230   52.2650 C   0  0  0  0  0  0  0  0  0  0  0  0
   64.6430   29.7040   51.6310 C   0  0  0  0  0  0  0  0  0  0  0  0
   63.3370   30.0980   51.4760 C   0  0  0  0  0  0  0  0  0  0  0  0
   62.4180   29.4770   51.9930 N   0  0  0  0  0  0  0  0  0  0  0  0
   61.1170   29.1850   51.6590 C   0  0  0  0  0  0  0  0  0  0  0  0
   60.6710   29.5280   50.2840 C   0  0  0  0  0  0  0  0  0  0  0  0
   60.7920   28.6560   49.2130 C   0  0  0  0  0  0  0  0  0  0  0  0
   60.3930   28.9590   47.9310 C   0  0  0  0  0  0  0  0  0  0  0  0
   59.8360   30.1630   47.6140 C   0  0  0  0  0  0  0  0  0  0  0  0
   59.3970   30.5620   46.3460 N   0  0  0  0  0  0  0  0  0  0  0  0
   58.2180   30.1870   45.6910 C   0  0  0  0  0  0  0  0  0  0  0  0
   57.4010   29.3990   46.2340 O   0  0  0  0  0  0  0  0  0  0  0  0
   57.8350   30.6610   44.3500 C   0  0  0  0  0  0  0  0  0  0  0  0
   58.3510   31.8690   43.9050 C   0  0  0  0  0  0  0  0  0  0  0  0
   58.0240   32.3680   42.6450 C   0  0  0  0  0  0  0  0  0  0  0  0
   57.1850   31.6340   41.8660 C   0  0  0  0  0  0  0  0  0  0  0  0
   56.8710   32.1240   40.6380 F   0  0  0  0  0  0  0  0  0  0  0  0
   56.6460   30.4290   42.2600 C   0  0  0  0  0  0  0  0  0  0  0  0
   56.9900   29.9550   43.5250 C   0  0  0  0  0  0  0  0  0  0  0  0
   59.7000   31.0660   48.6730 C   0  0  0  0  0  0  0  0  0  0  0  0
   60.0990   30.7650   49.9560 C   0  0  0  0  0  0  0  0  0  0  0  0
   63.0680   31.2600   50.8350 N   0  0  0  0  0  0  0  0  0  0  0  0
   63.2039   31.2579   48.3532 H   0  0  0  0  0  0  0  0  0  0  0  0
   62.5003   32.1298   46.9491 H   0  0  0  0  0  0  0  0  0  0  0  0
   64.2403   31.6836   46.9491 H   0  0  0  0  0  0  0  0  0  0  0  0
   64.7676   33.6109   47.9581 H   0  0  0  0  0  0  0  0  0  0  0  0
   63.0164   34.0858   47.8673 H   0  0  0  0  0  0  0  0  0  0  0  0
   63.3210   35.3526   49.8145 H   0  0  0  0  0  0  0  0  0  0  0  0
   62.0599   34.3611   50.5832 H   0  0  0  0  0  0  0  0  0  0  0  0
   63.2040   34.4453   52.5605 H   0  0  0  0  0  0  0  0  0  0  0  0
   64.6182   33.6653   51.7744 H   0  0  0  0  0  0  0  0  0  0  0  0
   64.4646   35.4550   51.7744 H   0  0  0  0  0  0  0  0  0  0  0  0
   67.7157   30.8359   50.8438 H   0  0  0  0  0  0  0  0  0  0  0  0
   68.2430   28.7166   51.9907 H   0  0  0  0  0  0  0  0  0  0  0  0
   65.7786   26.1387   54.7069 H   0  0  0  0  0  0  0  0  0  0  0  0
   64.6729   26.2643   53.2968 H   0  0  0  0  0  0  0  0  0  0  0  0
   65.9937   25.0469   53.2968 H   0  0  0  0  0  0  0  0  0  0  0  0
   64.0732   27.8897   52.6522 H   0  0  0  0  0  0  0  0  0  0  0  0
   60.9777   28.1018   51.7906 H   0  0  0  0  0  0  0  0  0  0  0  0
   60.5077   29.8198   52.3191 H   0  0  0  0  0  0  0  0  0  0  0  0
   61.2321   27.6651   49.3984 H   0  0  0  0  0  0  0  0  0  0  0  0
   60.5273   28.2079   47.1387 H   0  0  0  0  0  0  0  0  0  0  0  0
   60.0290   31.2300   45.8020 H   0  0  0  0  0  0  0  0  0  0  0  0
   59.0282   32.4417   44.5557 H   0  0  0  0  0  0  0  0  0  0  0  0
   58.4322   33.3264   42.2916 H   0  0  0  0  0  0  0  0  0  0  0  0
   55.9704   29.8628   41.6020 H   0  0  0  0  0  0  0  0  0  0  0  0
   56.5770   28.9960   43.8711 H   0  0  0  0  0  0  0  0  0  0  0  0
   59.2579   32.0533   48.4737 H   0  0  0  0  0  0  0  0  0  0  0  0
   59.9649   31.5175   50.7470 H   0  0  0  0  0  0  0  0  0  0  0  0
   62.0800   31.5790   50.7010 H   0  0  0  0  0  0  0  0  0  0  0  0
  1  2  1  0
  2  3  1  0
  3  4  1  0
  4  5  1  0
  3  6  1  0
  6  7  2  0
  7  8  1  0
  8  9  2  0
  9 10  1  0
 10 11  2  0
 11 12  1  0
 12 13  1  0
 11 14  1  0
 14 15  2  0
 15 16  1  0
 16 17  2  0
 17 18  1  0
 18 19  1  0
 19 20  2  0
 20 21  1  0
 21 22  2  0
 22 23  1  0
 23 24  1  0
 24 25  2  0
 24 26  1  0
 26 27  2  0
 27 28  1  0
 28 29  2  0
 29 30  1  0
 29 31  1  0
 31 32  2  0
 22 33  1  0
 33 34  2  0
 16 35  1  0
 35  6  1  0
 15  8  1  0
 34 19  1  0
 32 26  1  0
  1 36  1  0
  1 37  1  0
  1 38  1  0
  2 39  1  0
  2 40  1  0
  4 41  1  0
  4 42  1  0
  5 43  1  0
  5 44  1  0
  5 45  1  0
  9 46  1  0
 10 47  1  0
 13 48  1  0
 13 49  1  0
 13 50  1  0
 14 51  1  0
 18 52  1  0
 18 53  1  0
 20 54  1  0
 21 55  1  0
 23 56  1  0
 27 57  1  0
 28 58  1  0
 31 59  1  0
 32 60  1  0
 33 61  1  0
 34 62  1  0
 35 63  1  0
M  END
>  <smiles>  (12) 
CCN(CC)c1nc2ccc(OC)cc2c(=NCc2ccc(NC(=O)c3ccc(F)cc3)cc2)[nH]1

>  <score_type>  (12) 
oracle

>  <origin>  (12) 
adg

>  <m_score__min__energy>  (12) 
-8.6300000000000008

>  <m_primary>  (12) 
energy

$$$$
12:0
     RDKit          3D

 41 43  0  0  0  0  0  0  0  0999 V2000
   58.5500   21.6920   44.9770 H   0  0  0  0  0  0  0  0  0  0  0  0
   58.6220   22.4590   45.6350 O   0  0  0  0  0  0  0  0  0  0  0  0
   57.6360   23.4390   45.7200 C   0  0  0  0  0  0  0  0  0  0  0  0
   56.2980   23.0890   45.5240 C   0  0  0  0  0  0  0  0  0  0  0  0
   56.0314   22.0466   45.2951 H   0  0  0  0  0  0  0  0  0  0  0  0
   55.2970   24.0600   45.6180 C   0  0  0  0  0  0  0  0  0  0  0  0
   54.2443   23.7775   45.4695 H   0  0  0  0  0  0  0  0  0  0  0  0
   55.6280   25.3890   45.9000 C   0  0  0  0  0  0  0  0  0  0  0  0
   54.6170   26.3400   45.9780 O   0  0  0  0  0  0  0  0  0  0  0  0
   56.9740   25.7550   46.0990 C   0  0  0  0  0  0  0  0  0  0  0  0
   57.3490   27.1890   46.3840 C   0  0  0  0  0  0  0  0  0  0  0  0
   58.4433   27.2912   46.3389 H   0  0  0  0  0  0  0  0  0  0  0  0
   56.9798   27.4573   47.3849 H   0  0  0  0  0  0  0  0  0  0  0  0
   56.7420   28.0910   45.4030 N   0  0  0  0  0  0  0  0  0  0  0  0
   55.8990   27.7420   44.8930 H   0  0  0  0  0  0  0  0  0  0  0  0
   57.2100   29.4240   45.1180 C   0  0  0  0  0  0  0  0  0  0  0  0
   58.0040   30.1450   46.0280 C   0  0  0  0  0  0  0  0  0  0  0  0
   58.2906   29.6858   46.9856 H   0  0  0  0  0  0  0  0  0  0  0  0
   58.4310   31.4390   45.7250 C   0  0  0  0  0  0  0  0  0  0  0  0
   59.0575   31.9897   46.4421 H   0  0  0  0  0  0  0  0  0  0  0  0
   58.0660   32.0420   44.5110 C   0  0  0  0  0  0  0  0  0  0  0  0
   58.5220   33.4070   44.1720 C   0  0  0  0  0  0  0  0  0  0  0  0
   58.9062   33.5804   43.1560 H   0  0  0  0  0  0  0  0  0  0  0  0
   58.5000   34.4490   45.0170 C   0  0  0  0  0  0  0  0  0  0  0  0
   57.9089   35.3303   44.7273 H   0  0  0  0  0  0  0  0  0  0  0  0
   59.2130   34.4950   46.3070 C   0  0  0  0  0  0  0  0  0  0  0  0
   58.5550   34.3530   47.3710 O   0  0  0  0  0  0  0  0  0  0  0  0
   60.6480   34.5920   46.3330 N   0  0  0  0  0  0  0  0  0  0  0  0
   61.4910   33.6910   46.7390 C   0  0  0  0  0  0  0  0  0  0  0  0
   61.0840   32.4880   47.1950 N   0  0  0  0  0  0  0  0  0  0  0  0
   62.1340   31.7010   47.5510 C   0  0  0  0  0  0  0  0  0  0  0  0
   62.0001   30.6869   47.9556 H   0  0  0  0  0  0  0  0  0  0  0  0
   63.3890   32.2700   47.3670 C   0  0  0  0  0  0  0  0  0  0  0  0
   64.3541   31.7916   47.5898 H   0  0  0  0  0  0  0  0  0  0  0  0
   63.1740   33.8180   46.7440 S   0  0  0  0  0  0  0  0  0  0  0  0
   57.3130   31.3120   43.5830 C   0  0  0  0  0  0  0  0  0  0  0  0
   57.0617   31.7585   42.6096 H   0  0  0  0  0  0  0  0  0  0  0  0
   56.8790   30.0180   43.8880 C   0  0  0  0  0  0  0  0  0  0  0  0
   56.2732   29.4602   43.1587 H   0  0  0  0  0  0  0  0  0  0  0  0
   57.9750   24.7710   45.9980 C   0  0  0  0  0  0  0  0  0  0  0  0
   59.0302   25.0485   46.1380 H   0  0  0  0  0  0  0  0  0  0  0  0
  1  2  1  0
  2  3  1  0
  3  4  2  0
  4  5  1  0
  4  6  1  0
  6  7  1  0
  6  8  2  0
  8  9  1  0
  8 10  1  0
 10 11  1  0
 11 12  1  0
 11 13  1  0
 11 14  1  0
 14 15  1  0
 14 16  1  0
 16 17  2  0
 17 18  1  0
 17 19  1  0
 19 20  1  0
 19 21  2  0
 21 22  1  0
 22 23  1  0
 22 24  2  3
 24 25  1  0
 24 26  1  0
 26 27  2  0
 26 28  1  0
 28 29  2  0
 29 30  1  0
 30 31  1  0
 31 32  1  0
 31 33  2  0
 33 34  1  0
 33 35  1  0
 21 36  1  0
 36 37  1  0
 36 38  2  0
 38 39  1  0
 10 40  2  0
 40 41  1  0
 40  3  1  0
 38 16  1  0
 35 29  1  0
M  CHG  2   9  -1  30  -1
M  END
>  <UniqueID>  (13) 
11

>  <SMILES>  (13) 
O=C(C=Cc1ccc(NCc2cc(O)ccc2[O-])cc1)/N=c1/[n-]ccs1

>  <Energy>  (13) 
81.0020738219355

>  <Genealogy>  (13) 
O=C(C=Cc1ccc(NCc2cc(O)ccc2[O-])cc1)N=c1[n-]ccs1 (protonated)
O=C(C=Cc1ccc(NCc2cc(O)ccc2[O-])cc1)/N=c1/[n-]ccs1 (cis-trans isomerization)
O=C(C=Cc1ccc(NCc2cc(O)ccc2[O-])cc1)/N=c1/[n-]ccs1 (3D coordinates assigned)
O=C(C=Cc1ccc(NCc2cc(O)ccc2[O-])cc1)/N=c1/[n-]ccs1 (optimized conformer: 81.0020738219355 kcal/mol)

>  <smiles>  (13) 
O=C(C=Cc1ccc(NCc2cc(O)ccc2O)cc1)N=c1[nH]ccs1

>  <score_type>  (13) 
oracle

>  <origin>  (13) 
adg

>  <m_score__min__energy>  (13) 
-12.890000000000001

>  <m_primary>  (13) 
energy

$$$$
13:0
     RDKit          3D

 39 40  0  0  0  0  0  0  0  0999 V2000
   58.3755   33.4368   42.7068 H   0  0  0  0  0  0  0  0  0  0  0  0
   58.3150   33.0300   43.7270 C   0  0  0  0  0  0  0  0  0  0  0  0
   58.4050   31.7490   43.9190 N   0  0  0  0  0  0  0  0  0  0  0  0
   57.3830   30.9380   44.5180 C   0  0  0  0  0  0  0  0  0  0  0  0
   56.2990   31.4860   44.8480 O   0  0  0  0  0  0  0  0  0  0  0  0
   57.5650   29.4910   44.7830 C   0  0  0  0  0  0  0  0  0  0  0  0
   58.8190   28.8770   44.6080 C   0  0  0  0  0  0  0  0  0  0  0  0
   59.6783   29.4737   44.2680 H   0  0  0  0  0  0  0  0  0  0  0  0
   58.9770   27.5140   44.8640 C   0  0  0  0  0  0  0  0  0  0  0  0
   59.9558   27.0368   44.7085 H   0  0  0  0  0  0  0  0  0  0  0  0
   57.8960   26.7540   45.3170 C   0  0  0  0  0  0  0  0  0  0  0  0
   58.0215   25.6758   45.4953 H   0  0  0  0  0  0  0  0  0  0  0  0
   56.6550   27.3570   45.5450 C   0  0  0  0  0  0  0  0  0  0  0  0
   55.5630   26.5440   45.9960 N   0  0  0  0  0  0  0  0  0  0  0  0
   55.5250   25.1110   46.0430 C   0  0  0  0  0  0  0  0  0  0  0  0
   55.8360   24.5300   47.1160 O   0  0  0  0  0  0  0  0  0  0  0  0
   55.0890   24.2860   44.8710 C   0  0  0  0  0  0  0  0  0  0  0  0
   54.6032   23.3668   45.2301 H   0  0  0  0  0  0  0  0  0  0  0  0
   54.3778   24.8624   44.2612 H   0  0  0  0  0  0  0  0  0  0  0  0
   55.9659   24.0231   44.2612 H   0  0  0  0  0  0  0  0  0  0  0  0
   56.4880   28.7230   45.2590 C   0  0  0  0  0  0  0  0  0  0  0  0
   55.5059   29.1953   45.4090 H   0  0  0  0  0  0  0  0  0  0  0  0
   58.1330   33.9360   44.8650 C   0  0  0  0  0  0  0  0  0  0  0  0
   57.2370   34.8180   44.8060 O   0  0  0  0  0  0  0  0  0  0  0  0
   59.0400   33.8700   45.9780 N   0  0  0  0  0  0  0  0  0  0  0  0
   59.4180   32.8270   46.6690 C   0  0  0  0  0  0  0  0  0  0  0  0
   60.7670   32.7370   47.0790 C   0  0  0  0  0  0  0  0  0  0  0  0
   61.7550   33.8250   46.7510 C   0  0  0  0  0  0  0  0  0  0  0  0
   62.1474   34.2572   47.6833 H   0  0  0  0  0  0  0  0  0  0  0  0
   62.5846   33.4025   46.1650 H   0  0  0  0  0  0  0  0  0  0  0  0
   61.2547   34.6101   46.1650 H   0  0  0  0  0  0  0  0  0  0  0  0
   61.1770   31.6270   47.8310 C   0  0  0  0  0  0  0  0  0  0  0  0
   62.2197   31.5509   48.1730 H   0  0  0  0  0  0  0  0  0  0  0  0
   60.2680   30.6210   48.1460 C   0  0  0  0  0  0  0  0  0  0  0  0
   60.5853   29.7523   48.7416 H   0  0  0  0  0  0  0  0  0  0  0  0
   58.9540   30.7250   47.7000 C   0  0  0  0  0  0  0  0  0  0  0  0
   58.2326   29.9288   47.9358 H   0  0  0  0  0  0  0  0  0  0  0  0
   58.5550   31.8050   46.9740 N   0  0  0  0  0  0  0  0  0  0  0  0
   57.5730   31.7950   46.6290 H   0  0  0  0  0  0  0  0  0  0  0  0
  1  2  1  0
  2  3  2  0
  3  4  1  0
  4  5  2  0
  4  6  1  0
  6  7  2  0
  7  8  1  0
  7  9  1  0
  9 10  1  0
  9 11  2  0
 11 12  1  0
 11 13  1  0
 13 14  1  0
 14 15  1  0
 15 16  2  0
 15 17  1  0
 17 18  1  0
 17 19  1  0
 17 20  1  0
 13 21  2  0
 21 22  1  0
  2 23  1  0
 23 24  2  0
 23 25  1  0
 25 26  2  3
 26 27  1  0
 27 28  1  0
 28 29  1  0
 28 30  1  0
 28 31  1  0
 27 32  2  0
 32 33  1  0
 32 34  1  0
 34 35  1  0
 34 36  2  0
 36 37  1  0
 36 38  1  0
 38 39  1  0
 21  6  1  0
 38 26  1  0
M  CHG  1  14  -1
M  END
>  <UniqueID>  (14) 
12

>  <SMILES>  (14) 
CC(=O)[N-]c1cccc(C(=O)/N=C/C(=O)N=c2[nH]cccc2C)c1

>  <Energy>  (14) 
54.07387007070083

>  <Genealogy>  (14) 
CC(=O)[N-]c1cccc(C(=O)N=CC(=O)N=c2[nH]cccc2C)c1 (protonated)
CC(=O)[N-]c1cccc(C(=O)/N=C/C(=O)N=c2[nH]cccc2C)c1 (cis-trans isomerization)
CC(=O)[N-]c1cccc(C(=O)/N=C/C(=O)N=c2[nH]cccc2C)c1 (3D coordinates assigned)
CC(=O)[N-]c1cccc(C(=O)/N=C/C(=O)N=c2[nH]cccc2C)c1 (optimized conformer: 54.07387007070083 kcal/mol)

>  <smiles>  (14) 
CC(=O)Nc1cccc(C(=O)N=CC(=O)N=c2[nH]cccc2C)c1

>  <score_type>  (14) 
oracle

>  <origin>  (14) 
adg

>  <m_score__min__energy>  (14) 
-9.6899999999999995

>  <m_primary>  (14) 
energy

$$$$
14:0
     RDKit          3D

 44 46  0  0  0  0  0  0  0  0999 V2000
   57.0004   31.6323   51.4878 H   0  0  0  0  0  0  0  0  0  0  0  0
   55.9220   31.5830   51.6990 C   0  0  0  0  0  0  0  0  0  0  0  0
   55.2623   32.4063   51.3876 H   0  0  0  0  0  0  0  0  0  0  0  0
   55.4100   30.5160   52.3380 C   0  0  0  0  0  0  0  0  0  0  0  0
   54.0630   30.3300   52.6660 C   0  0  0  0  0  0  0  0  0  0  0  0
   53.0490   31.1980   52.4770 C   0  0  0  0  0  0  0  0  0  0  0  0
   52.7831   31.8702   53.3061 H   0  0  0  0  0  0  0  0  0  0  0  0
   52.2750   31.3010   51.2270 C   0  0  0  0  0  0  0  0  0  0  0  0
   52.2730   30.3470   50.2810 N   0  0  0  0  0  0  0  0  0  0  0  0
   51.3950   30.8120   49.3670 C   0  0  0  0  0  0  0  0  0  0  0  0
   51.1270   30.1890   48.3070 O   0  0  0  0  0  0  0  0  0  0  0  0
   50.8180   31.9910   49.6840 N   0  0  0  0  0  0  0  0  0  0  0  0
   51.3770   32.2830   50.8690 C   0  0  0  0  0  0  0  0  0  0  0  0
   51.0380   33.3990   51.6250 O   0  0  0  0  0  0  0  0  0  0  0  0
   53.9890   29.1170   53.3320 C   0  0  0  0  0  0  0  0  0  0  0  0
   53.0826   28.6480   53.7424 H   0  0  0  0  0  0  0  0  0  0  0  0
   55.2720   28.6110   53.3810 C   0  0  0  0  0  0  0  0  0  0  0  0
   55.6480   27.3450   54.0930 C   0  0  0  0  0  0  0  0  0  0  0  0
   55.5998   27.5074   55.1799 H   0  0  0  0  0  0  0  0  0  0  0  0
   54.9490   26.5440   53.8106 H   0  0  0  0  0  0  0  0  0  0  0  0
   56.6709   27.0554   53.8106 H   0  0  0  0  0  0  0  0  0  0  0  0
   56.1450   29.4640   52.7910 N   0  0  0  0  0  0  0  0  0  0  0  0
   57.6140   29.3320   52.8110 C   0  0  0  0  0  0  0  0  0  0  0  0
   57.8810   28.3900   53.3123 H   0  0  0  0  0  0  0  0  0  0  0  0
   57.9745   29.3396   51.7718 H   0  0  0  0  0  0  0  0  0  0  0  0
   58.2770   30.5010   53.5590 C   0  0  0  0  0  0  0  0  0  0  0  0
   57.4934   31.1410   53.9908 H   0  0  0  0  0  0  0  0  0  0  0  0
   58.9204   30.0879   54.3498 H   0  0  0  0  0  0  0  0  0  0  0  0
   59.1060   31.3030   52.6600 N   0  0  0  0  0  0  0  0  0  0  0  0
   59.7420   30.8010   52.0010 H   0  0  0  0  0  0  0  0  0  0  0  0
   58.8430   32.6920   52.4220 C   0  0  0  0  0  0  0  0  0  0  0  0
   58.1580   33.3550   53.2460 O   0  0  0  0  0  0  0  0  0  0  0  0
   59.2750   33.2790   51.1870 N   0  0  0  0  0  0  0  0  0  0  0  0
   59.2070   32.6900   49.8800 C   0  0  0  0  0  0  0  0  0  0  0  0
   58.9400   31.3200   49.6860 C   0  0  0  0  0  0  0  0  0  0  0  0
   58.7563   30.6687   50.5532 H   0  0  0  0  0  0  0  0  0  0  0  0
   58.9080   30.7870   48.3950 C   0  0  0  0  0  0  0  0  0  0  0  0
   58.7085   29.7152   48.2485 H   0  0  0  0  0  0  0  0  0  0  0  0
   59.1290   31.6130   47.2890 C   0  0  0  0  0  0  0  0  0  0  0  0
   59.1153   31.1886   46.2743 H   0  0  0  0  0  0  0  0  0  0  0  0
   59.3670   32.9760   47.4720 C   0  0  0  0  0  0  0  0  0  0  0  0
   59.5304   33.6270   46.6005 H   0  0  0  0  0  0  0  0  0  0  0  0
   59.3980   33.5150   48.7620 C   0  0  0  0  0  0  0  0  0  0  0  0
   59.6390   34.8400   48.9260 F   0  0  0  0  0  0  0  0  0  0  0  0
  1  2  1  0
  2  3  1  0
  2  4  2  0
  4  5  1  0
  5  6  2  0
  6  7  1  0
  6  8  1  0
  8  9  1  0
  9 10  1  0
 10 11  2  0
 10 12  1  0
 12 13  1  0
 13 14  1  0
  5 15  1  0
 15 16  1  0
 15 17  2  0
 17 18  1  0
 18 19  1  0
 18 20  1  0
 18 21  1  0
 17 22  1  0
 22 23  1  0
 23 24  1  0
 23 25  1  0
 23 26  1  0
 26 27  1  0
 26 28  1  0
 26 29  1  0
 29 30  1  0
 29 31  1  0
 31 32  2  0
 31 33  1  0
 33 34  1  0
 34 35  2  0
 35 36  1  0
 35 37  1  0
 37 38  1  0
 37 39  2  0
 39 40  1  0
 39 41  1  0
 41 42  1  0
 41 43  2  0
 43 44  1  0
 22  4  1  0
 43 34  1  0
 13  8  2  0
M  CHG  4   9  -1  12  -1  14  -1  33  -1
M  END
>  <UniqueID>  (15) 
13

>  <SMILES>  (15) 
C=c1/c(=C/c2[n-]c(=O)[n-]c2[O-])cc(C)n1CCNC(=O)[N-]c1ccccc1F

>  <Energy>  (15) 
108.31184428198188

>  <Genealogy>  (15) 
C=c1c(=Cc2[n-]c(=O)[n-]c2[O-])cc(C)n1CCNC(=O)[N-]c1ccccc1F (protonated)
C=c1/c(=C/c2[n-]c(=O)[n-]c2[O-])cc(C)n1CCNC(=O)[N-]c1ccccc1F (cis-trans isomerization)
C=c1/c(=C/c2[n-]c(=O)[n-]c2[O-])cc(C)n1CCNC(=O)[N-]c1ccccc1F (3D coordinates assigned)
C=c1/c(=C/c2[n-]c(=O)[n-]c2[O-])cc(C)n1CCNC(=O)[N-]c1ccccc1F (optimized conformer: 108.31184428198188 kcal/mol)

>  <smiles>  (15) 
C=c1c(=Cc2[nH]c(=O)[nH]c2O)cc(C)n1CCNC(=O)Nc1ccccc1F

>  <score_type>  (15) 
oracle

>  <origin>  (15) 
adg

>  <m_score__min__energy>  (15) 
-17.93

>  <m_primary>  (15) 
energy

$$$$
15:0
     RDKit          3D

 42 44  0  0  0  0  0  0  0  0999 V2000
   58.5730   30.4310   47.4550 C   0  0  0  0  0  0  0  0  0  0  0  0
   58.3120   31.2240   46.4030 C   0  0  0  0  0  0  0  0  0  0  0  0
   57.9780   30.8090   45.1010 C   0  0  0  0  0  0  0  0  0  0  0  0
   57.9840   29.5890   44.5280 C   0  0  0  0  0  0  0  0  0  0  0  0
   57.4270   28.3560   45.1180 C   0  0  0  0  0  0  0  0  0  0  0  0
   56.0400   28.1750   45.2560 C   0  0  0  0  0  0  0  0  0  0  0  0
   55.1490   29.1410   44.8020 O   0  0  0  0  0  0  0  0  0  0  0  0
   55.5600   27.0480   45.8420 N   0  0  0  0  0  0  0  0  0  0  0  0
   56.3990   26.0930   46.3190 C   0  0  0  0  0  0  0  0  0  0  0  0
   55.9310   25.0550   46.8540 O   0  0  0  0  0  0  0  0  0  0  0  0
   57.7430   26.2600   46.2230 N   0  0  0  0  0  0  0  0  0  0  0  0
   58.2740   27.3680   45.6440 C   0  0  0  0  0  0  0  0  0  0  0  0
   59.5260   27.4930   45.5790 O   0  0  0  0  0  0  0  0  0  0  0  0
   57.6410   31.9540   44.4030 C   0  0  0  0  0  0  0  0  0  0  0  0
   57.8230   33.0170   45.2610 C   0  0  0  0  0  0  0  0  0  0  0  0
   57.6420   34.4530   44.8710 C   0  0  0  0  0  0  0  0  0  0  0  0
   58.2350   32.5830   46.4760 N   0  0  0  0  0  0  0  0  0  0  0  0
   58.5790   33.4570   47.6130 C   0  0  0  0  0  0  0  0  0  0  0  0
   60.0720   33.4990   47.8120 C   0  0  0  0  0  0  0  0  0  0  0  0
   60.9400   33.2080   46.7480 C   0  0  0  0  0  0  0  0  0  0  0  0
   62.3260   33.2330   46.9370 C   0  0  0  0  0  0  0  0  0  0  0  0
   62.8640   33.5520   48.1970 C   0  0  0  0  0  0  0  0  0  0  0  0
   64.2460   33.5880   48.4380 O   0  0  0  0  0  0  0  0  0  0  0  0
   64.9160   32.7760   49.3970 C   0  0  0  0  0  0  0  0  0  0  0  0
   61.9970   33.8450   49.2550 C   0  0  0  0  0  0  0  0  0  0  0  0
   60.6130   33.8200   49.0670 C   0  0  0  0  0  0  0  0  0  0  0  0
   58.8241   30.8750   48.4296 H   0  0  0  0  0  0  0  0  0  0  0  0
   58.5357   29.3374   47.3421 H   0  0  0  0  0  0  0  0  0  0  0  0
   58.4447   29.5048   43.5327 H   0  0  0  0  0  0  0  0  0  0  0  0
   57.2935   32.0065   43.3606 H   0  0  0  0  0  0  0  0  0  0  0  0
   57.5640   35.0720   45.7770 H   0  0  0  0  0  0  0  0  0  0  0  0
   58.5057   34.7827   44.2749 H   0  0  0  0  0  0  0  0  0  0  0  0
   56.7235   34.5581   44.2749 H   0  0  0  0  0  0  0  0  0  0  0  0
   58.2116   34.4742   47.4121 H   0  0  0  0  0  0  0  0  0  0  0  0
   58.1092   33.0578   48.5240 H   0  0  0  0  0  0  0  0  0  0  0  0
   60.5278   32.9587   45.7591 H   0  0  0  0  0  0  0  0  0  0  0  0
   62.9977   33.0023   46.0970 H   0  0  0  0  0  0  0  0  0  0  0  0
   64.6440   33.1056   50.4106 H   0  0  0  0  0  0  0  0  0  0  0  0
   64.6180   31.7260   49.2606 H   0  0  0  0  0  0  0  0  0  0  0  0
   66.0035   32.8692   49.2606 H   0  0  0  0  0  0  0  0  0  0  0  0
   62.4086   34.0972   50.2434 H   0  0  0  0  0  0  0  0  0  0  0  0
   59.9429   34.0533   49.9076 H   0  0  0  0  0  0  0  0  0  0  0  0
  1  2  2  0
  2  3  1  0
  3  4  2  3
  4  5  1  0
  5  6  2  0
  6  7  1  0
  6  8  1  0
  8  9  1  0
  9 10  2  0
  9 11  1  0
 11 12  1  0
 12 13  2  0
  3 14  1  0
 14 15  2  0
 15 16  1  0
 15 17  1  0
 17 18  1  0
 18 19  1  0
 19 20  2  0
 20 21  1  0
 21 22  2  0
 22 23  1  0
 23 24  1  0
 22 25  1  0
 25 26  2  0
 17  2  1  0
 26 19  1  0
 12  5  1  0
  1 27  1  0
  1 28  1  0
  4 29  1  0
 14 30  1  0
 16 31  1  0
 16 32  1  0
 16 33  1  0
 18 34  1  0
 18 35  1  0
 20 36  1  0
 21 37  1  0
 24 38  1  0
 24 39  1  0
 24 40  1  0
 25 41  1  0
 26 42  1  0
M  CHG  3   7  -1   8  -1  11  -1
M  END
>  <UniqueID>  (16) 
14

>  <SMILES>  (16) 
C=c1c(=Cc2c([O-])[n-]c(=O)[n-]c2=O)cc(C)n1Cc1ccc(OC)cc1

>  <Energy>  (16) 
86.51804068067611

>  <Genealogy>  (16) 
C=c1c(=Cc2c([O-])[n-]c(=O)[n-]c2=O)cc(C)n1Cc1ccc(OC)cc1 (protonated)
C=c1c(=Cc2c([O-])[n-]c(=O)[n-]c2=O)cc(C)n1Cc1ccc(OC)cc1 (3D coordinates assigned)
C=c1c(=Cc2c([O-])[n-]c(=O)[n-]c2=O)cc(C)n1Cc1ccc(OC)cc1 (optimized conformer: 86.51804068067611 kcal/mol)

>  <smiles>  (16) 
C=c1c(=Cc2c(O)[nH]c(=O)[nH]c2=O)cc(C)n1Cc1ccc(OC)cc1

>  <score_type>  (16) 
oracle

>  <origin>  (16) 
adg

>  <m_score__min__energy>  (16) 
-15.550000000000001

>  <m_primary>  (16) 
energy

$$$$
16:0
     RDKit          3D

 44 46  0  0  0  0  0  0  0  0999 V2000
   54.7800   26.3440   45.9940 N   0  0  0  0  0  0  0  0  0  0  0  0
   54.8690   24.9670   45.6370 C   0  0  0  0  0  0  0  0  0  0  0  0
   53.8190   24.2880   45.4860 O   0  0  0  0  0  0  0  0  0  0  0  0
   56.2080   24.3180   45.4900 C   0  0  0  0  0  0  0  0  0  0  0  0
   57.2900   25.2910   45.8420 C   0  0  0  0  0  0  0  0  0  0  0  0
   57.8340   25.3910   47.1210 C   0  0  0  0  0  0  0  0  0  0  0  0
   58.9740   26.6270   47.1020 S   0  0  0  0  0  0  0  0  0  0  0  0
   58.7060   26.9920   45.4760 C   0  0  0  0  0  0  0  0  0  0  0  0
   59.3310   27.8900   44.7720 N   0  0  0  0  0  0  0  0  0  0  0  0
   59.5040   29.2710   45.1150 C   0  0  0  0  0  0  0  0  0  0  0  0
   60.3770   29.5790   45.9710 O   0  0  0  0  0  0  0  0  0  0  0  0
   58.7840   30.3040   44.4230 N   0  0  0  0  0  0  0  0  0  0  0  0
   58.5810   31.6270   44.9500 C   0  0  0  0  0  0  0  0  0  0  0  0
   57.5890   32.4460   44.3950 C   0  0  0  0  0  0  0  0  0  0  0  0
   57.3620   33.7250   44.9060 C   0  0  0  0  0  0  0  0  0  0  0  0
   58.1150   34.1960   45.9830 C   0  0  0  0  0  0  0  0  0  0  0  0
   59.1090   33.3880   46.5620 C   0  0  0  0  0  0  0  0  0  0  0  0
   59.8940   33.8780   47.7190 C   0  0  0  0  0  0  0  0  0  0  0  0
   59.3330   34.5920   48.5940 O   0  0  0  0  0  0  0  0  0  0  0  0
   61.2820   33.5340   47.8720 N   0  0  0  0  0  0  0  0  0  0  0  0
   61.8190   33.2790   49.2090 C   0  0  0  0  0  0  0  0  0  0  0  0
   63.0410   32.3610   49.1020 C   0  0  0  0  0  0  0  0  0  0  0  0
   63.9840   32.8800   48.1800 O   0  0  0  0  0  0  0  0  0  0  0  0
   63.4250   32.8950   46.8800 C   0  0  0  0  0  0  0  0  0  0  0  0
   62.2380   33.8600   46.8100 C   0  0  0  0  0  0  0  0  0  0  0  0
   59.3210   32.0950   46.0510 C   0  0  0  0  0  0  0  0  0  0  0  0
   57.7730   26.1820   44.9330 N   0  0  0  0  0  0  0  0  0  0  0  0
   55.1470   27.0870   45.3580 H   0  0  0  0  0  0  0  0  0  0  0  0
   56.2672   23.4488   46.1615 H   0  0  0  0  0  0  0  0  0  0  0  0
   56.3394   23.9935   44.4472 H   0  0  0  0  0  0  0  0  0  0  0  0
   57.5653   24.7713   47.9892 H   0  0  0  0  0  0  0  0  0  0  0  0
   58.4850   30.1110   43.4400 H   0  0  0  0  0  0  0  0  0  0  0  0
   56.9855   32.0790   43.5517 H   0  0  0  0  0  0  0  0  0  0  0  0
   56.5868   34.3642   44.4583 H   0  0  0  0  0  0  0  0  0  0  0  0
   57.9296   35.2047   46.3807 H   0  0  0  0  0  0  0  0  0  0  0  0
   62.1153   34.2314   49.6729 H   0  0  0  0  0  0  0  0  0  0  0  0
   61.0490   32.7940   49.8270 H   0  0  0  0  0  0  0  0  0  0  0  0
   63.5143   32.2746   50.0912 H   0  0  0  0  0  0  0  0  0  0  0  0
   62.7092   31.3740   48.7475 H   0  0  0  0  0  0  0  0  0  0  0  0
   64.1932   33.2153   46.1607 H   0  0  0  0  0  0  0  0  0  0  0  0
   63.0712   31.8823   46.6365 H   0  0  0  0  0  0  0  0  0  0  0  0
   62.5956   34.8918   46.9422 H   0  0  0  0  0  0  0  0  0  0  0  0
   61.7455   33.7661   45.8309 H   0  0  0  0  0  0  0  0  0  0  0  0
   60.0738   31.4425   46.5174 H   0  0  0  0  0  0  0  0  0  0  0  0
  1  2  1  0
  2  3  2  0
  2  4  1  0
  4  5  1  0
  5  6  2  0
  6  7  1  0
  7  8  1  0
  8  9  2  3
  9 10  1  0
 10 11  2  0
 10 12  1  0
 12 13  1  0
 13 14  2  0
 14 15  1  0
 15 16  2  0
 16 17  1  0
 17 18  1  0
 18 19  2  0
 18 20  1  0
 20 21  1  0
 21 22  1  0
 22 23  1  0
 23 24  1  0
 24 25  1  0
 17 26  2  0
  8 27  1  0
 27  5  1  0
 26 13  1  0
 25 20  1  0
  1 28  1  0
  4 29  1  0
  4 30  1  0
  6 31  1  0
 12 32  1  0
 14 33  1  0
 15 34  1  0
 16 35  1  0
 21 36  1  0
 21 37  1  0
 22 38  1  0
 22 39  1  0
 24 40  1  0
 24 41  1  0
 25 42  1  0
 25 43  1  0
 26 44  1  0
M  CHG  2   1  -1  27  -1
M  END
>  <UniqueID>  (17) 
15

>  <SMILES>  (17) 
[NH-]C(=O)Cc1csc(=NC(=O)Nc2cccc(C(=O)N3CCOCC3)c2)[n-]1

>  <Energy>  (17) 
85.222252076532

>  <Genealogy>  (17) 
[NH-]C(=O)Cc1csc(=NC(=O)Nc2cccc(C(=O)N3CCOCC3)c2)[n-]1 (protonated)
[NH-]C(=O)Cc1csc(=NC(=O)Nc2cccc(C(=O)N3CCOCC3)c2)[n-]1 (3D coordinates assigned)
[NH-]C(=O)Cc1csc(=NC(=O)Nc2cccc(C(=O)N3CCOCC3)c2)[n-]1 (nonaromatic ring conformer: 85.222252076532 kcal/mol)

>  <smiles>  (17) 
NC(=O)Cc1csc(=NC(=O)Nc2cccc(C(=O)N3CCOCC3)c2)[nH]1

>  <score_type>  (17) 
oracle

>  <origin>  (17) 
adg

>  <m_score__min__energy>  (17) 
-13.24

>  <m_primary>  (17) 
energy

$$$$
17:0
     RDKit          3D

 40 42  0  0  0  0  0  0  0  0999 V2000
   58.5210   29.6030   48.4200 C   0  0  0  0  0  0  0  0  0  0  0  0
   59.4190   30.5930   48.2900 C   0  0  0  0  0  0  0  0  0  0  0  0
   59.4420   31.8070   48.9990 C   0  0  0  0  0  0  0  0  0  0  0  0
   58.5310   32.3780   49.8110 C   0  0  0  0  0  0  0  0  0  0  0  0
   57.8630   31.7250   50.9470 C   0  0  0  0  0  0  0  0  0  0  0  0
   57.3940   30.4630   50.9380 N   0  0  0  0  0  0  0  0  0  0  0  0
   56.7490   30.3620   52.1200 C   0  0  0  0  0  0  0  0  0  0  0  0
   56.1790   29.3050   52.4930 O   0  0  0  0  0  0  0  0  0  0  0  0
   56.7540   31.4880   52.8670 N   0  0  0  0  0  0  0  0  0  0  0  0
   57.4510   32.3440   52.1010 C   0  0  0  0  0  0  0  0  0  0  0  0
   57.7030   33.6670   52.4460 O   0  0  0  0  0  0  0  0  0  0  0  0
   60.6460   32.4140   48.6860 C   0  0  0  0  0  0  0  0  0  0  0  0
   61.2740   31.6070   47.7610 C   0  0  0  0  0  0  0  0  0  0  0  0
   62.5950   31.9160   47.1240 C   0  0  0  0  0  0  0  0  0  0  0  0
   60.5390   30.4950   47.5260 N   0  0  0  0  0  0  0  0  0  0  0  0
   60.8990   29.4110   46.5980 C   0  0  0  0  0  0  0  0  0  0  0  0
   60.0480   29.4980   45.3290 C   0  0  0  0  0  0  0  0  0  0  0  0
   58.7450   28.7690   45.5150 C   0  0  0  0  0  0  0  0  0  0  0  0
   58.7330   27.4590   46.0190 C   0  0  0  0  0  0  0  0  0  0  0  0
   57.5240   26.7700   46.1590 C   0  0  0  0  0  0  0  0  0  0  0  0
   56.3210   27.3800   45.7900 C   0  0  0  0  0  0  0  0  0  0  0  0
   55.1230   26.6910   45.9340 O   0  0  0  0  0  0  0  0  0  0  0  0
   56.3270   28.6820   45.2740 C   0  0  0  0  0  0  0  0  0  0  0  0
   55.1350   29.2910   44.9000 O   0  0  0  0  0  0  0  0  0  0  0  0
   57.5360   29.3730   45.1330 C   0  0  0  0  0  0  0  0  0  0  0  0
   58.6098   28.6956   47.8046 H   0  0  0  0  0  0  0  0  0  0  0  0
   57.6966   29.6995   49.1418 H   0  0  0  0  0  0  0  0  0  0  0  0
   58.2632   33.4251   49.6062 H   0  0  0  0  0  0  0  0  0  0  0  0
   58.5160   33.9110   52.9980 H   0  0  0  0  0  0  0  0  0  0  0  0
   61.0288   33.3599   49.0969 H   0  0  0  0  0  0  0  0  0  0  0  0
   63.3474   32.0920   47.9069 H   0  0  0  0  0  0  0  0  0  0  0  0
   62.9081   31.0669   46.4988 H   0  0  0  0  0  0  0  0  0  0  0  0
   62.4990   32.8159   46.4988 H   0  0  0  0  0  0  0  0  0  0  0  0
   61.9620   29.5004   46.3296 H   0  0  0  0  0  0  0  0  0  0  0  0
   60.7157   28.4432   47.0877 H   0  0  0  0  0  0  0  0  0  0  0  0
   59.8422   30.5547   45.1034 H   0  0  0  0  0  0  0  0  0  0  0  0
   60.5998   29.0325   44.4990 H   0  0  0  0  0  0  0  0  0  0  0  0
   59.6774   26.9728   46.3047 H   0  0  0  0  0  0  0  0  0  0  0  0
   57.5194   25.7458   46.5603 H   0  0  0  0  0  0  0  0  0  0  0  0
   57.5392   30.3931   44.7214 H   0  0  0  0  0  0  0  0  0  0  0  0
  1  2  2  0
  2  3  1  0
  3  4  2  3
  4  5  1  0
  5  6  1  0
  6  7  1  0
  7  8  2  0
  7  9  1  0
  9 10  1  0
 10 11  1  0
  3 12  1  0
 12 13  2  0
 13 14  1  0
 13 15  1  0
 15 16  1  0
 16 17  1  0
 17 18  1  0
 18 19  2  0
 19 20  1  0
 20 21  2  0
 21 22  1  0
 21 23  1  0
 23 24  1  0
 23 25  2  0
 15  2  1  0
 25 18  1  0
 10  5  2  0
  1 26  1  0
  1 27  1  0
  4 28  1  0
 11 29  1  0
 12 30  1  0
 14 31  1  0
 14 32  1  0
 14 33  1  0
 16 34  1  0
 16 35  1  0
 17 36  1  0
 17 37  1  0
 19 38  1  0
 20 39  1  0
 25 40  1  0
M  CHG  4   6  -1   9  -1  22  -1  24  -1
M  END
>  <UniqueID>  (18) 
16

>  <SMILES>  (18) 
C=c1c(=Cc2[n-]c(=O)[n-]c2O)cc(C)n1CCc1ccc([O-])c([O-])c1

>  <Energy>  (18) 
107.01469088848204

>  <Genealogy>  (18) 
C=c1c(=Cc2[n-]c(=O)[n-]c2O)cc(C)n1CCc1ccc([O-])c([O-])c1 (protonated)
C=c1c(=Cc2[n-]c(=O)[n-]c2O)cc(C)n1CCc1ccc([O-])c([O-])c1 (3D coordinates assigned)
C=c1c(=Cc2[n-]c(=O)[n-]c2O)cc(C)n1CCc1ccc([O-])c([O-])c1 (optimized conformer: 107.01469088848204 kcal/mol)

>  <smiles>  (18) 
C=c1c(=Cc2[nH]c(=O)[nH]c2O)cc(C)n1CCc1ccc(O)c(O)c1

>  <score_type>  (18) 
oracle

>  <origin>  (18) 
adg

>  <m_score__min__energy>  (18) 
-16.859999999999999

>  <m_primary>  (18) 
energy

$$$$
18:0
     RDKit          3D

 40 42  0  0  0  0  0  0  0  0999 V2000
   60.0350   27.5110   46.5520 N   0  0  0  0  0  0  0  0  0  0  0  0
   58.6840   27.6050   46.1420 C   0  0  0  0  0  0  0  0  0  0  0  0
   57.8270   26.5830   46.4960 C   0  0  0  0  0  0  0  0  0  0  0  0
   56.5060   26.7220   46.0640 C   0  0  0  0  0  0  0  0  0  0  0  0
   55.6890   25.8130   46.3630 O   0  0  0  0  0  0  0  0  0  0  0  0
   56.1250   27.8140   45.3410 N   0  0  0  0  0  0  0  0  0  0  0  0
   56.9710   28.7930   45.0080 C   0  0  0  0  0  0  0  0  0  0  0  0
   56.5630   30.2270   44.0540 S   0  0  0  0  0  0  0  0  0  0  0  0
   58.0120   31.1980   43.7170 C   0  0  0  0  0  0  0  0  0  0  0  0
   58.1800   32.4700   44.3970 C   0  0  0  0  0  0  0  0  0  0  0  0
   58.5630   33.4580   43.6490 O   0  0  0  0  0  0  0  0  0  0  0  0
   57.9870   32.7800   45.7430 N   0  0  0  0  0  0  0  0  0  0  0  0
   58.2040   34.1060   46.2150 C   0  0  0  0  0  0  0  0  0  0  0  0
   58.8840   34.2350   47.5410 C   0  0  0  0  0  0  0  0  0  0  0  0
   60.0720   33.3050   47.4810 C   0  0  0  0  0  0  0  0  0  0  0  0
   61.3310   33.7990   47.1660 C   0  0  0  0  0  0  0  0  0  0  0  0
   62.4070   32.9130   47.1260 C   0  0  0  0  0  0  0  0  0  0  0  0
   62.1560   31.5820   47.4060 C   0  0  0  0  0  0  0  0  0  0  0  0
   60.9110   31.0940   47.7190 C   0  0  0  0  0  0  0  0  0  0  0  0
   59.8510   31.9640   47.7580 C   0  0  0  0  0  0  0  0  0  0  0  0
   58.7470   31.1980   48.0940 O   0  0  0  0  0  0  0  0  0  0  0  0
   59.1630   29.9340   48.5200 C   0  0  0  0  0  0  0  0  0  0  0  0
   60.4660   29.8190   48.0240 O   0  0  0  0  0  0  0  0  0  0  0  0
   58.2680   28.6660   45.4260 N   0  0  0  0  0  0  0  0  0  0  0  0
   60.5280   28.3180   47.0300 H   0  0  0  0  0  0  0  0  0  0  0  0
   60.6020   26.6540   46.4030 H   0  0  0  0  0  0  0  0  0  0  0  0
   58.1628   25.7142   47.0811 H   0  0  0  0  0  0  0  0  0  0  0  0
   55.1430   27.8550   45.0720 H   0  0  0  0  0  0  0  0  0  0  0  0
   58.8831   30.5774   43.9741 H   0  0  0  0  0  0  0  0  0  0  0  0
   57.9029   31.4767   42.6585 H   0  0  0  0  0  0  0  0  0  0  0  0
   57.6930   32.0200   46.3860 H   0  0  0  0  0  0  0  0  0  0  0  0
   58.8205   34.6302   45.4699 H   0  0  0  0  0  0  0  0  0  0  0  0
   57.2008   34.5343   46.3572 H   0  0  0  0  0  0  0  0  0  0  0  0
   59.2155   35.2712   47.7032 H   0  0  0  0  0  0  0  0  0  0  0  0
   58.2088   33.9794   48.3709 H   0  0  0  0  0  0  0  0  0  0  0  0
   61.4766   34.8682   46.9522 H   0  0  0  0  0  0  0  0  0  0  0  0
   63.4212   33.2609   46.8801 H   0  0  0  0  0  0  0  0  0  0  0  0
   62.9991   30.8761   47.3764 H   0  0  0  0  0  0  0  0  0  0  0  0
   59.1560   29.8701   49.6181 H   0  0  0  0  0  0  0  0  0  0  0  0
   58.5028   29.1297   48.1634 H   0  0  0  0  0  0  0  0  0  0  0  0
  1  2  1  0
  2  3  2  0
  3  4  1  0
  4  5  2  0
  4  6  1  0
  6  7  1  0
  7  8  1  0
  8  9  1  0
  9 10  1  0
 10 11  2  0
 10 12  1  0
 12 13  1  0
 13 14  1  0
 14 15  1  0
 15 16  2  0
 16 17  1  0
 17 18  2  0
 18 19  1  0
 19 20  2  0
 20 21  1  0
 21 22  1  0
 22 23  1  0
  7 24  2  0
 24  2  1  0
 20 15  1  0
 23 19  1  0
  1 25  1  0
  1 26  1  0
  3 27  1  0
  6 28  1  0
  9 29  1  0
  9 30  1  0
 12 31  1  0
 13 32  1  0
 13 33  1  0
 14 34  1  0
 14 35  1  0
 16 36  1  0
 17 37  1  0
 18 38  1  0
 22 39  1  0
 22 40  1  0
M  END
>  <smiles>  (19) 
Nc1cc(=O)[nH]c(SCC(=O)NCCc2cccc3c2OCO3)n1

>  <score_type>  (19) 
oracle

>  <origin>  (19) 
adg

>  <m_score__min__energy>  (19) 
-7.5899999999999999

>  <m_primary>  (19) 
energy

$$$$
19:0
     RDKit          3D

 67 71  0  0  0  0  0  0  0  0999 V2000
   57.6260   26.2090   47.0540 C   0  0  0  0  0  0  0  0  0  0  0  0
   57.5720   25.8700   45.7570 C   0  0  0  0  0  0  0  0  0  0  0  0
   57.4440   24.5790   45.2130 C   0  0  0  0  0  0  0  0  0  0  0  0
   57.1760   23.3920   45.7930 C   0  0  0  0  0  0  0  0  0  0  0  0
   55.9980   23.0810   46.6280 C   0  0  0  0  0  0  0  0  0  0  0  0
   56.1310   22.5260   47.9130 C   0  0  0  0  0  0  0  0  0  0  0  0
   57.3850   22.2190   48.4250 O   0  0  0  0  0  0  0  0  0  0  0  0
   55.0260   22.2870   48.6660 N   0  0  0  0  0  0  0  0  0  0  0  0
   53.7850   22.5970   48.2110 C   0  0  0  0  0  0  0  0  0  0  0  0
   52.7760   22.3600   48.9230 O   0  0  0  0  0  0  0  0  0  0  0  0
   53.6340   23.1690   46.9880 N   0  0  0  0  0  0  0  0  0  0  0  0
   54.7070   23.4270   46.1970 C   0  0  0  0  0  0  0  0  0  0  0  0
   54.5300   23.9690   45.0740 O   0  0  0  0  0  0  0  0  0  0  0  0
   57.6410   24.7130   43.8480 C   0  0  0  0  0  0  0  0  0  0  0  0
   57.8170   26.0580   43.5980 C   0  0  0  0  0  0  0  0  0  0  0  0
   58.0600   26.6500   42.2430 C   0  0  0  0  0  0  0  0  0  0  0  0
   57.7750   26.7590   44.7520 N   0  0  0  0  0  0  0  0  0  0  0  0
   57.9500   28.1820   44.8690 C   0  0  0  0  0  0  0  0  0  0  0  0
   59.1670   28.7050   45.3290 C   0  0  0  0  0  0  0  0  0  0  0  0
   59.3300   30.0860   45.4770 C   0  0  0  0  0  0  0  0  0  0  0  0
   58.2820   30.9620   45.1470 C   0  0  0  0  0  0  0  0  0  0  0  0
   58.4440   32.4250   45.2890 C   0  0  0  0  0  0  0  0  0  0  0  0
   58.6520   33.1130   44.2510 O   0  0  0  0  0  0  0  0  0  0  0  0
   58.4120   33.0710   46.5820 N   0  0  0  0  0  0  0  0  0  0  0  0
   58.8740   32.3420   47.7760 C   0  0  0  0  0  0  0  0  0  0  0  0
   59.3370   33.2880   48.9010 C   0  0  0  0  0  0  0  0  0  0  0  0
   60.0820   34.5730   48.4170 C   0  0  0  0  0  0  0  0  0  0  0  0
   61.5610   34.4240   48.3230 N   0  0  0  0  0  0  0  0  0  0  0  0
   62.0860   33.8350   47.0650 C   0  0  0  0  0  0  0  0  0  0  0  0
   62.6390   32.4150   47.2610 C   0  0  0  0  0  0  0  0  0  0  0  0
   63.7680   32.3900   48.3070 C   0  0  0  0  0  0  0  0  0  0  0  0
   63.6410   33.5110   49.3560 C   0  0  0  0  0  0  0  0  0  0  0  0
   62.1760   33.9090   49.5700 C   0  0  0  0  0  0  0  0  0  0  0  0
   59.5040   35.1890   47.1100 C   0  0  0  0  0  0  0  0  0  0  0  0
   58.1990   34.5200   46.6790 C   0  0  0  0  0  0  0  0  0  0  0  0
   57.0580   30.4320   44.7050 C   0  0  0  0  0  0  0  0  0  0  0  0
   56.8950   29.0520   44.5640 C   0  0  0  0  0  0  0  0  0  0  0  0
   57.7280   27.2656   47.3425 H   0  0  0  0  0  0  0  0  0  0  0  0
   57.5683   25.4304   47.8289 H   0  0  0  0  0  0  0  0  0  0  0  0
   57.9008   22.5809   45.6295 H   0  0  0  0  0  0  0  0  0  0  0  0
   57.6545   23.9016   43.1054 H   0  0  0  0  0  0  0  0  0  0  0  0
   58.4756   27.6624   42.3543 H   0  0  0  0  0  0  0  0  0  0  0  0
   58.7723   26.0200   41.6900 H   0  0  0  0  0  0  0  0  0  0  0  0
   57.1105   26.7021   41.6900 H   0  0  0  0  0  0  0  0  0  0  0  0
   59.9970   28.0261   45.5745 H   0  0  0  0  0  0  0  0  0  0  0  0
   60.2823   30.4881   45.8532 H   0  0  0  0  0  0  0  0  0  0  0  0
   58.0469   31.7228   48.1535 H   0  0  0  0  0  0  0  0  0  0  0  0
   59.7364   31.7268   47.4798 H   0  0  0  0  0  0  0  0  0  0  0  0
   58.4495   33.6018   49.4700 H   0  0  0  0  0  0  0  0  0  0  0  0
   60.0621   32.7198   49.5021 H   0  0  0  0  0  0  0  0  0  0  0  0
   59.8846   35.2916   49.2261 H   0  0  0  0  0  0  0  0  0  0  0  0
   61.2709   33.7966   46.3274 H   0  0  0  0  0  0  0  0  0  0  0  0
   62.9157   34.4703   46.7215 H   0  0  0  0  0  0  0  0  0  0  0  0
   61.8243   31.7573   47.5983 H   0  0  0  0  0  0  0  0  0  0  0  0
   63.0494   32.0683   46.3011 H   0  0  0  0  0  0  0  0  0  0  0  0
   63.7441   31.4202   48.8256 H   0  0  0  0  0  0  0  0  0  0  0  0
   64.7162   32.5459   47.7717 H   0  0  0  0  0  0  0  0  0  0  0  0
   64.0597   33.1583   50.3101 H   0  0  0  0  0  0  0  0  0  0  0  0
   64.1908   34.3915   48.9921 H   0  0  0  0  0  0  0  0  0  0  0  0
   61.6124   33.0268   49.9077 H   0  0  0  0  0  0  0  0  0  0  0  0
   62.1442   34.7089   50.3244 H   0  0  0  0  0  0  0  0  0  0  0  0
   59.3138   36.2594   47.2778 H   0  0  0  0  0  0  0  0  0  0  0  0
   60.2421   35.0318   46.3097 H   0  0  0  0  0  0  0  0  0  0  0  0
   57.4152   34.7283   47.4222 H   0  0  0  0  0  0  0  0  0  0  0  0
   57.8850   34.9149   45.7015 H   0  0  0  0  0  0  0  0  0  0  0  0
   56.2231   31.1080   44.4686 H   0  0  0  0  0  0  0  0  0  0  0  0
   55.9348   28.6467   44.2122 H   0  0  0  0  0  0  0  0  0  0  0  0
  1  2  2  0
  2  3  1  0
  3  4  2  3
  4  5  1  0
  5  6  2  0
  6  7  1  0
  6  8  1  0
  8  9  1  0
  9 10  2  0
  9 11  1  0
 11 12  1  0
 12 13  2  0
  3 14  1  0
 14 15  2  0
 15 16  1  0
 15 17  1  0
 17 18  1  0
 18 19  2  0
 19 20  1  0
 20 21  2  0
 21 22  1  0
 22 23  2  0
 22 24  1  0
 24 25  1  0
 25 26  1  0
 26 27  1  0
 27 28  1  0
 28 29  1  0
 29 30  1  0
 30 31  1  0
 31 32  1  0
 32 33  1  0
 27 34  1  0
 34 35  1  0
 21 36  1  0
 36 37  2  0
 17  2  1  0
 37 18  1  0
 12  5  1  0
 35 24  1  0
 33 28  1  0
  1 38  1  0
  1 39  1  0
  4 40  1  0
 14 41  1  0
 16 42  1  0
 16 43  1  0
 16 44  1  0
 19 45  1  0
 20 46  1  0
 25 47  1  0
 25 48  1  0
 26 49  1  0
 26 50  1  0
 27 51  1  0
 29 52  1  0
 29 53  1  0
 30 54  1  0
 30 55  1  0
 31 56  1  0
 31 57  1  0
 32 58  1  0
 32 59  1  0
 33 60  1  0
 33 61  1  0
 34 62  1  0
 34 63  1  0
 35 64  1  0
 35 65  1  0
 36 66  1  0
 37 67  1  0
M  CHG  3   7  -1   8  -1  11  -1
M  END
>  <UniqueID>  (20) 
17

>  <SMILES>  (20) 
C=c1c(=Cc2c([O-])[n-]c(=O)[n-]c2=O)cc(C)n1-c1ccc(C(=O)N2CCC(N3CCCCC3)CC2)cc1

>  <Energy>  (20) 
141.93426026894934

>  <Genealogy>  (20) 
C=c1c(=Cc2c([O-])[n-]c(=O)[n-]c2=O)cc(C)n1-c1ccc(C(=O)N2CCC(N3CCCCC3)CC2)cc1 (protonated)
C=c1c(=Cc2c([O-])[n-]c(=O)[n-]c2=O)cc(C)n1-c1ccc(C(=O)N2CCC(N3CCCCC3)CC2)cc1 (3D coordinates assigned)
C=c1c(=Cc2c([O-])[n-]c(=O)[n-]c2=O)cc(C)n1-c1ccc(C(=O)N2CCC(N3CCCCC3)CC2)cc1 (nonaromatic ring conformer: 141.93426026894934 kcal/mol)

>  <smiles>  (20) 
C=c1c(=Cc2c(O)[nH]c(=O)[nH]c2=O)cc(C)n1-c1ccc(C(=O)N2CCC(N3CCCCC3)CC2)cc1

>  <score_type>  (20) 
oracle

>  <origin>  (20) 
adg

>  <m_score__min__energy>  (20) 
-16.649999999999999

>  <m_primary>  (20) 
energy

$$$$
20:0
     RDKit          3D

 45 47  0  0  0  0  0  0  0  0999 V2000
   53.9440   24.5470   45.5860 C   0  0  0  0  0  0  0  0  0  0  0  0
   54.8270   25.5900   45.9350 O   0  0  0  0  0  0  0  0  0  0  0  0
   56.1110   25.3480   45.3940 C   0  0  0  0  0  0  0  0  0  0  0  0
   57.1420   26.2350   46.0490 C   0  0  0  0  0  0  0  0  0  0  0  0
   58.2100   25.6580   46.7570 C   0  0  0  0  0  0  0  0  0  0  0  0
   59.1640   26.4640   47.3820 C   0  0  0  0  0  0  0  0  0  0  0  0
   59.0650   27.8540   47.3030 C   0  0  0  0  0  0  0  0  0  0  0  0
   58.0060   28.4410   46.6070 C   0  0  0  0  0  0  0  0  0  0  0  0
   57.0240   27.6410   45.9950 C   0  0  0  0  0  0  0  0  0  0  0  0
   55.9460   28.2370   45.2570 N   0  0  0  0  0  0  0  0  0  0  0  0
   56.0200   29.4190   44.4490 C   0  0  0  0  0  0  0  0  0  0  0  0
   55.1480   30.3140   44.6010 O   0  0  0  0  0  0  0  0  0  0  0  0
   57.1230   29.6290   43.4520 C   0  0  0  0  0  0  0  0  0  0  0  0
   58.0250   30.6700   43.9280 N   0  0  0  0  0  0  0  0  0  0  0  0
   57.7530   32.0640   43.7600 C   0  0  0  0  0  0  0  0  0  0  0  0
   58.0400   32.6460   42.6800 O   0  0  0  0  0  0  0  0  0  0  0  0
   57.0840   32.8220   44.8610 C   0  0  0  0  0  0  0  0  0  0  0  0
   58.0860   33.6750   45.5770 C   0  0  0  0  0  0  0  0  0  0  0  0
   58.8040   34.7390   45.0390 C   0  0  0  0  0  0  0  0  0  0  0  0
   59.6780   35.2270   45.9490 N   0  0  0  0  0  0  0  0  0  0  0  0
   59.5270   34.4720   47.0520 C   0  0  0  0  0  0  0  0  0  0  0  0
   60.2280   34.5790   48.2520 C   0  0  0  0  0  0  0  0  0  0  0  0
   59.9230   33.6640   49.2760 C   0  0  0  0  0  0  0  0  0  0  0  0
   58.9370   32.6710   49.0780 C   0  0  0  0  0  0  0  0  0  0  0  0
   58.2480   32.5840   47.8550 C   0  0  0  0  0  0  0  0  0  0  0  0
   58.5680   33.5100   46.8600 C   0  0  0  0  0  0  0  0  0  0  0  0
   53.5486   24.0800   46.5001 H   0  0  0  0  0  0  0  0  0  0  0  0
   53.1119   24.9541   44.9928 H   0  0  0  0  0  0  0  0  0  0  0  0
   54.4828   23.7935   44.9928 H   0  0  0  0  0  0  0  0  0  0  0  0
   56.3812   24.2951   45.5624 H   0  0  0  0  0  0  0  0  0  0  0  0
   56.0880   25.5686   44.3166 H   0  0  0  0  0  0  0  0  0  0  0  0
   58.2952   24.5631   46.8194 H   0  0  0  0  0  0  0  0  0  0  0  0
   59.9942   26.0029   47.9371 H   0  0  0  0  0  0  0  0  0  0  0  0
   59.8215   28.4875   47.7892 H   0  0  0  0  0  0  0  0  0  0  0  0
   57.9393   29.5367   46.5369 H   0  0  0  0  0  0  0  0  0  0  0  0
   57.6829   28.6910   43.3235 H   0  0  0  0  0  0  0  0  0  0  0  0
   56.6893   29.9358   42.4888 H   0  0  0  0  0  0  0  0  0  0  0  0
   56.2970   33.4627   44.4365 H   0  0  0  0  0  0  0  0  0  0  0  0
   56.6411   32.1099   45.5729 H   0  0  0  0  0  0  0  0  0  0  0  0
   58.6785   35.1282   44.0179 H   0  0  0  0  0  0  0  0  0  0  0  0
   60.3440   36.0200   45.8130 H   0  0  0  0  0  0  0  0  0  0  0  0
   60.9953   35.3543   48.3938 H   0  0  0  0  0  0  0  0  0  0  0  0
   60.4553   33.7217   50.2369 H   0  0  0  0  0  0  0  0  0  0  0  0
   58.7068   31.9611   49.8862 H   0  0  0  0  0  0  0  0  0  0  0  0
   57.4824   31.8121   47.6878 H   0  0  0  0  0  0  0  0  0  0  0  0
  1  2  1  0
  2  3  1  0
  3  4  1  0
  4  5  2  0
  5  6  1  0
  6  7  2  0
  7  8  1  0
  8  9  2  0
  9 10  1  0
 10 11  1  0
 11 12  2  0
 11 13  1  0
 13 14  1  0
 14 15  1  0
 15 16  2  0
 15 17  1  0
 17 18  1  0
 18 19  2  0
 19 20  1  0
 20 21  1  0
 21 22  2  0
 22 23  1  0
 23 24  2  0
 24 25  1  0
 25 26  2  0
  9  4  1  0
 26 18  1  0
 26 21  1  0
  1 27  1  0
  1 28  1  0
  1 29  1  0
  3 30  1  0
  3 31  1  0
  5 32  1  0
  6 33  1  0
  7 34  1  0
  8 35  1  0
 13 36  1  0
 13 37  1  0
 17 38  1  0
 17 39  1  0
 19 40  1  0
 20 41  1  0
 22 42  1  0
 23 43  1  0
 24 44  1  0
 25 45  1  0
M  CHG  2  10  -1  14  -1
M  END
>  <UniqueID>  (21) 
18

>  <SMILES>  (21) 
COCc1ccccc1[N-]C(=O)C[N-]C(=O)Cc1c[nH]c2ccccc12

>  <Energy>  (21) 
81.24062344231652

>  <Genealogy>  (21) 
COCc1ccccc1[N-]C(=O)C[N-]C(=O)Cc1c[nH]c2ccccc12 (protonated)
COCc1ccccc1[N-]C(=O)C[N-]C(=O)Cc1c[nH]c2ccccc12 (3D coordinates assigned)
COCc1ccccc1[N-]C(=O)C[N-]C(=O)Cc1c[nH]c2ccccc12 (optimized conformer: 81.24062344231652 kcal/mol)

>  <smiles>  (21) 
COCc1ccccc1NC(=O)CNC(=O)Cc1c[nH]c2ccccc12

>  <score_type>  (21) 
oracle

>  <origin>  (21) 
adg

>  <m_score__min__energy>  (21) 
-12.380000000000001

>  <m_primary>  (21) 
energy

$$$$
21:0
     RDKit          3D

 49 53  0  0  0  0  0  0  0  0999 V2000
   57.9580   20.6603   46.6570 H   0  0  0  0  0  0  0  0  0  0  0  0
   57.6970   21.5610   46.0820 C   0  0  0  0  0  0  0  0  0  0  0  0
   57.4030   22.7190   46.7300 N   0  0  0  0  0  0  0  0  0  0  0  0
   57.0710   23.8630   46.0720 C   0  0  0  0  0  0  0  0  0  0  0  0
   56.8050   24.9240   46.7850 N   0  0  0  0  0  0  0  0  0  0  0  0
   56.2940   26.2070   46.3760 C   0  0  0  0  0  0  0  0  0  0  0  0
   55.1000   26.3310   45.9910 O   0  0  0  0  0  0  0  0  0  0  0  0
   57.2030   27.3750   46.3240 C   0  0  0  0  0  0  0  0  0  0  0  0
   57.1040   28.3210   45.2660 C   0  0  0  0  0  0  0  0  0  0  0  0
   56.3496   28.1776   44.4784 H   0  0  0  0  0  0  0  0  0  0  0  0
   57.9580   29.4370   45.2140 C   0  0  0  0  0  0  0  0  0  0  0  0
   57.8818   30.1715   44.3987 H   0  0  0  0  0  0  0  0  0  0  0  0
   58.9030   29.5840   46.2260 C   0  0  0  0  0  0  0  0  0  0  0  0
   59.0170   28.6730   47.2400 C   0  0  0  0  0  0  0  0  0  0  0  0
   58.1850   27.5600   47.3280 C   0  0  0  0  0  0  0  0  0  0  0  0
   58.2876   26.8429   48.1558 H   0  0  0  0  0  0  0  0  0  0  0  0
   60.0410   29.0930   48.0610 C   0  0  0  0  0  0  0  0  0  0  0  0
   60.4109   28.6019   48.9731 H   0  0  0  0  0  0  0  0  0  0  0  0
   60.5080   30.2770   47.4850 C   0  0  0  0  0  0  0  0  0  0  0  0
   61.6150   31.1100   48.0130 C   0  0  0  0  0  0  0  0  0  0  0  0
   61.8000   31.2610   49.3980 C   0  0  0  0  0  0  0  0  0  0  0  0
   61.1132   30.7617   50.0972 H   0  0  0  0  0  0  0  0  0  0  0  0
   62.8490   32.0400   49.8950 C   0  0  0  0  0  0  0  0  0  0  0  0
   62.9929   32.1347   50.9814 H   0  0  0  0  0  0  0  0  0  0  0  0
   63.7170   32.7000   49.0180 C   0  0  0  0  0  0  0  0  0  0  0  0
   64.7650   33.4640   49.5510 O   0  0  0  0  0  0  0  0  0  0  0  0
   65.8310   32.9540   50.3070 C   0  0  0  0  0  0  0  0  0  0  0  0
   65.9870   31.5730   50.5300 C   0  0  0  0  0  0  0  0  0  0  0  0
   65.2544   30.8647   50.1157 H   0  0  0  0  0  0  0  0  0  0  0  0
   67.0710   31.0980   51.2770 C   0  0  0  0  0  0  0  0  0  0  0  0
   67.1877   30.0182   51.4513 H   0  0  0  0  0  0  0  0  0  0  0  0
   68.0060   31.9960   51.8020 C   0  0  0  0  0  0  0  0  0  0  0  0
   68.8514   31.6234   52.3990 H   0  0  0  0  0  0  0  0  0  0  0  0
   67.8660   33.3670   51.5680 C   0  0  0  0  0  0  0  0  0  0  0  0
   68.6060   34.0719   51.9749 H   0  0  0  0  0  0  0  0  0  0  0  0
   66.7860   33.8440   50.8170 C   0  0  0  0  0  0  0  0  0  0  0  0
   66.6861   34.9227   50.6260 H   0  0  0  0  0  0  0  0  0  0  0  0
   63.5460   32.5440   47.6330 C   0  0  0  0  0  0  0  0  0  0  0  0
   64.2358   33.0432   46.9366 H   0  0  0  0  0  0  0  0  0  0  0  0
   62.5030   31.7570   47.1350 C   0  0  0  0  0  0  0  0  0  0  0  0
   62.3761   31.6431   46.0483 H   0  0  0  0  0  0  0  0  0  0  0  0
   59.8040   30.5710   46.3640 N   0  0  0  0  0  0  0  0  0  0  0  0
   59.9400   31.3790   45.7160 H   0  0  0  0  0  0  0  0  0  0  0  0
   57.0050   23.8400   44.6600 C   0  0  0  0  0  0  0  0  0  0  0  0
   56.7117   24.7420   44.1029 H   0  0  0  0  0  0  0  0  0  0  0  0
   57.3160   22.6600   43.9790 C   0  0  0  0  0  0  0  0  0  0  0  0
   57.2827   22.6362   42.8798 H   0  0  0  0  0  0  0  0  0  0  0  0
   57.6680   21.5140   44.6880 C   0  0  0  0  0  0  0  0  0  0  0  0
   57.9197   20.5846   44.1561 H   0  0  0  0  0  0  0  0  0  0  0  0
  1  2  1  0
  2  3  1  0
  3  4  1  0
  4  5  2  0
  5  6  1  0
  6  7  2  0
  6  8  1  0
  8  9  2  0
  9 10  1  0
  9 11  1  0
 11 12  1  0
 11 13  2  0
 13 14  1  0
 14 15  2  0
 15 16  1  0
 14 17  1  0
 17 18  1  0
 17 19  2  0
 19 20  1  0
 20 21  2  0
 21 22  1  0
 21 23  1  0
 23 24  1  0
 23 25  2  0
 25 26  1  0
 26 27  1  0
 27 28  2  0
 28 29  1  0
 28 30  1  0
 30 31  1  0
 30 32  2  0
 32 33  1  0
 32 34  1  0
 34 35  1  0
 34 36  2  0
 36 37  1  0
 25 38  1  0
 38 39  1  0
 38 40  2  0
 40 41  1  0
 19 42  1  0
 42 43  1  0
  4 44  1  0
 44 45  1  0
 44 46  2  0
 46 47  1  0
 46 48  1  0
 48 49  1  0
 48  2  2  0
 15  8  1  0
 40 20  1  0
 42 13  1  0
 36 27  1  0
M  CHG  1   3  -1
M  END
>  <UniqueID>  (22) 
19

>  <SMILES>  (22) 
O=C(/N=c1\cccc[n-]1)c1ccc2[nH]c(-c3ccc(Oc4ccccc4)cc3)cc2c1

>  <Energy>  (22) 
107.0560464855213

>  <Genealogy>  (22) 
O=C(N=c1cccc[n-]1)c1ccc2[nH]c(-c3ccc(Oc4ccccc4)cc3)cc2c1 (protonated)
O=C(/N=c1\cccc[n-]1)c1ccc2[nH]c(-c3ccc(Oc4ccccc4)cc3)cc2c1 (cis-trans isomerization)
O=C(/N=c1\cccc[n-]1)c1ccc2[nH]c(-c3ccc(Oc4ccccc4)cc3)cc2c1 (3D coordinates assigned)
O=C(/N=c1\cccc[n-]1)c1ccc2[nH]c(-c3ccc(Oc4ccccc4)cc3)cc2c1 (optimized conformer: 107.0560464855213 kcal/mol)

>  <smiles>  (22) 
O=C(N=c1cccc[nH]1)c1ccc2[nH]c(-c3ccc(Oc4ccccc4)cc3)cc2c1

>  <score_type>  (22) 
oracle

>  <origin>  (22) 
adg

>  <m_score__min__energy>  (22) 
-10.67

>  <m_primary>  (22) 
energy

$$$$
22:0
     RDKit          3D

 69 73  0  0  0  0  0  0  0  0999 V2000
   61.6776   29.4956   51.7270 H   0  0  0  0  0  0  0  0  0  0  0  0
   61.6390   30.4700   51.2180 C   0  0  0  0  0  0  0  0  0  0  0  0
   60.4770   30.8400   50.6500 C   0  0  0  0  0  0  0  0  0  0  0  0
   60.2749   30.5291   49.6144 H   0  0  0  0  0  0  0  0  0  0  0  0
   59.4580   31.6480   51.3590 C   0  0  0  0  0  0  0  0  0  0  0  0
   58.2740   30.9980   51.7560 C   0  0  0  0  0  0  0  0  0  0  0  0
   58.1393   29.9289   51.5348 H   0  0  0  0  0  0  0  0  0  0  0  0
   57.2700   31.6960   52.4270 C   0  0  0  0  0  0  0  0  0  0  0  0
   56.3467   31.1782   52.7260 H   0  0  0  0  0  0  0  0  0  0  0  0
   57.4350   33.0480   52.7190 C   0  0  0  0  0  0  0  0  0  0  0  0
   56.6497   33.5915   53.2648 H   0  0  0  0  0  0  0  0  0  0  0  0
   58.5960   33.7150   52.3200 C   0  0  0  0  0  0  0  0  0  0  0  0
   58.7299   34.7763   52.5763 H   0  0  0  0  0  0  0  0  0  0  0  0
   59.5990   33.0400   51.5910 C   0  0  0  0  0  0  0  0  0  0  0  0
   60.7460   33.7530   51.0770 N   0  0  0  0  0  0  0  0  0  0  0  0
   61.1520   33.7700   49.8400 C   0  0  0  0  0  0  0  0  0  0  0  0
   60.2910   33.5260   48.8190 N   0  0  0  0  0  0  0  0  0  0  0  0
   60.7200   33.5010   47.5330 C   0  0  0  0  0  0  0  0  0  0  0  0
   59.7810   33.2460   46.4660 N   0  0  0  0  0  0  0  0  0  0  0  0
   59.5830   31.8710   45.9940 C   0  0  0  0  0  0  0  0  0  0  0  0
   60.2418   31.1938   46.5574 H   0  0  0  0  0  0  0  0  0  0  0  0
   59.8239   31.8186   44.9220 H   0  0  0  0  0  0  0  0  0  0  0  0
   58.1210   31.4500   46.2040 C   0  0  0  0  0  0  0  0  0  0  0  0
   57.7366   31.9709   47.0934 H   0  0  0  0  0  0  0  0  0  0  0  0
   58.1208   30.3558   46.3168 H   0  0  0  0  0  0  0  0  0  0  0  0
   57.2250   31.7610   45.0580 N   0  0  0  0  0  0  0  0  0  0  0  0
   57.3040   30.7100   44.0160 C   0  0  0  0  0  0  0  0  0  0  0  0
   56.3345   30.6406   43.5009 H   0  0  0  0  0  0  0  0  0  0  0  0
   58.0994   30.9799   43.3058 H   0  0  0  0  0  0  0  0  0  0  0  0
   57.6370   29.3690   44.6240 C   0  0  0  0  0  0  0  0  0  0  0  0
   56.6350   28.5870   45.2240 C   0  0  0  0  0  0  0  0  0  0  0  0
   55.6120   28.9813   45.3133 H   0  0  0  0  0  0  0  0  0  0  0  0
   56.9340   27.3090   45.7080 C   0  0  0  0  0  0  0  0  0  0  0  0
   56.1485   26.7046   46.1851 H   0  0  0  0  0  0  0  0  0  0  0  0
   58.2300   26.7990   45.5860 C   0  0  0  0  0  0  0  0  0  0  0  0
   58.6320   25.0460   46.2300 Br  0  0  0  0  0  0  0  0  0  0  0  0
   59.2300   27.5700   44.9840 C   0  0  0  0  0  0  0  0  0  0  0  0
   60.2496   27.1685   44.8880 H   0  0  0  0  0  0  0  0  0  0  0  0
   58.9360   28.8500   44.5040 C   0  0  0  0  0  0  0  0  0  0  0  0
   59.7253   29.4525   44.0307 H   0  0  0  0  0  0  0  0  0  0  0  0
   57.3470   33.1240   44.4730 C   0  0  0  0  0  0  0  0  0  0  0  0
   56.3766   33.3943   44.0312 H   0  0  0  0  0  0  0  0  0  0  0  0
   58.1616   33.0714   43.7357 H   0  0  0  0  0  0  0  0  0  0  0  0
   57.7420   34.2300   45.4770 C   0  0  0  0  0  0  0  0  0  0  0  0
   57.2916   33.9975   46.4533 H   0  0  0  0  0  0  0  0  0  0  0  0
   57.3751   35.1882   45.0804 H   0  0  0  0  0  0  0  0  0  0  0  0
   59.2630   34.3490   45.6520 C   0  0  0  0  0  0  0  0  0  0  0  0
   59.4954   35.3031   46.1477 H   0  0  0  0  0  0  0  0  0  0  0  0
   59.7364   34.3076   44.6599 H   0  0  0  0  0  0  0  0  0  0  0  0
   62.0350   33.7190   47.2660 N   0  0  0  0  0  0  0  0  0  0  0  0
   62.9060   33.9580   48.2820 C   0  0  0  0  0  0  0  0  0  0  0  0
   64.1230   34.1600   48.0340 O   0  0  0  0  0  0  0  0  0  0  0  0
   62.4650   33.9780   49.5660 N   0  0  0  0  0  0  0  0  0  0  0  0
   62.8740   31.2970   51.2000 C   0  0  0  0  0  0  0  0  0  0  0  0
   63.1390   32.1300   52.2980 C   0  0  0  0  0  0  0  0  0  0  0  0
   62.4220   32.1786   53.1308 H   0  0  0  0  0  0  0  0  0  0  0  0
   64.3050   32.8980   52.3430 C   0  0  0  0  0  0  0  0  0  0  0  0
   64.4944   33.5492   53.2091 H   0  0  0  0  0  0  0  0  0  0  0  0
   65.2360   32.8480   51.2970 C   0  0  0  0  0  0  0  0  0  0  0  0
   66.4350   33.6440   51.3760 N   0  0  0  0  0  0  0  0  0  0  0  0
   66.4600   34.4510   52.0390 H   0  0  0  0  0  0  0  0  0  0  0  0
   67.6170   33.4050   50.5560 C   0  0  0  0  0  0  0  0  0  0  0  0
   68.4858   33.2293   51.2074 H   0  0  0  0  0  0  0  0  0  0  0  0
   67.4504   32.5224   49.9210 H   0  0  0  0  0  0  0  0  0  0  0  0
   67.8064   34.2830   49.9210 H   0  0  0  0  0  0  0  0  0  0  0  0
   64.9820   32.0050   50.2010 C   0  0  0  0  0  0  0  0  0  0  0  0
   65.7069   31.9488   49.3756 H   0  0  0  0  0  0  0  0  0  0  0  0
   63.8150   31.2380   50.1530 C   0  0  0  0  0  0  0  0  0  0  0  0
   63.6292   30.5820   49.2898 H   0  0  0  0  0  0  0  0  0  0  0  0
  1  2  1  0
  2  3  2  3
  3  4  1  0
  3  5  1  0
  5  6  2  0
  6  7  1  0
  6  8  1  0
  8  9  1  0
  8 10  2  0
 10 11  1  0
 10 12  1  0
 12 13  1  0
 12 14  2  0
 14 15  1  0
 15 16  2  0
 16 17  1  0
 17 18  2  0
 18 19  1  0
 19 20  1  0
 20 21  1  0
 20 22  1  0
 20 23  1  0
 23 24  1  0
 23 25  1  0
 23 26  1  0
 26 27  1  0
 27 28  1  0
 27 29  1  0
 27 30  1  0
 30 31  2  0
 31 32  1  0
 31 33  1  0
 33 34  1  0
 33 35  2  0
 35 36  1  0
 35 37  1  0
 37 38  1  0
 37 39  2  0
 39 40  1  0
 26 41  1  0
 41 42  1  0
 41 43  1  0
 41 44  1  0
 44 45  1  0
 44 46  1  0
 44 47  1  0
 47 48  1  0
 47 49  1  0
 18 50  1  0
 50 51  1  0
 51 52  2  0
 51 53  1  0
  2 54  1  0
 54 55  2  0
 55 56  1  0
 55 57  1  0
 57 58  1  0
 57 59  2  0
 59 60  1  0
 60 61  1  0
 60 62  1  0
 62 63  1  0
 62 64  1  0
 62 65  1  0
 59 66  1  0
 66 67  1  0
 66 68  2  0
 68 69  1  0
 14  5  1  0
 53 16  1  0
 68 54  1  0
 47 19  1  0
 39 30  1  0
M  CHG  2  50  -1  53  -1
M  END
>  <UniqueID>  (23) 
20

>  <SMILES>  (23) 
CNc1ccc(C=Cc2ccccc2/N=c2\nc(N3CCCN(Cc4ccc(Br)cc4)CC3)[n-]c(=O)[n-]2)cc1

>  <Energy>  (23) 
95.92939958655609

>  <Genealogy>  (23) 
CNc1ccc(C=Cc2ccccc2N=c2nc(N3CCCN(Cc4ccc(Br)cc4)CC3)[n-]c(=O)[n-]2)cc1 (protonated)
CNc1ccc(C=Cc2ccccc2/N=c2\nc(N3CCCN(Cc4ccc(Br)cc4)CC3)[n-]c(=O)[n-]2)cc1 (cis-trans isomerization)
CNc1ccc(C=Cc2ccccc2/N=c2\nc(N3CCCN(Cc4ccc(Br)cc4)CC3)[n-]c(=O)[n-]2)cc1 (3D coordinates assigned)
CNc1ccc(C=Cc2ccccc2/N=c2\nc(N3CCCN(Cc4ccc(Br)cc4)CC3)[n-]c(=O)[n-]2)cc1 (nonaromatic ring conformer: 95.92939958655609 kcal/mol)

>  <smiles>  (23) 
CNc1ccc(C=Cc2ccccc2N=c2nc(N3CCCN(Cc4ccc(Br)cc4)CC3)[nH]c(=O)[nH]2)cc1

>  <score_type>  (23) 
oracle

>  <origin>  (23) 
adg

>  <m_score__min__energy>  (23) 
-10.76

>  <m_primary>  (23) 
energy

$$$$
23:0
     RDKit          3D

 43 45  0  0  0  0  0  0  0  0999 V2000
   50.7900   33.1400   51.9940 O   0  0  0  0  0  0  0  0  0  0  0  0
   51.3000   32.2800   51.2280 C   0  0  0  0  0  0  0  0  0  0  0  0
   51.0140   32.3220   49.8700 O   0  0  0  0  0  0  0  0  0  0  0  0
   52.1940   31.2340   51.7570 C   0  0  0  0  0  0  0  0  0  0  0  0
   51.6830   30.0790   52.3680 C   0  0  0  0  0  0  0  0  0  0  0  0
   52.5680   29.1150   52.8550 C   0  0  0  0  0  0  0  0  0  0  0  0
   53.9440   29.3060   52.7320 C   0  0  0  0  0  0  0  0  0  0  0  0
   54.4280   30.4710   52.1150 C   0  0  0  0  0  0  0  0  0  0  0  0
   55.8790   30.7130   51.9690 C   0  0  0  0  0  0  0  0  0  0  0  0
   56.6650   29.7360   51.8170 O   0  0  0  0  0  0  0  0  0  0  0  0
   56.3960   32.0540   51.9670 N   0  0  0  0  0  0  0  0  0  0  0  0
   57.8000   32.3510   52.0090 C   0  0  0  0  0  0  0  0  0  0  0  0
   58.4440   32.7770   50.8370 C   0  0  0  0  0  0  0  0  0  0  0  0
   59.8160   33.0620   50.8410 C   0  0  0  0  0  0  0  0  0  0  0  0
   60.6270   33.5420   49.3510 S   0  0  0  0  0  0  0  0  0  0  0  0
   62.1130   33.5200   49.5810 O   0  0  0  0  0  0  0  0  0  0  0  0
   60.2380   34.9540   49.0090 O   0  0  0  0  0  0  0  0  0  0  0  0
   60.2390   32.4910   48.0040 N   0  0  0  0  0  0  0  0  0  0  0  0
   58.7880   32.2350   47.8770 C   0  0  0  0  0  0  0  0  0  0  0  0
   58.1290   33.0630   46.7630 C   0  0  0  0  0  0  0  0  0  0  0  0
   58.8100   34.2830   46.5870 O   0  0  0  0  0  0  0  0  0  0  0  0
   60.0830   34.0390   46.0200 C   0  0  0  0  0  0  0  0  0  0  0  0
   60.8730   32.9250   46.7450 C   0  0  0  0  0  0  0  0  0  0  0  0
   60.5420   32.9540   52.0340 C   0  0  0  0  0  0  0  0  0  0  0  0
   59.9020   32.5640   53.2130 C   0  0  0  0  0  0  0  0  0  0  0  0
   58.5340   32.2710   53.2090 C   0  0  0  0  0  0  0  0  0  0  0  0
   57.9100   31.9290   54.4040 O   0  0  0  0  0  0  0  0  0  0  0  0
   53.5400   31.3950   51.6500 N   0  0  0  0  0  0  0  0  0  0  0  0
   50.5966   29.9344   52.4624 H   0  0  0  0  0  0  0  0  0  0  0  0
   52.1799   28.2049   53.3357 H   0  0  0  0  0  0  0  0  0  0  0  0
   54.6449   28.5498   53.1154 H   0  0  0  0  0  0  0  0  0  0  0  0
   55.7400   32.8420   51.7670 H   0  0  0  0  0  0  0  0  0  0  0  0
   57.8667   32.8881   49.9073 H   0  0  0  0  0  0  0  0  0  0  0  0
   58.6381   31.1678   47.6564 H   0  0  0  0  0  0  0  0  0  0  0  0
   58.3173   32.5272   48.8273 H   0  0  0  0  0  0  0  0  0  0  0  0
   58.1584   32.4930   45.8226 H   0  0  0  0  0  0  0  0  0  0  0  0
   57.0872   33.2745   47.0457 H   0  0  0  0  0  0  0  0  0  0  0  0
   59.9462   33.7427   44.9695 H   0  0  0  0  0  0  0  0  0  0  0  0
   60.6657   34.9670   46.1168 H   0  0  0  0  0  0  0  0  0  0  0  0
   60.9492   32.0567   46.0741 H   0  0  0  0  0  0  0  0  0  0  0  0
   61.8606   33.3366   47.0003 H   0  0  0  0  0  0  0  0  0  0  0  0
   61.6191   33.1769   52.0426 H   0  0  0  0  0  0  0  0  0  0  0  0
   60.4760   32.4870   54.1482 H   0  0  0  0  0  0  0  0  0  0  0  0
  1  2  2  0
  2  3  1  0
  2  4  1  0
  4  5  2  0
  5  6  1  0
  6  7  2  0
  7  8  1  0
  8  9  1  0
  9 10  2  0
  9 11  1  0
 11 12  1  0
 12 13  2  0
 13 14  1  0
 14 15  1  0
 15 16  2  0
 15 17  2  0
 15 18  1  0
 18 19  1  0
 19 20  1  0
 20 21  1  0
 21 22  1  0
 22 23  1  0
 14 24  2  0
 24 25  1  0
 25 26  2  0
 26 27  1  0
  8 28  2  0
 28  4  1  0
 26 12  1  0
 23 18  1  0
  5 29  1  0
  6 30  1  0
  7 31  1  0
 11 32  1  0
 13 33  1  0
 19 34  1  0
 19 35  1  0
 20 36  1  0
 20 37  1  0
 22 38  1  0
 22 39  1  0
 23 40  1  0
 23 41  1  0
 24 42  1  0
 25 43  1  0
M  CHG  2   3  -1  27  -1
M  END
>  <UniqueID>  (24) 
21

>  <SMILES>  (24) 
O=C([O-])c1cccc(C(=O)Nc2cc(S(=O)(=O)N3CCOCC3)ccc2[O-])n1

>  <Energy>  (24) 
60.72372594995373

>  <Genealogy>  (24) 
O=C([O-])c1cccc(C(=O)Nc2cc(S(=O)(=O)N3CCOCC3)ccc2[O-])n1 (protonated)
O=C([O-])c1cccc(C(=O)Nc2cc(S(=O)(=O)N3CCOCC3)ccc2[O-])n1 (3D coordinates assigned)
O=C([O-])c1cccc(C(=O)Nc2cc(S(=O)(=O)N3CCOCC3)ccc2[O-])n1 (nonaromatic ring conformer: 60.72372594995373 kcal/mol)

>  <smiles>  (24) 
O=C(O)c1cccc(C(=O)Nc2cc(S(=O)(=O)N3CCOCC3)ccc2O)n1

>  <score_type>  (24) 
oracle

>  <origin>  (24) 
adg

>  <m_score__min__energy>  (24) 
-13.109999999999999

>  <m_primary>  (24) 
energy

$$$$
24:0
     RDKit          3D

 57 60  0  0  0  0  0  0  0  0999 V2000
   57.7750   32.2270   42.4630 C   0  0  0  0  0  0  0  0  0  0  0  0
   58.0180   32.0010   43.9310 C   0  0  0  0  0  0  0  0  0  0  0  0
   58.7510   32.9670   44.6440 C   0  0  0  0  0  0  0  0  0  0  0  0
   58.9910   32.8260   46.0220 C   0  0  0  0  0  0  0  0  0  0  0  0
   59.7630   33.8430   46.7760 C   0  0  0  0  0  0  0  0  0  0  0  0
   59.9990   34.9590   46.2380 O   0  0  0  0  0  0  0  0  0  0  0  0
   60.2590   33.5720   48.0970 N   0  0  0  0  0  0  0  0  0  0  0  0
   60.9500   34.5830   48.8940 C   0  0  0  0  0  0  0  0  0  0  0  0
   62.3430   34.1220   49.2270 C   0  0  0  0  0  0  0  0  0  0  0  0
   62.8070   34.1410   50.5510 C   0  0  0  0  0  0  0  0  0  0  0  0
   64.1110   33.7250   50.8270 C   0  0  0  0  0  0  0  0  0  0  0  0
   64.9250   33.3110   49.8190 N   0  0  0  0  0  0  0  0  0  0  0  0
   64.5010   33.2870   48.5280 C   0  0  0  0  0  0  0  0  0  0  0  0
   63.2040   33.6940   48.2070 C   0  0  0  0  0  0  0  0  0  0  0  0
   58.5010   31.6910   46.6820 C   0  0  0  0  0  0  0  0  0  0  0  0
   57.7820   30.7210   45.9850 C   0  0  0  0  0  0  0  0  0  0  0  0
   57.5470   30.8470   44.6080 C   0  0  0  0  0  0  0  0  0  0  0  0
   56.6390   29.5410   43.8160 S   0  0  0  0  0  0  0  0  0  0  0  0
   55.8880   30.0200   42.6060 O   0  0  0  0  0  0  0  0  0  0  0  0
   55.6500   28.9920   44.8040 O   0  0  0  0  0  0  0  0  0  0  0  0
   57.7110   28.2580   43.3250 N   0  0  0  0  0  0  0  0  0  0  0  0
   57.8710   27.2520   44.3780 C   0  0  0  0  0  0  0  0  0  0  0  0
   58.6160   27.8070   45.5630 C   0  0  0  0  0  0  0  0  0  0  0  0
   58.0870   27.6770   46.8530 C   0  0  0  0  0  0  0  0  0  0  0  0
   58.7900   28.1670   47.9570 C   0  0  0  0  0  0  0  0  0  0  0  0
   60.0310   28.8040   47.7890 C   0  0  0  0  0  0  0  0  0  0  0  0
   60.7570   29.2920   48.9350 N   0  0  0  0  0  0  0  0  0  0  0  0
   60.7820   28.6630   50.2490 C   0  0  0  0  0  0  0  0  0  0  0  0
   61.8280   29.4500   51.0730 C   0  0  0  0  0  0  0  0  0  0  0  0
   62.2620   30.5620   50.2350 N   0  0  0  0  0  0  0  0  0  0  0  0
   61.6120   30.4200   48.9920 C   0  0  0  0  0  0  0  0  0  0  0  0
   61.7420   31.2540   48.0580 O   0  0  0  0  0  0  0  0  0  0  0  0
   60.5640   28.9210   46.4930 C   0  0  0  0  0  0  0  0  0  0  0  0
   59.8610   28.4310   45.3900 C   0  0  0  0  0  0  0  0  0  0  0  0
   56.9751   32.9710   42.3340 H   0  0  0  0  0  0  0  0  0  0  0  0
   58.6978   32.5953   41.9910 H   0  0  0  0  0  0  0  0  0  0  0  0
   57.4745   31.2799   41.9910 H   0  0  0  0  0  0  0  0  0  0  0  0
   59.1431   33.8477   44.1143 H   0  0  0  0  0  0  0  0  0  0  0  0
   60.1900   32.6070   48.4930 H   0  0  0  0  0  0  0  0  0  0  0  0
   61.0051   35.5209   48.3220 H   0  0  0  0  0  0  0  0  0  0  0  0
   60.3931   34.7443   49.8288 H   0  0  0  0  0  0  0  0  0  0  0  0
   62.1492   34.4807   51.3645 H   0  0  0  0  0  0  0  0  0  0  0  0
   64.4811   33.7321   51.8628 H   0  0  0  0  0  0  0  0  0  0  0  0
   65.1812   32.9461   47.7336 H   0  0  0  0  0  0  0  0  0  0  0  0
   62.8609   33.6788   47.1620 H   0  0  0  0  0  0  0  0  0  0  0  0
   58.6852   31.5644   47.7590 H   0  0  0  0  0  0  0  0  0  0  0  0
   57.3932   29.8438   46.5230 H   0  0  0  0  0  0  0  0  0  0  0  0
   56.8761   26.9169   44.7063 H   0  0  0  0  0  0  0  0  0  0  0  0
   58.4514   26.4124   43.9678 H   0  0  0  0  0  0  0  0  0  0  0  0
   57.1131   27.1867   46.9982 H   0  0  0  0  0  0  0  0  0  0  0  0
   58.3680   28.0530   48.9664 H   0  0  0  0  0  0  0  0  0  0  0  0
   59.7920   28.7286   50.7240 H   0  0  0  0  0  0  0  0  0  0  0  0
   61.0391   27.5956   50.1821 H   0  0  0  0  0  0  0  0  0  0  0  0
   61.3747   29.8278   52.0013 H   0  0  0  0  0  0  0  0  0  0  0  0
   62.6764   28.8094   51.3556 H   0  0  0  0  0  0  0  0  0  0  0  0
   61.5423   29.4022   46.3467 H   0  0  0  0  0  0  0  0  0  0  0  0
   60.2855   28.5348   44.3805 H   0  0  0  0  0  0  0  0  0  0  0  0
  1  2  1  0
  2  3  2  0
  3  4  1  0
  4  5  1  0
  5  6  2  0
  5  7  1  0
  7  8  1  0
  8  9  1  0
  9 10  2  0
 10 11  1  0
 11 12  2  0
 12 13  1  0
 13 14  2  0
  4 15  2  0
 15 16  1  0
 16 17  2  0
 17 18  1  0
 18 19  2  0
 18 20  2  0
 18 21  1  0
 21 22  1  0
 22 23  1  0
 23 24  2  0
 24 25  1  0
 25 26  2  0
 26 27  1  0
 27 28  1  0
 28 29  1  0
 29 30  1  0
 30 31  1  0
 31 32  2  0
 26 33  1  0
 33 34  2  0
 17  2  1  0
 34 23  1  0
 14  9  1  0
 31 27  1  0
  1 35  1  0
  1 36  1  0
  1 37  1  0
  3 38  1  0
  7 39  1  0
  8 40  1  0
  8 41  1  0
 10 42  1  0
 11 43  1  0
 13 44  1  0
 14 45  1  0
 15 46  1  0
 16 47  1  0
 22 48  1  0
 22 49  1  0
 24 50  1  0
 25 51  1  0
 28 52  1  0
 28 53  1  0
 29 54  1  0
 29 55  1  0
 33 56  1  0
 34 57  1  0
M  CHG  2  21  -1  30  -1
M  END
>  <UniqueID>  (25) 
22

>  <SMILES>  (25) 
Cc1cc(C(=O)NCc2ccncc2)ccc1S(=O)(=O)[N-]Cc1ccc(N2CC[N-]C2=O)cc1

>  <Energy>  (25) 
80.35585722735914

>  <Genealogy>  (25) 
Cc1cc(C(=O)NCc2ccncc2)ccc1S(=O)(=O)[N-]Cc1ccc(N2CC[N-]C2=O)cc1 (protonated)
Cc1cc(C(=O)NCc2ccncc2)ccc1S(=O)(=O)[N-]Cc1ccc(N2CC[N-]C2=O)cc1 (3D coordinates assigned)
Cc1cc(C(=O)NCc2ccncc2)ccc1S(=O)(=O)[N-]Cc1ccc(N2CC[N-]C2=O)cc1 (nonaromatic ring conformer: 80.35585722735914 kcal/mol)

>  <smiles>  (25) 
Cc1cc(C(=O)NCc2ccncc2)ccc1S(=O)(=O)NCc1ccc(N2CCNC2=O)cc1

>  <score_type>  (25) 
oracle

>  <origin>  (25) 
adg

>  <m_score__min__energy>  (25) 
-12.109999999999999

>  <m_primary>  (25) 
energy

$$$$
25:0
     RDKit          3D

 57 60  0  0  0  0  0  0  0  0999 V2000
   55.1500   26.7210   47.4630 H   0  0  0  0  0  0  0  0  0  0  0  0
   55.4280   26.6660   46.4910 O   0  0  0  0  0  0  0  0  0  0  0  0
   55.3010   25.5020   45.7310 C   0  0  0  0  0  0  0  0  0  0  0  0
   54.0760   24.9240   45.6280 N   0  0  0  0  0  0  0  0  0  0  0  0
   53.8870   23.7940   44.9010 C   0  0  0  0  0  0  0  0  0  0  0  0
   52.7400   23.2840   44.8210 O   0  0  0  0  0  0  0  0  0  0  0  0
   54.9340   23.2130   44.2640 N   0  0  0  0  0  0  0  0  0  0  0  0
   56.1810   23.7440   44.3340 C   0  0  0  0  0  0  0  0  0  0  0  0
   57.1340   23.1570   43.7540 O   0  0  0  0  0  0  0  0  0  0  0  0
   56.4010   24.9280   45.0640 C   0  0  0  0  0  0  0  0  0  0  0  0
   57.7560   25.5120   45.1890 C   0  0  0  0  0  0  0  0  0  0  0  0
   58.6202   24.8315   45.1982 H   0  0  0  0  0  0  0  0  0  0  0  0
   57.9820   26.8360   45.2920 C   0  0  0  0  0  0  0  0  0  0  0  0
   57.3750   27.8310   44.5370 C   0  0  0  0  0  0  0  0  0  0  0  0
   56.6354   27.6888   43.7353 H   0  0  0  0  0  0  0  0  0  0  0  0
   57.8810   29.0340   44.9890 C   0  0  0  0  0  0  0  0  0  0  0  0
   57.4790   30.3770   44.4610 C   0  0  0  0  0  0  0  0  0  0  0  0
   57.2758   31.0559   45.3023 H   0  0  0  0  0  0  0  0  0  0  0  0
   58.2934   30.7882   43.8465 H   0  0  0  0  0  0  0  0  0  0  0  0
   56.5726   30.2731   43.8465 H   0  0  0  0  0  0  0  0  0  0  0  0
   58.7570   28.8280   45.9980 N   0  0  0  0  0  0  0  0  0  0  0  0
   59.4770   29.8530   46.7070 C   0  0  0  0  0  0  0  0  0  0  0  0
   60.8430   30.0520   46.4660 C   0  0  0  0  0  0  0  0  0  0  0  0
   61.3691   29.4163   45.7386 H   0  0  0  0  0  0  0  0  0  0  0  0
   61.5400   31.0550   47.1460 C   0  0  0  0  0  0  0  0  0  0  0  0
   62.6148   31.1968   46.9598 H   0  0  0  0  0  0  0  0  0  0  0  0
   60.8750   31.8830   48.0660 C   0  0  0  0  0  0  0  0  0  0  0  0
   61.6090   32.9390   48.7960 C   0  0  0  0  0  0  0  0  0  0  0  0
   61.3710   34.1500   48.5320 O   0  0  0  0  0  0  0  0  0  0  0  0
   62.5970   32.6150   49.7930 N   0  0  0  0  0  0  0  0  0  0  0  0
   62.7120   33.4330   51.0060 C   0  0  0  0  0  0  0  0  0  0  0  0
   61.9862   34.2583   50.9608 H   0  0  0  0  0  0  0  0  0  0  0  0
   62.5061   32.8084   51.8878 H   0  0  0  0  0  0  0  0  0  0  0  0
   64.1270   34.0050   51.1090 C   0  0  0  0  0  0  0  0  0  0  0  0
   64.2473   34.7972   50.3554 H   0  0  0  0  0  0  0  0  0  0  0  0
   64.2630   34.4045   52.1248 H   0  0  0  0  0  0  0  0  0  0  0  0
   65.1500   32.9690   50.8810 N   0  0  0  0  0  0  0  0  0  0  0  0
   66.5460   33.2740   51.0970 C   0  0  0  0  0  0  0  0  0  0  0  0
   67.3980   32.3450   51.1460 O   0  0  0  0  0  0  0  0  0  0  0  0
   67.0180   34.6860   51.2850 C   0  0  0  0  0  0  0  0  0  0  0  0
   67.0921   34.9078   52.3599 H   0  0  0  0  0  0  0  0  0  0  0  0
   68.0057   34.8079   50.8165 H   0  0  0  0  0  0  0  0  0  0  0  0
   66.3021   35.3774   50.8165 H   0  0  0  0  0  0  0  0  0  0  0  0
   64.7370   31.5950   50.5520 C   0  0  0  0  0  0  0  0  0  0  0  0
   65.6029   31.0401   50.1618 H   0  0  0  0  0  0  0  0  0  0  0  0
   64.3556   31.1099   51.4626 H   0  0  0  0  0  0  0  0  0  0  0  0
   63.6260   31.6080   49.4930 C   0  0  0  0  0  0  0  0  0  0  0  0
   64.0710   31.8348   48.5129 H   0  0  0  0  0  0  0  0  0  0  0  0
   63.1453   30.6186   49.4897 H   0  0  0  0  0  0  0  0  0  0  0  0
   59.5090   31.6700   48.3170 C   0  0  0  0  0  0  0  0  0  0  0  0
   58.9838   32.2968   49.0527 H   0  0  0  0  0  0  0  0  0  0  0  0
   58.8140   30.6660   47.6370 C   0  0  0  0  0  0  0  0  0  0  0  0
   57.7423   30.5131   47.8323 H   0  0  0  0  0  0  0  0  0  0  0  0
   58.8290   27.4870   46.1950 C   0  0  0  0  0  0  0  0  0  0  0  0
   59.5810   26.9050   47.1420 C   0  0  0  0  0  0  0  0  0  0  0  0
   60.2125   27.5214   47.7988 H   0  0  0  0  0  0  0  0  0  0  0  0
   59.5659   25.8116   47.2614 H   0  0  0  0  0  0  0  0  0  0  0  0
  1  2  1  0
  2  3  1  0
  3  4  1  0
  4  5  1  0
  5  6  2  0
  5  7  1  0
  7  8  1  0
  8  9  2  0
  8 10  1  0
 10 11  1  0
 11 12  1  0
 11 13  2  0
 13 14  1  0
 14 15  1  0
 14 16  2  0
 16 17  1  0
 17 18  1  0
 17 19  1  0
 17 20  1  0
 16 21  1  0
 21 22  1  0
 22 23  2  0
 23 24  1  0
 23 25  1  0
 25 26  1  0
 25 27  2  0
 27 28  1  0
 28 29  2  0
 28 30  1  0
 30 31  1  0
 31 32  1  0
 31 33  1  0
 31 34  1  0
 34 35  1  0
 34 36  1  0
 34 37  1  0
 37 38  1  0
 38 39  2  0
 38 40  1  0
 40 41  1  0
 40 42  1  0
 40 43  1  0
 37 44  1  0
 44 45  1  0
 44 46  1  0
 44 47  1  0
 47 48  1  0
 47 49  1  0
 27 50  1  0
 50 51  1  0
 50 52  2  0
 52 53  1  0
 21 54  1  0
 54 55  2  0
 55 56  1  0
 55 57  1  0
 10  3  2  0
 54 13  1  0
 52 22  1  0
 47 30  1  0
M  CHG  2   4  -1   7  -1
M  END
>  <UniqueID>  (26) 
23

>  <SMILES>  (26) 
C=c1/c(=C/c2c(O)[n-]c(=O)[n-]c2=O)cc(C)n1-c1ccc(C(=O)N2CCN(C(C)=O)CC2)cc1

>  <Energy>  (26) 
110.5215169756505

>  <Genealogy>  (26) 
C=c1c(=Cc2c(O)[n-]c(=O)[n-]c2=O)cc(C)n1-c1ccc(C(=O)N2CCN(C(C)=O)CC2)cc1 (protonated)
C=c1/c(=C/c2c(O)[n-]c(=O)[n-]c2=O)cc(C)n1-c1ccc(C(=O)N2CCN(C(C)=O)CC2)cc1 (cis-trans isomerization)
C=c1/c(=C/c2c(O)[n-]c(=O)[n-]c2=O)cc(C)n1-c1ccc(C(=O)N2CCN(C(C)=O)CC2)cc1 (3D coordinates assigned)
C=c1/c(=C/c2c(O)[n-]c(=O)[n-]c2=O)cc(C)n1-c1ccc(C(=O)N2CCN(C(C)=O)CC2)cc1 (nonaromatic ring conformer: 110.5215169756505 kcal/mol)

>  <smiles>  (26) 
C=c1c(=Cc2c(O)[nH]c(=O)[nH]c2=O)cc(C)n1-c1ccc(C(=O)N2CCN(C(C)=O)CC2)cc1

>  <score_type>  (26) 
oracle

>  <origin>  (26) 
adg

>  <m_score__min__energy>  (26) 
-13.69

>  <m_primary>  (26) 
energy

$$$$
26:0
     RDKit          3D

 38 39  0  0  0  0  0  0  0  0999 V2000
   59.3994   30.9522   48.1416 H   0  0  0  0  0  0  0  0  0  0  0  0
   59.0340   30.4530   47.2320 C   0  0  0  0  0  0  0  0  0  0  0  0
   59.1162   29.3605   47.1334 H   0  0  0  0  0  0  0  0  0  0  0  0
   58.4870   31.1780   46.2410 C   0  0  0  0  0  0  0  0  0  0  0  0
   57.9750   30.6990   45.0220 C   0  0  0  0  0  0  0  0  0  0  0  0
   57.9990   29.4710   44.4670 C   0  0  0  0  0  0  0  0  0  0  0  0
   58.4959   29.3716   43.4907 H   0  0  0  0  0  0  0  0  0  0  0  0
   57.4180   28.2490   45.0530 C   0  0  0  0  0  0  0  0  0  0  0  0
   56.0320   28.1220   45.2450 C   0  0  0  0  0  0  0  0  0  0  0  0
   55.1660   29.1370   44.8540 O   0  0  0  0  0  0  0  0  0  0  0  0
   55.5280   27.0030   45.8250 N   0  0  0  0  0  0  0  0  0  0  0  0
   56.3440   26.0010   46.2420 C   0  0  0  0  0  0  0  0  0  0  0  0
   55.8550   24.9720   46.7720 O   0  0  0  0  0  0  0  0  0  0  0  0
   57.6890   26.1130   46.0910 N   0  0  0  0  0  0  0  0  0  0  0  0
   58.2420   27.2120   45.5160 C   0  0  0  0  0  0  0  0  0  0  0  0
   59.4950   27.2860   45.3990 O   0  0  0  0  0  0  0  0  0  0  0  0
   57.3920   31.7860   44.3950 C   0  0  0  0  0  0  0  0  0  0  0  0
   56.8606   31.7780   43.4319 H   0  0  0  0  0  0  0  0  0  0  0  0
   57.6030   32.8800   45.2050 C   0  0  0  0  0  0  0  0  0  0  0  0
   57.1220   34.2660   44.8930 C   0  0  0  0  0  0  0  0  0  0  0  0
   56.9337   34.8086   45.8311 H   0  0  0  0  0  0  0  0  0  0  0  0
   57.8883   34.7974   44.3095 H   0  0  0  0  0  0  0  0  0  0  0  0
   56.1913   34.2085   44.3095 H   0  0  0  0  0  0  0  0  0  0  0  0
   58.2660   32.5180   46.3290 N   0  0  0  0  0  0  0  0  0  0  0  0
   58.6710   33.4230   47.4170 C   0  0  0  0  0  0  0  0  0  0  0  0
   57.8431   34.1133   47.6364 H   0  0  0  0  0  0  0  0  0  0  0  0
   58.9153   32.8167   48.3017 H   0  0  0  0  0  0  0  0  0  0  0  0
   59.9100   34.2360   47.0290 C   0  0  0  0  0  0  0  0  0  0  0  0
   60.1184   34.0877   45.9591 H   0  0  0  0  0  0  0  0  0  0  0  0
   59.7145   35.2984   47.2368 H   0  0  0  0  0  0  0  0  0  0  0  0
   61.0720   33.8120   47.8070 N   0  0  0  0  0  0  0  0  0  0  0  0
   60.9640   33.7300   48.8430 H   0  0  0  0  0  0  0  0  0  0  0  0
   62.3790   33.6680   47.2350 C   0  0  0  0  0  0  0  0  0  0  0  0
   62.5500   33.7840   45.9920 O   0  0  0  0  0  0  0  0  0  0  0  0
   63.5580   33.4290   48.1210 C   0  0  0  0  0  0  0  0  0  0  0  0
   63.2446   33.4925   49.1735 H   0  0  0  0  0  0  0  0  0  0  0  0
   63.9703   32.4290   47.9209 H   0  0  0  0  0  0  0  0  0  0  0  0
   64.3272   34.1895   47.9209 H   0  0  0  0  0  0  0  0  0  0  0  0
  1  2  1  0
  2  3  1  0
  2  4  2  0
  4  5  1  0
  5  6  2  0
  6  7  1  0
  6  8  1  0
  8  9  2  0
  9 10  1  0
  9 11  1  0
 11 12  1  0
 12 13  2  0
 12 14  1  0
 14 15  1  0
 15 16  2  0
  5 17  1  0
 17 18  1  0
 17 19  2  0
 19 20  1  0
 20 21  1  0
 20 22  1  0
 20 23  1  0
 19 24  1  0
 24 25  1  0
 25 26  1  0
 25 27  1  0
 25 28  1  0
 28 29  1  0
 28 30  1  0
 28 31  1  0
 31 32  1  0
 31 33  1  0
 33 34  2  0
 33 35  1  0
 35 36  1  0
 35 37  1  0
 35 38  1  0
 24  4  1  0
 15  8  1  0
M  CHG  3  10  -1  11  -1  14  -1
M  END
>  <UniqueID>  (27) 
24

>  <SMILES>  (27) 
C=c1/c(=C\c2c([O-])[n-]c(=O)[n-]c2=O)cc(C)n1CCNC(C)=O

>  <Energy>  (27) 
73.68103632235861

>  <Genealogy>  (27) 
C=c1c(=Cc2c([O-])[n-]c(=O)[n-]c2=O)cc(C)n1CCNC(C)=O (protonated)
C=c1/c(=C\c2c([O-])[n-]c(=O)[n-]c2=O)cc(C)n1CCNC(C)=O (cis-trans isomerization)
C=c1/c(=C\c2c([O-])[n-]c(=O)[n-]c2=O)cc(C)n1CCNC(C)=O (3D coordinates assigned)
C=c1/c(=C\c2c([O-])[n-]c(=O)[n-]c2=O)cc(C)n1CCNC(C)=O (optimized conformer: 73.68103632235861 kcal/mol)

>  <smiles>  (27) 
C=c1c(=Cc2c(O)[nH]c(=O)[nH]c2=O)cc(C)n1CCNC(C)=O

>  <score_type>  (27) 
oracle

>  <origin>  (27) 
adg

>  <m_score__min__energy>  (27) 
-14.67

>  <m_primary>  (27) 
energy

$$$$
27:0
     RDKit          3D

 49 52  0  0  0  0  0  0  0  0999 V2000
   60.1350   21.8510   45.5510 O   0  0  0  0  0  0  0  0  0  0  0  0
   58.9050   21.7750   45.2860 C   0  0  0  0  0  0  0  0  0  0  0  0
   58.3470   22.5880   44.1620 C   0  0  0  0  0  0  0  0  0  0  0  0
   57.4920   23.6620   44.6910 N   0  0  0  0  0  0  0  0  0  0  0  0
   58.0780   24.7600   45.2560 C   0  0  0  0  0  0  0  0  0  0  0  0
   57.3040   25.8140   45.7580 C   0  0  0  0  0  0  0  0  0  0  0  0
   57.9730   26.9900   46.3670 C   0  0  0  0  0  0  0  0  0  0  0  0
   58.9510   26.8450   47.3630 C   0  0  0  0  0  0  0  0  0  0  0  0
   59.5660   27.9790   47.8970 C   0  0  0  0  0  0  0  0  0  0  0  0
   59.2110   29.2590   47.4380 C   0  0  0  0  0  0  0  0  0  0  0  0
   59.8520   30.4820   47.9790 C   0  0  0  0  0  0  0  0  0  0  0  0
   59.3540   31.0410   48.9960 O   0  0  0  0  0  0  0  0  0  0  0  0
   61.0380   31.0320   47.3810 N   0  0  0  0  0  0  0  0  0  0  0  0
   61.5910   32.3120   47.8320 C   0  0  0  0  0  0  0  0  0  0  0  0
   63.1170   32.3130   47.8310 C   0  0  0  0  0  0  0  0  0  0  0  0
   63.1150   33.3830   46.7470 C   0  0  0  0  0  0  0  0  0  0  0  0
   61.5910   33.3890   46.7460 C   0  0  0  0  0  0  0  0  0  0  0  0
   58.2500   29.3560   46.4200 C   0  0  0  0  0  0  0  0  0  0  0  0
   57.6640   28.2370   45.9180 N   0  0  0  0  0  0  0  0  0  0  0  0
   55.9090   25.7180   45.6250 C   0  0  0  0  0  0  0  0  0  0  0  0
   55.1520   26.6490   46.0100 O   0  0  0  0  0  0  0  0  0  0  0  0
   55.3610   24.6210   45.0460 N   0  0  0  0  0  0  0  0  0  0  0  0
   56.1280   23.6030   44.5810 C   0  0  0  0  0  0  0  0  0  0  0  0
   55.5660   22.6110   44.0430 O   0  0  0  0  0  0  0  0  0  0  0  0
   58.0030   21.0370   46.1270 N   0  0  0  0  0  0  0  0  0  0  0  0
   57.0390   21.4760   46.8900 C   0  0  0  0  0  0  0  0  0  0  0  0
   55.7110   21.0030   46.8060 C   0  0  0  0  0  0  0  0  0  0  0  0
   54.7390   21.5360   47.6570 C   0  0  0  0  0  0  0  0  0  0  0  0
   55.0800   22.5320   48.5720 C   0  0  0  0  0  0  0  0  0  0  0  0
   56.3970   22.9920   48.6170 C   0  0  0  0  0  0  0  0  0  0  0  0
   57.3310   22.4620   47.7840 N   0  0  0  0  0  0  0  0  0  0  0  0
   59.1741   23.0309   43.5877 H   0  0  0  0  0  0  0  0  0  0  0  0
   57.7456   21.9369   43.5105 H   0  0  0  0  0  0  0  0  0  0  0  0
   59.1748   24.8168   45.3174 H   0  0  0  0  0  0  0  0  0  0  0  0
   59.2315   25.8434   47.7210 H   0  0  0  0  0  0  0  0  0  0  0  0
   60.3311   27.8702   48.6798 H   0  0  0  0  0  0  0  0  0  0  0  0
   61.5230   30.4990   46.6260 H   0  0  0  0  0  0  0  0  0  0  0  0
   61.0229   32.4659   48.7613 H   0  0  0  0  0  0  0  0  0  0  0  0
   63.5666   32.6371   48.7812 H   0  0  0  0  0  0  0  0  0  0  0  0
   63.6744   31.3757   47.6873 H   0  0  0  0  0  0  0  0  0  0  0  0
   63.5666   34.3366   47.0579 H   0  0  0  0  0  0  0  0  0  0  0  0
   63.6694   33.2243   45.8103 H   0  0  0  0  0  0  0  0  0  0  0  0
   61.1447   34.3442   47.0598 H   0  0  0  0  0  0  0  0  0  0  0  0
   61.0326   33.2384   45.8103 H   0  0  0  0  0  0  0  0  0  0  0  0
   57.9692   30.3438   46.0258 H   0  0  0  0  0  0  0  0  0  0  0  0
   55.4443   20.2228   46.0779 H   0  0  0  0  0  0  0  0  0  0  0  0
   53.7032   21.1694   47.6051 H   0  0  0  0  0  0  0  0  0  0  0  0
   54.3207   22.9496   49.2495 H   0  0  0  0  0  0  0  0  0  0  0  0
   56.6790   23.7836   49.3268 H   0  0  0  0  0  0  0  0  0  0  0  0
  1  2  2  0
  2  3  1  0
  3  4  1  0
  4  5  1  0
  5  6  2  0
  6  7  1  0
  7  8  2  0
  8  9  1  0
  9 10  2  0
 10 11  1  0
 11 12  2  0
 11 13  1  0
 13 14  1  0
 14 15  1  0
 15 16  1  0
 16 17  1  0
 10 18  1  0
 18 19  2  0
  6 20  1  0
 20 21  2  0
 20 22  1  0
 22 23  1  0
 23 24  2  0
  2 25  1  0
 25 26  2  3
 26 27  1  0
 27 28  2  0
 28 29  1  0
 29 30  2  0
 30 31  1  0
 23  4  1  0
 31 26  1  0
 19  7  1  0
 17 14  1  0
  3 32  1  0
  3 33  1  0
  5 34  1  0
  8 35  1  0
  9 36  1  0
 13 37  1  0
 14 38  1  0
 15 39  1  0
 15 40  1  0
 16 41  1  0
 16 42  1  0
 17 43  1  0
 17 44  1  0
 18 45  1  0
 27 46  1  0
 28 47  1  0
 29 48  1  0
 30 49  1  0
M  CHG  2  22  -1  31  -1
M  END
>  <UniqueID>  (28) 
25

>  <SMILES>  (28) 
O=C(Cn1cc(-c2ccc(C(=O)NC3CCC3)cn2)c(=O)[n-]c1=O)N=c1cccc[n-]1

>  <Energy>  (28) 
128.98149440775848

>  <Genealogy>  (28) 
O=C(Cn1cc(-c2ccc(C(=O)NC3CCC3)cn2)c(=O)[n-]c1=O)N=c1cccc[n-]1 (protonated)
O=C(Cn1cc(-c2ccc(C(=O)NC3CCC3)cn2)c(=O)[n-]c1=O)N=c1cccc[n-]1 (3D coordinates assigned)
O=C(Cn1cc(-c2ccc(C(=O)NC3CCC3)cn2)c(=O)[n-]c1=O)N=c1cccc[n-]1 (nonaromatic ring conformer: 128.98149440775848 kcal/mol)

>  <smiles>  (28) 
O=C(Cn1cc(-c2ccc(C(=O)NC3CCC3)cn2)c(=O)[nH]c1=O)N=c1cccc[nH]1

>  <score_type>  (28) 
oracle

>  <origin>  (28) 
adg

>  <m_score__min__energy>  (28) 
-12.19

>  <m_primary>  (28) 
energy

$$$$
28:0
     RDKit          3D

 41 43  0  0  0  0  0  0  0  0999 V2000
   53.5950   30.2700   54.7170 O   0  0  0  0  0  0  0  0  0  0  0  0
   53.2270   30.4840   53.5690 C   0  0  0  0  0  0  0  0  0  0  0  0
   51.7910   30.8560   53.3200 C   0  0  0  0  0  0  0  0  0  0  0  0
   51.5820   31.1380   51.8650 C   0  0  0  0  0  0  0  0  0  0  0  0
   51.7690   30.2350   50.8860 N   0  0  0  0  0  0  0  0  0  0  0  0
   51.3920   30.9020   49.7740 C   0  0  0  0  0  0  0  0  0  0  0  0
   51.4280   30.3830   48.6280 O   0  0  0  0  0  0  0  0  0  0  0  0
   50.9660   32.1660   49.9850 N   0  0  0  0  0  0  0  0  0  0  0  0
   51.0870   32.2960   51.3170 C   0  0  0  0  0  0  0  0  0  0  0  0
   50.7450   33.4460   52.0150 O   0  0  0  0  0  0  0  0  0  0  0  0
   54.1520   30.3280   52.4620 N   0  0  0  0  0  0  0  0  0  0  0  0
   54.9920   31.5430   52.3230 C   0  0  0  0  0  0  0  0  0  0  0  0
   56.2900   31.2280   51.5740 C   0  0  0  0  0  0  0  0  0  0  0  0
   57.1340   30.2690   52.3300 N   0  0  0  0  0  0  0  0  0  0  0  0
   58.0700   29.5500   51.4380 C   0  0  0  0  0  0  0  0  0  0  0  0
   58.7860   30.5150   50.5160 C   0  0  0  0  0  0  0  0  0  0  0  0
   58.9350   30.1740   49.1570 C   0  0  0  0  0  0  0  0  0  0  0  0
   58.4300   29.0070   48.6800 F   0  0  0  0  0  0  0  0  0  0  0  0
   59.6090   31.0290   48.2810 C   0  0  0  0  0  0  0  0  0  0  0  0
   60.1430   32.2300   48.7470 C   0  0  0  0  0  0  0  0  0  0  0  0
   60.0090   32.5800   50.0910 C   0  0  0  0  0  0  0  0  0  0  0  0
   59.3370   31.7330   50.9820 C   0  0  0  0  0  0  0  0  0  0  0  0
   59.2140   32.2430   52.6630 Cl  0  0  0  0  0  0  0  0  0  0  0  0
   56.3480   29.3280   53.1700 C   0  0  0  0  0  0  0  0  0  0  0  0
   54.9400   29.0730   52.6030 C   0  0  0  0  0  0  0  0  0  0  0  0
   51.1403   30.0240   53.6273 H   0  0  0  0  0  0  0  0  0  0  0  0
   51.5442   31.7561   53.9021 H   0  0  0  0  0  0  0  0  0  0  0  0
   53.5940   30.2390   51.5800 H   0  0  0  0  0  0  0  0  0  0  0  0
   54.4306   32.3069   51.7650 H   0  0  0  0  0  0  0  0  0  0  0  0
   55.2468   31.9106   53.3280 H   0  0  0  0  0  0  0  0  0  0  0  0
   56.0413   30.7914   50.5955 H   0  0  0  0  0  0  0  0  0  0  0  0
   56.8547   32.1641   51.4523 H   0  0  0  0  0  0  0  0  0  0  0  0
   58.8132   29.0175   52.0496 H   0  0  0  0  0  0  0  0  0  0  0  0
   57.4961   28.8388   50.8257 H   0  0  0  0  0  0  0  0  0  0  0  0
   59.7186   30.7541   47.2216 H   0  0  0  0  0  0  0  0  0  0  0  0
   60.6705   32.9022   48.0542 H   0  0  0  0  0  0  0  0  0  0  0  0
   60.4340   33.5276   50.4536 H   0  0  0  0  0  0  0  0  0  0  0  0
   56.8857   28.3699   53.2252 H   0  0  0  0  0  0  0  0  0  0  0  0
   56.2322   29.7825   54.1650 H   0  0  0  0  0  0  0  0  0  0  0  0
   55.0370   28.6031   51.6132 H   0  0  0  0  0  0  0  0  0  0  0  0
   54.4068   28.4182   53.3080 H   0  0  0  0  0  0  0  0  0  0  0  0
  1  2  2  0
  2  3  1  0
  3  4  1  0
  4  5  1  0
  5  6  1  0
  6  7  2  0
  6  8  1  0
  8  9  1  0
  9 10  1  0
  2 11  1  0
 11 12  1  0
 12 13  1  0
 13 14  1  0
 14 15  1  0
 15 16  1  0
 16 17  2  0
 17 18  1  0
 17 19  1  0
 19 20  2  0
 20 21  1  0
 21 22  2  0
 22 23  1  0
 14 24  1  0
 24 25  1  0
  9  4  2  0
 25 11  1  0
 22 16  1  0
  3 26  1  0
  3 27  1  0
 11 28  1  0
 12 29  1  0
 12 30  1  0
 13 31  1  0
 13 32  1  0
 15 33  1  0
 15 34  1  0
 19 35  1  0
 20 36  1  0
 21 37  1  0
 24 38  1  0
 24 39  1  0
 25 40  1  0
 25 41  1  0
M  CHG  4   5  -1   8  -1  10  -1  11   1
M  END
>  <UniqueID>  (29) 
26

>  <SMILES>  (29) 
O=C(Cc1[n-]c(=O)[n-]c1[O-])[NH+]1CCN(Cc2c(F)cccc2Cl)CC1

>  <Energy>  (29) 
84.7204855278722

>  <Genealogy>  (29) 
O=C(Cc1[n-]c(=O)[n-]c1[O-])[NH+]1CCN(Cc2c(F)cccc2Cl)CC1 (protonated)
O=C(Cc1[n-]c(=O)[n-]c1[O-])[NH+]1CCN(Cc2c(F)cccc2Cl)CC1 (3D coordinates assigned)
O=C(Cc1[n-]c(=O)[n-]c1[O-])[NH+]1CCN(Cc2c(F)cccc2Cl)CC1 (nonaromatic ring conformer: 84.7204855278722 kcal/mol)

>  <smiles>  (29) 
O=C(Cc1[nH]c(=O)[nH]c1O)N1CCN(Cc2c(F)cccc2Cl)CC1

>  <score_type>  (29) 
oracle

>  <origin>  (29) 
adg

>  <m_score__min__energy>  (29) 
-14.42

>  <m_primary>  (29) 
energy

$$$$
29:0
     RDKit          3D

 41 43  0  0  0  0  0  0  0  0999 V2000
   54.7780   27.3540   45.9980 H   0  0  0  0  0  0  0  0  0  0  0  0
   54.7430   26.3450   45.9480 O   0  0  0  0  0  0  0  0  0  0  0  0
   55.8680   25.5490   46.1530 C   0  0  0  0  0  0  0  0  0  0  0  0
   55.8180   24.4690   46.9760 N   0  0  0  0  0  0  0  0  0  0  0  0
   57.0170   23.8580   47.0600 C   0  0  0  0  0  0  0  0  0  0  0  0
   57.2200   22.8370   47.7640 O   0  0  0  0  0  0  0  0  0  0  0  0
   58.1910   24.6200   46.1330 S   0  0  0  0  0  0  0  0  0  0  0  0
   57.1130   25.7860   45.5560 C   0  0  0  0  0  0  0  0  0  0  0  0
   57.4690   26.9540   44.6750 C   0  0  0  0  0  0  0  0  0  0  0  0
   56.9457   26.8418   43.7140 H   0  0  0  0  0  0  0  0  0  0  0  0
   58.5615   26.9518   44.5471 H   0  0  0  0  0  0  0  0  0  0  0  0
   57.0850   28.2810   45.2810 C   0  0  0  0  0  0  0  0  0  0  0  0
   55.8710   28.6170   45.2350 O   0  0  0  0  0  0  0  0  0  0  0  0
   58.0220   29.1920   45.9850 C   0  0  0  0  0  0  0  0  0  0  0  0
   58.1442   29.0218   47.0649 H   0  0  0  0  0  0  0  0  0  0  0  0
   58.7380   30.1990   45.4600 C   0  0  0  0  0  0  0  0  0  0  0  0
   59.6595   29.9292   44.9233 H   0  0  0  0  0  0  0  0  0  0  0  0
   58.4040   31.6320   45.5360 C   0  0  0  0  0  0  0  0  0  0  0  0
   57.7170   32.2050   44.4560 C   0  0  0  0  0  0  0  0  0  0  0  0
   57.4191   31.5767   43.6036 H   0  0  0  0  0  0  0  0  0  0  0  0
   57.4080   33.5670   44.4540 C   0  0  0  0  0  0  0  0  0  0  0  0
   56.8487   34.0027   43.6130 H   0  0  0  0  0  0  0  0  0  0  0  0
   57.8080   34.3740   45.5170 C   0  0  0  0  0  0  0  0  0  0  0  0
   57.5560   35.4447   45.5180 H   0  0  0  0  0  0  0  0  0  0  0  0
   58.5280   33.8270   46.5810 C   0  0  0  0  0  0  0  0  0  0  0  0
   58.8527   34.4743   47.4090 H   0  0  0  0  0  0  0  0  0  0  0  0
   58.8420   32.4560   46.6040 C   0  0  0  0  0  0  0  0  0  0  0  0
   59.6890   31.9210   47.7370 C   0  0  0  0  0  0  0  0  0  0  0  0
   59.3012   32.3075   48.6910 H   0  0  0  0  0  0  0  0  0  0  0  0
   59.6439   30.8220   47.7230 H   0  0  0  0  0  0  0  0  0  0  0  0
   61.1250   32.3480   47.5780 C   0  0  0  0  0  0  0  0  0  0  0  0
   61.4590   33.4400   46.7580 C   0  0  0  0  0  0  0  0  0  0  0  0
   60.6692   33.9784   46.2136 H   0  0  0  0  0  0  0  0  0  0  0  0
   62.7910   33.8440   46.6320 C   0  0  0  0  0  0  0  0  0  0  0  0
   63.0470   34.6994   45.9895 H   0  0  0  0  0  0  0  0  0  0  0  0
   63.7980   33.1630   47.3210 C   0  0  0  0  0  0  0  0  0  0  0  0
   64.8457   33.4826   47.2203 H   0  0  0  0  0  0  0  0  0  0  0  0
   63.4750   32.0760   48.1380 C   0  0  0  0  0  0  0  0  0  0  0  0
   64.2688   31.5403   48.6792 H   0  0  0  0  0  0  0  0  0  0  0  0
   62.1440   31.6690   48.2680 C   0  0  0  0  0  0  0  0  0  0  0  0
   61.8931   30.8139   48.9129 H   0  0  0  0  0  0  0  0  0  0  0  0
  1  2  1  0
  2  3  1  0
  3  4  1  0
  4  5  1  0
  5  6  2  0
  5  7  1  0
  7  8  1  0
  8  9  1  0
  9 10  1  0
  9 11  1  0
  9 12  1  0
 12 13  2  0
 12 14  1  0
 14 15  1  0
 14 16  2  0
 16 17  1  0
 16 18  1  0
 18 19  2  0
 19 20  1  0
 19 21  1  0
 21 22  1  0
 21 23  2  0
 23 24  1  0
 23 25  1  0
 25 26  1  0
 25 27  2  0
 27 28  1  0
 28 29  1  0
 28 30  1  0
 28 31  1  0
 31 32  2  0
 32 33  1  0
 32 34  1  0
 34 35  1  0
 34 36  2  0
 36 37  1  0
 36 38  1  0
 38 39  1  0
 38 40  2  0
 40 41  1  0
  8  3  2  0
 27 18  1  0
 40 31  1  0
M  CHG  1   4  -1
M  END
>  <UniqueID>  (30) 
27

>  <SMILES>  (30) 
O=C(/C=C\c1ccccc1Cc1ccccc1)Cc1sc(=O)[n-]c1O

>  <Energy>  (30) 
82.27395677960433

>  <Genealogy>  (30) 
O=C(C=Cc1ccccc1Cc1ccccc1)Cc1sc(=O)[n-]c1O (protonated)
O=C(/C=C\c1ccccc1Cc1ccccc1)Cc1sc(=O)[n-]c1O (cis-trans isomerization)
O=C(/C=C\c1ccccc1Cc1ccccc1)Cc1sc(=O)[n-]c1O (3D coordinates assigned)
O=C(/C=C\c1ccccc1Cc1ccccc1)Cc1sc(=O)[n-]c1O (optimized conformer: 82.27395677960433 kcal/mol)

>  <smiles>  (30) 
O=C(C=Cc1ccccc1Cc1ccccc1)Cc1sc(=O)[nH]c1O

>  <score_type>  (30) 
oracle

>  <origin>  (30) 
adg

>  <m_score__min__energy>  (30) 
-12.56

>  <m_primary>  (30) 
energy

$$$$
30:0
     RDKit          3D

 48 51  0  0  0  0  0  0  0  0999 V2000
   63.2750   34.1840   48.7900 O   0  0  0  0  0  0  0  0  0  0  0  0
   62.5360   33.3110   48.2630 C   0  0  0  0  0  0  0  0  0  0  0  0
   62.9270   31.9730   48.2550 C   0  0  0  0  0  0  0  0  0  0  0  0
   62.0880   31.0200   47.6790 C   0  0  0  0  0  0  0  0  0  0  0  0
   60.8630   31.4020   47.1090 C   0  0  0  0  0  0  0  0  0  0  0  0
   59.9570   30.3510   46.5840 C   0  0  0  0  0  0  0  0  0  0  0  0
   60.3740   29.0140   46.5320 C   0  0  0  0  0  0  0  0  0  0  0  0
   59.5150   28.0250   46.0550 C   0  0  0  0  0  0  0  0  0  0  0  0
   58.2270   28.3550   45.6130 C   0  0  0  0  0  0  0  0  0  0  0  0
   57.3450   27.2990   45.2070 N   0  0  0  0  0  0  0  0  0  0  0  0
   57.8110   25.9130   45.1730 C   0  0  0  0  0  0  0  0  0  0  0  0
   56.6370   24.9630   45.1770 C   0  0  0  0  0  0  0  0  0  0  0  0
   56.8300   23.6310   44.7710 C   0  0  0  0  0  0  0  0  0  0  0  0
   55.7600   22.7330   44.7560 C   0  0  0  0  0  0  0  0  0  0  0  0
   54.4890   23.1520   45.1470 C   0  0  0  0  0  0  0  0  0  0  0  0
   54.2840   24.4700   45.5610 C   0  0  0  0  0  0  0  0  0  0  0  0
   55.3510   25.3810   45.5800 C   0  0  0  0  0  0  0  0  0  0  0  0
   55.1320   26.6920   46.0010 O   0  0  0  0  0  0  0  0  0  0  0  0
   57.8140   29.7080   45.5990 C   0  0  0  0  0  0  0  0  0  0  0  0
   56.5500   30.1020   45.0330 N   0  0  0  0  0  0  0  0  0  0  0  0
   55.6320   29.2660   44.9000 O   0  0  0  0  0  0  0  0  0  0  0  0
   56.4140   31.3320   44.4320 O   0  0  0  0  0  0  0  0  0  0  0  0
   58.6820   30.6920   46.1040 C   0  0  0  0  0  0  0  0  0  0  0  0
   60.5180   32.7790   47.1080 C   0  0  0  0  0  0  0  0  0  0  0  0
   59.2890   33.2960   46.4670 C   0  0  0  0  0  0  0  0  0  0  0  0
   59.3100   33.6940   45.1220 C   0  0  0  0  0  0  0  0  0  0  0  0
   58.1450   34.1630   44.5120 C   0  0  0  0  0  0  0  0  0  0  0  0
   56.9610   34.2170   45.2490 C   0  0  0  0  0  0  0  0  0  0  0  0
   56.9470   33.8070   46.5470 N   0  0  0  0  0  0  0  0  0  0  0  0
   58.0700   33.3500   47.1640 C   0  0  0  0  0  0  0  0  0  0  0  0
   61.3580   33.6770   47.6950 N   0  0  0  0  0  0  0  0  0  0  0  0
   63.8876   31.6722   48.6986 H   0  0  0  0  0  0  0  0  0  0  0  0
   62.3878   29.9617   47.6711 H   0  0  0  0  0  0  0  0  0  0  0  0
   61.3853   28.7433   46.8696 H   0  0  0  0  0  0  0  0  0  0  0  0
   59.8508   26.9779   46.0254 H   0  0  0  0  0  0  0  0  0  0  0  0
   56.5590   27.5550   44.5680 H   0  0  0  0  0  0  0  0  0  0  0  0
   58.4043   25.7523   44.2608 H   0  0  0  0  0  0  0  0  0  0  0  0
   58.4279   25.7219   46.0634 H   0  0  0  0  0  0  0  0  0  0  0  0
   57.8306   23.2935   44.4630 H   0  0  0  0  0  0  0  0  0  0  0  0
   55.9206   21.6932   44.4350 H   0  0  0  0  0  0  0  0  0  0  0  0
   53.6472   22.4441   45.1294 H   0  0  0  0  0  0  0  0  0  0  0  0
   53.2809   24.7956   45.8738 H   0  0  0  0  0  0  0  0  0  0  0  0
   55.1490   27.4710   45.3530 H   0  0  0  0  0  0  0  0  0  0  0  0
   58.3581   31.7431   46.1234 H   0  0  0  0  0  0  0  0  0  0  0  0
   60.2459   33.6365   44.5469 H   0  0  0  0  0  0  0  0  0  0  0  0
   58.1601   34.4868   43.4608 H   0  0  0  0  0  0  0  0  0  0  0  0
   56.0386   34.5911   44.7807 H   0  0  0  0  0  0  0  0  0  0  0  0
   58.0236   33.0214   48.2128 H   0  0  0  0  0  0  0  0  0  0  0  0
  1  2  2  0
  2  3  1  0
  3  4  2  0
  4  5  1  0
  5  6  1  0
  6  7  2  0
  7  8  1  0
  8  9  2  0
  9 10  1  0
 10 11  1  0
 11 12  1  0
 12 13  2  0
 13 14  1  0
 14 15  2  0
 15 16  1  0
 16 17  2  0
 17 18  1  0
  9 19  1  0
 19 20  1  0
 20 21  2  0
 20 22  1  0
 19 23  2  0
  5 24  2  0
 24 25  1  0
 25 26  2  0
 26 27  1  0
 27 28  2  0
 28 29  1  0
 29 30  2  0
 24 31  1  0
 31  2  1  0
 23  6  1  0
 30 25  1  0
 17 12  1  0
  3 32  1  0
  4 33  1  0
  7 34  1  0
  8 35  1  0
 10 36  1  0
 11 37  1  0
 11 38  1  0
 13 39  1  0
 14 40  1  0
 15 41  1  0
 16 42  1  0
 18 43  1  0
 23 44  1  0
 26 45  1  0
 27 46  1  0
 28 47  1  0
 30 48  1  0
M  CHG  3  20   1  22  -1  31  -1
M  END
>  <UniqueID>  (31) 
28

>  <SMILES>  (31) 
O=c1ccc(-c2ccc(NCc3ccccc3O)c([N+](=O)[O-])c2)c(-c2cccnc2)[n-]1

>  <Energy>  (31) 
74.99149224854956

>  <Genealogy>  (31) 
O=c1ccc(-c2ccc(NCc3ccccc3O)c([N+](=O)[O-])c2)c(-c2cccnc2)[n-]1 (protonated)
O=c1ccc(-c2ccc(NCc3ccccc3O)c([N+](=O)[O-])c2)c(-c2cccnc2)[n-]1 (3D coordinates assigned)
O=c1ccc(-c2ccc(NCc3ccccc3O)c([N+](=O)[O-])c2)c(-c2cccnc2)[n-]1 (optimized conformer: 74.99149224854956 kcal/mol)

>  <smiles>  (31) 
O=c1ccc(-c2ccc(NCc3ccccc3O)c([N+](=O)[O-])c2)c(-c2cccnc2)[nH]1

>  <score_type>  (31) 
oracle

>  <origin>  (31) 
adg

>  <m_score__min__energy>  (31) 
-12.4

>  <m_primary>  (31) 
energy

$$$$
31:0
     RDKit          3D

 30 31  0  0  0  0  0  0  0  0999 V2000
   54.2260   26.6860   45.1930 H   0  0  0  0  0  0  0  0  0  0  0  0
   54.6230   25.9460   45.8140 N   0  0  0  0  0  0  0  0  0  0  0  0
   55.8610   25.9740   46.1870 C   0  0  0  0  0  0  0  0  0  0  0  0
   56.7160   26.9420   45.8030 N   0  0  0  0  0  0  0  0  0  0  0  0
   57.8720   26.5970   46.4080 C   0  0  0  0  0  0  0  0  0  0  0  0
   59.1550   27.3210   46.2850 C   0  0  0  0  0  0  0  0  0  0  0  0
   59.9584   27.0505   46.9859 H   0  0  0  0  0  0  0  0  0  0  0  0
   59.4170   28.2820   45.3860 C   0  0  0  0  0  0  0  0  0  0  0  0
   59.9977   28.0034   44.4943 H   0  0  0  0  0  0  0  0  0  0  0  0
   58.9820   29.6830   45.5090 C   0  0  0  0  0  0  0  0  0  0  0  0
   59.8660   30.5570   45.9840 O   0  0  0  0  0  0  0  0  0  0  0  0
   59.6130   31.8560   46.1070 C   0  0  0  0  0  0  0  0  0  0  0  0
   60.6820   32.7660   46.6330 C   0  0  0  0  0  0  0  0  0  0  0  0
   61.0176   33.4371   45.8286 H   0  0  0  0  0  0  0  0  0  0  0  0
   60.2752   33.3575   47.4665 H   0  0  0  0  0  0  0  0  0  0  0  0
   61.7700   32.0110   47.0920 O   0  0  0  0  0  0  0  0  0  0  0  0
   61.5560   31.0600   46.9020 H   0  0  0  0  0  0  0  0  0  0  0  0
   58.3730   32.3670   45.7160 C   0  0  0  0  0  0  0  0  0  0  0  0
   58.1655   33.4448   45.7892 H   0  0  0  0  0  0  0  0  0  0  0  0
   57.4030   31.4920   45.2320 C   0  0  0  0  0  0  0  0  0  0  0  0
   56.2750   31.9420   44.8960 O   0  0  0  0  0  0  0  0  0  0  0  0
   57.6850   30.1190   45.1380 C   0  0  0  0  0  0  0  0  0  0  0  0
   56.6640   29.2090   44.6820 N   0  0  0  0  0  0  0  0  0  0  0  0
   56.9270   28.3800   44.1040 H   0  0  0  0  0  0  0  0  0  0  0  0
   55.3470   29.4520   44.8810 O   0  0  0  0  0  0  0  0  0  0  0  0
   55.3180   30.1200   45.6130 H   0  0  0  0  0  0  0  0  0  0  0  0
   57.6940   25.4310   47.1250 C   0  0  0  0  0  0  0  0  0  0  0  0
   58.4660   24.9091   47.7095 H   0  0  0  0  0  0  0  0  0  0  0  0
   56.4170   25.0440   46.9860 N   0  0  0  0  0  0  0  0  0  0  0  0
   55.9620   24.2010   47.4040 H   0  0  0  0  0  0  0  0  0  0  0  0
  1  2  1  0
  2  3  2  3
  3  4  1  0
  4  5  1  0
  5  6  1  0
  6  7  1  0
  6  8  2  0
  8  9  1  0
  8 10  1  0
 10 11  1  0
 11 12  1  0
 12 13  1  0
 13 14  1  0
 13 15  1  0
 13 16  1  0
 16 17  1  0
 12 18  2  0
 18 19  1  0
 18 20  1  0
 20 21  2  0
 20 22  1  0
 22 23  1  0
 23 24  1  0
 23 25  1  0
 25 26  1  0
  5 27  2  0
 27 28  1  0
 27 29  1  0
 29 30  1  0
 29  3  1  0
 22 10  2  0
M  CHG  1   4  -1
M  END
>  <UniqueID>  (32) 
29

>  <SMILES>  (32) 
N=c1[n-]c(/C=C\c2oc(CO)cc(=O)c2NO)c[nH]1

>  <Energy>  (32) 
70.0453586307766

>  <Genealogy>  (32) 
N=c1[n-]c(C=Cc2oc(CO)cc(=O)c2NO)c[nH]1 (protonated)
N=c1[n-]c(/C=C\c2oc(CO)cc(=O)c2NO)c[nH]1 (cis-trans isomerization)
N=c1[n-]c(/C=C\c2oc(CO)cc(=O)c2NO)c[nH]1 (3D coordinates assigned)
N=c1[n-]c(/C=C\c2oc(CO)cc(=O)c2NO)c[nH]1 (optimized conformer: 70.0453586307766 kcal/mol)

>  <smiles>  (32) 
N=c1[nH]cc(C=Cc2oc(CO)cc(=O)c2NO)[nH]1

>  <score_type>  (32) 
oracle

>  <origin>  (32) 
adg

>  <m_score__min__energy>  (32) 
-7.9900000000000002

>  <m_primary>  (32) 
energy

$$$$
32:0
     RDKit          3D

 41 43  0  0  0  0  0  0  0  0999 V2000
   54.8010   30.3700   52.2690 C   0  0  0  0  0  0  0  0  0  0  0  0
   56.2010   29.9590   52.2040 N   0  0  0  0  0  0  0  0  0  0  0  0
   57.1340   30.6520   51.6220 C   0  0  0  0  0  0  0  0  0  0  0  0
   57.9340   30.0920   50.6710 N   0  0  0  0  0  0  0  0  0  0  0  0
   58.9110   30.8120   50.0620 C   0  0  0  0  0  0  0  0  0  0  0  0
   59.1130   32.1530   50.4120 C   0  0  0  0  0  0  0  0  0  0  0  0
   60.1780   32.9820   49.7470 C   0  0  0  0  0  0  0  0  0  0  0  0
   59.8140   33.2580   48.3590 N   0  0  0  0  0  0  0  0  0  0  0  0
   60.7170   33.8820   47.4350 C   0  0  0  0  0  0  0  0  0  0  0  0
   61.8760   34.2160   47.8010 O   0  0  0  0  0  0  0  0  0  0  0  0
   60.2660   34.1970   46.0420 C   0  0  0  0  0  0  0  0  0  0  0  0
   58.9380   33.6370   45.8160 N   0  0  0  0  0  0  0  0  0  0  0  0
   58.6520   32.5690   45.0450 C   0  0  0  0  0  0  0  0  0  0  0  0
   57.3070   32.3190   45.1730 C   0  0  0  0  0  0  0  0  0  0  0  0
   56.5700   31.3180   44.4620 N   0  0  0  0  0  0  0  0  0  0  0  0
   56.4280   29.9500   44.8620 C   0  0  0  0  0  0  0  0  0  0  0  0
   55.2880   29.4180   44.8090 O   0  0  0  0  0  0  0  0  0  0  0  0
   57.5890   29.1330   45.2590 C   0  0  0  0  0  0  0  0  0  0  0  0
   58.8440   29.1750   44.6800 C   0  0  0  0  0  0  0  0  0  0  0  0
   59.6070   28.2640   45.3760 C   0  0  0  0  0  0  0  0  0  0  0  0
   58.7760   27.7260   46.3390 C   0  0  0  0  0  0  0  0  0  0  0  0
   57.5840   28.2650   46.2460 O   0  0  0  0  0  0  0  0  0  0  0  0
   56.8170   33.2890   46.0280 C   0  0  0  0  0  0  0  0  0  0  0  0
   57.8410   34.0730   46.4200 N   0  0  0  0  0  0  0  0  0  0  0  0
   58.2780   32.7110   51.3880 C   0  0  0  0  0  0  0  0  0  0  0  0
   57.3120   31.9530   51.9720 N   0  0  0  0  0  0  0  0  0  0  0  0
   54.4938   30.4602   53.3214 H   0  0  0  0  0  0  0  0  0  0  0  0
   54.6804   31.3415   51.7673 H   0  0  0  0  0  0  0  0  0  0  0  0
   54.1744   29.6179   51.7673 H   0  0  0  0  0  0  0  0  0  0  0  0
   59.5434   30.3423   49.2942 H   0  0  0  0  0  0  0  0  0  0  0  0
   60.2887   33.9328   50.2889 H   0  0  0  0  0  0  0  0  0  0  0  0
   61.1267   32.4255   49.7639 H   0  0  0  0  0  0  0  0  0  0  0  0
   58.8510   33.0090   48.0380 H   0  0  0  0  0  0  0  0  0  0  0  0
   60.2304   35.2881   45.9073 H   0  0  0  0  0  0  0  0  0  0  0  0
   60.9732   33.7586   45.3225 H   0  0  0  0  0  0  0  0  0  0  0  0
   59.3641   32.0021   44.4272 H   0  0  0  0  0  0  0  0  0  0  0  0
   59.1661   29.8054   43.8381 H   0  0  0  0  0  0  0  0  0  0  0  0
   60.6640   28.0153   45.2005 H   0  0  0  0  0  0  0  0  0  0  0  0
   59.0695   26.9611   47.0730 H   0  0  0  0  0  0  0  0  0  0  0  0
   55.7672   33.4019   46.3366 H   0  0  0  0  0  0  0  0  0  0  0  0
   58.4037   33.7634   51.6824 H   0  0  0  0  0  0  0  0  0  0  0  0
  1  2  1  0
  2  3  2  3
  3  4  1  0
  4  5  2  0
  5  6  1  0
  6  7  1  0
  7  8  1  0
  8  9  1  0
  9 10  2  0
  9 11  1  0
 11 12  1  0
 12 13  1  0
 13 14  2  0
 14 15  1  0
 15 16  1  0
 16 17  2  0
 16 18  1  0
 18 19  2  0
 19 20  1  0
 20 21  2  0
 21 22  1  0
 14 23  1  0
 23 24  2  0
  6 25  2  0
 25 26  1  0
 26  3  1  0
 24 12  1  0
 22 18  1  0
  1 27  1  0
  1 28  1  0
  1 29  1  0
  5 30  1  0
  7 31  1  0
  7 32  1  0
  8 33  1  0
 11 34  1  0
 11 35  1  0
 13 36  1  0
 19 37  1  0
 20 38  1  0
 21 39  1  0
 23 40  1  0
 25 41  1  0
M  CHG  2  15  -1  26  -1
M  END
>  <UniqueID>  (33) 
30

>  <SMILES>  (33) 
CN=c1ncc(CNC(=O)Cn2cc([N-]C(=O)c3ccco3)cn2)c[n-]1

>  <Energy>  (33) 
98.20952657704741

>  <Genealogy>  (33) 
CN=c1ncc(CNC(=O)Cn2cc([N-]C(=O)c3ccco3)cn2)c[n-]1 (protonated)
CN=c1ncc(CNC(=O)Cn2cc([N-]C(=O)c3ccco3)cn2)c[n-]1 (3D coordinates assigned)
CN=c1ncc(CNC(=O)Cn2cc([N-]C(=O)c3ccco3)cn2)c[n-]1 (optimized conformer: 98.20952657704741 kcal/mol)

>  <smiles>  (33) 
CN=c1ncc(CNC(=O)Cn2cc(NC(=O)c3ccco3)cn2)c[nH]1

>  <score_type>  (33) 
oracle

>  <origin>  (33) 
adg

>  <m_score__min__energy>  (33) 
-10.01

>  <m_primary>  (33) 
energy

$$$$
33:0
     RDKit          3D

 51 53  0  0  0  0  0  0  0  0999 V2000
   57.1300   31.3580   51.1280 O   0  0  0  0  0  0  0  0  0  0  0  0
   57.4910   30.2070   51.4890 C   0  0  0  0  0  0  0  0  0  0  0  0
   56.6190   29.4390   52.4440 C   0  0  0  0  0  0  0  0  0  0  0  0
   55.2230   29.5150   52.0180 N   0  0  0  0  0  0  0  0  0  0  0  0
   54.5000   30.7540   51.9460 C   0  0  0  0  0  0  0  0  0  0  0  0
   55.0120   31.8180   52.3890 O   0  0  0  0  0  0  0  0  0  0  0  0
   53.1210   30.7850   51.3620 C   0  0  0  0  0  0  0  0  0  0  0  0
   52.1210   31.2880   52.3740 C   0  0  0  0  0  0  0  0  0  0  0  0
   52.1710   30.8200   53.6990 C   0  0  0  0  0  0  0  0  0  0  0  0
   51.2640   31.2960   54.6520 C   0  0  0  0  0  0  0  0  0  0  0  0
   50.2890   32.2280   54.2890 C   0  0  0  0  0  0  0  0  0  0  0  0
   50.2190   32.6880   52.9700 C   0  0  0  0  0  0  0  0  0  0  0  0
   51.1300   32.2250   52.0120 C   0  0  0  0  0  0  0  0  0  0  0  0
   51.0470   32.7070   50.7090 O   0  0  0  0  0  0  0  0  0  0  0  0
   58.7540   29.7050   51.0310 N   0  0  0  0  0  0  0  0  0  0  0  0
   59.3680   29.9470   49.7580 C   0  0  0  0  0  0  0  0  0  0  0  0
   58.8510   29.3020   48.6280 C   0  0  0  0  0  0  0  0  0  0  0  0
   59.4300   29.5070   47.3730 C   0  0  0  0  0  0  0  0  0  0  0  0
   60.5420   30.3410   47.2410 C   0  0  0  0  0  0  0  0  0  0  0  0
   61.0920   30.9620   48.3710 C   0  0  0  0  0  0  0  0  0  0  0  0
   62.4900   32.0240   48.2090 S   0  0  0  0  0  0  0  0  0  0  0  0
   63.3550   31.5410   47.0780 O   0  0  0  0  0  0  0  0  0  0  0  0
   63.2900   31.9470   49.4790 O   0  0  0  0  0  0  0  0  0  0  0  0
   61.9830   33.6810   47.9470 N   0  0  0  0  0  0  0  0  0  0  0  0
   61.1700   34.2170   49.0540 C   0  0  0  0  0  0  0  0  0  0  0  0
   59.7020   33.7820   48.9510 C   0  0  0  0  0  0  0  0  0  0  0  0
   59.1600   34.1730   47.7080 O   0  0  0  0  0  0  0  0  0  0  0  0
   59.8320   33.4940   46.6670 C   0  0  0  0  0  0  0  0  0  0  0  0
   61.3260   33.8600   46.6380 C   0  0  0  0  0  0  0  0  0  0  0  0
   60.5090   30.7570   49.6300 C   0  0  0  0  0  0  0  0  0  0  0  0
   56.9375   28.3863   52.4619 H   0  0  0  0  0  0  0  0  0  0  0  0
   56.7138   29.8748   53.4495 H   0  0  0  0  0  0  0  0  0  0  0  0
   54.7970   28.6680   51.5770 H   0  0  0  0  0  0  0  0  0  0  0  0
   53.1149   31.4517   50.4871 H   0  0  0  0  0  0  0  0  0  0  0  0
   52.8402   29.7631   51.0671 H   0  0  0  0  0  0  0  0  0  0  0  0
   52.9275   30.0755   53.9879 H   0  0  0  0  0  0  0  0  0  0  0  0
   51.3189   30.9354   55.6898 H   0  0  0  0  0  0  0  0  0  0  0  0
   49.5766   32.6000   55.0401 H   0  0  0  0  0  0  0  0  0  0  0  0
   49.4457   33.4161   52.6839 H   0  0  0  0  0  0  0  0  0  0  0  0
   57.9852   28.6309   48.7286 H   0  0  0  0  0  0  0  0  0  0  0  0
   59.0087   29.0101   46.4867 H   0  0  0  0  0  0  0  0  0  0  0  0
   60.9869   30.5109   46.2494 H   0  0  0  0  0  0  0  0  0  0  0  0
   61.5825   33.8528   50.0065 H   0  0  0  0  0  0  0  0  0  0  0  0
   61.2039   35.3152   49.0002 H   0  0  0  0  0  0  0  0  0  0  0  0
   59.6406   32.6878   49.0453 H   0  0  0  0  0  0  0  0  0  0  0  0
   59.1294   34.2632   49.7576 H   0  0  0  0  0  0  0  0  0  0  0  0
   59.7311   32.4097   46.8221 H   0  0  0  0  0  0  0  0  0  0  0  0
   59.3815   33.7922   45.7088 H   0  0  0  0  0  0  0  0  0  0  0  0
   61.8309   33.2188   45.9005 H   0  0  0  0  0  0  0  0  0  0  0  0
   61.4015   34.9246   46.3718 H   0  0  0  0  0  0  0  0  0  0  0  0
   60.9465   31.2320   50.5204 H   0  0  0  0  0  0  0  0  0  0  0  0
  1  2  2  0
  2  3  1  0
  3  4  1  0
  4  5  1  0
  5  6  2  0
  5  7  1  0
  7  8  1  0
  8  9  2  0
  9 10  1  0
 10 11  2  0
 11 12  1  0
 12 13  2  0
 13 14  1  0
  2 15  1  0
 15 16  1  0
 16 17  2  0
 17 18  1  0
 18 19  2  0
 19 20  1  0
 20 21  1  0
 21 22  2  0
 21 23  2  0
 21 24  1  0
 24 25  1  0
 25 26  1  0
 26 27  1  0
 27 28  1  0
 28 29  1  0
 20 30  2  0
 13  8  1  0
 30 16  1  0
 29 24  1  0
  3 31  1  0
  3 32  1  0
  4 33  1  0
  7 34  1  0
  7 35  1  0
  9 36  1  0
 10 37  1  0
 11 38  1  0
 12 39  1  0
 17 40  1  0
 18 41  1  0
 19 42  1  0
 25 43  1  0
 25 44  1  0
 26 45  1  0
 26 46  1  0
 28 47  1  0
 28 48  1  0
 29 49  1  0
 29 50  1  0
 30 51  1  0
M  CHG  2  14  -1  15  -1
M  END
>  <UniqueID>  (34) 
31

>  <SMILES>  (34) 
O=C(CNC(=O)Cc1ccccc1[O-])[N-]c1cccc(S(=O)(=O)N2CCOCC2)c1

>  <Energy>  (34) 
53.51031543696923

>  <Genealogy>  (34) 
O=C(CNC(=O)Cc1ccccc1[O-])[N-]c1cccc(S(=O)(=O)N2CCOCC2)c1 (protonated)
O=C(CNC(=O)Cc1ccccc1[O-])[N-]c1cccc(S(=O)(=O)N2CCOCC2)c1 (3D coordinates assigned)
O=C(CNC(=O)Cc1ccccc1[O-])[N-]c1cccc(S(=O)(=O)N2CCOCC2)c1 (nonaromatic ring conformer: 53.51031543696923 kcal/mol)

>  <smiles>  (34) 
O=C(Cc1ccccc1O)NCC(=O)Nc1cccc(S(=O)(=O)N2CCOCC2)c1

>  <score_type>  (34) 
oracle

>  <origin>  (34) 
adg

>  <m_score__min__energy>  (34) 
-14.779999999999999

>  <m_primary>  (34) 
energy

$$$$
34:0
     RDKit          3D

 37 39  0  0  0  0  0  0  0  0999 V2000
   61.6605   29.9445   47.2481 H   0  0  0  0  0  0  0  0  0  0  0  0
   61.4810   31.0260   47.1580 C   0  0  0  0  0  0  0  0  0  0  0  0
   62.4660   31.8670   47.4810 C   0  0  0  0  0  0  0  0  0  0  0  0
   63.4200   31.4631   47.8508 H   0  0  0  0  0  0  0  0  0  0  0  0
   62.2700   33.5990   47.3280 S   0  0  0  0  0  0  0  0  0  0  0  0
   62.1910   34.2290   48.6900 O   0  0  0  0  0  0  0  0  0  0  0  0
   63.4170   34.1850   46.5560 O   0  0  0  0  0  0  0  0  0  0  0  0
   60.7540   33.8690   46.4450 C   0  0  0  0  0  0  0  0  0  0  0  0
   60.3884   34.8877   46.6417 H   0  0  0  0  0  0  0  0  0  0  0  0
   60.9255   33.7508   45.3649 H   0  0  0  0  0  0  0  0  0  0  0  0
   59.7200   32.8540   46.9180 C   0  0  0  0  0  0  0  0  0  0  0  0
   59.5370   33.0016   47.9926 H   0  0  0  0  0  0  0  0  0  0  0  0
   58.7940   33.0051   46.3439 H   0  0  0  0  0  0  0  0  0  0  0  0
   60.1890   31.4770   46.6950 N   0  0  0  0  0  0  0  0  0  0  0  0
   59.2720   30.5100   46.1540 C   0  0  0  0  0  0  0  0  0  0  0  0
   58.4160   30.8780   45.1080 C   0  0  0  0  0  0  0  0  0  0  0  0
   58.4497   31.9020   44.7077 H   0  0  0  0  0  0  0  0  0  0  0  0
   57.5200   29.9510   44.5710 C   0  0  0  0  0  0  0  0  0  0  0  0
   56.4530   30.4210   43.2620 Cl  0  0  0  0  0  0  0  0  0  0  0  0
   57.4740   28.6490   45.0760 C   0  0  0  0  0  0  0  0  0  0  0  0
   56.7634   27.9239   44.6525 H   0  0  0  0  0  0  0  0  0  0  0  0
   58.3290   28.2590   46.1210 C   0  0  0  0  0  0  0  0  0  0  0  0
   58.2610   26.8790   46.6620 C   0  0  0  0  0  0  0  0  0  0  0  0
   59.3270   26.2850   46.9720 O   0  0  0  0  0  0  0  0  0  0  0  0
   57.0100   26.2180   46.9130 N   0  0  0  0  0  0  0  0  0  0  0  0
   56.5420   25.1860   46.2730 C   0  0  0  0  0  0  0  0  0  0  0  0
   57.2980   24.0630   46.0970 N   0  0  0  0  0  0  0  0  0  0  0  0
   56.8240   22.9690   45.4450 C   0  0  0  0  0  0  0  0  0  0  0  0
   57.4651   22.0842   45.3184 H   0  0  0  0  0  0  0  0  0  0  0  0
   55.5250   22.9670   44.9360 C   0  0  0  0  0  0  0  0  0  0  0  0
   55.1373   22.0855   44.4043 H   0  0  0  0  0  0  0  0  0  0  0  0
   54.7230   24.0960   45.1090 C   0  0  0  0  0  0  0  0  0  0  0  0
   53.6960   24.1074   44.7152 H   0  0  0  0  0  0  0  0  0  0  0  0
   55.2260   25.2120   45.7830 C   0  0  0  0  0  0  0  0  0  0  0  0
   54.4250   26.3350   45.9580 O   0  0  0  0  0  0  0  0  0  0  0  0
   59.2210   29.2030   46.6680 C   0  0  0  0  0  0  0  0  0  0  0  0
   60.0380   28.8530   47.6960 F   0  0  0  0  0  0  0  0  0  0  0  0
  1  2  1  0
  2  3  2  0
  3  4  1  0
  3  5  1  0
  5  6  2  0
  5  7  2  0
  5  8  1  0
  8  9  1  0
  8 10  1  0
  8 11  1  0
 11 12  1  0
 11 13  1  0
 11 14  1  0
 14 15  1  0
 15 16  2  0
 16 17  1  0
 16 18  1  0
 18 19  1  0
 18 20  2  0
 20 21  1  0
 20 22  1  0
 22 23  1  0
 23 24  2  0
 23 25  1  0
 25 26  2  0
 26 27  1  0
 27 28  1  0
 28 29  1  0
 28 30  2  0
 30 31  1  0
 30 32  1  0
 32 33  1  0
 32 34  2  0
 34 35  1  0
 22 36  2  0
 36 37  1  0
 14  2  1  0
 36 15  1  0
 34 26  1  0
M  CHG  2  27  -1  35  -1
M  END
>  <UniqueID>  (35) 
32

>  <SMILES>  (35) 
O=C(/N=c1\[n-]cccc1[O-])c1cc(Cl)cc(N2C=CS(=O)(=O)CC2)c1F

>  <Energy>  (35) 
53.26864802408782

>  <Genealogy>  (35) 
O=C(N=c1[n-]cccc1[O-])c1cc(Cl)cc(N2C=CS(=O)(=O)CC2)c1F (protonated)
O=C(/N=c1\[n-]cccc1[O-])c1cc(Cl)cc(N2C=CS(=O)(=O)CC2)c1F (cis-trans isomerization)
O=C(/N=c1\[n-]cccc1[O-])c1cc(Cl)cc(N2C=CS(=O)(=O)CC2)c1F (3D coordinates assigned)
O=C(/N=c1\[n-]cccc1[O-])c1cc(Cl)cc(N2C=CS(=O)(=O)CC2)c1F (nonaromatic ring conformer: 53.26864802408782 kcal/mol)

>  <smiles>  (35) 
O=C(N=c1[nH]cccc1O)c1cc(Cl)cc(N2C=CS(=O)(=O)CC2)c1F

>  <score_type>  (35) 
oracle

>  <origin>  (35) 
adg

>  <m_score__min__energy>  (35) 
-13.49

>  <m_primary>  (35) 
energy

$$$$
35:0
     RDKit          3D

 59 62  0  0  0  0  0  0  0  0999 V2000
   59.3950   34.3990   45.2370 O   0  0  0  0  0  0  0  0  0  0  0  0
   59.6430   33.4240   45.9990 C   0  0  0  0  0  0  0  0  0  0  0  0
   58.8880   32.2090   45.8640 N   0  0  0  0  0  0  0  0  0  0  0  0
   57.7890   32.1050   44.9030 C   0  0  0  0  0  0  0  0  0  0  0  0
   57.2440   30.7010   44.8370 C   0  0  0  0  0  0  0  0  0  0  0  0
   56.0310   30.5270   44.5400 O   0  0  0  0  0  0  0  0  0  0  0  0
   58.0860   29.5550   45.0730 N   0  0  0  0  0  0  0  0  0  0  0  0
   57.5030   28.3570   45.6850 C   0  0  0  0  0  0  0  0  0  0  0  0
   58.5320   27.2170   45.7760 C   0  0  0  0  0  0  0  0  0  0  0  0
   59.8270   27.6510   46.3620 N   0  0  0  0  0  0  0  0  0  0  0  0
   59.8510   27.5170   47.8330 C   0  0  0  0  0  0  0  0  0  0  0  0
   59.9350   28.8700   48.4890 C   0  0  0  0  0  0  0  0  0  0  0  0
   61.1280   29.3010   49.0930 C   0  0  0  0  0  0  0  0  0  0  0  0
   61.1970   30.5610   49.6920 C   0  0  0  0  0  0  0  0  0  0  0  0
   60.0790   31.4000   49.6930 C   0  0  0  0  0  0  0  0  0  0  0  0
   58.8890   30.9790   49.0930 C   0  0  0  0  0  0  0  0  0  0  0  0
   58.8160   29.7190   48.4910 C   0  0  0  0  0  0  0  0  0  0  0  0
   60.2910   28.9980   45.9310 C   0  0  0  0  0  0  0  0  0  0  0  0
   59.5120   29.5460   44.7330 C   0  0  0  0  0  0  0  0  0  0  0  0
   60.7270   33.5490   47.0050 C   0  0  0  0  0  0  0  0  0  0  0  0
   61.9920   32.9930   46.7470 C   0  0  0  0  0  0  0  0  0  0  0  0
   63.0200   33.1000   47.6870 C   0  0  0  0  0  0  0  0  0  0  0  0
   62.8010   33.7640   48.9050 C   0  0  0  0  0  0  0  0  0  0  0  0
   63.8120   33.9020   49.8680 O   0  0  0  0  0  0  0  0  0  0  0  0
   64.7020   32.8920   50.2640 C   0  0  0  0  0  0  0  0  0  0  0  0
   66.0770   33.1070   50.1100 C   0  0  0  0  0  0  0  0  0  0  0  0
   66.9950   32.1300   50.5100 C   0  0  0  0  0  0  0  0  0  0  0  0
   66.5430   30.9370   51.0800 C   0  0  0  0  0  0  0  0  0  0  0  0
   65.1740   30.7220   51.2540 C   0  0  0  0  0  0  0  0  0  0  0  0
   64.2540   31.6950   50.8550 C   0  0  0  0  0  0  0  0  0  0  0  0
   61.5540   34.3480   49.1510 C   0  0  0  0  0  0  0  0  0  0  0  0
   60.5220   34.2400   48.2140 C   0  0  0  0  0  0  0  0  0  0  0  0
   59.2170   31.3490   46.3580 H   0  0  0  0  0  0  0  0  0  0  0  0
   56.9821   32.7877   45.2075 H   0  0  0  0  0  0  0  0  0  0  0  0
   58.1740   32.3730   43.9080 H   0  0  0  0  0  0  0  0  0  0  0  0
   57.1540   28.6061   46.6980 H   0  0  0  0  0  0  0  0  0  0  0  0
   56.6659   28.0190   45.0564 H   0  0  0  0  0  0  0  0  0  0  0  0
   58.1138   26.4162   46.4036 H   0  0  0  0  0  0  0  0  0  0  0  0
   58.7331   26.8718   44.7511 H   0  0  0  0  0  0  0  0  0  0  0  0
   58.9322   27.0112   48.1646 H   0  0  0  0  0  0  0  0  0  0  0  0
   60.7351   26.9289   48.1204 H   0  0  0  0  0  0  0  0  0  0  0  0
   62.0104   28.6442   49.0942 H   0  0  0  0  0  0  0  0  0  0  0  0
   62.1332   30.8937   50.1640 H   0  0  0  0  0  0  0  0  0  0  0  0
   60.1358   32.3915   50.1660 H   0  0  0  0  0  0  0  0  0  0  0  0
   58.0092   31.6393   49.0943 H   0  0  0  0  0  0  0  0  0  0  0  0
   57.8788   29.3915   48.0173 H   0  0  0  0  0  0  0  0  0  0  0  0
   60.1733   29.6951   46.7737 H   0  0  0  0  0  0  0  0  0  0  0  0
   61.3421   28.8996   45.6218 H   0  0  0  0  0  0  0  0  0  0  0  0
   59.8469   30.5695   44.5089 H   0  0  0  0  0  0  0  0  0  0  0  0
   59.6857   28.9151   43.8488 H   0  0  0  0  0  0  0  0  0  0  0  0
   62.1740   32.4692   45.7970 H   0  0  0  0  0  0  0  0  0  0  0  0
   64.0059   32.6620   47.4720 H   0  0  0  0  0  0  0  0  0  0  0  0
   66.4375   34.0495   49.6720 H   0  0  0  0  0  0  0  0  0  0  0  0
   68.0733   32.3011   50.3757 H   0  0  0  0  0  0  0  0  0  0  0  0
   67.2649   30.1677   51.3915 H   0  0  0  0  0  0  0  0  0  0  0  0
   64.8191   29.7842   51.7063 H   0  0  0  0  0  0  0  0  0  0  0  0
   63.1772   31.5255   51.0029 H   0  0  0  0  0  0  0  0  0  0  0  0
   61.3840   34.8966   50.0892 H   0  0  0  0  0  0  0  0  0  0  0  0
   59.5439   34.6978   48.4229 H   0  0  0  0  0  0  0  0  0  0  0  0
  1  2  2  0
  2  3  1  0
  3  4  1  0
  4  5  1  0
  5  6  2  0
  5  7  1  0
  7  8  1  0
  8  9  1  0
  9 10  1  0
 10 11  1  0
 11 12  1  0
 12 13  2  0
 13 14  1  0
 14 15  2  0
 15 16  1  0
 16 17  2  0
 10 18  1  0
 18 19  1  0
  2 20  1  0
 20 21  2  0
 21 22  1  0
 22 23  2  0
 23 24  1  0
 24 25  1  0
 25 26  2  0
 26 27  1  0
 27 28  2  0
 28 29  1  0
 29 30  2  0
 23 31  1  0
 31 32  2  0
 19  7  1  0
 32 20  1  0
 17 12  1  0
 30 25  1  0
  3 33  1  0
  4 34  1  0
  4 35  1  0
  8 36  1  0
  8 37  1  0
  9 38  1  0
  9 39  1  0
 11 40  1  0
 11 41  1  0
 13 42  1  0
 14 43  1  0
 15 44  1  0
 16 45  1  0
 17 46  1  0
 18 47  1  0
 18 48  1  0
 19 49  1  0
 19 50  1  0
 21 51  1  0
 22 52  1  0
 26 53  1  0
 27 54  1  0
 28 55  1  0
 29 56  1  0
 30 57  1  0
 31 58  1  0
 32 59  1  0
M  END
>  <UniqueID>  (36) 
33

>  <SMILES>  (36) 
O=C(NCC(=O)N1CCN(Cc2ccccc2)CC1)c1ccc(Oc2ccccc2)cc1

>  <Energy>  (36) 
80.33176232302642

>  <Genealogy>  (36) 
O=C(NCC(=O)N1CCN(Cc2ccccc2)CC1)c1ccc(Oc2ccccc2)cc1 (3D coordinates assigned)
O=C(NCC(=O)N1CCN(Cc2ccccc2)CC1)c1ccc(Oc2ccccc2)cc1 (nonaromatic ring conformer: 80.33176232302642 kcal/mol)

>  <smiles>  (36) 
O=C(NCC(=O)N1CCN(Cc2ccccc2)CC1)c1ccc(Oc2ccccc2)cc1

>  <score_type>  (36) 
oracle

>  <origin>  (36) 
adg

>  <m_score__min__energy>  (36) 
-9.1099999999999994

>  <m_primary>  (36) 
energy

$$$$
36:0
     RDKit          3D

 49 52  0  0  0  0  0  0  0  0999 V2000
   55.2380   27.0010   45.2430 H   0  0  0  0  0  0  0  0  0  0  0  0
   54.9320   26.3370   45.9910 N   0  0  0  0  0  0  0  0  0  0  0  0
   55.0310   25.0540   45.8420 C   0  0  0  0  0  0  0  0  0  0  0  0
   53.8990   24.3050   45.7290 N   0  0  0  0  0  0  0  0  0  0  0  0
   53.9350   22.9530   45.6140 C   0  0  0  0  0  0  0  0  0  0  0  0
   52.9984   22.3842   45.5176 H   0  0  0  0  0  0  0  0  0  0  0  0
   55.1590   22.2850   45.6180 C   0  0  0  0  0  0  0  0  0  0  0  0
   55.1942   21.1889   45.5329 H   0  0  0  0  0  0  0  0  0  0  0  0
   56.3380   23.0210   45.7310 C   0  0  0  0  0  0  0  0  0  0  0  0
   57.3075   22.5014   45.7411 H   0  0  0  0  0  0  0  0  0  0  0  0
   56.2960   24.4210   45.8320 C   0  0  0  0  0  0  0  0  0  0  0  0
   57.5650   25.1810   45.9370 C   0  0  0  0  0  0  0  0  0  0  0  0
   59.0980   24.4890   46.0060 S   0  0  0  0  0  0  0  0  0  0  0  0
   59.9010   25.9640   46.0700 C   0  0  0  0  0  0  0  0  0  0  0  0
   60.9900   26.1053   46.1337 H   0  0  0  0  0  0  0  0  0  0  0  0
   58.9420   26.9790   46.0280 C   0  0  0  0  0  0  0  0  0  0  0  0
   59.2820   28.4220   46.0620 C   0  0  0  0  0  0  0  0  0  0  0  0
   60.4470   28.8630   46.7140 C   0  0  0  0  0  0  0  0  0  0  0  0
   61.1035   28.1345   47.2123 H   0  0  0  0  0  0  0  0  0  0  0  0
   60.7760   30.2200   46.7330 C   0  0  0  0  0  0  0  0  0  0  0  0
   61.6874   30.5558   47.2492 H   0  0  0  0  0  0  0  0  0  0  0  0
   59.9520   31.1520   46.0990 C   0  0  0  0  0  0  0  0  0  0  0  0
   60.2158   32.2198   46.1170 H   0  0  0  0  0  0  0  0  0  0  0  0
   58.7900   30.7300   45.4400 C   0  0  0  0  0  0  0  0  0  0  0  0
   57.7690   31.9030   44.6010 S   0  0  0  0  0  0  0  0  0  0  0  0
   58.1780   31.9690   43.1550 O   0  0  0  0  0  0  0  0  0  0  0  0
   56.3380   31.4460   44.6590 O   0  0  0  0  0  0  0  0  0  0  0  0
   57.8950   33.4920   45.3200 N   0  0  0  0  0  0  0  0  0  0  0  0
   59.2580   34.0330   45.1410 C   0  0  0  0  0  0  0  0  0  0  0  0
   59.9881   33.2245   45.2935 H   0  0  0  0  0  0  0  0  0  0  0  0
   59.3403   34.4420   44.1232 H   0  0  0  0  0  0  0  0  0  0  0  0
   59.5420   35.1600   46.1430 C   0  0  0  0  0  0  0  0  0  0  0  0
   60.5556   35.5473   45.9627 H   0  0  0  0  0  0  0  0  0  0  0  0
   58.7827   35.9422   45.9959 H   0  0  0  0  0  0  0  0  0  0  0  0
   59.4510   34.6950   47.5500 N   0  0  0  0  0  0  0  0  0  0  0  0
   60.7850   34.4540   48.1220 C   0  0  0  0  0  0  0  0  0  0  0  0
   60.7207   34.4656   49.2201 H   0  0  0  0  0  0  0  0  0  0  0  0
   61.1561   33.4743   47.7868 H   0  0  0  0  0  0  0  0  0  0  0  0
   61.4755   35.2419   47.7868 H   0  0  0  0  0  0  0  0  0  0  0  0
   58.5930   33.5010   47.7290 C   0  0  0  0  0  0  0  0  0  0  0  0
   59.2016   32.5971   47.5787 H   0  0  0  0  0  0  0  0  0  0  0  0
   58.1742   33.5249   48.7459 H   0  0  0  0  0  0  0  0  0  0  0  0
   57.4280   33.4920   46.7260 C   0  0  0  0  0  0  0  0  0  0  0  0
   56.8213   32.5905   46.8970 H   0  0  0  0  0  0  0  0  0  0  0  0
   56.8407   34.4084   46.8850 H   0  0  0  0  0  0  0  0  0  0  0  0
   58.4530   29.3690   45.4320 C   0  0  0  0  0  0  0  0  0  0  0  0
   57.5324   29.0384   44.9288 H   0  0  0  0  0  0  0  0  0  0  0  0
   57.6540   26.5320   45.9500 N   0  0  0  0  0  0  0  0  0  0  0  0
   56.8300   27.1640   45.8500 H   0  0  0  0  0  0  0  0  0  0  0  0
  1  2  1  0
  2  3  2  0
  3  4  1  0
  4  5  1  0
  5  6  1  0
  5  7  2  0
  7  8  1  0
  7  9  1  0
  9 10  1  0
  9 11  2  0
 11 12  1  0
 12 13  1  0
 13 14  1  0
 14 15  1  0
 14 16  2  0
 16 17  1  0
 17 18  2  0
 18 19  1  0
 18 20  1  0
 20 21  1  0
 20 22  2  0
 22 23  1  0
 22 24  1  0
 24 25  1  0
 25 26  2  0
 25 27  2  0
 25 28  1  0
 28 29  1  0
 29 30  1  0
 29 31  1  0
 29 32  1  0
 32 33  1  0
 32 34  1  0
 32 35  1  0
 35 36  1  0
 36 37  1  0
 36 38  1  0
 36 39  1  0
 35 40  1  0
 40 41  1  0
 40 42  1  0
 40 43  1  0
 43 44  1  0
 43 45  1  0
 24 46  2  0
 46 47  1  0
 16 48  1  0
 48 49  1  0
 11  3  1  0
 48 12  2  0
 46 17  1  0
 43 28  1  0
M  CHG  2   4  -1  48   1
M  END
>  <UniqueID>  (37) 
34

>  <SMILES>  (37) 
[H]/N=c1\[n-]cccc1-c1[nH+]c(-c2cccc(S(=O)(=O)N3CCN(C)CC3)c2)cs1

>  <Energy>  (37) 
99.44696554810984

>  <Genealogy>  (37) 
CN1CCN(S(=O)(=O)c2cccc(-c3csc(-c4ccc[n-]c4=N)[nH+]3)c2)CC1 (protonated)
[H]/N=c1\[n-]cccc1-c1[nH+]c(-c2cccc(S(=O)(=O)N3CCN(C)CC3)c2)cs1 (cis-trans isomerization)
[H]/N=c1\[n-]cccc1-c1[nH+]c(-c2cccc(S(=O)(=O)N3CCN(C)CC3)c2)cs1 (3D coordinates assigned)
[H]/N=c1\[n-]cccc1-c1[nH+]c(-c2cccc(S(=O)(=O)N3CCN(C)CC3)c2)cs1 (nonaromatic ring conformer: 99.44696554810984 kcal/mol)

>  <smiles>  (37) 
CN1CCN(S(=O)(=O)c2cccc(-c3csc(-c4ccc[nH]c4=N)n3)c2)CC1

>  <score_type>  (37) 
oracle

>  <origin>  (37) 
adg

>  <m_score__min__energy>  (37) 
-10.140000000000001

>  <m_primary>  (37) 
energy

$$$$
37:0
     RDKit          3D

 57 60  0  0  0  0  0  0  0  0999 V2000
   57.3210   33.9270   44.4910 O   0  0  0  0  0  0  0  0  0  0  0  0
   57.9550   32.9750   45.0200 C   0  0  0  0  0  0  0  0  0  0  0  0
   58.6870   33.2410   46.2760 C   0  0  0  0  0  0  0  0  0  0  0  0
   58.4360   32.5090   47.3710 C   0  0  0  0  0  0  0  0  0  0  0  0
   59.0820   32.8020   48.6980 C   0  0  0  0  0  0  0  0  0  0  0  0
   60.3780   33.4980   48.5720 N   0  0  1  0  0  0  0  0  0  0  0  0
   61.6710   32.3910   48.1540 S   0  0  0  0  0  0  0  0  0  0  0  0
   62.7770   32.4830   49.1680 O   0  0  0  0  0  0  0  0  0  0  0  0
   62.2390   32.7120   46.8000 O   0  0  0  0  0  0  0  0  0  0  0  0
   61.0490   30.7420   48.1500 C   0  0  0  0  0  0  0  0  0  0  0  0
   60.7020   30.1230   49.3590 C   0  0  0  0  0  0  0  0  0  0  0  0
   60.2090   28.8140   49.3640 C   0  0  0  0  0  0  0  0  0  0  0  0
   60.0360   28.1170   48.1530 C   0  0  0  0  0  0  0  0  0  0  0  0
   59.5630   26.7970   48.1110 O   0  0  0  0  0  0  0  0  0  0  0  0
   58.7430   26.2490   47.1140 C   0  0  0  0  0  0  0  0  0  0  0  0
   57.4220   26.7010   47.0120 C   0  0  0  0  0  0  0  0  0  0  0  0
   56.5670   26.1760   46.0370 C   0  0  0  0  0  0  0  0  0  0  0  0
   57.0250   25.1820   45.1690 C   0  0  0  0  0  0  0  0  0  0  0  0
   58.3350   24.7100   45.2750 C   0  0  0  0  0  0  0  0  0  0  0  0
   59.1920   25.2330   46.2480 C   0  0  0  0  0  0  0  0  0  0  0  0
   60.3960   28.7380   46.9500 C   0  0  0  0  0  0  0  0  0  0  0  0
   60.8950   30.0440   46.9440 C   0  0  0  0  0  0  0  0  0  0  0  0
   60.2910   34.6390   47.6390 C   0  0  0  0  0  0  0  0  0  0  0  0
   59.8360   34.2130   46.2360 C   0  0  0  0  0  0  0  0  0  0  0  0
   57.9210   31.6550   44.4240 N   0  0  0  0  0  0  0  0  0  0  0  0
   57.0420   31.3790   43.2740 C   0  0  0  0  0  0  0  0  0  0  0  0
   56.1680   30.1420   43.5430 C   0  0  0  0  0  0  0  0  0  0  0  0
   56.9240   28.9850   44.2360 C   0  0  0  0  0  0  0  0  0  0  0  0
   58.4360   29.2180   44.3070 C   0  0  0  0  0  0  0  0  0  0  0  0
   58.7390   30.5610   44.9830 C   0  0  0  0  0  0  0  0  0  0  0  0
   57.7339   31.6655   47.2967 H   0  0  0  0  0  0  0  0  0  0  0  0
   58.4011   33.4345   49.2864 H   0  0  0  0  0  0  0  0  0  0  0  0
   59.2754   31.8364   49.1881 H   0  0  0  0  0  0  0  0  0  0  0  0
   60.6190   33.8860   49.5140 H   0  0  0  0  0  0  0  0  0  0  0  0
   60.8178   30.6686   50.3071 H   0  0  0  0  0  0  0  0  0  0  0  0
   59.9556   28.3274   50.3174 H   0  0  0  0  0  0  0  0  0  0  0  0
   57.0539   27.4738   47.7028 H   0  0  0  0  0  0  0  0  0  0  0  0
   55.5344   26.5459   45.9539 H   0  0  0  0  0  0  0  0  0  0  0  0
   56.3532   24.7707   44.4013 H   0  0  0  0  0  0  0  0  0  0  0  0
   58.6931   23.9256   44.5920 H   0  0  0  0  0  0  0  0  0  0  0  0
   60.2193   24.8501   46.3374 H   0  0  0  0  0  0  0  0  0  0  0  0
   60.2850   28.1929   46.0010 H   0  0  0  0  0  0  0  0  0  0  0  0
   61.1669   30.5242   45.9924 H   0  0  0  0  0  0  0  0  0  0  0  0
   59.5703   35.3678   48.0382 H   0  0  0  0  0  0  0  0  0  0  0  0
   61.2965   35.0757   47.5478 H   0  0  0  0  0  0  0  0  0  0  0  0
   59.5221   35.1083   45.6793 H   0  0  0  0  0  0  0  0  0  0  0  0
   60.6834   33.7107   45.7466 H   0  0  0  0  0  0  0  0  0  0  0  0
   56.3923   32.2492   43.0989 H   0  0  0  0  0  0  0  0  0  0  0  0
   57.6667   31.1854   42.3895 H   0  0  0  0  0  0  0  0  0  0  0  0
   55.3287   30.4433   44.1871 H   0  0  0  0  0  0  0  0  0  0  0  0
   55.8330   29.7665   42.5648 H   0  0  0  0  0  0  0  0  0  0  0  0
   56.5372   28.8768   45.2601 H   0  0  0  0  0  0  0  0  0  0  0  0
   56.7580   28.0773   43.6373 H   0  0  0  0  0  0  0  0  0  0  0  0
   58.9008   28.4072   44.8872 H   0  0  0  0  0  0  0  0  0  0  0  0
   58.8430   29.2331   43.2852 H   0  0  0  0  0  0  0  0  0  0  0  0
   58.5281   30.4732   46.0590 H   0  0  0  0  0  0  0  0  0  0  0  0
   59.7976   30.8013   44.8049 H   0  0  0  0  0  0  0  0  0  0  0  0
  1  2  2  0
  2  3  1  0
  3  4  2  0
  4  5  1  0
  5  6  1  0
  6  7  1  0
  7  8  2  0
  7  9  2  0
  7 10  1  0
 10 11  2  0
 11 12  1  0
 12 13  2  0
 13 14  1  0
 14 15  1  0
 15 16  2  0
 16 17  1  0
 17 18  2  0
 18 19  1  0
 19 20  2  0
 13 21  1  0
 21 22  2  0
  6 23  1  0
 23 24  1  0
  2 25  1  0
 25 26  1  0
 26 27  1  0
 27 28  1  0
 28 29  1  0
 29 30  1  0
 24  3  1  0
 30 25  1  0
 22 10  1  0
 20 15  1  0
  4 31  1  0
  5 32  1  0
  5 33  1  0
  6 34  1  1
 11 35  1  0
 12 36  1  0
 16 37  1  0
 17 38  1  0
 18 39  1  0
 19 40  1  0
 20 41  1  0
 21 42  1  0
 22 43  1  0
 23 44  1  0
 23 45  1  0
 24 46  1  0
 24 47  1  0
 26 48  1  0
 26 49  1  0
 27 50  1  0
 27 51  1  0
 28 52  1  0
 28 53  1  0
 29 54  1  0
 29 55  1  0
 30 56  1  0
 30 57  1  0
M  CHG  1   6   1
M  END
>  <UniqueID>  (38) 
35

>  <SMILES>  (38) 
O=C(C1=CC[N@@H+](S(=O)(=O)c2ccc(Oc3ccccc3)cc2)CC1)N1CCCCC1

>  <Energy>  (38) 
76.45628466094581

>  <Genealogy>  (38) 
O=C(C1=CC[NH+](S(=O)(=O)c2ccc(Oc3ccccc3)cc2)CC1)N1CCCCC1 (protonated)
O=C(C1=CC[N@@H+](S(=O)(=O)c2ccc(Oc3ccccc3)cc2)CC1)N1CCCCC1 (chirality)
O=C(C1=CC[N@@H+](S(=O)(=O)c2ccc(Oc3ccccc3)cc2)CC1)N1CCCCC1 (3D coordinates assigned)
O=C(C1=CC[N@@H+](S(=O)(=O)c2ccc(Oc3ccccc3)cc2)CC1)N1CCCCC1 (nonaromatic ring conformer: 76.45628466094581 kcal/mol)

>  <smiles>  (38) 
O=C(C1=CCN(S(=O)(=O)c2ccc(Oc3ccccc3)cc2)CC1)N1CCCCC1

>  <score_type>  (38) 
oracle

>  <origin>  (38) 
adg

>  <m_score__min__energy>  (38) 
-7.8499999999999996

>  <m_primary>  (38) 
energy

$$$$
38:0
     RDKit          3D

 52 54  0  0  0  0  0  0  0  0999 V2000
   53.7510   22.9830   45.8550 C   0  0  0  0  0  0  0  0  0  0  0  0
   54.9080   23.8660   45.5140 C   0  0  0  0  0  0  0  0  0  0  0  0
   55.3880   24.8110   46.3460 N   0  0  0  0  0  0  0  0  0  0  0  0
   56.4200   25.3940   45.7540 N   0  0  0  0  0  0  0  0  0  0  0  0
   57.2240   26.4270   46.4090 C   0  0  0  0  0  0  0  0  0  0  0  0
   57.0340   27.7440   45.7190 C   0  0  0  0  0  0  0  0  0  0  0  0
   55.8970   28.0340   45.2540 O   0  0  0  0  0  0  0  0  0  0  0  0
   58.1200   28.6800   45.6310 N   0  0  0  0  0  0  0  0  0  0  0  0
   58.0100   29.9750   45.0200 C   0  0  0  0  0  0  0  0  0  0  0  0
   57.4580   30.1340   43.7370 C   0  0  0  0  0  0  0  0  0  0  0  0
   57.3710   31.4040   43.1600 C   0  0  0  0  0  0  0  0  0  0  0  0
   57.8390   32.5220   43.8540 C   0  0  0  0  0  0  0  0  0  0  0  0
   58.4050   32.3760   45.1280 C   0  0  0  0  0  0  0  0  0  0  0  0
   58.9690   33.7920   46.0190 S   0  0  0  0  0  0  0  0  0  0  0  0
   57.7840   34.5220   46.5900 O   0  0  0  0  0  0  0  0  0  0  0  0
   59.6770   34.7230   45.0740 O   0  0  0  0  0  0  0  0  0  0  0  0
   60.0490   33.3420   47.3190 N   0  0  0  0  0  0  0  0  0  0  0  0
   61.2300   32.5990   46.8150 C   0  0  0  0  0  0  0  0  0  0  0  0
   62.5000   33.4630   46.7550 C   0  0  0  0  0  0  0  0  0  0  0  0
   62.8520   34.0320   48.1410 C   0  0  0  0  0  0  0  0  0  0  0  0
   61.6100   34.2770   49.0170 C   0  0  0  0  0  0  0  0  0  0  0  0
   60.3680   34.5220   48.1540 C   0  0  0  0  0  0  0  0  0  0  0  0
   58.5040   31.1000   45.6980 C   0  0  0  0  0  0  0  0  0  0  0  0
   56.6270   24.8350   44.5370 C   0  0  0  0  0  0  0  0  0  0  0  0
   57.7470   25.1810   43.5980 C   0  0  0  0  0  0  0  0  0  0  0  0
   55.6750   23.8410   44.3580 C   0  0  0  0  0  0  0  0  0  0  0  0
   55.5400   22.9410   43.2440 N   0  0  0  0  0  0  0  0  0  0  0  0
   54.7750   23.2140   42.2970 O   0  0  0  0  0  0  0  0  0  0  0  0
   56.2620   21.7720   43.1970 O   0  0  0  0  0  0  0  0  0  0  0  0
   53.6553   22.9099   46.9484 H   0  0  0  0  0  0  0  0  0  0  0  0
   52.8283   23.4086   45.4338 H   0  0  0  0  0  0  0  0  0  0  0  0
   53.9181   21.9807   45.4338 H   0  0  0  0  0  0  0  0  0  0  0  0
   56.9120   26.5187   47.4598 H   0  0  0  0  0  0  0  0  0  0  0  0
   58.2855   26.1435   46.3565 H   0  0  0  0  0  0  0  0  0  0  0  0
   58.9960   28.4680   46.1600 H   0  0  0  0  0  0  0  0  0  0  0  0
   57.0931   29.2553   43.1849 H   0  0  0  0  0  0  0  0  0  0  0  0
   56.9333   31.5232   42.1579 H   0  0  0  0  0  0  0  0  0  0  0  0
   57.7632   33.5207   43.3992 H   0  0  0  0  0  0  0  0  0  0  0  0
   61.4180   31.7447   47.4820 H   0  0  0  0  0  0  0  0  0  0  0  0
   61.0026   32.2751   45.7887 H   0  0  0  0  0  0  0  0  0  0  0  0
   63.3373   32.8458   46.3973 H   0  0  0  0  0  0  0  0  0  0  0  0
   62.3173   34.3037   46.0695 H   0  0  0  0  0  0  0  0  0  0  0  0
   63.5111   33.3184   48.6571 H   0  0  0  0  0  0  0  0  0  0  0  0
   63.3450   35.0030   47.9855 H   0  0  0  0  0  0  0  0  0  0  0  0
   61.4384   33.3954   49.6521 H   0  0  0  0  0  0  0  0  0  0  0  0
   61.7882   35.1691   49.6353 H   0  0  0  0  0  0  0  0  0  0  0  0
   59.5125   34.7373   48.8110 H   0  0  0  0  0  0  0  0  0  0  0  0
   60.5721   35.3728   47.4873 H   0  0  0  0  0  0  0  0  0  0  0  0
   58.9730   30.9789   46.6856 H   0  0  0  0  0  0  0  0  0  0  0  0
   58.6399   25.4568   44.1782 H   0  0  0  0  0  0  0  0  0  0  0  0
   57.9758   24.3117   42.9641 H   0  0  0  0  0  0  0  0  0  0  0  0
   57.4456   26.0279   42.9641 H   0  0  0  0  0  0  0  0  0  0  0  0
  1  2  1  0
  2  3  2  0
  3  4  1  0
  4  5  1  0
  5  6  1  0
  6  7  2  0
  6  8  1  0
  8  9  1  0
  9 10  2  0
 10 11  1  0
 11 12  2  0
 12 13  1  0
 13 14  1  0
 14 15  2  0
 14 16  2  0
 14 17  1  0
 17 18  1  0
 18 19  1  0
 19 20  1  0
 20 21  1  0
 21 22  1  0
 13 23  2  0
  4 24  1  0
 24 25  1  0
 24 26  2  0
 26 27  1  0
 27 28  2  0
 27 29  1  0
 26  2  1  0
 23  9  1  0
 22 17  1  0
  1 30  1  0
  1 31  1  0
  1 32  1  0
  5 33  1  0
  5 34  1  0
  8 35  1  0
 10 36  1  0
 11 37  1  0
 12 38  1  0
 18 39  1  0
 18 40  1  0
 19 41  1  0
 19 42  1  0
 20 43  1  0
 20 44  1  0
 21 45  1  0
 21 46  1  0
 22 47  1  0
 22 48  1  0
 23 49  1  0
 25 50  1  0
 25 51  1  0
 25 52  1  0
M  CHG  2  27   1  29  -1
M  END
>  <UniqueID>  (39) 
36

>  <SMILES>  (39) 
Cc1nn(CC(=O)Nc2cccc(S(=O)(=O)N3CCCCC3)c2)c(C)c1[N+](=O)[O-]

>  <Energy>  (39) 
90.1006316128746

>  <Genealogy>  (39) 
Cc1nn(CC(=O)Nc2cccc(S(=O)(=O)N3CCCCC3)c2)c(C)c1[N+](=O)[O-] (3D coordinates assigned)
Cc1nn(CC(=O)Nc2cccc(S(=O)(=O)N3CCCCC3)c2)c(C)c1[N+](=O)[O-] (nonaromatic ring conformer: 90.1006316128746 kcal/mol)

>  <smiles>  (39) 
Cc1nn(CC(=O)Nc2cccc(S(=O)(=O)N3CCCCC3)c2)c(C)c1[N+](=O)[O-]

>  <score_type>  (39) 
oracle

>  <origin>  (39) 
adg

>  <m_score__min__energy>  (39) 
-10.050000000000001

>  <m_primary>  (39) 
energy

$$$$
39:0
     RDKit          3D

 49 51  0  0  0  0  0  0  0  0999 V2000
   57.3950   28.5610   43.7670 C   0  0  0  0  0  0  0  0  0  0  0  0
   56.5100   30.0630   44.1430 S   0  0  0  0  0  0  0  0  0  0  0  0
   56.2630   30.8100   42.8630 O   0  0  0  0  0  0  0  0  0  0  0  0
   55.1840   29.7070   44.7550 O   0  0  0  0  0  0  0  0  0  0  0  0
   57.4020   31.0910   45.2390 N   0  0  0  0  0  0  0  0  0  0  0  0
   58.5780   30.3740   45.7780 C   0  0  0  0  0  0  0  0  0  0  0  0
   59.6180   31.3260   46.4150 C   0  0  0  0  0  0  0  0  0  0  0  0
   58.9680   32.6730   46.8290 C   0  0  0  0  0  0  0  0  0  0  0  0
   59.8900   33.6000   47.5600 N   0  0  1  0  0  0  0  0  0  0  0  0
   59.9470   33.2380   49.0000 C   0  0  0  0  0  0  0  0  0  0  0  0
   60.8810   34.1710   49.7780 C   0  0  0  0  0  0  0  0  0  0  0  0
   62.2450   34.0680   49.2500 N   0  0  0  0  0  0  0  0  0  0  0  0
   63.3910   34.0680   50.1720 C   0  0  0  0  0  0  0  0  0  0  0  0
   63.7610   32.6570   50.5670 C   0  0  0  0  0  0  0  0  0  0  0  0
   62.7420   31.7150   50.7990 C   0  0  0  0  0  0  0  0  0  0  0  0
   63.0580   30.4120   51.1920 C   0  0  0  0  0  0  0  0  0  0  0  0
   64.3900   30.0350   51.3630 C   0  0  0  0  0  0  0  0  0  0  0  0
   65.4120   30.9610   51.1420 C   0  0  0  0  0  0  0  0  0  0  0  0
   65.1080   32.2700   50.7480 C   0  0  0  0  0  0  0  0  0  0  0  0
   66.4400   33.3900   50.4910 Cl  0  0  0  0  0  0  0  0  0  0  0  0
   62.4120   33.8850   47.8340 C   0  0  0  0  0  0  0  0  0  0  0  0
   63.5620   33.8780   47.3150 O   0  0  0  0  0  0  0  0  0  0  0  0
   61.2240   33.6960   46.9780 C   0  0  0  0  0  0  0  0  0  0  0  0
   61.3780   33.7360   45.7270 O   0  0  0  0  0  0  0  0  0  0  0  0
   58.2920   33.3600   45.6100 C   0  0  0  0  0  0  0  0  0  0  0  0
   57.7910   32.3430   44.5700 C   0  0  0  0  0  0  0  0  0  0  0  0
   57.6880   28.0638   44.7035 H   0  0  0  0  0  0  0  0  0  0  0  0
   56.7476   27.8904   43.1828 H   0  0  0  0  0  0  0  0  0  0  0  0
   58.2953   28.8023   43.1828 H   0  0  0  0  0  0  0  0  0  0  0  0
   58.2358   29.6632   46.5446 H   0  0  0  0  0  0  0  0  0  0  0  0
   59.0683   29.8613   44.9373 H   0  0  0  0  0  0  0  0  0  0  0  0
   60.0454   30.8449   47.3071 H   0  0  0  0  0  0  0  0  0  0  0  0
   60.4021   31.5321   45.6716 H   0  0  0  0  0  0  0  0  0  0  0  0
   58.1876   32.4217   47.5623 H   0  0  0  0  0  0  0  0  0  0  0  0
   59.4770   34.5620   47.5150 H   0  0  0  0  0  0  0  0  0  0  0  0
   58.9354   33.3083   49.4264 H   0  0  0  0  0  0  0  0  0  0  0  0
   60.3368   32.2127   49.0825 H   0  0  0  0  0  0  0  0  0  0  0  0
   60.5281   35.2079   49.6761 H   0  0  0  0  0  0  0  0  0  0  0  0
   60.8811   33.8800   50.8388 H   0  0  0  0  0  0  0  0  0  0  0  0
   64.2519   34.5417   49.6775 H   0  0  0  0  0  0  0  0  0  0  0  0
   63.1149   34.6273   51.0781 H   0  0  0  0  0  0  0  0  0  0  0  0
   61.6892   32.0064   50.6701 H   0  0  0  0  0  0  0  0  0  0  0  0
   62.2543   29.6816   51.3670 H   0  0  0  0  0  0  0  0  0  0  0  0
   64.6356   29.0082   51.6720 H   0  0  0  0  0  0  0  0  0  0  0  0
   66.4614   30.6605   51.2782 H   0  0  0  0  0  0  0  0  0  0  0  0
   57.4361   33.9515   45.9671 H   0  0  0  0  0  0  0  0  0  0  0  0
   59.0450   33.9966   45.1224 H   0  0  0  0  0  0  0  0  0  0  0  0
   56.9206   32.7600   44.0423 H   0  0  0  0  0  0  0  0  0  0  0  0
   58.5971   32.1337   43.8513 H   0  0  0  0  0  0  0  0  0  0  0  0
  1  2  1  0
  2  3  2  0
  2  4  2  0
  2  5  1  0
  5  6  1  0
  6  7  1  0
  7  8  1  0
  8  9  1  0
  9 10  1  0
 10 11  1  0
 11 12  1  0
 12 13  1  0
 13 14  1  0
 14 15  2  0
 15 16  1  0
 16 17  2  0
 17 18  1  0
 18 19  2  0
 19 20  1  0
 12 21  1  0
 21 22  2  0
 21 23  1  0
 23 24  2  0
  8 25  1  0
 25 26  1  0
 26  5  1  0
 23  9  1  0
 19 14  1  0
  1 27  1  0
  1 28  1  0
  1 29  1  0
  6 30  1  0
  6 31  1  0
  7 32  1  0
  7 33  1  0
  8 34  1  0
  9 35  1  1
 10 36  1  0
 10 37  1  0
 11 38  1  0
 11 39  1  0
 13 40  1  0
 13 41  1  0
 15 42  1  0
 16 43  1  0
 17 44  1  0
 18 45  1  0
 25 46  1  0
 25 47  1  0
 26 48  1  0
 26 49  1  0
M  CHG  1   9   1
M  END
>  <UniqueID>  (40) 
37

>  <SMILES>  (40) 
CS(=O)(=O)N1CCC([N@H+]2CCN(Cc3ccccc3Cl)C(=O)C2=O)CC1

>  <Energy>  (40) 
60.50180267835102

>  <Genealogy>  (40) 
CS(=O)(=O)N1CCC([NH+]2CCN(Cc3ccccc3Cl)C(=O)C2=O)CC1 (protonated)
CS(=O)(=O)N1CCC([N@H+]2CCN(Cc3ccccc3Cl)C(=O)C2=O)CC1 (chirality)
CS(=O)(=O)N1CCC([N@H+]2CCN(Cc3ccccc3Cl)C(=O)C2=O)CC1 (3D coordinates assigned)
CS(=O)(=O)N1CCC([N@H+]2CCN(Cc3ccccc3Cl)C(=O)C2=O)CC1 (nonaromatic ring conformer: 60.50180267835102 kcal/mol)

>  <smiles>  (40) 
CS(=O)(=O)N1CCC(N2CCN(Cc3ccccc3Cl)C(=O)C2=O)CC1

>  <score_type>  (40) 
oracle

>  <origin>  (40) 
adg

>  <m_score__min__energy>  (40) 
-7.1900000000000004

>  <m_primary>  (40) 
energy

$$$$
40:0
     RDKit          3D

 36 37  0  0  0  0  0  0  0  0999 V2000
   54.7640   28.4760   44.4990 H   0  0  0  0  0  0  0  0  0  0  0  0
   55.5410   28.9990   44.8870 O   0  0  0  0  0  0  0  0  0  0  0  0
   56.7300   28.3930   45.2500 N   0  0  0  0  0  0  0  0  0  0  0  0
   57.9090   29.0420   44.9940 C   0  0  0  0  0  0  0  0  0  0  0  0
   57.8920   30.3600   44.3130 C   0  0  0  0  0  0  0  0  0  0  0  0
   58.3668   30.4273   43.3230 H   0  0  0  0  0  0  0  0  0  0  0  0
   57.3410   31.4760   44.8140 C   0  0  0  0  0  0  0  0  0  0  0  0
   56.2431   31.5332   44.8515 H   0  0  0  0  0  0  0  0  0  0  0  0
   58.1100   32.6360   45.3200 C   0  0  0  0  0  0  0  0  0  0  0  0
   58.1370   33.7870   44.5200 C   0  0  0  0  0  0  0  0  0  0  0  0
   57.5597   33.8139   43.5841 H   0  0  0  0  0  0  0  0  0  0  0  0
   58.8870   34.8950   44.8990 C   0  0  0  0  0  0  0  0  0  0  0  0
   58.8975   35.7929   44.2637 H   0  0  0  0  0  0  0  0  0  0  0  0
   59.6250   34.8720   46.0800 C   0  0  0  0  0  0  0  0  0  0  0  0
   60.2297   35.7465   46.3621 H   0  0  0  0  0  0  0  0  0  0  0  0
   59.6040   33.7420   46.9140 C   0  0  0  0  0  0  0  0  0  0  0  0
   60.4080   33.7690   48.1880 C   0  0  0  0  0  0  0  0  0  0  0  0
   59.7272   33.7461   49.0517 H   0  0  0  0  0  0  0  0  0  0  0  0
   61.0720   32.8926   48.2212 H   0  0  0  0  0  0  0  0  0  0  0  0
   61.0117   34.6879   48.2212 H   0  0  0  0  0  0  0  0  0  0  0  0
   58.8000   32.6260   46.5640 C   0  0  0  0  0  0  0  0  0  0  0  0
   58.6970   31.4460   47.5060 C   0  0  0  0  0  0  0  0  0  0  0  0
   58.7282   31.8032   48.5459 H   0  0  0  0  0  0  0  0  0  0  0  0
   57.7492   30.9167   47.3284 H   0  0  0  0  0  0  0  0  0  0  0  0
   59.5387   30.7605   47.3284 H   0  0  0  0  0  0  0  0  0  0  0  0
   59.1290   28.4350   45.3390 C   0  0  0  0  0  0  0  0  0  0  0  0
   60.0797   28.9276   45.0870 H   0  0  0  0  0  0  0  0  0  0  0  0
   59.1330   27.2060   46.0020 C   0  0  0  0  0  0  0  0  0  0  0  0
   60.4310   26.5460   46.3620 C   0  0  0  0  0  0  0  0  0  0  0  0
   60.5264   26.4975   47.4568 H   0  0  0  0  0  0  0  0  0  0  0  0
   60.4521   25.5277   45.9466 H   0  0  0  0  0  0  0  0  0  0  0  0
   61.2663   27.1289   45.9466 H   0  0  0  0  0  0  0  0  0  0  0  0
   57.9180   26.5660   46.2590 C   0  0  0  0  0  0  0  0  0  0  0  0
   57.9046   25.5876   46.7615 H   0  0  0  0  0  0  0  0  0  0  0  0
   56.7200   27.1740   45.8750 C   0  0  0  0  0  0  0  0  0  0  0  0
   55.6300   26.5860   46.1130 O   0  0  0  0  0  0  0  0  0  0  0  0
  1  2  1  0
  2  3  1  0
  3  4  1  0
  4  5  1  0
  5  6  1  0
  5  7  2  0
  7  8  1  0
  7  9  1  0
  9 10  2  0
 10 11  1  0
 10 12  1  0
 12 13  1  0
 12 14  2  0
 14 15  1  0
 14 16  1  0
 16 17  1  0
 17 18  1  0
 17 19  1  0
 17 20  1  0
 16 21  2  0
 21 22  1  0
 22 23  1  0
 22 24  1  0
 22 25  1  0
  4 26  2  0
 26 27  1  0
 26 28  1  0
 28 29  1  0
 29 30  1  0
 29 31  1  0
 29 32  1  0
 28 33  2  0
 33 34  1  0
 33 35  1  0
 35 36  2  0
 35  3  1  0
 21  9  1  0
M  END
>  <UniqueID>  (41) 
38

>  <SMILES>  (41) 
Cc1cc(/C=C\c2cccc(C)c2C)n(O)c(=O)c1

>  <Energy>  (41) 
49.90537731639038

>  <Genealogy>  (41) 
Cc1cc(/C=C\c2cccc(C)c2C)n(O)c(=O)c1 (cis-trans isomerization)
Cc1cc(/C=C\c2cccc(C)c2C)n(O)c(=O)c1 (3D coordinates assigned)
Cc1cc(/C=C\c2cccc(C)c2C)n(O)c(=O)c1 (optimized conformer: 49.90537731639038 kcal/mol)

>  <smiles>  (41) 
Cc1cc(C=Cc2cccc(C)c2C)n(O)c(=O)c1

>  <score_type>  (41) 
oracle

>  <origin>  (41) 
adg

>  <m_score__min__energy>  (41) 
-9.0500000000000007

>  <m_primary>  (41) 
energy

$$$$
41:0
     RDKit          3D

 53 55  0  0  0  0  0  0  0  0999 V2000
   55.9380   19.9800   44.1110 C   0  0  0  0  0  0  0  0  0  0  0  0
   55.9950   21.3790   43.8580 O   0  0  0  0  0  0  0  0  0  0  0  0
   56.8940   22.2600   44.4760 C   0  0  0  0  0  0  0  0  0  0  0  0
   58.2660   22.0180   44.3310 C   0  0  0  0  0  0  0  0  0  0  0  0
   59.2010   22.8600   44.9380 C   0  0  0  0  0  0  0  0  0  0  0  0
   58.7750   23.9600   45.6850 C   0  0  0  0  0  0  0  0  0  0  0  0
   57.4020   24.2340   45.8200 C   0  0  0  0  0  0  0  0  0  0  0  0
   56.9210   25.3400   46.5980 N   0  0  0  0  0  0  0  0  0  0  0  0
   56.3870   26.5720   46.0910 C   0  0  0  0  0  0  0  0  0  0  0  0
   55.1400   26.7170   45.9970 O   0  0  0  0  0  0  0  0  0  0  0  0
   57.3140   27.6750   45.7170 C   0  0  0  0  0  0  0  0  0  0  0  0
   56.9880   28.4860   44.6120 C   0  0  0  0  0  0  0  0  0  0  0  0
   57.8240   29.5300   44.2220 C   0  0  0  0  0  0  0  0  0  0  0  0
   58.9960   29.7670   44.9340 C   0  0  0  0  0  0  0  0  0  0  0  0
   59.3140   28.9840   45.9950 N   0  0  0  0  0  0  0  0  0  0  0  0
   58.5190   27.9610   46.4130 C   0  0  0  0  0  0  0  0  0  0  0  0
   59.0940   27.0010   47.8240 S   0  0  0  0  0  0  0  0  0  0  0  0
   60.1610   28.3240   48.4870 C   0  0  0  0  0  0  0  0  0  0  0  0
   59.3450   29.5230   48.8550 C   0  0  0  0  0  0  0  0  0  0  0  0
   58.5990   29.4800   49.8700 O   0  0  0  0  0  0  0  0  0  0  0  0
   59.3900   30.7010   48.0360 N   0  0  0  0  0  0  0  0  0  0  0  0
   58.5980   31.8930   48.3300 C   0  0  0  0  0  0  0  0  0  0  0  0
   58.5950   32.8250   47.1420 C   0  0  0  0  0  0  0  0  0  0  0  0
   57.3730   33.3630   46.7060 C   0  0  0  0  0  0  0  0  0  0  0  0
   57.3270   34.2120   45.5990 C   0  0  0  0  0  0  0  0  0  0  0  0
   58.4990   34.5290   44.9130 C   0  0  0  0  0  0  0  0  0  0  0  0
   59.7210   34.0000   45.3320 C   0  0  0  0  0  0  0  0  0  0  0  0
   59.7850   33.1420   46.4490 C   0  0  0  0  0  0  0  0  0  0  0  0
   61.0010   32.5940   46.8890 O   0  0  0  0  0  0  0  0  0  0  0  0
   62.1910   33.3410   47.1170 C   0  0  0  0  0  0  0  0  0  0  0  0
   56.4690   23.3710   45.2310 C   0  0  0  0  0  0  0  0  0  0  0  0
   55.9308   19.8037   45.1968 H   0  0  0  0  0  0  0  0  0  0  0  0
   55.0222   19.5639   43.6659 H   0  0  0  0  0  0  0  0  0  0  0  0
   56.8170   19.4908   43.6659 H   0  0  0  0  0  0  0  0  0  0  0  0
   58.6095   21.1594   43.7353 H   0  0  0  0  0  0  0  0  0  0  0  0
   60.2762   22.6557   44.8271 H   0  0  0  0  0  0  0  0  0  0  0  0
   59.5151   24.6141   46.1692 H   0  0  0  0  0  0  0  0  0  0  0  0
   56.0622   28.2925   44.0504 H   0  0  0  0  0  0  0  0  0  0  0  0
   57.5604   30.1605   43.3601 H   0  0  0  0  0  0  0  0  0  0  0  0
   59.6640   30.5887   44.6366 H   0  0  0  0  0  0  0  0  0  0  0  0
   60.6830   27.9534   49.3815 H   0  0  0  0  0  0  0  0  0  0  0  0
   60.8888   28.6135   47.7147 H   0  0  0  0  0  0  0  0  0  0  0  0
   59.9940   30.7020   47.1840 H   0  0  0  0  0  0  0  0  0  0  0  0
   57.5645   31.5946   48.5600 H   0  0  0  0  0  0  0  0  0  0  0  0
   59.0402   32.4133   49.1924 H   0  0  0  0  0  0  0  0  0  0  0  0
   56.4449   33.1133   47.2411 H   0  0  0  0  0  0  0  0  0  0  0  0
   56.3656   34.6313   45.2675 H   0  0  0  0  0  0  0  0  0  0  0  0
   58.4605   35.1972   44.0400 H   0  0  0  0  0  0  0  0  0  0  0  0
   60.6415   34.2546   44.7863 H   0  0  0  0  0  0  0  0  0  0  0  0
   62.3568   33.4451   48.1994 H   0  0  0  0  0  0  0  0  0  0  0  0
   63.0454   32.8169   46.6639 H   0  0  0  0  0  0  0  0  0  0  0  0
   62.0904   34.3383   46.6639 H   0  0  0  0  0  0  0  0  0  0  0  0
   55.3935   23.5627   45.3593 H   0  0  0  0  0  0  0  0  0  0  0  0
  1  2  1  0
  2  3  1  0
  3  4  2  0
  4  5  1  0
  5  6  2  0
  6  7  1  0
  7  8  1  0
  8  9  1  0
  9 10  2  0
  9 11  1  0
 11 12  2  0
 12 13  1  0
 13 14  2  0
 14 15  1  0
 15 16  2  0
 16 17  1  0
 17 18  1  0
 18 19  1  0
 19 20  2  0
 19 21  1  0
 21 22  1  0
 22 23  1  0
 23 24  2  0
 24 25  1  0
 25 26  2  0
 26 27  1  0
 27 28  2  0
 28 29  1  0
 29 30  1  0
  7 31  2  0
 31  3  1  0
 16 11  1  0
 28 23  1  0
  1 32  1  0
  1 33  1  0
  1 34  1  0
  4 35  1  0
  5 36  1  0
  6 37  1  0
 12 38  1  0
 13 39  1  0
 14 40  1  0
 18 41  1  0
 18 42  1  0
 21 43  1  0
 22 44  1  0
 22 45  1  0
 24 46  1  0
 25 47  1  0
 26 48  1  0
 27 49  1  0
 30 50  1  0
 30 51  1  0
 30 52  1  0
 31 53  1  0
M  CHG  1   8  -1
M  END
>  <UniqueID>  (42) 
39

>  <SMILES>  (42) 
COc1cccc([N-]C(=O)c2cccnc2SCC(=O)NCc2ccccc2OC)c1

>  <Energy>  (42) 
55.80270858865625

>  <Genealogy>  (42) 
COc1cccc([N-]C(=O)c2cccnc2SCC(=O)NCc2ccccc2OC)c1 (protonated)
COc1cccc([N-]C(=O)c2cccnc2SCC(=O)NCc2ccccc2OC)c1 (3D coordinates assigned)
COc1cccc([N-]C(=O)c2cccnc2SCC(=O)NCc2ccccc2OC)c1 (optimized conformer: 55.80270858865625 kcal/mol)

>  <smiles>  (42) 
COc1cccc(NC(=O)c2cccnc2SCC(=O)NCc2ccccc2OC)c1

>  <score_type>  (42) 
oracle

>  <origin>  (42) 
adg

>  <m_score__min__energy>  (42) 
-9.8000000000000007

>  <m_primary>  (42) 
energy

$$$$
42:0
     RDKit          3D

 40 42  0  0  0  0  0  0  0  0999 V2000
   56.6220   26.6030   44.8210 H   0  0  0  0  0  0  0  0  0  0  0  0
   57.3900   27.0690   44.3540 O   0  0  0  0  0  0  0  0  0  0  0  0
   57.7510   28.3710   44.6910 C   0  0  0  0  0  0  0  0  0  0  0  0
   56.8540   29.3750   44.5260 N   0  0  0  0  0  0  0  0  0  0  0  0
   57.1550   30.6580   44.8460 C   0  0  0  0  0  0  0  0  0  0  0  0
   56.2860   31.5530   44.6590 O   0  0  0  0  0  0  0  0  0  0  0  0
   58.3870   30.9720   45.3560 N   0  0  0  0  0  0  0  0  0  0  0  0
   58.6980   32.3380   45.7040 C   0  0  0  0  0  0  0  0  0  0  0  0
   58.9890   32.6830   47.0350 C   0  0  0  0  0  0  0  0  0  0  0  0
   58.9750   31.9098   47.8173 H   0  0  0  0  0  0  0  0  0  0  0  0
   59.2960   34.0050   47.3680 C   0  0  0  0  0  0  0  0  0  0  0  0
   59.5240   34.2693   48.4111 H   0  0  0  0  0  0  0  0  0  0  0  0
   59.3140   34.9920   46.3790 C   0  0  0  0  0  0  0  0  0  0  0  0
   59.6160   36.2730   46.7050 F   0  0  0  0  0  0  0  0  0  0  0  0
   59.0230   34.6560   45.0540 C   0  0  0  0  0  0  0  0  0  0  0  0
   59.0354   35.4329   44.2753 H   0  0  0  0  0  0  0  0  0  0  0  0
   58.7160   33.3340   44.7160 C   0  0  0  0  0  0  0  0  0  0  0  0
   58.4878   33.0742   43.6718 H   0  0  0  0  0  0  0  0  0  0  0  0
   59.3220   29.9850   45.5400 C   0  0  0  0  0  0  0  0  0  0  0  0
   60.4530   30.2660   46.0310 O   0  0  0  0  0  0  0  0  0  0  0  0
   59.0270   28.6520   45.1990 C   0  0  0  0  0  0  0  0  0  0  0  0
   60.0330   27.5440   45.4350 C   0  0  0  0  0  0  0  0  0  0  0  0
   60.9844   27.9906   45.7595 H   0  0  0  0  0  0  0  0  0  0  0  0
   60.1564   26.9891   44.4933 H   0  0  0  0  0  0  0  0  0  0  0  0
   59.5560   26.5580   46.5090 C   0  0  0  0  0  0  0  0  0  0  0  0
   60.3915   26.3407   47.1907 H   0  0  0  0  0  0  0  0  0  0  0  0
   59.2108   25.6422   46.0068 H   0  0  0  0  0  0  0  0  0  0  0  0
   58.4140   27.1170   47.3020 C   0  0  0  0  0  0  0  0  0  0  0  0
   58.6390   27.9990   48.1750 O   0  0  0  0  0  0  0  0  0  0  0  0
   57.0800   26.6610   47.0260 N   0  0  0  0  0  0  0  0  0  0  0  0
   56.7200   25.4550   46.6910 C   0  0  0  0  0  0  0  0  0  0  0  0
   57.5000   24.3760   46.9870 N   0  0  0  0  0  0  0  0  0  0  0  0
   57.1350   23.1080   46.6560 C   0  0  0  0  0  0  0  0  0  0  0  0
   57.7912   22.2626   46.9102 H   0  0  0  0  0  0  0  0  0  0  0  0
   55.9280   22.8800   45.9940 C   0  0  0  0  0  0  0  0  0  0  0  0
   55.6261   21.8571   45.7249 H   0  0  0  0  0  0  0  0  0  0  0  0
   55.1080   23.9640   45.6770 C   0  0  0  0  0  0  0  0  0  0  0  0
   54.1548   23.7992   45.1533 H   0  0  0  0  0  0  0  0  0  0  0  0
   55.5000   25.2590   46.0260 C   0  0  0  0  0  0  0  0  0  0  0  0
   54.6780   26.3370   45.7140 O   0  0  0  0  0  0  0  0  0  0  0  0
  1  2  1  0
  2  3  1  0
  3  4  1  0
  4  5  1  0
  5  6  2  0
  5  7  1  0
  7  8  1  0
  8  9  2  0
  9 10  1  0
  9 11  1  0
 11 12  1  0
 11 13  2  0
 13 14  1  0
 13 15  1  0
 15 16  1  0
 15 17  2  0
 17 18  1  0
  7 19  1  0
 19 20  2  0
 19 21  1  0
 21 22  1  0
 22 23  1  0
 22 24  1  0
 22 25  1  0
 25 26  1  0
 25 27  1  0
 25 28  1  0
 28 29  2  0
 28 30  1  0
 30 31  2  0
 31 32  1  0
 32 33  1  0
 33 34  1  0
 33 35  2  0
 35 36  1  0
 35 37  1  0
 37 38  1  0
 37 39  2  0
 39 40  1  0
 21  3  2  0
 39 31  1  0
 17  8  1  0
M  CHG  3   4  -1  32  -1  40  -1
M  END
>  <UniqueID>  (43) 
40

>  <SMILES>  (43) 
O=C(CCc1c(O)[n-]c(=O)n(-c2ccc(F)cc2)c1=O)/N=c1\[n-]cccc1[O-]

>  <Energy>  (43) 
54.333256429713394

>  <Genealogy>  (43) 
O=C(CCc1c(O)[n-]c(=O)n(-c2ccc(F)cc2)c1=O)N=c1[n-]cccc1[O-] (protonated)
O=C(CCc1c(O)[n-]c(=O)n(-c2ccc(F)cc2)c1=O)/N=c1\[n-]cccc1[O-] (cis-trans isomerization)
O=C(CCc1c(O)[n-]c(=O)n(-c2ccc(F)cc2)c1=O)/N=c1\[n-]cccc1[O-] (3D coordinates assigned)
O=C(CCc1c(O)[n-]c(=O)n(-c2ccc(F)cc2)c1=O)/N=c1\[n-]cccc1[O-] (optimized conformer: 54.333256429713394 kcal/mol)

>  <smiles>  (43) 
O=C(CCc1c(O)[nH]c(=O)n(-c2ccc(F)cc2)c1=O)N=c1[nH]cccc1O

>  <score_type>  (43) 
oracle

>  <origin>  (43) 
adg

>  <m_score__min__energy>  (43) 
-14.289999999999999

>  <m_primary>  (43) 
energy

$$$$
43:0
     RDKit          3D

 39 41  0  0  0  0  0  0  0  0999 V2000
   56.6660   21.0650   42.9970 O   0  0  0  0  0  0  0  0  0  0  0  0
   56.4670   22.0860   43.6380 C   0  0  0  0  0  0  0  0  0  0  0  0
   56.2110   21.9960   45.1200 C   0  0  0  0  0  0  0  0  0  0  0  0
   55.4490   23.1940   45.6200 C   0  0  0  0  0  0  0  0  0  0  0  0
   55.6100   24.4140   45.0760 C   0  0  0  0  0  0  0  0  0  0  0  0
   54.8930   25.5920   45.6250 C   0  0  0  0  0  0  0  0  0  0  0  0
   53.6330   25.6260   45.5910 O   0  0  0  0  0  0  0  0  0  0  0  0
   55.6230   26.6650   46.2390 N   0  0  0  0  0  0  0  0  0  0  0  0
   56.9320   27.1270   45.8660 C   0  0  0  0  0  0  0  0  0  0  0  0
   58.0900   26.4010   46.2050 C   0  0  0  0  0  0  0  0  0  0  0  0
   59.3520   26.8670   45.8280 C   0  0  0  0  0  0  0  0  0  0  0  0
   59.4740   28.0630   45.1150 C   0  0  0  0  0  0  0  0  0  0  0  0
   61.0590   28.6440   44.6390 Cl  0  0  0  0  0  0  0  0  0  0  0  0
   58.3330   28.8040   44.7960 C   0  0  0  0  0  0  0  0  0  0  0  0
   57.0650   28.3510   45.1850 C   0  0  0  0  0  0  0  0  0  0  0  0
   55.6210   29.3420   44.7770 S   0  0  0  0  0  0  0  0  0  0  0  0
   56.6070   30.6620   44.0670 C   0  0  0  0  0  0  0  0  0  0  0  0
   56.8420   30.6960   42.6860 C   0  0  0  0  0  0  0  0  0  0  0  0
   57.6140   31.7220   42.1320 C   0  0  0  0  0  0  0  0  0  0  0  0
   58.1490   32.7180   42.9550 C   0  0  0  0  0  0  0  0  0  0  0  0
   57.9110   32.6890   44.3330 C   0  0  0  0  0  0  0  0  0  0  0  0
   57.1390   31.6640   44.8890 C   0  0  0  0  0  0  0  0  0  0  0  0
   56.5880   24.5820   43.9330 C   0  0  0  0  0  0  0  0  0  0  0  0
   56.4920   23.4190   42.9350 C   0  0  0  0  0  0  0  0  0  0  0  0
   55.6261   21.0878   45.3276 H   0  0  0  0  0  0  0  0  0  0  0  0
   57.1812   21.9625   45.6373 H   0  0  0  0  0  0  0  0  0  0  0  0
   54.7413   23.0686   46.4527 H   0  0  0  0  0  0  0  0  0  0  0  0
   58.0004   25.4614   46.7700 H   0  0  0  0  0  0  0  0  0  0  0  0
   60.2513   26.2916   46.0928 H   0  0  0  0  0  0  0  0  0  0  0  0
   58.4304   29.7466   44.2374 H   0  0  0  0  0  0  0  0  0  0  0  0
   56.4189   29.9150   42.0372 H   0  0  0  0  0  0  0  0  0  0  0  0
   57.8005   31.7456   41.0482 H   0  0  0  0  0  0  0  0  0  0  0  0
   58.7570   33.5242   42.5187 H   0  0  0  0  0  0  0  0  0  0  0  0
   58.3314   33.4731   44.9799 H   0  0  0  0  0  0  0  0  0  0  0  0
   56.9494   31.6445   45.9724 H   0  0  0  0  0  0  0  0  0  0  0  0
   56.3661   25.5228   43.4080 H   0  0  0  0  0  0  0  0  0  0  0  0
   57.6061   24.5967   44.3491 H   0  0  0  0  0  0  0  0  0  0  0  0
   55.5697   23.5293   42.3458 H   0  0  0  0  0  0  0  0  0  0  0  0
   57.3790   23.4489   42.2851 H   0  0  0  0  0  0  0  0  0  0  0  0
  1  2  2  0
  2  3  1  0
  3  4  1  0
  4  5  2  0
  5  6  1  0
  6  7  2  0
  6  8  1  0
  8  9  1  0
  9 10  2  0
 10 11  1  0
 11 12  2  0
 12 13  1  0
 12 14  1  0
 14 15  2  0
 15 16  1  0
 16 17  1  0
 17 18  2  0
 18 19  1  0
 19 20  2  0
 20 21  1  0
 21 22  2  0
  5 23  1  0
 23 24  1  0
 24  2  1  0
 15  9  1  0
 22 17  1  0
  3 25  1  0
  3 26  1  0
  4 27  1  0
 10 28  1  0
 11 29  1  0
 14 30  1  0
 18 31  1  0
 19 32  1  0
 20 33  1  0
 21 34  1  0
 22 35  1  0
 23 36  1  0
 23 37  1  0
 24 38  1  0
 24 39  1  0
M  CHG  1   8  -1
M  END
>  <UniqueID>  (44) 
41

>  <SMILES>  (44) 
O=C1CC=C(C(=O)[N-]c2ccc(Cl)cc2Sc2ccccc2)CC1

>  <Energy>  (44) 
39.575303613797416

>  <Genealogy>  (44) 
O=C1CC=C(C(=O)[N-]c2ccc(Cl)cc2Sc2ccccc2)CC1 (protonated)
O=C1CC=C(C(=O)[N-]c2ccc(Cl)cc2Sc2ccccc2)CC1 (3D coordinates assigned)
O=C1CC=C(C(=O)[N-]c2ccc(Cl)cc2Sc2ccccc2)CC1 (nonaromatic ring conformer: 39.575303613797416 kcal/mol)

>  <smiles>  (44) 
O=C1CC=C(C(=O)Nc2ccc(Cl)cc2Sc2ccccc2)CC1

>  <score_type>  (44) 
oracle

>  <origin>  (44) 
adg

>  <m_score__min__energy>  (44) 
-10.970000000000001

>  <m_primary>  (44) 
energy

$$$$
44:0
     RDKit          3D

 39 41  0  0  0  0  0  0  0  0999 V2000
   58.5790   34.7340   44.8740 C   0  0  0  0  0  0  0  0  0  0  0  0
   57.4400   33.9390   45.4750 C   0  0  0  0  0  0  0  0  0  0  0  0
   57.9280   32.7440   46.1830 N   0  0  0  0  0  0  0  0  0  0  0  0
   58.4660   32.9260   47.4750 C   0  0  0  0  0  0  0  0  0  0  0  0
   58.4110   32.0770   48.4030 O   0  0  0  0  0  0  0  0  0  0  0  0
   59.1680   34.1980   47.8270 C   0  0  0  0  0  0  0  0  0  0  0  0
   60.6430   34.0050   47.8200 C   0  0  0  0  0  0  0  0  0  0  0  0
   61.3360   33.6500   46.6740 C   0  0  0  0  0  0  0  0  0  0  0  0
   62.7200   33.4890   46.7530 C   0  0  0  0  0  0  0  0  0  0  0  0
   63.3980   33.6770   47.9490 C   0  0  0  0  0  0  0  0  0  0  0  0
   62.7050   34.0310   49.0870 C   0  0  0  0  0  0  0  0  0  0  0  0
   63.3340   34.2340   50.3200 O   0  0  0  0  0  0  0  0  0  0  0  0
   61.3390   34.1880   49.0010 C   0  0  0  0  0  0  0  0  0  0  0  0
   57.8130   31.5160   45.4940 C   0  0  0  0  0  0  0  0  0  0  0  0
   56.6390   31.1970   44.8690 N   0  0  0  0  0  0  0  0  0  0  0  0
   56.4240   30.0790   44.1980 C   0  0  0  0  0  0  0  0  0  0  0  0
   55.2940   29.8320   43.6290 N   0  0  0  0  0  0  0  0  0  0  0  0
   57.4190   29.1450   44.0970 C   0  0  0  0  0  0  0  0  0  0  0  0
   57.5550   27.9460   43.5200 N   0  0  0  0  0  0  0  0  0  0  0  0
   58.7940   27.4540   43.7450 C   0  0  0  0  0  0  0  0  0  0  0  0
   59.4220   28.3870   44.4800 N   0  0  0  0  0  0  0  0  0  0  0  0
   58.6170   29.4250   44.7100 C   0  0  0  0  0  0  0  0  0  0  0  0
   58.7830   30.5980   45.3900 N   0  0  0  0  0  0  0  0  0  0  0  0
   59.1926   35.1623   45.6802 H   0  0  0  0  0  0  0  0  0  0  0  0
   59.2001   34.0723   44.2525 H   0  0  0  0  0  0  0  0  0  0  0  0
   58.1720   35.5452   44.2525 H   0  0  0  0  0  0  0  0  0  0  0  0
   56.8950   34.5775   46.1859 H   0  0  0  0  0  0  0  0  0  0  0  0
   56.7812   33.6099   44.6579 H   0  0  0  0  0  0  0  0  0  0  0  0
   58.9018   34.9723   47.0924 H   0  0  0  0  0  0  0  0  0  0  0  0
   58.8568   34.5056   48.8362 H   0  0  0  0  0  0  0  0  0  0  0  0
   60.8064   33.4982   45.7219 H   0  0  0  0  0  0  0  0  0  0  0  0
   63.2835   33.2080   45.8510 H   0  0  0  0  0  0  0  0  0  0  0  0
   64.4891   33.5435   47.9891 H   0  0  0  0  0  0  0  0  0  0  0  0
   63.9150   33.5160   50.7470 H   0  0  0  0  0  0  0  0  0  0  0  0
   60.7807   34.4696   49.9060 H   0  0  0  0  0  0  0  0  0  0  0  0
   55.1800   29.5350   42.6400 H   0  0  0  0  0  0  0  0  0  0  0  0
   56.8020   27.4770   42.9810 H   0  0  0  0  0  0  0  0  0  0  0  0
   59.2019   26.4927   43.3993 H   0  0  0  0  0  0  0  0  0  0  0  0
   59.7010   30.7330   45.8190 H   0  0  0  0  0  0  0  0  0  0  0  0
  1  2  1  0
  2  3  1  0
  3  4  1  0
  4  5  2  0
  4  6  1  0
  6  7  1  0
  7  8  2  0
  8  9  1  0
  9 10  2  0
 10 11  1  0
 11 12  1  0
 11 13  2  0
  3 14  1  0
 14 15  2  0
 15 16  1  0
 16 17  2  3
 16 18  1  0
 18 19  1  0
 19 20  1  0
 20 21  2  0
 21 22  1  0
 22 23  1  0
 13  7  1  0
 23 14  1  0
 22 18  2  0
  1 24  1  0
  1 25  1  0
  1 26  1  0
  2 27  1  0
  2 28  1  0
  6 29  1  0
  6 30  1  0
  8 31  1  0
  9 32  1  0
 10 33  1  0
 12 34  1  0
 13 35  1  0
 17 36  1  0
 19 37  1  0
 20 38  1  0
 23 39  1  0
M  END
>  <smiles>  (45) 
CCN(C(=O)Cc1cccc(O)c1)c1nc(=N)c2[nH]cnc2[nH]1

>  <score_type>  (45) 
oracle

>  <origin>  (45) 
adg

>  <m_score__min__energy>  (45) 
-7.6799999999999997

>  <m_primary>  (45) 
energy

$$$$
45:0
     RDKit          3D

 50 53  0  0  0  0  0  0  0  0999 V2000
   54.3500   28.2000   52.9870 C   0  0  0  0  0  0  0  0  0  0  0  0
   54.7660   29.4720   52.8790 C   0  0  0  0  0  0  0  0  0  0  0  0
   54.0930   30.5220   52.2330 C   0  0  0  0  0  0  0  0  0  0  0  0
   52.8340   30.6090   51.7600 C   0  0  0  0  0  0  0  0  0  0  0  0
   51.7720   31.4750   52.2990 C   0  0  0  0  0  0  0  0  0  0  0  0
   51.5260   31.6610   53.6090 N   0  0  0  0  0  0  0  0  0  0  0  0
   50.5810   32.6260   53.6140 C   0  0  0  0  0  0  0  0  0  0  0  0
   50.0720   33.0710   54.6740 O   0  0  0  0  0  0  0  0  0  0  0  0
   50.2330   33.0850   52.3920 N   0  0  0  0  0  0  0  0  0  0  0  0
   51.0090   32.3560   51.5730 C   0  0  0  0  0  0  0  0  0  0  0  0
   51.0210   32.4970   50.1910 O   0  0  0  0  0  0  0  0  0  0  0  0
   54.9900   31.5710   52.1630 C   0  0  0  0  0  0  0  0  0  0  0  0
   56.1280   31.1700   52.8280 C   0  0  0  0  0  0  0  0  0  0  0  0
   57.3090   32.0310   53.0170 C   0  0  0  0  0  0  0  0  0  0  0  0
   57.7770   32.1720   54.1790 O   0  0  0  0  0  0  0  0  0  0  0  0
   57.9650   32.6580   51.8980 N   0  0  0  0  0  0  0  0  0  0  0  0
   57.9810   31.9850   50.5900 C   0  0  0  0  0  0  0  0  0  0  0  0
   58.8670   32.7290   49.5830 C   0  0  0  0  0  0  0  0  0  0  0  0
   60.2260   33.0670   50.2080 C   0  0  0  0  0  0  0  0  0  0  0  0
   60.1090   33.8280   51.5490 C   0  0  0  0  0  0  0  0  0  0  0  0
   58.6690   33.9360   52.0710 C   0  0  0  0  0  0  0  0  0  0  0  0
   56.0030   29.8920   53.2620 N   0  0  0  0  0  0  0  0  0  0  0  0
   57.0800   29.0630   53.8360 C   0  0  0  0  0  0  0  0  0  0  0  0
   58.3870   29.3150   53.1270 C   0  0  0  0  0  0  0  0  0  0  0  0
   59.5240   29.7020   53.8560 C   0  0  0  0  0  0  0  0  0  0  0  0
   60.7380   29.9310   53.2020 C   0  0  0  0  0  0  0  0  0  0  0  0
   60.8290   29.7700   51.8170 C   0  0  0  0  0  0  0  0  0  0  0  0
   59.7060   29.3730   51.0840 C   0  0  0  0  0  0  0  0  0  0  0  0
   59.8230   29.1660   49.3460 Cl  0  0  0  0  0  0  0  0  0  0  0  0
   58.4900   29.1410   51.7360 C   0  0  0  0  0  0  0  0  0  0  0  0
   54.9680   27.4626   53.5203 H   0  0  0  0  0  0  0  0  0  0  0  0
   53.3912   27.8953   52.5422 H   0  0  0  0  0  0  0  0  0  0  0  0
   52.5774   29.9782   50.8961 H   0  0  0  0  0  0  0  0  0  0  0  0
   54.8266   32.5409   51.6704 H   0  0  0  0  0  0  0  0  0  0  0  0
   58.3676   30.9633   50.7190 H   0  0  0  0  0  0  0  0  0  0  0  0
   56.9532   31.9697   50.1984 H   0  0  0  0  0  0  0  0  0  0  0  0
   59.0234   32.0926   48.6995 H   0  0  0  0  0  0  0  0  0  0  0  0
   58.3667   33.6649   49.2934 H   0  0  0  0  0  0  0  0  0  0  0  0
   60.7720   32.1287   50.3853 H   0  0  0  0  0  0  0  0  0  0  0  0
   60.7541   33.7265   49.5036 H   0  0  0  0  0  0  0  0  0  0  0  0
   60.7132   33.3007   52.3019 H   0  0  0  0  0  0  0  0  0  0  0  0
   60.4650   34.8533   51.3701 H   0  0  0  0  0  0  0  0  0  0  0  0
   58.6892   34.1971   53.1394 H   0  0  0  0  0  0  0  0  0  0  0  0
   58.1403   34.7148   51.5019 H   0  0  0  0  0  0  0  0  0  0  0  0
   57.1949   29.3090   54.9020 H   0  0  0  0  0  0  0  0  0  0  0  0
   56.8117   28.0032   53.7138 H   0  0  0  0  0  0  0  0  0  0  0  0
   59.4585   29.8254   54.9471 H   0  0  0  0  0  0  0  0  0  0  0  0
   61.6230   30.2384   53.7785 H   0  0  0  0  0  0  0  0  0  0  0  0
   61.7838   29.9555   51.3032 H   0  0  0  0  0  0  0  0  0  0  0  0
   57.6108   28.8211   51.1575 H   0  0  0  0  0  0  0  0  0  0  0  0
  1  2  2  0
  2  3  1  0
  3  4  2  3
  4  5  1  0
  5  6  1  0
  6  7  1  0
  7  8  2  0
  7  9  1  0
  9 10  1  0
 10 11  1  0
  3 12  1  0
 12 13  2  0
 13 14  1  0
 14 15  2  0
 14 16  1  0
 16 17  1  0
 17 18  1  0
 18 19  1  0
 19 20  1  0
 20 21  1  0
 13 22  1  0
 22 23  1  0
 23 24  1  0
 24 25  2  0
 25 26  1  0
 26 27  2  0
 27 28  1  0
 28 29  1  0
 28 30  2  0
 22  2  1  0
 30 24  1  0
 10  5  2  0
 21 16  1  0
  1 31  1  0
  1 32  1  0
  4 33  1  0
 12 34  1  0
 17 35  1  0
 17 36  1  0
 18 37  1  0
 18 38  1  0
 19 39  1  0
 19 40  1  0
 20 41  1  0
 20 42  1  0
 21 43  1  0
 21 44  1  0
 23 45  1  0
 23 46  1  0
 25 47  1  0
 26 48  1  0
 27 49  1  0
 30 50  1  0
M  CHG  3   6  -1   9  -1  11  -1
M  END
>  <UniqueID>  (46) 
42

>  <SMILES>  (46) 
C=c1c(=Cc2[n-]c(=O)[n-]c2[O-])cc(C(=O)N2CCCCC2)n1Cc1cccc(Cl)c1

>  <Energy>  (46) 
128.22221281309197

>  <Genealogy>  (46) 
C=c1c(=Cc2[n-]c(=O)[n-]c2[O-])cc(C(=O)N2CCCCC2)n1Cc1cccc(Cl)c1 (protonated)
C=c1c(=Cc2[n-]c(=O)[n-]c2[O-])cc(C(=O)N2CCCCC2)n1Cc1cccc(Cl)c1 (3D coordinates assigned)
C=c1c(=Cc2[n-]c(=O)[n-]c2[O-])cc(C(=O)N2CCCCC2)n1Cc1cccc(Cl)c1 (nonaromatic ring conformer: 128.22221281309197 kcal/mol)

>  <smiles>  (46) 
C=c1c(=Cc2[nH]c(=O)[nH]c2O)cc(C(=O)N2CCCCC2)n1Cc1cccc(Cl)c1

>  <score_type>  (46) 
oracle

>  <origin>  (46) 
adg

>  <m_score__min__energy>  (46) 
-16.73

>  <m_primary>  (46) 
energy

$$$$
46:0
     RDKit          3D

 35 36  0  0  0  0  0  0  0  0999 V2000
   57.0620   32.1340   44.8740 C   0  0  0  0  0  0  0  0  0  0  0  0
   56.4690   30.8400   44.8370 O   0  0  0  0  0  0  0  0  0  0  0  0
   57.1750   29.6440   44.6320 C   0  0  0  0  0  0  0  0  0  0  0  0
   57.9950   29.0810   45.6330 C   0  0  0  0  0  0  0  0  0  0  0  0
   58.6860   27.8740   45.4020 C   0  0  0  0  0  0  0  0  0  0  0  0
   59.5620   27.2490   46.4230 C   0  0  0  0  0  0  0  0  0  0  0  0
   59.4280   25.9830   46.8420 C   0  0  0  0  0  0  0  0  0  0  0  0
   58.1260   25.2820   46.8250 C   0  0  0  0  0  0  0  0  0  0  0  0
   57.5290   25.0260   47.9050 O   0  0  0  0  0  0  0  0  0  0  0  0
   57.4840   24.9430   45.5900 N   0  0  0  0  0  0  0  0  0  0  0  0
   56.1450   24.4380   45.4480 C   0  0  0  0  0  0  0  0  0  0  0  0
   55.9340   23.1240   45.0000 C   0  0  0  0  0  0  0  0  0  0  0  0
   57.0850   22.2120   44.7040 C   0  0  0  0  0  0  0  0  0  0  0  0
   54.6640   22.6580   44.8560 N   0  0  0  0  0  0  0  0  0  0  0  0
   53.5900   23.4460   45.1180 C   0  0  0  0  0  0  0  0  0  0  0  0
   52.4270   22.9880   44.9810 O   0  0  0  0  0  0  0  0  0  0  0  0
   53.7710   24.7300   45.5180 N   0  0  0  0  0  0  0  0  0  0  0  0
   55.0170   25.2470   45.6780 C   0  0  0  0  0  0  0  0  0  0  0  0
   55.1440   26.4550   46.0090 O   0  0  0  0  0  0  0  0  0  0  0  0
   58.5710   27.2550   44.1480 C   0  0  0  0  0  0  0  0  0  0  0  0
   57.7620   27.8090   43.1550 C   0  0  0  0  0  0  0  0  0  0  0  0
   57.0630   28.9940   43.3910 C   0  0  0  0  0  0  0  0  0  0  0  0
   56.2610   29.5160   42.3740 O   0  0  0  0  0  0  0  0  0  0  0  0
   57.2035   32.4427   45.9203 H   0  0  0  0  0  0  0  0  0  0  0  0
   58.0368   32.1053   44.3652 H   0  0  0  0  0  0  0  0  0  0  0  0
   56.4038   32.8536   44.3652 H   0  0  0  0  0  0  0  0  0  0  0  0
   58.0961   29.5890   46.6034 H   0  0  0  0  0  0  0  0  0  0  0  0
   60.3664   27.8585   46.8606 H   0  0  0  0  0  0  0  0  0  0  0  0
   60.3156   25.4479   47.2106 H   0  0  0  0  0  0  0  0  0  0  0  0
   57.5273   21.8615   45.6482 H   0  0  0  0  0  0  0  0  0  0  0  0
   56.7286   21.3485   44.1232 H   0  0  0  0  0  0  0  0  0  0  0  0
   57.8442   22.7564   44.1232 H   0  0  0  0  0  0  0  0  0  0  0  0
   59.1231   26.3253   43.9460 H   0  0  0  0  0  0  0  0  0  0  0  0
   57.6745   27.3084   42.1794 H   0  0  0  0  0  0  0  0  0  0  0  0
   55.3470   29.1370   42.1590 H   0  0  0  0  0  0  0  0  0  0  0  0
  1  2  1  0
  2  3  1  0
  3  4  2  0
  4  5  1  0
  5  6  1  0
  6  7  2  3
  7  8  1  0
  8  9  2  0
  8 10  1  0
 10 11  1  0
 11 12  2  0
 12 13  1  0
 12 14  1  0
 14 15  1  0
 15 16  2  0
 15 17  1  0
 17 18  1  0
 18 19  2  0
  5 20  2  0
 20 21  1  0
 21 22  2  0
 22 23  1  0
 22  3  1  0
 18 11  1  0
  1 24  1  0
  1 25  1  0
  1 26  1  0
  4 27  1  0
  6 28  1  0
  7 29  1  0
 13 30  1  0
 13 31  1  0
 13 32  1  0
 20 33  1  0
 21 34  1  0
 23 35  1  0
M  CHG  3  10  -1  14  -1  17  -1
M  END
>  <UniqueID>  (47) 
43

>  <SMILES>  (47) 
COc1cc(C=CC(=O)[N-]c2c(C)[n-]c(=O)[n-]c2=O)ccc1O

>  <Energy>  (47) 
43.711393870698444

>  <Genealogy>  (47) 
COc1cc(C=CC(=O)[N-]c2c(C)[n-]c(=O)[n-]c2=O)ccc1O (protonated)
COc1cc(C=CC(=O)[N-]c2c(C)[n-]c(=O)[n-]c2=O)ccc1O (3D coordinates assigned)
COc1cc(C=CC(=O)[N-]c2c(C)[n-]c(=O)[n-]c2=O)ccc1O (optimized conformer: 43.711393870698444 kcal/mol)

>  <smiles>  (47) 
COc1cc(C=CC(=O)Nc2c(C)[nH]c(=O)[nH]c2=O)ccc1O

>  <score_type>  (47) 
oracle

>  <origin>  (47) 
adg

>  <m_score__min__energy>  (47) 
-12.199999999999999

>  <m_primary>  (47) 
energy

$$$$
47:0
     RDKit          3D

 48 50  0  0  0  0  0  0  0  0999 V2000
   63.7210   33.1080   46.7620 C   0  0  0  0  0  0  0  0  0  0  0  0
   62.7340   33.1760   47.8990 C   0  0  0  0  0  0  0  0  0  0  0  0
   62.9570   34.0960   48.9360 C   0  0  0  0  0  0  0  0  0  0  0  0
   62.0670   34.1910   50.0040 C   0  0  0  0  0  0  0  0  0  0  0  0
   60.9370   33.3800   50.0460 C   0  0  0  0  0  0  0  0  0  0  0  0
   60.6850   32.4520   49.0240 C   0  0  0  0  0  0  0  0  0  0  0  0
   59.4570   31.7020   49.0540 N   0  0  0  0  0  0  0  0  0  0  0  0
   59.4290   30.4050   49.7270 C   0  0  0  0  0  0  0  0  0  0  0  0
   58.1960   32.3810   48.7340 C   0  0  0  0  0  0  0  0  0  0  0  0
   58.1330   32.6960   47.2640 C   0  0  0  0  0  0  0  0  0  0  0  0
   57.7360   31.7190   46.4060 N   0  0  0  0  0  0  0  0  0  0  0  0
   57.7230   31.9170   45.0630 C   0  0  0  0  0  0  0  0  0  0  0  0
   57.2790   30.8160   44.1520 C   0  0  0  0  0  0  0  0  0  0  0  0
   57.5380   29.4770   44.7910 C   0  0  0  0  0  0  0  0  0  0  0  0
   58.8590   29.0620   45.0200 C   0  0  0  0  0  0  0  0  0  0  0  0
   59.1200   27.8060   45.5760 C   0  0  0  0  0  0  0  0  0  0  0  0
   58.0620   26.9520   45.9040 C   0  0  0  0  0  0  0  0  0  0  0  0
   56.7440   27.3500   45.6710 C   0  0  0  0  0  0  0  0  0  0  0  0
   56.4760   28.6050   45.1120 C   0  0  0  0  0  0  0  0  0  0  0  0
   55.1570   28.9760   44.8740 O   0  0  0  0  0  0  0  0  0  0  0  0
   58.1110   33.1150   44.5530 N   0  0  0  0  0  0  0  0  0  0  0  0
   58.5260   34.1220   45.3640 C   0  0  0  0  0  0  0  0  0  0  0  0
   58.8830   35.2190   44.8590 O   0  0  0  0  0  0  0  0  0  0  0  0
   58.5580   33.9320   46.7540 C   0  0  0  0  0  0  0  0  0  0  0  0
   59.0000   34.9380   47.6140 O   0  0  0  0  0  0  0  0  0  0  0  0
   61.6060   32.3140   47.9560 C   0  0  0  0  0  0  0  0  0  0  0  0
   61.3730   31.2850   46.8760 C   0  0  0  0  0  0  0  0  0  0  0  0
   64.7416   33.0377   47.1662 H   0  0  0  0  0  0  0  0  0  0  0  0
   63.5091   32.2223   46.1450 H   0  0  0  0  0  0  0  0  0  0  0  0
   63.6326   34.0144   46.1450 H   0  0  0  0  0  0  0  0  0  0  0  0
   63.8425   34.7478   48.9050 H   0  0  0  0  0  0  0  0  0  0  0  0
   62.2581   34.9086   50.8155 H   0  0  0  0  0  0  0  0  0  0  0  0
   60.2347   33.4672   50.8882 H   0  0  0  0  0  0  0  0  0  0  0  0
   59.4323   30.5571   50.8164 H   0  0  0  0  0  0  0  0  0  0  0  0
   58.5189   29.8603   49.4356 H   0  0  0  0  0  0  0  0  0  0  0  0
   60.3148   29.8215   49.4356 H   0  0  0  0  0  0  0  0  0  0  0  0
   57.3531   31.7268   49.0017 H   0  0  0  0  0  0  0  0  0  0  0  0
   58.1393   33.3197   49.3046 H   0  0  0  0  0  0  0  0  0  0  0  0
   56.2024   30.9213   43.9523 H   0  0  0  0  0  0  0  0  0  0  0  0
   57.8433   30.8797   43.2099 H   0  0  0  0  0  0  0  0  0  0  0  0
   59.6942   29.7291   44.7604 H   0  0  0  0  0  0  0  0  0  0  0  0
   60.1580   27.4893   45.7556 H   0  0  0  0  0  0  0  0  0  0  0  0
   58.2684   25.9660   46.3459 H   0  0  0  0  0  0  0  0  0  0  0  0
   55.9139   26.6753   45.9275 H   0  0  0  0  0  0  0  0  0  0  0  0
   59.1560   35.8880   47.2980 H   0  0  0  0  0  0  0  0  0  0  0  0
   61.1526   30.3116   47.3384 H   0  0  0  0  0  0  0  0  0  0  0  0
   60.5224   31.5952   46.2514 H   0  0  0  0  0  0  0  0  0  0  0  0
   62.2743   31.1985   46.2514 H   0  0  0  0  0  0  0  0  0  0  0  0
  1  2  1  0
  2  3  2  0
  3  4  1  0
  4  5  2  0
  5  6  1  0
  6  7  1  0
  7  8  1  0
  7  9  1  0
  9 10  1  0
 10 11  1  0
 11 12  2  0
 12 13  1  0
 13 14  1  0
 14 15  2  0
 15 16  1  0
 16 17  2  0
 17 18  1  0
 18 19  2  0
 19 20  1  0
 12 21  1  0
 21 22  1  0
 22 23  2  0
 22 24  1  0
 24 25  1  0
  6 26  2  0
 26 27  1  0
 26  2  1  0
 24 10  2  0
 19 14  1  0
  1 28  1  0
  1 29  1  0
  1 30  1  0
  3 31  1  0
  4 32  1  0
  5 33  1  0
  8 34  1  0
  8 35  1  0
  8 36  1  0
  9 37  1  0
  9 38  1  0
 13 39  1  0
 13 40  1  0
 15 41  1  0
 16 42  1  0
 17 43  1  0
 18 44  1  0
 25 45  1  0
 27 46  1  0
 27 47  1  0
 27 48  1  0
M  CHG  2  20  -1  21  -1
M  END
>  <UniqueID>  (48) 
44

>  <SMILES>  (48) 
Cc1cccc(N(C)Cc2nc(Cc3ccccc3[O-])[n-]c(=O)c2O)c1C

>  <Energy>  (48) 
53.78679206489194

>  <Genealogy>  (48) 
Cc1cccc(N(C)Cc2nc(Cc3ccccc3[O-])[n-]c(=O)c2O)c1C (protonated)
Cc1cccc(N(C)Cc2nc(Cc3ccccc3[O-])[n-]c(=O)c2O)c1C (3D coordinates assigned)
Cc1cccc(N(C)Cc2nc(Cc3ccccc3[O-])[n-]c(=O)c2O)c1C (optimized conformer: 53.78679206489194 kcal/mol)

>  <smiles>  (48) 
Cc1cccc(N(C)Cc2nc(Cc3ccccc3O)[nH]c(=O)c2O)c1C

>  <score_type>  (48) 
oracle

>  <origin>  (48) 
adg

>  <m_score__min__energy>  (48) 
-13.050000000000001

>  <m_primary>  (48) 
energy

$$$$
48:0
     RDKit          3D

 62 66  0  0  0  0  0  0  0  0999 V2000
   57.8314   34.5691   45.6915 H   0  0  0  0  0  0  0  0  0  0  0  0
   58.0360   33.5270   45.9780 C   0  0  0  0  0  0  0  0  0  0  0  0
   57.6430   32.5120   45.1680 N   0  0  0  0  0  0  0  0  0  0  0  0
   57.9000   31.2150   45.4550 C   0  0  0  0  0  0  0  0  0  0  0  0
   57.4370   30.2930   44.6590 N   0  0  0  0  0  0  0  0  0  0  0  0
   56.5930   29.1980   45.0430 C   0  0  0  0  0  0  0  0  0  0  0  0
   55.3500   29.2530   44.8290 O   0  0  0  0  0  0  0  0  0  0  0  0
   57.1860   27.9750   45.6030 C   0  0  0  0  0  0  0  0  0  0  0  0
   57.8310   27.8840   46.8260 C   0  0  0  0  0  0  0  0  0  0  0  0
   57.9277   28.6779   47.5812 H   0  0  0  0  0  0  0  0  0  0  0  0
   58.3280   26.5990   46.9080 C   0  0  0  0  0  0  0  0  0  0  0  0
   58.9021   26.1666   47.7407 H   0  0  0  0  0  0  0  0  0  0  0  0
   57.9610   25.9620   45.7350 C   0  0  0  0  0  0  0  0  0  0  0  0
   58.3810   24.6080   45.3170 C   0  0  0  0  0  0  0  0  0  0  0  0
   57.5430   23.7400   44.5850 C   0  0  0  0  0  0  0  0  0  0  0  0
   56.1380   24.1150   44.1960 C   0  0  0  0  0  0  0  0  0  0  0  0
   55.5368   24.2755   45.1031 H   0  0  0  0  0  0  0  0  0  0  0  0
   56.1568   25.0396   43.6003 H   0  0  0  0  0  0  0  0  0  0  0  0
   55.6936   23.3040   43.6003 H   0  0  0  0  0  0  0  0  0  0  0  0
   58.0140   22.5170   44.2220 N   0  0  0  0  0  0  0  0  0  0  0  0
   59.2720   22.1150   44.5520 C   0  0  0  0  0  0  0  0  0  0  0  0
   59.6265   21.1193   44.2471 H   0  0  0  0  0  0  0  0  0  0  0  0
   60.0910   22.9380   45.2560 N   0  0  0  0  0  0  0  0  0  0  0  0
   61.0480   22.6160   45.5320 H   0  0  0  0  0  0  0  0  0  0  0  0
   59.6750   24.1700   45.6300 C   0  0  0  0  0  0  0  0  0  0  0  0
   60.3570   24.8323   46.1834 H   0  0  0  0  0  0  0  0  0  0  0  0
   57.2730   26.8070   44.9440 N   0  0  0  0  0  0  0  0  0  0  0  0
   56.9140   26.6020   43.9840 H   0  0  0  0  0  0  0  0  0  0  0  0
   58.6020   30.9070   46.6290 C   0  0  0  0  0  0  0  0  0  0  0  0
   58.8702   29.8636   46.8513 H   0  0  0  0  0  0  0  0  0  0  0  0
   58.9620   31.9270   47.5190 C   0  0  0  0  0  0  0  0  0  0  0  0
   59.5990   31.6090   48.8220 C   0  0  0  0  0  0  0  0  0  0  0  0
   60.8590   31.5820   48.9180 O   0  0  0  0  0  0  0  0  0  0  0  0
   58.8200   31.3020   49.9850 N   0  0  0  0  0  0  0  0  0  0  0  0
   58.9590   29.9950   50.6200 C   0  0  0  0  0  0  0  0  0  0  0  0
   58.0478   29.4036   50.4468 H   0  0  0  0  0  0  0  0  0  0  0  0
   59.8235   29.4671   50.1911 H   0  0  0  0  0  0  0  0  0  0  0  0
   59.1680   30.1830   52.1240 C   0  0  0  0  0  0  0  0  0  0  0  0
   59.2017   29.1947   52.6058 H   0  0  0  0  0  0  0  0  0  0  0  0
   60.1125   30.7264   52.2743 H   0  0  0  0  0  0  0  0  0  0  0  0
   58.0260   31.0130   52.7600 C   0  0  0  0  0  0  0  0  0  0  0  0
   58.3137   31.3135   53.7783 H   0  0  0  0  0  0  0  0  0  0  0  0
   56.7670   30.1710   52.9910 C   0  0  0  0  0  0  0  0  0  0  0  0
   56.7450   28.9790   53.7400 C   0  0  0  0  0  0  0  0  0  0  0  0
   57.6707   28.6157   54.2102 H   0  0  0  0  0  0  0  0  0  0  0  0
   55.5570   28.2490   53.8940 C   0  0  0  0  0  0  0  0  0  0  0  0
   55.5600   27.3143   54.4740 H   0  0  0  0  0  0  0  0  0  0  0  0
   54.3720   28.7030   53.3150 C   0  0  0  0  0  0  0  0  0  0  0  0
   53.1470   27.9770   53.5020 C   0  0  0  0  0  0  0  0  0  0  0  0
   52.1600   27.4010   53.6750 N   0  0  0  0  0  0  0  0  0  0  0  0
   54.3760   29.8830   52.5640 C   0  0  0  0  0  0  0  0  0  0  0  0
   53.4445   30.2469   52.1058 H   0  0  0  0  0  0  0  0  0  0  0  0
   55.5650   30.6000   52.3960 C   0  0  0  0  0  0  0  0  0  0  0  0
   55.5611   31.5164   51.7876 H   0  0  0  0  0  0  0  0  0  0  0  0
   57.8300   32.3610   52.0070 C   0  0  0  0  0  0  0  0  0  0  0  0
   56.8793   32.8046   52.3378 H   0  0  0  0  0  0  0  0  0  0  0  0
   58.7025   32.9854   52.2497 H   0  0  0  0  0  0  0  0  0  0  0  0
   57.7940   32.2340   50.4700 C   0  0  0  0  0  0  0  0  0  0  0  0
   56.8033   31.8663   50.1644 H   0  0  0  0  0  0  0  0  0  0  0  0
   57.9936   33.2249   50.0361 H   0  0  0  0  0  0  0  0  0  0  0  0
   58.6960   33.2520   47.1680 C   0  0  0  0  0  0  0  0  0  0  0  0
   59.0075   34.0731   47.8304 H   0  0  0  0  0  0  0  0  0  0  0  0
  1  2  1  0
  2  3  1  0
  3  4  1  0
  4  5  2  0
  5  6  1  0
  6  7  2  0
  6  8  1  0
  8  9  2  0
  9 10  1  0
  9 11  1  0
 11 12  1  0
 11 13  2  0
 13 14  1  0
 14 15  2  0
 15 16  1  0
 16 17  1  0
 16 18  1  0
 16 19  1  0
 15 20  1  0
 20 21  2  0
 21 22  1  0
 21 23  1  0
 23 24  1  0
 23 25  2  0
 25 26  1  0
 13 27  1  0
 27 28  1  0
  4 29  1  0
 29 30  1  0
 29 31  2  0
 31 32  1  0
 32 33  2  0
 32 34  1  0
 34 35  1  0
 35 36  1  0
 35 37  1  0
 35 38  1  0
 38 39  1  0
 38 40  1  0
 38 41  1  0
 41 42  1  0
 41 43  1  0
 43 44  2  0
 44 45  1  0
 44 46  1  0
 46 47  1  0
 46 48  2  0
 48 49  1  0
 49 50  3  0
 48 51  1  0
 51 52  1  0
 51 53  2  0
 53 54  1  0
 41 55  1  0
 55 56  1  0
 55 57  1  0
 55 58  1  0
 58 59  1  0
 58 60  1  0
 31 61  1  0
 61 62  1  0
 61  2  2  0
 27  8  1  0
 58 34  1  0
 25 14  1  0
 53 43  1  0
M  CHG  2   3  -1  23   1
M  END
>  <UniqueID>  (49) 
45

>  <SMILES>  (49) 
Cc1nc[nH+]cc1-c1ccc(C(=O)/N=c2\cc(C(=O)N3CCC(c4ccc(C#N)cc4)CC3)cc[n-]2)[nH]1

>  <Energy>  (49) 
116.74694210517055

>  <Genealogy>  (49) 
Cc1nc[nH+]cc1-c1ccc(C(=O)N=c2cc(C(=O)N3CCC(c4ccc(C#N)cc4)CC3)cc[n-]2)[nH]1 (protonated)
Cc1nc[nH+]cc1-c1ccc(C(=O)/N=c2\cc(C(=O)N3CCC(c4ccc(C#N)cc4)CC3)cc[n-]2)[nH]1 (cis-trans isomerization)
Cc1nc[nH+]cc1-c1ccc(C(=O)/N=c2\cc(C(=O)N3CCC(c4ccc(C#N)cc4)CC3)cc[n-]2)[nH]1 (3D coordinates assigned)
Cc1nc[nH+]cc1-c1ccc(C(=O)/N=c2\cc(C(=O)N3CCC(c4ccc(C#N)cc4)CC3)cc[n-]2)[nH]1 (nonaromatic ring conformer: 116.74694210517055 kcal/mol)

>  <smiles>  (49) 
Cc1ncncc1-c1ccc(C(=O)N=c2cc(C(=O)N3CCC(c4ccc(C#N)cc4)CC3)cc[nH]2)[nH]1

>  <score_type>  (49) 
oracle

>  <origin>  (49) 
adg

>  <m_score__min__energy>  (49) 
-10.65

>  <m_primary>  (49) 
energy

$$$$
49:0
     RDKit          3D

 57 60  0  0  0  0  0  0  0  0999 V2000
   56.6970   23.4720   47.2690 H   0  0  0  0  0  0  0  0  0  0  0  0
   57.4810   24.1080   47.5370 N   0  0  0  0  0  0  0  0  0  0  0  0
   57.5790   25.3060   47.0570 C   0  0  0  0  0  0  0  0  0  0  0  0
   58.7130   26.0200   47.2930 N   0  0  0  0  0  0  0  0  0  0  0  0
   58.8940   27.2800   46.8250 C   0  0  0  0  0  0  0  0  0  0  0  0
   59.8309   27.8150   47.0396 H   0  0  0  0  0  0  0  0  0  0  0  0
   57.8930   27.9020   46.0700 C   0  0  0  0  0  0  0  0  0  0  0  0
   58.0780   29.2840   45.5570 C   0  0  0  0  0  0  0  0  0  0  0  0
   58.9370   30.1790   46.2140 C   0  0  0  0  0  0  0  0  0  0  0  0
   59.4752   29.8550   47.1170 H   0  0  0  0  0  0  0  0  0  0  0  0
   59.1140   31.4770   45.7310 C   0  0  0  0  0  0  0  0  0  0  0  0
   59.7819   32.1711   46.2623 H   0  0  0  0  0  0  0  0  0  0  0  0
   58.4450   31.9030   44.5710 C   0  0  0  0  0  0  0  0  0  0  0  0
   58.5910   33.2370   44.0630 N   0  0  0  0  0  0  0  0  0  0  0  0
   58.3650   34.4620   44.7710 C   0  0  0  0  0  0  0  0  0  0  0  0
   57.2300   35.0060   44.7690 O   0  0  0  0  0  0  0  0  0  0  0  0
   59.4310   35.0890   45.4940 N   0  0  0  0  0  0  0  0  0  0  0  0
   60.1800   34.5080   46.5710 C   0  0  0  0  0  0  0  0  0  0  0  0
   61.5410   34.1830   46.4370 C   0  0  0  0  0  0  0  0  0  0  0  0
   62.0606   34.3773   45.4871 H   0  0  0  0  0  0  0  0  0  0  0  0
   62.2350   33.6140   47.5070 C   0  0  0  0  0  0  0  0  0  0  0  0
   63.3047   33.3792   47.4039 H   0  0  0  0  0  0  0  0  0  0  0  0
   61.5750   33.3420   48.7080 C   0  0  0  0  0  0  0  0  0  0  0  0
   62.1315   32.9133   49.5545 H   0  0  0  0  0  0  0  0  0  0  0  0
   60.2040   33.6140   48.8380 C   0  0  0  0  0  0  0  0  0  0  0  0
   59.5140   33.3290   50.1110 C   0  0  0  0  0  0  0  0  0  0  0  0
   59.4730   34.2270   50.9960 O   0  0  0  0  0  0  0  0  0  0  0  0
   58.8990   32.0530   50.3670 N   0  0  0  0  0  0  0  0  0  0  0  0
   59.3630   30.8010   49.7900 C   0  0  0  0  0  0  0  0  0  0  0  0
   59.2482   30.8170   48.6961 H   0  0  0  0  0  0  0  0  0  0  0  0
   60.4287   30.6275   50.0002 H   0  0  0  0  0  0  0  0  0  0  0  0
   58.4860   29.7160   50.4000 C   0  0  0  0  0  0  0  0  0  0  0  0
   57.7185   29.3954   49.6802 H   0  0  0  0  0  0  0  0  0  0  0  0
   59.0742   28.8259   50.6678 H   0  0  0  0  0  0  0  0  0  0  0  0
   57.8320   30.3440   51.6280 C   0  0  0  0  0  0  0  0  0  0  0  0
   56.7792   30.0338   51.7010 H   0  0  0  0  0  0  0  0  0  0  0  0
   58.3305   30.0275   52.5561 H   0  0  0  0  0  0  0  0  0  0  0  0
   57.9270   31.8510   51.4300 C   0  0  0  0  0  0  0  0  0  0  0  0
   56.9491   32.2608   51.1372 H   0  0  0  0  0  0  0  0  0  0  0  0
   58.2294   32.3617   52.3561 H   0  0  0  0  0  0  0  0  0  0  0  0
   59.5160   34.2070   47.7680 C   0  0  0  0  0  0  0  0  0  0  0  0
   58.4453   34.4377   47.8699 H   0  0  0  0  0  0  0  0  0  0  0  0
   57.5610   31.0270   43.9190 C   0  0  0  0  0  0  0  0  0  0  0  0
   56.8790   31.4930   42.7840 O   0  0  0  0  0  0  0  0  0  0  0  0
   57.5070   32.0580   41.6370 C   0  0  0  0  0  0  0  0  0  0  0  0
   58.2894   32.7619   41.9568 H   0  0  0  0  0  0  0  0  0  0  0  0
   57.9590   31.2565   41.0343 H   0  0  0  0  0  0  0  0  0  0  0  0
   56.7575   32.5919   41.0343 H   0  0  0  0  0  0  0  0  0  0  0  0
   57.3880   29.7180   44.4110 C   0  0  0  0  0  0  0  0  0  0  0  0
   56.7057   29.0280   43.8930 H   0  0  0  0  0  0  0  0  0  0  0  0
   56.7120   27.1900   45.8110 C   0  0  0  0  0  0  0  0  0  0  0  0
   55.9146   27.6620   45.2183 H   0  0  0  0  0  0  0  0  0  0  0  0
   56.5310   25.8800   46.2980 C   0  0  0  0  0  0  0  0  0  0  0  0
   55.2590   25.1620   45.9920 C   0  0  0  0  0  0  0  0  0  0  0  0
   55.2530   23.9040   45.8920 O   0  0  0  0  0  0  0  0  0  0  0  0
   54.0330   25.8670   45.8090 N   0  0  0  0  0  0  0  0  0  0  0  0
   53.8080   26.7120   46.3800 H   0  0  0  0  0  0  0  0  0  0  0  0
  1  2  1  0
  2  3  2  0
  3  4  1  0
  4  5  1  0
  5  6  1  0
  5  7  2  0
  7  8  1  0
  8  9  2  0
  9 10  1  0
  9 11  1  0
 11 12  1  0
 11 13  2  0
 13 14  1  0
 14 15  1  0
 15 16  2  0
 15 17  1  0
 17 18  1  0
 18 19  2  0
 19 20  1  0
 19 21  1  0
 21 22  1  0
 21 23  2  0
 23 24  1  0
 23 25  1  0
 25 26  1  0
 26 27  2  0
 26 28  1  0
 28 29  1  0
 29 30  1  0
 29 31  1  0
 29 32  1  0
 32 33  1  0
 32 34  1  0
 32 35  1  0
 35 36  1  0
 35 37  1  0
 35 38  1  0
 38 39  1  0
 38 40  1  0
 25 41  2  0
 41 42  1  0
 13 43  1  0
 43 44  1  0
 44 45  1  0
 45 46  1  0
 45 47  1  0
 45 48  1  0
 43 49  2  0
 49 50  1  0
  7 51  1  0
 51 52  1  0
 51 53  2  0
 53 54  1  0
 54 55  2  0
 54 56  1  0
 56 57  1  0
 53  3  1  0
 49  8  1  0
 41 18  1  0
 38 28  1  0
M  CHG  4   4  -1  14  -1  17  -1  56  -1
M  END
>  <UniqueID>  (50) 
46

>  <SMILES>  (50) 
[H]/N=c1\[n-]cc(-c2ccc([N-]C(=O)[N-]c3cccc(C(=O)N4CCCC4)c3)c(OC)c2)cc1C([NH-])=O

>  <Energy>  (50) 
80.42057260499435

>  <Genealogy>  (50) 
COc1cc(-c2c[n-]c(=N)c(C([NH-])=O)c2)ccc1[N-]C(=O)[N-]c1cccc(C(=O)N2CCCC2)c1 (protonated)
[H]/N=c1\[n-]cc(-c2ccc([N-]C(=O)[N-]c3cccc(C(=O)N4CCCC4)c3)c(OC)c2)cc1C([NH-])=O (cis-trans isomerization)
[H]/N=c1\[n-]cc(-c2ccc([N-]C(=O)[N-]c3cccc(C(=O)N4CCCC4)c3)c(OC)c2)cc1C([NH-])=O (3D coordinates assigned)
[H]/N=c1\[n-]cc(-c2ccc([N-]C(=O)[N-]c3cccc(C(=O)N4CCCC4)c3)c(OC)c2)cc1C([NH-])=O (nonaromatic ring conformer: 80.42057260499435 kcal/mol)

>  <smiles>  (50) 
COc1cc(-c2c[nH]c(=N)c(C(N)=O)c2)ccc1NC(=O)Nc1cccc(C(=O)N2CCCC2)c1

>  <score_type>  (50) 
oracle

>  <origin>  (50) 
adg

>  <m_score__min__energy>  (50) 
-15.470000000000001

>  <m_primary>  (50) 
energy

$$$$
50:0
     RDKit          3D

 41 43  0  0  0  0  0  0  0  0999 V2000
   57.1090   26.3960   43.5260 H   0  0  0  0  0  0  0  0  0  0  0  0
   57.3680   25.5470   44.0130 O   0  0  0  0  0  0  0  0  0  0  0  0
   56.4260   24.7170   44.6240 C   0  0  0  0  0  0  0  0  0  0  0  0
   56.0870   23.5070   44.0110 C   0  0  0  0  0  0  0  0  0  0  0  0
   56.5669   23.2176   43.0644 H   0  0  0  0  0  0  0  0  0  0  0  0
   55.1410   22.6660   44.5980 C   0  0  0  0  0  0  0  0  0  0  0  0
   54.8721   21.7127   44.1195 H   0  0  0  0  0  0  0  0  0  0  0  0
   54.5400   23.0460   45.7970 C   0  0  0  0  0  0  0  0  0  0  0  0
   53.7939   22.3907   46.2703 H   0  0  0  0  0  0  0  0  0  0  0  0
   54.8760   24.2260   46.3810 N   0  0  0  0  0  0  0  0  0  0  0  0
   55.7980   25.0720   45.8350 C   0  0  0  0  0  0  0  0  0  0  0  0
   56.0950   26.2040   46.4080 N   0  0  0  0  0  0  0  0  0  0  0  0
   57.3880   26.6290   46.8750 C   0  0  0  0  0  0  0  0  0  0  0  0
   57.9390   26.0480   47.8510 O   0  0  0  0  0  0  0  0  0  0  0  0
   58.1030   27.7330   46.1920 C   0  0  0  0  0  0  0  0  0  0  0  0
   57.3580   28.8320   45.7210 C   0  0  0  0  0  0  0  0  0  0  0  0
   56.2665   28.8461   45.8568 H   0  0  0  0  0  0  0  0  0  0  0  0
   57.9890   29.9070   45.0820 C   0  0  0  0  0  0  0  0  0  0  0  0
   57.0210   31.2620   44.5010 S   0  0  0  0  0  0  0  0  0  0  0  0
   55.5730   30.8600   44.4050 O   0  0  0  0  0  0  0  0  0  0  0  0
   57.5100   31.6560   43.1340 O   0  0  0  0  0  0  0  0  0  0  0  0
   57.1810   32.6070   45.6030 N   0  0  0  0  0  0  0  0  0  0  0  0
   57.4750   33.8640   44.8740 C   0  0  0  0  0  0  0  0  0  0  0  0
   57.4688   33.6540   43.7942 H   0  0  0  0  0  0  0  0  0  0  0  0
   56.7026   34.5966   45.1511 H   0  0  0  0  0  0  0  0  0  0  0  0
   58.8390   34.4640   45.2500 C   0  0  0  0  0  0  0  0  0  0  0  0
   59.6323   33.7749   44.9248 H   0  0  0  0  0  0  0  0  0  0  0  0
   58.9313   35.4396   44.7503 H   0  0  0  0  0  0  0  0  0  0  0  0
   58.9580   34.6730   46.6450 O   0  0  0  0  0  0  0  0  0  0  0  0
   58.5600   33.5500   47.4270 C   0  0  0  0  0  0  0  0  0  0  0  0
   59.3912   33.2938   48.1004 H   0  0  0  0  0  0  0  0  0  0  0  0
   57.6434   33.8564   47.9523 H   0  0  0  0  0  0  0  0  0  0  0  0
   58.1890   32.2870   46.6290 C   0  0  0  0  0  0  0  0  0  0  0  0
   59.0905   31.8890   46.1401 H   0  0  0  0  0  0  0  0  0  0  0  0
   57.7720   31.5382   47.3185 H   0  0  0  0  0  0  0  0  0  0  0  0
   59.3730   29.8830   44.8840 C   0  0  0  0  0  0  0  0  0  0  0  0
   59.8714   30.7266   44.3841 H   0  0  0  0  0  0  0  0  0  0  0  0
   60.1220   28.7900   45.3200 C   0  0  0  0  0  0  0  0  0  0  0  0
   61.2090   28.7723   45.1522 H   0  0  0  0  0  0  0  0  0  0  0  0
   59.5020   27.7140   45.9700 C   0  0  0  0  0  0  0  0  0  0  0  0
   60.5190   26.3410   46.4050 Cl  0  0  0  0  0  0  0  0  0  0  0  0
  1  2  1  0
  2  3  1  0
  3  4  2  0
  4  5  1  0
  4  6  1  0
  6  7  1  0
  6  8  2  0
  8  9  1  0
  8 10  1  0
 10 11  1  0
 11 12  2  0
 12 13  1  0
 13 14  2  0
 13 15  1  0
 15 16  2  0
 16 17  1  0
 16 18  1  0
 18 19  1  0
 19 20  2  0
 19 21  2  0
 19 22  1  0
 22 23  1  0
 23 24  1  0
 23 25  1  0
 23 26  1  0
 26 27  1  0
 26 28  1  0
 26 29  1  0
 29 30  1  0
 30 31  1  0
 30 32  1  0
 30 33  1  0
 33 34  1  0
 33 35  1  0
 18 36  2  0
 36 37  1  0
 36 38  1  0
 38 39  1  0
 38 40  2  0
 40 41  1  0
 11  3  1  0
 40 15  1  0
 33 22  1  0
M  CHG  1  10  -1
M  END
>  <UniqueID>  (51) 
47

>  <SMILES>  (51) 
O=C(/N=c1\[n-]cccc1O)c1cc(S(=O)(=O)N2CCOCC2)ccc1Cl

>  <Energy>  (51) 
63.54589141745608

>  <Genealogy>  (51) 
O=C(N=c1[n-]cccc1O)c1cc(S(=O)(=O)N2CCOCC2)ccc1Cl (protonated)
O=C(/N=c1\[n-]cccc1O)c1cc(S(=O)(=O)N2CCOCC2)ccc1Cl (cis-trans isomerization)
O=C(/N=c1\[n-]cccc1O)c1cc(S(=O)(=O)N2CCOCC2)ccc1Cl (3D coordinates assigned)
O=C(/N=c1\[n-]cccc1O)c1cc(S(=O)(=O)N2CCOCC2)ccc1Cl (nonaromatic ring conformer: 63.54589141745608 kcal/mol)

>  <smiles>  (51) 
O=C(N=c1[nH]cccc1O)c1cc(S(=O)(=O)N2CCOCC2)ccc1Cl

>  <score_type>  (51) 
oracle

>  <origin>  (51) 
adg

>  <m_score__min__energy>  (51) 
-11.42

>  <m_primary>  (51) 
energy

$$$$
51:0
     RDKit          3D

 44 46  0  0  0  0  0  0  0  0999 V2000
   55.2970   31.6520   52.7010 O   0  0  0  0  0  0  0  0  0  0  0  0
   55.5120   30.4090   52.6630 C   0  0  0  0  0  0  0  0  0  0  0  0
   54.6730   29.4830   53.4840 C   0  0  0  0  0  0  0  0  0  0  0  0
   53.2940   29.5060   53.0100 N   0  0  0  0  0  0  0  0  0  0  0  0
   52.5820   30.7030   52.6880 C   0  0  0  0  0  0  0  0  0  0  0  0
   52.3870   31.5710   53.5810 O   0  0  0  0  0  0  0  0  0  0  0  0
   52.0520   30.9010   51.3150 C   0  0  0  0  0  0  0  0  0  0  0  0
   52.2980   29.9320   50.3260 C   0  0  0  0  0  0  0  0  0  0  0  0
   51.7730   30.0820   49.0430 C   0  0  0  0  0  0  0  0  0  0  0  0
   51.0050   31.2080   48.7450 C   0  0  0  0  0  0  0  0  0  0  0  0
   50.5250   31.3590   47.5930 O   0  0  0  0  0  0  0  0  0  0  0  0
   50.7760   32.1440   49.7010 N   0  0  0  0  0  0  0  0  0  0  0  0
   51.2720   32.0260   50.9640 C   0  0  0  0  0  0  0  0  0  0  0  0
   50.9950   33.0250   51.8890 O   0  0  0  0  0  0  0  0  0  0  0  0
   56.5350   29.8640   51.8220 N   0  0  0  0  0  0  0  0  0  0  0  0
   57.6170   30.5910   51.2230 C   0  0  0  0  0  0  0  0  0  0  0  0
   58.8310   29.9280   51.0050 C   0  0  0  0  0  0  0  0  0  0  0  0
   59.9190   30.6070   50.4470 C   0  0  0  0  0  0  0  0  0  0  0  0
   59.8030   31.9660   50.1070 C   0  0  0  0  0  0  0  0  0  0  0  0
   61.1600   32.8360   49.3980 S   0  0  0  0  0  0  0  0  0  0  0  0
   62.2170   31.8910   48.8980 O   0  0  0  0  0  0  0  0  0  0  0  0
   61.7650   33.7120   50.4570 O   0  0  0  0  0  0  0  0  0  0  0  0
   60.5960   33.8320   48.0920 N   0  0  0  0  0  0  0  0  0  0  0  0
   59.5810   33.4960   47.1340 C   0  0  0  0  0  0  0  0  0  0  0  0
   58.8720   34.5500   46.5370 C   0  0  0  0  0  0  0  0  0  0  0  0
   57.8750   34.2900   45.5910 C   0  0  0  0  0  0  0  0  0  0  0  0
   57.5870   32.9780   45.2190 C   0  0  0  0  0  0  0  0  0  0  0  0
   58.2940   31.9200   45.7950 C   0  0  0  0  0  0  0  0  0  0  0  0
   59.2890   32.1640   46.7510 C   0  0  0  0  0  0  0  0  0  0  0  0
   59.9750   31.1120   47.2470 F   0  0  0  0  0  0  0  0  0  0  0  0
   58.6010   32.6410   50.3500 C   0  0  0  0  0  0  0  0  0  0  0  0
   57.5150   31.9610   50.9100 C   0  0  0  0  0  0  0  0  0  0  0  0
   55.0700   28.4606   53.3998 H   0  0  0  0  0  0  0  0  0  0  0  0
   54.6990   29.8082   54.5345 H   0  0  0  0  0  0  0  0  0  0  0  0
   52.9090   29.0494   50.5663 H   0  0  0  0  0  0  0  0  0  0  0  0
   51.9626   29.3197   48.2730 H   0  0  0  0  0  0  0  0  0  0  0  0
   58.9296   28.8661   51.2744 H   0  0  0  0  0  0  0  0  0  0  0  0
   60.8670   30.0767   50.2739 H   0  0  0  0  0  0  0  0  0  0  0  0
   59.1023   35.5890   46.8153 H   0  0  0  0  0  0  0  0  0  0  0  0
   57.3167   35.1233   45.1394 H   0  0  0  0  0  0  0  0  0  0  0  0
   56.8042   32.7761   44.4730 H   0  0  0  0  0  0  0  0  0  0  0  0
   58.0677   30.8860   45.4955 H   0  0  0  0  0  0  0  0  0  0  0  0
   58.5106   33.7084   50.1000 H   0  0  0  0  0  0  0  0  0  0  0  0
   56.5758   32.4986   51.1073 H   0  0  0  0  0  0  0  0  0  0  0  0
  1  2  2  0
  2  3  1  0
  3  4  1  0
  4  5  1  0
  5  6  2  0
  5  7  1  0
  7  8  1  0
  8  9  2  0
  9 10  1  0
 10 11  2  0
 10 12  1  0
 12 13  1  0
 13 14  1  0
  2 15  1  0
 15 16  1  0
 16 17  2  0
 17 18  1  0
 18 19  2  0
 19 20  1  0
 20 21  2  0
 20 22  2  0
 20 23  1  0
 23 24  1  0
 24 25  2  0
 25 26  1  0
 26 27  2  0
 27 28  1  0
 28 29  2  0
 29 30  1  0
 19 31  1  0
 31 32  2  0
 13  7  2  0
 32 16  1  0
 29 24  1  0
  3 33  1  0
  3 34  1  0
  8 35  1  0
  9 36  1  0
 17 37  1  0
 18 38  1  0
 25 39  1  0
 26 40  1  0
 27 41  1  0
 28 42  1  0
 31 43  1  0
 32 44  1  0
M  CHG  5   4  -1  12  -1  14  -1  15  -1  23  -1
M  END
>  <UniqueID>  (52) 
48

>  <SMILES>  (52) 
O=C(C[N-]C(=O)c1ccc(=O)[n-]c1[O-])[N-]c1ccc(S(=O)(=O)[N-]c2ccccc2F)cc1

>  <Energy>  (52) 
56.76219356474308

>  <Genealogy>  (52) 
O=C(C[N-]C(=O)c1ccc(=O)[n-]c1[O-])[N-]c1ccc(S(=O)(=O)[N-]c2ccccc2F)cc1 (protonated)
O=C(C[N-]C(=O)c1ccc(=O)[n-]c1[O-])[N-]c1ccc(S(=O)(=O)[N-]c2ccccc2F)cc1 (3D coordinates assigned)
O=C(C[N-]C(=O)c1ccc(=O)[n-]c1[O-])[N-]c1ccc(S(=O)(=O)[N-]c2ccccc2F)cc1 (optimized conformer: 56.76219356474308 kcal/mol)

>  <smiles>  (52) 
O=C(CNC(=O)c1ccc(=O)[nH]c1O)Nc1ccc(S(=O)(=O)Nc2ccccc2F)cc1

>  <score_type>  (52) 
oracle

>  <origin>  (52) 
adg

>  <m_score__min__energy>  (52) 
-18.699999999999999

>  <m_primary>  (52) 
energy

$$$$
52:0
     RDKit          3D

 46 49  0  0  0  0  0  0  0  0999 V2000
   58.9080   20.8250   44.1600 H   0  0  0  0  0  0  0  0  0  0  0  0
   58.6340   21.3840   44.9980 N   0  0  0  0  0  0  0  0  0  0  0  0
   58.5110   22.6750   44.9600 C   0  0  0  0  0  0  0  0  0  0  0  0
   57.5380   23.2680   44.1340 C   0  0  0  0  0  0  0  0  0  0  0  0
   56.6550   22.4690   43.3170 C   0  0  0  0  0  0  0  0  0  0  0  0
   55.9450   21.8290   42.6640 N   0  0  0  0  0  0  0  0  0  0  0  0
   57.4240   24.6600   44.1070 C   0  0  0  0  0  0  0  0  0  0  0  0
   56.6729   25.1340   43.4580 H   0  0  0  0  0  0  0  0  0  0  0  0
   58.2620   25.4590   44.9030 C   0  0  0  0  0  0  0  0  0  0  0  0
   58.1020   26.9370   44.9270 C   0  0  0  0  0  0  0  0  0  0  0  0
   57.7800   27.6120   43.7380 C   0  0  0  0  0  0  0  0  0  0  0  0
   57.6766   27.0439   42.8017 H   0  0  0  0  0  0  0  0  0  0  0  0
   57.5900   28.9920   43.7300 C   0  0  0  0  0  0  0  0  0  0  0  0
   57.3503   29.5048   42.7868 H   0  0  0  0  0  0  0  0  0  0  0  0
   57.7020   29.7310   44.9140 C   0  0  0  0  0  0  0  0  0  0  0  0
   57.4400   31.1870   44.9070 C   0  0  0  0  0  0  0  0  0  0  0  0
   56.3330   31.6310   44.4930 O   0  0  0  0  0  0  0  0  0  0  0  0
   58.4540   32.1040   45.3490 N   0  0  0  0  0  0  0  0  0  0  0  0
   58.8450   32.2430   46.7360 C   0  0  1  0  0  0  0  0  0  0  0  0
   58.9245   31.3238   47.3350 H   0  0  0  0  0  0  0  0  0  0  0  0
   60.1840   32.9900   46.6290 C   0  0  0  0  0  0  0  0  0  0  0  0
   61.0190   32.2953   46.4550 H   0  0  0  0  0  0  0  0  0  0  0  0
   60.4653   33.5393   47.5395 H   0  0  0  0  0  0  0  0  0  0  0  0
   59.9370   33.8860   45.4090 C   0  0  0  0  0  0  0  0  0  0  0  0
   60.6294   33.6471   44.5883 H   0  0  0  0  0  0  0  0  0  0  0  0
   60.0931   34.9578   45.6009 H   0  0  0  0  0  0  0  0  0  0  0  0
   58.4900   33.5190   45.0470 C   0  0  2  0  0  0  0  0  0  0  0  0
   58.2137   33.8268   44.0277 H   0  0  0  0  0  0  0  0  0  0  0  0
   57.5500   34.1310   46.0990 C   0  0  0  0  0  0  0  0  0  0  0  0
   56.5016   34.0995   45.7675 H   0  0  0  0  0  0  0  0  0  0  0  0
   57.7437   35.1933   46.3087 H   0  0  0  0  0  0  0  0  0  0  0  0
   57.7860   33.2050   47.2980 C   0  0  0  0  0  0  0  0  0  0  0  0
   56.8669   32.6707   47.5805 H   0  0  0  0  0  0  0  0  0  0  0  0
   58.0954   33.7276   48.2151 H   0  0  0  0  0  0  0  0  0  0  0  0
   58.0380   29.0710   46.1060 C   0  0  0  0  0  0  0  0  0  0  0  0
   58.1262   29.6464   47.0393 H   0  0  0  0  0  0  0  0  0  0  0  0
   58.2640   27.6790   46.1220 C   0  0  0  0  0  0  0  0  0  0  0  0
   58.6620   27.0120   47.2940 O   0  0  0  0  0  0  0  0  0  0  0  0
   59.6380   27.4920   48.2110 C   0  0  0  0  0  0  0  0  0  0  0  0
   59.2897   27.3207   49.2402 H   0  0  0  0  0  0  0  0  0  0  0  0
   60.5859   26.9573   48.0509 H   0  0  0  0  0  0  0  0  0  0  0  0
   59.7931   28.5692   48.0509 H   0  0  0  0  0  0  0  0  0  0  0  0
   59.2080   24.8220   45.7210 C   0  0  0  0  0  0  0  0  0  0  0  0
   59.8660   25.4248   46.3642 H   0  0  0  0  0  0  0  0  0  0  0  0
   59.3190   23.4660   45.7260 N   0  0  0  0  0  0  0  0  0  0  0  0
   60.0430   23.0300   46.3440 H   0  0  0  0  0  0  0  0  0  0  0  0
  1  2  1  0
  2  3  2  0
  3  4  1  0
  4  5  1  0
  5  6  3  0
  4  7  2  0
  7  8  1  0
  7  9  1  0
  9 10  1  0
 10 11  2  0
 11 12  1  0
 11 13  1  0
 13 14  1  0
 13 15  2  0
 15 16  1  0
 16 17  2  0
 16 18  1  0
 18 19  1  0
 19 20  1  1
 19 21  1  0
 21 22  1  0
 21 23  1  0
 21 24  1  0
 24 25  1  0
 24 26  1  0
 24 27  1  0
 27 28  1  6
 27 29  1  0
 29 30  1  0
 29 31  1  0
 29 32  1  0
 32 33  1  0
 32 34  1  0
 15 35  1  0
 35 36  1  0
 35 37  2  0
 37 38  1  0
 38 39  1  0
 39 40  1  0
 39 41  1  0
 39 42  1  0
  9 43  2  0
 43 44  1  0
 43 45  1  0
 45 46  1  0
 45  3  1  0
 37 10  1  0
 27 18  1  0
 32 19  1  0
M  END
>  <UniqueID>  (53) 
49

>  <SMILES>  (53) 
[H]/N=c1\[nH]cc(-c2ccc(C(=O)N3C4CCC3CC4)cc2OC)cc1C#N

>  <Energy>  (53) 
94.58114606481466

>  <Genealogy>  (53) 
[H]/N=c1\[nH]cc(-c2ccc(C(=O)N3C4CCC3CC4)cc2OC)cc1C#N (cis-trans isomerization)
[H]/N=c1\[nH]cc(-c2ccc(C(=O)N3C4CCC3CC4)cc2OC)cc1C#N (3D coordinates assigned)
[H]/N=c1\[nH]cc(-c2ccc(C(=O)N3C4CCC3CC4)cc2OC)cc1C#N (nonaromatic ring conformer: 94.58114606481466 kcal/mol)

>  <smiles>  (53) 
COc1cc(C(=O)N2C3CCC2CC3)ccc1-c1c[nH]c(=N)c(C#N)c1

>  <score_type>  (53) 
oracle

>  <origin>  (53) 
adg

>  <m_score__min__energy>  (53) 
-8.7400000000000002

>  <m_primary>  (53) 
energy

$$$$
53:0
     RDKit          3D

 42 45  0  0  0  0  0  0  0  0999 V2000
   60.6036   22.5945   45.3151 H   0  0  0  0  0  0  0  0  0  0  0  0
   59.5480   22.3740   45.0980 C   0  0  0  0  0  0  0  0  0  0  0  0
   58.5880   22.6830   46.0100 N   0  0  0  0  0  0  0  0  0  0  0  0
   57.2660   22.4330   45.7790 C   0  0  0  0  0  0  0  0  0  0  0  0
   56.3620   22.7420   46.6620 N   0  0  0  0  0  0  0  0  0  0  0  0
   55.5120   23.8990   46.6380 C   0  0  0  0  0  0  0  0  0  0  0  0
   54.2830   23.7500   46.8690 O   0  0  0  0  0  0  0  0  0  0  0  0
   56.0070   25.2370   46.2530 C   0  0  0  0  0  0  0  0  0  0  0  0
   55.1790   26.2760   45.9970 N   0  0  0  0  0  0  0  0  0  0  0  0
   55.9850   27.2830   45.6130 C   0  0  0  0  0  0  0  0  0  0  0  0
   55.5200   28.5420   45.2590 O   0  0  0  0  0  0  0  0  0  0  0  0
   57.3030   26.9010   45.6130 C   0  0  0  0  0  0  0  0  0  0  0  0
   58.3820   27.7170   45.2580 O   0  0  0  0  0  0  0  0  0  0  0  0
   58.2620   29.0800   44.8490 C   0  0  0  0  0  0  0  0  0  0  0  0
   59.1820   29.3795   44.3256 H   0  0  0  0  0  0  0  0  0  0  0  0
   57.3901   29.1677   44.1841 H   0  0  0  0  0  0  0  0  0  0  0  0
   58.0480   30.0060   46.0530 C   0  0  0  0  0  0  0  0  0  0  0  0
   57.1150   29.7186   46.5598 H   0  0  0  0  0  0  0  0  0  0  0  0
   58.9152   29.8982   46.7210 H   0  0  0  0  0  0  0  0  0  0  0  0
   57.9540   31.4470   45.6480 C   0  0  0  0  0  0  0  0  0  0  0  0
   57.1840   31.9690   44.6120 C   0  0  0  0  0  0  0  0  0  0  0  0
   56.4853   31.3868   43.9932 H   0  0  0  0  0  0  0  0  0  0  0  0
   57.4180   33.2950   44.4750 N   0  0  0  0  0  0  0  0  0  0  0  0
   56.9910   33.9340   43.7680 H   0  0  0  0  0  0  0  0  0  0  0  0
   58.3310   33.6110   45.4090 C   0  0  0  0  0  0  0  0  0  0  0  0
   58.9180   34.8570   45.6300 C   0  0  0  0  0  0  0  0  0  0  0  0
   58.6301   35.7344   45.0323 H   0  0  0  0  0  0  0  0  0  0  0  0
   59.8900   34.9550   46.6420 C   0  0  0  0  0  0  0  0  0  0  0  0
   60.3653   35.9249   46.8504 H   0  0  0  0  0  0  0  0  0  0  0  0
   60.2600   33.8180   47.3920 C   0  0  0  0  0  0  0  0  0  0  0  0
   61.0283   33.9060   48.1743 H   0  0  0  0  0  0  0  0  0  0  0  0
   59.6530   32.5730   47.1460 C   0  0  0  0  0  0  0  0  0  0  0  0
   59.9343   31.6794   47.7225 H   0  0  0  0  0  0  0  0  0  0  0  0
   58.6820   32.5100   46.1460 C   0  0  0  0  0  0  0  0  0  0  0  0
   57.3300   25.5840   46.0260 C   0  0  0  0  0  0  0  0  0  0  0  0
   58.2160   24.9438   46.1492 H   0  0  0  0  0  0  0  0  0  0  0  0
   56.8810   21.8090   44.5840 C   0  0  0  0  0  0  0  0  0  0  0  0
   55.5450   21.5080   44.3360 O   0  0  0  0  0  0  0  0  0  0  0  0
   57.8530   21.4900   43.6320 C   0  0  0  0  0  0  0  0  0  0  0  0
   57.5610   21.0137   42.6844 H   0  0  0  0  0  0  0  0  0  0  0  0
   59.1950   21.7770   43.8860 C   0  0  0  0  0  0  0  0  0  0  0  0
   59.9662   21.5356   43.1397 H   0  0  0  0  0  0  0  0  0  0  0  0
  1  2  1  0
  2  3  1  0
  3  4  1  0
  4  5  2  0
  5  6  1  0
  6  7  2  0
  6  8  1  0
  8  9  1  0
  9 10  1  0
 10 11  1  0
 10 12  2  0
 12 13  1  0
 13 14  1  0
 14 15  1  0
 14 16  1  0
 14 17  1  0
 17 18  1  0
 17 19  1  0
 17 20  1  0
 20 21  2  0
 21 22  1  0
 21 23  1  0
 23 24  1  0
 23 25  1  0
 25 26  2  0
 26 27  1  0
 26 28  1  0
 28 29  1  0
 28 30  2  0
 30 31  1  0
 30 32  1  0
 32 33  1  0
 32 34  2  0
 12 35  1  0
 35 36  1  0
  4 37  1  0
 37 38  1  0
 37 39  2  0
 39 40  1  0
 39 41  1  0
 41 42  1  0
 41  2  2  0
 35  8  2  0
 34 20  1  0
 34 25  1  0
M  CHG  4   3  -1   9  -1  11  -1  38  -1
M  END
>  <UniqueID>  (54) 
50

>  <SMILES>  (54) 
O=C(/N=c1\[n-]cccc1[O-])c1cc(OCCc2c[nH]c3ccccc23)c([O-])[n-]1

>  <Energy>  (54) 
105.71028873835675

>  <Genealogy>  (54) 
O=C(N=c1[n-]cccc1[O-])c1cc(OCCc2c[nH]c3ccccc23)c([O-])[n-]1 (protonated)
O=C(/N=c1\[n-]cccc1[O-])c1cc(OCCc2c[nH]c3ccccc23)c([O-])[n-]1 (cis-trans isomerization)
O=C(/N=c1\[n-]cccc1[O-])c1cc(OCCc2c[nH]c3ccccc23)c([O-])[n-]1 (3D coordinates assigned)
O=C(/N=c1\[n-]cccc1[O-])c1cc(OCCc2c[nH]c3ccccc23)c([O-])[n-]1 (optimized conformer: 105.71028873835675 kcal/mol)

>  <smiles>  (54) 
O=C(N=c1[nH]cccc1O)c1cc(OCCc2c[nH]c3ccccc23)c(O)[nH]1

>  <score_type>  (54) 
oracle

>  <origin>  (54) 
adg

>  <m_score__min__energy>  (54) 
-16.989999999999998

>  <m_primary>  (54) 
energy

$$$$
54:0
     RDKit          3D

 71 75  0  0  0  0  0  0  0  0999 V2000
   59.0405   29.6456   46.1628 H   0  0  0  0  0  0  0  0  0  0  0  0
   59.0470   30.4190   46.9450 C   0  0  0  0  0  0  0  0  0  0  0  0
   59.9100   30.1820   48.1240 C   0  0  0  0  0  0  0  0  0  0  0  0
   60.2080   28.9910   48.4080 O   0  0  0  0  0  0  0  0  0  0  0  0
   60.4440   31.2550   48.9320 N   0  0  0  0  0  0  0  0  0  0  0  0
   61.5740   32.0570   48.4980 C   0  0  0  0  0  0  0  0  0  0  0  0
   62.5060   31.5750   47.5580 C   0  0  0  0  0  0  0  0  0  0  0  0
   62.4034   30.5537   47.1626 H   0  0  0  0  0  0  0  0  0  0  0  0
   63.5590   32.3830   47.1240 C   0  0  0  0  0  0  0  0  0  0  0  0
   64.2716   32.0022   46.3776 H   0  0  0  0  0  0  0  0  0  0  0  0
   63.7090   33.6740   47.6360 C   0  0  0  0  0  0  0  0  0  0  0  0
   64.5265   34.3164   47.2769 H   0  0  0  0  0  0  0  0  0  0  0  0
   62.8220   34.1490   48.6030 C   0  0  0  0  0  0  0  0  0  0  0  0
   62.9455   35.1638   49.0090 H   0  0  0  0  0  0  0  0  0  0  0  0
   61.7730   33.3360   49.0590 C   0  0  0  0  0  0  0  0  0  0  0  0
   60.8450   33.8210   50.1330 C   0  0  0  0  0  0  0  0  0  0  0  0
   59.9482   34.2602   49.6716 H   0  0  0  0  0  0  0  0  0  0  0  0
   61.3552   34.5822   50.7415 H   0  0  0  0  0  0  0  0  0  0  0  0
   60.4370   32.6480   51.0230 C   0  0  0  0  0  0  0  0  0  0  0  0
   59.7429   33.0076   51.7969 H   0  0  0  0  0  0  0  0  0  0  0  0
   61.3419   32.2258   51.4844 H   0  0  0  0  0  0  0  0  0  0  0  0
   59.7480   31.5500   50.2010 C   0  0  0  0  0  0  0  0  0  0  0  0
   58.7229   31.8759   49.9708 H   0  0  0  0  0  0  0  0  0  0  0  0
   59.7614   30.6305   50.8045 H   0  0  0  0  0  0  0  0  0  0  0  0
   58.2730   31.4950   46.7490 C   0  0  0  0  0  0  0  0  0  0  0  0
   57.1900   31.3756   46.8999 H   0  0  0  0  0  0  0  0  0  0  0  0
   58.7620   32.8290   46.3460 C   0  0  0  0  0  0  0  0  0  0  0  0
   59.0670   33.7950   47.3200 C   0  0  0  0  0  0  0  0  0  0  0  0
   58.9908   33.5393   48.3871 H   0  0  0  0  0  0  0  0  0  0  0  0
   59.4660   35.0770   46.9400 C   0  0  0  0  0  0  0  0  0  0  0  0
   59.7138   35.8251   47.7074 H   0  0  0  0  0  0  0  0  0  0  0  0
   59.5510   35.4110   45.5890 C   0  0  0  0  0  0  0  0  0  0  0  0
   59.8629   36.4234   45.2926 H   0  0  0  0  0  0  0  0  0  0  0  0
   59.2410   34.4630   44.6110 C   0  0  0  0  0  0  0  0  0  0  0  0
   59.3086   34.7330   43.5468 H   0  0  0  0  0  0  0  0  0  0  0  0
   58.8420   33.1620   44.9800 C   0  0  0  0  0  0  0  0  0  0  0  0
   58.5310   32.1740   44.0280 O   0  0  0  0  0  0  0  0  0  0  0  0
   57.2420   31.6020   43.8090 C   0  0  0  0  0  0  0  0  0  0  0  0
   57.0305   31.6109   42.7296 H   0  0  0  0  0  0  0  0  0  0  0  0
   56.5096   32.2023   44.3686 H   0  0  0  0  0  0  0  0  0  0  0  0
   57.1500   30.1840   44.3080 C   0  0  0  0  0  0  0  0  0  0  0  0
   56.0840   29.8210   44.8730 O   0  0  0  0  0  0  0  0  0  0  0  0
   58.2370   29.2530   44.1430 N   0  0  0  0  0  0  0  0  0  0  0  0
   58.9240   29.4270   43.3800 H   0  0  0  0  0  0  0  0  0  0  0  0
   58.3260   27.9890   44.8290 C   0  0  0  0  0  0  0  0  0  0  0  0
   59.5740   27.5520   45.2970 C   0  0  0  0  0  0  0  0  0  0  0  0
   60.4675   28.1714   45.1296 H   0  0  0  0  0  0  0  0  0  0  0  0
   59.6900   26.3360   45.9740 C   0  0  0  0  0  0  0  0  0  0  0  0
   60.6735   26.0004   46.3348 H   0  0  0  0  0  0  0  0  0  0  0  0
   58.5600   25.5450   46.1940 C   0  0  0  0  0  0  0  0  0  0  0  0
   58.6565   24.5842   46.7208 H   0  0  0  0  0  0  0  0  0  0  0  0
   57.3040   25.9730   45.7450 C   0  0  0  0  0  0  0  0  0  0  0  0
   55.8810   24.9780   46.0440 S   0  0  0  0  0  0  0  0  0  0  0  0
   54.6510   25.8230   45.8580 O   0  0  0  0  0  0  0  0  0  0  0  0
   55.9020   24.4720   47.4610 O   0  0  0  0  0  0  0  0  0  0  0  0
   55.8490   23.6410   44.9230 N   0  0  0  0  0  0  0  0  0  0  0  0
   56.3160   24.0830   43.5960 C   0  0  0  0  0  0  0  0  0  0  0  0
   55.5340   24.6975   43.1260 H   0  0  0  0  0  0  0  0  0  0  0  0
   57.2392   24.6666   43.7266 H   0  0  0  0  0  0  0  0  0  0  0  0
   56.6230   22.8770   42.6870 C   0  0  0  0  0  0  0  0  0  0  0  0
   56.2129   23.0680   41.6843 H   0  0  0  0  0  0  0  0  0  0  0  0
   57.7137   22.7432   42.6365 H   0  0  0  0  0  0  0  0  0  0  0  0
   56.0460   21.6950   43.2060 O   0  0  0  0  0  0  0  0  0  0  0  0
   56.6630   21.3620   44.4390 C   0  0  0  0  0  0  0  0  0  0  0  0
   56.1029   20.5360   44.9016 H   0  0  0  0  0  0  0  0  0  0  0  0
   57.7034   21.0763   44.2249 H   0  0  0  0  0  0  0  0  0  0  0  0
   56.6970   22.5490   45.4240 C   0  0  0  0  0  0  0  0  0  0  0  0
   56.3248   22.2192   46.4052 H   0  0  0  0  0  0  0  0  0  0  0  0
   57.7317   22.9096   45.5202 H   0  0  0  0  0  0  0  0  0  0  0  0
   57.1850   27.2040   45.0840 C   0  0  0  0  0  0  0  0  0  0  0  0
   56.1945   27.5586   44.7628 H   0  0  0  0  0  0  0  0  0  0  0  0
  1  2  1  0
  2  3  1  0
  3  4  2  0
  3  5  1  0
  5  6  1  0
  6  7  2  0
  7  8  1  0
  7  9  1  0
  9 10  1  0
  9 11  2  0
 11 12  1  0
 11 13  1  0
 13 14  1  0
 13 15  2  0
 15 16  1  0
 16 17  1  0
 16 18  1  0
 16 19  1  0
 19 20  1  0
 19 21  1  0
 19 22  1  0
 22 23  1  0
 22 24  1  0
  2 25  2  0
 25 26  1  0
 25 27  1  0
 27 28  2  0
 28 29  1  0
 28 30  1  0
 30 31  1  0
 30 32  2  0
 32 33  1  0
 32 34  1  0
 34 35  1  0
 34 36  2  0
 36 37  1  0
 37 38  1  0
 38 39  1  0
 38 40  1  0
 38 41  1  0
 41 42  2  0
 41 43  1  0
 43 44  1  0
 43 45  1  0
 45 46  2  0
 46 47  1  0
 46 48  1  0
 48 49  1  0
 48 50  2  0
 50 51  1  0
 50 52  1  0
 52 53  1  0
 53 54  2  0
 53 55  2  0
 53 56  1  0
 56 57  1  0
 57 58  1  0
 57 59  1  0
 57 60  1  0
 60 61  1  0
 60 62  1  0
 60 63  1  0
 63 64  1  0
 64 65  1  0
 64 66  1  0
 64 67  1  0
 67 68  1  0
 67 69  1  0
 52 70  2  0
 70 71  1  0
 22  5  1  0
 36 27  1  0
 70 45  1  0
 15  6  1  0
 67 56  1  0
M  END
>  <UniqueID>  (55) 
51

>  <SMILES>  (55) 
O=C(COc1ccccc1/C=C\C(=O)N1CCCc2ccccc21)Nc1cccc(S(=O)(=O)N2CCOCC2)c1

>  <Energy>  (55) 
97.06868419422555

>  <Genealogy>  (55) 
O=C(COc1ccccc1/C=C\C(=O)N1CCCc2ccccc21)Nc1cccc(S(=O)(=O)N2CCOCC2)c1 (cis-trans isomerization)
O=C(COc1ccccc1/C=C\C(=O)N1CCCc2ccccc21)Nc1cccc(S(=O)(=O)N2CCOCC2)c1 (3D coordinates assigned)
O=C(COc1ccccc1/C=C\C(=O)N1CCCc2ccccc21)Nc1cccc(S(=O)(=O)N2CCOCC2)c1 (nonaromatic ring conformer: 97.06868419422555 kcal/mol)

>  <smiles>  (55) 
O=C(COc1ccccc1C=CC(=O)N1CCCc2ccccc21)Nc1cccc(S(=O)(=O)N2CCOCC2)c1

>  <score_type>  (55) 
oracle

>  <origin>  (55) 
adg

>  <m_score__min__energy>  (55) 
-12.74

>  <m_primary>  (55) 
energy

$$$$
55:0
     RDKit          3D

 49 52  0  0  0  0  0  0  0  0999 V2000
   55.4660   24.2350   46.8010 O   0  0  0  0  0  0  0  0  0  0  0  0
   55.8910   25.3340   46.3590 C   0  0  0  0  0  0  0  0  0  0  0  0
   55.0690   26.3550   46.0390 N   0  0  0  0  0  0  0  0  0  0  0  0
   55.9250   27.2990   45.6140 C   0  0  0  0  0  0  0  0  0  0  0  0
   55.5320   28.5480   45.1520 O   0  0  0  0  0  0  0  0  0  0  0  0
   57.2160   26.8400   45.6940 C   0  0  0  0  0  0  0  0  0  0  0  0
   58.4540   27.5560   45.2400 C   0  0  0  0  0  0  0  0  0  0  0  0
   58.6390   28.8620   45.9750 C   0  0  0  0  0  0  0  0  0  0  0  0
   58.9330   28.8660   47.3480 C   0  0  0  0  0  0  0  0  0  0  0  0
   59.1650   30.0710   48.0150 C   0  0  0  0  0  0  0  0  0  0  0  0
   59.1070   31.2820   47.3210 C   0  0  0  0  0  0  0  0  0  0  0  0
   58.8080   31.3020   45.9500 C   0  0  0  0  0  0  0  0  0  0  0  0
   58.7450   32.5610   45.2580 N   0  0  0  0  0  0  0  0  0  0  0  0
   59.0790   34.0810   46.0260 S   0  0  0  0  0  0  0  0  0  0  0  0
   59.3880   35.1030   44.9690 O   0  0  0  0  0  0  0  0  0  0  0  0
   57.8640   34.5290   46.7900 O   0  0  0  0  0  0  0  0  0  0  0  0
   60.4300   33.9200   47.1450 C   0  0  0  0  0  0  0  0  0  0  0  0
   61.6890   33.5560   46.6660 C   0  0  0  0  0  0  0  0  0  0  0  0
   62.7800   33.4730   47.5360 C   0  0  0  0  0  0  0  0  0  0  0  0
   62.6360   33.7530   48.9170 C   0  0  0  0  0  0  0  0  0  0  0  0
   63.7760   33.6780   49.8290 N   0  0  0  0  0  0  0  0  0  0  0  0
   64.9970   32.9590   49.4040 C   0  0  0  0  0  0  0  0  0  0  0  0
   66.0800   32.8970   50.4850 C   0  0  0  0  0  0  0  0  0  0  0  0
   66.1380   34.1000   51.2130 O   0  0  0  0  0  0  0  0  0  0  0  0
   64.9650   34.2090   51.9830 C   0  0  0  0  0  0  0  0  0  0  0  0
   63.7450   34.4470   51.0900 C   0  0  0  0  0  0  0  0  0  0  0  0
   61.3490   34.1220   49.3790 C   0  0  0  0  0  0  0  0  0  0  0  0
   60.2640   34.1990   48.5040 C   0  0  0  0  0  0  0  0  0  0  0  0
   58.5970   30.0840   45.2810 C   0  0  0  0  0  0  0  0  0  0  0  0
   57.2040   25.5780   46.1600 N   0  0  0  0  0  0  0  0  0  0  0  0
   59.3272   26.9138   45.4271 H   0  0  0  0  0  0  0  0  0  0  0  0
   58.3519   27.7754   44.1669 H   0  0  0  0  0  0  0  0  0  0  0  0
   58.9808   27.9161   47.9006 H   0  0  0  0  0  0  0  0  0  0  0  0
   59.3943   30.0664   49.0908 H   0  0  0  0  0  0  0  0  0  0  0  0
   59.2969   32.2261   47.8526 H   0  0  0  0  0  0  0  0  0  0  0  0
   58.6630   32.5630   44.2170 H   0  0  0  0  0  0  0  0  0  0  0  0
   61.8238   33.3330   45.5973 H   0  0  0  0  0  0  0  0  0  0  0  0
   63.7660   33.1857   47.1419 H   0  0  0  0  0  0  0  0  0  0  0  0
   64.7179   31.9303   49.1321 H   0  0  0  0  0  0  0  0  0  0  0  0
   65.4202   33.5161   48.5552 H   0  0  0  0  0  0  0  0  0  0  0  0
   65.8528   32.0704   51.1743 H   0  0  0  0  0  0  0  0  0  0  0  0
   67.0526   32.7366   49.9967 H   0  0  0  0  0  0  0  0  0  0  0  0
   64.8194   33.2783   52.5510 H   0  0  0  0  0  0  0  0  0  0  0  0
   65.0719   35.0640   52.6668 H   0  0  0  0  0  0  0  0  0  0  0  0
   62.8428   34.1602   51.6501 H   0  0  0  0  0  0  0  0  0  0  0  0
   63.7474   35.5128   50.8180 H   0  0  0  0  0  0  0  0  0  0  0  0
   61.2020   34.3517   50.4447 H   0  0  0  0  0  0  0  0  0  0  0  0
   59.2721   34.4811   48.8868 H   0  0  0  0  0  0  0  0  0  0  0  0
   58.3962   30.0869   44.1995 H   0  0  0  0  0  0  0  0  0  0  0  0
  1  2  2  0
  2  3  1  0
  3  4  1  0
  4  5  1  0
  4  6  2  0
  6  7  1  0
  7  8  1  0
  8  9  2  0
  9 10  1  0
 10 11  2  0
 11 12  1  0
 12 13  1  0
 13 14  1  0
 14 15  2  0
 14 16  2  0
 14 17  1  0
 17 18  2  0
 18 19  1  0
 19 20  2  0
 20 21  1  0
 21 22  1  0
 22 23  1  0
 23 24  1  0
 24 25  1  0
 25 26  1  0
 20 27  1  0
 27 28  2  0
 12 29  2  0
  6 30  1  0
 30  2  1  0
 29  8  1  0
 28 17  1  0
 26 21  1  0
  7 31  1  0
  7 32  1  0
  9 33  1  0
 10 34  1  0
 11 35  1  0
 13 36  1  0
 18 37  1  0
 19 38  1  0
 22 39  1  0
 22 40  1  0
 23 41  1  0
 23 42  1  0
 25 43  1  0
 25 44  1  0
 26 45  1  0
 26 46  1  0
 27 47  1  0
 28 48  1  0
 29 49  1  0
M  CHG  3   3  -1   5  -1  30  -1
M  END
>  <UniqueID>  (56) 
52

>  <SMILES>  (56) 
O=c1[n-]c([O-])c(Cc2cccc(NS(=O)(=O)c3ccc(N4CCOCC4)cc3)c2)[n-]1

>  <Energy>  (56) 
90.61639734502891

>  <Genealogy>  (56) 
O=c1[n-]c([O-])c(Cc2cccc(NS(=O)(=O)c3ccc(N4CCOCC4)cc3)c2)[n-]1 (protonated)
O=c1[n-]c([O-])c(Cc2cccc(NS(=O)(=O)c3ccc(N4CCOCC4)cc3)c2)[n-]1 (3D coordinates assigned)
O=c1[n-]c([O-])c(Cc2cccc(NS(=O)(=O)c3ccc(N4CCOCC4)cc3)c2)[n-]1 (nonaromatic ring conformer: 90.61639734502891 kcal/mol)

>  <smiles>  (56) 
O=c1[nH]c(O)c(Cc2cccc(NS(=O)(=O)c3ccc(N4CCOCC4)cc3)c2)[nH]1

>  <score_type>  (56) 
oracle

>  <origin>  (56) 
adg

>  <m_score__min__energy>  (56) 
-17.170000000000002

>  <m_primary>  (56) 
energy

$$$$
56:0
     RDKit          3D

 23 24  0  0  0  0  0  0  0  0999 V2000
   59.7790   27.9440   46.1130 C   0  0  0  0  0  0  0  0  0  0  0  0
   58.5060   28.6190   45.6640 C   0  0  0  0  0  0  0  0  0  0  0  0
   57.5330   27.9300   44.9020 C   0  0  0  0  0  0  0  0  0  0  0  0
   57.6650   26.4750   44.5350 C   0  0  0  0  0  0  0  0  0  0  0  0
   57.1530   25.6060   45.6430 C   0  0  0  0  0  0  0  0  0  0  0  0
   57.8490   24.5970   46.1980 N   0  0  0  0  0  0  0  0  0  0  0  0
   57.0160   24.1370   47.1570 C   0  0  0  0  0  0  0  0  0  0  0  0
   57.3160   23.1730   47.9080 O   0  0  0  0  0  0  0  0  0  0  0  0
   55.8390   24.7920   47.2500 N   0  0  0  0  0  0  0  0  0  0  0  0
   55.9440   25.7220   46.2860 C   0  0  0  0  0  0  0  0  0  0  0  0
   54.9560   26.6580   45.9970 O   0  0  0  0  0  0  0  0  0  0  0  0
   56.4050   28.5830   44.5130 N   0  0  0  0  0  0  0  0  0  0  0  0
   56.1970   29.8870   44.8180 C   0  0  0  0  0  0  0  0  0  0  0  0
   55.1430   30.4610   44.4410 O   0  0  0  0  0  0  0  0  0  0  0  0
   57.1240   30.5740   45.5280 N   0  0  0  0  0  0  0  0  0  0  0  0
   58.2680   29.9790   45.9520 C   0  0  0  0  0  0  0  0  0  0  0  0
   59.1060   30.6580   46.6040 O   0  0  0  0  0  0  0  0  0  0  0  0
   59.8157   27.9245   47.2122 H   0  0  0  0  0  0  0  0  0  0  0  0
   59.8038   26.9142   45.7270 H   0  0  0  0  0  0  0  0  0  0  0  0
   60.6453   28.5012   45.7270 H   0  0  0  0  0  0  0  0  0  0  0  0
   57.0838   26.2777   43.6221 H   0  0  0  0  0  0  0  0  0  0  0  0
   58.7274   26.2459   44.3650 H   0  0  0  0  0  0  0  0  0  0  0  0
   55.1630   27.4660   45.4240 H   0  0  0  0  0  0  0  0  0  0  0  0
  1  2  1  0
  2  3  2  0
  3  4  1  0
  4  5  1  0
  5  6  1  0
  6  7  1  0
  7  8  2  0
  7  9  1  0
  9 10  1  0
 10 11  1  0
  3 12  1  0
 12 13  1  0
 13 14  2  0
 13 15  1  0
 15 16  1  0
 16 17  2  0
 16  2  1  0
 10  5  2  0
  1 18  1  0
  1 19  1  0
  1 20  1  0
  4 21  1  0
  4 22  1  0
 11 23  1  0
M  CHG  4   6  -1   9  -1  12  -1  15  -1
M  END
>  <UniqueID>  (57) 
53

>  <SMILES>  (57) 
Cc1c(Cc2[n-]c(=O)[n-]c2O)[n-]c(=O)[n-]c1=O

>  <Energy>  (57) 
53.40397146568077

>  <Genealogy>  (57) 
Cc1c(Cc2[n-]c(=O)[n-]c2O)[n-]c(=O)[n-]c1=O (protonated)
Cc1c(Cc2[n-]c(=O)[n-]c2O)[n-]c(=O)[n-]c1=O (3D coordinates assigned)
Cc1c(Cc2[n-]c(=O)[n-]c2O)[n-]c(=O)[n-]c1=O (optimized conformer: 53.40397146568077 kcal/mol)

>  <smiles>  (57) 
Cc1c(Cc2[nH]c(=O)[nH]c2O)[nH]c(=O)[nH]c1=O

>  <score_type>  (57) 
oracle

>  <origin>  (57) 
adg

>  <m_score__min__energy>  (57) 
-13.220000000000001

>  <m_primary>  (57) 
energy

$$$$
57:0
     RDKit          3D

 53 55  0  0  0  0  0  0  0  0999 V2000
   59.2689   25.1583   46.2813 H   0  0  0  0  0  0  0  0  0  0  0  0
   58.5890   26.0070   46.1160 C   0  0  0  0  0  0  0  0  0  0  0  0
   57.2050   25.8110   46.1560 C   0  0  0  0  0  0  0  0  0  0  0  0
   56.7974   24.8078   46.3497 H   0  0  0  0  0  0  0  0  0  0  0  0
   56.3390   26.8890   45.9500 C   0  0  0  0  0  0  0  0  0  0  0  0
   54.9630   26.6950   45.9940 O   0  0  0  0  0  0  0  0  0  0  0  0
   56.8570   28.1650   45.6990 C   0  0  0  0  0  0  0  0  0  0  0  0
   56.1736   29.0121   45.5395 H   0  0  0  0  0  0  0  0  0  0  0  0
   58.2470   28.3680   45.6500 C   0  0  0  0  0  0  0  0  0  0  0  0
   58.7980   29.7510   45.4130 C   0  0  0  0  0  0  0  0  0  0  0  0
   59.1772   29.8157   44.3825 H   0  0  0  0  0  0  0  0  0  0  0  0
   59.6089   29.9341   46.1333 H   0  0  0  0  0  0  0  0  0  0  0  0
   57.7520   30.7770   45.6090 N   0  0  0  0  0  0  0  0  0  0  0  0
   58.2020   31.8310   46.5540 C   0  0  0  0  0  0  0  0  0  0  0  0
   59.2593   32.0609   46.3557 H   0  0  0  0  0  0  0  0  0  0  0  0
   58.0681   31.4549   47.5790 H   0  0  0  0  0  0  0  0  0  0  0  0
   57.3750   33.1160   46.4010 C   0  0  0  0  0  0  0  0  0  0  0  0
   57.7387   33.8585   47.1265 H   0  0  0  0  0  0  0  0  0  0  0  0
   56.3206   32.8594   46.5807 H   0  0  0  0  0  0  0  0  0  0  0  0
   57.4740   33.6950   45.0350 N   0  0  0  0  0  0  0  0  0  0  0  0
   58.3750   34.8630   44.9880 C   0  0  0  0  0  0  0  0  0  0  0  0
   57.8695   35.7289   45.4404 H   0  0  0  0  0  0  0  0  0  0  0  0
   58.6264   35.0771   43.9387 H   0  0  0  0  0  0  0  0  0  0  0  0
   59.6390   34.5800   45.7420 C   0  0  0  0  0  0  0  0  0  0  0  0
   60.5280   33.8590   45.2130 O   0  0  0  0  0  0  0  0  0  0  0  0
   59.8170   35.1490   47.0490 N   0  0  0  0  0  0  0  0  0  0  0  0
   60.2780   34.5470   48.1070 C   0  0  0  0  0  0  0  0  0  0  0  0
   59.6150   34.5960   49.2970 N   0  0  0  0  0  0  0  0  0  0  0  0
   60.0820   33.9770   50.4170 C   0  0  0  0  0  0  0  0  0  0  0  0
   59.3160   34.0310   51.6340 N   0  0  0  0  0  0  0  0  0  0  0  0
   59.9530   34.0110   52.4650 H   0  0  0  0  0  0  0  0  0  0  0  0
   58.7650   34.9210   51.6610 H   0  0  0  0  0  0  0  0  0  0  0  0
   58.3950   32.8950   51.6990 C   0  0  0  0  0  0  0  0  0  0  0  0
   58.1933   32.6462   52.7514 H   0  0  0  0  0  0  0  0  0  0  0  0
   57.4521   33.1582   51.1972 H   0  0  0  0  0  0  0  0  0  0  0  0
   58.8475   32.0269   51.1972 H   0  0  0  0  0  0  0  0  0  0  0  0
   61.2800   33.2490   50.3550 C   0  0  0  0  0  0  0  0  0  0  0  0
   61.6555   32.7251   51.2464 H   0  0  0  0  0  0  0  0  0  0  0  0
   61.9950   33.1930   49.1520 C   0  0  0  0  0  0  0  0  0  0  0  0
   63.2600   32.3920   49.0620 C   0  0  0  0  0  0  0  0  0  0  0  0
   63.6218   32.1629   50.0752 H   0  0  0  0  0  0  0  0  0  0  0  0
   63.0625   31.4540   48.5224 H   0  0  0  0  0  0  0  0  0  0  0  0
   64.0234   32.9717   48.5224 H   0  0  0  0  0  0  0  0  0  0  0  0
   61.4810   33.8360   48.0180 C   0  0  0  0  0  0  0  0  0  0  0  0
   62.0208   33.7824   47.0611 H   0  0  0  0  0  0  0  0  0  0  0  0
   57.8610   32.7040   44.0040 C   0  0  0  0  0  0  0  0  0  0  0  0
   58.9579   32.6268   43.9747 H   0  0  0  0  0  0  0  0  0  0  0  0
   57.4692   33.0412   43.0330 H   0  0  0  0  0  0  0  0  0  0  0  0
   57.2700   31.3210   44.3120 C   0  0  0  0  0  0  0  0  0  0  0  0
   57.5573   30.6267   43.5086 H   0  0  0  0  0  0  0  0  0  0  0  0
   56.1773   31.4293   44.3780 H   0  0  0  0  0  0  0  0  0  0  0  0
   59.1100   27.2810   45.8660 C   0  0  0  0  0  0  0  0  0  0  0  0
   60.1992   27.4320   45.8385 H   0  0  0  0  0  0  0  0  0  0  0  0
  1  2  1  0
  2  3  2  0
  3  4  1  0
  3  5  1  0
  5  6  1  0
  5  7  2  0
  7  8  1  0
  7  9  1  0
  9 10  1  0
 10 11  1  0
 10 12  1  0
 10 13  1  0
 13 14  1  0
 14 15  1  0
 14 16  1  0
 14 17  1  0
 17 18  1  0
 17 19  1  0
 17 20  1  0
 20 21  1  0
 21 22  1  0
 21 23  1  0
 21 24  1  0
 24 25  2  0
 24 26  1  0
 26 27  2  0
 27 28  1  0
 28 29  1  0
 29 30  1  0
 30 31  1  0
 30 32  1  0
 30 33  1  0
 33 34  1  0
 33 35  1  0
 33 36  1  0
 29 37  2  0
 37 38  1  0
 37 39  1  0
 39 40  1  0
 40 41  1  0
 40 42  1  0
 40 43  1  0
 39 44  2  0
 44 45  1  0
 20 46  1  0
 46 47  1  0
 46 48  1  0
 46 49  1  0
 49 50  1  0
 49 51  1  0
  9 52  2  0
 52 53  1  0
 52  2  1  0
 49 13  1  0
 44 27  1  0
M  CHG  3   6  -1  28  -1  30   1
M  END
>  <UniqueID>  (58) 
54

>  <SMILES>  (58) 
C[NH2+]c1cc(C)c/c(=N/C(=O)CN2CCN(Cc3cccc([O-])c3)CC2)[n-]1

>  <Energy>  (58) 
67.4941376088169

>  <Genealogy>  (58) 
C[NH2+]c1cc(C)cc(=NC(=O)CN2CCN(Cc3cccc([O-])c3)CC2)[n-]1 (protonated)
C[NH2+]c1cc(C)c/c(=N/C(=O)CN2CCN(Cc3cccc([O-])c3)CC2)[n-]1 (cis-trans isomerization)
C[NH2+]c1cc(C)c/c(=N/C(=O)CN2CCN(Cc3cccc([O-])c3)CC2)[n-]1 (3D coordinates assigned)
C[NH2+]c1cc(C)c/c(=N/C(=O)CN2CCN(Cc3cccc([O-])c3)CC2)[n-]1 (nonaromatic ring conformer: 67.4941376088169 kcal/mol)

>  <smiles>  (58) 
CNc1cc(C)cc(=NC(=O)CN2CCN(Cc3cccc(O)c3)CC2)[nH]1

>  <score_type>  (58) 
oracle

>  <origin>  (58) 
adg

>  <m_score__min__energy>  (58) 
-11.890000000000001

>  <m_primary>  (58) 
energy

$$$$
58:0
     RDKit          3D

 54 56  0  0  0  0  0  0  0  0999 V2000
   56.3190   26.0960   45.9290 C   0  0  0  0  0  0  0  0  0  0  0  0
   56.7220   27.4590   46.0030 O   0  0  0  0  0  0  0  0  0  0  0  0
   57.9890   27.8880   46.4260 C   0  0  0  0  0  0  0  0  0  0  0  0
   59.0870   27.6440   45.5910 C   0  0  0  0  0  0  0  0  0  0  0  0
   60.3640   28.0750   45.9580 C   0  0  0  0  0  0  0  0  0  0  0  0
   60.5570   28.7520   47.1650 C   0  0  0  0  0  0  0  0  0  0  0  0
   59.4740   28.9880   48.0240 C   0  0  0  0  0  0  0  0  0  0  0  0
   59.6680   29.7200   49.2460 N   0  0  0  0  0  0  0  0  0  0  0  0
   58.5440   30.3920   49.9100 C   0  0  0  0  0  0  0  0  0  0  0  0
   58.7300   31.9120   49.8220 C   0  0  0  0  0  0  0  0  0  0  0  0
   60.1520   32.2810   49.9100 N   0  0  0  0  0  0  0  0  0  0  0  0
   60.5540   33.5860   49.4520 C   0  0  0  0  0  0  0  0  0  0  0  0
   59.7600   34.5580   49.5800 O   0  0  0  0  0  0  0  0  0  0  0  0
   61.8800   33.8270   48.7850 C   0  0  0  0  0  0  0  0  0  0  0  0
   61.7650   33.7740   46.9560 S   0  0  0  0  0  0  0  0  0  0  0  0
   60.8900   32.1730   46.7930 C   0  0  0  0  0  0  0  0  0  0  0  0
   59.5040   32.3630   46.2430 C   0  0  0  0  0  0  0  0  0  0  0  0
   58.8070   33.5610   46.4700 C   0  0  0  0  0  0  0  0  0  0  0  0
   57.5260   33.7390   45.9410 C   0  0  0  0  0  0  0  0  0  0  0  0
   56.9300   32.7260   45.1880 C   0  0  0  0  0  0  0  0  0  0  0  0
   57.6110   31.5220   44.9630 C   0  0  0  0  0  0  0  0  0  0  0  0
   56.8640   30.2540   43.9960 S   0  0  0  0  0  0  0  0  0  0  0  0
   55.5810   29.5210   44.8930 N   0  0  0  0  0  0  0  0  0  0  0  0
   56.3150   30.8350   42.7230 O   0  0  0  0  0  0  0  0  0  0  0  0
   57.8910   29.2130   43.6470 O   0  0  0  0  0  0  0  0  0  0  0  0
   58.9000   31.3470   45.4870 C   0  0  0  0  0  0  0  0  0  0  0  0
   61.1120   31.3200   50.4750 C   0  0  0  0  0  0  0  0  0  0  0  0
   61.0350   29.9870   49.7130 C   0  0  0  0  0  0  0  0  0  0  0  0
   58.1900   28.5580   47.6480 C   0  0  0  0  0  0  0  0  0  0  0  0
   56.1999   25.6932   46.9456 H   0  0  0  0  0  0  0  0  0  0  0  0
   55.3615   26.0254   45.3921 H   0  0  0  0  0  0  0  0  0  0  0  0
   57.0841   25.5161   45.3921 H   0  0  0  0  0  0  0  0  0  0  0  0
   58.9427   27.1097   44.6404 H   0  0  0  0  0  0  0  0  0  0  0  0
   61.2200   27.8809   45.2950 H   0  0  0  0  0  0  0  0  0  0  0  0
   61.5625   29.1012   47.4425 H   0  0  0  0  0  0  0  0  0  0  0  0
   57.6036   30.1088   49.4146 H   0  0  0  0  0  0  0  0  0  0  0  0
   58.5089   30.0884   50.9667 H   0  0  0  0  0  0  0  0  0  0  0  0
   58.3258   32.2678   48.8628 H   0  0  0  0  0  0  0  0  0  0  0  0
   58.1971   32.3771   50.6644 H   0  0  0  0  0  0  0  0  0  0  0  0
   62.2519   34.8173   49.0866 H   0  0  0  0  0  0  0  0  0  0  0  0
   62.5638   33.0252   49.1005 H   0  0  0  0  0  0  0  0  0  0  0  0
   61.4590   31.5210   46.1139 H   0  0  0  0  0  0  0  0  0  0  0  0
   60.8087   31.7180   47.7912 H   0  0  0  0  0  0  0  0  0  0  0  0
   59.2707   34.3611   47.0657 H   0  0  0  0  0  0  0  0  0  0  0  0
   56.9855   34.6805   46.1185 H   0  0  0  0  0  0  0  0  0  0  0  0
   55.9232   32.8731   44.7701 H   0  0  0  0  0  0  0  0  0  0  0  0
   55.8720   29.5200   45.8970 H   0  0  0  0  0  0  0  0  0  0  0  0
   55.5320   28.5200   44.5940 H   0  0  0  0  0  0  0  0  0  0  0  0
   59.4411   30.4069   45.3041 H   0  0  0  0  0  0  0  0  0  0  0  0
   62.1294   31.7294   50.3902 H   0  0  0  0  0  0  0  0  0  0  0  0
   60.8662   31.1449   51.5328 H   0  0  0  0  0  0  0  0  0  0  0  0
   61.7087   30.0308   48.8445 H   0  0  0  0  0  0  0  0  0  0  0  0
   61.3341   29.1779   50.3956 H   0  0  0  0  0  0  0  0  0  0  0  0
   57.3349   28.7464   48.3138 H   0  0  0  0  0  0  0  0  0  0  0  0
  1  2  1  0
  2  3  1  0
  3  4  2  0
  4  5  1  0
  5  6  2  0
  6  7  1  0
  7  8  1  0
  8  9  1  0
  9 10  1  0
 10 11  1  0
 11 12  1  0
 12 13  2  0
 12 14  1  0
 14 15  1  0
 15 16  1  0
 16 17  1  0
 17 18  2  0
 18 19  1  0
 19 20  2  0
 20 21  1  0
 21 22  1  0
 22 23  1  0
 22 24  2  0
 22 25  2  0
 21 26  2  0
 11 27  1  0
 27 28  1  0
  7 29  2  0
 29  3  1  0
 28  8  1  0
 26 17  1  0
  1 30  1  0
  1 31  1  0
  1 32  1  0
  4 33  1  0
  5 34  1  0
  6 35  1  0
  9 36  1  0
  9 37  1  0
 10 38  1  0
 10 39  1  0
 14 40  1  0
 14 41  1  0
 16 42  1  0
 16 43  1  0
 18 44  1  0
 19 45  1  0
 20 46  1  0
 23 47  1  0
 23 48  1  0
 26 49  1  0
 27 50  1  0
 27 51  1  0
 28 52  1  0
 28 53  1  0
 29 54  1  0
M  END
>  <UniqueID>  (59) 
55

>  <SMILES>  (59) 
COc1cccc(N2CCN(C(=O)CSCc3cccc(S(N)(=O)=O)c3)CC2)c1

>  <Energy>  (59) 
54.55398264006974

>  <Genealogy>  (59) 
COc1cccc(N2CCN(C(=O)CSCc3cccc(S(N)(=O)=O)c3)CC2)c1 (3D coordinates assigned)
COc1cccc(N2CCN(C(=O)CSCc3cccc(S(N)(=O)=O)c3)CC2)c1 (nonaromatic ring conformer: 54.55398264006974 kcal/mol)

>  <smiles>  (59) 
COc1cccc(N2CCN(C(=O)CSCc3cccc(S(N)(=O)=O)c3)CC2)c1

>  <score_type>  (59) 
oracle

>  <origin>  (59) 
adg

>  <m_score__min__energy>  (59) 
-9.4700000000000006

>  <m_primary>  (59) 
energy

$$$$
59:0
     RDKit          3D

 58 60  0  0  0  0  0  0  0  0999 V2000
   56.0350   21.9770   48.3420 C   0  0  0  0  0  0  0  0  0  0  0  0
   57.0760   22.4560   47.4980 O   0  0  0  0  0  0  0  0  0  0  0  0
   57.0360   22.4370   46.0940 C   0  0  0  0  0  0  0  0  0  0  0  0
   57.7760   21.5000   45.3430 C   0  0  0  0  0  0  0  0  0  0  0  0
   57.7200   21.5100   43.9480 C   0  0  0  0  0  0  0  0  0  0  0  0
   56.9370   22.4560   43.2860 C   0  0  0  0  0  0  0  0  0  0  0  0
   56.1990   23.3890   44.0160 C   0  0  0  0  0  0  0  0  0  0  0  0
   56.2370   23.3850   45.4210 C   0  0  0  0  0  0  0  0  0  0  0  0
   55.4340   24.4020   46.1950 C   0  0  0  0  0  0  0  0  0  0  0  0
   56.2890   25.1280   47.1280 N   0  0  0  0  0  0  0  0  0  0  0  0
   57.5600   25.6760   46.7690 C   0  0  0  0  0  0  0  0  0  0  0  0
   58.5880   24.9450   46.7620 O   0  0  0  0  0  0  0  0  0  0  0  0
   57.6710   27.1060   46.4450 C   0  0  0  0  0  0  0  0  0  0  0  0
   58.2480   27.8830   47.2520 O   0  0  0  0  0  0  0  0  0  0  0  0
   57.1610   27.6080   45.2010 N   0  0  0  0  0  0  0  0  0  0  0  0
   57.4980   28.9340   44.6840 C   0  0  0  0  0  0  0  0  0  0  0  0
   56.2960   29.8390   44.6730 C   0  0  0  0  0  0  0  0  0  0  0  0
   55.1560   29.3420   44.8740 O   0  0  0  0  0  0  0  0  0  0  0  0
   56.4090   31.2570   44.4940 N   0  0  0  0  0  0  0  0  0  0  0  0
   57.3420   32.1180   45.1580 C   0  0  0  0  0  0  0  0  0  0  0  0
   57.4160   33.4610   44.7710 C   0  0  0  0  0  0  0  0  0  0  0  0
   58.3750   34.3030   45.3360 C   0  0  0  0  0  0  0  0  0  0  0  0
   59.2880   33.8020   46.2660 C   0  0  0  0  0  0  0  0  0  0  0  0
   59.2340   32.4550   46.6570 C   0  0  0  0  0  0  0  0  0  0  0  0
   60.4790   31.8020   47.7320 S   0  0  0  0  0  0  0  0  0  0  0  0
   59.8150   31.0080   48.8230 O   0  0  0  0  0  0  0  0  0  0  0  0
   61.3340   30.8550   46.9370 O   0  0  0  0  0  0  0  0  0  0  0  0
   61.5170   33.0230   48.4460 N   0  0  0  0  0  0  0  0  0  0  0  0
   62.4120   32.4810   49.4880 C   0  0  0  0  0  0  0  0  0  0  0  0
   63.8250   32.1780   48.9580 C   0  0  0  0  0  0  0  0  0  0  0  0
   63.7930   31.9070   47.5760 O   0  0  0  0  0  0  0  0  0  0  0  0
   63.4580   33.0810   46.8590 C   0  0  0  0  0  0  0  0  0  0  0  0
   62.2340   33.8230   47.4400 C   0  0  0  0  0  0  0  0  0  0  0  0
   58.2500   31.6170   46.1070 C   0  0  0  0  0  0  0  0  0  0  0  0
   56.3255   22.1107   49.3945 H   0  0  0  0  0  0  0  0  0  0  0  0
   55.1120   22.5410   48.1419 H   0  0  0  0  0  0  0  0  0  0  0  0
   55.8629   20.9091   48.1419 H   0  0  0  0  0  0  0  0  0  0  0  0
   58.4011   20.7568   45.8596 H   0  0  0  0  0  0  0  0  0  0  0  0
   58.2941   20.7709   43.3700 H   0  0  0  0  0  0  0  0  0  0  0  0
   56.9012   22.4666   42.1866 H   0  0  0  0  0  0  0  0  0  0  0  0
   55.5835   24.1324   43.4882 H   0  0  0  0  0  0  0  0  0  0  0  0
   54.9791   25.1149   45.4916 H   0  0  0  0  0  0  0  0  0  0  0  0
   54.6520   23.8781   46.7642 H   0  0  0  0  0  0  0  0  0  0  0  0
   56.5750   26.9840   44.6060 H   0  0  0  0  0  0  0  0  0  0  0  0
   58.2761   29.3797   45.3211 H   0  0  0  0  0  0  0  0  0  0  0  0
   57.8575   28.8223   43.6504 H   0  0  0  0  0  0  0  0  0  0  0  0
   56.7160   33.8542   44.0191 H   0  0  0  0  0  0  0  0  0  0  0  0
   58.4116   35.3640   45.0479 H   0  0  0  0  0  0  0  0  0  0  0  0
   60.0532   34.4661   46.6943 H   0  0  0  0  0  0  0  0  0  0  0  0
   62.4915   33.2172   50.3014 H   0  0  0  0  0  0  0  0  0  0  0  0
   61.9781   31.5330   49.8386 H   0  0  0  0  0  0  0  0  0  0  0  0
   64.4728   33.0482   49.1400 H   0  0  0  0  0  0  0  0  0  0  0  0
   64.2161   31.2934   49.4820 H   0  0  0  0  0  0  0  0  0  0  0  0
   64.3217   33.7618   46.8806 H   0  0  0  0  0  0  0  0  0  0  0  0
   63.1976   32.7745   45.8352 H   0  0  0  0  0  0  0  0  0  0  0  0
   62.5774   34.7562   47.9104 H   0  0  0  0  0  0  0  0  0  0  0  0
   61.5381   34.0209   46.6114 H   0  0  0  0  0  0  0  0  0  0  0  0
   58.1897   30.5643   46.4202 H   0  0  0  0  0  0  0  0  0  0  0  0
  1  2  1  0
  2  3  1  0
  3  4  2  0
  4  5  1  0
  5  6  2  0
  6  7  1  0
  7  8  2  0
  8  9  1  0
  9 10  1  0
 10 11  1  0
 11 12  2  0
 11 13  1  0
 13 14  2  0
 13 15  1  0
 15 16  1  0
 16 17  1  0
 17 18  2  0
 17 19  1  0
 19 20  1  0
 20 21  2  0
 21 22  1  0
 22 23  2  0
 23 24  1  0
 24 25  1  0
 25 26  2  0
 25 27  2  0
 25 28  1  0
 28 29  1  0
 29 30  1  0
 30 31  1  0
 31 32  1  0
 32 33  1  0
 24 34  2  0
  8  3  1  0
 34 20  1  0
 33 28  1  0
  1 35  1  0
  1 36  1  0
  1 37  1  0
  4 38  1  0
  5 39  1  0
  6 40  1  0
  7 41  1  0
  9 42  1  0
  9 43  1  0
 15 44  1  0
 16 45  1  0
 16 46  1  0
 21 47  1  0
 22 48  1  0
 23 49  1  0
 29 50  1  0
 29 51  1  0
 30 52  1  0
 30 53  1  0
 32 54  1  0
 32 55  1  0
 33 56  1  0
 33 57  1  0
 34 58  1  0
M  CHG  2  10  -1  19  -1
M  END
>  <UniqueID>  (60) 
56

>  <SMILES>  (60) 
COc1ccccc1C[N-]C(=O)C(=O)NCC(=O)[N-]c1cccc(S(=O)(=O)N2CCOCC2)c1

>  <Energy>  (60) 
64.96592527453716

>  <Genealogy>  (60) 
COc1ccccc1C[N-]C(=O)C(=O)NCC(=O)[N-]c1cccc(S(=O)(=O)N2CCOCC2)c1 (protonated)
COc1ccccc1C[N-]C(=O)C(=O)NCC(=O)[N-]c1cccc(S(=O)(=O)N2CCOCC2)c1 (3D coordinates assigned)
COc1ccccc1C[N-]C(=O)C(=O)NCC(=O)[N-]c1cccc(S(=O)(=O)N2CCOCC2)c1 (nonaromatic ring conformer: 64.96592527453716 kcal/mol)

>  <smiles>  (60) 
COc1ccccc1CNC(=O)C(=O)NCC(=O)Nc1cccc(S(=O)(=O)N2CCOCC2)c1

>  <score_type>  (60) 
oracle

>  <origin>  (60) 
adg

>  <m_score__min__energy>  (60) 
-12.869999999999999

>  <m_primary>  (60) 
energy

$$$$
60:0
     RDKit          3D

 45 48  0  0  0  0  0  0  0  0999 V2000
   54.6865   27.8302   54.4360 H   0  0  0  0  0  0  0  0  0  0  0  0
   53.9830   28.3920   53.8040 C   0  0  0  0  0  0  0  0  0  0  0  0
   52.9270   28.0883   53.7523 H   0  0  0  0  0  0  0  0  0  0  0  0
   54.4130   29.4480   53.0960 C   0  0  0  0  0  0  0  0  0  0  0  0
   53.6450   30.2570   52.2530 C   0  0  0  0  0  0  0  0  0  0  0  0
   52.3210   30.1700   52.0230 C   0  0  0  0  0  0  0  0  0  0  0  0
   51.6981   29.6671   52.7774 H   0  0  0  0  0  0  0  0  0  0  0  0
   51.6550   30.7070   50.8230 C   0  0  0  0  0  0  0  0  0  0  0  0
   51.6220   30.0570   49.6460 N   0  0  0  0  0  0  0  0  0  0  0  0
   51.0010   30.9300   48.8220 C   0  0  0  0  0  0  0  0  0  0  0  0
   50.7680   30.6710   47.6130 O   0  0  0  0  0  0  0  0  0  0  0  0
   50.6610   32.1040   49.3940 N   0  0  0  0  0  0  0  0  0  0  0  0
   51.0920   31.9540   50.6570 C   0  0  0  0  0  0  0  0  0  0  0  0
   51.0140   32.9530   51.6180 O   0  0  0  0  0  0  0  0  0  0  0  0
   54.5100   31.2200   51.7420 C   0  0  0  0  0  0  0  0  0  0  0  0
   54.2511   32.0356   51.0508 H   0  0  0  0  0  0  0  0  0  0  0  0
   55.7570   30.9520   52.2720 C   0  0  0  0  0  0  0  0  0  0  0  0
   56.9780   31.7910   52.0570 C   0  0  0  0  0  0  0  0  0  0  0  0
   57.3998   32.0809   53.0307 H   0  0  0  0  0  0  0  0  0  0  0  0
   57.7243   31.2141   51.4912 H   0  0  0  0  0  0  0  0  0  0  0  0
   56.7070   32.6946   51.4912 H   0  0  0  0  0  0  0  0  0  0  0  0
   55.6980   29.8800   53.0920 N   0  0  0  0  0  0  0  0  0  0  0  0
   56.7910   29.3490   53.8560 C   0  0  0  0  0  0  0  0  0  0  0  0
   57.8190   28.6560   53.2050 C   0  0  0  0  0  0  0  0  0  0  0  0
   57.7899   28.5227   52.1135 H   0  0  0  0  0  0  0  0  0  0  0  0
   58.8890   28.1310   53.9520 C   0  0  0  0  0  0  0  0  0  0  0  0
   59.9680   27.4100   53.3190 N   0  0  0  0  0  0  0  0  0  0  0  0
   61.2930   28.0360   53.2210 C   0  0  0  0  0  0  0  0  0  0  0  0
   61.1726   29.1217   53.0914 H   0  0  0  0  0  0  0  0  0  0  0  0
   61.8565   27.8265   54.1421 H   0  0  0  0  0  0  0  0  0  0  0  0
   62.0630   27.4670   52.0260 C   0  0  0  0  0  0  0  0  0  0  0  0
   61.5802   27.7982   51.0948 H   0  0  0  0  0  0  0  0  0  0  0  0
   63.1004   27.8303   52.0689 H   0  0  0  0  0  0  0  0  0  0  0  0
   62.0750   26.0540   52.0650 O   0  0  0  0  0  0  0  0  0  0  0  0
   60.7600   25.5650   51.8910 C   0  0  0  0  0  0  0  0  0  0  0  0
   60.3402   25.9824   50.9639 H   0  0  0  0  0  0  0  0  0  0  0  0
   60.7977   24.4671   51.8353 H   0  0  0  0  0  0  0  0  0  0  0  0
   59.8680   25.9650   53.0700 C   0  0  0  0  0  0  0  0  0  0  0  0
   58.8238   25.7083   52.8383 H   0  0  0  0  0  0  0  0  0  0  0  0
   60.1991   25.4237   53.9685 H   0  0  0  0  0  0  0  0  0  0  0  0
   58.8970   28.3040   55.3040 N   0  0  0  0  0  0  0  0  0  0  0  0
   57.9130   28.9750   55.9580 C   0  0  0  0  0  0  0  0  0  0  0  0
   57.9621   29.0930   57.0506 H   0  0  0  0  0  0  0  0  0  0  0  0
   56.8400   29.5150   55.2470 C   0  0  0  0  0  0  0  0  0  0  0  0
   55.5870   30.4010   56.1050 Cl  0  0  0  0  0  0  0  0  0  0  0  0
  1  2  1  0
  2  3  1  0
  2  4  2  0
  4  5  1  0
  5  6  2  0
  6  7  1  0
  6  8  1  0
  8  9  1  0
  9 10  1  0
 10 11  2  0
 10 12  1  0
 12 13  1  0
 13 14  1  0
  5 15  1  0
 15 16  1  0
 15 17  2  0
 17 18  1  0
 18 19  1  0
 18 20  1  0
 18 21  1  0
 17 22  1  0
 22 23  1  0
 23 24  2  0
 24 25  1  0
 24 26  1  0
 26 27  1  0
 27 28  1  0
 28 29  1  0
 28 30  1  0
 28 31  1  0
 31 32  1  0
 31 33  1  0
 31 34  1  0
 34 35  1  0
 35 36  1  0
 35 37  1  0
 35 38  1  0
 38 39  1  0
 38 40  1  0
 26 41  2  0
 41 42  1  0
 42 43  1  0
 42 44  2  0
 44 45  1  0
 22  4  1  0
 44 23  1  0
 13  8  2  0
 38 27  1  0
M  CHG  3   9  -1  12  -1  14  -1
M  END
>  <UniqueID>  (61) 
57

>  <SMILES>  (61) 
C=c1/c(=C/c2[n-]c(=O)[n-]c2[O-])cc(C)n1-c1cc(N2CCOCC2)ncc1Cl

>  <Energy>  (61) 
124.31037235788972

>  <Genealogy>  (61) 
C=c1c(=Cc2[n-]c(=O)[n-]c2[O-])cc(C)n1-c1cc(N2CCOCC2)ncc1Cl (protonated)
C=c1/c(=C/c2[n-]c(=O)[n-]c2[O-])cc(C)n1-c1cc(N2CCOCC2)ncc1Cl (cis-trans isomerization)
C=c1/c(=C/c2[n-]c(=O)[n-]c2[O-])cc(C)n1-c1cc(N2CCOCC2)ncc1Cl (3D coordinates assigned)
C=c1/c(=C/c2[n-]c(=O)[n-]c2[O-])cc(C)n1-c1cc(N2CCOCC2)ncc1Cl (nonaromatic ring conformer: 124.31037235788972 kcal/mol)

>  <smiles>  (61) 
C=c1c(=Cc2[nH]c(=O)[nH]c2O)cc(C)n1-c1cc(N2CCOCC2)ncc1Cl

>  <score_type>  (61) 
oracle

>  <origin>  (61) 
adg

>  <m_score__min__energy>  (61) 
-15.66

>  <m_primary>  (61) 
energy

$$$$
61:0
     RDKit          3D

 35 37  0  0  1  0  0  0  0  0999 V2000
   55.7070   30.4490   44.5270 O   0  0  0  0  0  0  0  0  0  0  0  0
   56.7860   30.2690   43.9190 C   0  0  0  0  0  0  0  0  0  0  0  0
   57.5470   31.4590   43.4940 C   0  0  0  0  0  0  0  0  0  0  0  0
   57.9010   32.3530   44.5990 C   0  0  0  0  0  0  0  0  0  0  0  0
   58.3990   33.6170   44.2660 C   0  0  0  0  0  0  0  0  0  0  0  0
   58.7620   34.5370   45.2260 C   0  0  0  0  0  0  0  0  0  0  0  0
   58.6340   34.2070   46.5680 C   0  0  0  0  0  0  0  0  0  0  0  0
   58.1440   32.9590   46.9190 C   0  0  0  0  0  0  0  0  0  0  0  0
   57.7770   32.0320   45.9390 C   0  0  0  0  0  0  0  0  0  0  0  0
   57.3110   28.9910   43.6210 N   0  0  0  0  0  0  0  0  0  0  0  0
   57.6910   28.2270   44.5540 C   0  0  0  0  0  0  0  0  0  0  0  0
   57.2100   27.1070   45.1060 N   0  0  0  0  0  0  0  0  0  0  0  0
   57.7990   26.5110   46.0630 C   0  0  0  0  0  0  0  0  0  0  0  0
   57.2970   25.2370   46.7250 C   0  0  0  0  0  0  0  0  0  0  0  0
   55.9440   24.8740   46.2380 C   0  0  0  0  0  0  0  0  0  0  0  0
   54.9960   25.8200   45.9870 N   0  0  0  0  0  0  0  0  0  0  0  0
   53.8870   25.1940   45.5640 N   0  0  0  0  0  0  0  0  0  0  0  0
   54.1580   23.8800   45.5570 C   0  0  0  0  0  0  0  0  0  0  0  0
   53.3610   22.9660   45.2180 O   0  0  0  0  0  0  0  0  0  0  0  0
   55.4310   23.6590   45.9730 N   0  0  0  0  0  0  0  0  0  0  0  0
   59.0140   27.0520   46.5710 C   0  0  0  0  0  0  0  0  0  0  0  0
   59.2630   28.5490   45.5250 S   0  0  0  0  0  0  0  0  0  0  0  0
   58.4746   31.1233   43.0072 H   0  0  0  0  0  0  0  0  0  0  0  0
   56.8998   32.0295   42.8116 H   0  0  0  0  0  0  0  0  0  0  0  0
   58.5042   33.8853   43.2044 H   0  0  0  0  0  0  0  0  0  0  0  0
   59.1495   35.5234   44.9313 H   0  0  0  0  0  0  0  0  0  0  0  0
   58.9191   34.9299   47.3465 H   0  0  0  0  0  0  0  0  0  0  0  0
   58.0426   32.6946   47.9819 H   0  0  0  0  0  0  0  0  0  0  0  0
   57.3890   31.0458   46.2338 H   0  0  0  0  0  0  0  0  0  0  0  0
   56.2730   26.7310   44.6800 H   0  0  0  0  0  0  0  0  0  0  0  0
   57.9925   24.4161   46.4960 H   0  0  0  0  0  0  0  0  0  0  0  0
   57.2411   25.4083   47.8101 H   0  0  0  0  0  0  0  0  0  0  0  0
   53.0070   25.7040   45.3020 H   0  0  0  0  0  0  0  0  0  0  0  0
   55.9430   22.7690   46.0800 H   0  0  0  0  0  0  0  0  0  0  0  0
   59.6472   26.6710   47.3858 H   0  0  0  0  0  0  0  0  0  0  0  0
  1  2  2  0
  2  3  1  0
  3  4  1  0
  4  5  2  0
  5  6  1  0
  6  7  2  0
  7  8  1  0
  8  9  2  0
  2 10  1  0
 10 11  2  0
 11 12  1  0
 12 13  1  0
 13 14  1  0
 14 15  1  0
 15 16  2  0
 16 17  1  0
 17 18  1  0
 18 19  2  0
 18 20  1  0
 13 21  2  0
 21 22  1  0
  9  4  1  0
 22 11  1  0
 20 15  1  0
  3 23  1  0
  3 24  1  0
  5 25  1  0
  6 26  1  0
  7 27  1  0
  8 28  1  0
  9 29  1  0
 12 30  1  0
 14 31  1  0
 14 32  1  0
 17 33  1  0
 20 34  1  0
 21 35  1  0
M  END
>  <smiles>  (62) 
O=C(Cc1ccccc1)N=c1[nH]c(Cc2n[nH]c(=O)[nH]2)cs1

>  <score_type>  (62) 
oracle

>  <origin>  (62) 
adg

>  <m_score__min__energy>  (62) 
-8.2799999999999994

>  <m_primary>  (62) 
energy

$$$$
62:0
     RDKit          3D

 54 56  0  0  0  0  0  0  0  0999 V2000
   61.1341   27.3694   46.4579 H   0  0  0  0  0  0  0  0  0  0  0  0
   60.1160   27.7620   46.3190 C   0  0  0  0  0  0  0  0  0  0  0  0
   59.2440   27.7570   44.8820 S   0  0  0  0  0  0  0  0  0  0  0  0
   57.9000   28.5060   45.5710 C   0  0  0  0  0  0  0  0  0  0  0  0
   56.7800   28.7920   44.9730 N   0  0  0  0  0  0  0  0  0  0  0  0
   56.3890   30.0630   44.4270 C   0  0  0  0  0  0  0  0  0  0  0  0
   55.1930   30.4580   44.4850 O   0  0  0  0  0  0  0  0  0  0  0  0
   57.4130   30.9130   43.7420 C   0  0  0  0  0  0  0  0  0  0  0  0
   58.2846   30.2934   43.4843 H   0  0  0  0  0  0  0  0  0  0  0  0
   56.9698   31.3402   42.8304 H   0  0  0  0  0  0  0  0  0  0  0  0
   57.8520   32.0360   44.6440 C   0  0  0  0  0  0  0  0  0  0  0  0
   57.8330   33.3650   44.1920 C   0  0  0  0  0  0  0  0  0  0  0  0
   57.4660   33.5953   43.1809 H   0  0  0  0  0  0  0  0  0  0  0  0
   58.2790   34.3960   45.0230 C   0  0  0  0  0  0  0  0  0  0  0  0
   58.2471   35.4373   44.6699 H   0  0  0  0  0  0  0  0  0  0  0  0
   58.7650   34.1090   46.3000 C   0  0  0  0  0  0  0  0  0  0  0  0
   59.1115   34.9261   46.9498 H   0  0  0  0  0  0  0  0  0  0  0  0
   58.8140   32.7810   46.7600 C   0  0  0  0  0  0  0  0  0  0  0  0
   59.3640   32.4730   48.0990 C   0  0  0  0  0  0  0  0  0  0  0  0
   58.5900   32.0710   49.0100 O   0  0  0  0  0  0  0  0  0  0  0  0
   60.7650   32.6280   48.3830 N   0  0  0  0  0  0  0  0  0  0  0  0
   61.4890   31.5330   49.0450 C   0  0  0  0  0  0  0  0  0  0  0  0
   60.7787   30.9534   49.6529 H   0  0  0  0  0  0  0  0  0  0  0  0
   61.9469   30.9068   48.2651 H   0  0  0  0  0  0  0  0  0  0  0  0
   62.6140   32.0570   49.9580 C   0  0  2  0  0  0  0  0  0  0  0  0
   63.2335   31.1914   50.2355 H   0  0  0  0  0  0  0  0  0  0  0  0
   62.0380   32.6610   51.2480 C   0  0  0  0  0  0  0  0  0  0  0  0
   62.5015   32.1750   52.1192 H   0  0  0  0  0  0  0  0  0  0  0  0
   62.2500   33.7400   51.2742 H   0  0  0  0  0  0  0  0  0  0  0  0
   60.9501   32.5004   51.2742 H   0  0  0  0  0  0  0  0  0  0  0  0
   63.5610   33.0490   49.2300 C   0  0  0  0  0  0  0  0  0  0  0  0
   63.8927   33.8009   49.9611 H   0  0  0  0  0  0  0  0  0  0  0  0
   64.3812   32.4414   48.8200 H   0  0  0  0  0  0  0  0  0  0  0  0
   62.9360   33.7970   48.0230 C   0  0  1  0  0  0  0  0  0  0  0  0
   63.3509   34.8157   48.0383 H   0  0  0  0  0  0  0  0  0  0  0  0
   63.3330   33.1520   46.6850 C   0  0  0  0  0  0  0  0  0  0  0  0
   63.9008   32.2296   46.8768 H   0  0  0  0  0  0  0  0  0  0  0  0
   62.4263   32.9117   46.1105 H   0  0  0  0  0  0  0  0  0  0  0  0
   63.9560   33.8533   46.1105 H   0  0  0  0  0  0  0  0  0  0  0  0
   61.4090   33.9300   48.1460 C   0  0  0  0  0  0  0  0  0  0  0  0
   61.1764   34.6006   48.9863 H   0  0  0  0  0  0  0  0  0  0  0  0
   61.0234   34.3352   47.1988 H   0  0  0  0  0  0  0  0  0  0  0  0
   58.3330   31.7540   45.9320 C   0  0  0  0  0  0  0  0  0  0  0  0
   58.3332   30.7164   46.2971 H   0  0  0  0  0  0  0  0  0  0  0  0
   58.0950   28.7610   46.8810 N   0  0  0  0  0  0  0  0  0  0  0  0
   59.3220   28.3520   47.3070 C   0  0  0  0  0  0  0  0  0  0  0  0
   59.7440   28.5540   48.7080 C   0  0  0  0  0  0  0  0  0  0  0  0
   60.7820   27.9670   49.1200 O   0  0  0  0  0  0  0  0  0  0  0  0
   59.0080   29.4040   49.6010 N   0  0  0  0  0  0  0  0  0  0  0  0
   58.2000   29.9670   49.2560 H   0  0  0  0  0  0  0  0  0  0  0  0
   59.3830   29.5390   51.0040 C   0  0  0  0  0  0  0  0  0  0  0  0
   58.5386   29.2350   51.6401 H   0  0  0  0  0  0  0  0  0  0  0  0
   60.2508   28.8968   51.2150 H   0  0  0  0  0  0  0  0  0  0  0  0
   59.6424   30.5869   51.2150 H   0  0  0  0  0  0  0  0  0  0  0  0
  1  2  1  0
  2  3  1  0
  3  4  1  0
  4  5  2  0
  5  6  1  0
  6  7  2  0
  6  8  1  0
  8  9  1  0
  8 10  1  0
  8 11  1  0
 11 12  2  0
 12 13  1  0
 12 14  1  0
 14 15  1  0
 14 16  2  0
 16 17  1  0
 16 18  1  0
 18 19  1  0
 19 20  2  0
 19 21  1  0
 21 22  1  0
 22 23  1  0
 22 24  1  0
 22 25  1  0
 25 26  1  1
 25 27  1  0
 27 28  1  0
 27 29  1  0
 27 30  1  0
 25 31  1  0
 31 32  1  0
 31 33  1  0
 31 34  1  0
 34 35  1  6
 34 36  1  0
 36 37  1  0
 36 38  1  0
 36 39  1  0
 34 40  1  0
 40 41  1  0
 40 42  1  0
 18 43  2  0
 43 44  1  0
  4 45  1  0
 45 46  1  0
 46 47  1  0
 47 48  2  0
 47 49  1  0
 49 50  1  0
 49 51  1  0
 51 52  1  0
 51 53  1  0
 51 54  1  0
 46  2  2  0
 43 11  1  0
 40 21  1  0
M  CHG  1  45  -1
M  END
>  <UniqueID>  (63) 
58

>  <SMILES>  (63) 
CNC(=O)c1cs/c(=N\C(=O)Cc2cccc(C(=O)N3C[C@H](C)C[C@@H](C)C3)c2)[n-]1

>  <Energy>  (63) 
88.72648595354549

>  <Genealogy>  (63) 
CNC(=O)c1csc(=NC(=O)Cc2cccc(C(=O)N3CC(C)CC(C)C3)c2)[n-]1 (protonated)
CNC(=O)c1csc(=NC(=O)Cc2cccc(C(=O)N3C[C@H](C)C[C@@H](C)C3)c2)[n-]1 (chirality)
CNC(=O)c1cs/c(=N\C(=O)Cc2cccc(C(=O)N3C[C@H](C)C[C@@H](C)C3)c2)[n-]1 (cis-trans isomerization)
CNC(=O)c1cs/c(=N\C(=O)Cc2cccc(C(=O)N3C[C@H](C)C[C@@H](C)C3)c2)[n-]1 (3D coordinates assigned)
CNC(=O)c1cs/c(=N\C(=O)Cc2cccc(C(=O)N3C[C@H](C)C[C@@H](C)C3)c2)[n-]1 (nonaromatic ring conformer: 88.72648595354549 kcal/mol)

>  <smiles>  (63) 
CNC(=O)c1csc(=NC(=O)Cc2cccc(C(=O)N3CC(C)CC(C)C3)c2)[nH]1

>  <score_type>  (63) 
oracle

>  <origin>  (63) 
adg

>  <m_score__min__energy>  (63) 
-11.42

>  <m_primary>  (63) 
energy

$$$$
63:0
     RDKit          3D

 55 56  0  0  0  0  0  0  0  0999 V2000
   57.1750   33.5678   43.5358 H   0  0  0  0  0  0  0  0  0  0  0  0
   57.6770   33.6720   44.5090 C   0  0  0  0  0  0  0  0  0  0  0  0
   57.0140   33.2990   45.6810 C   0  0  0  0  0  0  0  0  0  0  0  0
   55.9907   32.8989   45.6286 H   0  0  0  0  0  0  0  0  0  0  0  0
   57.6480   33.4330   46.9210 C   0  0  0  0  0  0  0  0  0  0  0  0
   57.1191   33.1429   47.8408 H   0  0  0  0  0  0  0  0  0  0  0  0
   58.9560   33.9360   46.9960 C   0  0  0  0  0  0  0  0  0  0  0  0
   59.6600   34.0590   48.3300 C   0  0  0  0  0  0  0  0  0  0  0  0
   59.0660   34.7113   48.9871 H   0  0  0  0  0  0  0  0  0  0  0  0
   60.6595   34.4820   48.1510 H   0  0  0  0  0  0  0  0  0  0  0  0
   59.8300   32.7330   48.9920 N   0  0  2  0  0  0  0  0  0  0  0  0
   59.3020   31.9970   48.4720 H   0  0  0  0  0  0  0  0  0  0  0  0
   59.2630   32.7630   50.3530 C   0  0  0  0  0  0  0  0  0  0  0  0
   60.0778   32.7199   51.0907 H   0  0  0  0  0  0  0  0  0  0  0  0
   58.6916   33.6926   50.4917 H   0  0  0  0  0  0  0  0  0  0  0  0
   58.5967   31.8989   50.4917 H   0  0  0  0  0  0  0  0  0  0  0  0
   61.2590   32.3360   49.0560 C   0  0  0  0  0  0  0  0  0  0  0  0
   61.6705   32.6589   50.0237 H   0  0  0  0  0  0  0  0  0  0  0  0
   61.7748   32.8177   48.2122 H   0  0  0  0  0  0  0  0  0  0  0  0
   61.4630   30.8130   48.9170 C   0  0  0  0  0  0  0  0  0  0  0  0
   62.2628   30.4929   49.6011 H   0  0  0  0  0  0  0  0  0  0  0  0
   61.7356   30.5888   47.8752 H   0  0  0  0  0  0  0  0  0  0  0  0
   60.2630   30.1060   49.2370 O   0  0  0  0  0  0  0  0  0  0  0  0
   59.4500   29.4630   48.2970 C   0  0  0  0  0  0  0  0  0  0  0  0
   58.8190   30.2010   47.3490 N   0  0  0  0  0  0  0  0  0  0  0  0
   58.0370   29.6020   46.4160 C   0  0  0  0  0  0  0  0  0  0  0  0
   57.4770   30.3310   45.4950 N   0  0  0  0  0  0  0  0  0  0  0  0
   57.1500   29.9230   44.1550 C   0  0  0  0  0  0  0  0  0  0  0  0
   56.6890   28.5880   43.9360 N   0  0  0  0  0  0  0  0  0  0  0  0
   56.4350   28.2570   42.9800 H   0  0  0  0  0  0  0  0  0  0  0  0
   56.5850   27.9320   44.7420 H   0  0  0  0  0  0  0  0  0  0  0  0
   57.3470   30.7120   43.1400 N   0  0  0  0  0  0  0  0  0  0  0  0
   58.0560   30.4760   42.4110 H   0  0  0  0  0  0  0  0  0  0  0  0
   56.8470   31.6210   43.0480 H   0  0  0  0  0  0  0  0  0  0  0  0
   57.8990   28.2490   46.4290 N   0  0  0  0  0  0  0  0  0  0  0  0
   58.5170   27.5030   47.3820 C   0  0  0  0  0  0  0  0  0  0  0  0
   58.4040   26.2080   47.3990 N   0  0  0  0  0  0  0  0  0  0  0  0
   57.1770   25.4650   47.1170 C   0  0  0  0  0  0  0  0  0  0  0  0
   56.4913   25.5614   47.9717 H   0  0  0  0  0  0  0  0  0  0  0  0
   57.4323   24.4079   46.9517 H   0  0  0  0  0  0  0  0  0  0  0  0
   56.5100   25.9980   45.8890 C   0  0  0  0  0  0  0  0  0  0  0  0
   55.3830   26.5590   45.9870 O   0  0  0  0  0  0  0  0  0  0  0  0
   57.1080   25.8060   44.6380 O   0  0  0  0  0  0  0  0  0  0  0  0
   57.6410   24.5540   44.2080 C   0  0  0  0  0  0  0  0  0  0  0  0
   57.9106   23.9556   45.0907 H   0  0  0  0  0  0  0  0  0  0  0  0
   58.5283   24.7457   43.5867 H   0  0  0  0  0  0  0  0  0  0  0  0
   56.6230   23.7840   43.3760 C   0  0  0  0  0  0  0  0  0  0  0  0
   55.9264   23.2571   44.0446 H   0  0  0  0  0  0  0  0  0  0  0  0
   56.0620   24.4858   42.7414 H   0  0  0  0  0  0  0  0  0  0  0  0
   57.1457   23.0532   42.7414 H   0  0  0  0  0  0  0  0  0  0  0  0
   59.2840   28.1150   48.3170 N   0  0  0  0  0  0  0  0  0  0  0  0
   59.6200   34.3010   45.8110 C   0  0  0  0  0  0  0  0  0  0  0  0
   60.6495   34.6857   45.8567 H   0  0  0  0  0  0  0  0  0  0  0  0
   58.9770   34.1770   44.5740 C   0  0  0  0  0  0  0  0  0  0  0  0
   59.4964   34.4777   43.6522 H   0  0  0  0  0  0  0  0  0  0  0  0
  1  2  1  0
  2  3  2  0
  3  4  1  0
  3  5  1  0
  5  6  1  0
  5  7  2  0
  7  8  1  0
  8  9  1  0
  8 10  1  0
  8 11  1  0
 11 12  1  6
 11 13  1  0
 13 14  1  0
 13 15  1  0
 13 16  1  0
 11 17  1  0
 17 18  1  0
 17 19  1  0
 17 20  1  0
 20 21  1  0
 20 22  1  0
 20 23  1  0
 23 24  1  0
 24 25  2  0
 25 26  1  0
 26 27  2  3
 27 28  1  0
 28 29  1  0
 29 30  1  0
 29 31  1  0
 28 32  2  0
 32 33  1  0
 32 34  1  0
 26 35  1  0
 35 36  1  0
 36 37  2  0
 37 38  1  0
 38 39  1  0
 38 40  1  0
 38 41  1  0
 41 42  2  0
 41 43  1  0
 43 44  1  0
 44 45  1  0
 44 46  1  0
 44 47  1  0
 47 48  1  0
 47 49  1  0
 47 50  1  0
 36 51  1  0
  7 52  1  0
 52 53  1  0
 52 54  2  0
 54 55  1  0
 54  2  1  0
 51 24  1  0
M  CHG  4  11   1  32   1  35  -1  51  -1
M  END
>  <UniqueID>  (64) 
59

>  <SMILES>  (64) 
CCOC(=O)C/N=c1/[n-]c(OCC[N@@H+](C)Cc2ccccc2)nc(=NC(N)=[NH2+])[n-]1

>  <Energy>  (64) 
54.05547008649614

>  <Genealogy>  (64) 
CCOC(=O)CN=c1[n-]c(OCC[NH+](C)Cc2ccccc2)nc(=NC(N)=[NH2+])[n-]1 (protonated)
CCOC(=O)CN=c1[n-]c(OCC[N@@H+](C)Cc2ccccc2)nc(=NC(N)=[NH2+])[n-]1 (chirality)
CCOC(=O)C/N=c1/[n-]c(OCC[N@@H+](C)Cc2ccccc2)nc(=NC(N)=[NH2+])[n-]1 (cis-trans isomerization)
CCOC(=O)C/N=c1/[n-]c(OCC[N@@H+](C)Cc2ccccc2)nc(=NC(N)=[NH2+])[n-]1 (3D coordinates assigned)
CCOC(=O)C/N=c1/[n-]c(OCC[N@@H+](C)Cc2ccccc2)nc(=NC(N)=[NH2+])[n-]1 (optimized conformer: 54.05547008649614 kcal/mol)

>  <smiles>  (64) 
CCOC(=O)CN=c1[nH]c(OCCN(C)Cc2ccccc2)nc(=NC(=N)N)[nH]1

>  <score_type>  (64) 
oracle

>  <origin>  (64) 
adg

>  <m_score__min__energy>  (64) 
-8.1600000000000001

>  <m_primary>  (64) 
energy

$$$$
64:0
     RDKit          3D

 38 40  0  0  0  0  0  0  0  0999 V2000
   56.9682   31.0737   51.8767 H   0  0  0  0  0  0  0  0  0  0  0  0
   55.8880   31.1840   52.0530 C   0  0  0  0  0  0  0  0  0  0  0  0
   55.3684   32.0979   51.7293 H   0  0  0  0  0  0  0  0  0  0  0  0
   55.2030   30.2020   52.6640 C   0  0  0  0  0  0  0  0  0  0  0  0
   53.8310   30.2240   52.9440 C   0  0  0  0  0  0  0  0  0  0  0  0
   52.9470   31.1990   52.6490 C   0  0  0  0  0  0  0  0  0  0  0  0
   52.7341   31.9527   53.4214 H   0  0  0  0  0  0  0  0  0  0  0  0
   52.2480   31.3180   51.3560 C   0  0  0  0  0  0  0  0  0  0  0  0
   52.2410   30.3430   50.4300 N   0  0  0  0  0  0  0  0  0  0  0  0
   51.4060   30.8160   49.4800 C   0  0  0  0  0  0  0  0  0  0  0  0
   51.1410   30.1760   48.4300 O   0  0  0  0  0  0  0  0  0  0  0  0
   50.8600   32.0200   49.7540 N   0  0  0  0  0  0  0  0  0  0  0  0
   51.3920   32.3200   50.9500 C   0  0  0  0  0  0  0  0  0  0  0  0
   51.0540   33.4540   51.6790 O   0  0  0  0  0  0  0  0  0  0  0  0
   53.5610   29.0690   53.6580 C   0  0  0  0  0  0  0  0  0  0  0  0
   52.5838   28.7564   54.0546 H   0  0  0  0  0  0  0  0  0  0  0  0
   54.7510   28.3870   53.7760 C   0  0  0  0  0  0  0  0  0  0  0  0
   54.9040   27.1130   54.5530 C   0  0  0  0  0  0  0  0  0  0  0  0
   54.8773   27.3350   55.6300 H   0  0  0  0  0  0  0  0  0  0  0  0
   54.0817   26.4278   54.2994 H   0  0  0  0  0  0  0  0  0  0  0  0
   55.8652   26.6420   54.2994 H   0  0  0  0  0  0  0  0  0  0  0  0
   55.7520   29.0460   53.1360 N   0  0  0  0  0  0  0  0  0  0  0  0
   57.1680   28.6270   53.0920 C   0  0  0  0  0  0  0  0  0  0  0  0
   57.3191   27.8112   53.8143 H   0  0  0  0  0  0  0  0  0  0  0  0
   57.3923   28.2987   52.0664 H   0  0  0  0  0  0  0  0  0  0  0  0
   58.1110   29.7650   53.4350 C   0  0  0  0  0  0  0  0  0  0  0  0
   58.0560   30.3050   54.7350 C   0  0  0  0  0  0  0  0  0  0  0  0
   57.2959   29.9413   55.4421 H   0  0  0  0  0  0  0  0  0  0  0  0
   58.9520   31.2940   55.1370 C   0  0  0  0  0  0  0  0  0  0  0  0
   58.8987   31.7008   56.1576 H   0  0  0  0  0  0  0  0  0  0  0  0
   59.9140   31.7680   54.2500 C   0  0  0  0  0  0  0  0  0  0  0  0
   60.6304   32.5368   54.5752 H   0  0  0  0  0  0  0  0  0  0  0  0
   59.9700   31.2690   52.9500 C   0  0  0  0  0  0  0  0  0  0  0  0
   60.7315   31.6519   52.2547 H   0  0  0  0  0  0  0  0  0  0  0  0
   59.0660   30.2820   52.5140 C   0  0  0  0  0  0  0  0  0  0  0  0
   59.1510   29.8440   51.1030 C   0  0  0  0  0  0  0  0  0  0  0  0
   58.1210   29.7680   50.3860 O   0  0  0  0  0  0  0  0  0  0  0  0
   60.3890   29.5790   50.5300 O   0  0  0  0  0  0  0  0  0  0  0  0
  1  2  1  0
  2  3  1  0
  2  4  2  0
  4  5  1  0
  5  6  2  0
  6  7  1  0
  6  8  1  0
  8  9  1  0
  9 10  1  0
 10 11  2  0
 10 12  1  0
 12 13  1  0
 13 14  1  0
  5 15  1  0
 15 16  1  0
 15 17  2  0
 17 18  1  0
 18 19  1  0
 18 20  1  0
 18 21  1  0
 17 22  1  0
 22 23  1  0
 23 24  1  0
 23 25  1  0
 23 26  1  0
 26 27  2  0
 27 28  1  0
 27 29  1  0
 29 30  1  0
 29 31  2  0
 31 32  1  0
 31 33  1  0
 33 34  1  0
 33 35  2  0
 35 36  1  0
 36 37  2  0
 36 38  1  0
 22  4  1  0
 35 26  1  0
 13  8  2  0
M  CHG  4   9  -1  12  -1  14  -1  38  -1
M  END
>  <UniqueID>  (65) 
60

>  <SMILES>  (65) 
C=c1/c(=C/c2[n-]c(=O)[n-]c2[O-])cc(C)n1Cc1ccccc1C(=O)[O-]

>  <Energy>  (65) 
112.59229835899495

>  <Genealogy>  (65) 
C=c1c(=Cc2[n-]c(=O)[n-]c2[O-])cc(C)n1Cc1ccccc1C(=O)[O-] (protonated)
C=c1/c(=C/c2[n-]c(=O)[n-]c2[O-])cc(C)n1Cc1ccccc1C(=O)[O-] (cis-trans isomerization)
C=c1/c(=C/c2[n-]c(=O)[n-]c2[O-])cc(C)n1Cc1ccccc1C(=O)[O-] (3D coordinates assigned)
C=c1/c(=C/c2[n-]c(=O)[n-]c2[O-])cc(C)n1Cc1ccccc1C(=O)[O-] (optimized conformer: 112.59229835899495 kcal/mol)

>  <smiles>  (65) 
C=c1c(=Cc2[nH]c(=O)[nH]c2O)cc(C)n1Cc1ccccc1C(=O)O

>  <score_type>  (65) 
oracle

>  <origin>  (65) 
adg

>  <m_score__min__energy>  (65) 
-17.210000000000001

>  <m_primary>  (65) 
energy

$$$$
65:0
     RDKit          3D

 64 67  0  0  0  0  0  0  0  0999 V2000
   57.7620   23.9220   47.8170 O   0  0  0  0  0  0  0  0  0  0  0  0
   58.0940   24.6170   46.8180 C   0  0  0  0  0  0  0  0  0  0  0  0
   57.1540   24.7740   45.6580 C   0  0  0  0  0  0  0  0  0  0  0  0
   57.2410   26.1510   45.0530 C   0  0  0  0  0  0  0  0  0  0  0  0
   56.6360   27.2440   45.6940 C   0  0  0  0  0  0  0  0  0  0  0  0
   56.7530   28.5280   45.1570 C   0  0  0  0  0  0  0  0  0  0  0  0
   57.4710   28.7410   43.9700 C   0  0  0  0  0  0  0  0  0  0  0  0
   57.5840   30.0740   43.4500 N   0  0  0  0  0  0  0  0  0  0  0  0
   57.5760   31.2580   44.2640 C   0  0  0  0  0  0  0  0  0  0  0  0
   57.3790   31.1860   45.5050 O   0  0  0  0  0  0  0  0  0  0  0  0
   57.9090   32.5870   43.6530 C   0  0  0  0  0  0  0  0  0  0  0  0
   57.3700   33.7460   44.5010 C   0  0  0  0  0  0  0  0  0  0  0  0
   58.2760   34.0550   45.6690 C   0  0  0  0  0  0  0  0  0  0  0  0
   57.9540   33.5950   46.9570 C   0  0  0  0  0  0  0  0  0  0  0  0
   58.8340   33.8130   48.0220 C   0  0  0  0  0  0  0  0  0  0  0  0
   60.0380   34.4910   47.8070 C   0  0  0  0  0  0  0  0  0  0  0  0
   60.3620   34.9540   46.5310 C   0  0  0  0  0  0  0  0  0  0  0  0
   59.4870   34.7350   45.4620 C   0  0  0  0  0  0  0  0  0  0  0  0
   58.1060   27.6520   43.3480 C   0  0  0  0  0  0  0  0  0  0  0  0
   57.9870   26.3660   43.8830 C   0  0  0  0  0  0  0  0  0  0  0  0
   59.4140   25.1670   46.7220 N   0  0  0  0  0  0  0  0  0  0  0  0
   59.7770   26.5250   47.0010 C   0  0  0  0  0  0  0  0  0  0  0  0
   60.2270   27.3350   45.9500 C   0  0  0  0  0  0  0  0  0  0  0  0
   60.5750   28.6690   46.1810 C   0  0  0  0  0  0  0  0  0  0  0  0
   60.4570   29.2130   47.4680 C   0  0  0  0  0  0  0  0  0  0  0  0
   60.8960   30.8900   47.7830 S   0  0  0  0  0  0  0  0  0  0  0  0
   60.0390   31.4000   48.9090 O   0  0  0  0  0  0  0  0  0  0  0  0
   60.6350   31.7270   46.5620 O   0  0  0  0  0  0  0  0  0  0  0  0
   62.5890   30.9650   48.2260 N   0  0  0  0  0  0  0  0  0  0  0  0
   63.4000   31.6290   47.1810 C   0  0  0  0  0  0  0  0  0  0  0  0
   63.7100   33.0990   47.5120 C   0  0  0  0  0  0  0  0  0  0  0  0
   62.6450   33.6730   48.2350 O   0  0  0  0  0  0  0  0  0  0  0  0
   62.5750   33.1080   49.5330 C   0  0  0  0  0  0  0  0  0  0  0  0
   62.7780   31.5730   49.5530 C   0  0  0  0  0  0  0  0  0  0  0  0
   59.9870   28.4130   48.5180 C   0  0  0  0  0  0  0  0  0  0  0  0
   59.6430   27.0790   48.2880 C   0  0  0  0  0  0  0  0  0  0  0  0
   57.4092   24.0300   44.8891 H   0  0  0  0  0  0  0  0  0  0  0  0
   56.1279   24.6250   46.0254 H   0  0  0  0  0  0  0  0  0  0  0  0
   56.0676   27.0884   46.6228 H   0  0  0  0  0  0  0  0  0  0  0  0
   56.2788   29.3788   45.6682 H   0  0  0  0  0  0  0  0  0  0  0  0
   57.8620   30.1780   42.4470 H   0  0  0  0  0  0  0  0  0  0  0  0
   59.0022   32.6802   43.5738 H   0  0  0  0  0  0  0  0  0  0  0  0
   57.4388   32.6380   42.6599 H   0  0  0  0  0  0  0  0  0  0  0  0
   57.2870   34.6418   43.8680 H   0  0  0  0  0  0  0  0  0  0  0  0
   56.3879   33.4507   44.8989 H   0  0  0  0  0  0  0  0  0  0  0  0
   57.0071   33.0619   47.1282 H   0  0  0  0  0  0  0  0  0  0  0  0
   58.5790   33.4510   49.0290 H   0  0  0  0  0  0  0  0  0  0  0  0
   60.7306   34.6596   48.6448 H   0  0  0  0  0  0  0  0  0  0  0  0
   61.3071   35.4921   46.3657 H   0  0  0  0  0  0  0  0  0  0  0  0
   59.7482   35.0964   44.4564 H   0  0  0  0  0  0  0  0  0  0  0  0
   58.6994   27.8126   42.4358 H   0  0  0  0  0  0  0  0  0  0  0  0
   58.4802   25.5183   43.3849 H   0  0  0  0  0  0  0  0  0  0  0  0
   60.3071   26.9179   44.9353 H   0  0  0  0  0  0  0  0  0  0  0  0
   60.9418   29.2926   45.3524 H   0  0  0  0  0  0  0  0  0  0  0  0
   64.3500   31.0847   47.0745 H   0  0  0  0  0  0  0  0  0  0  0  0
   62.8155   31.6153   46.2493 H   0  0  0  0  0  0  0  0  0  0  0  0
   64.6276   33.1490   48.1166 H   0  0  0  0  0  0  0  0  0  0  0  0
   63.8462   33.6560   46.5733 H   0  0  0  0  0  0  0  0  0  0  0  0
   63.3551   33.5700   50.1559 H   0  0  0  0  0  0  0  0  0  0  0  0
   61.5627   33.3044   49.9160 H   0  0  0  0  0  0  0  0  0  0  0  0
   63.7995   31.3562   49.8987 H   0  0  0  0  0  0  0  0  0  0  0  0
   62.0241   31.1436   50.2292 H   0  0  0  0  0  0  0  0  0  0  0  0
   59.8885   28.8375   49.5280 H   0  0  0  0  0  0  0  0  0  0  0  0
   59.2662   26.4594   49.1152 H   0  0  0  0  0  0  0  0  0  0  0  0
  1  2  2  0
  2  3  1  0
  3  4  1  0
  4  5  2  0
  5  6  1  0
  6  7  2  0
  7  8  1  0
  8  9  1  0
  9 10  2  0
  9 11  1  0
 11 12  1  0
 12 13  1  0
 13 14  2  0
 14 15  1  0
 15 16  2  0
 16 17  1  0
 17 18  2  0
  7 19  1  0
 19 20  2  0
  2 21  1  0
 21 22  1  0
 22 23  2  0
 23 24  1  0
 24 25  2  0
 25 26  1  0
 26 27  2  0
 26 28  2  0
 26 29  1  0
 29 30  1  0
 30 31  1  0
 31 32  1  0
 32 33  1  0
 33 34  1  0
 25 35  1  0
 35 36  2  0
 20  4  1  0
 36 22  1  0
 18 13  1  0
 34 29  1  0
  3 37  1  0
  3 38  1  0
  5 39  1  0
  6 40  1  0
  8 41  1  0
 11 42  1  0
 11 43  1  0
 12 44  1  0
 12 45  1  0
 14 46  1  0
 15 47  1  0
 16 48  1  0
 17 49  1  0
 18 50  1  0
 19 51  1  0
 20 52  1  0
 23 53  1  0
 24 54  1  0
 30 55  1  0
 30 56  1  0
 31 57  1  0
 31 58  1  0
 33 59  1  0
 33 60  1  0
 34 61  1  0
 34 62  1  0
 35 63  1  0
 36 64  1  0
M  CHG  1  21  -1
M  END
>  <UniqueID>  (66) 
61

>  <SMILES>  (66) 
O=C(Cc1ccc(NC(=O)CCc2ccccc2)cc1)[N-]c1ccc(S(=O)(=O)N2CCOCC2)cc1

>  <Energy>  (66) 
79.21612834912308

>  <Genealogy>  (66) 
O=C(Cc1ccc(NC(=O)CCc2ccccc2)cc1)[N-]c1ccc(S(=O)(=O)N2CCOCC2)cc1 (protonated)
O=C(Cc1ccc(NC(=O)CCc2ccccc2)cc1)[N-]c1ccc(S(=O)(=O)N2CCOCC2)cc1 (3D coordinates assigned)
O=C(Cc1ccc(NC(=O)CCc2ccccc2)cc1)[N-]c1ccc(S(=O)(=O)N2CCOCC2)cc1 (nonaromatic ring conformer: 79.21612834912308 kcal/mol)

>  <smiles>  (66) 
O=C(CCc1ccccc1)Nc1ccc(CC(=O)Nc2ccc(S(=O)(=O)N3CCOCC3)cc2)cc1

>  <score_type>  (66) 
oracle

>  <origin>  (66) 
adg

>  <m_score__min__energy>  (66) 
-11.800000000000001

>  <m_primary>  (66) 
energy

$$$$
66:0
     RDKit          3D

 49 51  0  0  0  0  0  0  0  0999 V2000
   58.9730   33.3890   52.6190 C   0  0  0  0  0  0  0  0  0  0  0  0
   59.1220   33.1790   51.1410 C   0  0  0  0  0  0  0  0  0  0  0  0
   58.2130   32.3670   50.4450 C   0  0  0  0  0  0  0  0  0  0  0  0
   58.3360   32.1980   49.0630 C   0  0  0  0  0  0  0  0  0  0  0  0
   59.3560   32.8540   48.3570 C   0  0  0  0  0  0  0  0  0  0  0  0
   59.5040   32.6540   46.9430 N   0  0  0  0  0  0  0  0  0  0  0  0
   60.4730   31.6810   46.4300 C   0  0  0  0  0  0  0  0  0  0  0  0
   59.8430   30.3150   46.3570 C   0  0  0  0  0  0  0  0  0  0  0  0
   59.1930   29.7790   47.4800 C   0  0  0  0  0  0  0  0  0  0  0  0
   58.6820   28.4790   47.4440 C   0  0  0  0  0  0  0  0  0  0  0  0
   58.8350   27.6880   46.2930 C   0  0  0  0  0  0  0  0  0  0  0  0
   58.2790   26.3220   46.2250 C   0  0  0  0  0  0  0  0  0  0  0  0
   57.0020   25.9920   46.4770 C   0  0  0  0  0  0  0  0  0  0  0  0
   55.8120   26.7190   45.9890 C   0  0  0  0  0  0  0  0  0  0  0  0
   54.6710   26.1870   45.9840 O   0  0  0  0  0  0  0  0  0  0  0  0
   55.9680   27.9930   45.4610 O   0  0  0  0  0  0  0  0  0  0  0  0
   59.4500   28.2370   45.1600 C   0  0  0  0  0  0  0  0  0  0  0  0
   59.9600   29.5380   45.1950 C   0  0  0  0  0  0  0  0  0  0  0  0
   58.5200   33.5580   45.8320 S   0  0  0  0  0  0  0  0  0  0  0  0
   57.3960   34.2110   46.5870 O   0  0  0  0  0  0  0  0  0  0  0  0
   59.3330   34.6340   45.1690 O   0  0  0  0  0  0  0  0  0  0  0  0
   57.8800   32.4800   44.5950 C   0  0  0  0  0  0  0  0  0  0  0  0
   58.1410   32.7380   43.2410 C   0  0  0  0  0  0  0  0  0  0  0  0
   57.6740   31.8620   42.2560 C   0  0  0  0  0  0  0  0  0  0  0  0
   56.9440   30.7260   42.6190 C   0  0  0  0  0  0  0  0  0  0  0  0
   56.6800   30.4660   43.9660 C   0  0  0  0  0  0  0  0  0  0  0  0
   57.1480   31.3400   44.9530 C   0  0  0  0  0  0  0  0  0  0  0  0
   60.2520   33.6790   49.0510 C   0  0  0  0  0  0  0  0  0  0  0  0
   60.1330   33.8460   50.4340 C   0  0  0  0  0  0  0  0  0  0  0  0
   59.5278   32.6071   53.1582 H   0  0  0  0  0  0  0  0  0  0  0  0
   59.3735   34.3767   52.8912 H   0  0  0  0  0  0  0  0  0  0  0  0
   57.9085   33.3372   52.8912 H   0  0  0  0  0  0  0  0  0  0  0  0
   57.4012   31.8620   50.9889 H   0  0  0  0  0  0  0  0  0  0  0  0
   57.6298   31.5476   48.5262 H   0  0  0  0  0  0  0  0  0  0  0  0
   60.7981   31.9863   45.4245 H   0  0  0  0  0  0  0  0  0  0  0  0
   61.3392   31.6431   47.1070 H   0  0  0  0  0  0  0  0  0  0  0  0
   59.0856   30.3848   48.3918 H   0  0  0  0  0  0  0  0  0  0  0  0
   58.1573   28.0728   48.3213 H   0  0  0  0  0  0  0  0  0  0  0  0
   58.9658   25.5095   45.9455 H   0  0  0  0  0  0  0  0  0  0  0  0
   56.8267   25.1032   47.1010 H   0  0  0  0  0  0  0  0  0  0  0  0
   59.5318   27.6415   44.2388 H   0  0  0  0  0  0  0  0  0  0  0  0
   60.4560   29.9549   44.3061 H   0  0  0  0  0  0  0  0  0  0  0  0
   58.7144   33.6316   42.9534 H   0  0  0  0  0  0  0  0  0  0  0  0
   57.8810   32.0667   41.1952 H   0  0  0  0  0  0  0  0  0  0  0  0
   56.5775   30.0369   41.8438 H   0  0  0  0  0  0  0  0  0  0  0  0
   56.1037   29.5734   44.2507 H   0  0  0  0  0  0  0  0  0  0  0  0
   56.9408   31.1318   46.0130 H   0  0  0  0  0  0  0  0  0  0  0  0
   61.0532   34.1979   48.5044 H   0  0  0  0  0  0  0  0  0  0  0  0
   60.8346   34.5027   50.9693 H   0  0  0  0  0  0  0  0  0  0  0  0
  1  2  1  0
  2  3  2  0
  3  4  1  0
  4  5  2  0
  5  6  1  0
  6  7  1  0
  7  8  1  0
  8  9  2  0
  9 10  1  0
 10 11  2  0
 11 12  1  0
 12 13  2  3
 13 14  1  0
 14 15  2  0
 14 16  1  0
 11 17  1  0
 17 18  2  0
  6 19  1  0
 19 20  2  0
 19 21  2  0
 19 22  1  0
 22 23  2  0
 23 24  1  0
 24 25  2  0
 25 26  1  0
 26 27  2  0
  5 28  1  0
 28 29  2  0
 29  2  1  0
 18  8  1  0
 27 22  1  0
  1 30  1  0
  1 31  1  0
  1 32  1  0
  3 33  1  0
  4 34  1  0
  7 35  1  0
  7 36  1  0
  9 37  1  0
 10 38  1  0
 12 39  1  0
 13 40  1  0
 17 41  1  0
 18 42  1  0
 23 43  1  0
 24 44  1  0
 25 45  1  0
 26 46  1  0
 27 47  1  0
 28 48  1  0
 29 49  1  0
M  CHG  1  16  -1
M  END
>  <UniqueID>  (67) 
62

>  <SMILES>  (67) 
Cc1ccc(N(Cc2ccc(C=CC(=O)[O-])cc2)S(=O)(=O)c2ccccc2)cc1

>  <Energy>  (67) 
60.07031376563314

>  <Genealogy>  (67) 
Cc1ccc(N(Cc2ccc(C=CC(=O)[O-])cc2)S(=O)(=O)c2ccccc2)cc1 (protonated)
Cc1ccc(N(Cc2ccc(C=CC(=O)[O-])cc2)S(=O)(=O)c2ccccc2)cc1 (3D coordinates assigned)
Cc1ccc(N(Cc2ccc(C=CC(=O)[O-])cc2)S(=O)(=O)c2ccccc2)cc1 (optimized conformer: 60.07031376563314 kcal/mol)

>  <smiles>  (67) 
Cc1ccc(N(Cc2ccc(C=CC(=O)O)cc2)S(=O)(=O)c2ccccc2)cc1

>  <score_type>  (67) 
oracle

>  <origin>  (67) 
adg

>  <m_score__min__energy>  (67) 
-11.85

>  <m_primary>  (67) 
energy

$$$$
67:0
     RDKit          3D

 39 41  0  0  0  0  0  0  0  0999 V2000
   54.3200   29.8580   55.0460 C   0  0  0  0  0  0  0  0  0  0  0  0
   54.8090   30.1250   53.8240 C   0  0  0  0  0  0  0  0  0  0  0  0
   54.1490   30.8200   52.7970 C   0  0  0  0  0  0  0  0  0  0  0  0
   52.8640   31.2070   52.6700 C   0  0  0  0  0  0  0  0  0  0  0  0
   52.0860   31.2090   51.4220 C   0  0  0  0  0  0  0  0  0  0  0  0
   52.1710   30.2660   50.4630 N   0  0  0  0  0  0  0  0  0  0  0  0
   51.3950   30.7590   49.4740 C   0  0  0  0  0  0  0  0  0  0  0  0
   51.2070   30.1450   48.3910 O   0  0  0  0  0  0  0  0  0  0  0  0
   50.8480   31.9670   49.7300 N   0  0  0  0  0  0  0  0  0  0  0  0
   51.3070   32.2410   50.9610 C   0  0  0  0  0  0  0  0  0  0  0  0
   51.0250   33.4150   51.6470 O   0  0  0  0  0  0  0  0  0  0  0  0
   55.0990   31.0630   51.8220 C   0  0  0  0  0  0  0  0  0  0  0  0
   56.2640   30.4550   52.2360 C   0  0  0  0  0  0  0  0  0  0  0  0
   57.5460   30.4850   51.4560 C   0  0  0  0  0  0  0  0  0  0  0  0
   56.0980   29.8830   53.4530 N   0  0  0  0  0  0  0  0  0  0  0  0
   57.1620   29.2360   54.2430 C   0  0  0  0  0  0  0  0  0  0  0  0
   56.9240   27.7260   54.3930 C   0  0  0  0  0  0  0  0  0  0  0  0
   58.0880   26.9110   53.8880 C   0  0  0  0  0  0  0  0  0  0  0  0
   59.2540   27.5600   53.4450 C   0  0  0  0  0  0  0  0  0  0  0  0
   60.3600   26.8180   53.0240 C   0  0  0  0  0  0  0  0  0  0  0  0
   61.5110   27.4690   52.5940 O   0  0  0  0  0  0  0  0  0  0  0  0
   60.3120   25.4220   53.0360 C   0  0  0  0  0  0  0  0  0  0  0  0
   59.1580   24.7660   53.4730 C   0  0  0  0  0  0  0  0  0  0  0  0
   58.0490   25.5030   53.9040 C   0  0  0  0  0  0  0  0  0  0  0  0
   56.9180   24.8290   54.3530 O   0  0  0  0  0  0  0  0  0  0  0  0
   54.9305   29.3029   55.7735 H   0  0  0  0  0  0  0  0  0  0  0  0
   53.3090   30.1944   55.3194 H   0  0  0  0  0  0  0  0  0  0  0  0
   52.3520   31.5518   53.5805 H   0  0  0  0  0  0  0  0  0  0  0  0
   54.9525   31.6332   50.8928 H   0  0  0  0  0  0  0  0  0  0  0  0
   58.3980   30.5049   52.1515 H   0  0  0  0  0  0  0  0  0  0  0  0
   57.6108   29.5881   50.8224 H   0  0  0  0  0  0  0  0  0  0  0  0
   57.5688   31.3839   50.8224 H   0  0  0  0  0  0  0  0  0  0  0  0
   58.1267   29.3960   53.7392 H   0  0  0  0  0  0  0  0  0  0  0  0
   57.1614   29.6834   55.2479 H   0  0  0  0  0  0  0  0  0  0  0  0
   56.7666   27.4966   55.4572 H   0  0  0  0  0  0  0  0  0  0  0  0
   56.0419   27.4626   53.7909 H   0  0  0  0  0  0  0  0  0  0  0  0
   59.2955   28.6591   53.4299 H   0  0  0  0  0  0  0  0  0  0  0  0
   61.1827   24.8389   52.7014 H   0  0  0  0  0  0  0  0  0  0  0  0
   59.1212   23.6666   53.4782 H   0  0  0  0  0  0  0  0  0  0  0  0
  1  2  2  0
  2  3  1  0
  3  4  2  3
  4  5  1  0
  5  6  1  0
  6  7  1  0
  7  8  2  0
  7  9  1  0
  9 10  1  0
 10 11  1  0
  3 12  1  0
 12 13  2  0
 13 14  1  0
 13 15  1  0
 15 16  1  0
 16 17  1  0
 17 18  1  0
 18 19  2  0
 19 20  1  0
 20 21  1  0
 20 22  2  0
 22 23  1  0
 23 24  2  0
 24 25  1  0
 15  2  1  0
 24 18  1  0
 10  5  2  0
  1 26  1  0
  1 27  1  0
  4 28  1  0
 12 29  1  0
 14 30  1  0
 14 31  1  0
 14 32  1  0
 16 33  1  0
 16 34  1  0
 17 35  1  0
 17 36  1  0
 19 37  1  0
 22 38  1  0
 23 39  1  0
M  CHG  5   6  -1   9  -1  11  -1  21  -1  25  -1
M  END
>  <UniqueID>  (68) 
63

>  <SMILES>  (68) 
C=c1c(=Cc2[n-]c(=O)[n-]c2[O-])cc(C)n1CCc1cc([O-])ccc1[O-]

>  <Energy>  (68) 
106.67919403783922

>  <Genealogy>  (68) 
C=c1c(=Cc2[n-]c(=O)[n-]c2[O-])cc(C)n1CCc1cc([O-])ccc1[O-] (protonated)
C=c1c(=Cc2[n-]c(=O)[n-]c2[O-])cc(C)n1CCc1cc([O-])ccc1[O-] (3D coordinates assigned)
C=c1c(=Cc2[n-]c(=O)[n-]c2[O-])cc(C)n1CCc1cc([O-])ccc1[O-] (optimized conformer: 106.67919403783922 kcal/mol)

>  <smiles>  (68) 
C=c1c(=Cc2[nH]c(=O)[nH]c2O)cc(C)n1CCc1cc(O)ccc1O

>  <score_type>  (68) 
oracle

>  <origin>  (68) 
adg

>  <m_score__min__energy>  (68) 
-18.050000000000001

>  <m_primary>  (68) 
energy

$$$$
68:0
     RDKit          3D

 48 51  0  0  0  0  0  0  0  0999 V2000
   54.7510   28.5550   44.5810 H   0  0  0  0  0  0  0  0  0  0  0  0
   55.6370   28.4940   45.0680 O   0  0  0  0  0  0  0  0  0  0  0  0
   56.0770   27.2970   45.6250 C   0  0  0  0  0  0  0  0  0  0  0  0
   55.2580   26.4090   46.2130 N   0  0  0  0  0  0  0  0  0  0  0  0
   56.1080   25.4400   46.6140 C   0  0  0  0  0  0  0  0  0  0  0  0
   55.7200   24.4100   47.2250 O   0  0  0  0  0  0  0  0  0  0  0  0
   57.4060   25.6660   46.3210 N   0  0  0  0  0  0  0  0  0  0  0  0
   57.3760   26.8420   45.6640 C   0  0  0  0  0  0  0  0  0  0  0  0
   58.5730   27.5900   45.2460 C   0  0  0  0  0  0  0  0  0  0  0  0
   59.4238   27.0055   44.8658 H   0  0  0  0  0  0  0  0  0  0  0  0
   58.7160   28.9280   45.2890 C   0  0  0  0  0  0  0  0  0  0  0  0
   58.1730   29.7690   44.3300 C   0  0  0  0  0  0  0  0  0  0  0  0
   57.6316   29.4640   43.4223 H   0  0  0  0  0  0  0  0  0  0  0  0
   58.4410   31.0610   44.7310 C   0  0  0  0  0  0  0  0  0  0  0  0
   58.0000   32.2950   44.0040 C   0  0  0  0  0  0  0  0  0  0  0  0
   57.7228   33.0707   44.7330 H   0  0  0  0  0  0  0  0  0  0  0  0
   58.8225   32.6623   43.3727 H   0  0  0  0  0  0  0  0  0  0  0  0
   57.1310   32.0578   43.3727 H   0  0  0  0  0  0  0  0  0  0  0  0
   59.1480   31.0580   45.8820 N   0  0  0  0  0  0  0  0  0  0  0  0
   59.6390   32.2280   46.5560 C   0  0  0  0  0  0  0  0  0  0  0  0
   61.0050   32.3430   46.8520 C   0  0  0  0  0  0  0  0  0  0  0  0
   61.6993   31.5474   46.5436 H   0  0  0  0  0  0  0  0  0  0  0  0
   61.4930   33.4660   47.5390 C   0  0  0  0  0  0  0  0  0  0  0  0
   62.9350   33.5840   47.8260 C   0  0  0  0  0  0  0  0  0  0  0  0
   63.6480   34.3040   47.0770 O   0  0  0  0  0  0  0  0  0  0  0  0
   63.5440   32.8880   48.9310 N   0  0  0  0  0  0  0  0  0  0  0  0
   63.0400   31.6370   49.4750 C   0  0  0  0  0  0  0  0  0  0  0  0
   62.0410   31.7834   49.9115 H   0  0  0  0  0  0  0  0  0  0  0  0
   62.9422   30.8659   48.6966 H   0  0  0  0  0  0  0  0  0  0  0  0
   64.0340   31.2260   50.5510 C   0  0  0  0  0  0  0  0  0  0  0  0
   63.6304   31.4499   51.5495 H   0  0  0  0  0  0  0  0  0  0  0  0
   64.2405   30.1461   50.5167 H   0  0  0  0  0  0  0  0  0  0  0  0
   65.2960   32.0440   50.2940 C   0  0  0  0  0  0  0  0  0  0  0  0
   65.7226   32.3974   51.2443 H   0  0  0  0  0  0  0  0  0  0  0  0
   66.0697   31.4443   49.7923 H   0  0  0  0  0  0  0  0  0  0  0  0
   64.8630   33.2250   49.4370 C   0  0  0  0  0  0  0  0  0  0  0  0
   64.8173   34.1414   50.0437 H   0  0  0  0  0  0  0  0  0  0  0  0
   65.5737   33.4118   48.6185 H   0  0  0  0  0  0  0  0  0  0  0  0
   60.6030   34.4900   47.9000 C   0  0  0  0  0  0  0  0  0  0  0  0
   60.9804   35.3871   48.4125 H   0  0  0  0  0  0  0  0  0  0  0  0
   59.2410   34.3760   47.6120 C   0  0  0  0  0  0  0  0  0  0  0  0
   58.5489   35.1781   47.9080 H   0  0  0  0  0  0  0  0  0  0  0  0
   58.7550   33.2460   46.9490 C   0  0  0  0  0  0  0  0  0  0  0  0
   57.4280   33.1380   46.6910 F   0  0  0  0  0  0  0  0  0  0  0  0
   59.3550   29.7600   46.2240 C   0  0  0  0  0  0  0  0  0  0  0  0
   60.1470   29.3860   47.2400 C   0  0  0  0  0  0  0  0  0  0  0  0
   60.5870   30.1457   47.9028 H   0  0  0  0  0  0  0  0  0  0  0  0
   60.3565   28.3196   47.4103 H   0  0  0  0  0  0  0  0  0  0  0  0
  1  2  1  0
  2  3  1  0
  3  4  1  0
  4  5  1  0
  5  6  2  0
  5  7  1  0
  7  8  1  0
  8  9  1  0
  9 10  1  0
  9 11  2  0
 11 12  1  0
 12 13  1  0
 12 14  2  0
 14 15  1  0
 15 16  1  0
 15 17  1  0
 15 18  1  0
 14 19  1  0
 19 20  1  0
 20 21  2  0
 21 22  1  0
 21 23  1  0
 23 24  1  0
 24 25  2  0
 24 26  1  0
 26 27  1  0
 27 28  1  0
 27 29  1  0
 27 30  1  0
 30 31  1  0
 30 32  1  0
 30 33  1  0
 33 34  1  0
 33 35  1  0
 33 36  1  0
 36 37  1  0
 36 38  1  0
 23 39  2  0
 39 40  1  0
 39 41  1  0
 41 42  1  0
 41 43  2  0
 43 44  1  0
 19 45  1  0
 45 46  2  0
 46 47  1  0
 46 48  1  0
  8  3  2  0
 45 11  1  0
 43 20  1  0
 36 26  1  0
M  CHG  2   4  -1   7  -1
M  END
>  <UniqueID>  (69) 
64

>  <SMILES>  (69) 
C=c1/c(=C\c2[n-]c(=O)[n-]c2O)cc(C)n1-c1cc(C(=O)N2CCCC2)ccc1F

>  <Energy>  (69) 
130.14160238018317

>  <Genealogy>  (69) 
C=c1c(=Cc2[n-]c(=O)[n-]c2O)cc(C)n1-c1cc(C(=O)N2CCCC2)ccc1F (protonated)
C=c1/c(=C\c2[n-]c(=O)[n-]c2O)cc(C)n1-c1cc(C(=O)N2CCCC2)ccc1F (cis-trans isomerization)
C=c1/c(=C\c2[n-]c(=O)[n-]c2O)cc(C)n1-c1cc(C(=O)N2CCCC2)ccc1F (3D coordinates assigned)
C=c1/c(=C\c2[n-]c(=O)[n-]c2O)cc(C)n1-c1cc(C(=O)N2CCCC2)ccc1F (nonaromatic ring conformer: 130.14160238018317 kcal/mol)

>  <smiles>  (69) 
C=c1c(=Cc2[nH]c(=O)[nH]c2O)cc(C)n1-c1cc(C(=O)N2CCCC2)ccc1F

>  <score_type>  (69) 
oracle

>  <origin>  (69) 
adg

>  <m_score__min__energy>  (69) 
-14.199999999999999

>  <m_primary>  (69) 
energy

$$$$
69:0
     RDKit          3D

 79 83  0  0  0  0  0  0  0  0999 V2000
   58.1390   32.1720   42.4750 C   0  0  0  0  0  0  0  0  0  0  0  0
   57.5630   31.6750   43.7210 N   0  0  0  0  0  0  0  0  0  0  0  0
   57.9160   32.2920   44.9720 C   0  0  0  0  0  0  0  0  0  0  0  0
   57.5910   33.6380   45.2230 C   0  0  0  0  0  0  0  0  0  0  0  0
   57.9270   34.2340   46.4430 C   0  0  0  0  0  0  0  0  0  0  0  0
   58.5810   33.4850   47.4240 C   0  0  0  0  0  0  0  0  0  0  0  0
   58.8990   32.1440   47.1880 C   0  0  0  0  0  0  0  0  0  0  0  0
   58.5570   31.5440   45.9710 C   0  0  0  0  0  0  0  0  0  0  0  0
   56.5230   30.2780   43.6750 S   0  0  0  0  0  0  0  0  0  0  0  0
   55.3070   30.4990   44.5310 O   0  0  0  0  0  0  0  0  0  0  0  0
   56.0680   30.0340   42.2630 O   0  0  0  0  0  0  0  0  0  0  0  0
   57.3910   28.8710   44.2760 C   0  0  0  0  0  0  0  0  0  0  0  0
   57.7890   27.8560   43.3960 C   0  0  0  0  0  0  0  0  0  0  0  0
   58.5120   26.7550   43.8690 C   0  0  0  0  0  0  0  0  0  0  0  0
   58.8240   26.6580   45.2280 C   0  0  0  0  0  0  0  0  0  0  0  0
   58.4270   27.6680   46.1150 C   0  0  0  0  0  0  0  0  0  0  0  0
   58.7240   27.5750   47.5130 N   0  0  0  0  0  0  0  0  0  0  0  0
   59.9670   27.9670   48.1100 C   0  0  0  0  0  0  0  0  0  0  0  0
   60.7620   28.6840   47.4460 O   0  0  0  0  0  0  0  0  0  0  0  0
   60.3950   27.4430   49.4540 C   0  0  0  0  0  0  0  0  0  0  0  0
   60.3470   28.4940   50.5270 C   0  0  0  0  0  0  0  0  0  0  0  0
   61.3330   28.6440   51.2950 O   0  0  0  0  0  0  0  0  0  0  0  0
   59.2060   29.3520   50.6610 N   0  0  0  0  0  0  0  0  0  0  0  0
   59.3330   30.7470   50.9760 C   0  0  0  0  0  0  0  0  0  0  0  0
   60.4310   31.4830   50.4980 C   0  0  0  0  0  0  0  0  0  0  0  0
   60.5070   32.8660   50.7060 C   0  0  0  0  0  0  0  0  0  0  0  0
   61.8470   33.8020   50.0460 S   0  0  0  0  0  0  0  0  0  0  0  0
   61.2820   34.8400   49.1200 O   0  0  0  0  0  0  0  0  0  0  0  0
   62.5790   34.5000   51.1550 O   0  0  0  0  0  0  0  0  0  0  0  0
   62.9250   32.7460   49.1600 N   0  0  0  0  0  0  0  0  0  0  0  0
   64.0930   33.4600   48.6120 C   0  0  0  0  0  0  0  0  0  0  0  0
   63.7720   34.1700   47.2900 C   0  0  0  0  0  0  0  0  0  0  0  0
   63.2340   33.2650   46.3480 O   0  0  0  0  0  0  0  0  0  0  0  0
   62.0100   32.7500   46.8300 C   0  0  0  0  0  0  0  0  0  0  0  0
   62.2210   31.9590   48.1310 C   0  0  0  0  0  0  0  0  0  0  0  0
   59.4840   33.5180   51.3990 C   0  0  0  0  0  0  0  0  0  0  0  0
   58.3910   32.7960   51.8790 C   0  0  0  0  0  0  0  0  0  0  0  0
   58.3040   31.4100   51.6710 C   0  0  0  0  0  0  0  0  0  0  0  0
   57.1930   30.6770   52.2100 N   0  0  0  0  0  0  0  0  0  0  0  0
   55.8480   30.9860   51.6960 C   0  0  0  0  0  0  0  0  0  0  0  0
   54.7580   30.1820   52.4080 C   0  0  0  0  0  0  0  0  0  0  0  0
   55.1800   28.8550   52.6240 O   0  0  0  0  0  0  0  0  0  0  0  0
   56.1970   28.8570   53.6050 C   0  0  0  0  0  0  0  0  0  0  0  0
   57.4770   29.5210   53.0740 C   0  0  0  0  0  0  0  0  0  0  0  0
   57.7020   28.7650   45.6390 C   0  0  0  0  0  0  0  0  0  0  0  0
   58.9538   32.8751   42.7025 H   0  0  0  0  0  0  0  0  0  0  0  0
   58.5353   31.3277   41.8918 H   0  0  0  0  0  0  0  0  0  0  0  0
   57.3619   32.6877   41.8918 H   0  0  0  0  0  0  0  0  0  0  0  0
   57.0687   34.2259   44.4539 H   0  0  0  0  0  0  0  0  0  0  0  0
   57.6771   35.2889   46.6292 H   0  0  0  0  0  0  0  0  0  0  0  0
   58.8465   33.9512   48.3843 H   0  0  0  0  0  0  0  0  0  0  0  0
   59.4193   31.5593   47.9609 H   0  0  0  0  0  0  0  0  0  0  0  0
   58.7913   30.4834   45.7972 H   0  0  0  0  0  0  0  0  0  0  0  0
   57.5321   27.9248   42.3286 H   0  0  0  0  0  0  0  0  0  0  0  0
   58.8342   25.9671   43.1723 H   0  0  0  0  0  0  0  0  0  0  0  0
   59.3823   25.7872   45.6022 H   0  0  0  0  0  0  0  0  0  0  0  0
   59.7262   26.6176   49.7394 H   0  0  0  0  0  0  0  0  0  0  0  0
   61.4386   27.1074   49.3634 H   0  0  0  0  0  0  0  0  0  0  0  0
   58.2530   28.9710   50.4700 H   0  0  0  0  0  0  0  0  0  0  0  0
   61.2378   30.9682   49.9557 H   0  0  0  0  0  0  0  0  0  0  0  0
   64.4254   34.2098   49.3449 H   0  0  0  0  0  0  0  0  0  0  0  0
   64.8796   32.7172   48.4134 H   0  0  0  0  0  0  0  0  0  0  0  0
   63.0407   34.9696   47.4792 H   0  0  0  0  0  0  0  0  0  0  0  0
   64.7034   34.5891   46.8816 H   0  0  0  0  0  0  0  0  0  0  0  0
   61.3198   33.5843   47.0239 H   0  0  0  0  0  0  0  0  0  0  0  0
   61.5911   32.0726   46.0713 H   0  0  0  0  0  0  0  0  0  0  0  0
   61.2388   31.6599   48.5257 H   0  0  0  0  0  0  0  0  0  0  0  0
   62.8439   31.0839   47.8939 H   0  0  0  0  0  0  0  0  0  0  0  0
   59.5405   34.6037   51.5666 H   0  0  0  0  0  0  0  0  0  0  0  0
   57.5906   33.3168   52.4250 H   0  0  0  0  0  0  0  0  0  0  0  0
   55.6504   32.0581   51.8429 H   0  0  0  0  0  0  0  0  0  0  0  0
   55.8240   30.7167   50.6297 H   0  0  0  0  0  0  0  0  0  0  0  0
   54.5365   30.6529   53.3771 H   0  0  0  0  0  0  0  0  0  0  0  0
   53.8578   30.1688   51.7760 H   0  0  0  0  0  0  0  0  0  0  0  0
   55.8441   29.4114   54.4871 H   0  0  0  0  0  0  0  0  0  0  0  0
   56.4284   27.8148   53.8703 H   0  0  0  0  0  0  0  0  0  0  0  0
   58.0803   29.8592   53.9294 H   0  0  0  0  0  0  0  0  0  0  0  0
   58.0153   28.7756   52.4701 H   0  0  0  0  0  0  0  0  0  0  0  0
   57.3740   29.5488   46.3376 H   0  0  0  0  0  0  0  0  0  0  0  0
  1  2  1  0
  2  3  1  0
  3  4  2  0
  4  5  1  0
  5  6  2  0
  6  7  1  0
  7  8  2  0
  2  9  1  0
  9 10  2  0
  9 11  2  0
  9 12  1  0
 12 13  2  0
 13 14  1  0
 14 15  2  0
 15 16  1  0
 16 17  1  0
 17 18  1  0
 18 19  2  0
 18 20  1  0
 20 21  1  0
 21 22  2  0
 21 23  1  0
 23 24  1  0
 24 25  2  0
 25 26  1  0
 26 27  1  0
 27 28  2  0
 27 29  2  0
 27 30  1  0
 30 31  1  0
 31 32  1  0
 32 33  1  0
 33 34  1  0
 34 35  1  0
 26 36  2  0
 36 37  1  0
 37 38  2  0
 38 39  1  0
 39 40  1  0
 40 41  1  0
 41 42  1  0
 42 43  1  0
 43 44  1  0
 16 45  2  0
  8  3  1  0
 45 12  1  0
 38 24  1  0
 44 39  1  0
 35 30  1  0
  1 46  1  0
  1 47  1  0
  1 48  1  0
  4 49  1  0
  5 50  1  0
  6 51  1  0
  7 52  1  0
  8 53  1  0
 13 54  1  0
 14 55  1  0
 15 56  1  0
 20 57  1  0
 20 58  1  0
 23 59  1  0
 25 60  1  0
 31 61  1  0
 31 62  1  0
 32 63  1  0
 32 64  1  0
 34 65  1  0
 34 66  1  0
 35 67  1  0
 35 68  1  0
 36 69  1  0
 37 70  1  0
 40 71  1  0
 40 72  1  0
 41 73  1  0
 41 74  1  0
 43 75  1  0
 43 76  1  0
 44 77  1  0
 44 78  1  0
 45 79  1  0
M  CHG  1  17  -1
M  END
>  <UniqueID>  (70) 
65

>  <SMILES>  (70) 
CN(c1ccccc1)S(=O)(=O)c1cccc([N-]C(=O)CC(=O)Nc2cc(S(=O)(=O)N3CCOCC3)ccc2N2CCOCC2)c1

>  <Energy>  (70) 
110.37206339905799

>  <Genealogy>  (70) 
CN(c1ccccc1)S(=O)(=O)c1cccc([N-]C(=O)CC(=O)Nc2cc(S(=O)(=O)N3CCOCC3)ccc2N2CCOCC2)c1 (protonated)
CN(c1ccccc1)S(=O)(=O)c1cccc([N-]C(=O)CC(=O)Nc2cc(S(=O)(=O)N3CCOCC3)ccc2N2CCOCC2)c1 (3D coordinates assigned)
CN(c1ccccc1)S(=O)(=O)c1cccc([N-]C(=O)CC(=O)Nc2cc(S(=O)(=O)N3CCOCC3)ccc2N2CCOCC2)c1 (nonaromatic ring conformer: 110.37206339905799 kcal/mol)

>  <smiles>  (70) 
CN(c1ccccc1)S(=O)(=O)c1cccc(NC(=O)CC(=O)Nc2cc(S(=O)(=O)N3CCOCC3)ccc2N2CCOCC2)c1

>  <score_type>  (70) 
oracle

>  <origin>  (70) 
adg

>  <m_score__min__energy>  (70) 
-11.99

>  <m_primary>  (70) 
energy

$$$$
70:0
     RDKit          3D

 33 33  0  0  0  0  0  0  0  0999 V2000
   50.6420   33.3020   52.1380 O   0  0  0  0  0  0  0  0  0  0  0  0
   51.1540   32.3520   51.4900 C   0  0  0  0  0  0  0  0  0  0  0  0
   51.0630   32.3380   50.1030 O   0  0  0  0  0  0  0  0  0  0  0  0
   51.8170   31.2200   52.2090 C   0  0  0  0  0  0  0  0  0  0  0  0
   53.1340   30.8450   51.5190 C   0  0  0  0  0  0  0  0  0  0  0  0
   54.3090   30.8390   52.4990 C   0  0  0  0  0  0  0  0  0  0  0  0
   55.4800   30.2240   51.8810 N   0  0  0  0  0  0  0  0  0  0  0  0
   56.7660   30.8480   51.7760 C   0  0  0  0  0  0  0  0  0  0  0  0
   57.5570   30.4530   50.8770 O   0  0  0  0  0  0  0  0  0  0  0  0
   57.1590   32.0100   52.6440 C   0  0  0  0  0  0  0  0  0  0  0  0
   57.8430   33.0230   51.8460 N   0  0  0  0  0  0  0  0  0  0  0  0
   59.2520   33.0380   51.5880 C   0  0  0  0  0  0  0  0  0  0  0  0
   60.0490   32.8510   52.5450 O   0  0  0  0  0  0  0  0  0  0  0  0
   59.7970   33.3050   50.2410 C   0  0  0  0  0  0  0  0  0  0  0  0
   61.0780   33.8610   50.0960 C   0  0  0  0  0  0  0  0  0  0  0  0
   61.5910   34.1320   48.8230 C   0  0  0  0  0  0  0  0  0  0  0  0
   60.8260   33.8580   47.6870 C   0  0  0  0  0  0  0  0  0  0  0  0
   59.5460   33.3140   47.8210 C   0  0  0  0  0  0  0  0  0  0  0  0
   59.0230   33.0410   49.0930 C   0  0  0  0  0  0  0  0  0  0  0  0
   57.7450   32.4950   49.2210 O   0  0  0  0  0  0  0  0  0  0  0  0
   52.0246   31.5217   53.2462 H   0  0  0  0  0  0  0  0  0  0  0  0
   51.1467   30.3479   52.1953 H   0  0  0  0  0  0  0  0  0  0  0  0
   53.0323   29.8418   51.0794 H   0  0  0  0  0  0  0  0  0  0  0  0
   53.3398   31.5981   50.7441 H   0  0  0  0  0  0  0  0  0  0  0  0
   54.5500   31.8740   52.7832 H   0  0  0  0  0  0  0  0  0  0  0  0
   54.0286   30.2593   53.3908 H   0  0  0  0  0  0  0  0  0  0  0  0
   56.2567   32.4495   53.0941 H   0  0  0  0  0  0  0  0  0  0  0  0
   57.8370   31.6560   53.4346 H   0  0  0  0  0  0  0  0  0  0  0  0
   61.6815   34.0847   50.9881 H   0  0  0  0  0  0  0  0  0  0  0  0
   62.5981   34.5614   48.7166 H   0  0  0  0  0  0  0  0  0  0  0  0
   61.2313   34.0705   46.6867 H   0  0  0  0  0  0  0  0  0  0  0  0
   58.9459   33.0989   46.9246 H   0  0  0  0  0  0  0  0  0  0  0  0
   57.2760   32.4450   50.1170 H   0  0  0  0  0  0  0  0  0  0  0  0
  1  2  2  0
  2  3  1  0
  2  4  1  0
  4  5  1  0
  5  6  1  0
  6  7  1  0
  7  8  1  0
  8  9  2  0
  8 10  1  0
 10 11  1  0
 11 12  1  0
 12 13  2  0
 12 14  1  0
 14 15  2  0
 15 16  1  0
 16 17  2  0
 17 18  1  0
 18 19  2  0
 19 20  1  0
 19 14  1  0
  4 21  1  0
  4 22  1  0
  5 23  1  0
  5 24  1  0
  6 25  1  0
  6 26  1  0
 10 27  1  0
 10 28  1  0
 15 29  1  0
 16 30  1  0
 17 31  1  0
 18 32  1  0
 20 33  1  0
M  CHG  3   3  -1   7  -1  11  -1
M  END
>  <UniqueID>  (71) 
66

>  <SMILES>  (71) 
O=C([O-])CCC[N-]C(=O)C[N-]C(=O)c1ccccc1O

>  <Energy>  (71) 
27.97047043194437

>  <Genealogy>  (71) 
O=C([O-])CCC[N-]C(=O)C[N-]C(=O)c1ccccc1O (protonated)
O=C([O-])CCC[N-]C(=O)C[N-]C(=O)c1ccccc1O (3D coordinates assigned)
O=C([O-])CCC[N-]C(=O)C[N-]C(=O)c1ccccc1O (optimized conformer: 27.97047043194437 kcal/mol)

>  <smiles>  (71) 
O=C(O)CCCNC(=O)CNC(=O)c1ccccc1O

>  <score_type>  (71) 
oracle

>  <origin>  (71) 
adg

>  <m_score__min__energy>  (71) 
-11.83

>  <m_primary>  (71) 
energy

$$$$
71:0
     RDKit          3D

 57 59  0  0  0  0  0  0  0  0999 V2000
   61.6320   29.7200   49.9110 N   0  0  0  0  0  0  0  0  0  0  0  0
   60.7550   29.0980   48.9610 C   0  0  0  0  0  0  0  0  0  0  0  0
   60.5790   27.7050   49.0310 C   0  0  0  0  0  0  0  0  0  0  0  0
   59.7500   27.0420   48.1260 C   0  0  0  0  0  0  0  0  0  0  0  0
   59.0770   27.7650   47.1370 C   0  0  0  0  0  0  0  0  0  0  0  0
   59.2290   29.1490   47.0570 C   0  0  0  0  0  0  0  0  0  0  0  0
   60.0630   29.8400   47.9590 C   0  0  0  0  0  0  0  0  0  0  0  0
   60.2000   31.2770   47.8200 N   0  0  0  0  0  0  0  0  0  0  0  0
   58.9050   31.9660   47.9770 C   0  0  0  0  0  0  0  0  0  0  0  0
   58.6890   33.0400   46.9220 C   0  0  0  0  0  0  0  0  0  0  0  0
   57.4950   32.9980   46.1760 C   0  0  0  0  0  0  0  0  0  0  0  0
   57.2540   33.9200   45.1570 C   0  0  0  0  0  0  0  0  0  0  0  0
   58.1990   34.9010   44.8640 C   0  0  0  0  0  0  0  0  0  0  0  0
   59.3880   34.9640   45.5910 C   0  0  0  0  0  0  0  0  0  0  0  0
   59.6470   34.0540   46.6350 C   0  0  0  0  0  0  0  0  0  0  0  0
   60.9630   34.1760   47.3670 C   0  0  0  0  0  0  0  0  0  0  0  0
   61.9140   33.2100   46.8340 N   0  0  0  0  0  0  0  0  0  0  0  0
   62.8530   32.4710   47.6240 C   0  0  0  0  0  0  0  0  0  0  0  0
   62.7510   31.2140   47.6620 O   0  0  0  0  0  0  0  0  0  0  0  0
   63.9950   33.1600   48.3320 C   0  0  0  0  0  0  0  0  0  0  0  0
   63.7010   33.4740   49.8070 C   0  0  0  0  0  0  0  0  0  0  0  0
   62.7840   32.4610   50.4230 C   0  0  0  0  0  0  0  0  0  0  0  0
   63.2590   31.5800   51.1920 O   0  0  0  0  0  0  0  0  0  0  0  0
   61.3700   32.5440   50.1760 N   0  0  0  0  0  0  0  0  0  0  0  0
   60.4660   33.1170   50.9220 C   0  0  0  0  0  0  0  0  0  0  0  0
   59.1760   32.4960   51.2950 C   0  0  0  0  0  0  0  0  0  0  0  0
   58.9710   31.1350   51.0130 C   0  0  0  0  0  0  0  0  0  0  0  0
   57.7740   30.5110   51.3810 C   0  0  0  0  0  0  0  0  0  0  0  0
   56.7830   31.2360   52.0550 C   0  0  0  0  0  0  0  0  0  0  0  0
   56.9970   32.5760   52.3850 C   0  0  0  0  0  0  0  0  0  0  0  0
   58.1950   33.2060   52.0230 C   0  0  0  0  0  0  0  0  0  0  0  0
   58.3990   34.5000   52.3870 F   0  0  0  0  0  0  0  0  0  0  0  0
   61.7120   29.4110   50.9020 H   0  0  0  0  0  0  0  0  0  0  0  0
   62.1820   30.5690   49.6420 H   0  0  0  0  0  0  0  0  0  0  0  0
   61.1019   27.1303   49.8097 H   0  0  0  0  0  0  0  0  0  0  0  0
   59.6260   25.9509   48.1906 H   0  0  0  0  0  0  0  0  0  0  0  0
   58.4266   27.2416   46.4208 H   0  0  0  0  0  0  0  0  0  0  0  0
   58.6903   29.7094   46.2787 H   0  0  0  0  0  0  0  0  0  0  0  0
   60.8420   31.6210   48.5740 H   0  0  0  0  0  0  0  0  0  0  0  0
   60.6610   31.5440   46.9250 H   0  0  0  0  0  0  0  0  0  0  0  0
   58.0975   31.2235   47.8959 H   0  0  0  0  0  0  0  0  0  0  0  0
   58.9031   32.4570   48.9613 H   0  0  0  0  0  0  0  0  0  0  0  0
   56.7423   32.2278   46.3999 H   0  0  0  0  0  0  0  0  0  0  0  0
   56.3163   33.8723   44.5839 H   0  0  0  0  0  0  0  0  0  0  0  0
   58.0075   35.6260   44.0592 H   0  0  0  0  0  0  0  0  0  0  0  0
   60.1336   35.7347   45.3458 H   0  0  0  0  0  0  0  0  0  0  0  0
   61.3618   35.1926   47.2348 H   0  0  0  0  0  0  0  0  0  0  0  0
   60.8038   33.9773   48.4371 H   0  0  0  0  0  0  0  0  0  0  0  0
   64.8789   32.5070   48.2845 H   0  0  0  0  0  0  0  0  0  0  0  0
   64.1588   34.1212   47.8228 H   0  0  0  0  0  0  0  0  0  0  0  0
   64.6491   33.4809   50.3648 H   0  0  0  0  0  0  0  0  0  0  0  0
   63.2055   34.4550   49.8541 H   0  0  0  0  0  0  0  0  0  0  0  0
   60.6769   34.1288   51.2986 H   0  0  0  0  0  0  0  0  0  0  0  0
   59.7548   30.5576   50.5008 H   0  0  0  0  0  0  0  0  0  0  0  0
   57.6110   29.4500   51.1408 H   0  0  0  0  0  0  0  0  0  0  0  0
   55.8344   30.7489   52.3249 H   0  0  0  0  0  0  0  0  0  0  0  0
   56.2239   33.1377   52.9299 H   0  0  0  0  0  0  0  0  0  0  0  0
  1  2  1  0
  2  3  2  0
  3  4  1  0
  4  5  2  0
  5  6  1  0
  6  7  2  0
  7  8  1  0
  8  9  1  0
  9 10  1  0
 10 11  2  0
 11 12  1  0
 12 13  2  0
 13 14  1  0
 14 15  2  0
 15 16  1  0
 16 17  1  0
 17 18  1  0
 18 19  2  0
 18 20  1  0
 20 21  1  0
 21 22  1  0
 22 23  2  0
 22 24  1  0
 24 25  2  3
 25 26  1  0
 26 27  2  0
 27 28  1  0
 28 29  2  0
 29 30  1  0
 30 31  2  0
 31 32  1  0
  7  2  1  0
 15 10  1  0
 31 26  1  0
  1 33  1  0
  1 34  1  0
  3 35  1  0
  4 36  1  0
  5 37  1  0
  6 38  1  0
  8 39  1  0
  8 40  1  0
  9 41  1  0
  9 42  1  0
 11 43  1  0
 12 44  1  0
 13 45  1  0
 14 46  1  0
 16 47  1  0
 16 48  1  0
 20 49  1  0
 20 50  1  0
 21 51  1  0
 21 52  1  0
 25 53  1  0
 27 54  1  0
 28 55  1  0
 29 56  1  0
 30 57  1  0
M  CHG  2   8   1  17  -1
M  END
>  <UniqueID>  (72) 
67

>  <SMILES>  (72) 
Nc1ccccc1[NH2+]Cc1ccccc1C[N-]C(=O)CCC(=O)N=Cc1ccccc1F

>  <Energy>  (72) 
69.56115486241478

>  <Genealogy>  (72) 
Nc1ccccc1[NH2+]Cc1ccccc1C[N-]C(=O)CCC(=O)N=Cc1ccccc1F (protonated)
Nc1ccccc1[NH2+]Cc1ccccc1C[N-]C(=O)CCC(=O)N=Cc1ccccc1F (3D coordinates assigned)
Nc1ccccc1[NH2+]Cc1ccccc1C[N-]C(=O)CCC(=O)N=Cc1ccccc1F (optimized conformer: 69.56115486241478 kcal/mol)

>  <smiles>  (72) 
Nc1ccccc1NCc1ccccc1CNC(=O)CCC(=O)N=Cc1ccccc1F

>  <score_type>  (72) 
oracle

>  <origin>  (72) 
adg

>  <m_score__min__energy>  (72) 
-7.9900000000000002

>  <m_primary>  (72) 
energy

$$$$
72:0
     RDKit          3D

 62 64  0  0  0  0  0  0  0  0999 V2000
   57.8300   31.5590   44.0340 C   0  0  0  0  0  0  0  0  0  0  0  0
   57.4830   32.4330   45.2370 C   0  0  0  0  0  0  0  0  0  0  0  0
   57.6940   33.9200   44.9190 C   0  0  0  0  0  0  0  0  0  0  0  0
   59.1470   34.2510   44.5330 C   0  0  0  0  0  0  0  0  0  0  0  0
   59.9360   35.0320   45.6020 C   0  0  0  0  0  0  0  0  0  0  0  0
   59.6410   34.5610   47.0040 C   0  0  0  0  0  0  0  0  0  0  0  0
   58.9130   35.2910   47.7330 O   0  0  0  0  0  0  0  0  0  0  0  0
   60.1600   33.3150   47.5280 N   0  0  0  0  0  0  0  0  0  0  0  0
   61.1430   32.5190   46.7690 C   0  0  0  0  0  0  0  0  0  0  0  0
   61.8930   31.5390   47.6790 C   0  0  0  0  0  0  0  0  0  0  0  0
   60.9390   30.6220   48.4770 C   0  0  0  0  0  0  0  0  0  0  0  0
   60.6770   29.3910   47.7240 N   0  0  0  0  0  0  0  0  0  0  0  0
   59.7290   28.4050   48.1670 C   0  0  0  0  0  0  0  0  0  0  0  0
   59.0300   28.6290   49.1940 O   0  0  0  0  0  0  0  0  0  0  0  0
   59.5470   27.1320   47.4270 C   0  0  0  0  0  0  0  0  0  0  0  0
   60.6180   26.5820   46.6990 C   0  0  0  0  0  0  0  0  0  0  0  0
   60.4570   25.3850   45.9960 C   0  0  0  0  0  0  0  0  0  0  0  0
   59.2210   24.7230   45.9910 C   0  0  0  0  0  0  0  0  0  0  0  0
   59.0670   23.4430   45.2700 C   0  0  0  0  0  0  0  0  0  0  0  0
   59.9890   22.5840   45.3470 O   0  0  0  0  0  0  0  0  0  0  0  0
   57.8930   23.1530   44.4890 N   0  0  0  0  0  0  0  0  0  0  0  0
   57.1730   24.1530   43.7160 C   0  0  0  0  0  0  0  0  0  0  0  0
   56.0590   23.3960   43.0030 C   0  0  0  0  0  0  0  0  0  0  0  0
   56.4490   21.9220   43.0610 C   0  0  0  0  0  0  0  0  0  0  0  0
   57.4640   21.7980   44.1900 C   0  0  0  0  0  0  0  0  0  0  0  0
   58.1540   25.2630   46.7240 C   0  0  0  0  0  0  0  0  0  0  0  0
   58.3110   26.4620   47.4260 C   0  0  0  0  0  0  0  0  0  0  0  0
   59.6000   31.3060   48.8380 C   0  0  0  0  0  0  0  0  0  0  0  0
   59.7090   32.8330   48.8450 C   0  0  0  0  0  0  0  0  0  0  0  0
   58.2148   30.5897   44.3838 H   0  0  0  0  0  0  0  0  0  0  0  0
   56.9278   31.3974   43.4258 H   0  0  0  0  0  0  0  0  0  0  0  0
   58.5973   32.0603   43.4258 H   0  0  0  0  0  0  0  0  0  0  0  0
   56.4295   32.2695   45.5079 H   0  0  0  0  0  0  0  0  0  0  0  0
   58.1441   32.1570   46.0717 H   0  0  0  0  0  0  0  0  0  0  0  0
   57.0369   34.1962   44.0812 H   0  0  0  0  0  0  0  0  0  0  0  0
   57.4574   34.4887   45.8304 H   0  0  0  0  0  0  0  0  0  0  0  0
   59.6744   33.3050   44.3411 H   0  0  0  0  0  0  0  0  0  0  0  0
   59.0924   34.9035   43.6491 H   0  0  0  0  0  0  0  0  0  0  0  0
   61.0113   34.9060   45.4075 H   0  0  0  0  0  0  0  0  0  0  0  0
   59.6310   36.0867   45.5351 H   0  0  0  0  0  0  0  0  0  0  0  0
   60.6166   31.9507   45.9881 H   0  0  0  0  0  0  0  0  0  0  0  0
   61.8761   33.2079   46.3240 H   0  0  0  0  0  0  0  0  0  0  0  0
   62.5475   30.9108   47.0570 H   0  0  0  0  0  0  0  0  0  0  0  0
   62.4701   32.1318   48.4040 H   0  0  0  0  0  0  0  0  0  0  0  0
   61.4471   30.3884   49.4242 H   0  0  0  0  0  0  0  0  0  0  0  0
   61.0540   29.3270   46.7540 H   0  0  0  0  0  0  0  0  0  0  0  0
   61.5893   27.0980   46.6831 H   0  0  0  0  0  0  0  0  0  0  0  0
   61.3066   24.9588   45.4422 H   0  0  0  0  0  0  0  0  0  0  0  0
   56.7509   24.9213   44.3805 H   0  0  0  0  0  0  0  0  0  0  0  0
   57.8333   24.6706   43.0046 H   0  0  0  0  0  0  0  0  0  0  0  0
   55.0987   23.5578   43.5145 H   0  0  0  0  0  0  0  0  0  0  0  0
   55.9376   23.7404   41.9654 H   0  0  0  0  0  0  0  0  0  0  0  0
   55.5656   21.3013   43.2719 H   0  0  0  0  0  0  0  0  0  0  0  0
   56.8687   21.5793   42.1037 H   0  0  0  0  0  0  0  0  0  0  0  0
   56.9981   21.3399   45.0750 H   0  0  0  0  0  0  0  0  0  0  0  0
   58.3124   21.1595   43.9026 H   0  0  0  0  0  0  0  0  0  0  0  0
   57.1868   24.7395   46.7467 H   0  0  0  0  0  0  0  0  0  0  0  0
   57.4609   26.8843   47.9818 H   0  0  0  0  0  0  0  0  0  0  0  0
   58.8411   31.0092   48.0991 H   0  0  0  0  0  0  0  0  0  0  0  0
   59.3216   30.9846   49.8525 H   0  0  0  0  0  0  0  0  0  0  0  0
   58.7243   33.2669   49.0734 H   0  0  0  0  0  0  0  0  0  0  0  0
   60.4391   33.1381   49.6091 H   0  0  0  0  0  0  0  0  0  0  0  0
  1  2  1  0
  2  3  1  0
  3  4  1  0
  4  5  1  0
  5  6  1  0
  6  7  2  0
  6  8  1  0
  8  9  1  0
  9 10  1  0
 10 11  1  0
 11 12  1  0
 12 13  1  0
 13 14  2  0
 13 15  1  0
 15 16  2  0
 16 17  1  0
 17 18  2  0
 18 19  1  0
 19 20  2  0
 19 21  1  0
 21 22  1  0
 22 23  1  0
 23 24  1  0
 24 25  1  0
 18 26  1  0
 26 27  2  0
 11 28  1  0
 28 29  1  0
 29  8  1  0
 27 15  1  0
 25 21  1  0
  1 30  1  0
  1 31  1  0
  1 32  1  0
  2 33  1  0
  2 34  1  0
  3 35  1  0
  3 36  1  0
  4 37  1  0
  4 38  1  0
  5 39  1  0
  5 40  1  0
  9 41  1  0
  9 42  1  0
 10 43  1  0
 10 44  1  0
 11 45  1  0
 12 46  1  0
 16 47  1  0
 17 48  1  0
 22 49  1  0
 22 50  1  0
 23 51  1  0
 23 52  1  0
 24 53  1  0
 24 54  1  0
 25 55  1  0
 25 56  1  0
 26 57  1  0
 27 58  1  0
 28 59  1  0
 28 60  1  0
 29 61  1  0
 29 62  1  0
M  END
>  <UniqueID>  (73) 
68

>  <SMILES>  (73) 
CCCCCC(=O)N1CCC(NC(=O)c2ccc(C(=O)N3CCCC3)cc2)CC1

>  <Energy>  (73) 
62.113279010811425

>  <Genealogy>  (73) 
CCCCCC(=O)N1CCC(NC(=O)c2ccc(C(=O)N3CCCC3)cc2)CC1 (3D coordinates assigned)
CCCCCC(=O)N1CCC(NC(=O)c2ccc(C(=O)N3CCCC3)cc2)CC1 (nonaromatic ring conformer: 62.113279010811425 kcal/mol)

>  <smiles>  (73) 
CCCCCC(=O)N1CCC(NC(=O)c2ccc(C(=O)N3CCCC3)cc2)CC1

>  <score_type>  (73) 
oracle

>  <origin>  (73) 
adg

>  <m_score__min__energy>  (73) 
-8.1099999999999994

>  <m_primary>  (73) 
energy

$$$$
73:0
     RDKit          3D

 42 44  0  0  0  0  0  0  0  0999 V2000
   58.6530   29.2800   48.9450 C   0  0  0  0  0  0  0  0  0  0  0  0
   59.5710   29.8640   48.1560 C   0  0  0  0  0  0  0  0  0  0  0  0
   59.9190   29.4970   46.8450 C   0  0  0  0  0  0  0  0  0  0  0  0
   59.5600   28.4360   46.0940 C   0  0  0  0  0  0  0  0  0  0  0  0
   58.2350   27.7860   46.1010 C   0  0  0  0  0  0  0  0  0  0  0  0
   57.0930   28.4610   45.6310 C   0  0  0  0  0  0  0  0  0  0  0  0
   57.1500   29.7850   45.1920 O   0  0  0  0  0  0  0  0  0  0  0  0
   55.8950   27.8180   45.6090 N   0  0  0  0  0  0  0  0  0  0  0  0
   55.7770   26.5310   46.0220 C   0  0  0  0  0  0  0  0  0  0  0  0
   54.6540   25.9630   45.9950 O   0  0  0  0  0  0  0  0  0  0  0  0
   56.8680   25.8540   46.4590 N   0  0  0  0  0  0  0  0  0  0  0  0
   58.0910   26.4450   46.5010 C   0  0  0  0  0  0  0  0  0  0  0  0
   59.0840   25.7790   46.8960 O   0  0  0  0  0  0  0  0  0  0  0  0
   60.8030   30.4620   46.3940 C   0  0  0  0  0  0  0  0  0  0  0  0
   61.0080   31.3380   47.4380 C   0  0  0  0  0  0  0  0  0  0  0  0
   61.9340   32.5160   47.3850 C   0  0  0  0  0  0  0  0  0  0  0  0
   60.2570   30.9860   48.5070 N   0  0  0  0  0  0  0  0  0  0  0  0
   60.2610   31.6590   49.8150 C   0  0  0  0  0  0  0  0  0  0  0  0
   59.2070   32.7200   49.8410 C   0  0  0  0  0  0  0  0  0  0  0  0
   58.2450   32.6210   50.6510 O   0  0  0  0  0  0  0  0  0  0  0  0
   59.2990   33.8320   48.9440 N   0  0  0  0  0  0  0  0  0  0  0  0
   58.8840   33.8490   47.5710 C   0  0  0  0  0  0  0  0  0  0  0  0
   59.5340   34.7160   46.6830 C   0  0  0  0  0  0  0  0  0  0  0  0
   59.1750   34.7440   45.3320 C   0  0  0  0  0  0  0  0  0  0  0  0
   58.1760   33.8930   44.8550 C   0  0  0  0  0  0  0  0  0  0  0  0
   57.5390   33.0040   45.7280 C   0  0  0  0  0  0  0  0  0  0  0  0
   56.5580   32.1440   45.2480 O   0  0  0  0  0  0  0  0  0  0  0  0
   57.8950   32.9750   47.0810 C   0  0  0  0  0  0  0  0  0  0  0  0
   58.4738   29.6662   49.9593 H   0  0  0  0  0  0  0  0  0  0  0  0
   58.0808   28.4158   48.5765 H   0  0  0  0  0  0  0  0  0  0  0  0
   60.3206   28.0189   45.4176 H   0  0  0  0  0  0  0  0  0  0  0  0
   56.6460   30.5360   45.6470 H   0  0  0  0  0  0  0  0  0  0  0  0
   61.2556   30.5188   45.3930 H   0  0  0  0  0  0  0  0  0  0  0  0
   62.1831   32.8329   48.4085 H   0  0  0  0  0  0  0  0  0  0  0  0
   62.8552   32.2346   46.8538 H   0  0  0  0  0  0  0  0  0  0  0  0
   61.4430   33.3447   46.8538 H   0  0  0  0  0  0  0  0  0  0  0  0
   60.0571   30.9220   50.6057 H   0  0  0  0  0  0  0  0  0  0  0  0
   61.2453   32.1201   49.9837 H   0  0  0  0  0  0  0  0  0  0  0  0
   60.3314   35.3785   47.0508 H   0  0  0  0  0  0  0  0  0  0  0  0
   59.6804   35.4375   44.6438 H   0  0  0  0  0  0  0  0  0  0  0  0
   57.8898   33.9214   43.7933 H   0  0  0  0  0  0  0  0  0  0  0  0
   57.4009   32.2677   47.7633 H   0  0  0  0  0  0  0  0  0  0  0  0
  1  2  2  0
  2  3  1  0
  3  4  2  3
  4  5  1  0
  5  6  2  0
  6  7  1  0
  6  8  1  0
  8  9  1  0
  9 10  2  0
  9 11  1  0
 11 12  1  0
 12 13  2  0
  3 14  1  0
 14 15  2  0
 15 16  1  0
 15 17  1  0
 17 18  1  0
 18 19  1  0
 19 20  2  0
 19 21  1  0
 21 22  1  0
 22 23  2  0
 23 24  1  0
 24 25  2  0
 25 26  1  0
 26 27  1  0
 26 28  2  0
 17  2  1  0
 28 22  1  0
 12  5  1  0
  1 29  1  0
  1 30  1  0
  4 31  1  0
  7 32  1  0
 14 33  1  0
 16 34  1  0
 16 35  1  0
 16 36  1  0
 18 37  1  0
 18 38  1  0
 23 39  1  0
 24 40  1  0
 25 41  1  0
 28 42  1  0
M  CHG  4   8  -1  11  -1  21  -1  27  -1
M  END
>  <UniqueID>  (74) 
69

>  <SMILES>  (74) 
C=c1c(=Cc2c(O)[n-]c(=O)[n-]c2=O)cc(C)n1CC(=O)[N-]c1cccc([O-])c1

>  <Energy>  (74) 
89.39063278043544

>  <Genealogy>  (74) 
C=c1c(=Cc2c(O)[n-]c(=O)[n-]c2=O)cc(C)n1CC(=O)[N-]c1cccc([O-])c1 (protonated)
C=c1c(=Cc2c(O)[n-]c(=O)[n-]c2=O)cc(C)n1CC(=O)[N-]c1cccc([O-])c1 (3D coordinates assigned)
C=c1c(=Cc2c(O)[n-]c(=O)[n-]c2=O)cc(C)n1CC(=O)[N-]c1cccc([O-])c1 (optimized conformer: 89.39063278043544 kcal/mol)

>  <smiles>  (74) 
C=c1c(=Cc2c(O)[nH]c(=O)[nH]c2=O)cc(C)n1CC(=O)Nc1cccc(O)c1

>  <score_type>  (74) 
oracle

>  <origin>  (74) 
adg

>  <m_score__min__energy>  (74) 
-15.98

>  <m_primary>  (74) 
energy

$$$$
74:0
     RDKit          3D

 59 62  0  0  0  0  0  0  0  0999 V2000
   59.6830   32.3490   54.0190 O   0  0  0  0  0  0  0  0  0  0  0  0
   59.5060   32.4340   52.7750 C   0  0  0  0  0  0  0  0  0  0  0  0
   60.5750   32.1370   51.8750 N   0  0  0  0  0  0  0  0  0  0  0  0
   61.2170   33.1500   51.0470 C   0  0  0  0  0  0  0  0  0  0  0  0
   62.6760   32.8230   50.8730 C   0  0  0  0  0  0  0  0  0  0  0  0
   63.1260   31.5040   51.0360 C   0  0  0  0  0  0  0  0  0  0  0  0
   64.4640   31.1810   50.7910 C   0  0  0  0  0  0  0  0  0  0  0  0
   65.3640   32.1710   50.3940 C   0  0  0  0  0  0  0  0  0  0  0  0
   64.9260   33.4920   50.2390 C   0  0  0  0  0  0  0  0  0  0  0  0
   63.5870   33.8180   50.4720 C   0  0  0  0  0  0  0  0  0  0  0  0
   58.2090   32.8870   52.2490 C   0  0  0  0  0  0  0  0  0  0  0  0
   57.6800   33.9320   52.7110 O   0  0  0  0  0  0  0  0  0  0  0  0
   57.5420   32.1710   51.2020 N   0  0  0  0  0  0  0  0  0  0  0  0
   58.2030   31.3820   50.1980 C   0  0  0  0  0  0  0  0  0  0  0  0
   58.4660   30.0170   50.3960 C   0  0  0  0  0  0  0  0  0  0  0  0
   59.1430   29.2810   49.4260 C   0  0  0  0  0  0  0  0  0  0  0  0
   59.5640   29.8950   48.2360 C   0  0  0  0  0  0  0  0  0  0  0  0
   60.3180   29.1630   47.2630 N   0  0  0  0  0  0  0  0  0  0  0  0
   60.1350   27.4640   46.9700 S   0  0  0  0  0  0  0  0  0  0  0  0
   61.0360   27.0080   45.8610 O   0  0  0  0  0  0  0  0  0  0  0  0
   60.5210   26.7290   48.2220 O   0  0  0  0  0  0  0  0  0  0  0  0
   58.4570   27.1090   46.5700 C   0  0  0  0  0  0  0  0  0  0  0  0
   57.8800   25.8870   46.9400 C   0  0  0  0  0  0  0  0  0  0  0  0
   56.5380   25.6310   46.6570 C   0  0  0  0  0  0  0  0  0  0  0  0
   55.7590   26.5910   46.0050 C   0  0  0  0  0  0  0  0  0  0  0  0
   54.4200   26.3250   45.7460 O   0  0  0  0  0  0  0  0  0  0  0  0
   56.3310   27.8140   45.6240 C   0  0  0  0  0  0  0  0  0  0  0  0
   55.5780   28.7950   44.9810 O   0  0  0  0  0  0  0  0  0  0  0  0
   57.6780   28.0630   45.8990 C   0  0  0  0  0  0  0  0  0  0  0  0
   59.2380   31.2480   47.9970 C   0  0  0  0  0  0  0  0  0  0  0  0
   59.6970   31.9490   46.7410 C   0  0  0  0  0  0  0  0  0  0  0  0
   61.1370   32.3800   46.8620 C   0  0  0  0  0  0  0  0  0  0  0  0
   61.5410   33.6390   46.3870 C   0  0  0  0  0  0  0  0  0  0  0  0
   62.8730   34.0430   46.5070 C   0  0  0  0  0  0  0  0  0  0  0  0
   63.8130   33.1910   47.0950 C   0  0  0  0  0  0  0  0  0  0  0  0
   63.4200   31.9360   47.5670 C   0  0  0  0  0  0  0  0  0  0  0  0
   62.0870   31.5320   47.4560 C   0  0  0  0  0  0  0  0  0  0  0  0
   58.5600   31.9800   48.9840 C   0  0  0  0  0  0  0  0  0  0  0  0
   60.7296   33.1773   50.0612 H   0  0  0  0  0  0  0  0  0  0  0  0
   61.1224   34.1303   51.5370 H   0  0  0  0  0  0  0  0  0  0  0  0
   62.4234   30.7212   51.3578 H   0  0  0  0  0  0  0  0  0  0  0  0
   64.8084   30.1433   50.9115 H   0  0  0  0  0  0  0  0  0  0  0  0
   66.4163   31.9139   50.2030 H   0  0  0  0  0  0  0  0  0  0  0  0
   65.6366   34.2741   49.9335 H   0  0  0  0  0  0  0  0  0  0  0  0
   63.2443   34.8551   50.3416 H   0  0  0  0  0  0  0  0  0  0  0  0
   58.1354   29.5256   51.3229 H   0  0  0  0  0  0  0  0  0  0  0  0
   59.3486   28.2135   49.5935 H   0  0  0  0  0  0  0  0  0  0  0  0
   58.4866   25.1275   47.4549 H   0  0  0  0  0  0  0  0  0  0  0  0
   56.0909   24.6691   46.9484 H   0  0  0  0  0  0  0  0  0  0  0  0
   54.7230   28.5770   44.4850 H   0  0  0  0  0  0  0  0  0  0  0  0
   58.1314   29.0153   45.5866 H   0  0  0  0  0  0  0  0  0  0  0  0
   59.5970   31.2619   45.8878 H   0  0  0  0  0  0  0  0  0  0  0  0
   59.0738   32.8426   46.5891 H   0  0  0  0  0  0  0  0  0  0  0  0
   60.8054   34.3095   45.9186 H   0  0  0  0  0  0  0  0  0  0  0  0
   63.1826   35.0322   46.1386 H   0  0  0  0  0  0  0  0  0  0  0  0
   64.8621   33.5089   47.1860 H   0  0  0  0  0  0  0  0  0  0  0  0
   64.1609   31.2652   48.0265 H   0  0  0  0  0  0  0  0  0  0  0  0
   61.7801   30.5461   47.8352 H   0  0  0  0  0  0  0  0  0  0  0  0
   58.3065   33.0347   48.8016 H   0  0  0  0  0  0  0  0  0  0  0  0
  1  2  2  0
  2  3  1  0
  3  4  1  0
  4  5  1  0
  5  6  2  0
  6  7  1  0
  7  8  2  0
  8  9  1  0
  9 10  2  0
  2 11  1  0
 11 12  2  0
 11 13  1  0
 13 14  1  0
 14 15  2  0
 15 16  1  0
 16 17  2  0
 17 18  1  0
 18 19  1  0
 19 20  2  0
 19 21  2  0
 19 22  1  0
 22 23  2  0
 23 24  1  0
 24 25  2  0
 25 26  1  0
 25 27  1  0
 27 28  1  0
 27 29  2  0
 17 30  1  0
 30 31  1  0
 31 32  1  0
 32 33  2  0
 33 34  1  0
 34 35  2  0
 35 36  1  0
 36 37  2  0
 30 38  2  0
 10  5  1  0
 38 14  1  0
 29 22  1  0
 37 32  1  0
  4 39  1  0
  4 40  1  0
  6 41  1  0
  7 42  1  0
  8 43  1  0
  9 44  1  0
 10 45  1  0
 15 46  1  0
 16 47  1  0
 23 48  1  0
 24 49  1  0
 28 50  1  0
 29 51  1  0
 31 52  1  0
 31 53  1  0
 33 54  1  0
 34 55  1  0
 35 56  1  0
 36 57  1  0
 37 58  1  0
 38 59  1  0
M  CHG  4   3  -1  13  -1  18  -1  26  -1
M  END
>  <UniqueID>  (75) 
70

>  <SMILES>  (75) 
O=C([N-]Cc1ccccc1)C(=O)[N-]c1ccc([N-]S(=O)(=O)c2ccc([O-])c(O)c2)c(Cc2ccccc2)c1

>  <Energy>  (75) 
64.07427151052754

>  <Genealogy>  (75) 
O=C([N-]Cc1ccccc1)C(=O)[N-]c1ccc([N-]S(=O)(=O)c2ccc([O-])c(O)c2)c(Cc2ccccc2)c1 (protonated)
O=C([N-]Cc1ccccc1)C(=O)[N-]c1ccc([N-]S(=O)(=O)c2ccc([O-])c(O)c2)c(Cc2ccccc2)c1 (3D coordinates assigned)
O=C([N-]Cc1ccccc1)C(=O)[N-]c1ccc([N-]S(=O)(=O)c2ccc([O-])c(O)c2)c(Cc2ccccc2)c1 (optimized conformer: 64.07427151052754 kcal/mol)

>  <smiles>  (75) 
O=C(NCc1ccccc1)C(=O)Nc1ccc(NS(=O)(=O)c2ccc(O)c(O)c2)c(Cc2ccccc2)c1

>  <score_type>  (75) 
oracle

>  <origin>  (75) 
adg

>  <m_score__min__energy>  (75) 
-16.07

>  <m_primary>  (75) 
energy

$$$$
75:0
     RDKit          3D

 71 74  0  0  0  0  0  0  0  0999 V2000
   55.3820   30.4860   44.4770 O   0  0  0  0  0  0  0  0  0  0  0  0
   56.6380   30.5980   44.5020 C   0  0  0  0  0  0  0  0  0  0  0  0
   57.3600   31.1420   43.3050 C   0  0  0  0  0  0  0  0  0  0  0  0
   57.7840   32.6080   43.4980 C   0  0  0  0  0  0  0  0  0  0  0  0
   57.6440   33.1160   44.9200 C   0  0  0  0  0  0  0  0  0  0  0  0
   56.6940   33.8240   45.2310 O   0  0  0  0  0  0  0  0  0  0  0  0
   58.6480   32.7690   45.9100 N   0  0  1  0  0  0  0  0  0  0  0  0
   59.9000   33.5290   45.6700 C   0  0  0  0  0  0  0  0  0  0  0  0
   60.2440   34.4620   46.8450 C   0  0  0  0  0  0  0  0  0  0  0  0
   61.4900   33.9910   47.5450 C   0  0  0  0  0  0  0  0  0  0  0  0
   62.5620   33.4600   46.8070 C   0  0  0  0  0  0  0  0  0  0  0  0
   63.7290   33.0490   47.4570 C   0  0  0  0  0  0  0  0  0  0  0  0
   63.8400   33.1730   48.8450 C   0  0  0  0  0  0  0  0  0  0  0  0
   62.7830   33.7130   49.5850 C   0  0  0  0  0  0  0  0  0  0  0  0
   61.6150   34.1260   48.9370 C   0  0  0  0  0  0  0  0  0  0  0  0
   58.1000   33.0360   47.2620 C   0  0  0  0  0  0  0  0  0  0  0  0
   58.7190   32.1430   48.3120 C   0  0  0  0  0  0  0  0  0  0  0  0
   58.4230   32.3320   49.6740 C   0  0  0  0  0  0  0  0  0  0  0  0
   59.0180   31.5200   50.6440 C   0  0  0  0  0  0  0  0  0  0  0  0
   59.9070   30.5110   50.2620 C   0  0  0  0  0  0  0  0  0  0  0  0
   60.2060   30.3150   48.9100 C   0  0  0  0  0  0  0  0  0  0  0  0
   59.6190   31.1300   47.9380 C   0  0  0  0  0  0  0  0  0  0  0  0
   57.3900   30.1770   45.6460 N   0  0  0  0  0  0  0  0  0  0  0  0
   58.0870   28.9320   45.7950 C   0  0  0  0  0  0  0  0  0  0  0  0
   59.4910   28.8610   45.7840 C   0  0  0  0  0  0  0  0  0  0  0  0
   60.1330   27.6230   45.8720 C   0  0  0  0  0  0  0  0  0  0  0  0
   59.3830   26.4470   45.9650 C   0  0  0  0  0  0  0  0  0  0  0  0
   57.9820   26.5050   45.9650 C   0  0  0  0  0  0  0  0  0  0  0  0
   57.0280   25.0210   46.0620 S   0  0  0  0  0  0  0  0  0  0  0  0
   55.5660   25.3720   46.0860 O   0  0  0  0  0  0  0  0  0  0  0  0
   57.3560   24.3080   47.3460 O   0  0  0  0  0  0  0  0  0  0  0  0
   57.3460   23.9570   44.7110 N   0  0  0  0  0  0  0  0  0  0  0  0
   57.5960   22.5680   45.1560 C   0  0  0  0  0  0  0  0  0  0  0  0
   56.4190   21.6330   44.8260 C   0  0  0  0  0  0  0  0  0  0  0  0
   56.1260   21.5840   43.4370 O   0  0  0  0  0  0  0  0  0  0  0  0
   56.2740   22.8370   42.7770 C   0  0  0  0  0  0  0  0  0  0  0  0
   56.2660   24.0580   43.7110 C   0  0  0  0  0  0  0  0  0  0  0  0
   57.3420   27.7500   45.8650 C   0  0  0  0  0  0  0  0  0  0  0  0
   58.2591   30.5338   43.1272 H   0  0  0  0  0  0  0  0  0  0  0  0
   56.6718   31.0999   42.4479 H   0  0  0  0  0  0  0  0  0  0  0  0
   58.8386   32.7037   43.2002 H   0  0  0  0  0  0  0  0  0  0  0  0
   57.1081   33.2156   42.8784 H   0  0  0  0  0  0  0  0  0  0  0  0
   58.8610   31.7460   45.8330 H   0  0  0  0  0  0  0  0  0  0  0  0
   60.7261   32.8165   45.5289 H   0  0  0  0  0  0  0  0  0  0  0  0
   59.7529   34.1510   44.7748 H   0  0  0  0  0  0  0  0  0  0  0  0
   60.4066   35.4806   46.4628 H   0  0  0  0  0  0  0  0  0  0  0  0
   59.4092   34.4544   47.5613 H   0  0  0  0  0  0  0  0  0  0  0  0
   62.4821   33.3676   45.7138 H   0  0  0  0  0  0  0  0  0  0  0  0
   64.5618   32.6271   46.8753 H   0  0  0  0  0  0  0  0  0  0  0  0
   64.7582   32.8461   49.3550 H   0  0  0  0  0  0  0  0  0  0  0  0
   62.8707   33.8127   50.6769 H   0  0  0  0  0  0  0  0  0  0  0  0
   60.7895   34.5591   49.5209 H   0  0  0  0  0  0  0  0  0  0  0  0
   58.3005   34.0850   47.5253 H   0  0  0  0  0  0  0  0  0  0  0  0
   57.0196   32.8308   47.2365 H   0  0  0  0  0  0  0  0  0  0  0  0
   57.7203   33.1221   49.9772 H   0  0  0  0  0  0  0  0  0  0  0  0
   58.7866   31.6750   51.7082 H   0  0  0  0  0  0  0  0  0  0  0  0
   60.3719   29.8704   51.0259 H   0  0  0  0  0  0  0  0  0  0  0  0
   60.9037   29.5188   48.6113 H   0  0  0  0  0  0  0  0  0  0  0  0
   59.8623   30.9781   46.8760 H   0  0  0  0  0  0  0  0  0  0  0  0
   60.0860   29.7829   45.7059 H   0  0  0  0  0  0  0  0  0  0  0  0
   61.2319   27.5737   45.8681 H   0  0  0  0  0  0  0  0  0  0  0  0
   59.8925   25.4749   46.0383 H   0  0  0  0  0  0  0  0  0  0  0  0
   58.4993   22.1918   44.6535 H   0  0  0  0  0  0  0  0  0  0  0  0
   57.7225   22.5802   46.2486 H   0  0  0  0  0  0  0  0  0  0  0  0
   56.6701   20.6181   45.1680 H   0  0  0  0  0  0  0  0  0  0  0  0
   55.5292   22.0283   45.3378 H   0  0  0  0  0  0  0  0  0  0  0  0
   57.2302   22.8274   42.2333 H   0  0  0  0  0  0  0  0  0  0  0  0
   55.4020   22.9454   42.1153 H   0  0  0  0  0  0  0  0  0  0  0  0
   56.4111   24.9703   43.1138 H   0  0  0  0  0  0  0  0  0  0  0  0
   55.3002   24.0950   44.2362 H   0  0  0  0  0  0  0  0  0  0  0  0
   56.2433   27.7969   45.8414 H   0  0  0  0  0  0  0  0  0  0  0  0
  1  2  2  0
  2  3  1  0
  3  4  1  0
  4  5  1  0
  5  6  2  0
  5  7  1  0
  7  8  1  0
  8  9  1  0
  9 10  1  0
 10 11  2  0
 11 12  1  0
 12 13  2  0
 13 14  1  0
 14 15  2  0
  7 16  1  0
 16 17  1  0
 17 18  2  0
 18 19  1  0
 19 20  2  0
 20 21  1  0
 21 22  2  0
  2 23  1  0
 23 24  1  0
 24 25  2  0
 25 26  1  0
 26 27  2  0
 27 28  1  0
 28 29  1  0
 29 30  2  0
 29 31  2  0
 29 32  1  0
 32 33  1  0
 33 34  1  0
 34 35  1  0
 35 36  1  0
 36 37  1  0
 28 38  2  0
 15 10  1  0
 22 17  1  0
 38 24  1  0
 37 32  1  0
  3 39  1  0
  3 40  1  0
  4 41  1  0
  4 42  1  0
  7 43  1  1
  8 44  1  0
  8 45  1  0
  9 46  1  0
  9 47  1  0
 11 48  1  0
 12 49  1  0
 13 50  1  0
 14 51  1  0
 15 52  1  0
 16 53  1  0
 16 54  1  0
 18 55  1  0
 19 56  1  0
 20 57  1  0
 21 58  1  0
 22 59  1  0
 25 60  1  0
 26 61  1  0
 27 62  1  0
 33 63  1  0
 33 64  1  0
 34 65  1  0
 34 66  1  0
 36 67  1  0
 36 68  1  0
 37 69  1  0
 37 70  1  0
 38 71  1  0
M  CHG  2   7   1  23  -1
M  END
>  <UniqueID>  (76) 
71

>  <SMILES>  (76) 
O=C(CCC(=O)[N@@H+](CCc1ccccc1)Cc1ccccc1)[N-]c1cccc(S(=O)(=O)N2CCOCC2)c1

>  <Energy>  (76) 
86.6094235849066

>  <Genealogy>  (76) 
O=C(CCC(=O)[NH+](CCc1ccccc1)Cc1ccccc1)[N-]c1cccc(S(=O)(=O)N2CCOCC2)c1 (protonated)
O=C(CCC(=O)[N@@H+](CCc1ccccc1)Cc1ccccc1)[N-]c1cccc(S(=O)(=O)N2CCOCC2)c1 (chirality)
O=C(CCC(=O)[N@@H+](CCc1ccccc1)Cc1ccccc1)[N-]c1cccc(S(=O)(=O)N2CCOCC2)c1 (3D coordinates assigned)
O=C(CCC(=O)[N@@H+](CCc1ccccc1)Cc1ccccc1)[N-]c1cccc(S(=O)(=O)N2CCOCC2)c1 (nonaromatic ring conformer: 86.6094235849066 kcal/mol)

>  <smiles>  (76) 
O=C(CCC(=O)N(CCc1ccccc1)Cc1ccccc1)Nc1cccc(S(=O)(=O)N2CCOCC2)c1

>  <score_type>  (76) 
oracle

>  <origin>  (76) 
adg

>  <m_score__min__energy>  (76) 
-11.6

>  <m_primary>  (76) 
energy

$$$$
76:0
     RDKit          3D

 53 56  0  0  0  0  0  0  0  0999 V2000
   59.7290   34.5240   48.3460 C   0  0  0  0  0  0  0  0  0  0  0  0
   59.0250   33.2790   47.9000 C   0  0  0  0  0  0  0  0  0  0  0  0
   58.8120   32.3750   48.7530 O   0  0  0  0  0  0  0  0  0  0  0  0
   58.5850   33.0850   46.4910 C   0  0  0  0  0  0  0  0  0  0  0  0
   59.2670   33.6970   45.4210 C   0  0  0  0  0  0  0  0  0  0  0  0
   58.8310   33.5120   44.1070 C   0  0  0  0  0  0  0  0  0  0  0  0
   57.7210   32.7100   43.8380 C   0  0  0  0  0  0  0  0  0  0  0  0
   57.0440   32.0700   44.8870 C   0  0  0  0  0  0  0  0  0  0  0  0
   55.8850   31.2530   44.6610 N   0  0  0  0  0  0  0  0  0  0  0  0
   55.8510   29.9210   44.1330 C   0  0  0  0  0  0  0  0  0  0  0  0
   56.1310   29.7020   42.9250 O   0  0  0  0  0  0  0  0  0  0  0  0
   55.6060   28.8090   45.0010 N   0  0  0  0  0  0  0  0  0  0  0  0
   56.6250   27.9470   45.5240 C   0  0  0  0  0  0  0  0  0  0  0  0
   56.3300   26.5960   45.7410 C   0  0  0  0  0  0  0  0  0  0  0  0
   57.3190   25.7270   46.2090 C   0  0  0  0  0  0  0  0  0  0  0  0
   58.6050   26.2050   46.4790 C   0  0  0  0  0  0  0  0  0  0  0  0
   58.9030   27.5690   46.3030 C   0  0  0  0  0  0  0  0  0  0  0  0
   60.1740   28.1040   46.5680 O   0  0  0  0  0  0  0  0  0  0  0  0
   60.6340   29.3740   46.1080 C   0  0  0  0  0  0  0  0  0  0  0  0
   61.0820   30.2090   47.2730 C   0  0  0  0  0  0  0  0  0  0  0  0
   60.7880   29.8370   48.5850 C   0  0  0  0  0  0  0  0  0  0  0  0
   61.2440   30.6380   49.6340 C   0  0  0  0  0  0  0  0  0  0  0  0
   60.9810   30.2920   50.8190 O   0  0  0  0  0  0  0  0  0  0  0  0
   61.9660   31.7770   49.3720 N   0  0  0  0  0  0  0  0  0  0  0  0
   62.4240   32.5690   50.3960 C   0  0  0  0  0  0  0  0  0  0  0  0
   63.1540   33.7370   50.1310 C   0  0  0  0  0  0  0  0  0  0  0  0
   63.6860   34.5740   51.2570 C   0  0  0  0  0  0  0  0  0  0  0  0
   63.4400   34.0730   48.8060 C   0  0  0  0  0  0  0  0  0  0  0  0
   62.9740   33.2700   47.7690 C   0  0  0  0  0  0  0  0  0  0  0  0
   62.2330   32.1220   48.0650 C   0  0  0  0  0  0  0  0  0  0  0  0
   61.7890   31.3440   47.0450 N   0  0  0  0  0  0  0  0  0  0  0  0
   57.9040   28.4350   45.8430 C   0  0  0  0  0  0  0  0  0  0  0  0
   57.4660   32.2790   46.2070 C   0  0  0  0  0  0  0  0  0  0  0  0
   59.7493   34.5600   49.4452 H   0  0  0  0  0  0  0  0  0  0  0  0
   60.7591   34.5210   47.9601 H   0  0  0  0  0  0  0  0  0  0  0  0
   59.1955   35.4052   47.9601 H   0  0  0  0  0  0  0  0  0  0  0  0
   60.1481   34.3243   45.6215 H   0  0  0  0  0  0  0  0  0  0  0  0
   59.3656   34.0012   43.2794 H   0  0  0  0  0  0  0  0  0  0  0  0
   57.3763   32.5794   42.8016 H   0  0  0  0  0  0  0  0  0  0  0  0
   55.3165   26.2173   45.5425 H   0  0  0  0  0  0  0  0  0  0  0  0
   57.0852   24.6636   46.3655 H   0  0  0  0  0  0  0  0  0  0  0  0
   59.3853   25.5135   46.8297 H   0  0  0  0  0  0  0  0  0  0  0  0
   61.4782   29.2279   45.4181 H   0  0  0  0  0  0  0  0  0  0  0  0
   59.8131   29.8894   45.5879 H   0  0  0  0  0  0  0  0  0  0  0  0
   60.2058   28.9265   48.7901 H   0  0  0  0  0  0  0  0  0  0  0  0
   62.2157   32.2837   51.4377 H   0  0  0  0  0  0  0  0  0  0  0  0
   63.3985   34.1217   52.2176 H   0  0  0  0  0  0  0  0  0  0  0  0
   64.7827   34.6252   51.1894 H   0  0  0  0  0  0  0  0  0  0  0  0
   63.2667   35.5887   51.1894 H   0  0  0  0  0  0  0  0  0  0  0  0
   64.0333   34.9718   48.5820 H   0  0  0  0  0  0  0  0  0  0  0  0
   63.1873   33.5369   46.7234 H   0  0  0  0  0  0  0  0  0  0  0  0
   58.1219   29.5073   45.7301 H   0  0  0  0  0  0  0  0  0  0  0  0
   56.9149   31.8064   47.0334 H   0  0  0  0  0  0  0  0  0  0  0  0
  1  2  1  0
  2  3  2  0
  2  4  1  0
  4  5  2  0
  5  6  1  0
  6  7  2  0
  7  8  1  0
  8  9  1  0
  9 10  1  0
 10 11  2  0
 10 12  1  0
 12 13  1  0
 13 14  2  0
 14 15  1  0
 15 16  2  0
 16 17  1  0
 17 18  1  0
 18 19  1  0
 19 20  1  0
 20 21  2  0
 21 22  1  0
 22 23  2  0
 22 24  1  0
 24 25  1  0
 25 26  2  0
 26 27  1  0
 26 28  1  0
 28 29  2  0
 29 30  1  0
 30 31  2  0
 17 32  2  0
  8 33  2  0
 33  4  1  0
 32 13  1  0
 31 20  1  0
 30 24  1  0
  1 34  1  0
  1 35  1  0
  1 36  1  0
  5 37  1  0
  6 38  1  0
  7 39  1  0
 14 40  1  0
 15 41  1  0
 16 42  1  0
 19 43  1  0
 19 44  1  0
 21 45  1  0
 25 46  1  0
 27 47  1  0
 27 48  1  0
 27 49  1  0
 28 50  1  0
 29 51  1  0
 32 52  1  0
 33 53  1  0
M  CHG  2   9  -1  12  -1
M  END
>  <UniqueID>  (77) 
72

>  <SMILES>  (77) 
CC(=O)c1cccc([N-]C(=O)[N-]c2cccc(OCc3cc(=O)n4cc(C)ccc4n3)c2)c1

>  <Energy>  (77) 
67.8610406417994

>  <Genealogy>  (77) 
CC(=O)c1cccc([N-]C(=O)[N-]c2cccc(OCc3cc(=O)n4cc(C)ccc4n3)c2)c1 (protonated)
CC(=O)c1cccc([N-]C(=O)[N-]c2cccc(OCc3cc(=O)n4cc(C)ccc4n3)c2)c1 (3D coordinates assigned)
CC(=O)c1cccc([N-]C(=O)[N-]c2cccc(OCc3cc(=O)n4cc(C)ccc4n3)c2)c1 (optimized conformer: 67.8610406417994 kcal/mol)

>  <smiles>  (77) 
CC(=O)c1cccc(NC(=O)Nc2cccc(OCc3cc(=O)n4cc(C)ccc4n3)c2)c1

>  <score_type>  (77) 
oracle

>  <origin>  (77) 
adg

>  <m_score__min__energy>  (77) 
-13.74

>  <m_primary>  (77) 
energy

$$$$
77:0
     RDKit          3D

 45 47  0  0  0  0  0  0  0  0999 V2000
   54.4310   29.5760   51.5060 O   0  0  0  0  0  0  0  0  0  0  0  0
   54.2860   30.5820   52.2490 C   0  0  0  0  0  0  0  0  0  0  0  0
   52.9050   31.1280   52.4880 C   0  0  0  0  0  0  0  0  0  0  0  0
   52.1290   31.2480   51.2110 C   0  0  0  0  0  0  0  0  0  0  0  0
   52.1110   30.3180   50.2380 N   0  0  0  0  0  0  0  0  0  0  0  0
   51.2630   30.8410   49.3250 C   0  0  0  0  0  0  0  0  0  0  0  0
   50.9870   30.2560   48.2450 O   0  0  0  0  0  0  0  0  0  0  0  0
   50.7290   32.0360   49.6620 N   0  0  0  0  0  0  0  0  0  0  0  0
   51.2830   32.2740   50.8620 C   0  0  0  0  0  0  0  0  0  0  0  0
   51.0180   33.4070   51.6240 O   0  0  0  0  0  0  0  0  0  0  0  0
   55.4370   31.1330   52.9040 N   0  0  0  0  0  0  0  0  0  0  0  0
   56.7920   30.8540   52.5360 C   0  0  0  0  0  0  0  0  0  0  0  0
   57.2560   31.1500   51.2450 C   0  0  0  0  0  0  0  0  0  0  0  0
   58.5790   30.8670   50.8840 C   0  0  0  0  0  0  0  0  0  0  0  0
   59.1580   31.2740   49.2730 S   0  0  0  0  0  0  0  0  0  0  0  0
   60.4720   31.9970   49.3750 O   0  0  0  0  0  0  0  0  0  0  0  0
   58.1670   32.1950   48.6190 O   0  0  0  0  0  0  0  0  0  0  0  0
   59.3930   29.7950   48.3810 N   0  0  0  0  0  0  0  0  0  0  0  0
   59.0850   29.5120   47.1470 C   0  0  0  0  0  0  0  0  0  0  0  0
   59.2390   28.0930   46.6140 C   0  0  0  0  0  0  0  0  0  0  0  0
   58.9100   27.8270   45.1340 C   0  0  0  0  0  0  0  0  0  0  0  0
   57.4170   27.9880   44.8050 C   0  0  0  0  0  0  0  0  0  0  0  0
   56.8360   29.3040   45.3440 C   0  0  0  0  0  0  0  0  0  0  0  0
   57.7760   30.5030   45.1810 C   0  0  0  0  0  0  0  0  0  0  0  0
   58.6880   30.6160   46.3120 N   0  0  0  0  0  0  0  0  0  0  0  0
   59.4400   30.2750   51.8180 C   0  0  0  0  0  0  0  0  0  0  0  0
   58.9700   29.9430   53.0920 C   0  0  0  0  0  0  0  0  0  0  0  0
   57.6470   30.2220   53.4500 C   0  0  0  0  0  0  0  0  0  0  0  0
   57.1900   29.8840   54.7180 O   0  0  0  0  0  0  0  0  0  0  0  0
   52.3675   30.4527   53.1699 H   0  0  0  0  0  0  0  0  0  0  0  0
   53.0037   32.1324   52.9256 H   0  0  0  0  0  0  0  0  0  0  0  0
   56.5757   31.6075   50.5116 H   0  0  0  0  0  0  0  0  0  0  0  0
   60.2869   27.7981   46.7723 H   0  0  0  0  0  0  0  0  0  0  0  0
   58.4852   27.5133   47.1669 H   0  0  0  0  0  0  0  0  0  0  0  0
   59.4820   28.5350   44.5164 H   0  0  0  0  0  0  0  0  0  0  0  0
   59.1794   26.7816   44.9229 H   0  0  0  0  0  0  0  0  0  0  0  0
   57.2922   27.9683   43.7123 H   0  0  0  0  0  0  0  0  0  0  0  0
   56.8765   27.1606   45.2880 H   0  0  0  0  0  0  0  0  0  0  0  0
   55.9021   29.5186   44.8039 H   0  0  0  0  0  0  0  0  0  0  0  0
   56.6736   29.1663   46.4232 H   0  0  0  0  0  0  0  0  0  0  0  0
   58.3622   30.3765   44.2588 H   0  0  0  0  0  0  0  0  0  0  0  0
   57.1676   31.4181   45.1317 H   0  0  0  0  0  0  0  0  0  0  0  0
   58.8810   31.5830   46.6630 H   0  0  0  0  0  0  0  0  0  0  0  0
   60.4868   30.0714   51.5483 H   0  0  0  0  0  0  0  0  0  0  0  0
   59.6433   29.4604   53.8158 H   0  0  0  0  0  0  0  0  0  0  0  0
  1  2  2  0
  2  3  1  0
  3  4  1  0
  4  5  1  0
  5  6  1  0
  6  7  2  0
  6  8  1  0
  8  9  1  0
  9 10  1  0
  2 11  1  0
 11 12  1  0
 12 13  2  0
 13 14  1  0
 14 15  1  0
 15 16  2  0
 15 17  2  0
 15 18  1  0
 18 19  2  3
 19 20  1  0
 20 21  1  0
 21 22  1  0
 22 23  1  0
 23 24  1  0
 24 25  1  0
 14 26  2  0
 26 27  1  0
 27 28  2  0
 28 29  1  0
  9  4  2  0
 28 12  1  0
 25 19  1  0
  3 30  1  0
  3 31  1  0
 13 32  1  0
 20 33  1  0
 20 34  1  0
 21 35  1  0
 21 36  1  0
 22 37  1  0
 22 38  1  0
 23 39  1  0
 23 40  1  0
 24 41  1  0
 24 42  1  0
 25 43  1  0
 26 44  1  0
 27 45  1  0
M  CHG  5   5  -1   8  -1  10  -1  11  -1  29  -1
M  END
>  <UniqueID>  (78) 
73

>  <SMILES>  (78) 
O=C(Cc1[n-]c(=O)[n-]c1[O-])[N-]c1cc(S(=O)(=O)N=C2CCCCCN2)ccc1[O-]

>  <Energy>  (78) 
89.94674903944339

>  <Genealogy>  (78) 
O=C(Cc1[n-]c(=O)[n-]c1[O-])[N-]c1cc(S(=O)(=O)N=C2CCCCCN2)ccc1[O-] (protonated)
O=C(Cc1[n-]c(=O)[n-]c1[O-])[N-]c1cc(S(=O)(=O)N=C2CCCCCN2)ccc1[O-] (3D coordinates assigned)
O=C(Cc1[n-]c(=O)[n-]c1[O-])[N-]c1cc(S(=O)(=O)N=C2CCCCCN2)ccc1[O-] (nonaromatic ring conformer: 89.94674903944339 kcal/mol)

>  <smiles>  (78) 
O=C(Cc1[nH]c(=O)[nH]c1O)Nc1cc(S(=O)(=O)N=C2CCCCCN2)ccc1O

>  <score_type>  (78) 
oracle

>  <origin>  (78) 
adg

>  <m_score__min__energy>  (78) 
-17.260000000000002

>  <m_primary>  (78) 
energy

$$$$
78:0
     RDKit          3D

 54 57  0  0  1  0  0  0  0  0999 V2000
   64.9180   32.7620   49.3750 C   0  0  0  0  0  0  0  0  0  0  0  0
   63.6800   33.2770   48.7170 C   0  0  0  0  0  0  0  0  0  0  0  0
   63.6280   33.3040   47.3370 C   0  0  0  0  0  0  0  0  0  0  0  0
   62.4810   33.7810   46.7380 C   0  0  0  0  0  0  0  0  0  0  0  0
   61.4290   34.2130   47.5230 C   0  0  0  0  0  0  0  0  0  0  0  0
   60.2740   34.6920   46.9250 O   0  0  0  0  0  0  0  0  0  0  0  0
   59.3570   33.8370   46.2980 C   0  0  0  0  0  0  0  0  0  0  0  0
   58.5140   34.2750   45.2930 C   0  0  0  0  0  0  0  0  0  0  0  0
   57.6130   33.4220   44.6800 C   0  0  0  0  0  0  0  0  0  0  0  0
   57.5780   32.1090   45.1060 C   0  0  0  0  0  0  0  0  0  0  0  0
   56.6120   26.9450   46.4940 N   0  0  0  0  0  0  0  0  0  0  0  0
   56.9570   27.7710   45.5770 C   0  0  0  0  0  0  0  0  0  0  0  0
   57.7570   29.4450   43.5570 N   0  0  0  0  0  0  0  0  0  0  0  0
   58.1450   28.1590   43.4950 C   0  0  0  0  0  0  0  0  0  0  0  0
   57.7310   27.3170   44.5280 C   0  0  0  0  0  0  0  0  0  0  0  0
   56.9920   29.9140   44.5840 C   0  0  0  0  0  0  0  0  0  0  0  0
   56.6850   31.1540   44.5370 N   0  0  0  0  0  0  0  0  0  0  0  0
   57.1650   25.6100   46.6190 C   0  0  0  0  0  0  0  0  0  0  0  0
   56.2110   24.5280   46.1670 C   0  0  2  0  0  0  0  0  0  0  0  0
   56.5470   24.0810   44.7410 C   0  0  0  0  0  0  0  0  0  0  0  0
   55.7510   22.9220   44.3780 N   0  0  0  0  0  0  0  0  0  0  0  0
   54.3980   23.0260   44.8970 C   0  0  0  0  0  0  0  0  0  0  0  0
   54.0770   24.4640   45.2500 C   0  0  0  0  0  0  0  0  0  0  0  0
   54.8850   24.8460   46.2920 O   0  0  0  0  0  0  0  0  0  0  0  0
   56.6140   29.0720   45.5620 N   0  0  0  0  0  0  0  0  0  0  0  0
   58.4110   31.6400   46.1120 C   0  0  0  0  0  0  0  0  0  0  0  0
   59.3050   32.5050   46.7120 C   0  0  0  0  0  0  0  0  0  0  0  0
   61.4580   34.1950   48.9020 C   0  0  0  0  0  0  0  0  0  0  0  0
   62.6260   33.7090   49.5010 C   0  0  0  0  0  0  0  0  0  0  0  0
   64.8001   32.8111   50.4676 H   0  0  0  0  0  0  0  0  0  0  0  0
   65.0879   31.7186   49.0710 H   0  0  0  0  0  0  0  0  0  0  0  0
   65.7778   33.3771   49.0710 H   0  0  0  0  0  0  0  0  0  0  0  0
   64.4780   32.9547   46.7325 H   0  0  0  0  0  0  0  0  0  0  0  0
   62.4040   33.8174   45.6413 H   0  0  0  0  0  0  0  0  0  0  0  0
   58.5608   35.3265   44.9732 H   0  0  0  0  0  0  0  0  0  0  0  0
   56.9470   33.7780   43.8802 H   0  0  0  0  0  0  0  0  0  0  0  0
   58.0660   30.0750   42.7840 H   0  0  0  0  0  0  0  0  0  0  0  0
   58.7629   27.7863   42.6648 H   0  0  0  0  0  0  0  0  0  0  0  0
   58.0307   26.2588   44.5057 H   0  0  0  0  0  0  0  0  0  0  0  0
   58.0772   25.5503   46.0072 H   0  0  0  0  0  0  0  0  0  0  0  0
   57.3725   25.4396   47.6857 H   0  0  0  0  0  0  0  0  0  0  0  0
   56.3621   23.6871   46.8599 H   0  0  0  0  0  0  0  0  0  0  0  0
   56.3317   24.9029   44.0424 H   0  0  0  0  0  0  0  0  0  0  0  0
   57.6130   23.8144   44.6902 H   0  0  0  0  0  0  0  0  0  0  0  0
   56.2130   22.0220   44.5820 H   0  0  0  0  0  0  0  0  0  0  0  0
   53.6889   22.6732   44.1337 H   0  0  0  0  0  0  0  0  0  0  0  0
   54.3152   22.4089   45.8038 H   0  0  0  0  0  0  0  0  0  0  0  0
   54.2630   25.1104   44.3796 H   0  0  0  0  0  0  0  0  0  0  0  0
   53.0196   24.5548   45.5393 H   0  0  0  0  0  0  0  0  0  0  0  0
   56.0230   29.4510   46.3470 H   0  0  0  0  0  0  0  0  0  0  0  0
   58.3597   30.5879   46.4289 H   0  0  0  0  0  0  0  0  0  0  0  0
   59.9714   32.1468   47.5105 H   0  0  0  0  0  0  0  0  0  0  0  0
   60.6050   34.5454   49.5016 H   0  0  0  0  0  0  0  0  0  0  0  0
   62.7056   33.6706   50.5974 H   0  0  0  0  0  0  0  0  0  0  0  0
  1  2  1  0
  2  3  2  0
  3  4  1  0
  4  5  2  0
  5  6  1  0
  6  7  1  0
  7  8  2  0
  8  9  1  0
  9 10  2  0
 10 11  1  0
 11 12  2  0
 12 13  1  0
 13 14  1  0
 14 15  2  0
 15 16  1  0
 16 17  2  0
 17 18  1  0
 18 19  1  0
 19 20  1  0
 20 21  1  0
 21 22  1  0
 22 23  1  0
 23 24  1  0
 16 25  1  0
 10 26  1  0
 26 27  2  0
  5 28  1  0
 28 29  2  0
 29  2  1  0
 27  7  1  0
 25 12  1  0
 24 19  1  0
  1 30  1  0
  1 31  1  0
  1 32  1  0
  3 33  1  0
  4 34  1  0
  8 35  1  0
  9 36  1  0
 13 37  1  0
 14 38  1  0
 15 39  1  0
 18 40  1  0
 18 41  1  0
 19 42  1  1
 20 43  1  0
 20 44  1  0
 21 45  1  0
 22 46  1  0
 22 47  1  0
 23 48  1  0
 23 49  1  0
 25 50  1  0
 26 51  1  0
 27 52  1  0
 28 53  1  0
 29 54  1  0
M  END
>  <smiles>  (79) 
Cc1ccc(Oc2ccc(N=c3[nH]ccc(=NCC4CNCCO4)[nH]3)cc2)cc1

>  <score_type>  (79) 
oracle

>  <origin>  (79) 
adg

>  <m_score__min__energy>  (79) 
-9.9700000000000006

>  <m_primary>  (79) 
energy

$$$$
79:0
     RDKit          3D

 76 80  0  0  0  0  0  0  0  0999 V2000
   54.8000   29.8590   43.5390 O   0  0  0  0  0  0  0  0  0  0  0  0
   55.9160   29.7060   44.1120 C   0  0  0  0  0  0  0  0  0  0  0  0
   57.1430   30.3270   43.5240 C   0  0  0  0  0  0  0  0  0  0  0  0
   57.6410   31.4350   44.4200 C   0  0  0  0  0  0  0  0  0  0  0  0
   57.7670   32.7390   43.9160 C   0  0  0  0  0  0  0  0  0  0  0  0
   58.2720   33.7630   44.7220 C   0  0  0  0  0  0  0  0  0  0  0  0
   58.6900   33.4930   46.0330 C   0  0  0  0  0  0  0  0  0  0  0  0
   59.2220   34.5320   46.8690 N   0  0  0  0  0  0  0  0  0  0  0  0
   59.9030   34.2910   48.1100 C   0  0  0  0  0  0  0  0  0  0  0  0
   59.2630   34.3550   49.2010 O   0  0  0  0  0  0  0  0  0  0  0  0
   61.3640   33.9090   48.0980 C   0  0  2  0  0  0  0  0  0  0  0  0
   61.8810   33.9020   46.6460 C   0  0  0  0  0  0  0  0  0  0  0  0
   63.3490   33.4640   46.5890 C   0  0  0  0  0  0  0  0  0  0  0  0
   63.5200   32.0770   47.2120 C   0  0  0  0  0  0  0  0  0  0  0  0
   62.9880   32.0740   48.5830 N   0  0  0  0  0  0  0  0  0  0  0  0
   63.8310   31.6440   49.6750 C   0  0  0  0  0  0  0  0  0  0  0  0
   63.3480   30.8630   50.5430 O   0  0  0  0  0  0  0  0  0  0  0  0
   65.1910   32.2400   49.9770 C   0  0  0  0  0  0  0  0  0  0  0  0
   65.6920   32.4100   51.4070 C   0  0  0  0  0  0  0  0  0  0  0  0
   65.1130   33.5970   50.6560 C   0  0  0  0  0  0  0  0  0  0  0  0
   61.6100   32.5450   48.7900 C   0  0  0  0  0  0  0  0  0  0  0  0
   58.5610   32.1930   46.5440 C   0  0  0  0  0  0  0  0  0  0  0  0
   58.0500   31.1660   45.7380 C   0  0  0  0  0  0  0  0  0  0  0  0
   56.0410   28.8500   45.2540 N   0  0  0  0  0  0  0  0  0  0  0  0
   57.1920   28.0650   45.5910 C   0  0  0  0  0  0  0  0  0  0  0  0
   57.6820   27.0580   44.7390 C   0  0  0  0  0  0  0  0  0  0  0  0
   58.8320   26.3420   45.0920 C   0  0  0  0  0  0  0  0  0  0  0  0
   59.5060   26.6330   46.2810 C   0  0  0  0  0  0  0  0  0  0  0  0
   59.0230   27.6350   47.1380 C   0  0  0  0  0  0  0  0  0  0  0  0
   59.7750   27.9810   48.3590 C   0  0  0  0  0  0  0  0  0  0  0  0
   60.7330   27.2470   48.7150 O   0  0  0  0  0  0  0  0  0  0  0  0
   59.4820   29.1660   49.1150 N   0  0  0  0  0  0  0  0  0  0  0  0
   59.6310   29.2750   50.5650 C   0  0  0  0  0  0  0  0  0  0  0  0
   58.5620   30.1490   51.1620 C   0  0  0  0  0  0  0  0  0  0  0  0
   57.3950   29.6860   51.2880 O   0  0  0  0  0  0  0  0  0  0  0  0
   58.8520   31.5040   51.5910 N   0  0  0  0  0  0  0  0  0  0  0  0
   57.7370   32.4530   51.7450 C   0  0  0  0  0  0  0  0  0  0  0  0
   58.1440   33.6810   52.5750 C   0  0  0  0  0  0  0  0  0  0  0  0
   59.3770   34.2050   52.1330 O   0  0  0  0  0  0  0  0  0  0  0  0
   60.4000   33.2710   52.3990 C   0  0  0  0  0  0  0  0  0  0  0  0
   60.2330   32.0200   51.5320 C   0  0  0  0  0  0  0  0  0  0  0  0
   57.8380   28.3130   46.8070 C   0  0  0  0  0  0  0  0  0  0  0  0
   57.9259   29.5611   43.4224 H   0  0  0  0  0  0  0  0  0  0  0  0
   56.8985   30.7441   42.5359 H   0  0  0  0  0  0  0  0  0  0  0  0
   57.4664   32.9562   42.8804 H   0  0  0  0  0  0  0  0  0  0  0  0
   58.3420   34.7867   44.3257 H   0  0  0  0  0  0  0  0  0  0  0  0
   61.9250   34.6583   48.6758 H   0  0  0  0  0  0  0  0  0  0  0  0
   61.2737   33.2040   46.0510 H   0  0  0  0  0  0  0  0  0  0  0  0
   61.8029   34.9216   46.2407 H   0  0  0  0  0  0  0  0  0  0  0  0
   63.6765   33.4321   45.5394 H   0  0  0  0  0  0  0  0  0  0  0  0
   63.9572   34.1851   47.1548 H   0  0  0  0  0  0  0  0  0  0  0  0
   62.9753   31.3364   46.6080 H   0  0  0  0  0  0  0  0  0  0  0  0
   64.5896   31.8217   47.2385 H   0  0  0  0  0  0  0  0  0  0  0  0
   65.6549   31.7829   49.0905 H   0  0  0  0  0  0  0  0  0  0  0  0
   65.1340   31.9621   52.2425 H   0  0  0  0  0  0  0  0  0  0  0  0
   66.6380   32.2059   51.9299 H   0  0  0  0  0  0  0  0  0  0  0  0
   64.1362   34.0092   50.9492 H   0  0  0  0  0  0  0  0  0  0  0  0
   65.4677   34.6091   50.4115 H   0  0  0  0  0  0  0  0  0  0  0  0
   60.9127   31.8028   48.3742 H   0  0  0  0  0  0  0  0  0  0  0  0
   61.4487   32.6731   49.8705 H   0  0  0  0  0  0  0  0  0  0  0  0
   58.8617   31.9788   47.5802 H   0  0  0  0  0  0  0  0  0  0  0  0
   57.9687   30.1448   46.1387 H   0  0  0  0  0  0  0  0  0  0  0  0
   57.1617   26.8335   43.7962 H   0  0  0  0  0  0  0  0  0  0  0  0
   59.2067   25.5469   44.4306 H   0  0  0  0  0  0  0  0  0  0  0  0
   60.4168   26.0760   46.5461 H   0  0  0  0  0  0  0  0  0  0  0  0
   59.5614   28.2708   51.0085 H   0  0  0  0  0  0  0  0  0  0  0  0
   60.6096   29.7292   50.7795 H   0  0  0  0  0  0  0  0  0  0  0  0
   57.4141   32.7879   50.7482 H   0  0  0  0  0  0  0  0  0  0  0  0
   56.9203   31.9387   52.2727 H   0  0  0  0  0  0  0  0  0  0  0  0
   57.3684   34.4548   52.4763 H   0  0  0  0  0  0  0  0  0  0  0  0
   58.2508   33.3735   53.6257 H   0  0  0  0  0  0  0  0  0  0  0  0
   61.3748   33.7324   52.1824 H   0  0  0  0  0  0  0  0  0  0  0  0
   60.3423   32.9768   53.4573 H   0  0  0  0  0  0  0  0  0  0  0  0
   60.4765   32.2721   50.4894 H   0  0  0  0  0  0  0  0  0  0  0  0
   60.9098   31.2415   51.9139 H   0  0  0  0  0  0  0  0  0  0  0  0
   57.4143   29.0453   47.5100 H   0  0  0  0  0  0  0  0  0  0  0  0
  1  2  2  0
  2  3  1  0
  3  4  1  0
  4  5  2  0
  5  6  1  0
  6  7  2  0
  7  8  1  0
  8  9  1  0
  9 10  2  0
  9 11  1  0
 11 12  1  0
 12 13  1  0
 13 14  1  0
 14 15  1  0
 15 16  1  0
 16 17  2  0
 16 18  1  0
 18 19  1  0
 19 20  1  0
 15 21  1  0
  7 22  1  0
 22 23  2  0
  2 24  1  0
 24 25  1  0
 25 26  2  0
 26 27  1  0
 27 28  2  0
 28 29  1  0
 29 30  1  0
 30 31  2  0
 30 32  1  0
 32 33  1  0
 33 34  1  0
 34 35  2  0
 34 36  1  0
 36 37  1  0
 37 38  1  0
 38 39  1  0
 39 40  1  0
 40 41  1  0
 29 42  2  0
 23  4  1  0
 42 25  1  0
 21 11  1  0
 41 36  1  0
 20 18  1  0
  3 43  1  0
  3 44  1  0
  5 45  1  0
  6 46  1  0
 11 47  1  1
 12 48  1  0
 12 49  1  0
 13 50  1  0
 13 51  1  0
 14 52  1  0
 14 53  1  0
 18 54  1  0
 19 55  1  0
 19 56  1  0
 20 57  1  0
 20 58  1  0
 21 59  1  0
 21 60  1  0
 22 61  1  0
 23 62  1  0
 26 63  1  0
 27 64  1  0
 28 65  1  0
 33 66  1  0
 33 67  1  0
 37 68  1  0
 37 69  1  0
 38 70  1  0
 38 71  1  0
 40 72  1  0
 40 73  1  0
 41 74  1  0
 41 75  1  0
 42 76  1  0
M  CHG  3   8  -1  24  -1  32  -1
M  END
>  <UniqueID>  (80) 
74

>  <SMILES>  (80) 
O=C(Cc1ccc([N-]C(=O)[C@@H]2CCCN(C(=O)C3CC3)C2)cc1)[N-]c1cccc(C(=O)[N-]CC(=O)N2CCOCC2)c1

>  <Energy>  (80) 
360.556690741807

>  <Genealogy>  (80) 
O=C(Cc1ccc([N-]C(=O)C2CCCN(C(=O)C3CC3)C2)cc1)[N-]c1cccc(C(=O)[N-]CC(=O)N2CCOCC2)c1 (protonated)
O=C(Cc1ccc([N-]C(=O)[C@@H]2CCCN(C(=O)C3CC3)C2)cc1)[N-]c1cccc(C(=O)[N-]CC(=O)N2CCOCC2)c1 (chirality)
O=C(Cc1ccc([N-]C(=O)[C@@H]2CCCN(C(=O)C3CC3)C2)cc1)[N-]c1cccc(C(=O)[N-]CC(=O)N2CCOCC2)c1 (3D coordinates assigned)
O=C(Cc1ccc([N-]C(=O)[C@@H]2CCCN(C(=O)C3CC3)C2)cc1)[N-]c1cccc(C(=O)[N-]CC(=O)N2CCOCC2)c1 (nonaromatic ring conformer: 360.556690741807 kcal/mol)

>  <smiles>  (80) 
O=C(Cc1ccc(NC(=O)C2CCCN(C(=O)C3CC3)C2)cc1)Nc1cccc(C(=O)NCC(=O)N2CCOCC2)c1

>  <score_type>  (80) 
oracle

>  <origin>  (80) 
adg

>  <m_score__min__energy>  (80) 
-14.289999999999999

>  <m_primary>  (80) 
energy

$$$$
80:0
     RDKit          3D

 45 48  0  0  0  0  0  0  0  0999 V2000
   58.3980   27.2750   44.1700 O   0  0  0  0  0  0  0  0  0  0  0  0
   57.7290   27.7980   45.1030 C   0  0  0  0  0  0  0  0  0  0  0  0
   57.5060   29.2660   45.1050 C   0  0  0  0  0  0  0  0  0  0  0  0
   58.5380   30.1230   45.3620 N   0  0  0  0  0  0  0  0  0  0  0  0
   58.3630   31.4760   45.3720 C   0  0  0  0  0  0  0  0  0  0  0  0
   59.5270   32.3770   45.7060 C   0  0  0  0  0  0  0  0  0  0  0  0
   59.5210   32.7020   47.1750 C   0  0  0  0  0  0  0  0  0  0  0  0
   60.0590   33.9160   47.6340 C   0  0  0  0  0  0  0  0  0  0  0  0
   60.0180   34.2330   48.9960 C   0  0  0  0  0  0  0  0  0  0  0  0
   59.4350   33.3460   49.9060 C   0  0  0  0  0  0  0  0  0  0  0  0
   59.3840   33.7480   51.6130 Cl  0  0  0  0  0  0  0  0  0  0  0  0
   58.8890   32.1410   49.4540 C   0  0  0  0  0  0  0  0  0  0  0  0
   58.9270   31.8210   48.0930 C   0  0  0  0  0  0  0  0  0  0  0  0
   57.0820   31.9970   45.1220 C   0  0  0  0  0  0  0  0  0  0  0  0
   56.8690   33.2390   45.1390 O   0  0  0  0  0  0  0  0  0  0  0  0
   56.0570   31.1480   44.8580 N   0  0  0  0  0  0  0  0  0  0  0  0
   56.2330   29.8040   44.8400 C   0  0  0  0  0  0  0  0  0  0  0  0
   55.1430   28.9810   44.5780 O   0  0  0  0  0  0  0  0  0  0  0  0
   57.2140   26.9180   46.2290 C   0  0  2  0  0  0  0  0  0  0  0  0
   58.3710   26.4250   47.0920 C   0  0  0  0  0  0  0  0  0  0  0  0
   58.9140   24.8620   46.3870 S   0  0  0  0  0  0  0  0  0  0  0  0
   57.1700   24.5120   46.0130 C   0  0  2  0  0  0  0  0  0  0  0  0
   57.0470   23.5090   44.8840 C   0  0  0  0  0  0  0  0  0  0  0  0
   58.0120   22.5020   44.7190 C   0  0  0  0  0  0  0  0  0  0  0  0
   57.8820   21.5680   43.6900 C   0  0  0  0  0  0  0  0  0  0  0  0
   56.7830   21.6430   42.8320 C   0  0  0  0  0  0  0  0  0  0  0  0
   55.8500   22.6160   43.0060 N   0  0  0  0  0  0  0  0  0  0  0  0
   55.9530   23.5380   44.0010 C   0  0  0  0  0  0  0  0  0  0  0  0
   56.4530   25.7630   45.7210 N   0  0  0  0  0  0  0  0  0  0  0  0
   59.4960   29.7440   45.5360 H   0  0  0  0  0  0  0  0  0  0  0  0
   60.4675   31.8674   45.4495 H   0  0  0  0  0  0  0  0  0  0  0  0
   59.4388   33.3096   45.1294 H   0  0  0  0  0  0  0  0  0  0  0  0
   60.5136   34.6191   46.9206 H   0  0  0  0  0  0  0  0  0  0  0  0
   60.4454   35.1821   49.3517 H   0  0  0  0  0  0  0  0  0  0  0  0
   58.4289   31.4437   50.1696 H   0  0  0  0  0  0  0  0  0  0  0  0
   58.4898   30.8753   47.7403 H   0  0  0  0  0  0  0  0  0  0  0  0
   56.5352   27.5345   46.8366 H   0  0  0  0  0  0  0  0  0  0  0  0
   59.1940   27.1546   47.0750 H   0  0  0  0  0  0  0  0  0  0  0  0
   58.0574   26.2987   48.1387 H   0  0  0  0  0  0  0  0  0  0  0  0
   56.7015   24.0554   46.8973 H   0  0  0  0  0  0  0  0  0  0  0  0
   58.8723   22.4493   45.4024 H   0  0  0  0  0  0  0  0  0  0  0  0
   58.6381   20.7804   43.5562 H   0  0  0  0  0  0  0  0  0  0  0  0
   56.6723   20.9146   42.0152 H   0  0  0  0  0  0  0  0  0  0  0  0
   55.1772   24.3094   44.1153 H   0  0  0  0  0  0  0  0  0  0  0  0
   56.2330   25.8630   44.7010 H   0  0  0  0  0  0  0  0  0  0  0  0
  1  2  2  0
  2  3  1  0
  3  4  1  0
  4  5  2  0
  5  6  1  0
  6  7  1  0
  7  8  2  0
  8  9  1  0
  9 10  2  0
 10 11  1  0
 10 12  1  0
 12 13  2  0
  5 14  1  0
 14 15  2  0
 14 16  1  0
 16 17  1  0
 17 18  1  0
  2 19  1  0
 19 20  1  0
 20 21  1  0
 21 22  1  0
 22 23  1  0
 23 24  2  0
 24 25  1  0
 25 26  2  0
 26 27  1  0
 27 28  2  0
 22 29  1  0
 17  3  2  0
 29 19  1  0
 13  7  1  0
 28 23  1  0
  4 30  1  0
  6 31  1  0
  6 32  1  0
  8 33  1  0
  9 34  1  0
 12 35  1  0
 13 36  1  0
 19 37  1  1
 20 38  1  0
 20 39  1  0
 22 40  1  1
 24 41  1  0
 25 42  1  0
 26 43  1  0
 28 44  1  0
 29 45  1  0
M  CHG  3   4   1  16  -1  18  -1
M  END
>  <UniqueID>  (81) 
75

>  <SMILES>  (81) 
O=C(c1[nH+]c(Cc2ccc(Cl)cc2)c(=O)[n-]c1[O-])[C@@H]1CS[C@H](c2cccnc2)N1

>  <Energy>  (81) 
55.6163187997001

>  <Genealogy>  (81) 
O=C(c1[nH+]c(Cc2ccc(Cl)cc2)c(=O)[n-]c1[O-])C1CSC(c2cccnc2)N1 (protonated)
O=C(c1[nH+]c(Cc2ccc(Cl)cc2)c(=O)[n-]c1[O-])[C@@H]1CS[C@H](c2cccnc2)N1 (chirality)
O=C(c1[nH+]c(Cc2ccc(Cl)cc2)c(=O)[n-]c1[O-])[C@@H]1CS[C@H](c2cccnc2)N1 (3D coordinates assigned)
O=C(c1[nH+]c(Cc2ccc(Cl)cc2)c(=O)[n-]c1[O-])[C@@H]1CS[C@H](c2cccnc2)N1 (nonaromatic ring conformer: 55.6163187997001 kcal/mol)

>  <smiles>  (81) 
O=C(c1nc(Cc2ccc(Cl)cc2)c(=O)[nH]c1O)C1CSC(c2cccnc2)N1

>  <score_type>  (81) 
oracle

>  <origin>  (81) 
adg

>  <m_score__min__energy>  (81) 
-12.19

>  <m_primary>  (81) 
energy

$$$$
81:0
     RDKit          3D

 32 34  0  0  0  0  0  0  0  0999 V2000
   57.2570   21.6390   45.7010 C   0  0  0  0  0  0  0  0  0  0  0  0
   56.2010   22.4560   45.7210 C   0  0  0  0  0  0  0  0  0  0  0  0
   54.9990   22.0680   45.2530 N   0  0  0  0  0  0  0  0  0  0  0  0
   54.1790   23.0760   45.6010 C   0  0  0  0  0  0  0  0  0  0  0  0
   52.9480   23.0730   45.3390 O   0  0  0  0  0  0  0  0  0  0  0  0
   54.7800   24.0870   46.2580 N   0  0  0  0  0  0  0  0  0  0  0  0
   56.0740   23.7170   46.3160 C   0  0  0  0  0  0  0  0  0  0  0  0
   57.0030   24.5200   46.8670 C   0  0  0  0  0  0  0  0  0  0  0  0
   57.3900   25.8500   46.3740 C   0  0  0  0  0  0  0  0  0  0  0  0
   58.6620   26.2120   46.1080 N   0  0  0  0  0  0  0  0  0  0  0  0
   58.5880   27.4430   45.5580 C   0  0  0  0  0  0  0  0  0  0  0  0
   59.8010   28.2130   45.1410 C   0  0  0  0  0  0  0  0  0  0  0  0
   57.2680   27.8660   45.4410 C   0  0  0  0  0  0  0  0  0  0  0  0
   56.8040   29.1640   44.9030 C   0  0  0  0  0  0  0  0  0  0  0  0
   55.6220   29.5420   45.1250 O   0  0  0  0  0  0  0  0  0  0  0  0
   57.7020   30.0600   44.0990 C   0  0  0  0  0  0  0  0  0  0  0  0
   57.4120   31.5450   44.2760 C   0  0  0  0  0  0  0  0  0  0  0  0
   57.0180   30.8450   42.9880 C   0  0  0  0  0  0  0  0  0  0  0  0
   56.5110   26.8210   45.9470 C   0  0  0  0  0  0  0  0  0  0  0  0
   55.1220   26.7120   45.9940 O   0  0  0  0  0  0  0  0  0  0  0  0
   58.2264   21.9836   46.0902 H   0  0  0  0  0  0  0  0  0  0  0  0
   57.1575   20.6214   45.2953 H   0  0  0  0  0  0  0  0  0  0  0  0
   57.5180   24.1486   47.7652 H   0  0  0  0  0  0  0  0  0  0  0  0
   60.3423   28.5566   46.0348 H   0  0  0  0  0  0  0  0  0  0  0  0
   60.4576   27.5660   44.5408 H   0  0  0  0  0  0  0  0  0  0  0  0
   59.4949   29.0825   44.5408 H   0  0  0  0  0  0  0  0  0  0  0  0
   58.5926   29.4168   44.1552 H   0  0  0  0  0  0  0  0  0  0  0  0
   56.6358   31.8731   44.9830 H   0  0  0  0  0  0  0  0  0  0  0  0
   58.0149   32.4303   44.5265 H   0  0  0  0  0  0  0  0  0  0  0  0
   55.9564   30.6663   42.7621 H   0  0  0  0  0  0  0  0  0  0  0  0
   57.2175   31.0138   41.9195 H   0  0  0  0  0  0  0  0  0  0  0  0
   54.6540   25.8990   46.3700 H   0  0  0  0  0  0  0  0  0  0  0  0
  1  2  2  0
  2  3  1  0
  3  4  1  0
  4  5  2  0
  4  6  1  0
  6  7  1  0
  7  8  2  3
  8  9  1  0
  9 10  1  0
 10 11  1  0
 11 12  1  0
 11 13  2  0
 13 14  1  0
 14 15  2  0
 14 16  1  0
 16 17  1  0
 17 18  1  0
 13 19  1  0
 19 20  1  0
  7  2  1  0
 19  9  2  0
 18 16  1  0
  1 21  1  0
  1 22  1  0
  8 23  1  0
 12 24  1  0
 12 25  1  0
 12 26  1  0
 16 27  1  0
 17 28  1  0
 17 29  1  0
 18 30  1  0
 18 31  1  0
 20 32  1  0
M  CHG  3   3  -1   6  -1  10  -1
M  END
>  <UniqueID>  (82) 
76

>  <SMILES>  (82) 
C=c1[n-]c(=O)[n-]c1=Cc1[n-]c(C)c(C(=O)C2CC2)c1O

>  <Energy>  (82) 
363.75509717689016

>  <Genealogy>  (82) 
C=c1[n-]c(=O)[n-]c1=Cc1[n-]c(C)c(C(=O)C2CC2)c1O (protonated)
C=c1[n-]c(=O)[n-]c1=Cc1[n-]c(C)c(C(=O)C2CC2)c1O (3D coordinates assigned)
C=c1[n-]c(=O)[n-]c1=Cc1[n-]c(C)c(C(=O)C2CC2)c1O (nonaromatic ring conformer: 363.75509717689016 kcal/mol)

>  <smiles>  (82) 
C=c1[nH]c(=O)[nH]c1=Cc1[nH]c(C)c(C(=O)C2CC2)c1O

>  <score_type>  (82) 
oracle

>  <origin>  (82) 
adg

>  <m_score__min__energy>  (82) 
-12.44

>  <m_primary>  (82) 
energy

$$$$
82:0
     RDKit          3D

 48 50  0  0  0  0  0  0  0  0999 V2000
   62.7720   31.6130   47.2910 C   0  0  0  0  0  0  0  0  0  0  0  0
   63.1800   33.3410   47.3870 S   0  0  0  0  0  0  0  0  0  0  0  0
   63.5930   33.8310   46.0280 O   0  0  0  0  0  0  0  0  0  0  0  0
   64.3070   33.5230   48.3630 O   0  0  0  0  0  0  0  0  0  0  0  0
   61.7840   34.2160   47.9280 N   0  0  0  0  0  0  0  0  0  0  0  0
   60.4260   33.7960   47.7480 C   0  0  0  0  0  0  0  0  0  0  0  0
   59.7210   33.1000   48.7460 C   0  0  0  0  0  0  0  0  0  0  0  0
   58.4050   32.6920   48.5210 C   0  0  0  0  0  0  0  0  0  0  0  0
   57.7840   32.9610   47.3000 C   0  0  0  0  0  0  0  0  0  0  0  0
   58.4780   33.6390   46.2850 C   0  0  0  0  0  0  0  0  0  0  0  0
   57.8240   33.8750   44.9740 C   0  0  0  0  0  0  0  0  0  0  0  0
   56.8750   34.7020   44.9080 O   0  0  0  0  0  0  0  0  0  0  0  0
   58.2660   33.2290   43.7160 C   0  0  0  0  0  0  0  0  0  0  0  0
   57.8730   32.0240   43.2680 C   0  0  0  0  0  0  0  0  0  0  0  0
   57.6510   30.8310   44.1130 C   0  0  0  0  0  0  0  0  0  0  0  0
   56.4250   30.1550   44.0330 C   0  0  0  0  0  0  0  0  0  0  0  0
   56.2070   28.9980   44.7830 C   0  0  0  0  0  0  0  0  0  0  0  0
   57.2100   28.5070   45.6380 C   0  0  0  0  0  0  0  0  0  0  0  0
   57.0210   27.3260   46.4280 N   0  0  0  0  0  0  0  0  0  0  0  0
   57.9980   26.3040   46.6640 C   0  0  0  0  0  0  0  0  0  0  0  0
   59.2300   26.5690   46.6270 O   0  0  0  0  0  0  0  0  0  0  0  0
   57.5500   24.9100   46.9640 C   0  0  0  0  0  0  0  0  0  0  0  0
   56.7680   24.3650   45.8090 C   0  0  0  0  0  0  0  0  0  0  0  0
   57.2470   23.0520   44.8680 S   0  0  0  0  0  0  0  0  0  0  0  0
   55.8350   23.0790   43.9580 C   0  0  0  0  0  0  0  0  0  0  0  0
   55.5810   22.2830   43.0180 O   0  0  0  0  0  0  0  0  0  0  0  0
   54.9840   24.0510   44.3480 N   0  0  0  0  0  0  0  0  0  0  0  0
   55.4960   24.7650   45.3860 C   0  0  0  0  0  0  0  0  0  0  0  0
   54.7730   25.8060   45.9650 O   0  0  0  0  0  0  0  0  0  0  0  0
   58.4070   29.2230   45.7690 C   0  0  0  0  0  0  0  0  0  0  0  0
   58.6270   30.3780   45.0150 C   0  0  0  0  0  0  0  0  0  0  0  0
   59.7900   34.0810   46.5330 C   0  0  0  0  0  0  0  0  0  0  0  0
   62.6750   31.2022   48.3068 H   0  0  0  0  0  0  0  0  0  0  0  0
   61.8202   31.4903   46.7534 H   0  0  0  0  0  0  0  0  0  0  0  0
   63.5684   31.0775   46.7534 H   0  0  0  0  0  0  0  0  0  0  0  0
   60.2078   32.8764   49.7067 H   0  0  0  0  0  0  0  0  0  0  0  0
   57.8552   32.1564   49.3090 H   0  0  0  0  0  0  0  0  0  0  0  0
   56.7453   32.6401   47.1321 H   0  0  0  0  0  0  0  0  0  0  0  0
   58.9805   33.7859   43.0920 H   0  0  0  0  0  0  0  0  0  0  0  0
   57.7030   31.9169   42.1865 H   0  0  0  0  0  0  0  0  0  0  0  0
   55.6308   30.5385   43.3757 H   0  0  0  0  0  0  0  0  0  0  0  0
   55.2463   28.4679   44.7049 H   0  0  0  0  0  0  0  0  0  0  0  0
   58.4302   24.2743   47.1406 H   0  0  0  0  0  0  0  0  0  0  0  0
   56.9120   24.9201   47.8600 H   0  0  0  0  0  0  0  0  0  0  0  0
   55.1200   26.3250   46.7610 H   0  0  0  0  0  0  0  0  0  0  0  0
   59.1788   28.8732   46.4704 H   0  0  0  0  0  0  0  0  0  0  0  0
   59.5688   30.9350   45.1283 H   0  0  0  0  0  0  0  0  0  0  0  0
   60.3234   34.6578   45.7631 H   0  0  0  0  0  0  0  0  0  0  0  0
  1  2  1  0
  2  3  2  0
  2  4  2  0
  2  5  1  0
  5  6  1  0
  6  7  2  0
  7  8  1  0
  8  9  2  0
  9 10  1  0
 10 11  1  0
 11 12  2  0
 11 13  1  0
 13 14  2  3
 14 15  1  0
 15 16  2  0
 16 17  1  0
 17 18  2  0
 18 19  1  0
 19 20  1  0
 20 21  2  0
 20 22  1  0
 22 23  1  0
 23 24  1  0
 24 25  1  0
 25 26  2  0
 25 27  1  0
 27 28  1  0
 28 29  1  0
 18 30  1  0
 30 31  2  0
 10 32  2  0
 32  6  1  0
 31 15  1  0
 28 23  2  0
  1 33  1  0
  1 34  1  0
  1 35  1  0
  7 36  1  0
  8 37  1  0
  9 38  1  0
 13 39  1  0
 14 40  1  0
 16 41  1  0
 17 42  1  0
 22 43  1  0
 22 44  1  0
 29 45  1  0
 30 46  1  0
 31 47  1  0
 32 48  1  0
M  CHG  3   5  -1  19  -1  27  -1
M  END
>  <UniqueID>  (83) 
77

>  <SMILES>  (83) 
CS(=O)(=O)[N-]c1cccc(C(=O)C=Cc2ccc([N-]C(=O)Cc3sc(=O)[n-]c3O)cc2)c1

>  <Energy>  (83) 
89.75025108028753

>  <Genealogy>  (83) 
CS(=O)(=O)[N-]c1cccc(C(=O)C=Cc2ccc([N-]C(=O)Cc3sc(=O)[n-]c3O)cc2)c1 (protonated)
CS(=O)(=O)[N-]c1cccc(C(=O)C=Cc2ccc([N-]C(=O)Cc3sc(=O)[n-]c3O)cc2)c1 (3D coordinates assigned)
CS(=O)(=O)[N-]c1cccc(C(=O)C=Cc2ccc([N-]C(=O)Cc3sc(=O)[n-]c3O)cc2)c1 (optimized conformer: 89.75025108028753 kcal/mol)

>  <smiles>  (83) 
CS(=O)(=O)Nc1cccc(C(=O)C=Cc2ccc(NC(=O)Cc3sc(=O)[nH]c3O)cc2)c1

>  <score_type>  (83) 
oracle

>  <origin>  (83) 
adg

>  <m_score__min__energy>  (83) 
-15.449999999999999

>  <m_primary>  (83) 
energy

$$$$
83:0
     RDKit          3D

 49 51  0  0  0  0  0  0  0  0999 V2000
   54.5350   29.4270   45.5660 H   0  0  0  0  0  0  0  0  0  0  0  0
   55.2340   29.2410   44.8130 N   0  0  0  0  0  0  0  0  0  0  0  0
   56.4050   29.7910   44.8250 C   0  0  0  0  0  0  0  0  0  0  0  0
   57.3940   29.2750   45.6060 N   0  0  0  0  0  0  0  0  0  0  0  0
   58.6340   29.8300   45.6480 C   0  0  0  0  0  0  0  0  0  0  0  0
   59.4110   29.3890   46.2897 H   0  0  0  0  0  0  0  0  0  0  0  0
   58.9240   30.9580   44.8790 C   0  0  0  0  0  0  0  0  0  0  0  0
   59.9236   31.4152   44.9202 H   0  0  0  0  0  0  0  0  0  0  0  0
   57.9300   31.5040   44.0530 C   0  0  0  0  0  0  0  0  0  0  0  0
   58.2110   32.7420   43.2460 C   0  0  0  0  0  0  0  0  0  0  0  0
   58.8817   32.4905   42.4112 H   0  0  0  0  0  0  0  0  0  0  0  0
   57.2659   33.1430   42.8510 H   0  0  0  0  0  0  0  0  0  0  0  0
   58.8500   33.7510   44.0990 N   0  0  0  0  0  0  0  0  0  0  0  0
   59.7080   33.3180   44.5170 H   0  0  0  0  0  0  0  0  0  0  0  0
   57.9570   34.1310   45.1990 C   0  0  0  0  0  0  0  0  0  0  0  0
   57.7924   35.2184   45.1777 H   0  0  0  0  0  0  0  0  0  0  0  0
   56.9949   33.6102   45.0845 H   0  0  0  0  0  0  0  0  0  0  0  0
   58.5800   33.7450   46.5120 C   0  0  0  0  0  0  0  0  0  0  0  0
   59.7010   34.4310   47.0010 C   0  0  0  0  0  0  0  0  0  0  0  0
   60.1526   35.2385   46.4059 H   0  0  0  0  0  0  0  0  0  0  0  0
   60.2310   34.1010   48.2080 N   0  0  0  0  0  0  0  0  0  0  0  0
   59.7020   33.1180   48.9890 C   0  0  0  0  0  0  0  0  0  0  0  0
   60.3060   32.8000   50.2580 N   0  0  0  0  0  0  0  0  0  0  0  0
   60.2580   31.4430   50.7310 C   0  0  0  0  0  0  0  0  0  0  0  0
   59.1810   30.9530   51.1670 O   0  0  0  0  0  0  0  0  0  0  0  0
   61.4940   30.6040   50.6970 C   0  0  0  0  0  0  0  0  0  0  0  0
   61.5864   30.1536   49.6977 H   0  0  0  0  0  0  0  0  0  0  0  0
   61.3978   29.8381   51.4807 H   0  0  0  0  0  0  0  0  0  0  0  0
   62.7690   31.4140   50.9920 C   0  0  0  0  0  0  0  0  0  0  0  0
   63.6032   30.7080   51.1175 H   0  0  0  0  0  0  0  0  0  0  0  0
   62.5632   32.0022   51.8984 H   0  0  0  0  0  0  0  0  0  0  0  0
   63.1400   32.3870   49.9320 N   0  0  2  0  0  0  0  0  0  0  0  0
   62.7500   32.0410   49.0220 H   0  0  0  0  0  0  0  0  0  0  0  0
   64.6060   32.3930   49.7710 C   0  0  0  0  0  0  0  0  0  0  0  0
   65.0837   32.3950   50.7619 H   0  0  0  0  0  0  0  0  0  0  0  0
   64.9175   31.4961   49.2155 H   0  0  0  0  0  0  0  0  0  0  0  0
   64.9102   33.2924   49.2155 H   0  0  0  0  0  0  0  0  0  0  0  0
   62.6420   33.7630   50.2090 C   0  0  0  0  0  0  0  0  0  0  0  0
   62.5859   34.3165   49.2600 H   0  0  0  0  0  0  0  0  0  0  0  0
   63.3422   34.2390   50.9112 H   0  0  0  0  0  0  0  0  0  0  0  0
   61.2450   33.7600   50.8650 C   0  0  0  0  0  0  0  0  0  0  0  0
   60.8167   34.7691   50.7740 H   0  0  0  0  0  0  0  0  0  0  0  0
   61.3832   33.4548   51.9127 H   0  0  0  0  0  0  0  0  0  0  0  0
   58.5790   32.4100   48.5330 C   0  0  0  0  0  0  0  0  0  0  0  0
   58.1456   31.6056   49.1455 H   0  0  0  0  0  0  0  0  0  0  0  0
   58.0160   32.7330   47.2980 C   0  0  0  0  0  0  0  0  0  0  0  0
   57.1274   32.1916   46.9412 H   0  0  0  0  0  0  0  0  0  0  0  0
   56.6550   30.9210   44.0380 C   0  0  0  0  0  0  0  0  0  0  0  0
   55.8574   31.3484   43.4126 H   0  0  0  0  0  0  0  0  0  0  0  0
  1  2  1  0
  2  3  2  0
  3  4  1  0
  4  5  1  0
  5  6  1  0
  5  7  2  0
  7  8  1  0
  7  9  1  0
  9 10  1  0
 10 11  1  0
 10 12  1  0
 10 13  1  0
 13 14  1  0
 13 15  1  0
 15 16  1  0
 15 17  1  0
 15 18  1  0
 18 19  2  0
 19 20  1  0
 19 21  1  0
 21 22  2  0
 22 23  1  0
 23 24  1  0
 24 25  2  0
 24 26  1  0
 26 27  1  0
 26 28  1  0
 26 29  1  0
 29 30  1  0
 29 31  1  0
 29 32  1  0
 32 33  1  6
 32 34  1  0
 34 35  1  0
 34 36  1  0
 34 37  1  0
 32 38  1  0
 38 39  1  0
 38 40  1  0
 38 41  1  0
 41 42  1  0
 41 43  1  0
 22 44  1  0
 44 45  1  0
 44 46  2  0
 46 47  1  0
  9 48  2  0
 48 49  1  0
 48  3  1  0
 46 18  1  0
 41 23  1  0
M  CHG  2   4  -1  32   1
M  END
>  <UniqueID>  (84) 
78

>  <SMILES>  (84) 
[H]/N=c1/cc(CNCc2ccc(N3CC[N@@H+](C)CCC3=O)nc2)cc[n-]1

>  <Energy>  (84) 
67.47221102543133

>  <Genealogy>  (84) 
C[NH+]1CCC(=O)N(c2ccc(CNCc3cc[n-]c(=N)c3)cn2)CC1 (protonated)
C[N@H+]1CCC(=O)N(c2ccc(CNCc3cc[n-]c(=N)c3)cn2)CC1 (chirality)
[H]/N=c1/cc(CNCc2ccc(N3CC[N@@H+](C)CCC3=O)nc2)cc[n-]1 (cis-trans isomerization)
[H]/N=c1/cc(CNCc2ccc(N3CC[N@@H+](C)CCC3=O)nc2)cc[n-]1 (3D coordinates assigned)
[H]/N=c1/cc(CNCc2ccc(N3CC[N@@H+](C)CCC3=O)nc2)cc[n-]1 (nonaromatic ring conformer: 67.47221102543133 kcal/mol)

>  <smiles>  (84) 
CN1CCC(=O)N(c2ccc(CNCc3cc[nH]c(=N)c3)cn2)CC1

>  <score_type>  (84) 
oracle

>  <origin>  (84) 
adg

>  <m_score__min__energy>  (84) 
-7.0300000000000002

>  <m_primary>  (84) 
energy

$$$$
84:0
     RDKit          3D

 16 16  0  0  0  0  0  0  0  0999 V2000
   58.4740   27.6090   44.2360 C   0  0  0  0  0  0  0  0  0  0  0  0
   58.4110   27.1280   45.4770 C   0  0  0  0  0  0  0  0  0  0  0  0
   57.4690   26.0550   45.8850 C   0  0  0  0  0  0  0  0  0  0  0  0
   56.0760   26.2720   45.9630 C   0  0  0  0  0  0  0  0  0  0  0  0
   55.5200   27.5010   45.6290 O   0  0  0  0  0  0  0  0  0  0  0  0
   55.2490   25.2600   46.3400 N   0  0  0  0  0  0  0  0  0  0  0  0
   55.7150   24.0200   46.6350 C   0  0  0  0  0  0  0  0  0  0  0  0
   57.0790   23.7430   46.5460 C   0  0  0  0  0  0  0  0  0  0  0  0
   57.5340   22.4560   46.8390 O   0  0  0  0  0  0  0  0  0  0  0  0
   57.9620   24.7650   46.1620 C   0  0  0  0  0  0  0  0  0  0  0  0
   59.1980   24.5250   46.0800 O   0  0  0  0  0  0  0  0  0  0  0  0
   59.1923   28.4051   43.9905 H   0  0  0  0  0  0  0  0  0  0  0  0
   57.8077   27.2100   43.4570 H   0  0  0  0  0  0  0  0  0  0  0  0
   59.0892   27.5457   46.2356 H   0  0  0  0  0  0  0  0  0  0  0  0
   55.0145   23.2307   46.9454 H   0  0  0  0  0  0  0  0  0  0  0  0
   58.5120   22.2030   46.7710 H   0  0  0  0  0  0  0  0  0  0  0  0
  1  2  2  0
  2  3  1  0
  3  4  2  0
  4  5  1  0
  4  6  1  0
  6  7  1  0
  7  8  2  0
  8  9  1  0
  8 10  1  0
 10 11  2  0
 10  3  1  0
  1 12  1  0
  1 13  1  0
  2 14  1  0
  7 15  1  0
  9 16  1  0
M  CHG  2   5  -1   6  -1
M  END
>  <UniqueID>  (85) 
79

>  <SMILES>  (85) 
C=Cc1c([O-])[n-]cc(O)c1=O

>  <Energy>  (85) 
20.85830826757313

>  <Genealogy>  (85) 
C=Cc1c([O-])[n-]cc(O)c1=O (protonated)
C=Cc1c([O-])[n-]cc(O)c1=O (3D coordinates assigned)
C=Cc1c([O-])[n-]cc(O)c1=O (optimized conformer: 20.85830826757313 kcal/mol)

>  <smiles>  (85) 
C=Cc1c(O)[nH]cc(O)c1=O

>  <score_type>  (85) 
oracle

>  <origin>  (85) 
adg

>  <m_score__min__energy>  (85) 
-11.789999999999999

>  <m_primary>  (85) 
energy

$$$$
85:0
     RDKit          3D

 53 55  0  0  0  0  0  0  0  0999 V2000
   55.7580   30.0780   44.1340 C   0  0  0  0  0  0  0  0  0  0  0  0
   57.0320   29.2170   44.0920 C   0  0  2  0  0  0  0  0  0  0  0  0
   57.0340   28.1660   45.2340 C   0  0  0  0  0  0  0  0  0  0  0  0
   57.8390   28.6340   46.4480 C   0  0  0  0  0  0  0  0  0  0  0  0
   59.3170   28.8910   46.0930 C   0  0  0  0  0  0  0  0  0  0  0  0
   59.5400   29.2970   44.6200 C   0  0  0  0  0  0  0  0  0  0  0  0
   58.3470   30.0660   44.0230 C   0  0  2  0  0  0  0  0  0  0  0  0
   58.2140   31.3740   44.6850 N   0  0  0  0  0  0  0  0  0  0  0  0
   58.0670   32.6030   43.9560 C   0  0  0  0  0  0  0  0  0  0  0  0
   58.1710   32.6050   42.6990 O   0  0  0  0  0  0  0  0  0  0  0  0
   57.7800   33.8910   44.7050 C   0  0  0  0  0  0  0  0  0  0  0  0
   57.0210   33.6590   46.0310 C   0  0  0  0  0  0  0  0  0  0  0  0
   57.9110   33.0480   47.1380 C   0  0  0  0  0  0  0  0  0  0  0  0
   59.3100   32.8910   46.6900 N   0  0  0  0  0  0  0  0  0  0  0  0
   60.1740   32.2140   47.6850 C   0  0  0  0  0  0  0  0  0  0  0  0
   59.7550   32.4410   49.1280 C   0  0  0  0  0  0  0  0  0  0  0  0
   59.9670   33.7040   49.7100 C   0  0  0  0  0  0  0  0  0  0  0  0
   59.5860   33.9540   51.0300 C   0  0  0  0  0  0  0  0  0  0  0  0
   58.9980   32.9440   51.7920 C   0  0  0  0  0  0  0  0  0  0  0  0
   58.5200   33.2600   53.4500 Cl  0  0  0  0  0  0  0  0  0  0  0  0
   58.8000   31.6770   51.2370 C   0  0  0  0  0  0  0  0  0  0  0  0
   59.1800   31.4140   49.9150 C   0  0  0  0  0  0  0  0  0  0  0  0
   58.9430   29.7800   49.3040 Cl  0  0  0  0  0  0  0  0  0  0  0  0
   59.8640   34.1670   46.2000 C   0  0  0  0  0  0  0  0  0  0  0  0
   59.0760   34.6860   44.9780 C   0  0  0  0  0  0  0  0  0  0  0  0
   55.4778   30.2674   45.1807 H   0  0  0  0  0  0  0  0  0  0  0  0
   55.9455   31.0353   43.6257 H   0  0  0  0  0  0  0  0  0  0  0  0
   54.9397   29.5470   43.6257 H   0  0  0  0  0  0  0  0  0  0  0  0
   57.0157   28.6579   43.1448 H   0  0  0  0  0  0  0  0  0  0  0  0
   55.9959   27.9810   45.5471 H   0  0  0  0  0  0  0  0  0  0  0  0
   57.5051   27.2496   44.8490 H   0  0  0  0  0  0  0  0  0  0  0  0
   57.3975   29.5665   46.8295 H   0  0  0  0  0  0  0  0  0  0  0  0
   57.8040   27.8390   47.2075 H   0  0  0  0  0  0  0  0  0  0  0  0
   59.6933   29.6996   46.7369 H   0  0  0  0  0  0  0  0  0  0  0  0
   59.8547   27.9444   46.2505 H   0  0  0  0  0  0  0  0  0  0  0  0
   60.4333   29.9364   44.5636 H   0  0  0  0  0  0  0  0  0  0  0  0
   59.6611   28.3718   44.0374 H   0  0  0  0  0  0  0  0  0  0  0  0
   58.5347   30.2510   42.9550 H   0  0  0  0  0  0  0  0  0  0  0  0
   58.1400   31.4130   45.7250 H   0  0  0  0  0  0  0  0  0  0  0  0
   57.1260   34.4809   44.0459 H   0  0  0  0  0  0  0  0  0  0  0  0
   56.6332   34.6250   46.3865 H   0  0  0  0  0  0  0  0  0  0  0  0
   56.2123   32.9420   45.8260 H   0  0  0  0  0  0  0  0  0  0  0  0
   57.8903   33.7087   48.0172 H   0  0  0  0  0  0  0  0  0  0  0  0
   57.5160   32.0514   47.3844 H   0  0  0  0  0  0  0  0  0  0  0  0
   60.1499   31.1327   47.4844 H   0  0  0  0  0  0  0  0  0  0  0  0
   61.1804   32.6443   47.5758 H   0  0  0  0  0  0  0  0  0  0  0  0
   60.4380   34.5033   49.1190 H   0  0  0  0  0  0  0  0  0  0  0  0
   59.7498   34.9489   51.4697 H   0  0  0  0  0  0  0  0  0  0  0  0
   58.3425   30.8808   51.8426 H   0  0  0  0  0  0  0  0  0  0  0  0
   59.8100   34.9143   47.0054 H   0  0  0  0  0  0  0  0  0  0  0  0
   60.9076   33.9992   45.8955 H   0  0  0  0  0  0  0  0  0  0  0  0
   58.8094   35.7383   45.1556 H   0  0  0  0  0  0  0  0  0  0  0  0
   59.7239   34.5659   44.0972 H   0  0  0  0  0  0  0  0  0  0  0  0
  1  2  1  0
  2  3  1  0
  3  4  1  0
  4  5  1  0
  5  6  1  0
  6  7  1  0
  7  8  1  0
  8  9  1  0
  9 10  2  0
  9 11  1  0
 11 12  1  0
 12 13  1  0
 13 14  1  0
 14 15  1  0
 15 16  1  0
 16 17  2  0
 17 18  1  0
 18 19  2  0
 19 20  1  0
 19 21  1  0
 21 22  2  0
 22 23  1  0
 14 24  1  0
 24 25  1  0
  7  2  1  0
 25 11  1  0
 22 16  1  0
  1 26  1  0
  1 27  1  0
  1 28  1  0
  2 29  1  6
  3 30  1  0
  3 31  1  0
  4 32  1  0
  4 33  1  0
  5 34  1  0
  5 35  1  0
  6 36  1  0
  6 37  1  0
  7 38  1  6
  8 39  1  0
 11 40  1  0
 12 41  1  0
 12 42  1  0
 13 43  1  0
 13 44  1  0
 15 45  1  0
 15 46  1  0
 17 47  1  0
 18 48  1  0
 21 49  1  0
 24 50  1  0
 24 51  1  0
 25 52  1  0
 25 53  1  0
M  END
>  <UniqueID>  (86) 
80

>  <SMILES>  (86) 
C[C@@H]1CCCC[C@@H]1NC(=O)C1CCN(Cc2ccc(Cl)cc2Cl)CC1

>  <Energy>  (86) 
65.43950575545283

>  <Genealogy>  (86) 
C[C@@H]1CCCC[C@@H]1NC(=O)C1CCN(Cc2ccc(Cl)cc2Cl)CC1 (chirality)
C[C@@H]1CCCC[C@@H]1NC(=O)C1CCN(Cc2ccc(Cl)cc2Cl)CC1 (3D coordinates assigned)
C[C@@H]1CCCC[C@@H]1NC(=O)C1CCN(Cc2ccc(Cl)cc2Cl)CC1 (nonaromatic ring conformer: 65.43950575545283 kcal/mol)

>  <smiles>  (86) 
CC1CCCCC1NC(=O)C1CCN(Cc2ccc(Cl)cc2Cl)CC1

>  <score_type>  (86) 
oracle

>  <origin>  (86) 
adg

>  <m_score__min__energy>  (86) 
-8.8300000000000001

>  <m_primary>  (86) 
energy

$$$$
86:0
     RDKit          3D

 43 45  0  0  0  0  0  0  0  0999 V2000
   52.6910   30.4370   49.0790 H   0  0  0  0  0  0  0  0  0  0  0  0
   51.8030   30.3590   49.5590 O   0  0  0  0  0  0  0  0  0  0  0  0
   51.5330   31.0840   50.7170 C   0  0  0  0  0  0  0  0  0  0  0  0
   51.0150   32.3230   50.7040 N   0  0  0  0  0  0  0  0  0  0  0  0
   50.9940   32.6540   52.0120 C   0  0  0  0  0  0  0  0  0  0  0  0
   50.5740   33.7660   52.4240 O   0  0  0  0  0  0  0  0  0  0  0  0
   51.4660   31.7020   52.8450 N   0  0  0  0  0  0  0  0  0  0  0  0
   51.7880   30.6930   52.0160 C   0  0  0  0  0  0  0  0  0  0  0  0
   52.3900   29.4300   52.4780 C   0  0  0  0  0  0  0  0  0  0  0  0
   51.7458   28.5409   52.5454 H   0  0  0  0  0  0  0  0  0  0  0  0
   53.6850   29.3050   52.8220 C   0  0  0  0  0  0  0  0  0  0  0  0
   54.2230   28.3280   53.6490 C   0  0  0  0  0  0  0  0  0  0  0  0
   53.6811   27.4957   54.1219 H   0  0  0  0  0  0  0  0  0  0  0  0
   55.5710   28.6050   53.7620 C   0  0  0  0  0  0  0  0  0  0  0  0
   56.5350   27.8010   54.5830 C   0  0  0  0  0  0  0  0  0  0  0  0
   56.3347   27.9680   55.6516 H   0  0  0  0  0  0  0  0  0  0  0  0
   56.4134   26.7329   54.3497 H   0  0  0  0  0  0  0  0  0  0  0  0
   57.5639   28.1124   54.3497 H   0  0  0  0  0  0  0  0  0  0  0  0
   55.8920   29.6970   53.0320 N   0  0  0  0  0  0  0  0  0  0  0  0
   57.1990   30.2930   52.9370 C   0  0  0  0  0  0  0  0  0  0  0  0
   57.8920   30.4280   53.9810 O   0  0  0  0  0  0  0  0  0  0  0  0
   57.7540   30.7240   51.6320 C   0  0  0  0  0  0  0  0  0  0  0  0
   58.2120   29.7560   50.7220 C   0  0  0  0  0  0  0  0  0  0  0  0
   58.1626   28.6908   50.9921 H   0  0  0  0  0  0  0  0  0  0  0  0
   58.7300   30.1290   49.4770 C   0  0  0  0  0  0  0  0  0  0  0  0
   59.1880   28.8640   48.3470 Cl  0  0  0  0  0  0  0  0  0  0  0  0
   58.8170   31.4920   49.1360 C   0  0  0  0  0  0  0  0  0  0  0  0
   59.3460   31.9210   47.8780 N   0  0  0  0  0  0  0  0  0  0  0  0
   58.3620   32.6010   46.6230 S   0  0  0  0  0  0  0  0  0  0  0  0
   57.7540   31.5010   45.7990 O   0  0  0  0  0  0  0  0  0  0  0  0
   57.2680   33.4170   47.2490 O   0  0  0  0  0  0  0  0  0  0  0  0
   59.3320   33.6680   45.5770 C   0  0  0  0  0  0  0  0  0  0  0  0
   59.9413   34.3382   46.2012 H   0  0  0  0  0  0  0  0  0  0  0  0
   59.9914   33.0582   44.9420 H   0  0  0  0  0  0  0  0  0  0  0  0
   58.6623   34.2665   44.9420 H   0  0  0  0  0  0  0  0  0  0  0  0
   58.3520   32.4580   50.0340 C   0  0  0  0  0  0  0  0  0  0  0  0
   58.3912   33.5220   49.7577 H   0  0  0  0  0  0  0  0  0  0  0  0
   57.8380   32.0850   51.2790 C   0  0  0  0  0  0  0  0  0  0  0  0
   57.4340   33.0810   52.1620 O   0  0  0  0  0  0  0  0  0  0  0  0
   54.7450   30.1450   52.4630 C   0  0  0  0  0  0  0  0  0  0  0  0
   54.6750   31.2080   51.6460 C   0  0  0  0  0  0  0  0  0  0  0  0
   55.5781   31.7990   51.4338 H   0  0  0  0  0  0  0  0  0  0  0  0
   53.7145   31.4879   51.1888 H   0  0  0  0  0  0  0  0  0  0  0  0
  1  2  1  0
  2  3  1  0
  3  4  1  0
  4  5  1  0
  5  6  2  0
  5  7  1  0
  7  8  1  0
  8  9  1  0
  9 10  1  0
  9 11  2  0
 11 12  1  0
 12 13  1  0
 12 14  2  0
 14 15  1  0
 15 16  1  0
 15 17  1  0
 15 18  1  0
 14 19  1  0
 19 20  1  0
 20 21  2  0
 20 22  1  0
 22 23  2  0
 23 24  1  0
 23 25  1  0
 25 26  1  0
 25 27  2  0
 27 28  1  0
 28 29  1  0
 29 30  2  0
 29 31  2  0
 29 32  1  0
 32 33  1  0
 32 34  1  0
 32 35  1  0
 27 36  1  0
 36 37  1  0
 36 38  2  0
 38 39  1  0
 19 40  1  0
 40 41  2  0
 41 42  1  0
 41 43  1  0
  8  3  2  0
 40 11  1  0
 38 22  1  0
M  CHG  4   4  -1   7  -1  28  -1  39  -1
M  END
>  <UniqueID>  (87) 
81

>  <SMILES>  (87) 
C=c1/c(=C/c2[n-]c(=O)[n-]c2O)cc(C)n1C(=O)c1cc(Cl)c([N-]S(C)(=O)=O)cc1[O-]

>  <Energy>  (87) 
123.39897913002412

>  <Genealogy>  (87) 
C=c1c(=Cc2[n-]c(=O)[n-]c2O)cc(C)n1C(=O)c1cc(Cl)c([N-]S(C)(=O)=O)cc1[O-] (protonated)
C=c1/c(=C/c2[n-]c(=O)[n-]c2O)cc(C)n1C(=O)c1cc(Cl)c([N-]S(C)(=O)=O)cc1[O-] (cis-trans isomerization)
C=c1/c(=C/c2[n-]c(=O)[n-]c2O)cc(C)n1C(=O)c1cc(Cl)c([N-]S(C)(=O)=O)cc1[O-] (3D coordinates assigned)
C=c1/c(=C/c2[n-]c(=O)[n-]c2O)cc(C)n1C(=O)c1cc(Cl)c([N-]S(C)(=O)=O)cc1[O-] (optimized conformer: 123.39897913002412 kcal/mol)

>  <smiles>  (87) 
C=c1c(=Cc2[nH]c(=O)[nH]c2O)cc(C)n1C(=O)c1cc(Cl)c(NS(C)(=O)=O)cc1O

>  <score_type>  (87) 
oracle

>  <origin>  (87) 
adg

>  <m_score__min__energy>  (87) 
-15.359999999999999

>  <m_primary>  (87) 
energy

$$$$
87:0
     RDKit          3D

 45 47  0  0  0  0  0  0  0  0999 V2000
   58.9627   35.3720   44.5091 H   0  0  0  0  0  0  0  0  0  0  0  0
   58.3740   34.5290   44.9000 C   0  0  0  0  0  0  0  0  0  0  0  0
   57.7120   34.5180   46.0360 O   0  0  0  0  0  0  0  0  0  0  0  0
   57.1100   33.3800   46.2270 N   0  0  0  0  0  0  0  0  0  0  0  0
   57.4000   32.6200   45.1530 C   0  0  0  0  0  0  0  0  0  0  0  0
   56.9740   31.4070   44.9590 N   0  0  0  0  0  0  0  0  0  0  0  0
   56.6700   30.8080   43.6890 C   0  0  0  0  0  0  0  0  0  0  0  0
   57.2550   31.1880   42.6390 O   0  0  0  0  0  0  0  0  0  0  0  0
   55.6640   29.6970   43.5940 C   0  0  0  0  0  0  0  0  0  0  0  0
   54.6899   30.1210   43.3089 H   0  0  0  0  0  0  0  0  0  0  0  0
   56.0159   28.9782   42.8394 H   0  0  0  0  0  0  0  0  0  0  0  0
   55.5200   28.9910   44.8650 N   0  0  0  0  0  0  0  0  0  0  0  0
   56.4980   28.1080   45.4320 C   0  0  0  0  0  0  0  0  0  0  0  0
   56.1380   26.9650   45.8160 O   0  0  0  0  0  0  0  0  0  0  0  0
   57.9060   28.5090   45.5940 C   0  0  0  0  0  0  0  0  0  0  0  0
   58.8330   28.2770   44.5680 C   0  0  0  0  0  0  0  0  0  0  0  0
   58.5023   27.8192   43.6240 H   0  0  0  0  0  0  0  0  0  0  0  0
   60.1750   28.6250   44.7400 C   0  0  0  0  0  0  0  0  0  0  0  0
   60.8993   28.4370   43.9337 H   0  0  0  0  0  0  0  0  0  0  0  0
   60.5980   29.2120   45.9360 C   0  0  0  0  0  0  0  0  0  0  0  0
   61.6563   29.4804   46.0702 H   0  0  0  0  0  0  0  0  0  0  0  0
   59.6790   29.4600   46.9650 C   0  0  0  0  0  0  0  0  0  0  0  0
   60.2030   30.2540   48.4520 S   0  0  0  0  0  0  0  0  0  0  0  0
   61.0960   29.3210   49.2230 O   0  0  0  0  0  0  0  0  0  0  0  0
   59.0000   30.5560   49.3030 O   0  0  0  0  0  0  0  0  0  0  0  0
   61.0500   31.7470   48.1180 N   0  0  0  0  0  0  0  0  0  0  0  0
   60.6600   32.2800   46.7930 C   0  0  0  0  0  0  0  0  0  0  0  0
   61.1773   31.7059   46.0102 H   0  0  0  0  0  0  0  0  0  0  0  0
   59.5688   32.1862   46.6903 H   0  0  0  0  0  0  0  0  0  0  0  0
   61.0310   33.7590   46.6530 C   0  0  0  0  0  0  0  0  0  0  0  0
   62.1138   33.8744   46.8084 H   0  0  0  0  0  0  0  0  0  0  0  0
   60.7478   34.0972   45.6453 H   0  0  0  0  0  0  0  0  0  0  0  0
   60.2800   34.6170   47.6870 C   0  0  0  0  0  0  0  0  0  0  0  0
   60.9244   35.4590   47.9799 H   0  0  0  0  0  0  0  0  0  0  0  0
   59.3473   34.9621   47.2170 H   0  0  0  0  0  0  0  0  0  0  0  0
   59.8980   33.8270   48.9510 C   0  0  0  0  0  0  0  0  0  0  0  0
   59.8675   34.5152   49.8086 H   0  0  0  0  0  0  0  0  0  0  0  0
   58.9128   33.3655   48.7886 H   0  0  0  0  0  0  0  0  0  0  0  0
   60.9160   32.7120   49.2390 C   0  0  0  0  0  0  0  0  0  0  0  0
   61.8976   33.1725   49.4247 H   0  0  0  0  0  0  0  0  0  0  0  0
   60.5536   32.1526   50.1141 H   0  0  0  0  0  0  0  0  0  0  0  0
   58.3360   29.0920   46.7960 C   0  0  0  0  0  0  0  0  0  0  0  0
   57.6159   29.2613   47.6101 H   0  0  0  0  0  0  0  0  0  0  0  0
   58.2080   33.3090   44.2800 C   0  0  0  0  0  0  0  0  0  0  0  0
   58.6219   32.9691   43.3192 H   0  0  0  0  0  0  0  0  0  0  0  0
  1  2  1  0
  2  3  1  0
  3  4  1  0
  4  5  1  0
  5  6  2  0
  6  7  1  0
  7  8  2  0
  7  9  1  0
  9 10  1  0
  9 11  1  0
  9 12  1  0
 12 13  1  0
 13 14  2  0
 13 15  1  0
 15 16  2  0
 16 17  1  0
 16 18  1  0
 18 19  1  0
 18 20  2  0
 20 21  1  0
 20 22  1  0
 22 23  1  0
 23 24  2  0
 23 25  2  0
 23 26  1  0
 26 27  1  0
 27 28  1  0
 27 29  1  0
 27 30  1  0
 30 31  1  0
 30 32  1  0
 30 33  1  0
 33 34  1  0
 33 35  1  0
 33 36  1  0
 36 37  1  0
 36 38  1  0
 36 39  1  0
 39 40  1  0
 39 41  1  0
 22 42  2  0
 42 43  1  0
  5 44  1  0
 44 45  1  0
 44  2  2  0
 42 15  1  0
 39 26  1  0
M  CHG  2   4  -1  12  -1
M  END
>  <UniqueID>  (88) 
82

>  <SMILES>  (88) 
O=C(C[N-]C(=O)c1cccc(S(=O)(=O)N2CCCCC2)c1)/N=c1/cco[n-]1

>  <Energy>  (88) 
83.89036962843396

>  <Genealogy>  (88) 
O=C(C[N-]C(=O)c1cccc(S(=O)(=O)N2CCCCC2)c1)N=c1cco[n-]1 (protonated)
O=C(C[N-]C(=O)c1cccc(S(=O)(=O)N2CCCCC2)c1)/N=c1/cco[n-]1 (cis-trans isomerization)
O=C(C[N-]C(=O)c1cccc(S(=O)(=O)N2CCCCC2)c1)/N=c1/cco[n-]1 (3D coordinates assigned)
O=C(C[N-]C(=O)c1cccc(S(=O)(=O)N2CCCCC2)c1)/N=c1/cco[n-]1 (nonaromatic ring conformer: 83.89036962843396 kcal/mol)

>  <smiles>  (88) 
O=C(CNC(=O)c1cccc(S(=O)(=O)N2CCCCC2)c1)N=c1cco[nH]1

>  <score_type>  (88) 
oracle

>  <origin>  (88) 
adg

>  <m_score__min__energy>  (88) 
-13.58

>  <m_primary>  (88) 
energy

$$$$
88:0
     RDKit          3D

 66 69  0  0  0  0  0  0  0  0999 V2000
   61.4435   28.9023   52.0164 H   0  0  0  0  0  0  0  0  0  0  0  0
   62.2730   29.6190   51.9260 C   0  0  0  0  0  0  0  0  0  0  0  0
   63.4640   29.3380   52.4720 C   0  0  0  0  0  0  0  0  0  0  0  0
   63.6125   28.3951   53.0187 H   0  0  0  0  0  0  0  0  0  0  0  0
   64.5960   30.3170   52.3340 C   0  0  0  0  0  0  0  0  0  0  0  0
   64.4493   31.1480   53.0396 H   0  0  0  0  0  0  0  0  0  0  0  0
   65.5466   29.8095   52.5550 H   0  0  0  0  0  0  0  0  0  0  0  0
   64.6320   30.8650   50.8990 C   0  0  0  0  0  0  0  0  0  0  0  0
   65.3321   31.7123   50.8554 H   0  0  0  0  0  0  0  0  0  0  0  0
   64.9583   30.0591   50.2251 H   0  0  0  0  0  0  0  0  0  0  0  0
   63.2940   31.3220   50.4710 N   0  0  0  0  0  0  0  0  0  0  0  0
   63.1810   31.9880   49.2060 C   0  0  0  0  0  0  0  0  0  0  0  0
   63.9140   33.1620   48.9880 C   0  0  0  0  0  0  0  0  0  0  0  0
   64.6414   33.4995   49.7410 H   0  0  0  0  0  0  0  0  0  0  0  0
   63.7280   33.9050   47.8240 C   0  0  0  0  0  0  0  0  0  0  0  0
   64.2918   34.8369   47.6698 H   0  0  0  0  0  0  0  0  0  0  0  0
   62.8240   33.4650   46.8520 C   0  0  0  0  0  0  0  0  0  0  0  0
   62.6858   34.0456   45.9280 H   0  0  0  0  0  0  0  0  0  0  0  0
   62.0970   32.2910   47.0520 C   0  0  0  0  0  0  0  0  0  0  0  0
   61.3858   31.9514   46.2846 H   0  0  0  0  0  0  0  0  0  0  0  0
   62.2670   31.5410   48.2250 C   0  0  0  0  0  0  0  0  0  0  0  0
   61.4940   30.3520   48.4180 N   0  0  0  0  0  0  0  0  0  0  0  0
   60.0640   30.3370   48.3220 C   0  0  0  0  0  0  0  0  0  0  0  0
   59.5120   30.1370   47.1990 O   0  0  0  0  0  0  0  0  0  0  0  0
   59.1980   30.6520   49.4790 C   0  0  0  0  0  0  0  0  0  0  0  0
   58.7211   29.7999   49.9855 H   0  0  0  0  0  0  0  0  0  0  0  0
   58.9320   31.8840   49.9790 C   0  0  0  0  0  0  0  0  0  0  0  0
   59.8040   33.0580   49.6870 C   0  0  0  0  0  0  0  0  0  0  0  0
   60.7974   33.0666   50.1593 H   0  0  0  0  0  0  0  0  0  0  0  0
   59.4970   34.1070   48.9040 C   0  0  0  0  0  0  0  0  0  0  0  0
   59.4863   35.1038   49.3690 H   0  0  0  0  0  0  0  0  0  0  0  0
   59.1740   34.0200   47.4700 C   0  0  0  0  0  0  0  0  0  0  0  0
   59.5890   35.0460   46.6100 C   0  0  0  0  0  0  0  0  0  0  0  0
   60.1527   35.9021   47.0091 H   0  0  0  0  0  0  0  0  0  0  0  0
   59.2890   34.9840   45.2500 C   0  0  0  0  0  0  0  0  0  0  0  0
   59.5825   35.8093   44.5846 H   0  0  0  0  0  0  0  0  0  0  0  0
   58.6160   33.8750   44.7310 C   0  0  0  0  0  0  0  0  0  0  0  0
   58.3742   33.8372   43.6586 H   0  0  0  0  0  0  0  0  0  0  0  0
   58.2440   32.8040   45.5690 C   0  0  0  0  0  0  0  0  0  0  0  0
   57.6030   31.5830   45.0150 C   0  0  0  0  0  0  0  0  0  0  0  0
   56.3620   31.5850   44.7860 O   0  0  0  0  0  0  0  0  0  0  0  0
   58.3800   30.4060   44.7250 N   0  0  0  0  0  0  0  0  0  0  0  0
   59.3770   30.3680   45.0330 H   0  0  0  0  0  0  0  0  0  0  0  0
   57.7780   29.1410   44.3110 C   0  0  0  0  0  0  0  0  0  0  0  0
   56.6826   29.2417   44.3045 H   0  0  0  0  0  0  0  0  0  0  0  0
   58.1300   28.8821   43.3015 H   0  0  0  0  0  0  0  0  0  0  0  0
   58.1750   28.0550   45.2720 C   0  0  0  0  0  0  0  0  0  0  0  0
   57.1880   27.2870   45.9180 C   0  0  0  0  0  0  0  0  0  0  0  0
   56.1244   27.5118   45.7499 H   0  0  0  0  0  0  0  0  0  0  0  0
   57.5500   26.2390   46.7730 C   0  0  0  0  0  0  0  0  0  0  0  0
   56.7723   25.6410   47.2706 H   0  0  0  0  0  0  0  0  0  0  0  0
   58.9010   25.9530   46.9940 C   0  0  0  0  0  0  0  0  0  0  0  0
   59.1869   25.1414   47.6792 H   0  0  0  0  0  0  0  0  0  0  0  0
   59.8900   26.7010   46.3420 C   0  0  0  0  0  0  0  0  0  0  0  0
   60.9523   26.4704   46.5104 H   0  0  0  0  0  0  0  0  0  0  0  0
   59.5300   27.7420   45.4760 C   0  0  0  0  0  0  0  0  0  0  0  0
   60.3100   28.3159   44.9543 H   0  0  0  0  0  0  0  0  0  0  0  0
   58.5000   32.9040   46.9510 C   0  0  0  0  0  0  0  0  0  0  0  0
   58.1694   32.1020   47.6274 H   0  0  0  0  0  0  0  0  0  0  0  0
   57.8320   32.0100   51.0040 C   0  0  0  0  0  0  0  0  0  0  0  0
   58.2647   31.9604   52.0141 H   0  0  0  0  0  0  0  0  0  0  0  0
   57.3169   32.9730   50.8726 H   0  0  0  0  0  0  0  0  0  0  0  0
   57.1125   31.1884   50.8726 H   0  0  0  0  0  0  0  0  0  0  0  0
   62.0700   30.9190   51.1870 C   0  0  0  0  0  0  0  0  0  0  0  0
   61.8018   31.7042   51.9092 H   0  0  0  0  0  0  0  0  0  0  0  0
   61.2656   30.7787   50.4500 H   0  0  0  0  0  0  0  0  0  0  0  0
  1  2  1  0
  2  3  2  0
  3  4  1  0
  3  5  1  0
  5  6  1  0
  5  7  1  0
  5  8  1  0
  8  9  1  0
  8 10  1  0
  8 11  1  0
 11 12  1  0
 12 13  2  0
 13 14  1  0
 13 15  1  0
 15 16  1  0
 15 17  2  0
 17 18  1  0
 17 19  1  0
 19 20  1  0
 19 21  2  0
 21 22  1  0
 22 23  1  0
 23 24  2  0
 23 25  1  0
 25 26  1  0
 25 27  2  0
 27 28  1  0
 28 29  1  0
 28 30  2  0
 30 31  1  0
 30 32  1  0
 32 33  2  0
 33 34  1  0
 33 35  1  0
 35 36  1  0
 35 37  2  0
 37 38  1  0
 37 39  1  0
 39 40  1  0
 40 41  2  0
 40 42  1  0
 42 43  1  0
 42 44  1  0
 44 45  1  0
 44 46  1  0
 44 47  1  0
 47 48  2  0
 48 49  1  0
 48 50  1  0
 50 51  1  0
 50 52  2  0
 52 53  1  0
 52 54  1  0
 54 55  1  0
 54 56  2  0
 56 57  1  0
 39 58  2  0
 58 59  1  0
 27 60  1  0
 60 61  1  0
 60 62  1  0
 60 63  1  0
 11 64  1  0
 64 65  1  0
 64 66  1  0
 64  2  1  0
 21 12  1  0
 58 32  1  0
 56 47  1  0
M  CHG  1  22  -1
M  END
>  <UniqueID>  (89) 
83

>  <SMILES>  (89) 
CC(/C=C\c1cccc(C(=O)NCc2ccccc2)c1)=C/C(=O)[N-]c1ccccc1N1CC=CCC1

>  <Energy>  (89) 
96.61696117719625

>  <Genealogy>  (89) 
CC(C=Cc1cccc(C(=O)NCc2ccccc2)c1)=CC(=O)[N-]c1ccccc1N1CC=CCC1 (protonated)
CC(/C=C\c1cccc(C(=O)NCc2ccccc2)c1)=C/C(=O)[N-]c1ccccc1N1CC=CCC1 (cis-trans isomerization)
CC(/C=C\c1cccc(C(=O)NCc2ccccc2)c1)=C/C(=O)[N-]c1ccccc1N1CC=CCC1 (3D coordinates assigned)
CC(/C=C\c1cccc(C(=O)NCc2ccccc2)c1)=C/C(=O)[N-]c1ccccc1N1CC=CCC1 (nonaromatic ring conformer: 96.61696117719625 kcal/mol)

>  <smiles>  (89) 
CC(C=Cc1cccc(C(=O)NCc2ccccc2)c1)=CC(=O)Nc1ccccc1N1CC=CCC1

>  <score_type>  (89) 
oracle

>  <origin>  (89) 
adg

>  <m_score__min__energy>  (89) 
-12.31

>  <m_primary>  (89) 
energy

$$$$
89:0
     RDKit          3D

 49 52  0  0  0  0  0  0  0  0999 V2000
   59.6530   26.1510   46.7360 C   0  0  0  0  0  0  0  0  0  0  0  0
   59.6790   27.3540   46.6780 C   0  0  0  0  0  0  0  0  0  0  0  0
   59.7090   28.7570   46.6090 N   0  0  0  0  0  0  0  0  0  0  0  0
   60.6490   29.5110   47.4420 C   0  0  0  0  0  0  0  0  0  0  0  0
   59.9640   30.0150   48.6840 C   0  0  0  0  0  0  0  0  0  0  0  0
   59.2220   31.2070   48.6420 C   0  0  0  0  0  0  0  0  0  0  0  0
   58.5350   31.6490   49.7760 C   0  0  0  0  0  0  0  0  0  0  0  0
   58.5750   30.9000   50.9550 C   0  0  0  0  0  0  0  0  0  0  0  0
   59.3020   29.7090   51.0030 C   0  0  0  0  0  0  0  0  0  0  0  0
   59.9960   29.2640   49.8730 C   0  0  0  0  0  0  0  0  0  0  0  0
   58.6870   29.4380   45.8720 C   0  0  0  0  0  0  0  0  0  0  0  0
   57.4240   28.8520   45.7180 C   0  0  0  0  0  0  0  0  0  0  0  0
   56.4080   29.5420   45.0500 C   0  0  0  0  0  0  0  0  0  0  0  0
   55.1560   28.9570   44.8990 O   0  0  0  0  0  0  0  0  0  0  0  0
   56.6460   30.8220   44.5430 C   0  0  0  0  0  0  0  0  0  0  0  0
   57.9090   31.4210   44.6940 C   0  0  0  0  0  0  0  0  0  0  0  0
   58.1560   32.7960   44.2080 C   0  0  0  0  0  0  0  0  0  0  0  0
   58.2170   33.0120   42.9690 O   0  0  0  0  0  0  0  0  0  0  0  0
   58.2990   33.9020   45.1100 N   0  0  0  0  0  0  0  0  0  0  0  0
   59.2450   33.9930   46.1850 C   0  0  0  0  0  0  0  0  0  0  0  0
   58.7970   34.3810   47.4520 C   0  0  0  0  0  0  0  0  0  0  0  0
   59.6910   34.4750   48.5200 C   0  0  0  0  0  0  0  0  0  0  0  0
   61.0490   34.1930   48.3370 C   0  0  0  0  0  0  0  0  0  0  0  0
   61.9040   34.2870   49.4350 O   0  0  0  0  0  0  0  0  0  0  0  0
   61.5160   33.8280   47.0570 C   0  0  0  0  0  0  0  0  0  0  0  0
   63.2470   33.4530   46.7540 S   0  0  0  0  0  0  0  0  0  0  0  0
   63.4250   32.5940   48.3110 C   0  0  0  0  0  0  0  0  0  0  0  0
   62.6320   31.5760   48.6930 N   0  0  0  0  0  0  0  0  0  0  0  0
   63.1460   31.2680   49.9000 C   0  0  0  0  0  0  0  0  0  0  0  0
   64.1870   32.0540   50.2280 N   0  0  0  0  0  0  0  0  0  0  0  0
   64.3640   32.8940   49.2240 N   0  0  0  0  0  0  0  0  0  0  0  0
   60.6150   33.7430   45.9880 C   0  0  0  0  0  0  0  0  0  0  0  0
   58.9330   30.7100   45.3370 C   0  0  0  0  0  0  0  0  0  0  0  0
   59.6293   25.0525   46.7890 H   0  0  0  0  0  0  0  0  0  0  0  0
   61.4843   28.8556   47.7297 H   0  0  0  0  0  0  0  0  0  0  0  0
   61.0232   30.3712   46.8676 H   0  0  0  0  0  0  0  0  0  0  0  0
   59.1815   31.7948   47.7131 H   0  0  0  0  0  0  0  0  0  0  0  0
   57.9622   32.5874   49.7404 H   0  0  0  0  0  0  0  0  0  0  0  0
   58.0331   31.2491   51.8463 H   0  0  0  0  0  0  0  0  0  0  0  0
   59.3291   29.1194   51.9313 H   0  0  0  0  0  0  0  0  0  0  0  0
   60.5678   28.3252   49.9142 H   0  0  0  0  0  0  0  0  0  0  0  0
   57.2314   27.8476   46.1232 H   0  0  0  0  0  0  0  0  0  0  0  0
   55.8417   31.3635   44.0234 H   0  0  0  0  0  0  0  0  0  0  0  0
   57.7332   34.6136   47.6078 H   0  0  0  0  0  0  0  0  0  0  0  0
   59.3248   34.7732   49.5134 H   0  0  0  0  0  0  0  0  0  0  0  0
   62.4140   33.4940   49.8050 H   0  0  0  0  0  0  0  0  0  0  0  0
   62.7582   30.4649   50.5439 H   0  0  0  0  0  0  0  0  0  0  0  0
   60.9821   33.4784   44.9854 H   0  0  0  0  0  0  0  0  0  0  0  0
   59.9360   31.1537   45.4220 H   0  0  0  0  0  0  0  0  0  0  0  0
  1  2  3  0
  2  3  1  0
  3  4  1  0
  4  5  1  0
  5  6  2  0
  6  7  1  0
  7  8  2  0
  8  9  1  0
  9 10  2  0
  3 11  1  0
 11 12  2  0
 12 13  1  0
 13 14  1  0
 13 15  2  0
 15 16  1  0
 16 17  1  0
 17 18  2  0
 17 19  1  0
 19 20  1  0
 20 21  2  0
 21 22  1  0
 22 23  2  0
 23 24  1  0
 23 25  1  0
 25 26  1  0
 26 27  1  0
 27 28  1  0
 28 29  2  0
 29 30  1  0
 30 31  1  0
 25 32  2  0
 16 33  2  0
 10  5  1  0
 33 11  1  0
 32 20  1  0
 31 27  2  0
  1 34  1  0
  4 35  1  0
  4 36  1  0
  6 37  1  0
  7 38  1  0
  8 39  1  0
  9 40  1  0
 10 41  1  0
 12 42  1  0
 15 43  1  0
 21 44  1  0
 22 45  1  0
 24 46  1  0
 29 47  1  0
 32 48  1  0
 33 49  1  0
M  CHG  3  14  -1  19  -1  30  -1
M  END
>  <UniqueID>  (90) 
84

>  <SMILES>  (90) 
C#CN(Cc1ccccc1)c1cc([O-])cc(C(=O)[N-]c2ccc(O)c(Sc3nc[n-]n3)c2)c1

>  <Energy>  (90) 
89.16611381090777

>  <Genealogy>  (90) 
C#CN(Cc1ccccc1)c1cc([O-])cc(C(=O)[N-]c2ccc(O)c(Sc3nc[n-]n3)c2)c1 (protonated)
C#CN(Cc1ccccc1)c1cc([O-])cc(C(=O)[N-]c2ccc(O)c(Sc3nc[n-]n3)c2)c1 (3D coordinates assigned)
C#CN(Cc1ccccc1)c1cc([O-])cc(C(=O)[N-]c2ccc(O)c(Sc3nc[n-]n3)c2)c1 (optimized conformer: 89.16611381090777 kcal/mol)

>  <smiles>  (90) 
C#CN(Cc1ccccc1)c1cc(O)cc(C(=O)Nc2ccc(O)c(Sc3nc[nH]n3)c2)c1

>  <score_type>  (90) 
oracle

>  <origin>  (90) 
adg

>  <m_score__min__energy>  (90) 
-14.58

>  <m_primary>  (90) 
energy

$$$$
90:0
     RDKit          3D

 61 63  0  0  0  0  0  0  0  0999 V2000
   68.8240   34.4330   50.5150 C   0  0  0  0  0  0  0  0  0  0  0  0
   68.3380   33.2720   51.3770 C   0  0  0  0  0  0  0  0  0  0  0  0
   67.5830   32.3520   50.5910 O   0  0  0  0  0  0  0  0  0  0  0  0
   66.4110   31.7290   51.0400 C   0  0  0  0  0  0  0  0  0  0  0  0
   66.4610   30.9070   51.9960 O   0  0  0  0  0  0  0  0  0  0  0  0
   65.1530   32.0400   50.4120 N   0  0  0  0  0  0  0  0  0  0  0  0
   63.8920   31.4920   50.9200 C   0  0  0  0  0  0  0  0  0  0  0  0
   63.0200   30.9700   49.7680 C   0  0  0  0  0  0  0  0  0  0  0  0
   63.0410   31.8420   48.4720 C   0  0  0  0  0  0  0  0  0  0  0  0
   61.6550   31.9640   47.9270 N   0  0  0  0  0  0  0  0  0  0  0  0
   60.6150   31.3850   48.8100 C   0  0  0  0  0  0  0  0  0  0  0  0
   59.1800   31.6940   48.3240 C   0  0  0  0  0  0  0  0  0  0  0  0
   59.1530   32.2610   46.9590 N   0  0  0  0  0  0  0  0  0  0  0  0
   59.5210   31.2710   45.9090 C   0  0  0  0  0  0  0  0  0  0  0  0
   58.5130   30.1520   45.8360 C   0  0  0  0  0  0  0  0  0  0  0  0
   58.7780   28.9160   46.4460 C   0  0  0  0  0  0  0  0  0  0  0  0
   57.8300   27.8900   46.3950 C   0  0  0  0  0  0  0  0  0  0  0  0
   56.6120   28.0880   45.7380 C   0  0  0  0  0  0  0  0  0  0  0  0
   55.6820   27.0570   45.6950 O   0  0  0  0  0  0  0  0  0  0  0  0
   56.3360   29.3240   45.1290 C   0  0  0  0  0  0  0  0  0  0  0  0
   55.1290   29.5490   44.4690 O   0  0  0  0  0  0  0  0  0  0  0  0
   57.2870   30.3500   45.1830 C   0  0  0  0  0  0  0  0  0  0  0  0
   59.9340   33.5270   46.9460 C   0  0  2  0  0  0  0  0  0  0  0  0
   60.0040   34.1770   45.5380 C   0  0  0  0  0  0  0  0  0  0  0  0
   58.6270   34.3210   44.8710 C   0  0  0  0  0  0  0  0  0  0  0  0
   57.5970   34.2420   45.8200 O   0  0  0  0  0  0  0  0  0  0  0  0
   61.3310   33.3770   47.6220 C   0  0  0  0  0  0  0  0  0  0  0  0
   63.7160   33.2120   48.7550 C   0  0  0  0  0  0  0  0  0  0  0  0
   65.1300   33.0160   49.3170 C   0  0  0  0  0  0  0  0  0  0  0  0
   69.1671   35.2526   51.1635 H   0  0  0  0  0  0  0  0  0  0  0  0
   69.6562   34.0950   49.8800 H   0  0  0  0  0  0  0  0  0  0  0  0
   67.9992   34.7886   49.8800 H   0  0  0  0  0  0  0  0  0  0  0  0
   69.2063   32.7527   51.8087 H   0  0  0  0  0  0  0  0  0  0  0  0
   67.6968   33.6666   52.1790 H   0  0  0  0  0  0  0  0  0  0  0  0
   64.1108   30.6640   51.6103 H   0  0  0  0  0  0  0  0  0  0  0  0
   63.3452   32.2913   51.4416 H   0  0  0  0  0  0  0  0  0  0  0  0
   63.3709   29.9611   49.5054 H   0  0  0  0  0  0  0  0  0  0  0  0
   61.9832   30.9921   50.1348 H   0  0  0  0  0  0  0  0  0  0  0  0
   63.6489   31.3552   47.6952 H   0  0  0  0  0  0  0  0  0  0  0  0
   60.7483   30.2936   48.8420 H   0  0  0  0  0  0  0  0  0  0  0  0
   60.7337   31.8387   49.8050 H   0  0  0  0  0  0  0  0  0  0  0  0
   58.5973   30.7610   48.3298 H   0  0  0  0  0  0  0  0  0  0  0  0
   58.7512   32.4437   49.0052 H   0  0  0  0  0  0  0  0  0  0  0  0
   59.5627   31.7802   44.9348 H   0  0  0  0  0  0  0  0  0  0  0  0
   60.5006   30.8407   46.1646 H   0  0  0  0  0  0  0  0  0  0  0  0
   59.7340   28.7543   46.9655 H   0  0  0  0  0  0  0  0  0  0  0  0
   58.0432   26.9229   46.8738 H   0  0  0  0  0  0  0  0  0  0  0  0
   54.3590   28.8930   44.5170 H   0  0  0  0  0  0  0  0  0  0  0  0
   57.0713   31.3192   44.7096 H   0  0  0  0  0  0  0  0  0  0  0  0
   59.3742   34.2381   47.5712 H   0  0  0  0  0  0  0  0  0  0  0  0
   60.4518   35.1770   45.6360 H   0  0  0  0  0  0  0  0  0  0  0  0
   60.6092   33.5151   44.9011 H   0  0  0  0  0  0  0  0  0  0  0  0
   58.5738   35.2951   44.3628 H   0  0  0  0  0  0  0  0  0  0  0  0
   58.5007   33.5014   44.1483 H   0  0  0  0  0  0  0  0  0  0  0  0
   57.6640   33.3420   46.2380 H   0  0  0  0  0  0  0  0  0  0  0  0
   62.0981   33.7780   46.9432 H   0  0  0  0  0  0  0  0  0  0  0  0
   61.3084   33.9314   48.5718 H   0  0  0  0  0  0  0  0  0  0  0  0
   63.7764   33.7848   47.8179 H   0  0  0  0  0  0  0  0  0  0  0  0
   63.1134   33.7557   49.4975 H   0  0  0  0  0  0  0  0  0  0  0  0
   65.7874   32.6605   48.5099 H   0  0  0  0  0  0  0  0  0  0  0  0
   65.4760   33.9818   49.7138 H   0  0  0  0  0  0  0  0  0  0  0  0
  1  2  1  0
  2  3  1  0
  3  4  1  0
  4  5  2  0
  4  6  1  0
  6  7  1  0
  7  8  1  0
  8  9  1  0
  9 10  1  0
 10 11  1  0
 11 12  1  0
 12 13  1  0
 13 14  1  0
 14 15  1  0
 15 16  2  0
 16 17  1  0
 17 18  2  0
 18 19  1  0
 18 20  1  0
 20 21  1  0
 20 22  2  0
 13 23  1  0
 23 24  1  0
 24 25  1  0
 25 26  1  0
 23 27  1  0
  9 28  1  0
 28 29  1  0
 29  6  1  0
 27 10  1  0
 22 15  1  0
  1 30  1  0
  1 31  1  0
  1 32  1  0
  2 33  1  0
  2 34  1  0
  7 35  1  0
  7 36  1  0
  8 37  1  0
  8 38  1  0
  9 39  1  0
 11 40  1  0
 11 41  1  0
 12 42  1  0
 12 43  1  0
 14 44  1  0
 14 45  1  0
 16 46  1  0
 17 47  1  0
 21 48  1  0
 22 49  1  0
 23 50  1  1
 24 51  1  0
 24 52  1  0
 25 53  1  0
 25 54  1  0
 26 55  1  0
 27 56  1  0
 27 57  1  0
 28 58  1  0
 28 59  1  0
 29 60  1  0
 29 61  1  0
M  CHG  1  19  -1
M  END
>  <UniqueID>  (91) 
85

>  <SMILES>  (91) 
CCOC(=O)N1CCC(N2CCN(Cc3ccc([O-])c(O)c3)[C@H](CCO)C2)CC1

>  <Energy>  (91) 
79.15978412199674

>  <Genealogy>  (91) 
CCOC(=O)N1CCC(N2CCN(Cc3ccc([O-])c(O)c3)C(CCO)C2)CC1 (protonated)
CCOC(=O)N1CCC(N2CCN(Cc3ccc([O-])c(O)c3)[C@H](CCO)C2)CC1 (chirality)
CCOC(=O)N1CCC(N2CCN(Cc3ccc([O-])c(O)c3)[C@H](CCO)C2)CC1 (3D coordinates assigned)
CCOC(=O)N1CCC(N2CCN(Cc3ccc([O-])c(O)c3)[C@H](CCO)C2)CC1 (nonaromatic ring conformer: 79.15978412199674 kcal/mol)

>  <smiles>  (91) 
CCOC(=O)N1CCC(N2CCN(Cc3ccc(O)c(O)c3)C(CCO)C2)CC1

>  <score_type>  (91) 
oracle

>  <origin>  (91) 
adg

>  <m_score__min__energy>  (91) 
-10.44

>  <m_primary>  (91) 
energy

$$$$
91:0
     RDKit          3D

 59 61  0  0  0  0  0  0  0  0999 V2000
   55.1080   23.4730   43.6230 C   0  0  0  0  0  0  0  0  0  0  0  0
   53.9710   23.8450   44.5740 C   0  0  0  0  0  0  0  0  0  0  0  0
   54.4310   23.8920   46.0390 C   0  0  0  0  0  0  0  0  0  0  0  0
   55.8380   24.3320   46.1590 N   0  0  0  0  0  0  0  0  0  0  0  0
   56.1710   25.6740   46.1930 C   0  0  0  0  0  0  0  0  0  0  0  0
   55.1570   26.6970   46.1040 N   0  0  0  0  0  0  0  0  0  0  0  0
   57.5300   26.0550   46.2860 C   0  0  0  0  0  0  0  0  0  0  0  0
   57.9420   27.4740   46.3220 C   0  0  0  0  0  0  0  0  0  0  0  0
   58.0640   28.0580   47.4330 O   0  0  0  0  0  0  0  0  0  0  0  0
   58.2660   28.2060   45.0580 C   0  0  0  0  0  0  0  0  0  0  0  0
   57.0420   28.4230   44.2920 N   0  0  0  0  0  0  0  0  0  0  0  0
   56.2280   29.6020   44.3580 C   0  0  0  0  0  0  0  0  0  0  0  0
   55.1320   29.5440   44.9740 O   0  0  0  0  0  0  0  0  0  0  0  0
   56.6210   30.8860   43.6750 C   0  0  0  0  0  0  0  0  0  0  0  0
   57.3870   31.7830   44.6110 C   0  0  0  0  0  0  0  0  0  0  0  0
   57.7740   31.3210   45.8800 C   0  0  0  0  0  0  0  0  0  0  0  0
   58.4960   32.1530   46.7400 C   0  0  0  0  0  0  0  0  0  0  0  0
   58.8350   33.4540   46.3440 C   0  0  0  0  0  0  0  0  0  0  0  0
   59.5860   34.3170   47.2040 N   0  0  0  0  0  0  0  0  0  0  0  0
   60.9310   34.0890   47.6490 C   0  0  0  0  0  0  0  0  0  0  0  0
   61.2650   34.5250   48.7830 O   0  0  0  0  0  0  0  0  0  0  0  0
   61.8990   33.2300   46.8490 C   0  0  2  0  0  0  0  0  0  0  0  0
   62.0160   31.8140   47.4460 C   0  0  0  0  0  0  0  0  0  0  0  0
   62.6360   31.8230   48.8510 C   0  0  0  0  0  0  0  0  0  0  0  0
   63.8550   32.6990   48.9190 C   0  0  0  0  0  0  0  0  0  0  0  0
   64.6770   32.5490   49.8590 O   0  0  0  0  0  0  0  0  0  0  0  0
   64.0360   33.7750   47.9930 N   0  0  0  0  0  0  0  0  0  0  0  0
   63.3030   33.8580   46.7320 C   0  0  0  0  0  0  0  0  0  0  0  0
   58.4940   33.8960   45.0610 C   0  0  0  0  0  0  0  0  0  0  0  0
   57.7650   33.0690   44.2020 C   0  0  0  0  0  0  0  0  0  0  0  0
   58.5030   25.0520   46.3430 C   0  0  0  0  0  0  0  0  0  0  0  0
   59.7260   25.3420   46.4250 O   0  0  0  0  0  0  0  0  0  0  0  0
   58.1320   23.7540   46.3260 N   0  0  0  0  0  0  0  0  0  0  0  0
   56.8320   23.3840   46.2410 C   0  0  0  0  0  0  0  0  0  0  0  0
   56.5570   22.1530   46.2390 O   0  0  0  0  0  0  0  0  0  0  0  0
   55.9942   23.1831   44.2067 H   0  0  0  0  0  0  0  0  0  0  0  0
   54.7948   22.6305   42.9889 H   0  0  0  0  0  0  0  0  0  0  0  0
   55.3534   24.3377   42.9889 H   0  0  0  0  0  0  0  0  0  0  0  0
   53.5836   24.8353   44.2925 H   0  0  0  0  0  0  0  0  0  0  0  0
   53.1934   23.0716   44.4891 H   0  0  0  0  0  0  0  0  0  0  0  0
   53.7898   24.5948   46.5912 H   0  0  0  0  0  0  0  0  0  0  0  0
   54.3537   22.8764   46.4544 H   0  0  0  0  0  0  0  0  0  0  0  0
   55.1590   27.4430   45.3800 H   0  0  0  0  0  0  0  0  0  0  0  0
   54.3410   26.7230   46.7510 H   0  0  0  0  0  0  0  0  0  0  0  0
   58.7217   29.1767   45.3033 H   0  0  0  0  0  0  0  0  0  0  0  0
   58.9710   27.6097   44.4602 H   0  0  0  0  0  0  0  0  0  0  0  0
   57.2516   30.6520   42.8046 H   0  0  0  0  0  0  0  0  0  0  0  0
   55.7063   31.4089   43.3590 H   0  0  0  0  0  0  0  0  0  0  0  0
   57.5081   30.3019   46.1975 H   0  0  0  0  0  0  0  0  0  0  0  0
   58.7993   31.7854   47.7314 H   0  0  0  0  0  0  0  0  0  0  0  0
   61.4756   33.1660   45.8358 H   0  0  0  0  0  0  0  0  0  0  0  0
   61.0108   31.3712   47.5058 H   0  0  0  0  0  0  0  0  0  0  0  0
   62.6758   31.2262   46.7909 H   0  0  0  0  0  0  0  0  0  0  0  0
   61.8891   32.1964   49.5671 H   0  0  0  0  0  0  0  0  0  0  0  0
   62.9405   30.7948   49.0963 H   0  0  0  0  0  0  0  0  0  0  0  0
   63.1985   34.9158   46.4488 H   0  0  0  0  0  0  0  0  0  0  0  0
   63.8666   33.3009   45.9691 H   0  0  0  0  0  0  0  0  0  0  0  0
   58.8009   34.8982   44.7272 H   0  0  0  0  0  0  0  0  0  0  0  0
   57.4867   33.4291   43.2005 H   0  0  0  0  0  0  0  0  0  0  0  0
  1  2  1  0
  2  3  1  0
  3  4  1  0
  4  5  1  0
  5  6  1  0
  5  7  2  0
  7  8  1  0
  8  9  2  0
  8 10  1  0
 10 11  1  0
 11 12  1  0
 12 13  2  0
 12 14  1  0
 14 15  1  0
 15 16  2  0
 16 17  1  0
 17 18  2  0
 18 19  1  0
 19 20  1  0
 20 21  2  0
 20 22  1  0
 22 23  1  0
 23 24  1  0
 24 25  1  0
 25 26  2  0
 25 27  1  0
 27 28  1  0
 18 29  1  0
 29 30  2  0
  7 31  1  0
 31 32  2  0
 31 33  1  0
 33 34  1  0
 34 35  2  0
 34  4  1  0
 30 15  1  0
 28 22  1  0
  1 36  1  0
  1 37  1  0
  1 38  1  0
  2 39  1  0
  2 40  1  0
  3 41  1  0
  3 42  1  0
  6 43  1  0
  6 44  1  0
 10 45  1  0
 10 46  1  0
 14 47  1  0
 14 48  1  0
 16 49  1  0
 17 50  1  0
 22 51  1  6
 23 52  1  0
 23 53  1  0
 24 54  1  0
 24 55  1  0
 28 56  1  0
 28 57  1  0
 29 58  1  0
 30 59  1  0
M  CHG  4  11  -1  19  -1  27  -1  33  -1
M  END
>  <UniqueID>  (92) 
86

>  <SMILES>  (92) 
CCCn1c(N)c(C(=O)C[N-]C(=O)Cc2ccc([N-]C(=O)[C@@H]3CCC(=O)[N-]C3)cc2)c(=O)[n-]c1=O

>  <Energy>  (92) 
72.9269439175506

>  <Genealogy>  (92) 
CCCn1c(N)c(C(=O)C[N-]C(=O)Cc2ccc([N-]C(=O)C3CCC(=O)[N-]C3)cc2)c(=O)[n-]c1=O (protonated)
CCCn1c(N)c(C(=O)C[N-]C(=O)Cc2ccc([N-]C(=O)[C@@H]3CCC(=O)[N-]C3)cc2)c(=O)[n-]c1=O (chirality)
CCCn1c(N)c(C(=O)C[N-]C(=O)Cc2ccc([N-]C(=O)[C@@H]3CCC(=O)[N-]C3)cc2)c(=O)[n-]c1=O (3D coordinates assigned)
CCCn1c(N)c(C(=O)C[N-]C(=O)Cc2ccc([N-]C(=O)[C@@H]3CCC(=O)[N-]C3)cc2)c(=O)[n-]c1=O (nonaromatic ring conformer: 72.9269439175506 kcal/mol)

>  <smiles>  (92) 
CCCn1c(N)c(C(=O)CNC(=O)Cc2ccc(NC(=O)C3CCC(=O)NC3)cc2)c(=O)[nH]c1=O

>  <score_type>  (92) 
oracle

>  <origin>  (92) 
adg

>  <m_score__min__energy>  (92) 
-14.609999999999999

>  <m_primary>  (92) 
energy

$$$$
92:0
     RDKit          3D

 31 32  0  0  0  0  0  0  0  0999 V2000
   57.3040   25.1570   43.2950 O   0  0  0  0  0  0  0  0  0  0  0  0
   57.0950   24.8450   44.4980 C   0  0  0  0  0  0  0  0  0  0  0  0
   58.1540   25.0020   45.5270 C   0  0  0  0  0  0  0  0  0  0  0  0
   58.5920   26.1610   46.0460 C   0  0  0  0  0  0  0  0  0  0  0  0
   57.7400   27.3220   46.3770 C   0  0  0  0  0  0  0  0  0  0  0  0
   58.1600   28.5940   46.3040 C   0  0  0  0  0  0  0  0  0  0  0  0
   57.7660   29.5590   45.2510 C   0  0  0  0  0  0  0  0  0  0  0  0
   58.7020   30.4570   44.7040 C   0  0  0  0  0  0  0  0  0  0  0  0
   58.3250   31.3350   43.6830 C   0  0  0  0  0  0  0  0  0  0  0  0
   57.0210   31.3130   43.1860 C   0  0  0  0  0  0  0  0  0  0  0  0
   56.0910   30.4080   43.7030 C   0  0  0  0  0  0  0  0  0  0  0  0
   56.4590   29.5270   44.7260 C   0  0  0  0  0  0  0  0  0  0  0  0
   55.5190   28.6300   45.2230 O   0  0  0  0  0  0  0  0  0  0  0  0
   55.7680   24.3020   44.8690 C   0  0  0  0  0  0  0  0  0  0  0  0
   54.8310   25.0700   45.5840 C   0  0  0  0  0  0  0  0  0  0  0  0
   55.1350   26.3660   45.9930 O   0  0  0  0  0  0  0  0  0  0  0  0
   53.6230   24.5370   45.9060 N   0  0  0  0  0  0  0  0  0  0  0  0
   53.3000   23.2650   45.5600 C   0  0  0  0  0  0  0  0  0  0  0  0
   52.1740   22.7960   45.8680 O   0  0  0  0  0  0  0  0  0  0  0  0
   54.1940   22.4970   44.8870 N   0  0  0  0  0  0  0  0  0  0  0  0
   55.4140   22.9810   44.5380 C   0  0  0  0  0  0  0  0  0  0  0  0
   56.2120   22.2380   43.9060 O   0  0  0  0  0  0  0  0  0  0  0  0
   58.6251   24.0807   45.9001 H   0  0  0  0  0  0  0  0  0  0  0  0
   59.6708   26.2531   46.2400 H   0  0  0  0  0  0  0  0  0  0  0  0
   56.7058   27.1332   46.7007 H   0  0  0  0  0  0  0  0  0  0  0  0
   58.8492   28.9474   47.0852 H   0  0  0  0  0  0  0  0  0  0  0  0
   59.7351   30.4681   45.0816 H   0  0  0  0  0  0  0  0  0  0  0  0
   59.0577   32.0444   43.2707 H   0  0  0  0  0  0  0  0  0  0  0  0
   56.7255   32.0087   42.3868 H   0  0  0  0  0  0  0  0  0  0  0  0
   55.0659   30.3878   43.3046 H   0  0  0  0  0  0  0  0  0  0  0  0
   55.6540   26.9940   45.3920 H   0  0  0  0  0  0  0  0  0  0  0  0
  1  2  2  0
  2  3  1  0
  3  4  2  3
  4  5  1  0
  5  6  2  3
  6  7  1  0
  7  8  2  0
  8  9  1  0
  9 10  2  0
 10 11  1  0
 11 12  2  0
 12 13  1  0
  2 14  1  0
 14 15  2  0
 15 16  1  0
 15 17  1  0
 17 18  1  0
 18 19  2  0
 18 20  1  0
 20 21  1  0
 21 22  2  0
 12  7  1  0
 21 14  1  0
  3 23  1  0
  4 24  1  0
  5 25  1  0
  6 26  1  0
  8 27  1  0
  9 28  1  0
 10 29  1  0
 11 30  1  0
 16 31  1  0
M  CHG  3  13  -1  17  -1  20  -1
M  END
>  <UniqueID>  (93) 
87

>  <SMILES>  (93) 
O=C(C=CC=Cc1ccccc1[O-])c1c(O)[n-]c(=O)[n-]c1=O

>  <Energy>  (93) 
49.05618844589963

>  <Genealogy>  (93) 
O=C(C=CC=Cc1ccccc1[O-])c1c(O)[n-]c(=O)[n-]c1=O (protonated)
O=C(C=CC=Cc1ccccc1[O-])c1c(O)[n-]c(=O)[n-]c1=O (3D coordinates assigned)
O=C(C=CC=Cc1ccccc1[O-])c1c(O)[n-]c(=O)[n-]c1=O (optimized conformer: 49.05618844589963 kcal/mol)

>  <smiles>  (93) 
O=C(C=CC=Cc1ccccc1O)c1c(O)[nH]c(=O)[nH]c1=O

>  <score_type>  (93) 
oracle

>  <origin>  (93) 
adg

>  <m_score__min__energy>  (93) 
-14.24

>  <m_primary>  (93) 
energy

$$$$
