0:0
     RDKit          3D

 50 53  0  0  0  0  0  0  0  0999 V2000
   57.5390   34.5620   45.3830 C   0  0  0  0  0  0  0  0  0  0  0  0
   59.2970   34.8270   45.4690 S   0  0  0  0  0  0  0  0  0  0  0  0
   59.6190   36.2840   45.2880 O   0  0  0  0  0  0  0  0  0  0  0  0
   59.9560   34.0470   44.3660 O   0  0  0  0  0  0  0  0  0  0  0  0
   59.9130   34.2660   46.9900 N   0  0  0  0  0  0  0  0  0  0  0  0
   61.1320   33.5350   47.1950 C   0  0  0  0  0  0  0  0  0  0  0  0
   62.3240   33.8960   46.5370 C   0  0  0  0  0  0  0  0  0  0  0  0
   63.4920   33.1560   46.7280 C   0  0  0  0  0  0  0  0  0  0  0  0
   63.4880   32.0480   47.5750 C   0  0  0  0  0  0  0  0  0  0  0  0
   62.3160   31.6760   48.2340 C   0  0  0  0  0  0  0  0  0  0  0  0
   61.1300   32.4070   48.0480 C   0  0  0  0  0  0  0  0  0  0  0  0
   59.9070   31.9950   48.7770 C   0  0  0  0  0  0  0  0  0  0  0  0
   59.5310   32.6580   49.7820 O   0  0  0  0  0  0  0  0  0  0  0  0
   59.1490   30.8470   48.3550 N   0  0  0  0  0  0  0  0  0  0  0  0
   58.9460   29.6800   49.2180 C   0  0  0  0  0  0  0  0  0  0  0  0
   58.5950   28.5180   48.2740 C   0  0  0  0  0  0  0  0  0  0  0  0
   58.0860   29.2450   47.0370 C   0  0  1  0  0  0  0  0  0  0  0  0
   58.9980   30.4470   46.9670 C   0  0  1  0  0  0  0  0  0  0  0  0
   58.3630   31.4640   46.0200 C   0  0  0  0  0  0  0  0  0  0  0  0
   58.2890   30.8510   44.5990 C   0  0  0  0  0  0  0  0  0  0  0  0
   58.0090   29.3520   44.5670 C   0  0  0  0  0  0  0  0  0  0  0  0
   57.7060   28.8190   43.4650 O   0  0  0  0  0  0  0  0  0  0  0  0
   58.1310   28.5350   45.7580 N   0  0  0  0  0  0  0  0  0  0  0  0
   57.9330   27.1110   45.6840 C   0  0  0  0  0  0  0  0  0  0  0  0
   59.0280   26.2370   45.6700 C   0  0  0  0  0  0  0  0  0  0  0  0
   58.8210   24.8590   45.6010 C   0  0  0  0  0  0  0  0  0  0  0  0
   57.5160   24.3660   45.5490 C   0  0  0  0  0  0  0  0  0  0  0  0
   56.4630   25.2250   45.5630 N   0  0  0  0  0  0  0  0  0  0  0  0
   56.6370   26.5720   45.6280 C   0  0  0  0  0  0  0  0  0  0  0  0
   55.5260   27.4070   45.6280 O   0  0  0  0  0  0  0  0  0  0  0  0
   57.1273   34.4999   46.4012 H   0  0  0  0  0  0  0  0  0  0  0  0
   57.0678   35.3993   44.8473 H   0  0  0  0  0  0  0  0  0  0  0  0
   57.3355   33.6230   44.8473 H   0  0  0  0  0  0  0  0  0  0  0  0
   62.3345   34.7684   45.8670 H   0  0  0  0  0  0  0  0  0  0  0  0
   64.4174   33.4473   46.2095 H   0  0  0  0  0  0  0  0  0  0  0  0
   64.4100   31.4668   47.7236 H   0  0  0  0  0  0  0  0  0  0  0  0
   62.3201   30.8039   48.9043 H   0  0  0  0  0  0  0  0  0  0  0  0
   59.8647   29.4538   49.7790 H   0  0  0  0  0  0  0  0  0  0  0  0
   58.1506   29.8561   49.9571 H   0  0  0  0  0  0  0  0  0  0  0  0
   59.4829   27.9114   48.0421 H   0  0  0  0  0  0  0  0  0  0  0  0
   57.8676   27.8106   48.6988 H   0  0  0  0  0  0  0  0  0  0  0  0
   57.0084   29.4306   47.1568 H   0  0  0  0  0  0  0  0  0  0  0  0
   60.0024   30.2876   46.5477 H   0  0  0  0  0  0  0  0  0  0  0  0
   57.3493   31.7102   46.3689 H   0  0  0  0  0  0  0  0  0  0  0  0
   58.9696   32.3814   45.9983 H   0  0  0  0  0  0  0  0  0  0  0  0
   57.4864   31.3616   44.0466 H   0  0  0  0  0  0  0  0  0  0  0  0
   59.2819   30.9920   44.1470 H   0  0  0  0  0  0  0  0  0  0  0  0
   60.0516   26.6376   45.7134 H   0  0  0  0  0  0  0  0  0  0  0  0
   59.6770   24.1683   45.5877 H   0  0  0  0  0  0  0  0  0  0  0  0
   57.3399   23.2815   45.4967 H   0  0  0  0  0  0  0  0  0  0  0  0
  1  2  1  0
  2  3  2  0
  2  4  2  0
  2  5  1  0
  5  6  1  0
  6  7  2  0
  7  8  1  0
  8  9  2  0
  9 10  1  0
 10 11  2  0
 11 12  1  0
 12 13  2  0
 12 14  1  0
 14 15  1  0
 15 16  1  0
 16 17  1  0
 17 18  1  0
 18 19  1  0
 19 20  1  0
 20 21  1  0
 21 22  2  0
 21 23  1  0
 23 24  1  0
 24 25  2  0
 25 26  1  0
 26 27  2  0
 27 28  1  0
 28 29  2  0
 29 30  1  0
 11  6  1  0
 18 14  1  0
 29 24  1  0
 23 17  1  0
  1 31  1  0
  1 32  1  0
  1 33  1  0
  7 34  1  0
  8 35  1  0
  9 36  1  0
 10 37  1  0
 15 38  1  0
 15 39  1  0
 16 40  1  0
 16 41  1  0
 17 42  1  1
 18 43  1  6
 19 44  1  0
 19 45  1  0
 20 46  1  0
 20 47  1  0
 25 48  1  0
 26 49  1  0
 27 50  1  0
M  CHG  2   5  -1  30  -1
M  END
>  <UniqueID>  (1) 
1

>  <SMILES>  (1) 
CS(=O)(=O)[N-]c1ccccc1C(=O)N1CC[C@H]2[C@H]1CCC(=O)N2c1cccnc1[O-]

>  <Energy>  (1) 
76.8008669177155

>  <Genealogy>  (1) 
CS(=O)(=O)[N-]c1ccccc1C(=O)N1CCC2C1CCC(=O)N2c1cccnc1[O-] (protonated)
CS(=O)(=O)[N-]c1ccccc1C(=O)N1CC[C@H]2[C@H]1CCC(=O)N2c1cccnc1[O-] (chirality)
CS(=O)(=O)[N-]c1ccccc1C(=O)N1CC[C@H]2[C@H]1CCC(=O)N2c1cccnc1[O-] (3D coordinates assigned)
CS(=O)(=O)[N-]c1ccccc1C(=O)N1CC[C@H]2[C@H]1CCC(=O)N2c1cccnc1[O-] (nonaromatic ring conformer: 76.8008669177155 kcal/mol)

>  <smiles>  (1) 
CS(=O)(=O)Nc1ccccc1C(=O)N1CCC2C1CCC(=O)N2c1cccnc1O

>  <score_type>  (1) 
oracle

>  <origin>  (1) 
adg

>  <m_score__min__energy>  (1) 
-13.199999999999999

>  <m_primary>  (1) 
energy

$$$$
1:0
     RDKit          3D

 74 77  0  0  0  0  0  0  0  0999 V2000
   58.4929   27.3631   44.9348 H   0  0  0  0  0  0  0  0  0  0  0  0
   57.7030   27.8160   45.5520 C   0  0  0  0  0  0  0  0  0  0  0  0
   57.1020   27.0990   46.4510 N   0  0  0  0  0  0  0  0  0  0  0  0
   57.8150   26.1780   47.3330 C   0  0  0  0  0  0  0  0  0  0  0  0
   58.0371   26.6861   48.2830 H   0  0  0  0  0  0  0  0  0  0  0  0
   57.1818   25.2965   47.5122 H   0  0  0  0  0  0  0  0  0  0  0  0
   59.1300   25.7200   46.6860 C   0  0  0  0  0  0  0  0  0  0  0  0
   59.2121   24.6280   46.7896 H   0  0  0  0  0  0  0  0  0  0  0  0
   59.1063   26.0265   45.6298 H   0  0  0  0  0  0  0  0  0  0  0  0
   60.3640   26.3700   47.3320 C   0  0  0  0  0  0  0  0  0  0  0  0
   60.4828   25.9653   48.3479 H   0  0  0  0  0  0  0  0  0  0  0  0
   61.2309   26.1383   46.6958 H   0  0  0  0  0  0  0  0  0  0  0  0
   60.2540   27.8980   47.4230 C   0  0  0  0  0  0  0  0  0  0  0  0
   61.1620   28.3524   46.9999 H   0  0  0  0  0  0  0  0  0  0  0  0
   59.3686   28.2259   46.8586 H   0  0  0  0  0  0  0  0  0  0  0  0
   60.1100   28.3170   48.8150 N   0  0  0  0  0  0  0  0  0  0  0  0
   59.4600   27.7740   49.4300 H   0  0  0  0  0  0  0  0  0  0  0  0
   60.8420   29.4180   49.3750 C   0  0  0  0  0  0  0  0  0  0  0  0
   61.6400   30.0830   48.6590 O   0  0  0  0  0  0  0  0  0  0  0  0
   60.6220   29.8180   50.8070 C   0  0  0  0  0  0  0  0  0  0  0  0
   61.4388   29.4135   51.4228 H   0  0  0  0  0  0  0  0  0  0  0  0
   60.6027   30.9163   50.8644 H   0  0  0  0  0  0  0  0  0  0  0  0
   59.3330   29.2980   51.3120 N   0  0  0  0  0  0  0  0  0  0  0  0
   58.1740   30.0310   50.7450 C   0  0  0  0  0  0  0  0  0  0  0  0
   58.4696   30.4640   49.7780 H   0  0  0  0  0  0  0  0  0  0  0  0
   57.3482   29.3131   50.6322 H   0  0  0  0  0  0  0  0  0  0  0  0
   57.6840   31.1660   51.6650 C   0  0  0  0  0  0  0  0  0  0  0  0
   58.4832   31.9174   51.7464 H   0  0  0  0  0  0  0  0  0  0  0  0
   56.7691   31.5762   51.2125 H   0  0  0  0  0  0  0  0  0  0  0  0
   57.3250   30.7070   53.0410 N   0  0  0  0  0  0  0  0  0  0  0  0
   55.8540   30.7850   53.2950 C   0  0  0  0  0  0  0  0  0  0  0  0
   55.6982   31.6028   54.0140 H   0  0  0  0  0  0  0  0  0  0  0  0
   55.3320   29.4470   53.9210 C   0  0  0  0  0  0  0  0  0  0  0  0
   56.1987   28.8595   54.2581 H   0  0  0  0  0  0  0  0  0  0  0  0
   54.6624   29.7188   54.7503 H   0  0  0  0  0  0  0  0  0  0  0  0
   54.5150   28.5900   52.9460 C   0  0  0  0  0  0  0  0  0  0  0  0
   55.1544   28.3087   52.0963 H   0  0  0  0  0  0  0  0  0  0  0  0
   54.1621   27.6984   53.4849 H   0  0  0  0  0  0  0  0  0  0  0  0
   53.2860   29.3490   52.4160 C   0  0  0  0  0  0  0  0  0  0  0  0
   52.9874   28.9033   51.4557 H   0  0  0  0  0  0  0  0  0  0  0  0
   52.4956   29.2618   53.1761 H   0  0  0  0  0  0  0  0  0  0  0  0
   53.5470   30.8520   52.1980 C   0  0  0  0  0  0  0  0  0  0  0  0
   53.0069   31.1797   51.2975 H   0  0  0  0  0  0  0  0  0  0  0  0
   53.1957   31.3917   53.0898 H   0  0  0  0  0  0  0  0  0  0  0  0
   55.0380   31.1530   52.0180 C   0  0  0  0  0  0  0  0  0  0  0  0
   55.4206   30.5682   51.1686 H   0  0  0  0  0  0  0  0  0  0  0  0
   55.1525   32.2315   51.8344 H   0  0  0  0  0  0  0  0  0  0  0  0
   57.9140   29.3830   53.3630 C   0  0  0  0  0  0  0  0  0  0  0  0
   57.9540   29.2631   54.4557 H   0  0  0  0  0  0  0  0  0  0  0  0
   57.2856   28.6006   52.9126 H   0  0  0  0  0  0  0  0  0  0  0  0
   59.3310   29.2600   52.7930 C   0  0  0  0  0  0  0  0  0  0  0  0
   59.9407   30.0937   53.1715 H   0  0  0  0  0  0  0  0  0  0  0  0
   59.7448   28.2917   53.1109 H   0  0  0  0  0  0  0  0  0  0  0  0
   57.3410   29.2270   45.3480 C   0  0  0  0  0  0  0  0  0  0  0  0
   56.1400   29.7470   44.8780 C   0  0  0  0  0  0  0  0  0  0  0  0
   55.0370   28.9910   44.5030 O   0  0  0  0  0  0  0  0  0  0  0  0
   56.1520   31.0990   44.8260 N   0  0  0  0  0  0  0  0  0  0  0  0
   57.3800   31.4380   45.2690 C   0  0  0  0  0  0  0  0  0  0  0  0
   57.8890   32.7320   45.4120 C   0  0  0  0  0  0  0  0  0  0  0  0
   57.0560   33.9360   45.0810 C   0  0  0  0  0  0  0  0  0  0  0  0
   56.7224   34.4182   46.0117 H   0  0  0  0  0  0  0  0  0  0  0  0
   57.6562   34.6471   44.4944 H   0  0  0  0  0  0  0  0  0  0  0  0
   56.1790   33.6251   44.4944 H   0  0  0  0  0  0  0  0  0  0  0  0
   59.1970   32.8680   45.9260 C   0  0  0  0  0  0  0  0  0  0  0  0
   59.6211   33.8733   46.0659 H   0  0  0  0  0  0  0  0  0  0  0  0
   59.9710   31.7340   46.2640 C   0  0  0  0  0  0  0  0  0  0  0  0
   61.2640   31.9390   46.7660 O   0  0  0  0  0  0  0  0  0  0  0  0
   61.7790   33.2030   47.1700 C   0  0  0  0  0  0  0  0  0  0  0  0
   61.8006   33.2560   48.2685 H   0  0  0  0  0  0  0  0  0  0  0  0
   62.7990   33.3260   46.7768 H   0  0  0  0  0  0  0  0  0  0  0  0
   61.1354   34.0038   46.7768 H   0  0  0  0  0  0  0  0  0  0  0  0
   59.4260   30.4390   46.0930 C   0  0  0  0  0  0  0  0  0  0  0  0
   60.0108   29.5421   46.3451 H   0  0  0  0  0  0  0  0  0  0  0  0
   58.1270   30.3310   45.5960 C   0  0  0  0  0  0  0  0  0  0  0  0
  1  2  1  0
  2  3  2  0
  3  4  1  0
  4  5  1  0
  4  6  1  0
  4  7  1  0
  7  8  1  0
  7  9  1  0
  7 10  1  0
 10 11  1  0
 10 12  1  0
 10 13  1  0
 13 14  1  0
 13 15  1  0
 13 16  1  0
 16 17  1  0
 16 18  1  0
 18 19  2  0
 18 20  1  0
 20 21  1  0
 20 22  1  0
 20 23  1  0
 23 24  1  0
 24 25  1  0
 24 26  1  0
 24 27  1  0
 27 28  1  0
 27 29  1  0
 27 30  1  0
 30 31  1  0
 31 32  1  0
 31 33  1  0
 33 34  1  0
 33 35  1  0
 33 36  1  0
 36 37  1  0
 36 38  1  0
 36 39  1  0
 39 40  1  0
 39 41  1  0
 39 42  1  0
 42 43  1  0
 42 44  1  0
 42 45  1  0
 45 46  1  0
 45 47  1  0
 30 48  1  0
 48 49  1  0
 48 50  1  0
 48 51  1  0
 51 52  1  0
 51 53  1  0
  2 54  1  0
 54 55  2  0
 55 56  1  0
 55 57  1  0
 57 58  1  0
 58 59  2  0
 59 60  1  0
 60 61  1  0
 60 62  1  0
 60 63  1  0
 59 64  1  0
 64 65  1  0
 64 66  2  0
 66 67  1  0
 67 68  1  0
 68 69  1  0
 68 70  1  0
 68 71  1  0
 66 72  1  0
 72 73  1  0
 72 74  2  0
 51 23  1  0
 74 54  1  0
 45 31  1  0
 74 58  1  0
M  CHG  2  56  -1  57  -1
M  END
>  <UniqueID>  (2) 
2

>  <SMILES>  (2) 
COc1cc(C)c2[n-]c([O-])c(/C=N/CCCCNC(=O)CN3CCN(C4CCCCC4)CC3)c2c1

>  <Energy>  (2) 
118.2926264244873

>  <Genealogy>  (2) 
COc1cc(C)c2[n-]c([O-])c(C=NCCCCNC(=O)CN3CCN(C4CCCCC4)CC3)c2c1 (protonated)
COc1cc(C)c2[n-]c([O-])c(/C=N/CCCCNC(=O)CN3CCN(C4CCCCC4)CC3)c2c1 (cis-trans isomerization)
COc1cc(C)c2[n-]c([O-])c(/C=N/CCCCNC(=O)CN3CCN(C4CCCCC4)CC3)c2c1 (3D coordinates assigned)
COc1cc(C)c2[n-]c([O-])c(/C=N/CCCCNC(=O)CN3CCN(C4CCCCC4)CC3)c2c1 (nonaromatic ring conformer: 118.2926264244873 kcal/mol)

>  <smiles>  (2) 
COc1cc(C)c2[nH]c(O)c(C=NCCCCNC(=O)CN3CCN(C4CCCCC4)CC3)c2c1

>  <score_type>  (2) 
oracle

>  <origin>  (2) 
adg

>  <m_score__min__energy>  (2) 
-15.619999999999999

>  <m_primary>  (2) 
energy

$$$$
2:0
     RDKit          3D

 45 47  0  0  0  0  0  0  0  0999 V2000
   60.1000   28.3780   45.7000 C   0  0  0  0  0  0  0  0  0  0  0  0
   58.6010   28.4330   45.5590 C   0  0  0  0  0  0  0  0  0  0  0  0
   58.0380   29.5720   45.0620 N   0  0  0  0  0  0  0  0  0  0  0  0
   56.6940   29.6920   44.9150 C   0  0  0  0  0  0  0  0  0  0  0  0
   56.1980   30.7620   44.4750 O   0  0  0  0  0  0  0  0  0  0  0  0
   55.8820   28.6590   45.2400 N   0  0  0  0  0  0  0  0  0  0  0  0
   56.3810   27.4910   45.7120 C   0  0  0  0  0  0  0  0  0  0  0  0
   55.5830   26.5580   45.9930 O   0  0  0  0  0  0  0  0  0  0  0  0
   57.7700   27.3310   45.8850 C   0  0  0  0  0  0  0  0  0  0  0  0
   58.4090   25.7820   46.5040 S   0  0  0  0  0  0  0  0  0  0  0  0
   58.9150   25.9450   47.9090 O   0  0  0  0  0  0  0  0  0  0  0  0
   59.5700   25.3690   45.6420 O   0  0  0  0  0  0  0  0  0  0  0  0
   57.1950   24.5240   46.4620 N   0  0  0  0  0  0  0  0  0  0  0  0
   56.3580   24.3090   47.6520 C   0  0  0  0  0  0  0  0  0  0  0  0
   56.1180   22.8430   47.9100 C   0  0  0  0  0  0  0  0  0  0  0  0
   57.0440   22.1240   48.3710 O   0  0  0  0  0  0  0  0  0  0  0  0
   54.8410   22.2420   47.6680 N   0  0  0  0  0  0  0  0  0  0  0  0
   54.3600   21.7870   46.3680 C   0  0  0  0  0  0  0  0  0  0  0  0
   53.0470   22.4230   46.0330 C   0  0  0  0  0  0  0  0  0  0  0  0
   51.9670   22.5500   46.8840 C   0  0  0  0  0  0  0  0  0  0  0  0
   51.0040   23.2190   46.1610 C   0  0  0  0  0  0  0  0  0  0  0  0
   51.5520   23.4520   44.9160 C   0  0  0  0  0  0  0  0  0  0  0  0
   52.7720   22.9680   44.8710 O   0  0  0  0  0  0  0  0  0  0  0  0
   57.0060   23.7250   45.2670 C   0  0  0  0  0  0  0  0  0  0  0  0
   57.8160   22.5960   45.0170 C   0  0  0  0  0  0  0  0  0  0  0  0
   57.6300   21.8270   43.8650 C   0  0  0  0  0  0  0  0  0  0  0  0
   56.6350   22.1640   42.9480 C   0  0  0  0  0  0  0  0  0  0  0  0
   55.8200   23.2730   43.1810 C   0  0  0  0  0  0  0  0  0  0  0  0
   56.0020   24.0480   44.3300 C   0  0  0  0  0  0  0  0  0  0  0  0
   60.3678   28.3682   46.7669 H   0  0  0  0  0  0  0  0  0  0  0  0
   60.4804   27.4653   45.2180 H   0  0  0  0  0  0  0  0  0  0  0  0
   60.5462   29.2604   45.2180 H   0  0  0  0  0  0  0  0  0  0  0  0
   58.6450   30.3800   44.7930 H   0  0  0  0  0  0  0  0  0  0  0  0
   56.8626   24.7465   48.5261 H   0  0  0  0  0  0  0  0  0  0  0  0
   55.3841   24.7893   47.4765 H   0  0  0  0  0  0  0  0  0  0  0  0
   55.0974   22.0550   45.5970 H   0  0  0  0  0  0  0  0  0  0  0  0
   54.2233   20.6962   46.4054 H   0  0  0  0  0  0  0  0  0  0  0  0
   51.8915   22.1921   47.9214 H   0  0  0  0  0  0  0  0  0  0  0  0
   50.0007   23.5090   46.5063 H   0  0  0  0  0  0  0  0  0  0  0  0
   51.0437   23.9656   44.0866 H   0  0  0  0  0  0  0  0  0  0  0  0
   58.6011   22.3190   45.7359 H   0  0  0  0  0  0  0  0  0  0  0  0
   58.2711   20.9523   43.6809 H   0  0  0  0  0  0  0  0  0  0  0  0
   56.4925   21.5566   42.0421 H   0  0  0  0  0  0  0  0  0  0  0  0
   55.0332   23.5375   42.4592 H   0  0  0  0  0  0  0  0  0  0  0  0
   55.3548   24.9199   44.5057 H   0  0  0  0  0  0  0  0  0  0  0  0
  1  2  1  0
  2  3  1  0
  3  4  1  0
  4  5  2  0
  4  6  1  0
  6  7  1  0
  7  8  2  0
  7  9  1  0
  9 10  1  0
 10 11  2  0
 10 12  2  0
 10 13  1  0
 13 14  1  0
 14 15  1  0
 15 16  2  0
 15 17  1  0
 17 18  1  0
 18 19  1  0
 19 20  2  0
 20 21  1  0
 21 22  2  0
 22 23  1  0
 13 24  1  0
 24 25  2  0
 25 26  1  0
 26 27  2  0
 27 28  1  0
 28 29  2  0
  9  2  2  0
 23 19  1  0
 29 24  1  0
  1 30  1  0
  1 31  1  0
  1 32  1  0
  3 33  1  0
 14 34  1  0
 14 35  1  0
 18 36  1  0
 18 37  1  0
 20 38  1  0
 21 39  1  0
 22 40  1  0
 25 41  1  0
 26 42  1  0
 27 43  1  0
 28 44  1  0
 29 45  1  0
M  CHG  2   6  -1  17  -1
M  END
>  <UniqueID>  (3) 
3

>  <SMILES>  (3) 
Cc1[nH]c(=O)[n-]c(=O)c1S(=O)(=O)N(CC(=O)[N-]Cc1ccco1)c1ccccc1

>  <Energy>  (3) 
76.7438390199928

>  <Genealogy>  (3) 
Cc1[nH]c(=O)[n-]c(=O)c1S(=O)(=O)N(CC(=O)[N-]Cc1ccco1)c1ccccc1 (protonated)
Cc1[nH]c(=O)[n-]c(=O)c1S(=O)(=O)N(CC(=O)[N-]Cc1ccco1)c1ccccc1 (3D coordinates assigned)
Cc1[nH]c(=O)[n-]c(=O)c1S(=O)(=O)N(CC(=O)[N-]Cc1ccco1)c1ccccc1 (optimized conformer: 76.7438390199928 kcal/mol)

>  <smiles>  (3) 
Cc1[nH]c(=O)[nH]c(=O)c1S(=O)(=O)N(CC(=O)NCc1ccco1)c1ccccc1

>  <score_type>  (3) 
oracle

>  <origin>  (3) 
adg

>  <m_score__min__energy>  (3) 
-11.74

>  <m_primary>  (3) 
energy

$$$$
3:0
     RDKit          3D

 64 68  0  0  0  0  0  0  0  0999 V2000
   59.6038   25.7996   47.4028 H   0  0  0  0  0  0  0  0  0  0  0  0
   58.7520   25.7070   46.7130 C   0  0  0  0  0  0  0  0  0  0  0  0
   57.8660   26.7290   46.5870 N   0  0  0  0  0  0  0  0  0  0  0  0
   56.8080   26.6400   45.7330 C   0  0  0  0  0  0  0  0  0  0  0  0
   55.9600   27.6180   45.5980 N   0  0  0  0  0  0  0  0  0  0  0  0
   56.1650   28.8430   44.8750 C   0  0  0  0  0  0  0  0  0  0  0  0
   55.2990   29.7600   44.8900 O   0  0  0  0  0  0  0  0  0  0  0  0
   57.3820   28.9790   44.0090 C   0  0  0  0  0  0  0  0  0  0  0  0
   57.5760   28.0175   43.5111 H   0  0  0  0  0  0  0  0  0  0  0  0
   57.1934   29.7710   43.2693 H   0  0  0  0  0  0  0  0  0  0  0  0
   58.5930   29.3650   44.8180 C   0  0  0  0  0  0  0  0  0  0  0  0
   59.7270   28.5400   44.8320 C   0  0  0  0  0  0  0  0  0  0  0  0
   59.7432   27.6198   44.2295 H   0  0  0  0  0  0  0  0  0  0  0  0
   60.8350   28.8830   45.6080 C   0  0  0  0  0  0  0  0  0  0  0  0
   61.7232   28.2341   45.6123 H   0  0  0  0  0  0  0  0  0  0  0  0
   60.8200   30.0470   46.3790 C   0  0  0  0  0  0  0  0  0  0  0  0
   61.6942   30.3058   46.9945 H   0  0  0  0  0  0  0  0  0  0  0  0
   59.6960   30.8900   46.3740 C   0  0  0  0  0  0  0  0  0  0  0  0
   59.6630   32.1180   47.2040 C   0  0  0  0  0  0  0  0  0  0  0  0
   58.5500   32.6550   47.4590 O   0  0  0  0  0  0  0  0  0  0  0  0
   60.8640   32.7000   47.7440 N   0  0  0  0  0  0  0  0  0  0  0  0
   62.0390   32.9250   46.8910 C   0  0  0  0  0  0  0  0  0  0  0  0
   62.0331   32.2065   46.0581 H   0  0  0  0  0  0  0  0  0  0  0  0
   62.0139   33.9474   46.4860 H   0  0  0  0  0  0  0  0  0  0  0  0
   63.3060   32.7310   47.7270 C   0  0  0  0  0  0  0  0  0  0  0  0
   63.3176   31.7020   48.1155 H   0  0  0  0  0  0  0  0  0  0  0  0
   64.1692   32.9280   47.0743 H   0  0  0  0  0  0  0  0  0  0  0  0
   63.3880   33.7200   48.9300 C   0  0  0  0  0  0  0  0  0  0  0  0
   63.9838   34.5868   48.6079 H   0  0  0  0  0  0  0  0  0  0  0  0
   64.0840   33.0950   50.0920 N   0  0  0  0  0  0  0  0  0  0  0  0
   63.7120   31.6850   50.2830 C   0  0  0  0  0  0  0  0  0  0  0  0
   62.7992   31.6129   50.8925 H   0  0  0  0  0  0  0  0  0  0  0  0
   63.5094   31.1949   49.3193 H   0  0  0  0  0  0  0  0  0  0  0  0
   64.8690   31.0240   50.9970 C   0  0  0  0  0  0  0  0  0  0  0  0
   64.7712   31.1360   52.0869 H   0  0  0  0  0  0  0  0  0  0  0  0
   64.9217   29.9420   50.8060 H   0  0  0  0  0  0  0  0  0  0  0  0
   66.0840   31.7640   50.4880 C   0  0  0  0  0  0  0  0  0  0  0  0
   66.7975   31.9414   51.3062 H   0  0  0  0  0  0  0  0  0  0  0  0
   66.6191   31.1906   49.7167 H   0  0  0  0  0  0  0  0  0  0  0  0
   65.5540   33.0870   49.9460 C   0  0  0  0  0  0  0  0  0  0  0  0
   65.9884   33.9223   50.5148 H   0  0  0  0  0  0  0  0  0  0  0  0
   65.8294   33.1992   48.8869 H   0  0  0  0  0  0  0  0  0  0  0  0
   61.9770   34.2490   49.3320 C   0  0  0  0  0  0  0  0  0  0  0  0
   61.9985   34.5289   50.3956 H   0  0  0  0  0  0  0  0  0  0  0  0
   61.7529   35.1085   48.6831 H   0  0  0  0  0  0  0  0  0  0  0  0
   60.8620   33.2160   49.1220 C   0  0  0  0  0  0  0  0  0  0  0  0
   61.0138   32.3783   49.8186 H   0  0  0  0  0  0  0  0  0  0  0  0
   59.8950   33.7062   49.3078 H   0  0  0  0  0  0  0  0  0  0  0  0
   58.5770   30.5310   45.6020 C   0  0  0  0  0  0  0  0  0  0  0  0
   57.6808   31.1688   45.6119 H   0  0  0  0  0  0  0  0  0  0  0  0
   56.6330   25.5090   45.0000 N   0  0  0  0  0  0  0  0  0  0  0  0
   57.4890   24.4540   45.0940 C   0  0  0  0  0  0  0  0  0  0  0  0
   57.2530   23.2660   44.3140 N   0  0  0  0  0  0  0  0  0  0  0  0
   56.0780   22.9460   43.5930 C   0  0  0  0  0  0  0  0  0  0  0  0
   55.0710   23.6990   43.5100 O   0  0  0  0  0  0  0  0  0  0  0  0
   56.1450   21.7080   42.9980 O   0  0  0  0  0  0  0  0  0  0  0  0
   57.4000   21.1050   43.2930 C   0  0  0  0  0  0  0  0  0  0  0  0
   57.9594   20.9100   42.3662 H   0  0  0  0  0  0  0  0  0  0  0  0
   57.2767   20.1388   43.8041 H   0  0  0  0  0  0  0  0  0  0  0  0
   58.1570   22.1270   44.1760 C   0  0  0  0  0  0  0  0  0  0  0  0
   59.0939   22.4362   43.6896 H   0  0  0  0  0  0  0  0  0  0  0  0
   58.4294   21.7006   45.1527 H   0  0  0  0  0  0  0  0  0  0  0  0
   58.5820   24.5420   45.9690 C   0  0  0  0  0  0  0  0  0  0  0  0
   59.2913   23.7068   46.0656 H   0  0  0  0  0  0  0  0  0  0  0  0
  1  2  1  0
  2  3  1  0
  3  4  1  0
  4  5  2  0
  5  6  1  0
  6  7  2  0
  6  8  1  0
  8  9  1  0
  8 10  1  0
  8 11  1  0
 11 12  2  0
 12 13  1  0
 12 14  1  0
 14 15  1  0
 14 16  2  0
 16 17  1  0
 16 18  1  0
 18 19  1  0
 19 20  2  0
 19 21  1  0
 21 22  1  0
 22 23  1  0
 22 24  1  0
 22 25  1  0
 25 26  1  0
 25 27  1  0
 25 28  1  0
 28 29  1  0
 28 30  1  0
 30 31  1  0
 31 32  1  0
 31 33  1  0
 31 34  1  0
 34 35  1  0
 34 36  1  0
 34 37  1  0
 37 38  1  0
 37 39  1  0
 37 40  1  0
 40 41  1  0
 40 42  1  0
 28 43  1  0
 43 44  1  0
 43 45  1  0
 43 46  1  0
 46 47  1  0
 46 48  1  0
 18 49  2  0
 49 50  1  0
  4 51  1  0
 51 52  2  0
 52 53  1  0
 53 54  1  0
 54 55  2  0
 54 56  1  0
 56 57  1  0
 57 58  1  0
 57 59  1  0
 57 60  1  0
 60 61  1  0
 60 62  1  0
 52 63  1  0
 63 64  1  0
 63  2  2  0
 49 11  1  0
 60 53  1  0
 46 21  1  0
 40 30  1  0
M  CHG  1   3  -1
M  END
>  <UniqueID>  (4) 
4

>  <SMILES>  (4) 
O=C(Cc1cccc(C(=O)N2CCC(N3CCCC3)CC2)c1)/N=c1/nc(N2CCOC2=O)cc[n-]1

>  <Energy>  (4) 
99.21107860940938

>  <Genealogy>  (4) 
O=C(Cc1cccc(C(=O)N2CCC(N3CCCC3)CC2)c1)N=c1nc(N2CCOC2=O)cc[n-]1 (protonated)
O=C(Cc1cccc(C(=O)N2CCC(N3CCCC3)CC2)c1)/N=c1/nc(N2CCOC2=O)cc[n-]1 (cis-trans isomerization)
O=C(Cc1cccc(C(=O)N2CCC(N3CCCC3)CC2)c1)/N=c1/nc(N2CCOC2=O)cc[n-]1 (3D coordinates assigned)
O=C(Cc1cccc(C(=O)N2CCC(N3CCCC3)CC2)c1)/N=c1/nc(N2CCOC2=O)cc[n-]1 (nonaromatic ring conformer: 99.21107860940938 kcal/mol)

>  <smiles>  (4) 
O=C(Cc1cccc(C(=O)N2CCC(N3CCCC3)CC2)c1)N=c1nc(N2CCOC2=O)cc[nH]1

>  <score_type>  (4) 
oracle

>  <origin>  (4) 
adg

>  <m_score__min__energy>  (4) 
-12.09

>  <m_primary>  (4) 
energy

$$$$
4:0
     RDKit          3D

 58 61  0  0  0  0  0  0  0  0999 V2000
   55.3510   23.3980   47.4470 C   0  0  0  0  0  0  0  0  0  0  0  0
   56.3660   23.7150   46.6350 C   0  0  0  0  0  0  0  0  0  0  0  0
   57.2770   22.7550   46.3210 N   0  0  0  0  0  0  0  0  0  0  0  0
   58.3330   23.0180   45.5090 C   0  0  0  0  0  0  0  0  0  0  0  0
   59.2960   21.9340   45.1580 C   0  0  0  0  0  0  0  0  0  0  0  0
   58.4790   24.2530   44.9700 N   0  0  0  0  0  0  0  0  0  0  0  0
   57.6040   25.2620   45.2330 C   0  0  0  0  0  0  0  0  0  0  0  0
   57.8070   26.4820   44.6950 C   0  0  0  0  0  0  0  0  0  0  0  0
   58.3330   27.6380   45.4550 C   0  0  0  0  0  0  0  0  0  0  0  0
   59.1040   28.5990   44.7950 C   0  0  0  0  0  0  0  0  0  0  0  0
   59.5960   29.7110   45.4840 C   0  0  0  0  0  0  0  0  0  0  0  0
   59.3450   29.8880   46.8650 C   0  0  0  0  0  0  0  0  0  0  0  0
   59.7850   31.0900   47.5710 N   0  0  0  0  0  0  0  0  0  0  0  0
   61.1870   31.5370   47.4040 C   0  0  0  0  0  0  0  0  0  0  0  0
   61.5310   32.8630   48.0960 C   0  0  0  0  0  0  0  0  0  0  0  0
   60.3950   33.8010   48.1240 N   0  0  0  0  0  0  0  0  0  0  0  0
   59.9420   34.2120   46.8000 C   0  0  0  0  0  0  0  0  0  0  0  0
   60.7520   34.7510   45.9940 O   0  0  0  0  0  0  0  0  0  0  0  0
   58.5930   33.8500   46.3040 C   0  0  0  0  0  0  0  0  0  0  0  0
   58.2190   33.8860   45.0170 C   0  0  0  0  0  0  0  0  0  0  0  0
   57.7380   32.7250   44.2340 C   0  0  0  0  0  0  0  0  0  0  0  0
   57.0160   31.7100   44.8820 C   0  0  0  0  0  0  0  0  0  0  0  0
   56.5180   30.6240   44.1560 C   0  0  0  0  0  0  0  0  0  0  0  0
   56.7180   30.5520   42.7740 C   0  0  0  0  0  0  0  0  0  0  0  0
   57.4100   31.5710   42.1160 C   0  0  0  0  0  0  0  0  0  0  0  0
   57.9100   32.6580   42.8400 C   0  0  0  0  0  0  0  0  0  0  0  0
   59.3280   33.1880   48.9340 C   0  0  0  0  0  0  0  0  0  0  0  0
   58.7810   31.8970   48.3010 C   0  0  0  0  0  0  0  0  0  0  0  0
   58.6170   28.8710   47.5300 C   0  0  0  0  0  0  0  0  0  0  0  0
   58.1200   27.7660   46.8350 C   0  0  0  0  0  0  0  0  0  0  0  0
   56.5140   25.0100   46.0950 C   0  0  0  0  0  0  0  0  0  0  0  0
   55.6840   25.9220   46.3760 O   0  0  0  0  0  0  0  0  0  0  0  0
   54.6025   24.1584   47.7144 H   0  0  0  0  0  0  0  0  0  0  0  0
   55.2650   22.3770   47.8471 H   0  0  0  0  0  0  0  0  0  0  0  0
   59.6947   21.4852   46.0797 H   0  0  0  0  0  0  0  0  0  0  0  0
   58.7802   21.1623   44.5677 H   0  0  0  0  0  0  0  0  0  0  0  0
   60.1231   22.3553   44.5677 H   0  0  0  0  0  0  0  0  0  0  0  0
   57.5681   26.6260   43.6310 H   0  0  0  0  0  0  0  0  0  0  0  0
   59.3254   28.4791   43.7242 H   0  0  0  0  0  0  0  0  0  0  0  0
   60.1894   30.4625   44.9425 H   0  0  0  0  0  0  0  0  0  0  0  0
   61.8452   30.7570   47.8143 H   0  0  0  0  0  0  0  0  0  0  0  0
   61.3299   31.7060   46.3265 H   0  0  0  0  0  0  0  0  0  0  0  0
   61.8377   32.6507   49.1308 H   0  0  0  0  0  0  0  0  0  0  0  0
   62.3399   33.3377   47.5213 H   0  0  0  0  0  0  0  0  0  0  0  0
   60.7100   34.6680   48.6230 H   0  0  0  0  0  0  0  0  0  0  0  0
   57.8456   33.5290   47.0445 H   0  0  0  0  0  0  0  0  0  0  0  0
   58.2739   34.8561   44.5013 H   0  0  0  0  0  0  0  0  0  0  0  0
   56.8413   31.7696   45.9664 H   0  0  0  0  0  0  0  0  0  0  0  0
   55.9675   29.8243   44.6732 H   0  0  0  0  0  0  0  0  0  0  0  0
   56.3306   29.6936   42.2056 H   0  0  0  0  0  0  0  0  0  0  0  0
   57.5619   31.5186   41.0278 H   0  0  0  0  0  0  0  0  0  0  0  0
   58.4413   33.4659   42.3156 H   0  0  0  0  0  0  0  0  0  0  0  0
   59.7320   32.9501   49.9291 H   0  0  0  0  0  0  0  0  0  0  0  0
   58.4990   33.9082   48.9978 H   0  0  0  0  0  0  0  0  0  0  0  0
   58.3594   31.2742   49.1037 H   0  0  0  0  0  0  0  0  0  0  0  0
   58.0340   32.2094   47.5565 H   0  0  0  0  0  0  0  0  0  0  0  0
   58.4400   28.9529   48.6126 H   0  0  0  0  0  0  0  0  0  0  0  0
   57.5571   26.9901   47.3745 H   0  0  0  0  0  0  0  0  0  0  0  0
  1  2  2  0
  2  3  1  0
  3  4  1  0
  4  5  1  0
  4  6  2  0
  6  7  1  0
  7  8  2  3
  8  9  1  0
  9 10  2  0
 10 11  1  0
 11 12  2  0
 12 13  1  0
 13 14  1  0
 14 15  1  0
 15 16  1  0
 16 17  1  0
 17 18  2  0
 17 19  1  0
 19 20  2  3
 20 21  1  0
 21 22  2  0
 22 23  1  0
 23 24  2  0
 24 25  1  0
 25 26  2  0
 16 27  1  0
 27 28  1  0
 12 29  1  0
 29 30  2  0
  7 31  1  0
 31 32  2  0
 31  2  1  0
 30  9  1  0
 28 13  1  0
 26 21  1  0
  1 33  1  0
  1 34  1  0
  5 35  1  0
  5 36  1  0
  5 37  1  0
  8 38  1  0
 10 39  1  0
 11 40  1  0
 14 41  1  0
 14 42  1  0
 15 43  1  0
 15 44  1  0
 16 45  1  0
 19 46  1  0
 20 47  1  0
 22 48  1  0
 23 49  1  0
 24 50  1  0
 25 51  1  0
 26 52  1  0
 27 53  1  0
 27 54  1  0
 28 55  1  0
 28 56  1  0
 29 57  1  0
 30 58  1  0
M  CHG  2   3  -1  16   1
M  END
>  <UniqueID>  (5) 
5

>  <SMILES>  (5) 
C=c1[n-]c(C)nc(=Cc2ccc(N3CC[NH+](C(=O)C=Cc4ccccc4)CC3)cc2)c1=O

>  <Energy>  (5) 
89.56927907967174

>  <Genealogy>  (5) 
C=c1[n-]c(C)nc(=Cc2ccc(N3CC[NH+](C(=O)C=Cc4ccccc4)CC3)cc2)c1=O (protonated)
C=c1[n-]c(C)nc(=Cc2ccc(N3CC[NH+](C(=O)C=Cc4ccccc4)CC3)cc2)c1=O (3D coordinates assigned)
C=c1[n-]c(C)nc(=Cc2ccc(N3CC[NH+](C(=O)C=Cc4ccccc4)CC3)cc2)c1=O (nonaromatic ring conformer: 89.56927907967174 kcal/mol)

>  <smiles>  (5) 
C=c1[nH]c(C)nc(=Cc2ccc(N3CCN(C(=O)C=Cc4ccccc4)CC3)cc2)c1=O

>  <score_type>  (5) 
oracle

>  <origin>  (5) 
adg

>  <m_score__min__energy>  (5) 
-9.5299999999999994

>  <m_primary>  (5) 
energy

$$$$
5:0
     RDKit          3D

 36 38  0  0  0  0  0  0  0  0999 V2000
   59.9260   26.8420   45.1910 H   0  0  0  0  0  0  0  0  0  0  0  0
   59.5150   26.0170   45.6120 O   0  0  0  0  0  0  0  0  0  0  0  0
   58.1430   25.7900   45.5590 C   0  0  0  0  0  0  0  0  0  0  0  0
   57.5310   24.6180   45.1500 C   0  0  0  0  0  0  0  0  0  0  0  0
   56.1780   24.8230   45.2620 C   0  0  0  0  0  0  0  0  0  0  0  0
   56.0120   26.1090   45.7340 C   0  0  0  0  0  0  0  0  0  0  0  0
   54.7900   26.7150   46.0020 O   0  0  0  0  0  0  0  0  0  0  0  0
   57.2120   26.7030   45.9120 N   0  0  0  0  0  0  0  0  0  0  0  0
   57.4590   28.0500   46.4310 C   0  0  0  0  0  0  0  0  0  0  0  0
   58.3034   28.0139   47.1350 H   0  0  0  0  0  0  0  0  0  0  0  0
   56.5471   28.4009   46.9363 H   0  0  0  0  0  0  0  0  0  0  0  0
   57.7940   29.0300   45.2970 C   0  0  0  0  0  0  0  0  0  0  0  0
   58.2003   28.4618   44.4472 H   0  0  0  0  0  0  0  0  0  0  0  0
   58.5263   29.7539   45.6839 H   0  0  0  0  0  0  0  0  0  0  0  0
   56.5870   29.8010   44.8310 C   0  0  0  0  0  0  0  0  0  0  0  0
   55.4660   29.2280   44.8500 O   0  0  0  0  0  0  0  0  0  0  0  0
   56.6310   31.1970   44.4890 N   0  0  0  0  0  0  0  0  0  0  0  0
   57.3750   32.1390   44.9910 C   0  0  0  0  0  0  0  0  0  0  0  0
   57.4130   32.3840   46.3190 N   0  0  0  0  0  0  0  0  0  0  0  0
   58.1890   33.4170   46.6440 N   0  0  0  0  0  0  0  0  0  0  0  0
   58.7780   34.0010   45.5780 C   0  0  0  0  0  0  0  0  0  0  0  0
   59.6330   35.2180   45.6700 C   0  0  0  0  0  0  0  0  0  0  0  0
   59.8066   35.4651   46.7277 H   0  0  0  0  0  0  0  0  0  0  0  0
   60.5967   35.0273   45.1751 H   0  0  0  0  0  0  0  0  0  0  0  0
   59.1269   36.0600   45.1751 H   0  0  0  0  0  0  0  0  0  0  0  0
   58.3180   33.2540   44.1390 S   0  0  0  0  0  0  0  0  0  0  0  0
   55.1420   23.7950   44.9400 C   0  0  0  0  0  0  0  0  0  0  0  0
   54.4707   24.1954   44.1660 H   0  0  0  0  0  0  0  0  0  0  0  0
   54.5875   23.5659   45.8620 H   0  0  0  0  0  0  0  0  0  0  0  0
   55.7670   22.5100   44.4320 C   0  0  0  0  0  0  0  0  0  0  0  0
   55.0942   21.6916   44.1361 H   0  0  0  0  0  0  0  0  0  0  0  0
   57.0980   22.3070   44.3200 C   0  0  0  0  0  0  0  0  0  0  0  0
   57.4413   21.3336   43.9398 H   0  0  0  0  0  0  0  0  0  0  0  0
   58.1480   23.3380   44.6860 C   0  0  0  0  0  0  0  0  0  0  0  0
   58.7697   23.5424   43.8019 H   0  0  0  0  0  0  0  0  0  0  0  0
   58.7534   22.9319   45.5097 H   0  0  0  0  0  0  0  0  0  0  0  0
  1  2  1  0
  2  3  1  0
  3  4  2  0
  4  5  1  0
  5  6  2  0
  6  7  1  0
  6  8  1  0
  8  9  1  0
  9 10  1  0
  9 11  1  0
  9 12  1  0
 12 13  1  0
 12 14  1  0
 12 15  1  0
 15 16  2  0
 15 17  1  0
 17 18  2  0
 18 19  1  0
 19 20  1  0
 20 21  2  0
 21 22  1  0
 22 23  1  0
 22 24  1  0
 22 25  1  0
 21 26  1  0
  5 27  1  0
 27 28  1  0
 27 29  1  0
 27 30  1  0
 30 31  1  0
 30 32  2  0
 32 33  1  0
 32 34  1  0
 34 35  1  0
 34 36  1  0
  8  3  1  0
 26 18  1  0
 34  4  1  0
M  CHG  2   7  -1  19  -1
M  END
>  <UniqueID>  (6) 
6

>  <SMILES>  (6) 
Cc1n[n-]/c(=N/C(=O)CCn2c([O-])c3c(c2O)CC=CC3)s1

>  <Energy>  (6) 
105.5554970712877

>  <Genealogy>  (6) 
Cc1n[n-]c(=NC(=O)CCn2c([O-])c3c(c2O)CC=CC3)s1 (protonated)
Cc1n[n-]/c(=N/C(=O)CCn2c([O-])c3c(c2O)CC=CC3)s1 (cis-trans isomerization)
Cc1n[n-]/c(=N/C(=O)CCn2c([O-])c3c(c2O)CC=CC3)s1 (3D coordinates assigned)
Cc1n[n-]/c(=N/C(=O)CCn2c([O-])c3c(c2O)CC=CC3)s1 (nonaromatic ring conformer: 105.5554970712877 kcal/mol)

>  <smiles>  (6) 
Cc1n[nH]c(=NC(=O)CCn2c(O)c3c(c2O)CC=CC3)s1

>  <score_type>  (6) 
oracle

>  <origin>  (6) 
adg

>  <m_score__min__energy>  (6) 
-12.6

>  <m_primary>  (6) 
energy

$$$$
6:0
     RDKit          3D

 50 52  0  0  0  0  0  0  0  0999 V2000
   56.9220   20.4020   45.4260 C   0  0  0  0  0  0  0  0  0  0  0  0
   57.6690   21.0760   44.3500 N   0  0  2  0  0  0  0  0  0  0  0  0
   58.7720   21.9080   44.8610 C   0  0  0  0  0  0  0  0  0  0  0  0
   58.2720   23.1040   45.6790 C   0  0  0  0  0  0  0  0  0  0  0  0
   57.1780   23.8270   45.0130 N   0  0  0  0  0  0  0  0  0  0  0  0
   56.7600   25.0900   45.5800 C   0  0  0  0  0  0  0  0  0  0  0  0
   55.5840   25.2120   46.0200 O   0  0  0  0  0  0  0  0  0  0  0  0
   57.7010   26.2770   45.6290 C   0  0  0  0  0  0  0  0  0  0  0  0
   57.4200   27.3350   44.5470 C   0  0  0  0  0  0  0  0  0  0  0  0
   57.7620   28.7010   45.0020 N   0  0  0  0  0  0  0  0  0  0  0  0
   57.0460   29.7400   44.2190 C   0  0  0  0  0  0  0  0  0  0  0  0
   57.7690   31.1070   44.1620 C   0  0  0  0  0  0  0  0  0  0  0  0
   58.6880   31.2960   45.2940 N   0  0  0  0  0  0  0  0  0  0  0  0
   58.8960   32.5980   45.8810 C   0  0  0  0  0  0  0  0  0  0  0  0
   59.0740   33.7440   45.0840 C   0  0  0  0  0  0  0  0  0  0  0  0
   59.2840   34.9830   45.6950 C   0  0  0  0  0  0  0  0  0  0  0  0
   59.3230   35.0730   47.0870 C   0  0  0  0  0  0  0  0  0  0  0  0
   59.1570   33.9180   47.8510 C   0  0  0  0  0  0  0  0  0  0  0  0
   58.9530   32.7210   47.2380 N   0  0  0  0  0  0  0  0  0  0  0  0
   59.5490   30.1890   45.7300 C   0  0  0  0  0  0  0  0  0  0  0  0
   59.2190   28.9050   44.9730 C   0  0  0  0  0  0  0  0  0  0  0  0
   56.5470   23.3320   43.7760 C   0  0  0  0  0  0  0  0  0  0  0  0
   56.7720   21.8590   43.5330 C   0  0  0  0  0  0  0  0  0  0  0  0
   56.1610   21.3180   42.6230 O   0  0  0  0  0  0  0  0  0  0  0  0
   57.2985   20.7417   46.4021 H   0  0  0  0  0  0  0  0  0  0  0  0
   55.8532   20.6473   45.3397 H   0  0  0  0  0  0  0  0  0  0  0  0
   57.0565   19.3137   45.3397 H   0  0  0  0  0  0  0  0  0  0  0  0
   58.1000   20.3330   43.7480 H   0  0  0  0  0  0  0  0  0  0  0  0
   59.4157   21.2868   45.5010 H   0  0  0  0  0  0  0  0  0  0  0  0
   59.3240   22.3017   43.9948 H   0  0  0  0  0  0  0  0  0  0  0  0
   57.9121   22.7393   46.6524 H   0  0  0  0  0  0  0  0  0  0  0  0
   59.1127   23.8040   45.7937 H   0  0  0  0  0  0  0  0  0  0  0  0
   57.6058   26.7551   46.6151 H   0  0  0  0  0  0  0  0  0  0  0  0
   58.7146   25.8912   45.4455 H   0  0  0  0  0  0  0  0  0  0  0  0
   58.0187   27.0979   43.6552 H   0  0  0  0  0  0  0  0  0  0  0  0
   56.3434   27.3123   44.3226 H   0  0  0  0  0  0  0  0  0  0  0  0
   56.9237   29.3720   43.1896 H   0  0  0  0  0  0  0  0  0  0  0  0
   56.0867   29.9126   44.7288 H   0  0  0  0  0  0  0  0  0  0  0  0
   58.3434   31.1654   43.2257 H   0  0  0  0  0  0  0  0  0  0  0  0
   57.0043   31.8962   44.2120 H   0  0  0  0  0  0  0  0  0  0  0  0
   59.0480   33.6650   43.9871 H   0  0  0  0  0  0  0  0  0  0  0  0
   59.4182   35.8852   45.0802 H   0  0  0  0  0  0  0  0  0  0  0  0
   59.4830   36.0449   47.5767 H   0  0  0  0  0  0  0  0  0  0  0  0
   59.1910   33.9751   48.9490 H   0  0  0  0  0  0  0  0  0  0  0  0
   60.5996   30.4561   45.5435 H   0  0  0  0  0  0  0  0  0  0  0  0
   59.3788   30.0156   46.8028 H   0  0  0  0  0  0  0  0  0  0  0  0
   59.5599   28.9919   43.9308 H   0  0  0  0  0  0  0  0  0  0  0  0
   59.7264   28.0508   45.4452 H   0  0  0  0  0  0  0  0  0  0  0  0
   55.4639   23.5127   43.8412 H   0  0  0  0  0  0  0  0  0  0  0  0
   57.0104   23.8727   42.9376 H   0  0  0  0  0  0  0  0  0  0  0  0
  1  2  1  0
  2  3  1  0
  3  4  1  0
  4  5  1  0
  5  6  1  0
  6  7  2  0
  6  8  1  0
  8  9  1  0
  9 10  1  0
 10 11  1  0
 11 12  1  0
 12 13  1  0
 13 14  1  0
 14 15  2  0
 15 16  1  0
 16 17  2  0
 17 18  1  0
 18 19  2  0
 13 20  1  0
 20 21  1  0
  5 22  1  0
 22 23  1  0
 23 24  2  0
 23  2  1  0
 21 10  1  0
 19 14  1  0
  1 25  1  0
  1 26  1  0
  1 27  1  0
  2 28  1  6
  3 29  1  0
  3 30  1  0
  4 31  1  0
  4 32  1  0
  8 33  1  0
  8 34  1  0
  9 35  1  0
  9 36  1  0
 11 37  1  0
 11 38  1  0
 12 39  1  0
 12 40  1  0
 15 41  1  0
 16 42  1  0
 17 43  1  0
 18 44  1  0
 20 45  1  0
 20 46  1  0
 21 47  1  0
 21 48  1  0
 22 49  1  0
 22 50  1  0
M  CHG  1   2   1
M  END
>  <UniqueID>  (7) 
7

>  <SMILES>  (7) 
C[N@@H+]1CCN(C(=O)CCN2CCN(c3ccccn3)CC2)CC1=O

>  <Energy>  (7) 
62.38540841731804

>  <Genealogy>  (7) 
C[NH+]1CCN(C(=O)CCN2CCN(c3ccccn3)CC2)CC1=O (protonated)
C[N@@H+]1CCN(C(=O)CCN2CCN(c3ccccn3)CC2)CC1=O (chirality)
C[N@@H+]1CCN(C(=O)CCN2CCN(c3ccccn3)CC2)CC1=O (3D coordinates assigned)
C[N@@H+]1CCN(C(=O)CCN2CCN(c3ccccn3)CC2)CC1=O (nonaromatic ring conformer: 62.38540841731804 kcal/mol)

>  <smiles>  (7) 
CN1CCN(C(=O)CCN2CCN(c3ccccn3)CC2)CC1=O

>  <score_type>  (7) 
oracle

>  <origin>  (7) 
adg

>  <m_score__min__energy>  (7) 
-7.0700000000000003

>  <m_primary>  (7) 
energy

$$$$
7:0
     RDKit          3D

 31 33  0  0  0  0  0  0  0  0999 V2000
   56.5990   28.4020   45.3990 O   0  0  0  0  0  0  0  0  0  0  0  0
   57.3760   27.6850   46.0850 C   0  0  0  0  0  0  0  0  0  0  0  0
   57.0040   26.2930   46.3920 C   0  0  0  0  0  0  0  0  0  0  0  0
   57.8400   25.3870   46.9320 N   0  0  0  0  0  0  0  0  0  0  0  0
   57.0690   24.2860   47.0560 C   0  0  0  0  0  0  0  0  0  0  0  0
   57.5050   23.2040   47.5290 O   0  0  0  0  0  0  0  0  0  0  0  0
   55.7950   24.4340   46.6360 N   0  0  0  0  0  0  0  0  0  0  0  0
   55.7690   25.7120   46.2220 C   0  0  0  0  0  0  0  0  0  0  0  0
   54.6410   26.3340   45.6940 O   0  0  0  0  0  0  0  0  0  0  0  0
   58.6130   28.2790   46.6120 C   0  0  0  0  0  0  0  0  0  0  0  0
   59.2860   27.8720   48.0970 S   0  0  0  0  0  0  0  0  0  0  0  0
   60.5620   28.9640   48.0380 C   0  0  0  0  0  0  0  0  0  0  0  0
   60.4620   29.6840   46.8560 C   0  0  0  0  0  0  0  0  0  0  0  0
   59.3740   29.3110   46.0490 C   0  0  0  0  0  0  0  0  0  0  0  0
   59.0030   30.0790   44.8060 C   0  0  0  0  0  0  0  0  0  0  0  0
   58.4270   31.4220   45.1690 C   0  0  0  0  0  0  0  0  0  0  0  0
   58.0690   32.3310   44.1600 C   0  0  0  0  0  0  0  0  0  0  0  0
   57.5580   33.5900   44.4940 C   0  0  0  0  0  0  0  0  0  0  0  0
   57.4040   33.9500   45.8350 C   0  0  0  0  0  0  0  0  0  0  0  0
   57.7600   33.0520   46.8450 C   0  0  0  0  0  0  0  0  0  0  0  0
   58.2700   31.7920   46.5160 C   0  0  0  0  0  0  0  0  0  0  0  0
   54.7350   27.0890   45.0270 H   0  0  0  0  0  0  0  0  0  0  0  0
   61.3418   29.0868   48.8040 H   0  0  0  0  0  0  0  0  0  0  0  0
   61.1715   30.4764   46.5757 H   0  0  0  0  0  0  0  0  0  0  0  0
   59.9018   30.2253   44.1889 H   0  0  0  0  0  0  0  0  0  0  0  0
   58.2481   29.5073   44.2463 H   0  0  0  0  0  0  0  0  0  0  0  0
   58.1908   32.0521   43.1030 H   0  0  0  0  0  0  0  0  0  0  0  0
   57.2772   34.2972   43.6997 H   0  0  0  0  0  0  0  0  0  0  0  0
   57.0025   34.9403   46.0960 H   0  0  0  0  0  0  0  0  0  0  0  0
   57.6388   33.3367   47.9006 H   0  0  0  0  0  0  0  0  0  0  0  0
   58.5492   31.0882   47.3139 H   0  0  0  0  0  0  0  0  0  0  0  0
  1  2  2  0
  2  3  1  0
  3  4  1  0
  4  5  1  0
  5  6  2  0
  5  7  1  0
  7  8  1  0
  8  9  1  0
  2 10  1  0
 10 11  1  0
 11 12  1  0
 12 13  2  0
 13 14  1  0
 14 15  1  0
 15 16  1  0
 16 17  2  0
 17 18  1  0
 18 19  2  0
 19 20  1  0
 20 21  2  0
  8  3  2  0
 14 10  2  0
 21 16  1  0
  9 22  1  0
 12 23  1  0
 13 24  1  0
 15 25  1  0
 15 26  1  0
 17 27  1  0
 18 28  1  0
 19 29  1  0
 20 30  1  0
 21 31  1  0
M  CHG  2   4  -1   7  -1
M  END
>  <UniqueID>  (8) 
8

>  <SMILES>  (8) 
O=C(c1[n-]c(=O)[n-]c1O)c1sccc1Cc1ccccc1

>  <Energy>  (8) 
90.8484050166566

>  <Genealogy>  (8) 
O=C(c1[n-]c(=O)[n-]c1O)c1sccc1Cc1ccccc1 (protonated)
O=C(c1[n-]c(=O)[n-]c1O)c1sccc1Cc1ccccc1 (3D coordinates assigned)
O=C(c1[n-]c(=O)[n-]c1O)c1sccc1Cc1ccccc1 (optimized conformer: 90.8484050166566 kcal/mol)

>  <smiles>  (8) 
O=C(c1[nH]c(=O)[nH]c1O)c1sccc1Cc1ccccc1

>  <score_type>  (8) 
oracle

>  <origin>  (8) 
adg

>  <m_score__min__energy>  (8) 
-11.699999999999999

>  <m_primary>  (8) 
energy

$$$$
8:0
     RDKit          3D

 68 73  0  0  0  0  0  0  0  0999 V2000
   57.5460   25.3560   47.1140 C   0  0  0  0  0  0  0  0  0  0  0  0
   58.7130   26.2220   46.6570 C   0  0  0  0  0  0  0  0  0  0  0  0
   58.2280   27.5690   46.2070 C   0  0  0  0  0  0  0  0  0  0  0  0
   57.0540   27.7220   45.5300 N   0  0  0  0  0  0  0  0  0  0  0  0
   57.0370   29.0390   45.2620 C   0  0  0  0  0  0  0  0  0  0  0  0
   56.0770   29.7910   44.5990 C   0  0  0  0  0  0  0  0  0  0  0  0
   55.0300   29.2630   44.1430 O   0  0  0  0  0  0  0  0  0  0  0  0
   56.3020   31.1300   44.4560 N   0  0  0  0  0  0  0  0  0  0  0  0
   57.4440   31.7170   44.9420 C   0  0  0  0  0  0  0  0  0  0  0  0
   57.6410   33.1900   44.8040 C   0  0  0  0  0  0  0  0  0  0  0  0
   58.3790   30.9670   45.6010 N   0  0  0  0  0  0  0  0  0  0  0  0
   58.1480   29.6390   45.7440 C   0  0  0  0  0  0  0  0  0  0  0  0
   58.9310   28.7320   46.3450 N   0  0  0  0  0  0  0  0  0  0  0  0
   60.2010   28.9720   47.0350 C   0  0  0  0  0  0  0  0  0  0  0  0
   59.9550   29.4900   48.4290 C   0  0  0  0  0  0  0  0  0  0  0  0
   58.8660   30.3340   48.6960 C   0  0  0  0  0  0  0  0  0  0  0  0
   58.6520   30.8250   49.9870 C   0  0  0  0  0  0  0  0  0  0  0  0
   59.5170   30.4700   51.0340 C   0  0  0  0  0  0  0  0  0  0  0  0
   59.2730   30.9710   52.4080 C   0  0  0  0  0  0  0  0  0  0  0  0
   58.0440   30.6720   53.0240 C   0  0  0  0  0  0  0  0  0  0  0  0
   57.7390   31.1820   54.2860 C   0  0  0  0  0  0  0  0  0  0  0  0
   58.6520   32.0010   54.9500 C   0  0  0  0  0  0  0  0  0  0  0  0
   59.8810   32.3000   54.3600 C   0  0  0  0  0  0  0  0  0  0  0  0
   60.2160   31.7780   53.0990 C   0  0  0  0  0  0  0  0  0  0  0  0
   61.5620   32.0720   52.5490 C   0  0  0  0  0  0  0  0  0  0  0  0
   62.5290   31.3260   52.8680 O   0  0  0  0  0  0  0  0  0  0  0  0
   61.7820   33.1770   51.6500 N   0  0  0  0  0  0  0  0  0  0  0  0
   63.0820   33.8460   51.5830 C   0  0  0  0  0  0  0  0  0  0  0  0
   63.7080   33.6020   50.2060 C   0  0  0  0  0  0  0  0  0  0  0  0
   62.7580   33.9850   49.1380 N   0  0  0  0  0  0  0  0  0  0  0  0
   63.2720   33.9840   47.7420 C   0  0  0  0  0  0  0  0  0  0  0  0
   62.3910   33.2660   46.7210 C   0  0  0  0  0  0  0  0  0  0  0  0
   63.7390   32.6730   47.1000 C   0  0  0  0  0  0  0  0  0  0  0  0
   61.4800   33.2480   49.2330 C   0  0  0  0  0  0  0  0  0  0  0  0
   60.8220   33.4980   50.5900 C   0  0  0  0  0  0  0  0  0  0  0  0
   60.6160   29.6390   50.7630 C   0  0  0  0  0  0  0  0  0  0  0  0
   60.8280   29.1470   49.4740 C   0  0  0  0  0  0  0  0  0  0  0  0
   57.5150   25.3330   48.2133 H   0  0  0  0  0  0  0  0  0  0  0  0
   56.6050   25.7761   46.7293 H   0  0  0  0  0  0  0  0  0  0  0  0
   57.6754   24.3336   46.7293 H   0  0  0  0  0  0  0  0  0  0  0  0
   59.4158   26.3518   47.4932 H   0  0  0  0  0  0  0  0  0  0  0  0
   59.2132   25.7254   45.8125 H   0  0  0  0  0  0  0  0  0  0  0  0
   57.7021   33.6469   45.8027 H   0  0  0  0  0  0  0  0  0  0  0  0
   58.5733   33.3853   44.2538 H   0  0  0  0  0  0  0  0  0  0  0  0
   56.7928   33.6234   44.2538 H   0  0  0  0  0  0  0  0  0  0  0  0
   60.7650   28.0294   47.0934 H   0  0  0  0  0  0  0  0  0  0  0  0
   60.7749   29.7232   46.4726 H   0  0  0  0  0  0  0  0  0  0  0  0
   58.1768   30.6107   47.8845 H   0  0  0  0  0  0  0  0  0  0  0  0
   57.8008   31.4935   50.1837 H   0  0  0  0  0  0  0  0  0  0  0  0
   57.3167   30.0300   52.5055 H   0  0  0  0  0  0  0  0  0  0  0  0
   56.7762   30.9377   54.7586 H   0  0  0  0  0  0  0  0  0  0  0  0
   58.4032   32.4117   55.9397 H   0  0  0  0  0  0  0  0  0  0  0  0
   60.5943   32.9506   54.8872 H   0  0  0  0  0  0  0  0  0  0  0  0
   62.9474   34.9265   51.7390 H   0  0  0  0  0  0  0  0  0  0  0  0
   63.7435   33.4439   52.3645 H   0  0  0  0  0  0  0  0  0  0  0  0
   64.6236   34.2043   50.1111 H   0  0  0  0  0  0  0  0  0  0  0  0
   63.9495   32.5335   50.1056 H   0  0  0  0  0  0  0  0  0  0  0  0
   63.7343   34.9759   47.8534 H   0  0  0  0  0  0  0  0  0  0  0  0
   61.4632   32.7730   47.0468 H   0  0  0  0  0  0  0  0  0  0  0  0
   61.9081   33.5529   45.7752 H   0  0  0  0  0  0  0  0  0  0  0  0
   63.7855   31.7526   47.7006 H   0  0  0  0  0  0  0  0  0  0  0  0
   64.6328   32.3551   46.5432 H   0  0  0  0  0  0  0  0  0  0  0  0
   60.8047   33.5885   48.4342 H   0  0  0  0  0  0  0  0  0  0  0  0
   61.6793   32.1716   49.1253 H   0  0  0  0  0  0  0  0  0  0  0  0
   60.5259   34.5546   50.6677 H   0  0  0  0  0  0  0  0  0  0  0  0
   59.9282   32.8651   50.6928 H   0  0  0  0  0  0  0  0  0  0  0  0
   61.3138   29.3742   51.5711 H   0  0  0  0  0  0  0  0  0  0  0  0
   61.6847   28.4862   49.2755 H   0  0  0  0  0  0  0  0  0  0  0  0
  1  2  1  0
  2  3  1  0
  3  4  2  0
  4  5  1  0
  5  6  1  0
  6  7  2  0
  6  8  1  0
  8  9  2  0
  9 10  1  0
  9 11  1  0
 11 12  1  0
 12 13  1  0
 13 14  1  0
 14 15  1  0
 15 16  2  0
 16 17  1  0
 17 18  2  0
 18 19  1  0
 19 20  2  0
 20 21  1  0
 21 22  2  0
 22 23  1  0
 23 24  2  0
 24 25  1  0
 25 26  2  0
 25 27  1  0
 27 28  1  0
 28 29  1  0
 29 30  1  0
 30 31  1  0
 31 32  1  0
 32 33  1  0
 30 34  1  0
 34 35  1  0
 18 36  1  0
 36 37  2  0
 13  3  1  0
 37 15  1  0
 12  5  2  0
 24 19  1  0
 35 27  1  0
 33 31  1  0
  1 38  1  0
  1 39  1  0
  1 40  1  0
  2 41  1  0
  2 42  1  0
 10 43  1  0
 10 44  1  0
 10 45  1  0
 14 46  1  0
 14 47  1  0
 16 48  1  0
 17 49  1  0
 20 50  1  0
 21 51  1  0
 22 52  1  0
 23 53  1  0
 28 54  1  0
 28 55  1  0
 29 56  1  0
 29 57  1  0
 31 58  1  0
 32 59  1  0
 32 60  1  0
 33 61  1  0
 33 62  1  0
 34 63  1  0
 34 64  1  0
 35 65  1  0
 35 66  1  0
 36 67  1  0
 37 68  1  0
M  CHG  1  11  -1
M  END
>  <UniqueID>  (9) 
9

>  <SMILES>  (9) 
CCc1nc2c(=O)nc(C)[n-]c2n1Cc1ccc(-c2ccccc2C(=O)N2CCN(C3CC3)CC2)cc1

>  <Energy>  (9) 
394.52484509293834

>  <Genealogy>  (9) 
CCc1nc2c(=O)nc(C)[n-]c2n1Cc1ccc(-c2ccccc2C(=O)N2CCN(C3CC3)CC2)cc1 (protonated)
CCc1nc2c(=O)nc(C)[n-]c2n1Cc1ccc(-c2ccccc2C(=O)N2CCN(C3CC3)CC2)cc1 (3D coordinates assigned)
CCc1nc2c(=O)nc(C)[n-]c2n1Cc1ccc(-c2ccccc2C(=O)N2CCN(C3CC3)CC2)cc1 (nonaromatic ring conformer: 394.52484509293834 kcal/mol)

>  <smiles>  (9) 
CCc1nc2c(=O)nc(C)[nH]c2n1Cc1ccc(-c2ccccc2C(=O)N2CCN(C3CC3)CC2)cc1

>  <score_type>  (9) 
oracle

>  <origin>  (9) 
adg

>  <m_score__min__energy>  (9) 
-11.609999999999999

>  <m_primary>  (9) 
energy

$$$$
9:0
     RDKit          3D

 58 61  0  0  0  0  0  0  0  0999 V2000
   58.0240   27.2610   43.1620 C   0  0  0  0  0  0  0  0  0  0  0  0
   58.2760   26.9530   44.4450 C   0  0  0  0  0  0  0  0  0  0  0  0
   57.8030   25.8300   45.1350 C   0  0  0  0  0  0  0  0  0  0  0  0
   57.0510   24.8250   44.6350 C   0  0  0  0  0  0  0  0  0  0  0  0
   55.6560   24.5210   45.0280 C   0  0  0  0  0  0  0  0  0  0  0  0
   55.0340   23.3370   44.8850 N   0  0  0  0  0  0  0  0  0  0  0  0
   53.8110   23.5530   45.4150 C   0  0  0  0  0  0  0  0  0  0  0  0
   52.9230   22.6610   45.4590 O   0  0  0  0  0  0  0  0  0  0  0  0
   53.6160   24.7970   45.8990 N   0  0  0  0  0  0  0  0  0  0  0  0
   54.7940   25.3950   45.6520 C   0  0  0  0  0  0  0  0  0  0  0  0
   55.0740   26.7150   45.9870 O   0  0  0  0  0  0  0  0  0  0  0  0
   58.2890   25.9480   46.4290 C   0  0  0  0  0  0  0  0  0  0  0  0
   59.0260   27.1170   46.4860 C   0  0  0  0  0  0  0  0  0  0  0  0
   59.7870   27.5720   47.6790 C   0  0  0  0  0  0  0  0  0  0  0  0
   60.1470   26.7240   48.5400 O   0  0  0  0  0  0  0  0  0  0  0  0
   60.0360   28.9830   47.9050 N   0  0  0  0  0  0  0  0  0  0  0  0
   60.8550   29.1950   49.1140 C   0  0  0  0  0  0  0  0  0  0  0  0
   61.2400   30.6860   49.2690 C   0  0  0  0  0  0  0  0  0  0  0  0
   60.2570   31.6210   48.6560 N   0  0  0  0  0  0  0  0  0  0  0  0
   60.7260   32.1870   47.3510 C   0  0  0  0  0  0  0  0  0  0  0  0
   59.6080   32.5940   46.3430 C   0  0  0  0  0  0  0  0  0  0  0  0
   58.9400   33.9610   46.6410 C   0  0  0  0  0  0  0  0  0  0  0  0
   59.2740   34.5110   48.0370 C   0  0  0  0  0  0  0  0  0  0  0  0
   60.7940   34.5780   48.2900 C   0  0  0  0  0  0  0  0  0  0  0  0
   61.5900   33.4390   47.6160 C   0  0  0  0  0  0  0  0  0  0  0  0
   58.8860   31.0690   48.7230 C   0  0  0  0  0  0  0  0  0  0  0  0
   58.7500   29.7160   47.9900 C   0  0  0  0  0  0  0  0  0  0  0  0
   59.0160   27.7280   45.2780 N   0  0  0  0  0  0  0  0  0  0  0  0
   59.6210   28.9930   44.9560 C   0  0  0  0  0  0  0  0  0  0  0  0
   58.7970   30.1250   44.4320 C   0  0  0  0  0  0  0  0  0  0  0  0
   60.8670   29.1430   45.0840 O   0  0  0  0  0  0  0  0  0  0  0  0
   58.4507   28.1742   42.7216 H   0  0  0  0  0  0  0  0  0  0  0  0
   57.3909   26.6000   42.5518 H   0  0  0  0  0  0  0  0  0  0  0  0
   57.5130   24.1796   43.8734 H   0  0  0  0  0  0  0  0  0  0  0  0
   58.1197   25.2428   47.2561 H   0  0  0  0  0  0  0  0  0  0  0  0
   60.5840   29.3420   47.0920 H   0  0  0  0  0  0  0  0  0  0  0  0
   60.2812   28.8780   49.9973 H   0  0  0  0  0  0  0  0  0  0  0  0
   61.7773   28.6029   49.0206 H   0  0  0  0  0  0  0  0  0  0  0  0
   61.3166   30.9159   50.3420 H   0  0  0  0  0  0  0  0  0  0  0  0
   62.1947   30.8297   48.7418 H   0  0  0  0  0  0  0  0  0  0  0  0
   61.2841   31.3640   46.8807 H   0  0  0  0  0  0  0  0  0  0  0  0
   60.0522   32.6406   45.3377 H   0  0  0  0  0  0  0  0  0  0  0  0
   58.8174   31.8341   46.4292 H   0  0  0  0  0  0  0  0  0  0  0  0
   59.2814   34.6875   45.8889 H   0  0  0  0  0  0  0  0  0  0  0  0
   57.8516   33.8060   46.6044 H   0  0  0  0  0  0  0  0  0  0  0  0
   58.8550   35.5240   48.1279 H   0  0  0  0  0  0  0  0  0  0  0  0
   58.8381   33.8284   48.7814 H   0  0  0  0  0  0  0  0  0  0  0  0
   61.1677   35.5377   47.9037 H   0  0  0  0  0  0  0  0  0  0  0  0
   60.9426   34.4736   49.3749 H   0  0  0  0  0  0  0  0  0  0  0  0
   61.9842   33.8046   46.6563 H   0  0  0  0  0  0  0  0  0  0  0  0
   62.3988   33.1466   48.3018 H   0  0  0  0  0  0  0  0  0  0  0  0
   58.6161   30.9252   49.7796 H   0  0  0  0  0  0  0  0  0  0  0  0
   58.2156   31.7849   48.2249 H   0  0  0  0  0  0  0  0  0  0  0  0
   58.0241   29.0926   48.5326 H   0  0  0  0  0  0  0  0  0  0  0  0
   58.4166   29.9251   46.9628 H   0  0  0  0  0  0  0  0  0  0  0  0
   58.3810   30.6965   45.2748 H   0  0  0  0  0  0  0  0  0  0  0  0
   59.4280   30.7843   43.8178 H   0  0  0  0  0  0  0  0  0  0  0  0
   57.9757   29.7271   43.8178 H   0  0  0  0  0  0  0  0  0  0  0  0
  1  2  2  0
  2  3  1  0
  3  4  2  3
  4  5  1  0
  5  6  1  0
  6  7  1  0
  7  8  2  0
  7  9  1  0
  9 10  1  0
 10 11  1  0
  3 12  1  0
 12 13  2  0
 13 14  1  0
 14 15  2  0
 14 16  1  0
 16 17  1  0
 17 18  1  0
 18 19  1  0
 19 20  1  0
 20 21  1  0
 21 22  1  0
 22 23  1  0
 23 24  1  0
 24 25  1  0
 19 26  1  0
 26 27  1  0
 13 28  1  0
 28 29  1  0
 29 30  1  0
 29 31  2  0
 28  2  1  0
 10  5  2  0
 27 16  1  0
 25 20  1  0
  1 32  1  0
  1 33  1  0
  4 34  1  0
 12 35  1  0
 16 36  1  0
 17 37  1  0
 17 38  1  0
 18 39  1  0
 18 40  1  0
 20 41  1  0
 21 42  1  0
 21 43  1  0
 22 44  1  0
 22 45  1  0
 23 46  1  0
 23 47  1  0
 24 48  1  0
 24 49  1  0
 25 50  1  0
 25 51  1  0
 26 52  1  0
 26 53  1  0
 27 54  1  0
 27 55  1  0
 30 56  1  0
 30 57  1  0
 30 58  1  0
M  CHG  4   6  -1   9  -1  11  -1  16   1
M  END
>  <UniqueID>  (10) 
10

>  <SMILES>  (10) 
C=c1c(=Cc2[n-]c(=O)[n-]c2[O-])cc(C(=O)[NH+]2CCN(C3CCCCC3)CC2)n1C(C)=O

>  <Energy>  (10) 
154.15157705696592

>  <Genealogy>  (10) 
C=c1c(=Cc2[n-]c(=O)[n-]c2[O-])cc(C(=O)[NH+]2CCN(C3CCCCC3)CC2)n1C(C)=O (protonated)
C=c1c(=Cc2[n-]c(=O)[n-]c2[O-])cc(C(=O)[NH+]2CCN(C3CCCCC3)CC2)n1C(C)=O (3D coordinates assigned)
C=c1c(=Cc2[n-]c(=O)[n-]c2[O-])cc(C(=O)[NH+]2CCN(C3CCCCC3)CC2)n1C(C)=O (nonaromatic ring conformer: 154.15157705696592 kcal/mol)

>  <smiles>  (10) 
C=c1c(=Cc2[nH]c(=O)[nH]c2O)cc(C(=O)N2CCN(C3CCCCC3)CC2)n1C(C)=O

>  <score_type>  (10) 
oracle

>  <origin>  (10) 
adg

>  <m_score__min__energy>  (10) 
-17.18

>  <m_primary>  (10) 
energy

$$$$
10:0
     RDKit          3D

 69 73  0  0  0  0  0  0  0  0999 V2000
   55.5680   23.6750   43.4640 C   0  0  0  0  0  0  0  0  0  0  0  0
   54.3640   23.6640   44.7700 S   0  0  0  0  0  0  0  0  0  0  0  0
   52.9890   23.7690   44.1700 O   0  0  0  0  0  0  0  0  0  0  0  0
   54.6050   24.8310   45.6880 O   0  0  0  0  0  0  0  0  0  0  0  0
   54.5500   22.2140   45.6540 O   0  0  0  0  0  0  0  0  0  0  0  0
   54.9450   22.1610   46.9930 C   0  0  0  0  0  0  0  0  0  0  0  0
   54.0120   22.3290   48.0300 C   0  0  0  0  0  0  0  0  0  0  0  0
   54.4130   22.2360   49.3640 C   0  0  0  0  0  0  0  0  0  0  0  0
   55.7480   21.9780   49.6770 C   0  0  0  0  0  0  0  0  0  0  0  0
   56.6830   21.8000   48.6560 C   0  0  0  0  0  0  0  0  0  0  0  0
   56.2920   21.8790   47.3070 C   0  0  0  0  0  0  0  0  0  0  0  0
   57.3310   21.7030   46.2250 C   0  0  0  0  0  0  0  0  0  0  0  0
   58.1410   22.9490   45.9970 C   0  0  0  0  0  0  0  0  0  0  0  0
   59.2210   22.8770   45.3560 O   0  0  0  0  0  0  0  0  0  0  0  0
   57.7620   24.2020   46.5780 N   0  0  0  0  0  0  0  0  0  0  0  0
   57.8150   25.4530   45.8860 C   0  0  0  0  0  0  0  0  0  0  0  0
   58.0020   25.4690   44.4840 C   0  0  0  0  0  0  0  0  0  0  0  0
   58.0680   26.6900   43.7860 C   0  0  0  0  0  0  0  0  0  0  0  0
   57.9320   27.8680   44.5200 C   0  0  0  0  0  0  0  0  0  0  0  0
   57.9780   29.1290   44.0610 N   0  0  0  0  0  0  0  0  0  0  0  0
   57.8150   29.9240   45.1470 C   0  0  0  0  0  0  0  0  0  0  0  0
   57.7710   31.4000   45.0750 C   0  0  0  0  0  0  0  0  0  0  0  0
   56.7680   31.9440   44.5370 O   0  0  0  0  0  0  0  0  0  0  0  0
   58.8210   32.2120   45.6600 N   0  0  2  0  0  0  0  0  0  0  0  0
   58.8240   32.0740   47.1450 C   0  0  0  0  0  0  0  0  0  0  0  0
   59.0410   33.3910   47.9200 C   0  0  0  0  0  0  0  0  0  0  0  0
   60.0270   34.3860   47.2580 C   0  0  1  0  0  0  0  0  0  0  0  0
   61.4150   34.2030   47.7640 N   0  0  0  0  0  0  0  0  0  0  0  0
   61.5680   33.3100   48.9280 C   0  0  0  0  0  0  0  0  0  0  0  0
   62.6600   32.3000   48.6130 C   0  0  0  0  0  0  0  0  0  0  0  0
   62.8760   32.3850   47.1190 C   0  0  0  0  0  0  0  0  0  0  0  0
   62.3560   33.7540   46.7250 C   0  0  0  0  0  0  0  0  0  0  0  0
   59.9180   34.4280   45.7080 C   0  0  0  0  0  0  0  0  0  0  0  0
   58.7270   33.6150   45.1970 C   0  0  0  0  0  0  0  0  0  0  0  0
   57.6670   29.1570   46.3030 C   0  0  0  0  0  0  0  0  0  0  0  0
   57.7320   27.8520   45.8740 C   0  0  0  0  0  0  0  0  0  0  0  0
   57.6390   26.6620   46.5880 C   0  0  0  0  0  0  0  0  0  0  0  0
   56.5790   23.6842   43.8974 H   0  0  0  0  0  0  0  0  0  0  0  0
   55.4435   22.7757   42.8429 H   0  0  0  0  0  0  0  0  0  0  0  0
   55.4271   24.5719   42.8429 H   0  0  0  0  0  0  0  0  0  0  0  0
   52.9587   22.5352   47.7892 H   0  0  0  0  0  0  0  0  0  0  0  0
   53.6754   22.3663   50.1695 H   0  0  0  0  0  0  0  0  0  0  0  0
   56.0638   21.9148   50.7288 H   0  0  0  0  0  0  0  0  0  0  0  0
   57.7341   21.5963   48.9083 H   0  0  0  0  0  0  0  0  0  0  0  0
   58.0106   20.8890   46.5174 H   0  0  0  0  0  0  0  0  0  0  0  0
   56.8026   21.4716   45.2884 H   0  0  0  0  0  0  0  0  0  0  0  0
   58.0966   24.5205   43.9350 H   0  0  0  0  0  0  0  0  0  0  0  0
   58.2218   26.7140   42.6971 H   0  0  0  0  0  0  0  0  0  0  0  0
   58.1120   29.4320   43.0680 H   0  0  0  0  0  0  0  0  0  0  0  0
   59.7290   31.8420   45.2880 H   0  0  0  0  0  0  0  0  0  0  0  0
   57.8548   31.6533   47.4510 H   0  0  0  0  0  0  0  0  0  0  0  0
   59.6778   31.4262   47.3927 H   0  0  0  0  0  0  0  0  0  0  0  0
   58.0669   33.8920   48.0207 H   0  0  0  0  0  0  0  0  0  0  0  0
   59.4895   33.1097   48.8842 H   0  0  0  0  0  0  0  0  0  0  0  0
   59.7185   35.3941   47.5721 H   0  0  0  0  0  0  0  0  0  0  0  0
   61.8494   33.8982   49.8139 H   0  0  0  0  0  0  0  0  0  0  0  0
   60.6203   32.7918   49.1359 H   0  0  0  0  0  0  0  0  0  0  0  0
   63.5855   32.5557   49.1497 H   0  0  0  0  0  0  0  0  0  0  0  0
   62.3764   31.2842   48.9254 H   0  0  0  0  0  0  0  0  0  0  0  0
   63.9451   32.2931   46.8770 H   0  0  0  0  0  0  0  0  0  0  0  0
   62.3607   31.5763   46.5801 H   0  0  0  0  0  0  0  0  0  0  0  0
   63.1935   34.4631   46.6490 H   0  0  0  0  0  0  0  0  0  0  0  0
   61.8502   33.7029   45.7495 H   0  0  0  0  0  0  0  0  0  0  0  0
   59.7981   35.4736   45.3883 H   0  0  0  0  0  0  0  0  0  0  0  0
   60.8354   33.9879   45.2900 H   0  0  0  0  0  0  0  0  0  0  0  0
   57.7953   34.0599   45.5765 H   0  0  0  0  0  0  0  0  0  0  0  0
   58.7326   33.6281   44.0971 H   0  0  0  0  0  0  0  0  0  0  0  0
   57.5285   29.5175   47.3330 H   0  0  0  0  0  0  0  0  0  0  0  0
   57.4341   26.6646   47.6687 H   0  0  0  0  0  0  0  0  0  0  0  0
  1  2  1  0
  2  3  2  0
  2  4  2  0
  2  5  1  0
  5  6  1  0
  6  7  2  0
  7  8  1  0
  8  9  2  0
  9 10  1  0
 10 11  2  0
 11 12  1  0
 12 13  1  0
 13 14  2  0
 13 15  1  0
 15 16  1  0
 16 17  2  0
 17 18  1  0
 18 19  2  0
 19 20  1  0
 20 21  1  0
 21 22  1  0
 22 23  2  0
 22 24  1  0
 24 25  1  0
 25 26  1  0
 26 27  1  0
 27 28  1  0
 28 29  1  0
 29 30  1  0
 30 31  1  0
 31 32  1  0
 27 33  1  0
 33 34  1  0
 21 35  2  0
 35 36  1  0
 36 37  2  0
 11  6  1  0
 37 16  1  0
 36 19  1  0
 34 24  1  0
 32 28  1  0
  1 38  1  0
  1 39  1  0
  1 40  1  0
  7 41  1  0
  8 42  1  0
  9 43  1  0
 10 44  1  0
 12 45  1  0
 12 46  1  0
 17 47  1  0
 18 48  1  0
 20 49  1  0
 24 50  1  6
 25 51  1  0
 25 52  1  0
 26 53  1  0
 26 54  1  0
 27 55  1  1
 29 56  1  0
 29 57  1  0
 30 58  1  0
 30 59  1  0
 31 60  1  0
 31 61  1  0
 32 62  1  0
 32 63  1  0
 33 64  1  0
 33 65  1  0
 34 66  1  0
 34 67  1  0
 35 68  1  0
 37 69  1  0
M  CHG  2  15  -1  24   1
M  END
>  <UniqueID>  (11) 
11

>  <SMILES>  (11) 
CS(=O)(=O)Oc1ccccc1CC(=O)[N-]c1ccc2[nH]c(C(=O)[NH+]3CCC(N4CCCC4)CC3)cc2c1

>  <Energy>  (11) 
125.91079439206396

>  <Genealogy>  (11) 
CS(=O)(=O)Oc1ccccc1CC(=O)[N-]c1ccc2[nH]c(C(=O)[NH+]3CCC(N4CCCC4)CC3)cc2c1 (protonated)
CS(=O)(=O)Oc1ccccc1CC(=O)[N-]c1ccc2[nH]c(C(=O)[NH+]3CCC(N4CCCC4)CC3)cc2c1 (3D coordinates assigned)
CS(=O)(=O)Oc1ccccc1CC(=O)[N-]c1ccc2[nH]c(C(=O)[NH+]3CCC(N4CCCC4)CC3)cc2c1 (nonaromatic ring conformer: 125.91079439206396 kcal/mol)

>  <smiles>  (11) 
CS(=O)(=O)Oc1ccccc1CC(=O)Nc1ccc2[nH]c(C(=O)N3CCC(N4CCCC4)CC3)cc2c1

>  <score_type>  (11) 
oracle

>  <origin>  (11) 
adg

>  <m_score__min__energy>  (11) 
-12.02

>  <m_primary>  (11) 
energy

$$$$
11:0
     RDKit          3D

 35 37  0  0  0  0  0  0  0  0999 V2000
   58.6011   32.2986   43.3271 H   0  0  0  0  0  0  0  0  0  0  0  0
   58.0560   31.8450   44.1680 C   0  0  0  0  0  0  0  0  0  0  0  0
   57.8130   32.6600   45.3760 C   0  0  0  0  0  0  0  0  0  0  0  0
   56.6380   33.0630   45.5920 O   0  0  0  0  0  0  0  0  0  0  0  0
   58.8870   33.0340   46.3280 C   0  0  0  0  0  0  0  0  0  0  0  0
   58.7750   34.2140   47.0820 C   0  0  0  0  0  0  0  0  0  0  0  0
   57.8877   34.8539   46.9668 H   0  0  0  0  0  0  0  0  0  0  0  0
   59.7830   34.5800   47.9770 C   0  0  0  0  0  0  0  0  0  0  0  0
   59.6800   35.4983   48.5737 H   0  0  0  0  0  0  0  0  0  0  0  0
   60.9210   33.7830   48.1160 C   0  0  0  0  0  0  0  0  0  0  0  0
   61.7048   34.0670   48.8336 H   0  0  0  0  0  0  0  0  0  0  0  0
   61.0680   32.6220   47.3440 C   0  0  0  0  0  0  0  0  0  0  0  0
   62.2780   31.7520   47.5110 C   0  0  0  0  0  0  0  0  0  0  0  0
   62.4801   31.6067   48.5825 H   0  0  0  0  0  0  0  0  0  0  0  0
   62.0964   30.7764   47.0365 H   0  0  0  0  0  0  0  0  0  0  0  0
   63.1451   32.2348   47.0365 H   0  0  0  0  0  0  0  0  0  0  0  0
   60.0460   32.2470   46.4590 C   0  0  0  0  0  0  0  0  0  0  0  0
   60.1518   31.3292   45.8620 H   0  0  0  0  0  0  0  0  0  0  0  0
   57.6410   30.5790   44.0540 C   0  0  0  0  0  0  0  0  0  0  0  0
   56.7007   30.3717   43.5222 H   0  0  0  0  0  0  0  0  0  0  0  0
   58.4050   29.4540   44.6190 C   0  0  0  0  0  0  0  0  0  0  0  0
   59.7870   29.3160   44.5340 C   0  0  0  0  0  0  0  0  0  0  0  0
   60.4576   30.0219   44.0222 H   0  0  0  0  0  0  0  0  0  0  0  0
   60.1890   28.1940   45.1680 N   0  0  0  0  0  0  0  0  0  0  0  0
   61.1700   27.8480   45.2600 H   0  0  0  0  0  0  0  0  0  0  0  0
   59.0750   27.6090   45.6370 C   0  0  0  0  0  0  0  0  0  0  0  0
   58.9930   26.4040   46.3340 C   0  0  0  0  0  0  0  0  0  0  0  0
   59.8994   25.8371   46.5929 H   0  0  0  0  0  0  0  0  0  0  0  0
   57.7190   25.9350   46.6960 C   0  0  0  0  0  0  0  0  0  0  0  0
   57.6220   24.9953   47.2596 H   0  0  0  0  0  0  0  0  0  0  0  0
   56.5640   26.6620   46.3410 C   0  0  0  0  0  0  0  0  0  0  0  0
   55.5715   26.2818   46.6244 H   0  0  0  0  0  0  0  0  0  0  0  0
   56.6710   27.8700   45.6270 C   0  0  0  0  0  0  0  0  0  0  0  0
   55.5240   28.5450   45.2280 O   0  0  0  0  0  0  0  0  0  0  0  0
   57.9540   28.3390   45.3140 C   0  0  0  0  0  0  0  0  0  0  0  0
  1  2  1  0
  2  3  1  0
  3  4  2  0
  3  5  1  0
  5  6  2  0
  6  7  1  0
  6  8  1  0
  8  9  1  0
  8 10  2  0
 10 11  1  0
 10 12  1  0
 12 13  1  0
 13 14  1  0
 13 15  1  0
 13 16  1  0
 12 17  2  0
 17 18  1  0
  2 19  2  0
 19 20  1  0
 19 21  1  0
 21 22  2  0
 22 23  1  0
 22 24  1  0
 24 25  1  0
 24 26  1  0
 26 27  2  0
 27 28  1  0
 27 29  1  0
 29 30  1  0
 29 31  2  0
 31 32  1  0
 31 33  1  0
 33 34  1  0
 33 35  2  0
 17  5  1  0
 35 21  1  0
 35 26  1  0
M  CHG  1  34  -1
M  END
>  <UniqueID>  (12) 
12

>  <SMILES>  (12) 
Cc1cccc(C(=O)/C=C/c2c[nH]c3cccc([O-])c23)c1

>  <Energy>  (12) 
79.06778471984218

>  <Genealogy>  (12) 
Cc1cccc(C(=O)C=Cc2c[nH]c3cccc([O-])c23)c1 (protonated)
Cc1cccc(C(=O)/C=C/c2c[nH]c3cccc([O-])c23)c1 (cis-trans isomerization)
Cc1cccc(C(=O)/C=C/c2c[nH]c3cccc([O-])c23)c1 (3D coordinates assigned)
Cc1cccc(C(=O)/C=C/c2c[nH]c3cccc([O-])c23)c1 (optimized conformer: 79.06778471984218 kcal/mol)

>  <smiles>  (12) 
Cc1cccc(C(=O)C=Cc2c[nH]c3cccc(O)c23)c1

>  <score_type>  (12) 
oracle

>  <origin>  (12) 
adg

>  <m_score__min__energy>  (12) 
-11.890000000000001

>  <m_primary>  (12) 
energy

$$$$
12:0
     RDKit          3D

 63 67  0  0  0  0  0  0  0  0999 V2000
   56.2470   31.3860   52.2630 C   0  0  0  0  0  0  0  0  0  0  0  0
   57.2510   30.5070   51.5780 C   0  0  0  0  0  0  0  0  0  0  0  0
   57.4010   29.3290   52.0090 O   0  0  0  0  0  0  0  0  0  0  0  0
   58.0490   30.9790   50.4630 N   0  0  0  0  0  0  0  0  0  0  0  0
   58.9320   30.0690   49.7220 C   0  0  0  0  0  0  0  0  0  0  0  0
   60.3750   30.5770   49.8010 C   0  0  0  0  0  0  0  0  0  0  0  0
   60.4320   32.0080   49.4780 N   0  0  0  0  0  0  0  0  0  0  0  0
   61.6440   32.5610   48.9390 C   0  0  0  0  0  0  0  0  0  0  0  0
   62.8710   32.2400   49.5360 C   0  0  0  0  0  0  0  0  0  0  0  0
   64.0690   32.7040   48.9840 C   0  0  0  0  0  0  0  0  0  0  0  0
   64.0470   33.4800   47.8220 C   0  0  0  0  0  0  0  0  0  0  0  0
   62.8290   33.7970   47.2140 C   0  0  0  0  0  0  0  0  0  0  0  0
   61.6170   33.3420   47.7680 C   0  0  0  0  0  0  0  0  0  0  0  0
   60.3520   33.6990   47.1890 N   0  0  0  0  0  0  0  0  0  0  0  0
   59.6830   32.9720   46.1540 C   0  0  0  0  0  0  0  0  0  0  0  0
   59.1700   33.6160   45.2010 O   0  0  0  0  0  0  0  0  0  0  0  0
   59.5270   31.4980   46.2220 C   0  0  0  0  0  0  0  0  0  0  0  0
   60.6150   30.6890   46.6380 C   0  0  0  0  0  0  0  0  0  0  0  0
   60.5090   29.2890   46.6560 C   0  0  0  0  0  0  0  0  0  0  0  0
   59.3110   28.6980   46.2550 C   0  0  0  0  0  0  0  0  0  0  0  0
   59.0500   27.3260   46.2010 C   0  0  0  0  0  0  0  0  0  0  0  0
   57.7540   27.0450   45.7560 C   0  0  0  0  0  0  0  0  0  0  0  0
   57.1610   25.7070   45.5710 C   0  0  0  0  0  0  0  0  0  0  0  0
   55.9090   25.6060   45.4390 O   0  0  0  0  0  0  0  0  0  0  0  0
   57.9790   24.5260   45.5790 N   0  0  0  0  0  0  0  0  0  0  0  0
   57.5870   23.2800   44.9700 C   0  0  0  0  0  0  0  0  0  0  0  0
   57.7070   22.0740   45.6940 C   0  0  0  0  0  0  0  0  0  0  0  0
   57.2930   20.8630   45.1370 C   0  0  0  0  0  0  0  0  0  0  0  0
   56.7290   20.8360   43.8620 C   0  0  0  0  0  0  0  0  0  0  0  0
   56.5710   22.0230   43.1430 C   0  0  0  0  0  0  0  0  0  0  0  0
   56.9990   23.2490   43.6780 C   0  0  0  0  0  0  0  0  0  0  0  0
   56.8490   24.4370   42.8870 N   0  0  0  0  0  0  0  0  0  0  0  0
   56.9530   28.5040   45.4280 S   0  0  0  0  0  0  0  0  0  0  0  0
   58.2460   29.4860   45.8550 C   0  0  0  0  0  0  0  0  0  0  0  0
   58.3210   30.8760   45.8220 C   0  0  0  0  0  0  0  0  0  0  0  0
   59.4970   32.9240   50.1400 C   0  0  0  0  0  0  0  0  0  0  0  0
   58.0690   32.3860   50.0410 C   0  0  0  0  0  0  0  0  0  0  0  0
   56.3579   31.2889   53.3531 H   0  0  0  0  0  0  0  0  0  0  0  0
   56.4150   32.4326   51.9691 H   0  0  0  0  0  0  0  0  0  0  0  0
   55.2318   31.0811   51.9691 H   0  0  0  0  0  0  0  0  0  0  0  0
   58.8734   29.0626   50.1622 H   0  0  0  0  0  0  0  0  0  0  0  0
   58.6155   30.0290   48.6693 H   0  0  0  0  0  0  0  0  0  0  0  0
   60.7594   30.4197   50.8196 H   0  0  0  0  0  0  0  0  0  0  0  0
   60.9887   30.0227   49.0757 H   0  0  0  0  0  0  0  0  0  0  0  0
   62.8915   31.6195   50.4440 H   0  0  0  0  0  0  0  0  0  0  0  0
   65.0278   32.4584   49.4639 H   0  0  0  0  0  0  0  0  0  0  0  0
   64.9895   33.8418   47.3852 H   0  0  0  0  0  0  0  0  0  0  0  0
   62.8172   34.4053   46.2976 H   0  0  0  0  0  0  0  0  0  0  0  0
   61.5558   31.1653   46.9512 H   0  0  0  0  0  0  0  0  0  0  0  0
   61.3570   28.6684   46.9811 H   0  0  0  0  0  0  0  0  0  0  0  0
   59.7823   26.5532   46.4777 H   0  0  0  0  0  0  0  0  0  0  0  0
   58.9240   24.5870   46.0160 H   0  0  0  0  0  0  0  0  0  0  0  0
   58.1316   22.0889   46.7086 H   0  0  0  0  0  0  0  0  0  0  0  0
   57.4118   19.9284   45.7048 H   0  0  0  0  0  0  0  0  0  0  0  0
   56.4085   19.8799   43.4225 H   0  0  0  0  0  0  0  0  0  0  0  0
   56.1061   21.9973   42.1464 H   0  0  0  0  0  0  0  0  0  0  0  0
   57.0020   24.4500   41.8530 H   0  0  0  0  0  0  0  0  0  0  0  0
   56.5260   25.3270   43.3270 H   0  0  0  0  0  0  0  0  0  0  0  0
   57.4611   31.4774   45.4920 H   0  0  0  0  0  0  0  0  0  0  0  0
   59.7749   33.0233   51.1997 H   0  0  0  0  0  0  0  0  0  0  0  0
   59.5454   33.9050   49.6448 H   0  0  0  0  0  0  0  0  0  0  0  0
   57.4085   32.9749   50.6945 H   0  0  0  0  0  0  0  0  0  0  0  0
   57.7176   32.4636   49.0015 H   0  0  0  0  0  0  0  0  0  0  0  0
  1  2  1  0
  2  3  2  0
  2  4  1  0
  4  5  1  0
  5  6  1  0
  6  7  1  0
  7  8  1  0
  8  9  2  0
  9 10  1  0
 10 11  2  0
 11 12  1  0
 12 13  2  0
 13 14  1  0
 14 15  1  0
 15 16  2  0
 15 17  1  0
 17 18  2  0
 18 19  1  0
 19 20  2  0
 20 21  1  0
 21 22  2  0
 22 23  1  0
 23 24  2  0
 23 25  1  0
 25 26  1  0
 26 27  2  0
 27 28  1  0
 28 29  2  0
 29 30  1  0
 30 31  2  0
 31 32  1  0
 22 33  1  0
 33 34  1  0
 34 35  2  0
  7 36  1  0
 36 37  1  0
 37  4  1  0
 13  8  1  0
 35 17  1  0
 34 20  1  0
 31 26  1  0
  1 38  1  0
  1 39  1  0
  1 40  1  0
  5 41  1  0
  5 42  1  0
  6 43  1  0
  6 44  1  0
  9 45  1  0
 10 46  1  0
 11 47  1  0
 12 48  1  0
 18 49  1  0
 19 50  1  0
 21 51  1  0
 25 52  1  0
 27 53  1  0
 28 54  1  0
 29 55  1  0
 30 56  1  0
 32 57  1  0
 32 58  1  0
 35 59  1  0
 36 60  1  0
 36 61  1  0
 37 62  1  0
 37 63  1  0
M  CHG  1  14  -1
M  END
>  <UniqueID>  (13) 
13

>  <SMILES>  (13) 
CC(=O)N1CCN(c2ccccc2[N-]C(=O)c2ccc3cc(C(=O)Nc4ccccc4N)sc3c2)CC1

>  <Energy>  (13) 
117.2466383204978

>  <Genealogy>  (13) 
CC(=O)N1CCN(c2ccccc2[N-]C(=O)c2ccc3cc(C(=O)Nc4ccccc4N)sc3c2)CC1 (protonated)
CC(=O)N1CCN(c2ccccc2[N-]C(=O)c2ccc3cc(C(=O)Nc4ccccc4N)sc3c2)CC1 (3D coordinates assigned)
CC(=O)N1CCN(c2ccccc2[N-]C(=O)c2ccc3cc(C(=O)Nc4ccccc4N)sc3c2)CC1 (nonaromatic ring conformer: 117.2466383204978 kcal/mol)

>  <smiles>  (13) 
CC(=O)N1CCN(c2ccccc2NC(=O)c2ccc3cc(C(=O)Nc4ccccc4N)sc3c2)CC1

>  <score_type>  (13) 
oracle

>  <origin>  (13) 
adg

>  <m_score__min__energy>  (13) 
-11.57

>  <m_primary>  (13) 
energy

$$$$
13:0
     RDKit          3D

 49 51  0  0  0  0  0  0  0  0999 V2000
   63.0760   33.8400   46.6840 C   0  0  0  0  0  0  0  0  0  0  0  0
   63.6730   32.6580   47.2130 O   0  0  0  0  0  0  0  0  0  0  0  0
   63.0360   31.8830   48.1930 C   0  0  0  0  0  0  0  0  0  0  0  0
   63.6740   31.6710   49.4260 C   0  0  0  0  0  0  0  0  0  0  0  0
   63.0500   30.9060   50.4160 C   0  0  0  0  0  0  0  0  0  0  0  0
   61.7960   30.3380   50.1800 C   0  0  0  0  0  0  0  0  0  0  0  0
   61.1620   30.5070   48.9370 C   0  0  0  0  0  0  0  0  0  0  0  0
   59.8360   29.8340   48.6770 C   0  0  0  0  0  0  0  0  0  0  0  0
   59.6560   29.4540   47.2670 N   0  0  0  0  0  0  0  0  0  0  0  0
   58.4540   28.8810   46.7130 C   0  0  0  0  0  0  0  0  0  0  0  0
   58.0980   27.5850   47.1180 C   0  0  0  0  0  0  0  0  0  0  0  0
   56.9790   26.9690   46.5690 C   0  0  0  0  0  0  0  0  0  0  0  0
   56.2430   27.6150   45.6290 N   0  0  0  0  0  0  0  0  0  0  0  0
   56.5490   28.8660   45.2050 C   0  0  0  0  0  0  0  0  0  0  0  0
   55.8270   29.3830   44.3070 O   0  0  0  0  0  0  0  0  0  0  0  0
   57.6720   29.5570   45.7360 C   0  0  0  0  0  0  0  0  0  0  0  0
   58.0200   30.9360   45.2610 C   0  0  0  0  0  0  0  0  0  0  0  0
   59.2210   31.2730   45.1000 O   0  0  0  0  0  0  0  0  0  0  0  0
   56.9820   31.8900   44.9780 N   0  0  0  0  0  0  0  0  0  0  0  0
   56.7960   33.1600   45.6700 C   0  0  0  0  0  0  0  0  0  0  0  0
   57.9300   33.4540   46.6290 C   0  0  0  0  0  0  0  0  0  0  0  0
   57.9130   32.8350   47.8920 C   0  0  0  0  0  0  0  0  0  0  0  0
   58.9430   33.0830   48.7970 C   0  0  0  0  0  0  0  0  0  0  0  0
   59.9560   33.9300   48.4670 N   0  0  0  0  0  0  0  0  0  0  0  0
   60.0110   34.5430   47.2550 C   0  0  0  0  0  0  0  0  0  0  0  0
   59.0100   34.3030   46.2940 C   0  0  0  0  0  0  0  0  0  0  0  0
   59.1520   34.9480   44.9350 C   0  0  0  0  0  0  0  0  0  0  0  0
   61.7710   31.3090   47.9480 C   0  0  0  0  0  0  0  0  0  0  0  0
   61.0910   31.5560   46.7560 O   0  0  0  0  0  0  0  0  0  0  0  0
   62.7490   34.4874   47.5111 H   0  0  0  0  0  0  0  0  0  0  0  0
   63.8109   34.3771   46.0664 H   0  0  0  0  0  0  0  0  0  0  0  0
   62.2075   33.5673   46.0664 H   0  0  0  0  0  0  0  0  0  0  0  0
   64.6662   32.1075   49.6131 H   0  0  0  0  0  0  0  0  0  0  0  0
   63.5484   30.7509   51.3842 H   0  0  0  0  0  0  0  0  0  0  0  0
   61.3019   29.7552   50.9713 H   0  0  0  0  0  0  0  0  0  0  0  0
   59.7750   28.9267   49.2960 H   0  0  0  0  0  0  0  0  0  0  0  0
   59.0440   30.5544   48.9295 H   0  0  0  0  0  0  0  0  0  0  0  0
   60.3560   29.8400   46.5930 H   0  0  0  0  0  0  0  0  0  0  0  0
   58.7039   27.0572   47.8692 H   0  0  0  0  0  0  0  0  0  0  0  0
   56.6904   25.9592   46.8960 H   0  0  0  0  0  0  0  0  0  0  0  0
   56.7434   33.9667   44.9240 H   0  0  0  0  0  0  0  0  0  0  0  0
   55.8654   33.0964   46.2531 H   0  0  0  0  0  0  0  0  0  0  0  0
   57.0899   32.1579   48.1641 H   0  0  0  0  0  0  0  0  0  0  0  0
   58.9374   32.5925   49.7816 H   0  0  0  0  0  0  0  0  0  0  0  0
   60.8398   35.2285   47.0242 H   0  0  0  0  0  0  0  0  0  0  0  0
   59.3870   36.0155   45.0585 H   0  0  0  0  0  0  0  0  0  0  0  0
   59.9633   34.4559   44.3786 H   0  0  0  0  0  0  0  0  0  0  0  0
   58.2090   34.8422   44.3786 H   0  0  0  0  0  0  0  0  0  0  0  0
   61.1560   30.9300   45.9610 H   0  0  0  0  0  0  0  0  0  0  0  0
  1  2  1  0
  2  3  1  0
  3  4  2  0
  4  5  1  0
  5  6  2  0
  6  7  1  0
  7  8  1  0
  8  9  1  0
  9 10  1  0
 10 11  1  0
 11 12  2  0
 12 13  1  0
 13 14  1  0
 14 15  2  0
 14 16  1  0
 16 17  1  0
 17 18  2  0
 17 19  1  0
 19 20  1  0
 20 21  1  0
 21 22  2  0
 22 23  1  0
 23 24  2  0
 24 25  1  0
 25 26  2  0
 26 27  1  0
  7 28  2  0
 28 29  1  0
 28  3  1  0
 16 10  2  0
 26 21  1  0
  1 30  1  0
  1 31  1  0
  1 32  1  0
  4 33  1  0
  5 34  1  0
  6 35  1  0
  8 36  1  0
  8 37  1  0
  9 38  1  0
 11 39  1  0
 12 40  1  0
 20 41  1  0
 20 42  1  0
 22 43  1  0
 23 44  1  0
 25 45  1  0
 27 46  1  0
 27 47  1  0
 27 48  1  0
 29 49  1  0
M  CHG  2  13  -1  19  -1
M  END
>  <UniqueID>  (14) 
14

>  <SMILES>  (14) 
COc1cccc(CNc2cc[n-]c(=O)c2C(=O)[N-]Cc2ccncc2C)c1O

>  <Energy>  (14) 
74.87509629107277

>  <Genealogy>  (14) 
COc1cccc(CNc2cc[n-]c(=O)c2C(=O)[N-]Cc2ccncc2C)c1O (protonated)
COc1cccc(CNc2cc[n-]c(=O)c2C(=O)[N-]Cc2ccncc2C)c1O (3D coordinates assigned)
COc1cccc(CNc2cc[n-]c(=O)c2C(=O)[N-]Cc2ccncc2C)c1O (optimized conformer: 74.87509629107277 kcal/mol)

>  <smiles>  (14) 
COc1cccc(CNc2cc[nH]c(=O)c2C(=O)NCc2ccncc2C)c1O

>  <score_type>  (14) 
oracle

>  <origin>  (14) 
adg

>  <m_score__min__energy>  (14) 
-10.130000000000001

>  <m_primary>  (14) 
energy

$$$$
14:0
     RDKit          3D

 66 70  0  0  0  0  0  0  0  0999 V2000
   62.5430   34.5910   48.6210 O   0  0  0  0  0  0  0  0  0  0  0  0
   62.7520   33.6900   47.7620 C   0  0  0  0  0  0  0  0  0  0  0  0
   62.1550   33.8160   46.3920 C   0  0  0  0  0  0  0  0  0  0  0  0
   60.6490   33.8500   46.4620 C   0  0  0  0  0  0  0  0  0  0  0  0
   59.9740   33.3130   47.5700 C   0  0  0  0  0  0  0  0  0  0  0  0
   58.5770   33.2780   47.5970 C   0  0  0  0  0  0  0  0  0  0  0  0
   57.8420   33.7930   46.5260 C   0  0  0  0  0  0  0  0  0  0  0  0
   58.5050   34.3570   45.4320 C   0  0  0  0  0  0  0  0  0  0  0  0
   59.9020   34.3870   45.3970 C   0  0  0  0  0  0  0  0  0  0  0  0
   63.5900   32.5740   48.0900 N   0  0  0  0  0  0  0  0  0  0  0  0
   63.7240   32.1070   49.4390 C   0  0  0  0  0  0  0  0  0  0  0  0
   64.9940   31.9050   49.9930 C   0  0  0  0  0  0  0  0  0  0  0  0
   65.1200   31.4650   51.3160 C   0  0  0  0  0  0  0  0  0  0  0  0
   63.9800   31.2120   52.0840 C   0  0  0  0  0  0  0  0  0  0  0  0
   62.7040   31.3990   51.5370 C   0  0  0  0  0  0  0  0  0  0  0  0
   61.5490   31.0700   52.3220 N   0  0  0  0  0  0  0  0  0  0  0  0
   60.7160   29.9170   52.1490 C   0  0  0  0  0  0  0  0  0  0  0  0
   60.1570   29.4190   53.1590 O   0  0  0  0  0  0  0  0  0  0  0  0
   60.4410   29.3350   50.8150 C   0  0  0  0  0  0  0  0  0  0  0  0
   60.9100   28.0560   50.4790 C   0  0  0  0  0  0  0  0  0  0  0  0
   60.7330   27.5510   49.1850 C   0  0  0  0  0  0  0  0  0  0  0  0
   60.0640   28.3100   48.2040 C   0  0  0  0  0  0  0  0  0  0  0  0
   59.9780   27.8610   46.8240 N   0  0  0  0  0  0  0  0  0  0  0  0
   60.2860   28.7460   45.6890 C   0  0  0  0  0  0  0  0  0  0  0  0
   59.0300   29.2890   45.0610 C   0  0  0  0  0  0  0  0  0  0  0  0
   58.3240   28.5270   44.1150 C   0  0  0  0  0  0  0  0  0  0  0  0
   57.1300   29.0060   43.5690 C   0  0  0  0  0  0  0  0  0  0  0  0
   56.6360   30.2550   43.9570 C   0  0  0  0  0  0  0  0  0  0  0  0
   57.3370   31.0250   44.8890 C   0  0  0  0  0  0  0  0  0  0  0  0
   58.5300   30.5440   45.4400 C   0  0  0  0  0  0  0  0  0  0  0  0
   59.5870   26.5030   46.5320 C   0  0  0  0  0  0  0  0  0  0  0  0
   60.4360   25.5760   46.6160 O   0  0  0  0  0  0  0  0  0  0  0  0
   58.2100   26.1740   46.1210 C   0  0  0  0  0  0  0  0  0  0  0  0
   57.8400   25.1250   45.2960 C   0  0  0  0  0  0  0  0  0  0  0  0
   56.4700   25.1880   45.1830 C   0  0  0  0  0  0  0  0  0  0  0  0
   56.0830   26.2630   45.9490 C   0  0  0  0  0  0  0  0  0  0  0  0
   54.7710   26.6860   46.1110 O   0  0  0  0  0  0  0  0  0  0  0  0
   57.1320   26.8730   46.5310 N   0  0  0  0  0  0  0  0  0  0  0  0
   59.5410   29.5660   48.5730 C   0  0  0  0  0  0  0  0  0  0  0  0
   59.7440   30.0790   49.8550 C   0  0  0  0  0  0  0  0  0  0  0  0
   62.5850   31.8190   50.2030 C   0  0  0  0  0  0  0  0  0  0  0  0
   62.5149   34.7454   45.9264 H   0  0  0  0  0  0  0  0  0  0  0  0
   62.4593   32.9440   45.7946 H   0  0  0  0  0  0  0  0  0  0  0  0
   60.5477   32.9178   48.4213 H   0  0  0  0  0  0  0  0  0  0  0  0
   58.0553   32.8443   48.4628 H   0  0  0  0  0  0  0  0  0  0  0  0
   56.7428   33.7547   46.5436 H   0  0  0  0  0  0  0  0  0  0  0  0
   57.9260   34.7781   44.5969 H   0  0  0  0  0  0  0  0  0  0  0  0
   60.4193   34.8318   44.5341 H   0  0  0  0  0  0  0  0  0  0  0  0
   64.1450   32.1140   47.3320 H   0  0  0  0  0  0  0  0  0  0  0  0
   65.8935   32.0922   49.3881 H   0  0  0  0  0  0  0  0  0  0  0  0
   66.1190   31.3180   51.7523 H   0  0  0  0  0  0  0  0  0  0  0  0
   64.0852   30.8646   53.1224 H   0  0  0  0  0  0  0  0  0  0  0  0
   61.4207   27.4452   51.2380 H   0  0  0  0  0  0  0  0  0  0  0  0
   61.1197   26.5528   48.9319 H   0  0  0  0  0  0  0  0  0  0  0  0
   60.8999   29.5860   46.0461 H   0  0  0  0  0  0  0  0  0  0  0  0
   60.8282   28.1618   44.9309 H   0  0  0  0  0  0  0  0  0  0  0  0
   58.7136   27.5470   43.8021 H   0  0  0  0  0  0  0  0  0  0  0  0
   56.5791   28.4005   42.8342 H   0  0  0  0  0  0  0  0  0  0  0  0
   55.6955   30.6317   43.5286 H   0  0  0  0  0  0  0  0  0  0  0  0
   56.9507   32.0100   45.1897 H   0  0  0  0  0  0  0  0  0  0  0  0
   59.0785   31.1528   46.1739 H   0  0  0  0  0  0  0  0  0  0  0  0
   58.5078   24.3886   44.8251 H   0  0  0  0  0  0  0  0  0  0  0  0
   55.8197   24.5182   44.6012 H   0  0  0  0  0  0  0  0  0  0  0  0
   58.9648   30.1500   47.8402 H   0  0  0  0  0  0  0  0  0  0  0  0
   59.3538   31.0746   50.1131 H   0  0  0  0  0  0  0  0  0  0  0  0
   61.5870   31.9232   49.7524 H   0  0  0  0  0  0  0  0  0  0  0  0
  1  2  2  0
  2  3  1  0
  3  4  1  0
  4  5  2  0
  5  6  1  0
  6  7  2  0
  7  8  1  0
  8  9  2  0
  2 10  1  0
 10 11  1  0
 11 12  2  0
 12 13  1  0
 13 14  2  0
 14 15  1  0
 15 16  1  0
 16 17  1  0
 17 18  2  0
 17 19  1  0
 19 20  2  0
 20 21  1  0
 21 22  2  0
 22 23  1  0
 23 24  1  0
 24 25  1  0
 25 26  2  0
 26 27  1  0
 27 28  2  0
 28 29  1  0
 29 30  2  0
 23 31  1  0
 31 32  2  0
 31 33  1  0
 33 34  2  0
 34 35  1  0
 35 36  2  0
 36 37  1  0
 36 38  1  0
 22 39  1  0
 39 40  2  0
 15 41  2  0
  9  4  1  0
 41 11  1  0
 40 19  1  0
 30 25  1  0
 38 33  1  0
  3 42  1  0
  3 43  1  0
  5 44  1  0
  6 45  1  0
  7 46  1  0
  8 47  1  0
  9 48  1  0
 10 49  1  0
 12 50  1  0
 13 51  1  0
 14 52  1  0
 20 53  1  0
 21 54  1  0
 24 55  1  0
 24 56  1  0
 26 57  1  0
 27 58  1  0
 28 59  1  0
 29 60  1  0
 30 61  1  0
 34 62  1  0
 35 63  1  0
 39 64  1  0
 40 65  1  0
 41 66  1  0
M  CHG  3  16  -1  37  -1  38  -1
M  END
>  <UniqueID>  (15) 
15

>  <SMILES>  (15) 
O=C(Cc1ccccc1)Nc1cccc([N-]C(=O)c2ccc(N(Cc3ccccc3)C(=O)c3ccc([O-])[n-]3)cc2)c1

>  <Energy>  (15) 
107.69039073418381

>  <Genealogy>  (15) 
O=C(Cc1ccccc1)Nc1cccc([N-]C(=O)c2ccc(N(Cc3ccccc3)C(=O)c3ccc([O-])[n-]3)cc2)c1 (protonated)
O=C(Cc1ccccc1)Nc1cccc([N-]C(=O)c2ccc(N(Cc3ccccc3)C(=O)c3ccc([O-])[n-]3)cc2)c1 (3D coordinates assigned)
O=C(Cc1ccccc1)Nc1cccc([N-]C(=O)c2ccc(N(Cc3ccccc3)C(=O)c3ccc([O-])[n-]3)cc2)c1 (optimized conformer: 107.69039073418381 kcal/mol)

>  <smiles>  (15) 
O=C(Cc1ccccc1)Nc1cccc(NC(=O)c2ccc(N(Cc3ccccc3)C(=O)c3ccc(O)[nH]3)cc2)c1

>  <score_type>  (15) 
oracle

>  <origin>  (15) 
adg

>  <m_score__min__energy>  (15) 
-16.800000000000001

>  <m_primary>  (15) 
energy

$$$$
15:0
     RDKit          3D

 54 57  0  0  0  0  0  0  0  0999 V2000
   61.5510   31.0240   46.4050 N   0  0  0  0  0  0  0  0  0  0  0  0
   61.0680   30.8250   47.7490 C   0  0  0  0  0  0  0  0  0  0  0  0
   59.7530   30.3430   47.9450 C   0  0  0  0  0  0  0  0  0  0  0  0
   58.8770   30.0600   46.8370 N   0  0  0  0  0  0  0  0  0  0  0  0
   57.7800   31.0040   46.5670 C   0  0  0  0  0  0  0  0  0  0  0  0
   57.5360   31.1180   45.0920 C   0  0  0  0  0  0  0  0  0  0  0  0
   58.3680   31.9050   44.2800 C   0  0  0  0  0  0  0  0  0  0  0  0
   58.1280   31.9590   42.9050 C   0  0  0  0  0  0  0  0  0  0  0  0
   57.0740   31.2300   42.3540 C   0  0  0  0  0  0  0  0  0  0  0  0
   56.2640   30.4620   43.1920 C   0  0  0  0  0  0  0  0  0  0  0  0
   56.5100   30.4230   44.5280 N   0  0  0  0  0  0  0  0  0  0  0  0
   59.0200   28.8060   46.1280 C   0  0  0  0  0  0  0  0  0  0  0  0
   60.0570   28.5890   45.4420 O   0  0  0  0  0  0  0  0  0  0  0  0
   58.0020   27.7440   46.1960 C   0  0  0  0  0  0  0  0  0  0  0  0
   58.2630   26.5340   46.8520 C   0  0  0  0  0  0  0  0  0  0  0  0
   57.2830   25.5410   46.8960 C   0  0  0  0  0  0  0  0  0  0  0  0
   56.0410   25.7780   46.2990 C   0  0  0  0  0  0  0  0  0  0  0  0
   55.1480   24.8920   46.3230 O   0  0  0  0  0  0  0  0  0  0  0  0
   55.7950   26.9690   45.6920 N   0  0  0  0  0  0  0  0  0  0  0  0
   56.7330   27.9500   45.6350 C   0  0  0  0  0  0  0  0  0  0  0  0
   59.3160   30.1040   49.2490 C   0  0  0  0  0  0  0  0  0  0  0  0
   58.1460   29.6880   49.4660 O   0  0  0  0  0  0  0  0  0  0  0  0
   60.1510   30.3160   50.2900 N   0  0  0  0  0  0  0  0  0  0  0  0
   61.4130   30.7750   50.1070 C   0  0  0  0  0  0  0  0  0  0  0  0
   62.1460   30.9360   51.1190 O   0  0  0  0  0  0  0  0  0  0  0  0
   61.8780   31.0590   48.8440 N   0  0  0  0  0  0  0  0  0  0  0  0
   63.2590   31.5610   48.6870 C   0  0  0  0  0  0  0  0  0  0  0  0
   63.2850   33.0920   48.7600 C   0  0  0  0  0  0  0  0  0  0  0  0
   61.9960   33.6690   48.2430 C   0  0  0  0  0  0  0  0  0  0  0  0
   60.9440   33.9560   49.1280 C   0  0  0  0  0  0  0  0  0  0  0  0
   59.7300   34.4550   48.6400 C   0  0  0  0  0  0  0  0  0  0  0  0
   59.5580   34.6630   47.2690 C   0  0  0  0  0  0  0  0  0  0  0  0
   60.5970   34.3670   46.3810 C   0  0  0  0  0  0  0  0  0  0  0  0
   61.8120   33.8680   46.8650 C   0  0  0  0  0  0  0  0  0  0  0  0
   61.2210   30.4670   45.5890 H   0  0  0  0  0  0  0  0  0  0  0  0
   62.2170   31.7930   46.1700 H   0  0  0  0  0  0  0  0  0  0  0  0
   56.8640   30.6446   47.0587 H   0  0  0  0  0  0  0  0  0  0  0  0
   58.0577   31.9935   46.9590 H   0  0  0  0  0  0  0  0  0  0  0  0
   59.2000   32.4730   44.7218 H   0  0  0  0  0  0  0  0  0  0  0  0
   58.7691   32.5754   42.2577 H   0  0  0  0  0  0  0  0  0  0  0  0
   56.8833   31.2601   41.2711 H   0  0  0  0  0  0  0  0  0  0  0  0
   55.4257   29.8878   42.7707 H   0  0  0  0  0  0  0  0  0  0  0  0
   59.2387   26.3667   47.3317 H   0  0  0  0  0  0  0  0  0  0  0  0
   57.4857   24.5820   47.3952 H   0  0  0  0  0  0  0  0  0  0  0  0
   56.4969   28.9077   45.1480 H   0  0  0  0  0  0  0  0  0  0  0  0
   63.8874   31.1495   49.4906 H   0  0  0  0  0  0  0  0  0  0  0  0
   63.6432   31.2449   47.7059 H   0  0  0  0  0  0  0  0  0  0  0  0
   63.4257   33.4016   49.8061 H   0  0  0  0  0  0  0  0  0  0  0  0
   64.1136   33.4624   48.1385 H   0  0  0  0  0  0  0  0  0  0  0  0
   61.0740   33.7884   50.2074 H   0  0  0  0  0  0  0  0  0  0  0  0
   58.9104   34.6836   49.3371 H   0  0  0  0  0  0  0  0  0  0  0  0
   58.6053   35.0596   46.8882 H   0  0  0  0  0  0  0  0  0  0  0  0
   60.4594   34.5264   45.3013 H   0  0  0  0  0  0  0  0  0  0  0  0
   62.6255   33.6309   46.1636 H   0  0  0  0  0  0  0  0  0  0  0  0
  1  2  1  0
  2  3  2  0
  3  4  1  0
  4  5  1  0
  5  6  1  0
  6  7  2  0
  7  8  1  0
  8  9  2  0
  9 10  1  0
 10 11  2  0
  4 12  1  0
 12 13  2  0
 12 14  1  0
 14 15  1  0
 15 16  2  0
 16 17  1  0
 17 18  2  0
 17 19  1  0
 19 20  1  0
  3 21  1  0
 21 22  2  0
 21 23  1  0
 23 24  1  0
 24 25  2  0
 24 26  1  0
 26 27  1  0
 27 28  1  0
 28 29  1  0
 29 30  2  0
 30 31  1  0
 31 32  2  0
 32 33  1  0
 33 34  2  0
 26  2  1  0
 34 29  1  0
 11  6  1  0
 20 14  2  0
  1 35  1  0
  1 36  1  0
  5 37  1  0
  5 38  1  0
  7 39  1  0
  8 40  1  0
  9 41  1  0
 10 42  1  0
 15 43  1  0
 16 44  1  0
 20 45  1  0
 27 46  1  0
 27 47  1  0
 28 48  1  0
 28 49  1  0
 30 50  1  0
 31 51  1  0
 32 52  1  0
 33 53  1  0
 34 54  1  0
M  CHG  2  19  -1  23  -1
M  END
>  <UniqueID>  (16) 
16

>  <SMILES>  (16) 
Nc1c(N(Cc2ccccn2)C(=O)c2ccc(=O)[n-]c2)c(=O)[n-]c(=O)n1CCc1ccccc1

>  <Energy>  (16) 
75.36420876949987

>  <Genealogy>  (16) 
Nc1c(N(Cc2ccccn2)C(=O)c2ccc(=O)[n-]c2)c(=O)[n-]c(=O)n1CCc1ccccc1 (protonated)
Nc1c(N(Cc2ccccn2)C(=O)c2ccc(=O)[n-]c2)c(=O)[n-]c(=O)n1CCc1ccccc1 (3D coordinates assigned)
Nc1c(N(Cc2ccccn2)C(=O)c2ccc(=O)[n-]c2)c(=O)[n-]c(=O)n1CCc1ccccc1 (optimized conformer: 75.36420876949987 kcal/mol)

>  <smiles>  (16) 
Nc1c(N(Cc2ccccn2)C(=O)c2ccc(=O)[nH]c2)c(=O)[nH]c(=O)n1CCc1ccccc1

>  <score_type>  (16) 
oracle

>  <origin>  (16) 
adg

>  <m_score__min__energy>  (16) 
-12.32

>  <m_primary>  (16) 
energy

$$$$
16:0
     RDKit          3D

 61 64  0  0  0  0  0  0  0  0999 V2000
   60.2980   32.3680   49.3900 H   0  0  0  0  0  0  0  0  0  0  0  0
   61.2660   32.5300   49.2430 O   0  0  0  0  0  0  0  0  0  0  0  0
   61.3930   33.8600   48.8070 C   0  0  1  0  0  0  0  0  0  0  0  0
   62.0931   34.3969   49.4640 H   0  0  0  0  0  0  0  0  0  0  0  0
   61.9490   33.8720   47.3760 C   0  0  0  0  0  0  0  0  0  0  0  0
   62.1099   34.9160   47.0693 H   0  0  0  0  0  0  0  0  0  0  0  0
   62.8890   33.3006   47.3789 H   0  0  0  0  0  0  0  0  0  0  0  0
   60.9960   33.2000   46.3630 C   0  0  0  0  0  0  0  0  0  0  0  0
   61.1073   33.7058   45.3926 H   0  0  0  0  0  0  0  0  0  0  0  0
   61.2740   32.1368   46.3152 H   0  0  0  0  0  0  0  0  0  0  0  0
   59.5080   33.2610   46.7780 C   0  0  2  0  0  0  0  0  0  0  0  0
   59.2748   32.4031   47.4258 H   0  0  0  0  0  0  0  0  0  0  0  0
   58.6680   33.2020   45.5770 N   0  0  0  0  0  0  0  0  0  0  0  0
   58.1590   32.1430   45.0120 C   0  0  0  0  0  0  0  0  0  0  0  0
   57.6360   32.2670   43.7630 N   0  0  0  0  0  0  0  0  0  0  0  0
   57.0930   31.2170   43.0940 C   0  0  0  0  0  0  0  0  0  0  0  0
   56.6791   31.3638   42.0855 H   0  0  0  0  0  0  0  0  0  0  0  0
   57.0590   29.9530   43.6830 C   0  0  0  0  0  0  0  0  0  0  0  0
   56.6235   29.1006   43.1409 H   0  0  0  0  0  0  0  0  0  0  0  0
   57.5840   29.7770   44.9710 C   0  0  0  0  0  0  0  0  0  0  0  0
   57.5590   28.4450   45.6240 C   0  0  0  0  0  0  0  0  0  0  0  0
   58.5820   28.0700   46.5030 C   0  0  0  0  0  0  0  0  0  0  0  0
   59.4209   28.7559   46.6920 H   0  0  0  0  0  0  0  0  0  0  0  0
   58.5410   26.8180   47.1460 C   0  0  0  0  0  0  0  0  0  0  0  0
   59.4650   26.4390   47.9910 N   0  0  0  0  0  0  0  0  0  0  0  0
   60.0410   27.1930   49.0710 C   0  0  0  0  0  0  0  0  0  0  0  0
   60.8180   26.5290   50.0270 C   0  0  0  0  0  0  0  0  0  0  0  0
   61.0225   25.4539   49.9159 H   0  0  0  0  0  0  0  0  0  0  0  0
   61.3350   27.2260   51.1220 C   0  0  0  0  0  0  0  0  0  0  0  0
   61.9564   26.7019   51.8630 H   0  0  0  0  0  0  0  0  0  0  0  0
   61.0640   28.5870   51.2770 C   0  0  0  0  0  0  0  0  0  0  0  0
   61.4834   29.1330   52.1349 H   0  0  0  0  0  0  0  0  0  0  0  0
   60.2620   29.2620   50.3480 C   0  0  0  0  0  0  0  0  0  0  0  0
   60.0060   30.6590   50.5490 N   0  0  0  0  0  0  0  0  0  0  0  0
   58.4390   31.3980   50.6390 S   0  0  0  0  0  0  0  0  0  0  0  0
   58.1350   32.0460   49.3170 O   0  0  0  0  0  0  0  0  0  0  0  0
   57.3940   30.3530   50.9140 O   0  0  0  0  0  0  0  0  0  0  0  0
   58.4130   32.6470   51.9070 C   0  0  0  0  0  0  0  0  0  0  0  0
   58.4230   32.1657   52.8961 H   0  0  0  0  0  0  0  0  0  0  0  0
   59.2979   33.2923   51.8043 H   0  0  0  0  0  0  0  0  0  0  0  0
   57.5020   33.2549   51.8043 H   0  0  0  0  0  0  0  0  0  0  0  0
   59.7340   28.5530   49.2550 C   0  0  0  0  0  0  0  0  0  0  0  0
   59.0758   29.0658   48.5383 H   0  0  0  0  0  0  0  0  0  0  0  0
   57.4860   25.9360   46.8420 C   0  0  0  0  0  0  0  0  0  0  0  0
   57.4380   24.6230   47.4560 C   0  0  0  0  0  0  0  0  0  0  0  0
   57.4000   23.5760   47.9460 N   0  0  0  0  0  0  0  0  0  0  0  0
   56.4700   26.3450   45.9520 C   0  0  0  0  0  0  0  0  0  0  0  0
   55.3240   25.4270   45.6140 C   0  0  0  0  0  0  0  0  0  0  0  0
   54.8636   25.0582   46.5424 H   0  0  0  0  0  0  0  0  0  0  0  0
   54.5744   25.9773   45.0264 H   0  0  0  0  0  0  0  0  0  0  0  0
   55.6974   24.5754   45.0264 H   0  0  0  0  0  0  0  0  0  0  0  0
   56.5320   27.5810   45.3760 N   0  0  0  0  0  0  0  0  0  0  0  0
   55.7840   27.8640   44.7040 H   0  0  0  0  0  0  0  0  0  0  0  0
   58.1370   30.8800   45.6400 C   0  0  0  0  0  0  0  0  0  0  0  0
   58.5522   30.7599   46.6515 H   0  0  0  0  0  0  0  0  0  0  0  0
   59.2250   34.5490   47.5710 C   0  0  0  0  0  0  0  0  0  0  0  0
   59.5021   35.4167   46.9543 H   0  0  0  0  0  0  0  0  0  0  0  0
   58.1540   34.5724   47.8208 H   0  0  0  0  0  0  0  0  0  0  0  0
   60.0300   34.5910   48.8860 C   0  0  0  0  0  0  0  0  0  0  0  0
   60.2154   35.6437   49.1459 H   0  0  0  0  0  0  0  0  0  0  0  0
   59.4299   34.0695   49.6463 H   0  0  0  0  0  0  0  0  0  0  0  0
  1  2  1  0
  2  3  1  0
  3  4  1  1
  3  5  1  0
  5  6  1  0
  5  7  1  0
  5  8  1  0
  8  9  1  0
  8 10  1  0
  8 11  1  0
 11 12  1  1
 11 13  1  0
 13 14  2  3
 14 15  1  0
 15 16  1  0
 16 17  1  0
 16 18  2  0
 18 19  1  0
 18 20  1  0
 20 21  1  0
 21 22  2  0
 22 23  1  0
 22 24  1  0
 24 25  2  0
 25 26  1  0
 26 27  2  0
 27 28  1  0
 27 29  1  0
 29 30  1  0
 29 31  2  0
 31 32  1  0
 31 33  1  0
 33 34  1  0
 34 35  1  0
 35 36  2  0
 35 37  2  0
 35 38  1  0
 38 39  1  0
 38 40  1  0
 38 41  1  0
 33 42  2  0
 42 43  1  0
 24 44  1  0
 44 45  1  0
 45 46  3  0
 44 47  2  0
 47 48  1  0
 48 49  1  0
 48 50  1  0
 48 51  1  0
 47 52  1  0
 52 53  1  0
 20 54  2  0
 54 55  1  0
 11 56  1  0
 56 57  1  0
 56 58  1  0
 56 59  1  0
 59 60  1  0
 59 61  1  0
 59  3  1  0
 54 14  1  0
 52 21  1  0
 42 26  1  0
M  CHG  2  15  -1  34  -1
M  END
>  <UniqueID>  (17) 
17

>  <SMILES>  (17) 
Cc1[nH]c(-c2cc[n-]c(=NC3CCC(O)CC3)c2)c/c(=N\c2cccc([N-]S(C)(=O)=O)c2)c1C#N

>  <Energy>  (17) 
84.03063904010942

>  <Genealogy>  (17) 
Cc1[nH]c(-c2cc[n-]c(=NC3CCC(O)CC3)c2)cc(=Nc2cccc([N-]S(C)(=O)=O)c2)c1C#N (protonated)
Cc1[nH]c(-c2cc[n-]c(=NC3CCC(O)CC3)c2)c/c(=N\c2cccc([N-]S(C)(=O)=O)c2)c1C#N (cis-trans isomerization)
Cc1[nH]c(-c2cc[n-]c(=NC3CCC(O)CC3)c2)c/c(=N\c2cccc([N-]S(C)(=O)=O)c2)c1C#N (3D coordinates assigned)
Cc1[nH]c(-c2cc[n-]c(=NC3CCC(O)CC3)c2)c/c(=N\c2cccc([N-]S(C)(=O)=O)c2)c1C#N (nonaromatic ring conformer: 84.03063904010942 kcal/mol)

>  <smiles>  (17) 
Cc1[nH]c(-c2cc[nH]c(=NC3CCC(O)CC3)c2)cc(=Nc2cccc(NS(C)(=O)=O)c2)c1C#N

>  <score_type>  (17) 
oracle

>  <origin>  (17) 
adg

>  <m_score__min__energy>  (17) 
-13.42

>  <m_primary>  (17) 
energy

$$$$
17:0
     RDKit          3D

 45 47  0  0  0  0  0  0  0  0999 V2000
   63.3220   33.8990   46.3990 C   0  0  0  0  0  0  0  0  0  0  0  0
   63.6000   32.9160   47.2540 C   0  0  0  0  0  0  0  0  0  0  0  0
   62.5890   31.9450   47.7070 C   0  0  0  0  0  0  0  0  0  0  0  0
   61.7340   31.3570   46.8260 N   0  0  0  0  0  0  0  0  0  0  0  0
   60.8030   30.4600   47.2420 C   0  0  0  0  0  0  0  0  0  0  0  0
   60.7000   30.1300   48.5990 C   0  0  0  0  0  0  0  0  0  0  0  0
   59.6860   29.1580   49.0700 C   0  0  0  0  0  0  0  0  0  0  0  0
   59.1520   29.3210   50.1980 O   0  0  0  0  0  0  0  0  0  0  0  0
   59.2550   28.0570   48.2560 N   0  0  0  0  0  0  0  0  0  0  0  0
   58.9150   28.1220   46.8640 C   0  0  0  0  0  0  0  0  0  0  0  0
   59.6450   27.4160   45.8930 C   0  0  0  0  0  0  0  0  0  0  0  0
   59.2920   27.5070   44.5440 C   0  0  0  0  0  0  0  0  0  0  0  0
   58.1960   28.2810   44.1570 C   0  0  0  0  0  0  0  0  0  0  0  0
   57.4300   28.9520   45.1220 C   0  0  0  0  0  0  0  0  0  0  0  0
   56.2690   29.7610   44.7030 C   0  0  0  0  0  0  0  0  0  0  0  0
   55.1590   29.1920   44.5310 O   0  0  0  0  0  0  0  0  0  0  0  0
   56.3530   31.1810   44.5160 N   0  0  0  0  0  0  0  0  0  0  0  0
   57.5790   31.9340   44.2680 C   0  0  0  0  0  0  0  0  0  0  0  0
   57.4340   33.3790   44.7520 C   0  0  0  0  0  0  0  0  0  0  0  0
   58.2240   33.5950   46.0150 C   0  0  0  0  0  0  0  0  0  0  0  0
   57.9980   32.7900   47.1410 C   0  0  0  0  0  0  0  0  0  0  0  0
   58.7640   32.9880   48.2920 C   0  0  0  0  0  0  0  0  0  0  0  0
   59.7310   33.9440   48.3120 N   0  0  0  0  0  0  0  0  0  0  0  0
   59.9820   34.7290   47.2300 C   0  0  0  0  0  0  0  0  0  0  0  0
   59.2350   34.5680   46.0600 C   0  0  0  0  0  0  0  0  0  0  0  0
   57.8010   28.8760   46.4730 C   0  0  0  0  0  0  0  0  0  0  0  0
   61.6040   30.7330   49.4850 C   0  0  0  0  0  0  0  0  0  0  0  0
   62.5220   31.6210   49.0250 N   0  0  0  0  0  0  0  0  0  0  0  0
   64.1120   34.5996   46.0906 H   0  0  0  0  0  0  0  0  0  0  0  0
   62.3024   34.0101   46.0014 H   0  0  0  0  0  0  0  0  0  0  0  0
   64.6270   32.8256   47.6376 H   0  0  0  0  0  0  0  0  0  0  0  0
   60.1279   29.9913   46.5109 H   0  0  0  0  0  0  0  0  0  0  0  0
   60.4971   26.7897   46.1957 H   0  0  0  0  0  0  0  0  0  0  0  0
   59.8786   26.9679   43.7855 H   0  0  0  0  0  0  0  0  0  0  0  0
   57.9325   28.3648   43.0923 H   0  0  0  0  0  0  0  0  0  0  0  0
   58.4115   31.4553   44.8045 H   0  0  0  0  0  0  0  0  0  0  0  0
   57.7764   31.9417   43.1859 H   0  0  0  0  0  0  0  0  0  0  0  0
   57.8048   34.0606   43.9723 H   0  0  0  0  0  0  0  0  0  0  0  0
   56.3723   33.5797   44.9584 H   0  0  0  0  0  0  0  0  0  0  0  0
   57.2237   32.0090   47.1178 H   0  0  0  0  0  0  0  0  0  0  0  0
   58.5848   32.3696   49.1839 H   0  0  0  0  0  0  0  0  0  0  0  0
   60.7737   35.4913   47.2759 H   0  0  0  0  0  0  0  0  0  0  0  0
   59.4375   35.1984   45.1816 H   0  0  0  0  0  0  0  0  0  0  0  0
   57.2123   29.4129   47.2314 H   0  0  0  0  0  0  0  0  0  0  0  0
   61.5693   30.4857   50.5563 H   0  0  0  0  0  0  0  0  0  0  0  0
  1  2  2  0
  2  3  1  0
  3  4  2  0
  4  5  1  0
  5  6  2  0
  6  7  1  0
  7  8  2  0
  7  9  1  0
  9 10  1  0
 10 11  2  0
 11 12  1  0
 12 13  2  0
 13 14  1  0
 14 15  1  0
 15 16  2  0
 15 17  1  0
 17 18  1  0
 18 19  1  0
 19 20  1  0
 20 21  2  0
 21 22  1  0
 22 23  2  0
 23 24  1  0
 24 25  2  0
 14 26  2  0
  6 27  1  0
 27 28  2  0
 28  3  1  0
 26 10  1  0
 25 20  1  0
  1 29  1  0
  1 30  1  0
  2 31  1  0
  5 32  1  0
 11 33  1  0
 12 34  1  0
 13 35  1  0
 18 36  1  0
 18 37  1  0
 19 38  1  0
 19 39  1  0
 21 40  1  0
 22 41  1  0
 24 42  1  0
 25 43  1  0
 26 44  1  0
 27 45  1  0
M  CHG  2   9  -1  17  -1
M  END
>  <UniqueID>  (18) 
18

>  <SMILES>  (18) 
C=Cc1ncc(C(=O)[N-]c2cccc(C(=O)[N-]CCc3ccncc3)c2)cn1

>  <Energy>  (18) 
55.726221238922086

>  <Genealogy>  (18) 
C=Cc1ncc(C(=O)[N-]c2cccc(C(=O)[N-]CCc3ccncc3)c2)cn1 (protonated)
C=Cc1ncc(C(=O)[N-]c2cccc(C(=O)[N-]CCc3ccncc3)c2)cn1 (3D coordinates assigned)
C=Cc1ncc(C(=O)[N-]c2cccc(C(=O)[N-]CCc3ccncc3)c2)cn1 (optimized conformer: 55.726221238922086 kcal/mol)

>  <smiles>  (18) 
C=Cc1ncc(C(=O)Nc2cccc(C(=O)NCCc3ccncc3)c2)cn1

>  <score_type>  (18) 
oracle

>  <origin>  (18) 
adg

>  <m_score__min__energy>  (18) 
-10.65

>  <m_primary>  (18) 
energy

$$$$
18:0
     RDKit          3D

 47 50  0  0  0  0  0  0  0  0999 V2000
   59.7340   36.1480   47.1450 H   0  0  0  0  0  0  0  0  0  0  0  0
   60.3880   35.3440   47.0080 N   0  0  0  0  0  0  0  0  0  0  0  0
   59.9660   34.1280   46.8450 C   0  0  0  0  0  0  0  0  0  0  0  0
   60.5540   33.0640   47.5650 C   0  0  0  0  0  0  0  0  0  0  0  0
   61.7000   33.2610   48.4870 C   0  0  0  0  0  0  0  0  0  0  0  0
   61.5740   33.8360   50.0770 S   0  0  0  0  0  0  0  0  0  0  0  0
   63.2140   33.7300   50.4170 C   0  0  0  0  0  0  0  0  0  0  0  0
   63.8750   34.0600   51.5990 C   0  0  0  0  0  0  0  0  0  0  0  0
   63.1400   34.5590   52.6840 O   0  0  0  0  0  0  0  0  0  0  0  0
   62.4930   33.7440   53.6550 C   0  0  0  0  0  0  0  0  0  0  0  0
   62.7662   34.0882   54.6634 H   0  0  0  0  0  0  0  0  0  0  0  0
   61.4029   33.8154   53.5260 H   0  0  0  0  0  0  0  0  0  0  0  0
   62.8098   32.6985   53.5260 H   0  0  0  0  0  0  0  0  0  0  0  0
   65.2760   33.8740   51.6400 C   0  0  0  0  0  0  0  0  0  0  0  0
   65.8336   34.1359   52.5513 H   0  0  0  0  0  0  0  0  0  0  0  0
   65.9670   33.3550   50.5220 C   0  0  0  0  0  0  0  0  0  0  0  0
   67.4580   33.1980   50.5680 C   0  0  0  0  0  0  0  0  0  0  0  0
   67.7908   33.1630   51.6158 H   0  0  0  0  0  0  0  0  0  0  0  0
   67.7442   32.2648   50.0609 H   0  0  0  0  0  0  0  0  0  0  0  0
   67.9323   34.0512   50.0609 H   0  0  0  0  0  0  0  0  0  0  0  0
   65.2620   33.0480   49.3400 C   0  0  0  0  0  0  0  0  0  0  0  0
   65.7940   32.6641   48.4571 H   0  0  0  0  0  0  0  0  0  0  0  0
   63.8800   33.2380   49.3060 C   0  0  0  0  0  0  0  0  0  0  0  0
   63.0420   32.9690   48.2190 C   0  0  0  0  0  0  0  0  0  0  0  0
   63.3991   32.5711   47.2577 H   0  0  0  0  0  0  0  0  0  0  0  0
   60.0220   31.7750   47.4040 C   0  0  0  0  0  0  0  0  0  0  0  0
   60.4528   30.9357   47.9696 H   0  0  0  0  0  0  0  0  0  0  0  0
   58.9490   31.5430   46.5320 C   0  0  0  0  0  0  0  0  0  0  0  0
   58.3920   30.1780   46.3570 C   0  0  0  0  0  0  0  0  0  0  0  0
   57.5780   29.8750   45.2490 C   0  0  0  0  0  0  0  0  0  0  0  0
   57.3533   30.6556   44.5073 H   0  0  0  0  0  0  0  0  0  0  0  0
   57.0530   28.5900   45.0840 C   0  0  0  0  0  0  0  0  0  0  0  0
   56.4154   28.3657   44.2161 H   0  0  0  0  0  0  0  0  0  0  0  0
   57.3360   27.5870   46.0200 C   0  0  0  0  0  0  0  0  0  0  0  0
   56.6630   25.9730   45.8180 S   0  0  0  0  0  0  0  0  0  0  0  0
   57.2260   25.0520   46.8630 O   0  0  0  0  0  0  0  0  0  0  0  0
   57.0210   25.4380   44.4600 O   0  0  0  0  0  0  0  0  0  0  0  0
   54.9440   26.0460   45.9760 N   0  0  0  0  0  0  0  0  0  0  0  0
   54.7150   26.9720   46.4020 H   0  0  0  0  0  0  0  0  0  0  0  0
   58.1390   27.8820   47.1280 C   0  0  0  0  0  0  0  0  0  0  0  0
   58.3569   27.1000   47.8703 H   0  0  0  0  0  0  0  0  0  0  0  0
   58.6650   29.1660   47.2950 C   0  0  0  0  0  0  0  0  0  0  0  0
   59.2978   29.3870   48.1672 H   0  0  0  0  0  0  0  0  0  0  0  0
   58.4150   32.6320   45.8270 C   0  0  0  0  0  0  0  0  0  0  0  0
   57.5770   32.4743   45.1321 H   0  0  0  0  0  0  0  0  0  0  0  0
   58.9250   33.8800   45.9960 N   0  0  0  0  0  0  0  0  0  0  0  0
   58.4870   34.6660   45.4640 H   0  0  0  0  0  0  0  0  0  0  0  0
  1  2  1  0
  2  3  2  0
  3  4  1  0
  4  5  1  0
  5  6  1  0
  6  7  1  0
  7  8  2  0
  8  9  1  0
  9 10  1  0
 10 11  1  0
 10 12  1  0
 10 13  1  0
  8 14  1  0
 14 15  1  0
 14 16  2  0
 16 17  1  0
 17 18  1  0
 17 19  1  0
 17 20  1  0
 16 21  1  0
 21 22  1  0
 21 23  2  0
 23 24  1  0
 24 25  1  0
  4 26  2  0
 26 27  1  0
 26 28  1  0
 28 29  1  0
 29 30  2  0
 30 31  1  0
 30 32  1  0
 32 33  1  0
 32 34  2  0
 34 35  1  0
 35 36  2  0
 35 37  2  0
 35 38  1  0
 38 39  1  0
 34 40  1  0
 40 41  1  0
 40 42  2  0
 42 43  1  0
 28 44  2  0
 44 45  1  0
 44 46  1  0
 46 47  1  0
 46  3  1  0
 24  5  2  0
 42 29  1  0
 23  7  1  0
M  CHG  1  38  -1
M  END
>  <UniqueID>  (19) 
19

>  <SMILES>  (19) 
[H]/N=c1\[nH]cc(-c2ccc(S([NH-])(=O)=O)cc2)cc1-c1cc2cc(C)cc(OC)c2s1

>  <Energy>  (19) 
91.43152383581901

>  <Genealogy>  (19) 
COc1cc(C)cc2cc(-c3cc(-c4ccc(S([NH-])(=O)=O)cc4)c[nH]c3=N)sc12 (protonated)
[H]/N=c1\[nH]cc(-c2ccc(S([NH-])(=O)=O)cc2)cc1-c1cc2cc(C)cc(OC)c2s1 (cis-trans isomerization)
[H]/N=c1\[nH]cc(-c2ccc(S([NH-])(=O)=O)cc2)cc1-c1cc2cc(C)cc(OC)c2s1 (3D coordinates assigned)
[H]/N=c1\[nH]cc(-c2ccc(S([NH-])(=O)=O)cc2)cc1-c1cc2cc(C)cc(OC)c2s1 (optimized conformer: 91.43152383581901 kcal/mol)

>  <smiles>  (19) 
COc1cc(C)cc2cc(-c3cc(-c4ccc(S(N)(=O)=O)cc4)c[nH]c3=N)sc12

>  <score_type>  (19) 
oracle

>  <origin>  (19) 
adg

>  <m_score__min__energy>  (19) 
-10.81

>  <m_primary>  (19) 
energy

$$$$
19:0
     RDKit          3D

 43 47  0  0  0  0  0  0  0  0999 V2000
   57.2480   32.6340   40.5780 C   0  0  0  0  0  0  0  0  0  0  0  0
   58.4890   32.7510   41.4550 C   0  0  0  0  0  0  0  0  0  0  0  0
   58.2010   32.2830   42.8120 N   0  0  0  0  0  0  0  0  0  0  0  0
   57.7000   31.0860   43.0950 N   0  0  0  0  0  0  0  0  0  0  0  0
   57.5880   30.9560   44.4370 C   0  0  0  0  0  0  0  0  0  0  0  0
   57.1920   29.7080   45.1110 C   0  0  0  0  0  0  0  0  0  0  0  0
   57.8810   29.0420   46.0390 C   0  0  0  0  0  0  0  0  0  0  0  0
   59.2290   29.3720   46.5480 C   0  0  0  0  0  0  0  0  0  0  0  0
   60.3950   29.5000   45.7960 C   0  0  0  0  0  0  0  0  0  0  0  0
   61.4260   29.8780   46.5850 N   0  0  0  0  0  0  0  0  0  0  0  0
   60.9260   29.9900   47.8280 C   0  0  0  0  0  0  0  0  0  0  0  0
   61.6020   30.4060   48.9770 C   0  0  0  0  0  0  0  0  0  0  0  0
   60.8690   30.5150   50.1720 C   0  0  0  0  0  0  0  0  0  0  0  0
   59.4870   30.2230   50.1900 C   0  0  0  0  0  0  0  0  0  0  0  0
   58.8280   29.8130   49.0140 C   0  0  0  0  0  0  0  0  0  0  0  0
   59.5870   29.6890   47.8470 C   0  0  0  0  0  0  0  0  0  0  0  0
   57.1150   27.8390   46.3620 C   0  0  0  0  0  0  0  0  0  0  0  0
   57.4870   26.9300   47.1490 O   0  0  0  0  0  0  0  0  0  0  0  0
   55.9060   27.7650   45.6160 N   0  0  0  0  0  0  0  0  0  0  0  0
   55.9800   28.9470   44.8290 C   0  0  0  0  0  0  0  0  0  0  0  0
   55.0940   29.2820   44.0000 O   0  0  0  0  0  0  0  0  0  0  0  0
   58.0200   32.1360   45.0220 C   0  0  0  0  0  0  0  0  0  0  0  0
   58.1410   32.5400   46.3500 C   0  0  0  0  0  0  0  0  0  0  0  0
   58.6910   33.8080   46.5940 C   0  0  0  0  0  0  0  0  0  0  0  0
   59.0860   34.6370   45.5170 C   0  0  0  0  0  0  0  0  0  0  0  0
   58.9380   34.2080   44.1870 C   0  0  0  0  0  0  0  0  0  0  0  0
   58.3950   32.9410   43.9760 C   0  0  0  0  0  0  0  0  0  0  0  0
   56.3553   32.5498   41.2152 H   0  0  0  0  0  0  0  0  0  0  0  0
   57.1622   33.5280   39.9429 H   0  0  0  0  0  0  0  0  0  0  0  0
   57.3308   31.7397   39.9429 H   0  0  0  0  0  0  0  0  0  0  0  0
   59.2960   32.1399   41.0245 H   0  0  0  0  0  0  0  0  0  0  0  0
   58.7964   33.8062   41.4992 H   0  0  0  0  0  0  0  0  0  0  0  0
   57.4870   30.3470   42.3840 H   0  0  0  0  0  0  0  0  0  0  0  0
   60.4667   29.3191   44.7133 H   0  0  0  0  0  0  0  0  0  0  0  0
   62.4040   30.0910   46.2820 H   0  0  0  0  0  0  0  0  0  0  0  0
   62.6761   30.6414   48.9481 H   0  0  0  0  0  0  0  0  0  0  0  0
   61.3742   30.8292   51.0973 H   0  0  0  0  0  0  0  0  0  0  0  0
   58.9213   30.3164   51.1288 H   0  0  0  0  0  0  0  0  0  0  0  0
   57.7494   29.5972   49.0144 H   0  0  0  0  0  0  0  0  0  0  0  0
   57.8176   31.8896   47.1761 H   0  0  0  0  0  0  0  0  0  0  0  0
   58.8159   34.1597   47.6288 H   0  0  0  0  0  0  0  0  0  0  0  0
   59.5140   35.6291   45.7235 H   0  0  0  0  0  0  0  0  0  0  0  0
   59.2391   34.8475   43.3442 H   0  0  0  0  0  0  0  0  0  0  0  0
  1  2  1  0
  2  3  1  0
  3  4  1  0
  4  5  2  0
  5  6  1  0
  6  7  2  0
  7  8  1  0
  8  9  2  0
  9 10  1  0
 10 11  1  0
 11 12  2  0
 12 13  1  0
 13 14  2  0
 14 15  1  0
 15 16  2  0
  7 17  1  0
 17 18  2  0
 17 19  1  0
 19 20  1  0
 20 21  2  0
  5 22  1  0
 22 23  2  0
 23 24  1  0
 24 25  2  0
 25 26  1  0
 26 27  2  0
 27  3  1  0
 20  6  1  0
 27 22  1  0
 16  8  1  0
 16 11  1  0
  1 28  1  0
  1 29  1  0
  1 30  1  0
  2 31  1  0
  2 32  1  0
  4 33  1  0
  9 34  1  0
 10 35  1  0
 12 36  1  0
 13 37  1  0
 14 38  1  0
 15 39  1  0
 23 40  1  0
 24 41  1  0
 25 42  1  0
 26 43  1  0
M  CHG  2   4   1  19  -1
M  END
>  <UniqueID>  (20) 
20

>  <SMILES>  (20) 
CCn1[nH+]c(C2=C(c3c[nH]c4ccccc34)C(=O)[N-]C2=O)c2ccccc21

>  <Energy>  (20) 
151.08337911037742

>  <Genealogy>  (20) 
CCn1[nH+]c(C2=C(c3c[nH]c4ccccc34)C(=O)[N-]C2=O)c2ccccc21 (protonated)
CCn1[nH+]c(C2=C(c3c[nH]c4ccccc34)C(=O)[N-]C2=O)c2ccccc21 (3D coordinates assigned)
CCn1[nH+]c(C2=C(c3c[nH]c4ccccc34)C(=O)[N-]C2=O)c2ccccc21 (nonaromatic ring conformer: 151.08337911037742 kcal/mol)

>  <smiles>  (20) 
CCn1nc(C2=C(c3c[nH]c4ccccc34)C(=O)NC2=O)c2ccccc21

>  <score_type>  (20) 
oracle

>  <origin>  (20) 
adg

>  <m_score__min__energy>  (20) 
-8.9100000000000001

>  <m_primary>  (20) 
energy

$$$$
20:0
     RDKit          3D

 34 36  0  0  0  0  0  0  0  0999 V2000
   59.7533   25.4883   46.4424 H   0  0  0  0  0  0  0  0  0  0  0  0
   60.1850   26.4880   46.5980 C   0  0  0  0  0  0  0  0  0  0  0  0
   61.0759   26.6098   47.2317 H   0  0  0  0  0  0  0  0  0  0  0  0
   59.6280   27.5530   46.0180 C   0  0  0  0  0  0  0  0  0  0  0  0
   60.1090   28.7620   46.1760 O   0  0  0  0  0  0  0  0  0  0  0  0
   59.3760   29.6080   45.4950 C   0  0  0  0  0  0  0  0  0  0  0  0
   59.5542   30.6920   45.4391 H   0  0  0  0  0  0  0  0  0  0  0  0
   58.3450   28.9410   44.8560 C   0  0  0  0  0  0  0  0  0  0  0  0
   57.5300   29.5840   43.7580 C   0  0  0  0  0  0  0  0  0  0  0  0
   58.2128   30.0679   43.0442 H   0  0  0  0  0  0  0  0  0  0  0  0
   56.9373   28.7984   43.2665 H   0  0  0  0  0  0  0  0  0  0  0  0
   56.5610   30.6380   44.3120 C   0  0  0  0  0  0  0  0  0  0  0  0
   55.8421   30.9100   43.5251 H   0  0  0  0  0  0  0  0  0  0  0  0
   56.0468   30.2068   45.1835 H   0  0  0  0  0  0  0  0  0  0  0  0
   57.2840   31.8760   44.7600 C   0  0  0  0  0  0  0  0  0  0  0  0
   57.3830   32.1530   46.0900 N   0  0  0  0  0  0  0  0  0  0  0  0
   58.0660   33.2350   46.5510 C   0  0  0  0  0  0  0  0  0  0  0  0
   58.1340   33.4530   47.7890 O   0  0  0  0  0  0  0  0  0  0  0  0
   58.6920   34.1010   45.6500 C   0  0  0  0  0  0  0  0  0  0  0  0
   59.2438   34.9797   46.0152 H   0  0  0  0  0  0  0  0  0  0  0  0
   58.6090   33.8380   44.2800 C   0  0  0  0  0  0  0  0  0  0  0  0
   59.0949   34.5119   43.5591 H   0  0  0  0  0  0  0  0  0  0  0  0
   57.9080   32.7180   43.8280 C   0  0  0  0  0  0  0  0  0  0  0  0
   57.8459   32.4984   42.7519 H   0  0  0  0  0  0  0  0  0  0  0  0
   58.4960   27.5900   45.1980 C   0  0  0  0  0  0  0  0  0  0  0  0
   57.7650   26.5190   44.8180 C   0  0  0  0  0  0  0  0  0  0  0  0
   57.6550   26.3407   43.7381 H   0  0  0  0  0  0  0  0  0  0  0  0
   57.1050   25.5730   45.7280 C   0  0  0  0  0  0  0  0  0  0  0  0
   57.7360   24.5370   46.3070 N   0  0  0  0  0  0  0  0  0  0  0  0
   56.8130   24.0500   47.1640 C   0  0  0  0  0  0  0  0  0  0  0  0
   57.0260   23.0430   47.8880 O   0  0  0  0  0  0  0  0  0  0  0  0
   55.6500   24.7360   47.1960 N   0  0  0  0  0  0  0  0  0  0  0  0
   55.8590   25.7080   46.2940 C   0  0  0  0  0  0  0  0  0  0  0  0
   54.9380   26.7080   46.0100 O   0  0  0  0  0  0  0  0  0  0  0  0
  1  2  1  0
  2  3  1  0
  2  4  2  0
  4  5  1  0
  5  6  1  0
  6  7  1  0
  6  8  2  0
  8  9  1  0
  9 10  1  0
  9 11  1  0
  9 12  1  0
 12 13  1  0
 12 14  1  0
 12 15  1  0
 15 16  1  0
 16 17  1  0
 17 18  2  0
 17 19  1  0
 19 20  1  0
 19 21  2  0
 21 22  1  0
 21 23  1  0
 23 24  1  0
  8 25  1  0
 25 26  2  0
 26 27  1  0
 26 28  1  0
 28 29  1  0
 29 30  1  0
 30 31  2  0
 30 32  1  0
 32 33  1  0
 33 34  1  0
 25  4  1  0
 33 28  2  0
 23 15  2  0
M  CHG  4  16  -1  29  -1  32  -1  34  -1
M  END
>  <UniqueID>  (21) 
21

>  <SMILES>  (21) 
C=c1occ(CCc2cccc(=O)[n-]2)/c1=C\c1[n-]c(=O)[n-]c1[O-]

>  <Energy>  (21) 
101.6442530865557

>  <Genealogy>  (21) 
C=c1occ(CCc2cccc(=O)[n-]2)c1=Cc1[n-]c(=O)[n-]c1[O-] (protonated)
C=c1occ(CCc2cccc(=O)[n-]2)/c1=C\c1[n-]c(=O)[n-]c1[O-] (cis-trans isomerization)
C=c1occ(CCc2cccc(=O)[n-]2)/c1=C\c1[n-]c(=O)[n-]c1[O-] (3D coordinates assigned)
C=c1occ(CCc2cccc(=O)[n-]2)/c1=C\c1[n-]c(=O)[n-]c1[O-] (optimized conformer: 101.6442530865557 kcal/mol)

>  <smiles>  (21) 
C=c1occ(CCc2cccc(=O)[nH]2)c1=Cc1[nH]c(=O)[nH]c1O

>  <score_type>  (21) 
oracle

>  <origin>  (21) 
adg

>  <m_score__min__energy>  (21) 
-16.829999999999998

>  <m_primary>  (21) 
energy

$$$$
21:0
     RDKit          3D

 36 38  0  0  0  0  0  0  0  0999 V2000
   58.4260   32.3550   41.5090 O   0  0  0  0  0  0  0  0  0  0  0  0
   58.2650   32.3400   42.7600 C   0  0  0  0  0  0  0  0  0  0  0  0
   58.8000   33.3960   43.5660 N   0  0  0  0  0  0  0  0  0  0  0  0
   58.0060   34.1690   44.5140 C   0  0  0  0  0  0  0  0  0  0  0  0
   58.5220   33.9700   45.9120 C   0  0  0  0  0  0  0  0  0  0  0  0
   57.9370   33.0010   46.7450 C   0  0  0  0  0  0  0  0  0  0  0  0
   58.3980   32.8270   48.0540 C   0  0  0  0  0  0  0  0  0  0  0  0
   59.4410   33.6200   48.5430 C   0  0  0  0  0  0  0  0  0  0  0  0
   60.0660   33.3820   50.3310 Br  0  0  0  0  0  0  0  0  0  0  0  0
   60.0240   34.5900   47.7200 C   0  0  0  0  0  0  0  0  0  0  0  0
   59.5670   34.7670   46.4100 C   0  0  0  0  0  0  0  0  0  0  0  0
   57.5310   31.2360   43.4040 C   0  0  0  0  0  0  0  0  0  0  0  0
   56.2720   30.8290   42.9390 C   0  0  0  0  0  0  0  0  0  0  0  0
   55.6170   29.7730   43.5720 C   0  0  0  0  0  0  0  0  0  0  0  0
   56.2100   29.1330   44.6620 C   0  0  0  0  0  0  0  0  0  0  0  0
   55.5630   28.0490   45.2490 O   0  0  0  0  0  0  0  0  0  0  0  0
   57.4640   29.5780   45.1240 C   0  0  0  0  0  0  0  0  0  0  0  0
   58.1470   28.9530   46.2820 C   0  0  0  0  0  0  0  0  0  0  0  0
   58.7920   29.7570   47.2350 C   0  0  0  0  0  0  0  0  0  0  0  0
   59.4190   29.1740   48.3360 C   0  0  0  0  0  0  0  0  0  0  0  0
   59.3860   27.7870   48.4870 C   0  0  0  0  0  0  0  0  0  0  0  0
   58.7400   27.0190   47.5710 N   0  0  0  0  0  0  0  0  0  0  0  0
   58.1250   27.5620   46.4870 C   0  0  0  0  0  0  0  0  0  0  0  0
   58.0840   30.6020   44.4740 N   0  0  0  0  0  0  0  0  0  0  0  0
   58.0670   35.2359   44.2532 H   0  0  0  0  0  0  0  0  0  0  0  0
   56.9611   33.8284   44.4667 H   0  0  0  0  0  0  0  0  0  0  0  0
   57.1138   32.3773   46.3663 H   0  0  0  0  0  0  0  0  0  0  0  0
   57.9390   32.0645   48.7005 H   0  0  0  0  0  0  0  0  0  0  0  0
   60.8437   35.2148   48.1043 H   0  0  0  0  0  0  0  0  0  0  0  0
   60.0269   35.5323   45.7675 H   0  0  0  0  0  0  0  0  0  0  0  0
   55.8054   31.3381   42.0828 H   0  0  0  0  0  0  0  0  0  0  0  0
   54.6312   29.4436   43.2118 H   0  0  0  0  0  0  0  0  0  0  0  0
   58.8029   30.8502   47.1130 H   0  0  0  0  0  0  0  0  0  0  0  0
   59.9345   29.8013   49.0781 H   0  0  0  0  0  0  0  0  0  0  0  0
   59.8830   27.3155   49.3476 H   0  0  0  0  0  0  0  0  0  0  0  0
   57.6080   26.9105   45.7672 H   0  0  0  0  0  0  0  0  0  0  0  0
  1  2  2  0
  2  3  1  0
  3  4  1  0
  4  5  1  0
  5  6  2  0
  6  7  1  0
  7  8  2  0
  8  9  1  0
  8 10  1  0
 10 11  2  0
  2 12  1  0
 12 13  2  0
 13 14  1  0
 14 15  2  0
 15 16  1  0
 15 17  1  0
 17 18  1  0
 18 19  2  0
 19 20  1  0
 20 21  2  0
 21 22  1  0
 22 23  2  0
 17 24  2  0
 11  5  1  0
 24 12  1  0
 23 18  1  0
  4 25  1  0
  4 26  1  0
  6 27  1  0
  7 28  1  0
 10 29  1  0
 11 30  1  0
 13 31  1  0
 14 32  1  0
 19 33  1  0
 20 34  1  0
 21 35  1  0
 23 36  1  0
M  CHG  2   3  -1  16  -1
M  END
>  <UniqueID>  (22) 
22

>  <SMILES>  (22) 
O=C([N-]Cc1ccc(Br)cc1)c1ccc([O-])c(-c2cccnc2)n1

>  <Energy>  (22) 
43.33531956208406

>  <Genealogy>  (22) 
O=C([N-]Cc1ccc(Br)cc1)c1ccc([O-])c(-c2cccnc2)n1 (protonated)
O=C([N-]Cc1ccc(Br)cc1)c1ccc([O-])c(-c2cccnc2)n1 (3D coordinates assigned)
O=C([N-]Cc1ccc(Br)cc1)c1ccc([O-])c(-c2cccnc2)n1 (optimized conformer: 43.33531956208406 kcal/mol)

>  <smiles>  (22) 
O=C(NCc1ccc(Br)cc1)c1ccc(O)c(-c2cccnc2)n1

>  <score_type>  (22) 
oracle

>  <origin>  (22) 
adg

>  <m_score__min__energy>  (22) 
-11.68

>  <m_primary>  (22) 
energy

$$$$
22:0
     RDKit          3D

 50 52  0  0  0  0  0  0  0  0999 V2000
   54.4020   23.5500   46.2860 C   0  0  0  0  0  0  0  0  0  0  0  0
   55.5920   24.4450   46.4360 C   0  0  0  0  0  0  0  0  0  0  0  0
   56.8180   23.9380   46.8780 C   0  0  0  0  0  0  0  0  0  0  0  0
   57.9200   24.7870   46.9700 C   0  0  0  0  0  0  0  0  0  0  0  0
   57.8090   26.1410   46.6050 C   0  0  0  0  0  0  0  0  0  0  0  0
   58.9950   27.0330   46.7120 C   0  0  0  0  0  0  0  0  0  0  0  0
   59.7280   27.2520   45.7080 O   0  0  0  0  0  0  0  0  0  0  0  0
   59.3110   27.6530   47.9630 N   0  0  0  0  0  0  0  0  0  0  0  0
   58.7780   28.9480   48.3690 C   0  0  0  0  0  0  0  0  0  0  0  0
   59.6320   30.0800   47.7710 C   0  0  2  0  0  0  0  0  0  0  0  0
   60.0890   31.0750   48.8610 C   0  0  0  0  0  0  0  0  0  0  0  0
   61.3360   31.8140   48.4480 C   0  0  0  0  0  0  0  0  0  0  0  0
   62.2590   31.2110   47.5750 C   0  0  0  0  0  0  0  0  0  0  0  0
   63.3940   31.9120   47.1550 C   0  0  0  0  0  0  0  0  0  0  0  0
   63.6120   33.2200   47.5970 C   0  0  0  0  0  0  0  0  0  0  0  0
   62.6940   33.8310   48.4550 C   0  0  0  0  0  0  0  0  0  0  0  0
   61.5590   33.1330   48.8790 C   0  0  0  0  0  0  0  0  0  0  0  0
   58.8800   30.7910   46.6580 C   0  0  0  0  0  0  0  0  0  0  0  0
   58.8520   32.1960   46.6150 C   0  0  0  0  0  0  0  0  0  0  0  0
   58.1280   32.8580   45.6190 C   0  0  0  0  0  0  0  0  0  0  0  0
   57.4270   32.1300   44.6580 C   0  0  0  0  0  0  0  0  0  0  0  0
   57.4430   30.7290   44.6870 C   0  0  0  0  0  0  0  0  0  0  0  0
   56.5440   29.7930   43.4970 S   0  0  0  0  0  0  0  0  0  0  0  0
   55.0010   29.3650   44.1490 N   0  0  0  0  0  0  0  0  0  0  0  0
   57.3120   28.5460   43.1600 O   0  0  0  0  0  0  0  0  0  0  0  0
   56.3420   30.5950   42.2400 O   0  0  0  0  0  0  0  0  0  0  0  0
   58.1660   30.0640   45.6860 C   0  0  0  0  0  0  0  0  0  0  0  0
   56.5550   26.6050   46.1400 C   0  0  0  0  0  0  0  0  0  0  0  0
   56.3920   27.8040   45.7880 O   0  0  0  0  0  0  0  0  0  0  0  0
   55.4980   25.7520   46.0670 N   0  0  0  0  0  0  0  0  0  0  0  0
   54.0274   23.2682   47.2811 H   0  0  0  0  0  0  0  0  0  0  0  0
   53.6121   24.0797   45.7333 H   0  0  0  0  0  0  0  0  0  0  0  0
   54.6918   22.6442   45.7333 H   0  0  0  0  0  0  0  0  0  0  0  0
   56.9123   22.8766   47.1512 H   0  0  0  0  0  0  0  0  0  0  0  0
   58.8827   24.3955   47.3304 H   0  0  0  0  0  0  0  0  0  0  0  0
   57.7426   29.0444   48.0102 H   0  0  0  0  0  0  0  0  0  0  0  0
   58.8009   29.0198   49.4664 H   0  0  0  0  0  0  0  0  0  0  0  0
   60.5364   29.6286   47.3370 H   0  0  0  0  0  0  0  0  0  0  0  0
   59.2845   31.8037   49.0395 H   0  0  0  0  0  0  0  0  0  0  0  0
   60.3125   30.5058   49.7754 H   0  0  0  0  0  0  0  0  0  0  0  0
   62.0876   30.1837   47.2210 H   0  0  0  0  0  0  0  0  0  0  0  0
   64.1156   31.4337   46.4764 H   0  0  0  0  0  0  0  0  0  0  0  0
   64.5071   33.7688   47.2690 H   0  0  0  0  0  0  0  0  0  0  0  0
   62.8644   34.8624   48.7974 H   0  0  0  0  0  0  0  0  0  0  0  0
   60.8376   33.6183   49.5528 H   0  0  0  0  0  0  0  0  0  0  0  0
   59.4027   32.7775   47.3691 H   0  0  0  0  0  0  0  0  0  0  0  0
   58.1112   33.9576   45.5932 H   0  0  0  0  0  0  0  0  0  0  0  0
   56.8605   32.6565   43.8758 H   0  0  0  0  0  0  0  0  0  0  0  0
   55.1620   28.5920   44.8330 H   0  0  0  0  0  0  0  0  0  0  0  0
   58.1760   28.9643   45.7113 H   0  0  0  0  0  0  0  0  0  0  0  0
  1  2  1  0
  2  3  2  0
  3  4  1  0
  4  5  2  0
  5  6  1  0
  6  7  2  0
  6  8  1  0
  8  9  1  0
  9 10  1  0
 10 11  1  0
 11 12  1  0
 12 13  2  0
 13 14  1  0
 14 15  2  0
 15 16  1  0
 16 17  2  0
 10 18  1  0
 18 19  2  0
 19 20  1  0
 20 21  2  0
 21 22  1  0
 22 23  1  0
 23 24  1  0
 23 25  2  0
 23 26  2  0
 22 27  2  0
  5 28  1  0
 28 29  2  0
 28 30  1  0
 30  2  1  0
 17 12  1  0
 27 18  1  0
  1 31  1  0
  1 32  1  0
  1 33  1  0
  3 34  1  0
  4 35  1  0
  9 36  1  0
  9 37  1  0
 10 38  1  6
 11 39  1  0
 11 40  1  0
 13 41  1  0
 14 42  1  0
 15 43  1  0
 16 44  1  0
 17 45  1  0
 19 46  1  0
 20 47  1  0
 21 48  1  0
 24 49  1  0
 27 50  1  0
M  CHG  3   8  -1  24  -1  30  -1
M  END
>  <UniqueID>  (23) 
23

>  <SMILES>  (23) 
Cc1ccc(C(=O)[N-]C[C@H](Cc2ccccc2)c2cccc(S([NH-])(=O)=O)c2)c(=O)[n-]1

>  <Energy>  (23) 
48.17994568433479

>  <Genealogy>  (23) 
Cc1ccc(C(=O)[N-]CC(Cc2ccccc2)c2cccc(S([NH-])(=O)=O)c2)c(=O)[n-]1 (protonated)
Cc1ccc(C(=O)[N-]C[C@H](Cc2ccccc2)c2cccc(S([NH-])(=O)=O)c2)c(=O)[n-]1 (chirality)
Cc1ccc(C(=O)[N-]C[C@H](Cc2ccccc2)c2cccc(S([NH-])(=O)=O)c2)c(=O)[n-]1 (3D coordinates assigned)
Cc1ccc(C(=O)[N-]C[C@H](Cc2ccccc2)c2cccc(S([NH-])(=O)=O)c2)c(=O)[n-]1 (optimized conformer: 48.17994568433479 kcal/mol)

>  <smiles>  (23) 
Cc1ccc(C(=O)NCC(Cc2ccccc2)c2cccc(S(N)(=O)=O)c2)c(=O)[nH]1

>  <score_type>  (23) 
oracle

>  <origin>  (23) 
adg

>  <m_score__min__energy>  (23) 
-14.720000000000001

>  <m_primary>  (23) 
energy

$$$$
23:0
     RDKit          3D

 50 53  0  0  0  0  0  0  0  0999 V2000
   58.1810   25.7030   45.4540 O   0  0  0  0  0  0  0  0  0  0  0  0
   57.8920   26.7580   46.0780 C   0  0  0  0  0  0  0  0  0  0  0  0
   56.7010   27.4690   45.7060 N   0  0  0  0  0  0  0  0  0  0  0  0
   56.6680   28.6390   45.1400 C   0  0  0  0  0  0  0  0  0  0  0  0
   55.5290   29.3050   44.8410 N   0  0  0  0  0  0  0  0  0  0  0  0
   55.7900   30.4930   44.2340 C   0  0  0  0  0  0  0  0  0  0  0  0
   57.1430   30.7560   44.0340 C   0  0  0  0  0  0  0  0  0  0  0  0
   57.7130   32.0150   43.4630 C   0  0  0  0  0  0  0  0  0  0  0  0
   58.1520   32.9300   44.5730 C   0  0  0  0  0  0  0  0  0  0  0  0
   57.4700   32.9330   45.8010 C   0  0  0  0  0  0  0  0  0  0  0  0
   57.8550   33.8110   46.8180 C   0  0  0  0  0  0  0  0  0  0  0  0
   58.9160   34.6990   46.6140 C   0  0  0  0  0  0  0  0  0  0  0  0
   59.5900   34.7110   45.3900 C   0  0  0  0  0  0  0  0  0  0  0  0
   59.2080   33.8340   44.3690 C   0  0  0  0  0  0  0  0  0  0  0  0
   58.0420   29.4760   44.6570 S   0  0  0  0  0  0  0  0  0  0  0  0
   58.8120   27.2530   47.1290 C   0  0  0  0  0  0  0  0  0  0  0  0
   59.7480   26.3900   47.7270 C   0  0  0  0  0  0  0  0  0  0  0  0
   60.6110   26.8620   48.7190 C   0  0  0  0  0  0  0  0  0  0  0  0
   60.5410   28.1940   49.1330 C   0  0  0  0  0  0  0  0  0  0  0  0
   59.5960   29.0590   48.5650 C   0  0  0  0  0  0  0  0  0  0  0  0
   59.5200   30.7470   49.0590 S   0  0  0  0  0  0  0  0  0  0  0  0
   59.1020   30.8370   50.5020 O   0  0  0  0  0  0  0  0  0  0  0  0
   58.4990   31.4610   48.2190 O   0  0  0  0  0  0  0  0  0  0  0  0
   61.0850   31.4840   48.8320 N   0  0  0  0  0  0  0  0  0  0  0  0
   61.0270   32.9410   48.9790 C   0  0  0  0  0  0  0  0  0  0  0  0
   62.1640   33.5080   48.1410 C   0  0  0  0  0  0  0  0  0  0  0  0
   62.5470   32.4010   47.1700 C   0  0  0  0  0  0  0  0  0  0  0  0
   61.6150   31.2400   47.4890 C   0  0  0  0  0  0  0  0  0  0  0  0
   58.7340   28.5870   47.5650 C   0  0  0  0  0  0  0  0  0  0  0  0
   54.9969   31.1901   43.9258 H   0  0  0  0  0  0  0  0  0  0  0  0
   58.5783   31.7689   42.8299 H   0  0  0  0  0  0  0  0  0  0  0  0
   56.9428   32.5201   42.8617 H   0  0  0  0  0  0  0  0  0  0  0  0
   56.6298   32.2417   45.9628 H   0  0  0  0  0  0  0  0  0  0  0  0
   57.3226   33.8036   47.7805 H   0  0  0  0  0  0  0  0  0  0  0  0
   59.2197   35.3874   47.4164 H   0  0  0  0  0  0  0  0  0  0  0  0
   60.4227   35.4115   45.2288 H   0  0  0  0  0  0  0  0  0  0  0  0
   59.7358   33.8523   43.4041 H   0  0  0  0  0  0  0  0  0  0  0  0
   59.8008   25.3375   47.4118 H   0  0  0  0  0  0  0  0  0  0  0  0
   61.3470   26.1833   49.1748 H   0  0  0  0  0  0  0  0  0  0  0  0
   61.2292   28.5650   49.9067 H   0  0  0  0  0  0  0  0  0  0  0  0
   61.7470   31.0900   49.5430 H   0  0  0  0  0  0  0  0  0  0  0  0
   60.0611   33.3211   48.6150 H   0  0  0  0  0  0  0  0  0  0  0  0
   61.1253   33.2376   50.0337 H   0  0  0  0  0  0  0  0  0  0  0  0
   61.8289   34.4009   47.5928 H   0  0  0  0  0  0  0  0  0  0  0  0
   63.0161   33.8152   48.7651 H   0  0  0  0  0  0  0  0  0  0  0  0
   62.4045   32.7342   46.1314 H   0  0  0  0  0  0  0  0  0  0  0  0
   63.6044   32.1157   47.2727 H   0  0  0  0  0  0  0  0  0  0  0  0
   60.7936   31.2012   46.7584 H   0  0  0  0  0  0  0  0  0  0  0  0
   62.1487   30.2793   47.4423 H   0  0  0  0  0  0  0  0  0  0  0  0
   57.9918   29.2652   47.1187 H   0  0  0  0  0  0  0  0  0  0  0  0
  1  2  2  0
  2  3  1  0
  3  4  2  3
  4  5  1  0
  5  6  1  0
  6  7  2  0
  7  8  1  0
  8  9  1  0
  9 10  2  0
 10 11  1  0
 11 12  2  0
 12 13  1  0
 13 14  2  0
  7 15  1  0
  2 16  1  0
 16 17  2  0
 17 18  1  0
 18 19  2  0
 19 20  1  0
 20 21  1  0
 21 22  2  0
 21 23  2  0
 21 24  1  0
 24 25  1  0
 25 26  1  0
 26 27  1  0
 27 28  1  0
 20 29  2  0
 15  4  1  0
 29 16  1  0
 14  9  1  0
 28 24  1  0
  6 30  1  0
  8 31  1  0
  8 32  1  0
 10 33  1  0
 11 34  1  0
 12 35  1  0
 13 36  1  0
 14 37  1  0
 17 38  1  0
 18 39  1  0
 19 40  1  0
 24 41  1  0
 25 42  1  0
 25 43  1  0
 26 44  1  0
 26 45  1  0
 27 46  1  0
 27 47  1  0
 28 48  1  0
 28 49  1  0
 29 50  1  0
M  CHG  2   5  -1  24   1
M  END
>  <UniqueID>  (24) 
24

>  <SMILES>  (24) 
O=C(N=c1[n-]cc(Cc2ccccc2)s1)c1cccc(S(=O)(=O)[NH+]2CCCC2)c1

>  <Energy>  (24) 
88.97206077721907

>  <Genealogy>  (24) 
O=C(N=c1[n-]cc(Cc2ccccc2)s1)c1cccc(S(=O)(=O)[NH+]2CCCC2)c1 (protonated)
O=C(N=c1[n-]cc(Cc2ccccc2)s1)c1cccc(S(=O)(=O)[NH+]2CCCC2)c1 (3D coordinates assigned)
O=C(N=c1[n-]cc(Cc2ccccc2)s1)c1cccc(S(=O)(=O)[NH+]2CCCC2)c1 (nonaromatic ring conformer: 88.97206077721907 kcal/mol)

>  <smiles>  (24) 
O=C(N=c1[nH]cc(Cc2ccccc2)s1)c1cccc(S(=O)(=O)N2CCCC2)c1

>  <score_type>  (24) 
oracle

>  <origin>  (24) 
adg

>  <m_score__min__energy>  (24) 
-10.220000000000001

>  <m_primary>  (24) 
energy

$$$$
24:0
     RDKit          3D

 48 50  0  0  0  0  0  0  0  0999 V2000
   56.2740   30.0620   43.9700 C   0  0  0  0  0  0  0  0  0  0  0  0
   56.8460   29.0770   44.9840 C   0  0  0  0  0  0  0  0  0  0  0  0
   55.8980   27.9970   45.2520 N   0  0  0  0  0  0  0  0  0  0  0  0
   56.2280   26.7330   45.8410 C   0  0  0  0  0  0  0  0  0  0  0  0
   55.3140   25.8840   46.0140 O   0  0  0  0  0  0  0  0  0  0  0  0
   57.6120   26.3910   46.2190 C   0  0  0  0  0  0  0  0  0  0  0  0
   58.2840   27.2040   47.1380 C   0  0  0  0  0  0  0  0  0  0  0  0
   59.6290   26.9550   47.4290 C   0  0  0  0  0  0  0  0  0  0  0  0
   60.3640   27.8750   48.3110 C   0  0  0  0  0  0  0  0  0  0  0  0
   60.6610   27.4850   49.4740 O   0  0  0  0  0  0  0  0  0  0  0  0
   60.6930   29.2130   47.8780 N   0  0  0  0  0  0  0  0  0  0  0  0
   61.5180   30.1000   48.7130 C   0  0  0  0  0  0  0  0  0  0  0  0
   60.7580   31.4030   48.9780 C   0  0  0  0  0  0  0  0  0  0  0  0
   60.1720   31.9450   47.7410 N   0  0  0  0  0  0  0  0  0  0  0  0
   59.3140   33.1000   47.8280 C   0  0  0  0  0  0  0  0  0  0  0  0
   58.5480   33.2250   48.8220 O   0  0  0  0  0  0  0  0  0  0  0  0
   59.3200   34.1640   46.8010 C   0  0  0  0  0  0  0  0  0  0  0  0
   58.8690   34.0540   45.4970 C   0  0  0  0  0  0  0  0  0  0  0  0
   59.1450   35.2610   44.8850 C   0  0  0  0  0  0  0  0  0  0  0  0
   59.7620   36.0530   45.8330 C   0  0  0  0  0  0  0  0  0  0  0  0
   59.8710   35.3790   46.9940 N   0  0  0  0  0  0  0  0  0  0  0  0
   60.3770   31.2440   46.4650 C   0  0  0  0  0  0  0  0  0  0  0  0
   60.1000   29.7440   46.6380 C   0  0  0  0  0  0  0  0  0  0  0  0
   60.2690   25.9000   46.8490 N   0  0  0  0  0  0  0  0  0  0  0  0
   59.6250   25.0630   45.9920 C   0  0  0  0  0  0  0  0  0  0  0  0
   58.2840   25.2890   45.6540 C   0  0  0  0  0  0  0  0  0  0  0  0
   57.6320   24.4050   44.7180 C   0  0  0  0  0  0  0  0  0  0  0  0
   57.1080   23.6970   43.9690 N   0  0  0  0  0  0  0  0  0  0  0  0
   55.7902   30.8952   44.5008 H   0  0  0  0  0  0  0  0  0  0  0  0
   57.0863   30.4517   43.3389 H   0  0  0  0  0  0  0  0  0  0  0  0
   55.5329   29.5496   43.3389 H   0  0  0  0  0  0  0  0  0  0  0  0
   57.7770   28.6485   44.5846 H   0  0  0  0  0  0  0  0  0  0  0  0
   57.0431   29.6137   45.9237 H   0  0  0  0  0  0  0  0  0  0  0  0
   57.7570   28.0351   47.6294 H   0  0  0  0  0  0  0  0  0  0  0  0
   61.7386   29.6031   49.6692 H   0  0  0  0  0  0  0  0  0  0  0  0
   62.4599   30.3242   48.1909 H   0  0  0  0  0  0  0  0  0  0  0  0
   59.9515   31.2063   49.6997 H   0  0  0  0  0  0  0  0  0  0  0  0
   61.4679   32.1424   49.3773 H   0  0  0  0  0  0  0  0  0  0  0  0
   58.3862   33.1783   45.0387 H   0  0  0  0  0  0  0  0  0  0  0  0
   58.9176   35.5375   43.8449 H   0  0  0  0  0  0  0  0  0  0  0  0
   60.1126   37.0820   45.6649 H   0  0  0  0  0  0  0  0  0  0  0  0
   60.3080   35.7370   47.8750 H   0  0  0  0  0  0  0  0  0  0  0  0
   59.6920   31.6559   45.7092 H   0  0  0  0  0  0  0  0  0  0  0  0
   61.4188   31.3831   46.1406 H   0  0  0  0  0  0  0  0  0  0  0  0
   59.0120   29.5849   46.6681 H   0  0  0  0  0  0  0  0  0  0  0  0
   60.5561   29.2139   45.7889 H   0  0  0  0  0  0  0  0  0  0  0  0
   61.2760   25.7230   47.0640 H   0  0  0  0  0  0  0  0  0  0  0  0
   60.1600   24.2036   45.5617 H   0  0  0  0  0  0  0  0  0  0  0  0
  1  2  1  0
  2  3  1  0
  3  4  1  0
  4  5  2  0
  4  6  1  0
  6  7  2  0
  7  8  1  0
  8  9  1  0
  9 10  2  0
  9 11  1  0
 11 12  1  0
 12 13  1  0
 13 14  1  0
 14 15  1  0
 15 16  2  0
 15 17  1  0
 17 18  2  0
 18 19  1  0
 19 20  2  0
 20 21  1  0
 14 22  1  0
 22 23  1  0
  8 24  2  0
 24 25  1  0
 25 26  2  0
 26 27  1  0
 27 28  3  0
 26  6  1  0
 23 11  1  0
 21 17  1  0
  1 29  1  0
  1 30  1  0
  1 31  1  0
  2 32  1  0
  2 33  1  0
  7 34  1  0
 12 35  1  0
 12 36  1  0
 13 37  1  0
 13 38  1  0
 18 39  1  0
 19 40  1  0
 20 41  1  0
 21 42  1  0
 22 43  1  0
 22 44  1  0
 23 45  1  0
 23 46  1  0
 24 47  1  0
 25 48  1  0
M  CHG  2   3  -1  24   1
M  END
>  <UniqueID>  (25) 
25

>  <SMILES>  (25) 
CC[N-]C(=O)c1cc(C(=O)N2CCN(C(=O)c3ccc[nH]3)CC2)[nH+]cc1C#N

>  <Energy>  (25) 
88.3073859455387

>  <Genealogy>  (25) 
CC[N-]C(=O)c1cc(C(=O)N2CCN(C(=O)c3ccc[nH]3)CC2)[nH+]cc1C#N (protonated)
CC[N-]C(=O)c1cc(C(=O)N2CCN(C(=O)c3ccc[nH]3)CC2)[nH+]cc1C#N (3D coordinates assigned)
CC[N-]C(=O)c1cc(C(=O)N2CCN(C(=O)c3ccc[nH]3)CC2)[nH+]cc1C#N (nonaromatic ring conformer: 88.3073859455387 kcal/mol)

>  <smiles>  (25) 
CCNC(=O)c1cc(C(=O)N2CCN(C(=O)c3ccc[nH]3)CC2)ncc1C#N

>  <score_type>  (25) 
oracle

>  <origin>  (25) 
adg

>  <m_score__min__energy>  (25) 
-9.4499999999999993

>  <m_primary>  (25) 
energy

$$$$
25:0
     RDKit          3D

 43 45  0  0  0  0  0  0  0  0999 V2000
   59.7104   23.8812   45.9560 H   0  0  0  0  0  0  0  0  0  0  0  0
   59.0300   24.7420   46.0340 C   0  0  0  0  0  0  0  0  0  0  0  0
   59.5270   25.8760   46.4440 N   0  0  0  0  0  0  0  0  0  0  0  0
   59.1520   27.1970   46.0220 C   0  0  0  0  0  0  0  0  0  0  0  0
   59.0130   27.5230   44.6620 C   0  0  0  0  0  0  0  0  0  0  0  0
   59.2193   26.7638   43.8932 H   0  0  0  0  0  0  0  0  0  0  0  0
   58.6140   28.8070   44.2820 C   0  0  0  0  0  0  0  0  0  0  0  0
   58.5279   29.0607   43.2151 H   0  0  0  0  0  0  0  0  0  0  0  0
   58.3230   29.7730   45.2550 C   0  0  0  0  0  0  0  0  0  0  0  0
   57.7990   31.3890   44.7760 S   0  0  0  0  0  0  0  0  0  0  0  0
   56.3180   31.3720   44.5140 O   0  0  0  0  0  0  0  0  0  0  0  0
   58.4920   31.7760   43.4980 O   0  0  0  0  0  0  0  0  0  0  0  0
   58.1600   32.5750   46.0100 N   0  0  0  0  0  0  0  0  0  0  0  0
   59.5890   32.5110   46.3830 C   0  0  0  0  0  0  0  0  0  0  0  0
   59.7507   31.6372   47.0313 H   0  0  0  0  0  0  0  0  0  0  0  0
   60.1836   32.4292   45.4612 H   0  0  0  0  0  0  0  0  0  0  0  0
   60.0300   33.7740   47.1300 C   0  0  0  0  0  0  0  0  0  0  0  0
   59.4075   33.8959   48.0287 H   0  0  0  0  0  0  0  0  0  0  0  0
   61.0893   33.6654   47.4059 H   0  0  0  0  0  0  0  0  0  0  0  0
   59.8810   35.0220   46.2420 C   0  0  0  0  0  0  0  0  0  0  0  0
   59.6058   35.8757   46.8788 H   0  0  0  0  0  0  0  0  0  0  0  0
   60.8436   35.1849   45.7351 H   0  0  0  0  0  0  0  0  0  0  0  0
   58.8070   34.8540   45.1540 C   0  0  0  0  0  0  0  0  0  0  0  0
   58.3839   35.8401   44.9120 H   0  0  0  0  0  0  0  0  0  0  0  0
   59.2771   34.4056   44.2663 H   0  0  0  0  0  0  0  0  0  0  0  0
   57.6770   33.9260   45.6280 C   0  0  0  0  0  0  0  0  0  0  0  0
   57.1896   34.3843   46.5012 H   0  0  0  0  0  0  0  0  0  0  0  0
   56.9784   33.8011   44.7876 H   0  0  0  0  0  0  0  0  0  0  0  0
   58.4360   29.4410   46.6120 C   0  0  0  0  0  0  0  0  0  0  0  0
   58.2101   30.1943   47.3811 H   0  0  0  0  0  0  0  0  0  0  0  0
   58.8350   28.1550   46.9920 C   0  0  0  0  0  0  0  0  0  0  0  0
   58.8999   27.8954   48.0589 H   0  0  0  0  0  0  0  0  0  0  0  0
   57.6120   24.5370   45.6670 C   0  0  0  0  0  0  0  0  0  0  0  0
   57.1730   23.3390   45.0730 C   0  0  0  0  0  0  0  0  0  0  0  0
   57.8955   22.5390   44.8542 H   0  0  0  0  0  0  0  0  0  0  0  0
   55.8220   23.1620   44.7600 C   0  0  0  0  0  0  0  0  0  0  0  0
   55.4874   22.2311   44.2789 H   0  0  0  0  0  0  0  0  0  0  0  0
   54.8960   24.1650   45.0570 C   0  0  0  0  0  0  0  0  0  0  0  0
   53.8344   24.0264   44.8044 H   0  0  0  0  0  0  0  0  0  0  0  0
   55.3200   25.3460   45.6760 C   0  0  0  0  0  0  0  0  0  0  0  0
   54.3960   26.3390   45.9810 O   0  0  0  0  0  0  0  0  0  0  0  0
   56.6710   25.5270   45.9880 C   0  0  0  0  0  0  0  0  0  0  0  0
   56.9979   26.4507   46.4879 H   0  0  0  0  0  0  0  0  0  0  0  0
  1  2  1  0
  2  3  2  0
  3  4  1  0
  4  5  2  0
  5  6  1  0
  5  7  1  0
  7  8  1  0
  7  9  2  0
  9 10  1  0
 10 11  2  0
 10 12  2  0
 10 13  1  0
 13 14  1  0
 14 15  1  0
 14 16  1  0
 14 17  1  0
 17 18  1  0
 17 19  1  0
 17 20  1  0
 20 21  1  0
 20 22  1  0
 20 23  1  0
 23 24  1  0
 23 25  1  0
 23 26  1  0
 26 27  1  0
 26 28  1  0
  9 29  1  0
 29 30  1  0
 29 31  2  0
 31 32  1  0
  2 33  1  0
 33 34  2  0
 34 35  1  0
 34 36  1  0
 36 37  1  0
 36 38  2  0
 38 39  1  0
 38 40  1  0
 40 41  1  0
 40 42  2  0
 42 43  1  0
 31  4  1  0
 42 33  1  0
 26 13  1  0
M  CHG  1  41  -1
M  END
>  <UniqueID>  (26) 
26

>  <SMILES>  (26) 
O=S(=O)(c1ccc(/N=C\c2cccc([O-])c2)cc1)N1CCCCC1

>  <Energy>  (26) 
59.99006650141363

>  <Genealogy>  (26) 
O=S(=O)(c1ccc(N=Cc2cccc([O-])c2)cc1)N1CCCCC1 (protonated)
O=S(=O)(c1ccc(/N=C\c2cccc([O-])c2)cc1)N1CCCCC1 (cis-trans isomerization)
O=S(=O)(c1ccc(/N=C\c2cccc([O-])c2)cc1)N1CCCCC1 (3D coordinates assigned)
O=S(=O)(c1ccc(/N=C\c2cccc([O-])c2)cc1)N1CCCCC1 (nonaromatic ring conformer: 59.99006650141363 kcal/mol)

>  <smiles>  (26) 
O=S(=O)(c1ccc(N=Cc2cccc(O)c2)cc1)N1CCCCC1

>  <score_type>  (26) 
oracle

>  <origin>  (26) 
adg

>  <m_score__min__energy>  (26) 
-12.9

>  <m_primary>  (26) 
energy

$$$$
26:0
     RDKit          3D

 27 28  0  0  0  0  0  0  0  0999 V2000
   58.3810   31.8530   46.2540 C   0  0  0  0  0  0  0  0  0  0  0  0
   58.5230   30.3770   46.4790 C   0  0  0  0  0  0  0  0  0  0  0  0
   59.4040   29.8720   47.4350 C   0  0  0  0  0  0  0  0  0  0  0  0
   59.2970   28.1990   47.4400 S   0  0  0  0  0  0  0  0  0  0  0  0
   58.1340   28.0880   46.2300 C   0  0  0  0  0  0  0  0  0  0  0  0
   57.5860   26.8730   45.7010 N   0  0  0  0  0  0  0  0  0  0  0  0
   56.4030   26.2010   46.1510 C   0  0  0  0  0  0  0  0  0  0  0  0
   55.2630   26.7110   45.9880 O   0  0  0  0  0  0  0  0  0  0  0  0
   56.5250   24.8490   46.7760 C   0  0  0  0  0  0  0  0  0  0  0  0
   55.5410   23.9100   46.1540 C   0  0  0  0  0  0  0  0  0  0  0  0
   55.8470   22.7830   45.4240 C   0  0  0  0  0  0  0  0  0  0  0  0
   54.7080   22.2320   44.9730 N   0  0  0  0  0  0  0  0  0  0  0  0
   53.7500   23.0570   45.4430 C   0  0  0  0  0  0  0  0  0  0  0  0
   52.5260   22.8710   45.2240 O   0  0  0  0  0  0  0  0  0  0  0  0
   54.2090   24.1000   46.1630 N   0  0  0  0  0  0  0  0  0  0  0  0
   57.8030   29.3710   45.7830 C   0  0  0  0  0  0  0  0  0  0  0  0
   56.8070   29.6180   44.7080 C   0  0  0  0  0  0  0  0  0  0  0  0
   55.4280   29.3070   44.8950 N   0  0  0  0  0  0  0  0  0  0  0  0
   57.1720   30.1230   43.6130 O   0  0  0  0  0  0  0  0  0  0  0  0
   58.3314   32.3687   47.2243 H   0  0  0  0  0  0  0  0  0  0  0  0
   59.2478   32.2224   45.6863 H   0  0  0  0  0  0  0  0  0  0  0  0
   57.4597   32.0504   45.6863 H   0  0  0  0  0  0  0  0  0  0  0  0
   60.0615   30.4731   48.0802 H   0  0  0  0  0  0  0  0  0  0  0  0
   57.5441   24.4655   46.6197 H   0  0  0  0  0  0  0  0  0  0  0  0
   56.3187   24.9282   47.8536 H   0  0  0  0  0  0  0  0  0  0  0  0
   56.8603   22.3965   45.2400 H   0  0  0  0  0  0  0  0  0  0  0  0
   55.1230   28.6530   45.6510 H   0  0  0  0  0  0  0  0  0  0  0  0
  1  2  1  0
  2  3  2  0
  3  4  1  0
  4  5  1  0
  5  6  1  0
  6  7  1  0
  7  8  2  0
  7  9  1  0
  9 10  1  0
 10 11  2  0
 11 12  1  0
 12 13  1  0
 13 14  2  0
 13 15  1  0
  5 16  2  0
 16 17  1  0
 17 18  1  0
 17 19  2  0
 16  2  1  0
 15 10  1  0
  1 20  1  0
  1 21  1  0
  1 22  1  0
  3 23  1  0
  9 24  1  0
  9 25  1  0
 11 26  1  0
 18 27  1  0
M  CHG  4   6  -1  12  -1  15  -1  18  -1
M  END
>  <UniqueID>  (27) 
27

>  <SMILES>  (27) 
Cc1csc([N-]C(=O)Cc2c[n-]c(=O)[n-]2)c1C([NH-])=O

>  <Energy>  (27) 
81.67569681082463

>  <Genealogy>  (27) 
Cc1csc([N-]C(=O)Cc2c[n-]c(=O)[n-]2)c1C([NH-])=O (protonated)
Cc1csc([N-]C(=O)Cc2c[n-]c(=O)[n-]2)c1C([NH-])=O (3D coordinates assigned)
Cc1csc([N-]C(=O)Cc2c[n-]c(=O)[n-]2)c1C([NH-])=O (optimized conformer: 81.67569681082463 kcal/mol)

>  <smiles>  (27) 
Cc1csc(NC(=O)Cc2c[nH]c(=O)[nH]2)c1C(N)=O

>  <score_type>  (27) 
oracle

>  <origin>  (27) 
adg

>  <m_score__min__energy>  (27) 
-14.5

>  <m_primary>  (27) 
energy

$$$$
27:0
     RDKit          3D

 46 48  0  0  0  0  0  0  0  0999 V2000
   56.4370   24.3360   44.5230 C   0  0  0  0  0  0  0  0  0  0  0  0
   55.1200   24.5190   45.2680 C   0  0  0  0  0  0  0  0  0  0  0  0
   55.2110   25.5990   46.1940 O   0  0  0  0  0  0  0  0  0  0  0  0
   56.4220   26.1620   46.6150 C   0  0  0  0  0  0  0  0  0  0  0  0
   57.1280   25.5780   47.4810 O   0  0  0  0  0  0  0  0  0  0  0  0
   56.8920   27.4340   46.0340 C   0  0  0  0  0  0  0  0  0  0  0  0
   56.1230   28.2030   45.2390 N   0  0  0  0  0  0  0  0  0  0  0  0
   56.8380   29.3020   44.9320 C   0  0  0  0  0  0  0  0  0  0  0  0
   56.3130   30.4080   44.0710 C   0  0  0  0  0  0  0  0  0  0  0  0
   58.0920   29.2380   45.5220 C   0  0  0  0  0  0  0  0  0  0  0  0
   59.1530   30.2670   45.4470 C   0  0  0  0  0  0  0  0  0  0  0  0
   60.3470   29.9170   45.2430 O   0  0  0  0  0  0  0  0  0  0  0  0
   58.8290   31.6650   45.5510 N   0  0  0  0  0  0  0  0  0  0  0  0
   58.4430   32.3590   44.3120 C   0  0  0  0  0  0  0  0  0  0  0  0
   57.6900   33.6530   44.6130 C   0  0  0  0  0  0  0  0  0  0  0  0
   58.5320   34.5550   45.5130 C   0  0  0  0  0  0  0  0  0  0  0  0
   58.9590   33.8280   46.7600 C   0  0  0  0  0  0  0  0  0  0  0  0
   59.2530   34.5630   47.9190 C   0  0  0  0  0  0  0  0  0  0  0  0
   59.6440   33.9100   49.0880 C   0  0  0  0  0  0  0  0  0  0  0  0
   59.7420   32.5190   49.1130 C   0  0  0  0  0  0  0  0  0  0  0  0
   59.4750   31.7760   47.9600 C   0  0  0  0  0  0  0  0  0  0  0  0
   59.1130   32.4200   46.7570 C   0  0  0  0  0  0  0  0  0  0  0  0
   58.1340   28.0340   46.2190 C   0  0  0  0  0  0  0  0  0  0  0  0
   59.2940   27.4790   46.9950 C   0  0  0  0  0  0  0  0  0  0  0  0
   57.2559   24.2222   45.2485 H   0  0  0  0  0  0  0  0  0  0  0  0
   56.3792   23.4373   43.8914 H   0  0  0  0  0  0  0  0  0  0  0  0
   56.6264   25.2165   43.8914 H   0  0  0  0  0  0  0  0  0  0  0  0
   54.3212   24.7318   44.5424 H   0  0  0  0  0  0  0  0  0  0  0  0
   54.8959   23.5957   45.8223 H   0  0  0  0  0  0  0  0  0  0  0  0
   55.1440   27.9980   44.9310 H   0  0  0  0  0  0  0  0  0  0  0  0
   55.9286   31.2179   44.7084 H   0  0  0  0  0  0  0  0  0  0  0  0
   57.1237   30.7946   43.4359 H   0  0  0  0  0  0  0  0  0  0  0  0
   55.5009   30.0243   43.4359 H   0  0  0  0  0  0  0  0  0  0  0  0
   59.3501   32.5975   43.7373 H   0  0  0  0  0  0  0  0  0  0  0  0
   57.7800   31.6973   43.7353 H   0  0  0  0  0  0  0  0  0  0  0  0
   57.4770   34.1774   43.6698 H   0  0  0  0  0  0  0  0  0  0  0  0
   56.7488   33.4096   45.1277 H   0  0  0  0  0  0  0  0  0  0  0  0
   59.4269   34.8786   44.9613 H   0  0  0  0  0  0  0  0  0  0  0  0
   57.9236   35.4235   45.8054 H   0  0  0  0  0  0  0  0  0  0  0  0
   59.1746   35.6601   47.9054 H   0  0  0  0  0  0  0  0  0  0  0  0
   59.8754   34.4931   49.9916 H   0  0  0  0  0  0  0  0  0  0  0  0
   60.0301   32.0057   50.0423 H   0  0  0  0  0  0  0  0  0  0  0  0
   59.5476   30.6788   47.9900 H   0  0  0  0  0  0  0  0  0  0  0  0
   59.0938   27.5748   48.0724 H   0  0  0  0  0  0  0  0  0  0  0  0
   59.4312   26.4177   46.7405 H   0  0  0  0  0  0  0  0  0  0  0  0
   60.2065   28.0381   46.7405 H   0  0  0  0  0  0  0  0  0  0  0  0
  1  2  1  0
  2  3  1  0
  3  4  1  0
  4  5  2  0
  4  6  1  0
  6  7  1  0
  7  8  1  0
  8  9  1  0
  8 10  2  0
 10 11  1  0
 11 12  2  0
 11 13  1  0
 13 14  1  0
 14 15  1  0
 15 16  1  0
 16 17  1  0
 17 18  2  0
 18 19  1  0
 19 20  2  0
 20 21  1  0
 21 22  2  0
 10 23  1  0
 23 24  1  0
 23  6  2  0
 22 13  1  0
 22 17  1  0
  1 25  1  0
  1 26  1  0
  1 27  1  0
  2 28  1  0
  2 29  1  0
  7 30  1  0
  9 31  1  0
  9 32  1  0
  9 33  1  0
 14 34  1  0
 14 35  1  0
 15 36  1  0
 15 37  1  0
 16 38  1  0
 16 39  1  0
 18 40  1  0
 19 41  1  0
 20 42  1  0
 21 43  1  0
 24 44  1  0
 24 45  1  0
 24 46  1  0
M  END
>  <UniqueID>  (28) 
28

>  <SMILES>  (28) 
CCOC(=O)c1[nH]c(C)c(C(=O)N2CCCc3ccccc32)c1C

>  <Energy>  (28) 
75.92915582113858

>  <Genealogy>  (28) 
CCOC(=O)c1[nH]c(C)c(C(=O)N2CCCc3ccccc32)c1C (3D coordinates assigned)
CCOC(=O)c1[nH]c(C)c(C(=O)N2CCCc3ccccc32)c1C (nonaromatic ring conformer: 75.92915582113858 kcal/mol)

>  <smiles>  (28) 
CCOC(=O)c1[nH]c(C)c(C(=O)N2CCCc3ccccc32)c1C

>  <score_type>  (28) 
oracle

>  <origin>  (28) 
adg

>  <m_score__min__energy>  (28) 
-8.6099999999999994

>  <m_primary>  (28) 
energy

$$$$
28:0
     RDKit          3D

 50 52  0  0  0  0  0  0  0  0999 V2000
   64.5130   32.6670   49.0290 C   0  0  0  0  0  0  0  0  0  0  0  0
   63.5430   33.1270   47.9390 C   0  0  0  0  0  0  0  0  0  0  0  0
   62.2760   33.7550   48.4970 C   0  0  0  0  0  0  0  0  0  0  0  0
   62.3840   34.6320   49.3450 O   0  0  0  0  0  0  0  0  0  0  0  0
   60.9350   33.3930   48.0450 N   0  0  0  0  0  0  0  0  0  0  0  0
   60.9810   32.3790   46.9680 C   0  0  0  0  0  0  0  0  0  0  0  0
   61.2540   30.9770   47.5100 C   0  0  0  0  0  0  0  0  0  0  0  0
   60.2690   30.6490   48.5410 N   0  0  0  0  0  0  0  0  0  0  0  0
   59.8640   29.2810   48.7300 C   0  0  0  0  0  0  0  0  0  0  0  0
   59.9630   28.7600   49.8750 O   0  0  0  0  0  0  0  0  0  0  0  0
   59.3130   28.4790   47.6120 C   0  0  0  0  0  0  0  0  0  0  0  0
   59.9640   27.3120   47.1800 C   0  0  0  0  0  0  0  0  0  0  0  0
   59.4510   26.5730   46.1110 C   0  0  0  0  0  0  0  0  0  0  0  0
   58.2850   26.9880   45.4630 C   0  0  0  0  0  0  0  0  0  0  0  0
   57.6160   28.1470   45.8910 C   0  0  0  0  0  0  0  0  0  0  0  0
   56.4300   28.6230   45.2380 N   0  0  0  0  0  0  0  0  0  0  0  0
   56.2810   29.8710   44.5490 C   0  0  0  0  0  0  0  0  0  0  0  0
   55.1520   30.4220   44.4440 O   0  0  0  0  0  0  0  0  0  0  0  0
   57.4840   30.5310   43.9560 C   0  0  0  0  0  0  0  0  0  0  0  0
   57.7220   31.8490   44.6200 C   0  0  0  0  0  0  0  0  0  0  0  0
   57.8130   33.0780   43.9800 C   0  0  0  0  0  0  0  0  0  0  0  0
   57.9690   34.1490   44.8680 C   0  0  0  0  0  0  0  0  0  0  0  0
   57.9860   33.7700   46.2040 C   0  0  0  0  0  0  0  0  0  0  0  0
   57.8040   32.0990   46.2800 S   0  0  0  0  0  0  0  0  0  0  0  0
   58.1490   28.9000   46.9450 C   0  0  0  0  0  0  0  0  0  0  0  0
   60.0880   31.6030   49.6360 C   0  0  0  0  0  0  0  0  0  0  0  0
   59.9540   33.0420   49.1020 C   0  0  0  0  0  0  0  0  0  0  0  0
   64.0779   32.8734   50.0180 H   0  0  0  0  0  0  0  0  0  0  0  0
   64.6944   31.5869   48.9264 H   0  0  0  0  0  0  0  0  0  0  0  0
   65.4641   33.2100   48.9264 H   0  0  0  0  0  0  0  0  0  0  0  0
   64.0527   33.8689   47.3067 H   0  0  0  0  0  0  0  0  0  0  0  0
   63.2441   32.2359   47.3675 H   0  0  0  0  0  0  0  0  0  0  0  0
   60.5540   34.2640   47.6010 H   0  0  0  0  0  0  0  0  0  0  0  0
   60.0141   32.3745   46.4436 H   0  0  0  0  0  0  0  0  0  0  0  0
   61.8030   32.6450   46.2872 H   0  0  0  0  0  0  0  0  0  0  0  0
   61.1826   30.2472   46.6901 H   0  0  0  0  0  0  0  0  0  0  0  0
   62.2636   30.9439   47.9455 H   0  0  0  0  0  0  0  0  0  0  0  0
   60.8821   26.9782   47.6856 H   0  0  0  0  0  0  0  0  0  0  0  0
   59.9674   25.6605   45.7782 H   0  0  0  0  0  0  0  0  0  0  0  0
   57.8902   26.4067   44.6167 H   0  0  0  0  0  0  0  0  0  0  0  0
   58.3628   29.8856   44.1016 H   0  0  0  0  0  0  0  0  0  0  0  0
   57.3147   30.6929   42.8812 H   0  0  0  0  0  0  0  0  0  0  0  0
   57.7672   33.1977   42.8875 H   0  0  0  0  0  0  0  0  0  0  0  0
   58.0688   35.1936   44.5382 H   0  0  0  0  0  0  0  0  0  0  0  0
   58.0990   34.4459   47.0644 H   0  0  0  0  0  0  0  0  0  0  0  0
   57.6514   29.8310   47.2543 H   0  0  0  0  0  0  0  0  0  0  0  0
   59.1771   31.3407   50.1940 H   0  0  0  0  0  0  0  0  0  0  0  0
   60.9704   31.5543   50.2910 H   0  0  0  0  0  0  0  0  0  0  0  0
   58.9423   33.1632   48.6876 H   0  0  0  0  0  0  0  0  0  0  0  0
   60.1504   33.7135   49.9508 H   0  0  0  0  0  0  0  0  0  0  0  0
  1  2  1  0
  2  3  1  0
  3  4  2  0
  3  5  1  0
  5  6  1  0
  6  7  1  0
  7  8  1  0
  8  9  1  0
  9 10  2  0
  9 11  1  0
 11 12  2  0
 12 13  1  0
 13 14  2  0
 14 15  1  0
 15 16  1  0
 16 17  1  0
 17 18  2  0
 17 19  1  0
 19 20  1  0
 20 21  2  0
 21 22  1  0
 22 23  2  0
 23 24  1  0
 15 25  2  0
  8 26  1  0
 26 27  1  0
 27  5  1  0
 25 11  1  0
 24 20  1  0
  1 28  1  0
  1 29  1  0
  1 30  1  0
  2 31  1  0
  2 32  1  0
  5 33  1  0
  6 34  1  0
  6 35  1  0
  7 36  1  0
  7 37  1  0
 12 38  1  0
 13 39  1  0
 14 40  1  0
 19 41  1  0
 19 42  1  0
 21 43  1  0
 22 44  1  0
 23 45  1  0
 25 46  1  0
 26 47  1  0
 26 48  1  0
 27 49  1  0
 27 50  1  0
M  CHG  2   5   1  16  -1
M  END
>  <UniqueID>  (29) 
29

>  <SMILES>  (29) 
CCC(=O)[NH+]1CCN(C(=O)c2cccc([N-]C(=O)Cc3cccs3)c2)CC1

>  <Energy>  (29) 
88.69699213227582

>  <Genealogy>  (29) 
CCC(=O)[NH+]1CCN(C(=O)c2cccc([N-]C(=O)Cc3cccs3)c2)CC1 (protonated)
CCC(=O)[NH+]1CCN(C(=O)c2cccc([N-]C(=O)Cc3cccs3)c2)CC1 (3D coordinates assigned)
CCC(=O)[NH+]1CCN(C(=O)c2cccc([N-]C(=O)Cc3cccs3)c2)CC1 (nonaromatic ring conformer: 88.69699213227582 kcal/mol)

>  <smiles>  (29) 
CCC(=O)N1CCN(C(=O)c2cccc(NC(=O)Cc3cccs3)c2)CC1

>  <score_type>  (29) 
oracle

>  <origin>  (29) 
adg

>  <m_score__min__energy>  (29) 
-9.3699999999999992

>  <m_primary>  (29) 
energy

$$$$
29:0
     RDKit          3D

 47 49  0  0  0  0  0  0  0  0999 V2000
   56.4380   24.3610   44.5960 C   0  0  0  0  0  0  0  0  0  0  0  0
   55.4700   24.9770   45.9570 S   0  0  0  0  0  0  0  0  0  0  0  0
   54.0480   24.5240   45.7800 O   0  0  0  0  0  0  0  0  0  0  0  0
   55.9910   24.4370   47.2590 O   0  0  0  0  0  0  0  0  0  0  0  0
   55.5030   26.7110   45.9760 N   0  0  0  0  0  0  0  0  0  0  0  0
   56.6790   27.5290   45.8960 C   0  0  0  0  0  0  0  0  0  0  0  0
   57.8830   27.1780   46.5330 C   0  0  0  0  0  0  0  0  0  0  0  0
   58.9980   28.0140   46.4350 C   0  0  0  0  0  0  0  0  0  0  0  0
   58.9290   29.1960   45.6950 C   0  0  0  0  0  0  0  0  0  0  0  0
   57.7440   29.5460   45.0310 C   0  0  0  0  0  0  0  0  0  0  0  0
   57.6940   30.8120   44.2670 C   0  0  0  0  0  0  0  0  0  0  0  0
   57.2680   31.9910   44.7500 C   0  0  0  0  0  0  0  0  0  0  0  0
   58.1400   33.0600   45.2850 C   0  0  0  0  0  0  0  0  0  0  0  0
   58.4090   34.2250   44.5450 C   0  0  0  0  0  0  0  0  0  0  0  0
   59.2440   35.2140   45.0710 C   0  0  0  0  0  0  0  0  0  0  0  0
   59.8390   35.0380   46.3210 C   0  0  0  0  0  0  0  0  0  0  0  0
   59.6230   33.8570   47.0490 C   0  0  0  0  0  0  0  0  0  0  0  0
   60.2480   33.6620   48.3730 C   0  0  0  0  0  0  0  0  0  0  0  0
   59.5040   33.5380   49.3850 O   0  0  0  0  0  0  0  0  0  0  0  0
   61.6770   33.5920   48.5320 N   0  0  0  0  0  0  0  0  0  0  0  0
   62.3210   33.6590   49.8330 C   0  0  0  0  0  0  0  0  0  0  0  0
   63.8060   33.4560   49.5660 C   0  0  0  0  0  0  0  0  0  0  0  0
   63.8910   32.8130   48.1850 C   0  0  0  0  0  0  0  0  0  0  0  0
   62.5920   33.1830   47.4780 C   0  0  0  0  0  0  0  0  0  0  0  0
   58.7660   32.8750   46.5260 C   0  0  0  0  0  0  0  0  0  0  0  0
   56.6140   28.7190   45.1620 C   0  0  0  0  0  0  0  0  0  0  0  0
   57.3063   23.8084   44.9841 H   0  0  0  0  0  0  0  0  0  0  0  0
   55.8207   23.6892   43.9814 H   0  0  0  0  0  0  0  0  0  0  0  0
   56.7851   25.2047   43.9814 H   0  0  0  0  0  0  0  0  0  0  0  0
   57.9467   26.2433   47.1095 H   0  0  0  0  0  0  0  0  0  0  0  0
   59.9343   27.7398   46.9430 H   0  0  0  0  0  0  0  0  0  0  0  0
   59.8073   29.8553   45.6325 H   0  0  0  0  0  0  0  0  0  0  0  0
   58.0324   30.7858   43.2207 H   0  0  0  0  0  0  0  0  0  0  0  0
   56.1838   32.1766   44.7476 H   0  0  0  0  0  0  0  0  0  0  0  0
   57.9608   34.3581   43.5493 H   0  0  0  0  0  0  0  0  0  0  0  0
   59.4329   36.1339   44.4983 H   0  0  0  0  0  0  0  0  0  0  0  0
   60.4804   35.8284   46.7380 H   0  0  0  0  0  0  0  0  0  0  0  0
   62.1452   34.6401   50.2983 H   0  0  0  0  0  0  0  0  0  0  0  0
   61.9241   32.8998   50.5231 H   0  0  0  0  0  0  0  0  0  0  0  0
   64.3328   34.4216   49.5729 H   0  0  0  0  0  0  0  0  0  0  0  0
   64.2758   32.8275   50.3370 H   0  0  0  0  0  0  0  0  0  0  0  0
   64.7554   33.2074   47.6307 H   0  0  0  0  0  0  0  0  0  0  0  0
   64.0211   31.7228   48.2517 H   0  0  0  0  0  0  0  0  0  0  0  0
   62.7605   34.0105   46.7731 H   0  0  0  0  0  0  0  0  0  0  0  0
   62.1914   32.3408   46.8948 H   0  0  0  0  0  0  0  0  0  0  0  0
   58.5840   31.9516   47.0955 H   0  0  0  0  0  0  0  0  0  0  0  0
   55.6682   29.0108   44.6821 H   0  0  0  0  0  0  0  0  0  0  0  0
  1  2  1  0
  2  3  2  0
  2  4  2  0
  2  5  1  0
  5  6  1  0
  6  7  2  0
  7  8  1  0
  8  9  2  0
  9 10  1  0
 10 11  1  0
 11 12  2  3
 12 13  1  0
 13 14  2  0
 14 15  1  0
 15 16  2  0
 16 17  1  0
 17 18  1  0
 18 19  2  0
 18 20  1  0
 20 21  1  0
 21 22  1  0
 22 23  1  0
 23 24  1  0
 17 25  2  0
 10 26  2  0
 26  6  1  0
 25 13  1  0
 24 20  1  0
  1 27  1  0
  1 28  1  0
  1 29  1  0
  7 30  1  0
  8 31  1  0
  9 32  1  0
 11 33  1  0
 12 34  1  0
 14 35  1  0
 15 36  1  0
 16 37  1  0
 21 38  1  0
 21 39  1  0
 22 40  1  0
 22 41  1  0
 23 42  1  0
 23 43  1  0
 24 44  1  0
 24 45  1  0
 25 46  1  0
 26 47  1  0
M  CHG  1   5  -1
M  END
>  <UniqueID>  (30) 
30

>  <SMILES>  (30) 
CS(=O)(=O)[N-]c1cccc(C=Cc2cccc(C(=O)N3CCCC3)c2)c1

>  <Energy>  (30) 
60.211535616455016

>  <Genealogy>  (30) 
CS(=O)(=O)[N-]c1cccc(C=Cc2cccc(C(=O)N3CCCC3)c2)c1 (protonated)
CS(=O)(=O)[N-]c1cccc(C=Cc2cccc(C(=O)N3CCCC3)c2)c1 (3D coordinates assigned)
CS(=O)(=O)[N-]c1cccc(C=Cc2cccc(C(=O)N3CCCC3)c2)c1 (nonaromatic ring conformer: 60.211535616455016 kcal/mol)

>  <smiles>  (30) 
CS(=O)(=O)Nc1cccc(C=Cc2cccc(C(=O)N3CCCC3)c2)c1

>  <score_type>  (30) 
oracle

>  <origin>  (30) 
adg

>  <m_score__min__energy>  (30) 
-12.02

>  <m_primary>  (30) 
energy

$$$$
30:0
     RDKit          3D

 35 37  0  0  0  0  0  0  0  0999 V2000
   55.8110   31.6720   44.1620 H   0  0  0  0  0  0  0  0  0  0  0  0
   55.8520   30.6310   44.0950 N   0  0  0  0  0  0  0  0  0  0  0  0
   56.6140   29.9370   44.8800 C   0  0  0  0  0  0  0  0  0  0  0  0
   57.5410   30.4640   45.7070 N   0  0  0  0  0  0  0  0  0  0  0  0
   57.8930   31.8420   45.9020 C   0  0  0  0  0  0  0  0  0  0  0  0
   57.0150   32.7290   45.7150 O   0  0  0  0  0  0  0  0  0  0  0  0
   59.2460   32.2480   46.3450 C   0  0  0  0  0  0  0  0  0  0  0  0
   60.1590   31.2810   46.8050 C   0  0  0  0  0  0  0  0  0  0  0  0
   59.8599   30.2233   46.8485 H   0  0  0  0  0  0  0  0  0  0  0  0
   61.4440   31.6570   47.2070 C   0  0  0  0  0  0  0  0  0  0  0  0
   62.1488   30.8966   47.5743 H   0  0  0  0  0  0  0  0  0  0  0  0
   61.8350   32.9980   47.1430 C   0  0  0  0  0  0  0  0  0  0  0  0
   63.4490   33.4680   47.6450 Cl  0  0  0  0  0  0  0  0  0  0  0  0
   60.9410   33.9640   46.6700 C   0  0  0  0  0  0  0  0  0  0  0  0
   61.2498   35.0183   46.6149 H   0  0  0  0  0  0  0  0  0  0  0  0
   59.6550   33.5910   46.2670 C   0  0  0  0  0  0  0  0  0  0  0  0
   58.9589   34.3531   45.8865 H   0  0  0  0  0  0  0  0  0  0  0  0
   58.0590   29.4700   46.4130 N   0  0  0  0  0  0  0  0  0  0  0  0
   57.4360   28.3500   45.9810 C   0  0  0  0  0  0  0  0  0  0  0  0
   57.6970   27.1490   46.4080 N   0  0  0  0  0  0  0  0  0  0  0  0
   57.2630   25.9140   45.8130 C   0  0  0  0  0  0  0  0  0  0  0  0
   57.6500   25.6320   44.4980 C   0  0  0  0  0  0  0  0  0  0  0  0
   58.2915   26.3416   43.9549 H   0  0  0  0  0  0  0  0  0  0  0  0
   57.2290   24.4570   43.8680 C   0  0  0  0  0  0  0  0  0  0  0  0
   57.5534   24.2420   42.8391 H   0  0  0  0  0  0  0  0  0  0  0  0
   56.3940   23.5490   44.5410 C   0  0  0  0  0  0  0  0  0  0  0  0
   55.9500   22.3060   43.8740 C   0  0  0  0  0  0  0  0  0  0  0  0
   55.8800   22.2420   42.6180 O   0  0  0  0  0  0  0  0  0  0  0  0
   55.6000   21.1900   44.6270 O   0  0  0  0  0  0  0  0  0  0  0  0
   55.9790   23.8480   45.8510 C   0  0  0  0  0  0  0  0  0  0  0  0
   55.3166   23.1516   46.3859 H   0  0  0  0  0  0  0  0  0  0  0  0
   56.4020   25.0240   46.4790 C   0  0  0  0  0  0  0  0  0  0  0  0
   56.0595   25.2537   47.4988 H   0  0  0  0  0  0  0  0  0  0  0  0
   56.5310   28.6020   45.0150 N   0  0  0  0  0  0  0  0  0  0  0  0
   55.9060   27.9300   44.5150 H   0  0  0  0  0  0  0  0  0  0  0  0
  1  2  1  0
  2  3  2  0
  3  4  1  0
  4  5  1  0
  5  6  2  0
  5  7  1  0
  7  8  2  0
  8  9  1  0
  8 10  1  0
 10 11  1  0
 10 12  2  0
 12 13  1  0
 12 14  1  0
 14 15  1  0
 14 16  2  0
 16 17  1  0
  4 18  1  0
 18 19  1  0
 19 20  2  3
 20 21  1  0
 21 22  2  0
 22 23  1  0
 22 24  1  0
 24 25  1  0
 24 26  2  0
 26 27  1  0
 27 28  2  0
 27 29  1  0
 26 30  1  0
 30 31  1  0
 30 32  2  0
 32 33  1  0
 19 34  1  0
 34 35  1  0
 34  3  1  0
 16  7  1  0
 32 21  1  0
M  CHG  2  18  -1  29  -1
M  END
>  <UniqueID>  (31) 
31

>  <SMILES>  (31) 
[H]/N=c1\[nH]c(=Nc2ccc(C(=O)[O-])cc2)[n-]n1C(=O)c1ccc(Cl)cc1

>  <Energy>  (31) 
86.91681559565329

>  <Genealogy>  (31) 
N=c1[nH]c(=Nc2ccc(C(=O)[O-])cc2)[n-]n1C(=O)c1ccc(Cl)cc1 (protonated)
[H]/N=c1\[nH]c(=Nc2ccc(C(=O)[O-])cc2)[n-]n1C(=O)c1ccc(Cl)cc1 (cis-trans isomerization)
[H]/N=c1\[nH]c(=Nc2ccc(C(=O)[O-])cc2)[n-]n1C(=O)c1ccc(Cl)cc1 (3D coordinates assigned)
[H]/N=c1\[nH]c(=Nc2ccc(C(=O)[O-])cc2)[n-]n1C(=O)c1ccc(Cl)cc1 (optimized conformer: 86.91681559565329 kcal/mol)

>  <smiles>  (31) 
N=c1[nH]c(=Nc2ccc(C(=O)O)cc2)[nH]n1C(=O)c1ccc(Cl)cc1

>  <score_type>  (31) 
oracle

>  <origin>  (31) 
adg

>  <m_score__min__energy>  (31) 
-11.359999999999999

>  <m_primary>  (31) 
energy

$$$$
31:0
     RDKit          3D

 54 56  0  0  0  0  0  0  0  0999 V2000
   67.4820   28.6460   51.0760 C   0  0  0  0  0  0  0  0  0  0  0  0
   67.3800   29.9080   51.4950 C   0  0  0  0  0  0  0  0  0  0  0  0
   66.3110   30.8460   51.0690 C   0  0  0  0  0  0  0  0  0  0  0  0
   64.9730   30.4720   51.2670 C   0  0  0  0  0  0  0  0  0  0  0  0
   63.9300   31.3150   50.8770 C   0  0  0  0  0  0  0  0  0  0  0  0
   64.1980   32.5490   50.2620 C   0  0  0  0  0  0  0  0  0  0  0  0
   63.0680   33.4320   49.8630 C   0  0  0  0  0  0  0  0  0  0  0  0
   62.9810   34.5780   50.3900 O   0  0  0  0  0  0  0  0  0  0  0  0
   62.0840   33.0280   48.8750 N   0  0  1  0  0  0  0  0  0  0  0  0
   60.7120   32.9990   49.4770 C   0  0  0  0  0  0  0  0  0  0  0  0
   59.7930   34.1230   48.9780 C   0  0  0  0  0  0  0  0  0  0  0  0
   59.7390   34.0800   47.5170 N   0  0  0  0  0  0  0  0  0  0  0  0
   58.4710   34.1860   46.7880 C   0  0  0  0  0  0  0  0  0  0  0  0
   58.1270   32.8630   46.1590 C   0  0  0  0  0  0  0  0  0  0  0  0
   58.5530   31.6690   46.7600 C   0  0  0  0  0  0  0  0  0  0  0  0
   58.2130   30.4350   46.1970 C   0  0  0  0  0  0  0  0  0  0  0  0
   57.4310   30.3800   45.0330 C   0  0  0  0  0  0  0  0  0  0  0  0
   57.0960   29.0560   44.4110 C   0  0  0  0  0  0  0  0  0  0  0  0
   56.0760   28.3900   45.2120 N   0  0  0  0  0  0  0  0  0  0  0  0
   56.2270   27.0780   45.7650 C   0  0  0  0  0  0  0  0  0  0  0  0
   57.5800   26.4790   45.9970 C   0  0  0  0  0  0  0  0  0  0  0  0
   55.1970   26.4160   46.0600 O   0  0  0  0  0  0  0  0  0  0  0  0
   57.0130   31.5750   44.4260 C   0  0  0  0  0  0  0  0  0  0  0  0
   57.3520   32.8080   44.9890 C   0  0  0  0  0  0  0  0  0  0  0  0
   60.9880   33.9110   46.8370 C   0  0  0  0  0  0  0  0  0  0  0  0
   61.0430   33.8350   45.5810 O   0  0  0  0  0  0  0  0  0  0  0  0
   62.2420   33.8760   47.6600 C   0  0  0  0  0  0  0  0  0  0  0  0
   65.5380   32.9260   50.0600 C   0  0  0  0  0  0  0  0  0  0  0  0
   66.5820   32.0830   50.4520 C   0  0  0  0  0  0  0  0  0  0  0  0
   68.3043   28.0112   51.4377 H   0  0  0  0  0  0  0  0  0  0  0  0
   66.7438   28.2399   50.3687 H   0  0  0  0  0  0  0  0  0  0  0  0
   68.1371   30.2779   52.2021 H   0  0  0  0  0  0  0  0  0  0  0  0
   64.7430   29.5034   51.7349 H   0  0  0  0  0  0  0  0  0  0  0  0
   62.8881   31.0094   51.0533 H   0  0  0  0  0  0  0  0  0  0  0  0
   62.2870   32.0420   48.5900 H   0  0  0  0  0  0  0  0  0  0  0  0
   60.2452   32.0340   49.2302 H   0  0  0  0  0  0  0  0  0  0  0  0
   60.8344   33.1423   50.5607 H   0  0  0  0  0  0  0  0  0  0  0  0
   58.7823   33.9828   49.3888 H   0  0  0  0  0  0  0  0  0  0  0  0
   60.1843   35.0969   49.3071 H   0  0  0  0  0  0  0  0  0  0  0  0
   57.6723   34.4759   47.4866 H   0  0  0  0  0  0  0  0  0  0  0  0
   58.5705   34.9460   45.9990 H   0  0  0  0  0  0  0  0  0  0  0  0
   59.1573   31.7037   47.6785 H   0  0  0  0  0  0  0  0  0  0  0  0
   58.5599   29.5036   46.6684 H   0  0  0  0  0  0  0  0  0  0  0  0
   56.7160   29.2151   43.3911 H   0  0  0  0  0  0  0  0  0  0  0  0
   57.9992   28.4295   44.3707 H   0  0  0  0  0  0  0  0  0  0  0  0
   57.7643   26.3974   47.0784 H   0  0  0  0  0  0  0  0  0  0  0  0
   57.6211   25.4786   45.5415 H   0  0  0  0  0  0  0  0  0  0  0  0
   58.3483   27.1211   45.5415 H   0  0  0  0  0  0  0  0  0  0  0  0
   56.4158   31.5404   43.5029 H   0  0  0  0  0  0  0  0  0  0  0  0
   57.0105   33.7395   44.5139 H   0  0  0  0  0  0  0  0  0  0  0  0
   63.0593   33.4696   47.0462 H   0  0  0  0  0  0  0  0  0  0  0  0
   62.4650   34.9025   47.9866 H   0  0  0  0  0  0  0  0  0  0  0  0
   65.7666   33.8934   49.5891 H   0  0  0  0  0  0  0  0  0  0  0  0
   67.6242   32.3883   50.2771 H   0  0  0  0  0  0  0  0  0  0  0  0
  1  2  2  0
  2  3  1  0
  3  4  2  0
  4  5  1  0
  5  6  2  0
  6  7  1  0
  7  8  2  0
  7  9  1  0
  9 10  1  0
 10 11  1  0
 11 12  1  0
 12 13  1  0
 13 14  1  0
 14 15  2  0
 15 16  1  0
 16 17  2  0
 17 18  1  0
 18 19  1  0
 19 20  1  0
 20 21  1  0
 20 22  2  0
 17 23  1  0
 23 24  2  0
 12 25  1  0
 25 26  2  0
 25 27  1  0
  6 28  1  0
 28 29  2  0
 29  3  1  0
 27  9  1  0
 24 14  1  0
  1 30  1  0
  1 31  1  0
  2 32  1  0
  4 33  1  0
  5 34  1  0
  9 35  1  6
 10 36  1  0
 10 37  1  0
 11 38  1  0
 11 39  1  0
 13 40  1  0
 13 41  1  0
 15 42  1  0
 16 43  1  0
 18 44  1  0
 18 45  1  0
 21 46  1  0
 21 47  1  0
 21 48  1  0
 23 49  1  0
 24 50  1  0
 27 51  1  0
 27 52  1  0
 28 53  1  0
 29 54  1  0
M  CHG  2   9   1  19  -1
M  END
>  <UniqueID>  (32) 
32

>  <SMILES>  (32) 
C=Cc1ccc(C(=O)[N@H+]2CCN(Cc3ccc(C[N-]C(C)=O)cc3)C(=O)C2)cc1

>  <Energy>  (32) 
64.58263463528392

>  <Genealogy>  (32) 
C=Cc1ccc(C(=O)[NH+]2CCN(Cc3ccc(C[N-]C(C)=O)cc3)C(=O)C2)cc1 (protonated)
C=Cc1ccc(C(=O)[N@H+]2CCN(Cc3ccc(C[N-]C(C)=O)cc3)C(=O)C2)cc1 (chirality)
C=Cc1ccc(C(=O)[N@H+]2CCN(Cc3ccc(C[N-]C(C)=O)cc3)C(=O)C2)cc1 (3D coordinates assigned)
C=Cc1ccc(C(=O)[N@H+]2CCN(Cc3ccc(C[N-]C(C)=O)cc3)C(=O)C2)cc1 (nonaromatic ring conformer: 64.58263463528392 kcal/mol)

>  <smiles>  (32) 
C=Cc1ccc(C(=O)N2CCN(Cc3ccc(CNC(C)=O)cc3)C(=O)C2)cc1

>  <score_type>  (32) 
oracle

>  <origin>  (32) 
adg

>  <m_score__min__energy>  (32) 
-9.4399999999999995

>  <m_primary>  (32) 
energy

$$$$
32:0
     RDKit          3D

 45 47  0  0  0  0  0  0  0  0999 V2000
   63.4000   32.2930   47.2680 C   0  0  0  0  0  0  0  0  0  0  0  0
   63.6580   33.2410   48.2970 O   0  0  0  0  0  0  0  0  0  0  0  0
   62.6770   33.6490   49.2040 C   0  0  0  0  0  0  0  0  0  0  0  0
   62.9020   33.6130   50.4450 O   0  0  0  0  0  0  0  0  0  0  0  0
   61.3720   34.1090   48.6990 C   0  0  0  0  0  0  0  0  0  0  0  0
   61.2530   34.4070   47.4810 O   0  0  0  0  0  0  0  0  0  0  0  0
   60.1670   34.1730   49.5920 C   0  0  0  0  0  0  0  0  0  0  0  0
   59.3340   32.9400   49.4040 C   0  0  0  0  0  0  0  0  0  0  0  0
   58.4970   32.6120   50.2870 O   0  0  0  0  0  0  0  0  0  0  0  0
   59.4020   32.1760   48.1480 C   0  0  0  0  0  0  0  0  0  0  0  0
   59.8830   30.8760   47.9850 C   0  0  0  0  0  0  0  0  0  0  0  0
   60.4140   30.0120   49.0930 C   0  0  0  0  0  0  0  0  0  0  0  0
   59.6250   30.4330   46.7240 N   0  0  0  0  0  0  0  0  0  0  0  0
   59.8410   29.0730   46.2140 C   0  0  0  0  0  0  0  0  0  0  0  0
   58.5330   28.3310   46.1230 C   0  0  0  0  0  0  0  0  0  0  0  0
   57.4930   28.8280   45.3200 C   0  0  0  0  0  0  0  0  0  0  0  0
   56.2720   28.1510   45.2480 C   0  0  0  0  0  0  0  0  0  0  0  0
   56.0800   26.9720   45.9740 C   0  0  0  0  0  0  0  0  0  0  0  0
   54.8650   26.3020   45.9040 O   0  0  0  0  0  0  0  0  0  0  0  0
   57.1110   26.4690   46.7740 C   0  0  0  0  0  0  0  0  0  0  0  0
   58.3320   27.1450   46.8500 C   0  0  0  0  0  0  0  0  0  0  0  0
   58.9970   31.4520   46.0910 C   0  0  0  0  0  0  0  0  0  0  0  0
   58.5000   31.4880   44.7820 C   0  0  0  0  0  0  0  0  0  0  0  0
   57.8560   32.6590   44.3480 C   0  0  0  0  0  0  0  0  0  0  0  0
   57.7160   33.7630   45.2150 C   0  0  0  0  0  0  0  0  0  0  0  0
   57.0790   34.9150   44.7700 O   0  0  0  0  0  0  0  0  0  0  0  0
   58.2130   33.7030   46.5270 C   0  0  0  0  0  0  0  0  0  0  0  0
   58.8470   32.5270   46.9340 C   0  0  0  0  0  0  0  0  0  0  0  0
   63.1365   31.3249   47.7190 H   0  0  0  0  0  0  0  0  0  0  0  0
   62.5654   32.6464   46.6447 H   0  0  0  0  0  0  0  0  0  0  0  0
   64.2986   32.1747   46.6447 H   0  0  0  0  0  0  0  0  0  0  0  0
   60.4920   34.2386   50.6409 H   0  0  0  0  0  0  0  0  0  0  0  0
   59.5691   35.0599   49.3350 H   0  0  0  0  0  0  0  0  0  0  0  0
   60.1431   30.4529   50.0637 H   0  0  0  0  0  0  0  0  0  0  0  0
   59.9787   29.0049   49.0134 H   0  0  0  0  0  0  0  0  0  0  0  0
   61.5091   29.9455   49.0134 H   0  0  0  0  0  0  0  0  0  0  0  0
   60.2959   29.1291   45.2141 H   0  0  0  0  0  0  0  0  0  0  0  0
   60.5082   28.5356   46.9039 H   0  0  0  0  0  0  0  0  0  0  0  0
   57.6401   29.7542   44.7452 H   0  0  0  0  0  0  0  0  0  0  0  0
   55.4610   28.5467   44.6190 H   0  0  0  0  0  0  0  0  0  0  0  0
   56.9608   25.5403   47.3441 H   0  0  0  0  0  0  0  0  0  0  0  0
   59.1396   26.7469   47.4819 H   0  0  0  0  0  0  0  0  0  0  0  0
   58.6109   30.6228   44.1118 H   0  0  0  0  0  0  0  0  0  0  0  0
   57.4579   32.7153   43.3241 H   0  0  0  0  0  0  0  0  0  0  0  0
   58.1062   34.5561   47.2132 H   0  0  0  0  0  0  0  0  0  0  0  0
  1  2  1  0
  2  3  1  0
  3  4  2  0
  3  5  1  0
  5  6  2  0
  5  7  1  0
  7  8  1  0
  8  9  2  0
  8 10  1  0
 10 11  2  0
 11 12  1  0
 11 13  1  0
 13 14  1  0
 14 15  1  0
 15 16  2  0
 16 17  1  0
 17 18  2  0
 18 19  1  0
 18 20  1  0
 20 21  2  0
 13 22  1  0
 22 23  2  0
 23 24  1  0
 24 25  2  0
 25 26  1  0
 25 27  1  0
 27 28  2  0
 28 10  1  0
 21 15  1  0
 28 22  1  0
  1 29  1  0
  1 30  1  0
  1 31  1  0
  7 32  1  0
  7 33  1  0
 12 34  1  0
 12 35  1  0
 12 36  1  0
 14 37  1  0
 14 38  1  0
 16 39  1  0
 17 40  1  0
 20 41  1  0
 21 42  1  0
 23 43  1  0
 24 44  1  0
 27 45  1  0
M  CHG  2  19  -1  26  -1
M  END
>  <UniqueID>  (33) 
33

>  <SMILES>  (33) 
COC(=O)C(=O)CC(=O)c1c(C)n(Cc2ccc([O-])cc2)c2ccc([O-])cc12

>  <Energy>  (33) 
77.103846998018

>  <Genealogy>  (33) 
COC(=O)C(=O)CC(=O)c1c(C)n(Cc2ccc([O-])cc2)c2ccc([O-])cc12 (protonated)
COC(=O)C(=O)CC(=O)c1c(C)n(Cc2ccc([O-])cc2)c2ccc([O-])cc12 (3D coordinates assigned)
COC(=O)C(=O)CC(=O)c1c(C)n(Cc2ccc([O-])cc2)c2ccc([O-])cc12 (optimized conformer: 77.103846998018 kcal/mol)

>  <smiles>  (33) 
COC(=O)C(=O)CC(=O)c1c(C)n(Cc2ccc(O)cc2)c2ccc(O)cc12

>  <score_type>  (33) 
oracle

>  <origin>  (33) 
adg

>  <m_score__min__energy>  (33) 
-10.960000000000001

>  <m_primary>  (33) 
energy

$$$$
33:0
     RDKit          3D

 48 50  0  0  0  0  0  0  0  0999 V2000
   65.8330   33.0670   50.1430 C   0  0  0  0  0  0  0  0  0  0  0  0
   64.9610   32.4140   49.3740 C   0  0  0  0  0  0  0  0  0  0  0  0
   63.6050   32.9160   49.0340 C   0  0  0  0  0  0  0  0  0  0  0  0
   62.9180   33.6850   49.9850 C   0  0  0  0  0  0  0  0  0  0  0  0
   61.6360   34.1730   49.7180 C   0  0  0  0  0  0  0  0  0  0  0  0
   61.0070   33.8860   48.4970 C   0  0  0  0  0  0  0  0  0  0  0  0
   59.6170   34.4160   48.2030 C   0  0  0  0  0  0  0  0  0  0  0  0
   59.0730   33.9890   46.8960 N   0  0  0  0  0  0  0  0  0  0  0  0
   59.3480   34.9350   45.8010 C   0  0  0  0  0  0  0  0  0  0  0  0
   59.1730   34.2060   44.4660 C   0  0  0  0  0  0  0  0  0  0  0  0
   58.0350   33.2760   44.5140 N   0  0  0  0  0  0  0  0  0  0  0  0
   57.8460   32.3540   43.4230 C   0  0  0  0  0  0  0  0  0  0  0  0
   58.3200   32.6320   42.2870 O   0  0  0  0  0  0  0  0  0  0  0  0
   57.0700   31.0740   43.6060 C   0  0  0  0  0  0  0  0  0  0  0  0
   57.8720   30.0370   44.3480 C   0  0  0  0  0  0  0  0  0  0  0  0
   58.8340   30.4310   45.2940 C   0  0  0  0  0  0  0  0  0  0  0  0
   59.6000   29.4710   45.9620 C   0  0  0  0  0  0  0  0  0  0  0  0
   59.4200   28.1120   45.6830 C   0  0  0  0  0  0  0  0  0  0  0  0
   60.3840   26.9090   46.5200 Cl  0  0  0  0  0  0  0  0  0  0  0  0
   58.4730   27.7140   44.7340 C   0  0  0  0  0  0  0  0  0  0  0  0
   57.7050   28.6710   44.0650 C   0  0  0  0  0  0  0  0  0  0  0  0
   57.0100   33.4590   45.5540 C   0  0  0  0  0  0  0  0  0  0  0  0
   57.6480   33.5920   46.9530 C   0  0  0  0  0  0  0  0  0  0  0  0
   61.6920   33.1210   47.5410 C   0  0  0  0  0  0  0  0  0  0  0  0
   62.9740   32.6320   47.8070 C   0  0  0  0  0  0  0  0  0  0  0  0
   66.8204   32.6284   50.3494 H   0  0  0  0  0  0  0  0  0  0  0  0
   65.5649   34.0442   50.5709 H   0  0  0  0  0  0  0  0  0  0  0  0
   65.2659   31.4396   48.9646 H   0  0  0  0  0  0  0  0  0  0  0  0
   63.3937   33.9064   50.9518 H   0  0  0  0  0  0  0  0  0  0  0  0
   61.1168   34.7858   50.4696 H   0  0  0  0  0  0  0  0  0  0  0  0
   58.9379   34.0617   48.9924 H   0  0  0  0  0  0  0  0  0  0  0  0
   59.6954   35.5127   48.1714 H   0  0  0  0  0  0  0  0  0  0  0  0
   58.6453   35.7795   45.8564 H   0  0  0  0  0  0  0  0  0  0  0  0
   60.3755   35.3184   45.8865 H   0  0  0  0  0  0  0  0  0  0  0  0
   58.9975   34.9473   43.6725 H   0  0  0  0  0  0  0  0  0  0  0  0
   60.0867   33.6286   44.2616 H   0  0  0  0  0  0  0  0  0  0  0  0
   56.1541   31.2908   44.1753 H   0  0  0  0  0  0  0  0  0  0  0  0
   56.8298   30.6735   42.6101 H   0  0  0  0  0  0  0  0  0  0  0  0
   58.9848   31.4991   45.5096 H   0  0  0  0  0  0  0  0  0  0  0  0
   60.3452   29.7846   46.7079 H   0  0  0  0  0  0  0  0  0  0  0  0
   58.3323   26.6455   44.5137 H   0  0  0  0  0  0  0  0  0  0  0  0
   56.9668   28.3535   43.3138 H   0  0  0  0  0  0  0  0  0  0  0  0
   56.4353   34.3708   45.3341 H   0  0  0  0  0  0  0  0  0  0  0  0
   56.3540   32.5760   45.5541 H   0  0  0  0  0  0  0  0  0  0  0  0
   57.0933   34.3528   47.5218 H   0  0  0  0  0  0  0  0  0  0  0  0
   57.5972   32.6052   47.4363 H   0  0  0  0  0  0  0  0  0  0  0  0
   61.2158   32.9041   46.5734 H   0  0  0  0  0  0  0  0  0  0  0  0
   63.4934   32.0216   47.0536 H   0  0  0  0  0  0  0  0  0  0  0  0
  1  2  2  0
  2  3  1  0
  3  4  2  0
  4  5  1  0
  5  6  2  0
  6  7  1  0
  7  8  1  0
  8  9  1  0
  9 10  1  0
 10 11  1  0
 11 12  1  0
 12 13  2  0
 12 14  1  0
 14 15  1  0
 15 16  2  0
 16 17  1  0
 17 18  2  0
 18 19  1  0
 18 20  1  0
 20 21  2  0
 11 22  1  0
 22 23  1  0
  6 24  1  0
 24 25  2  0
 25  3  1  0
 23  8  1  0
 21 15  1  0
  1 26  1  0
  1 27  1  0
  2 28  1  0
  4 29  1  0
  5 30  1  0
  7 31  1  0
  7 32  1  0
  9 33  1  0
  9 34  1  0
 10 35  1  0
 10 36  1  0
 14 37  1  0
 14 38  1  0
 16 39  1  0
 17 40  1  0
 20 41  1  0
 21 42  1  0
 22 43  1  0
 22 44  1  0
 23 45  1  0
 23 46  1  0
 24 47  1  0
 25 48  1  0
M  END
>  <UniqueID>  (34) 
34

>  <SMILES>  (34) 
C=Cc1ccc(CN2CCN(C(=O)Cc3ccc(Cl)cc3)CC2)cc1

>  <Energy>  (34) 
60.1132446243179

>  <Genealogy>  (34) 
C=Cc1ccc(CN2CCN(C(=O)Cc3ccc(Cl)cc3)CC2)cc1 (3D coordinates assigned)
C=Cc1ccc(CN2CCN(C(=O)Cc3ccc(Cl)cc3)CC2)cc1 (nonaromatic ring conformer: 60.1132446243179 kcal/mol)

>  <smiles>  (34) 
C=Cc1ccc(CN2CCN(C(=O)Cc3ccc(Cl)cc3)CC2)cc1

>  <score_type>  (34) 
oracle

>  <origin>  (34) 
adg

>  <m_score__min__energy>  (34) 
-8.6199999999999992

>  <m_primary>  (34) 
energy

$$$$
34:0
     RDKit          3D

 57 60  0  0  0  0  0  0  0  0999 V2000
   59.4370   29.0570   46.5670 C   0  0  0  0  0  0  0  0  0  0  0  0
   58.0390   28.6140   46.9920 C   0  0  0  0  0  0  0  0  0  0  0  0
   57.2960   28.0640   45.8450 N   0  0  0  0  0  0  0  0  0  0  0  0
   56.6680   28.8970   44.8380 C   0  0  0  0  0  0  0  0  0  0  0  0
   55.4430   29.1900   44.9480 O   0  0  0  0  0  0  0  0  0  0  0  0
   57.4260   29.4540   43.6630 C   0  0  0  0  0  0  0  0  0  0  0  0
   58.1720   30.6400   44.0670 N   0  0  0  0  0  0  0  0  0  0  0  0
   57.5910   31.7530   44.7550 C   0  0  0  0  0  0  0  0  0  0  0  0
   56.3370   31.8060   44.8650 O   0  0  0  0  0  0  0  0  0  0  0  0
   58.4190   32.8570   45.2920 C   0  0  0  0  0  0  0  0  0  0  0  0
   58.3940   34.1270   44.6860 C   0  0  0  0  0  0  0  0  0  0  0  0
   59.1560   35.1750   45.2080 C   0  0  0  0  0  0  0  0  0  0  0  0
   59.9320   34.9740   46.3490 C   0  0  0  0  0  0  0  0  0  0  0  0
   59.9480   33.7220   46.9810 C   0  0  0  0  0  0  0  0  0  0  0  0
   60.9430   33.4790   48.4160 S   0  0  0  0  0  0  0  0  0  0  0  0
   62.3910   33.5610   48.0230 O   0  0  0  0  0  0  0  0  0  0  0  0
   60.6480   34.5510   49.4270 O   0  0  0  0  0  0  0  0  0  0  0  0
   60.6080   31.9250   49.1060 N   0  0  0  0  0  0  0  0  0  0  0  0
   61.4450   30.7380   48.9290 C   0  0  0  0  0  0  0  0  0  0  0  0
   60.7280   29.6010   49.7010 C   0  0  0  0  0  0  0  0  0  0  0  0
   59.5520   30.2860   50.3170 C   0  0  0  0  0  0  0  0  0  0  0  0
   58.5830   29.7450   51.1660 C   0  0  0  0  0  0  0  0  0  0  0  0
   57.5710   30.5880   51.6510 C   0  0  0  0  0  0  0  0  0  0  0  0
   57.5390   31.9460   51.2780 C   0  0  0  0  0  0  0  0  0  0  0  0
   58.5200   32.4660   50.4170 C   0  0  0  0  0  0  0  0  0  0  0  0
   59.5200   31.6050   49.9540 C   0  0  0  0  0  0  0  0  0  0  0  0
   59.1960   32.6640   46.4480 C   0  0  0  0  0  0  0  0  0  0  0  0
   57.2050   26.6300   45.7270 C   0  0  0  0  0  0  0  0  0  0  0  0
   58.3610   25.8740   45.4830 C   0  0  0  0  0  0  0  0  0  0  0  0
   58.2780   24.4830   45.3520 C   0  0  0  0  0  0  0  0  0  0  0  0
   57.0410   23.8400   45.4630 C   0  0  0  0  0  0  0  0  0  0  0  0
   55.8840   24.5860   45.7080 C   0  0  0  0  0  0  0  0  0  0  0  0
   55.9610   25.9790   45.8390 C   0  0  0  0  0  0  0  0  0  0  0  0
   54.8020   26.7110   46.0670 O   0  0  0  0  0  0  0  0  0  0  0  0
   60.0479   29.2506   47.4610 H   0  0  0  0  0  0  0  0  0  0  0  0
   59.9064   28.2636   45.9669 H   0  0  0  0  0  0  0  0  0  0  0  0
   59.3638   29.9760   45.9669 H   0  0  0  0  0  0  0  0  0  0  0  0
   58.1260   27.8412   47.7700 H   0  0  0  0  0  0  0  0  0  0  0  0
   57.4942   29.4870   47.3806 H   0  0  0  0  0  0  0  0  0  0  0  0
   58.1265   28.6934   43.2878 H   0  0  0  0  0  0  0  0  0  0  0  0
   56.7135   29.7282   42.8711 H   0  0  0  0  0  0  0  0  0  0  0  0
   57.7704   34.2955   43.7956 H   0  0  0  0  0  0  0  0  0  0  0  0
   59.1439   36.1600   44.7184 H   0  0  0  0  0  0  0  0  0  0  0  0
   60.5338   35.8004   46.7549 H   0  0  0  0  0  0  0  0  0  0  0  0
   61.5292   30.4836   47.8621 H   0  0  0  0  0  0  0  0  0  0  0  0
   62.4664   30.9017   49.3031 H   0  0  0  0  0  0  0  0  0  0  0  0
   60.4042   28.8038   49.0157 H   0  0  0  0  0  0  0  0  0  0  0  0
   61.3761   29.1117   50.4430 H   0  0  0  0  0  0  0  0  0  0  0  0
   58.6126   28.6822   51.4480 H   0  0  0  0  0  0  0  0  0  0  0  0
   56.7999   30.1867   52.3250 H   0  0  0  0  0  0  0  0  0  0  0  0
   56.7434   32.6014   51.6620 H   0  0  0  0  0  0  0  0  0  0  0  0
   58.5019   33.5235   50.1148 H   0  0  0  0  0  0  0  0  0  0  0  0
   59.2144   31.6788   46.9369 H   0  0  0  0  0  0  0  0  0  0  0  0
   59.3358   26.3759   45.3943 H   0  0  0  0  0  0  0  0  0  0  0  0
   59.1875   23.8944   45.1614 H   0  0  0  0  0  0  0  0  0  0  0  0
   56.9782   22.7469   45.3575 H   0  0  0  0  0  0  0  0  0  0  0  0
   54.9121   24.0787   45.7980 H   0  0  0  0  0  0  0  0  0  0  0  0
  1  2  1  0
  2  3  1  0
  3  4  1  0
  4  5  2  0
  4  6  1  0
  6  7  1  0
  7  8  1  0
  8  9  2  0
  8 10  1  0
 10 11  2  0
 11 12  1  0
 12 13  2  0
 13 14  1  0
 14 15  1  0
 15 16  2  0
 15 17  2  0
 15 18  1  0
 18 19  1  0
 19 20  1  0
 20 21  1  0
 21 22  2  0
 22 23  1  0
 23 24  2  0
 24 25  1  0
 25 26  2  0
 14 27  2  0
  3 28  1  0
 28 29  2  0
 29 30  1  0
 30 31  2  0
 31 32  1  0
 32 33  2  0
 33 34  1  0
 27 10  1  0
 33 28  1  0
 26 18  1  0
 26 21  1  0
  1 35  1  0
  1 36  1  0
  1 37  1  0
  2 38  1  0
  2 39  1  0
  6 40  1  0
  6 41  1  0
 11 42  1  0
 12 43  1  0
 13 44  1  0
 19 45  1  0
 19 46  1  0
 20 47  1  0
 20 48  1  0
 22 49  1  0
 23 50  1  0
 24 51  1  0
 25 52  1  0
 27 53  1  0
 29 54  1  0
 30 55  1  0
 31 56  1  0
 32 57  1  0
M  CHG  2   7  -1  34  -1
M  END
>  <UniqueID>  (35) 
35

>  <SMILES>  (35) 
CCN(C(=O)C[N-]C(=O)c1cccc(S(=O)(=O)N2CCc3ccccc32)c1)c1ccccc1[O-]

>  <Energy>  (35) 
86.95287635886712

>  <Genealogy>  (35) 
CCN(C(=O)C[N-]C(=O)c1cccc(S(=O)(=O)N2CCc3ccccc32)c1)c1ccccc1[O-] (protonated)
CCN(C(=O)C[N-]C(=O)c1cccc(S(=O)(=O)N2CCc3ccccc32)c1)c1ccccc1[O-] (3D coordinates assigned)
CCN(C(=O)C[N-]C(=O)c1cccc(S(=O)(=O)N2CCc3ccccc32)c1)c1ccccc1[O-] (nonaromatic ring conformer: 86.95287635886712 kcal/mol)

>  <smiles>  (35) 
CCN(C(=O)CNC(=O)c1cccc(S(=O)(=O)N2CCc3ccccc32)c1)c1ccccc1O

>  <score_type>  (35) 
oracle

>  <origin>  (35) 
adg

>  <m_score__min__energy>  (35) 
-15.91

>  <m_primary>  (35) 
energy

$$$$
35:0
     RDKit          3D

 40 42  0  0  0  0  0  0  0  0999 V2000
   56.2274   28.1004   46.3367 H   0  0  0  0  0  0  0  0  0  0  0  0
   56.2690   27.0390   46.0510 C   0  0  0  0  0  0  0  0  0  0  0  0
   55.1220   26.3170   45.9800 N   0  0  0  0  0  0  0  0  0  0  0  0
   55.1180   25.0050   45.6350 C   0  0  0  0  0  0  0  0  0  0  0  0
   54.1665   24.4551   45.5873 H   0  0  0  0  0  0  0  0  0  0  0  0
   56.3190   24.3460   45.3390 C   0  0  0  0  0  0  0  0  0  0  0  0
   56.2940   22.9070   44.9720 C   0  0  0  0  0  0  0  0  0  0  0  0
   56.7020   22.4860   43.6930 C   0  0  0  0  0  0  0  0  0  0  0  0
   57.0369   23.2284   42.9536 H   0  0  0  0  0  0  0  0  0  0  0  0
   56.6840   21.1290   43.3570 C   0  0  0  0  0  0  0  0  0  0  0  0
   57.0020   20.8075   42.3543 H   0  0  0  0  0  0  0  0  0  0  0  0
   56.2630   20.1810   44.2920 C   0  0  0  0  0  0  0  0  0  0  0  0
   56.2472   19.1142   44.0244 H   0  0  0  0  0  0  0  0  0  0  0  0
   55.8620   20.5870   45.5670 C   0  0  0  0  0  0  0  0  0  0  0  0
   55.5324   19.8391   46.3032 H   0  0  0  0  0  0  0  0  0  0  0  0
   55.8790   21.9430   45.9090 C   0  0  0  0  0  0  0  0  0  0  0  0
   55.5663   22.2574   46.9157 H   0  0  0  0  0  0  0  0  0  0  0  0
   57.5240   25.0780   45.3920 C   0  0  0  0  0  0  0  0  0  0  0  0
   58.6100   24.5130   45.0850 O   0  0  0  0  0  0  0  0  0  0  0  0
   57.5100   26.4440   45.7630 C   0  0  0  0  0  0  0  0  0  0  0  0
   58.7540   27.2590   45.8410 C   0  0  0  0  0  0  0  0  0  0  0  0
   59.7450   26.8390   46.5000 O   0  0  0  0  0  0  0  0  0  0  0  0
   58.7860   28.5680   45.2490 N   0  0  0  0  0  0  0  0  0  0  0  0
   59.2090   29.6880   45.7710 C   0  0  0  0  0  0  0  0  0  0  0  0
   58.7190   30.8900   45.2440 C   0  0  0  0  0  0  0  0  0  0  0  0
   57.9970   30.8746   44.4143 H   0  0  0  0  0  0  0  0  0  0  0  0
   59.1490   32.1060   45.7740 C   0  0  0  0  0  0  0  0  0  0  0  0
   58.7574   33.0522   45.3722 H   0  0  0  0  0  0  0  0  0  0  0  0
   60.0770   32.1190   46.8150 C   0  0  0  0  0  0  0  0  0  0  0  0
   60.6390   33.6730   47.5100 S   0  0  0  0  0  0  0  0  0  0  0  0
   59.3230   34.6130   46.7340 C   0  0  0  0  0  0  0  0  0  0  0  0
   58.1980   34.5840   47.2100 O   0  0  0  0  0  0  0  0  0  0  0  0
   59.6030   35.4300   45.5130 C   0  0  0  0  0  0  0  0  0  0  0  0
   59.9461   36.4313   45.8125 H   0  0  0  0  0  0  0  0  0  0  0  0
   60.3840   34.9386   44.9142 H   0  0  0  0  0  0  0  0  0  0  0  0
   58.6848   35.5210   44.9142 H   0  0  0  0  0  0  0  0  0  0  0  0
   60.5620   30.9060   47.3100 C   0  0  0  0  0  0  0  0  0  0  0  0
   61.2944   30.9045   48.1308 H   0  0  0  0  0  0  0  0  0  0  0  0
   60.1340   29.7250   46.7830 N   0  0  0  0  0  0  0  0  0  0  0  0
   60.5760   28.8600   47.1570 H   0  0  0  0  0  0  0  0  0  0  0  0
  1  2  1  0
  2  3  1  0
  3  4  1  0
  4  5  1  0
  4  6  2  0
  6  7  1  0
  7  8  2  0
  8  9  1  0
  8 10  1  0
 10 11  1  0
 10 12  2  0
 12 13  1  0
 12 14  1  0
 14 15  1  0
 14 16  2  0
 16 17  1  0
  6 18  1  0
 18 19  2  0
 18 20  1  0
 20 21  1  0
 21 22  2  0
 21 23  1  0
 23 24  2  0
 24 25  1  0
 25 26  1  0
 25 27  2  0
 27 28  1  0
 27 29  1  0
 29 30  1  0
 30 31  1  0
 31 32  2  0
 31 33  1  0
 33 34  1  0
 33 35  1  0
 33 36  1  0
 29 37  2  0
 37 38  1  0
 37 39  1  0
 39 40  1  0
 20  2  2  0
 39 24  1  0
 16  7  1  0
M  CHG  1   3  -1
M  END
>  <UniqueID>  (36) 
36

>  <SMILES>  (36) 
CC(=O)Sc1cc/c(=N/C(=O)c2c[n-]cc(-c3ccccc3)c2=O)[nH]c1

>  <Energy>  (36) 
55.48390020787878

>  <Genealogy>  (36) 
CC(=O)Sc1ccc(=NC(=O)c2c[n-]cc(-c3ccccc3)c2=O)[nH]c1 (protonated)
CC(=O)Sc1cc/c(=N/C(=O)c2c[n-]cc(-c3ccccc3)c2=O)[nH]c1 (cis-trans isomerization)
CC(=O)Sc1cc/c(=N/C(=O)c2c[n-]cc(-c3ccccc3)c2=O)[nH]c1 (3D coordinates assigned)
CC(=O)Sc1cc/c(=N/C(=O)c2c[n-]cc(-c3ccccc3)c2=O)[nH]c1 (optimized conformer: 55.48390020787878 kcal/mol)

>  <smiles>  (36) 
CC(=O)Sc1ccc(=NC(=O)c2c[nH]cc(-c3ccccc3)c2=O)[nH]c1

>  <score_type>  (36) 
oracle

>  <origin>  (36) 
adg

>  <m_score__min__energy>  (36) 
-10.17

>  <m_primary>  (36) 
energy

$$$$
36:0
     RDKit          3D

 55 58  0  0  0  0  0  0  0  0999 V2000
   56.4101   27.4725   56.1960 H   0  0  0  0  0  0  0  0  0  0  0  0
   57.1140   28.3140   56.1160 C   0  0  0  0  0  0  0  0  0  0  0  0
   57.8776   28.4681   56.8927 H   0  0  0  0  0  0  0  0  0  0  0  0
   57.0420   29.1430   55.0830 C   0  0  0  0  0  0  0  0  0  0  0  0
   57.7250   30.2350   54.6920 N   0  0  0  0  0  0  0  0  0  0  0  0
   56.9300   30.3500   53.6100 C   0  0  0  0  0  0  0  0  0  0  0  0
   56.8410   31.1940   52.5800 C   0  0  0  0  0  0  0  0  0  0  0  0
   55.8983   31.7395   52.4258 H   0  0  0  0  0  0  0  0  0  0  0  0
   57.9580   31.4270   51.6360 C   0  0  0  0  0  0  0  0  0  0  0  0
   58.3920   30.4330   50.7470 C   0  0  0  0  0  0  0  0  0  0  0  0
   57.7830   29.1790   50.7650 O   0  0  0  0  0  0  0  0  0  0  0  0
   59.4340   30.6740   49.8940 N   0  0  0  0  0  0  0  0  0  0  0  0
   59.8800   29.6030   48.9820 C   0  0  0  0  0  0  0  0  0  0  0  0
   60.9319   29.3598   49.1927 H   0  0  0  0  0  0  0  0  0  0  0  0
   59.2527   28.7128   49.1369 H   0  0  0  0  0  0  0  0  0  0  0  0
   59.7500   30.0560   47.5520 C   0  0  0  0  0  0  0  0  0  0  0  0
   60.5290   29.5760   46.6870 O   0  0  0  0  0  0  0  0  0  0  0  0
   58.6990   30.9320   47.1260 N   0  0  0  0  0  0  0  0  0  0  0  0
   58.8670   32.2470   46.5800 C   0  0  0  0  0  0  0  0  0  0  0  0
   60.1040   32.9120   46.6340 C   0  0  0  0  0  0  0  0  0  0  0  0
   60.9633   32.4313   47.1244 H   0  0  0  0  0  0  0  0  0  0  0  0
   60.2470   34.1820   46.0670 C   0  0  0  0  0  0  0  0  0  0  0  0
   61.2130   34.7050   46.1250 H   0  0  0  0  0  0  0  0  0  0  0  0
   59.1610   34.7870   45.4260 C   0  0  0  0  0  0  0  0  0  0  0  0
   59.3000   36.0190   44.8760 F   0  0  0  0  0  0  0  0  0  0  0  0
   57.9360   34.1190   45.3460 C   0  0  0  0  0  0  0  0  0  0  0  0
   57.0841   34.5929   44.8364 H   0  0  0  0  0  0  0  0  0  0  0  0
   57.7920   32.8490   45.9130 C   0  0  0  0  0  0  0  0  0  0  0  0
   56.8306   32.3203   45.8350 H   0  0  0  0  0  0  0  0  0  0  0  0
   60.0960   31.8760   49.9380 C   0  0  0  0  0  0  0  0  0  0  0  0
   61.0940   32.0680   49.1870 O   0  0  0  0  0  0  0  0  0  0  0  0
   59.6910   32.8660   50.7980 N   0  0  0  0  0  0  0  0  0  0  0  0
   60.4270   34.1430   50.8480 C   0  0  0  0  0  0  0  0  0  0  0  0
   60.5924   34.4300   51.8969 H   0  0  0  0  0  0  0  0  0  0  0  0
   61.3969   34.0272   50.3422 H   0  0  0  0  0  0  0  0  0  0  0  0
   59.8406   34.9242   50.3422 H   0  0  0  0  0  0  0  0  0  0  0  0
   58.6530   32.6420   51.6620 C   0  0  0  0  0  0  0  0  0  0  0  0
   58.3100   33.5350   52.4880 O   0  0  0  0  0  0  0  0  0  0  0  0
   56.2590   29.2420   53.9890 N   0  0  0  0  0  0  0  0  0  0  0  0
   55.1090   28.5100   53.4740 C   0  0  0  0  0  0  0  0  0  0  0  0
   55.4381   27.8225   52.6809 H   0  0  0  0  0  0  0  0  0  0  0  0
   54.6461   27.9364   54.2905 H   0  0  0  0  0  0  0  0  0  0  0  0
   54.1060   29.4760   52.9130 C   0  0  0  0  0  0  0  0  0  0  0  0
   53.1180   30.0310   53.7390 C   0  0  0  0  0  0  0  0  0  0  0  0
   53.0527   29.7261   54.7939 H   0  0  0  0  0  0  0  0  0  0  0  0
   52.2160   30.9690   53.2300 C   0  0  0  0  0  0  0  0  0  0  0  0
   51.4399   31.3920   53.8848 H   0  0  0  0  0  0  0  0  0  0  0  0
   52.2940   31.3760   51.8850 C   0  0  0  0  0  0  0  0  0  0  0  0
   51.3420   32.3700   51.3410 C   0  0  0  0  0  0  0  0  0  0  0  0
   51.4020   32.7200   50.1320 O   0  0  0  0  0  0  0  0  0  0  0  0
   50.3670   32.9310   52.1580 O   0  0  0  0  0  0  0  0  0  0  0  0
   53.2950   30.8290   51.0640 C   0  0  0  0  0  0  0  0  0  0  0  0
   53.3701   31.1418   50.0121 H   0  0  0  0  0  0  0  0  0  0  0  0
   54.1960   29.8900   51.5750 C   0  0  0  0  0  0  0  0  0  0  0  0
   54.9796   29.4735   50.9250 H   0  0  0  0  0  0  0  0  0  0  0  0
  1  2  1  0
  2  3  1  0
  2  4  2  0
  4  5  1  0
  5  6  1  0
  6  7  2  0
  7  8  1  0
  7  9  1  0
  9 10  2  0
 10 11  1  0
 10 12  1  0
 12 13  1  0
 13 14  1  0
 13 15  1  0
 13 16  1  0
 16 17  2  0
 16 18  1  0
 18 19  1  0
 19 20  2  0
 20 21  1  0
 20 22  1  0
 22 23  1  0
 22 24  2  0
 24 25  1  0
 24 26  1  0
 26 27  1  0
 26 28  2  0
 28 29  1  0
 12 30  1  0
 30 31  2  0
 30 32  1  0
 32 33  1  0
 33 34  1  0
 33 35  1  0
 33 36  1  0
 32 37  1  0
 37 38  2  0
  6 39  1  0
 39 40  1  0
 40 41  1  0
 40 42  1  0
 40 43  1  0
 43 44  2  0
 44 45  1  0
 44 46  1  0
 46 47  1  0
 46 48  2  0
 48 49  1  0
 49 50  2  0
 49 51  1  0
 48 52  1  0
 52 53  1  0
 52 54  2  0
 54 55  1  0
 39  4  1  0
 54 43  1  0
 37  9  1  0
 28 19  1  0
M  CHG  4   5  -1  11  -1  18  -1  51  -1
M  END
>  <UniqueID>  (37) 
37

>  <SMILES>  (37) 
C=c1[n-]/c(=C\c2c([O-])n(CC(=O)[N-]c3ccc(F)cc3)c(=O)n(C)c2=O)n1Cc1ccc(C(=O)[O-])cc1

>  <Energy>  (37) 
65.35611250030989

>  <Genealogy>  (37) 
C=c1[n-]c(=Cc2c([O-])n(CC(=O)[N-]c3ccc(F)cc3)c(=O)n(C)c2=O)n1Cc1ccc(C(=O)[O-])cc1 (protonated)
C=c1[n-]/c(=C\c2c([O-])n(CC(=O)[N-]c3ccc(F)cc3)c(=O)n(C)c2=O)n1Cc1ccc(C(=O)[O-])cc1 (cis-trans isomerization)
C=c1[n-]/c(=C\c2c([O-])n(CC(=O)[N-]c3ccc(F)cc3)c(=O)n(C)c2=O)n1Cc1ccc(C(=O)[O-])cc1 (3D coordinates assigned)
C=c1[n-]/c(=C\c2c([O-])n(CC(=O)[N-]c3ccc(F)cc3)c(=O)n(C)c2=O)n1Cc1ccc(C(=O)[O-])cc1 (optimized conformer: 65.35611250030989 kcal/mol)

>  <smiles>  (37) 
C=c1[nH]c(=Cc2c(O)n(CC(=O)Nc3ccc(F)cc3)c(=O)n(C)c2=O)n1Cc1ccc(C(=O)O)cc1

>  <score_type>  (37) 
oracle

>  <origin>  (37) 
adg

>  <m_score__min__energy>  (37) 
-14.800000000000001

>  <m_primary>  (37) 
energy

$$$$
37:0
     RDKit          3D

 50 53  0  0  0  0  0  0  0  0999 V2000
   65.8720   32.6840   50.1220 C   0  0  0  0  0  0  0  0  0  0  0  0
   64.5740   32.8790   50.3560 C   0  0  0  0  0  0  0  0  0  0  0  0
   63.5740   33.1990   49.3050 C   0  0  0  0  0  0  0  0  0  0  0  0
   62.4210   33.9680   49.5620 C   0  0  0  0  0  0  0  0  0  0  0  0
   61.5060   34.2330   48.5390 C   0  0  0  0  0  0  0  0  0  0  0  0
   61.7190   33.7330   47.2470 C   0  0  0  0  0  0  0  0  0  0  0  0
   60.7160   34.0070   46.1560 C   0  0  0  0  0  0  0  0  0  0  0  0
   59.3390   34.0510   46.6960 N   0  0  0  0  0  0  0  0  0  0  0  0
   58.3210   34.2710   45.6340 C   0  0  0  0  0  0  0  0  0  0  0  0
   57.4240   33.0450   45.3670 C   0  0  0  0  0  0  0  0  0  0  0  0
   58.2070   31.7950   45.4450 N   0  0  0  0  0  0  0  0  0  0  0  0
   57.4160   30.6460   45.0430 C   0  0  0  0  0  0  0  0  0  0  0  0
   56.2940   30.8440   44.5000 O   0  0  0  0  0  0  0  0  0  0  0  0
   57.8460   29.2360   45.2490 C   0  0  0  0  0  0  0  0  0  0  0  0
   59.0450   28.7870   45.8130 C   0  0  0  0  0  0  0  0  0  0  0  0
   58.9750   27.4130   45.7650 C   0  0  0  0  0  0  0  0  0  0  0  0
   59.8860   26.4440   46.1820 C   0  0  0  0  0  0  0  0  0  0  0  0
   59.5370   25.0930   45.9960 C   0  0  0  0  0  0  0  0  0  0  0  0
   58.3000   24.7490   45.4050 C   0  0  0  0  0  0  0  0  0  0  0  0
   57.4040   25.7520   44.9930 C   0  0  0  0  0  0  0  0  0  0  0  0
   57.7790   27.0810   45.1900 C   0  0  0  0  0  0  0  0  0  0  0  0
   57.0820   28.1820   44.8690 N   0  0  0  0  0  0  0  0  0  0  0  0
   58.8630   31.5870   46.7620 C   0  0  0  0  0  0  0  0  0  0  0  0
   59.0200   32.8950   47.5630 C   0  0  0  0  0  0  0  0  0  0  0  0
   62.8570   32.9540   46.9920 C   0  0  0  0  0  0  0  0  0  0  0  0
   63.7730   32.6870   48.0120 C   0  0  0  0  0  0  0  0  0  0  0  0
   66.5519   32.4502   50.9545 H   0  0  0  0  0  0  0  0  0  0  0  0
   66.2630   32.7569   49.0964 H   0  0  0  0  0  0  0  0  0  0  0  0
   64.2206   32.7977   51.3945 H   0  0  0  0  0  0  0  0  0  0  0  0
   62.2403   34.3617   50.5731 H   0  0  0  0  0  0  0  0  0  0  0  0
   60.6121   34.8385   48.7495 H   0  0  0  0  0  0  0  0  0  0  0  0
   60.9495   34.9749   45.6884 H   0  0  0  0  0  0  0  0  0  0  0  0
   60.7749   33.1954   45.4159 H   0  0  0  0  0  0  0  0  0  0  0  0
   57.6788   35.1108   45.9380 H   0  0  0  0  0  0  0  0  0  0  0  0
   58.8692   34.4754   44.7025 H   0  0  0  0  0  0  0  0  0  0  0  0
   56.6212   33.0151   46.1184 H   0  0  0  0  0  0  0  0  0  0  0  0
   56.9993   33.1324   44.3561 H   0  0  0  0  0  0  0  0  0  0  0  0
   58.9740   31.8950   44.7360 H   0  0  0  0  0  0  0  0  0  0  0  0
   59.8674   29.4004   46.2098 H   0  0  0  0  0  0  0  0  0  0  0  0
   60.8453   26.7255   46.6409 H   0  0  0  0  0  0  0  0  0  0  0  0
   60.2310   24.3004   46.3124 H   0  0  0  0  0  0  0  0  0  0  0  0
   58.0363   23.6901   45.2664 H   0  0  0  0  0  0  0  0  0  0  0  0
   56.4391   25.4967   44.5306 H   0  0  0  0  0  0  0  0  0  0  0  0
   56.1400   28.2130   44.4170 H   0  0  0  0  0  0  0  0  0  0  0  0
   58.2547   30.8848   47.3509 H   0  0  0  0  0  0  0  0  0  0  0  0
   59.8716   31.1916   46.5715 H   0  0  0  0  0  0  0  0  0  0  0  0
   58.0783   33.1000   48.0933 H   0  0  0  0  0  0  0  0  0  0  0  0
   59.8561   32.7607   48.2651 H   0  0  0  0  0  0  0  0  0  0  0  0
   63.0291   32.5510   45.9830 H   0  0  0  0  0  0  0  0  0  0  0  0
   64.6588   32.0699   47.8009 H   0  0  0  0  0  0  0  0  0  0  0  0
  1  2  2  0
  2  3  1  0
  3  4  2  0
  4  5  1  0
  5  6  2  0
  6  7  1  0
  7  8  1  0
  8  9  1  0
  9 10  1  0
 10 11  1  0
 11 12  1  0
 12 13  2  0
 12 14  1  0
 14 15  2  0
 15 16  1  0
 16 17  2  0
 17 18  1  0
 18 19  2  0
 19 20  1  0
 20 21  2  0
 21 22  1  0
 11 23  1  0
 23 24  1  0
  6 25  1  0
 25 26  2  0
 26  3  1  0
 24  8  1  0
 22 14  1  0
 21 16  1  0
  1 27  1  0
  1 28  1  0
  2 29  1  0
  4 30  1  0
  5 31  1  0
  7 32  1  0
  7 33  1  0
  9 34  1  0
  9 35  1  0
 10 36  1  0
 10 37  1  0
 11 38  1  0
 15 39  1  0
 17 40  1  0
 18 41  1  0
 19 42  1  0
 20 43  1  0
 22 44  1  0
 23 45  1  0
 23 46  1  0
 24 47  1  0
 24 48  1  0
 25 49  1  0
 26 50  1  0
M  CHG  1  11   1
M  END
>  <UniqueID>  (38) 
38

>  <SMILES>  (38) 
C=Cc1ccc(CN2CC[NH+](C(=O)c3cc4ccccc4[nH]3)CC2)cc1

>  <Energy>  (38) 
104.59009649674718

>  <Genealogy>  (38) 
C=Cc1ccc(CN2CC[NH+](C(=O)c3cc4ccccc4[nH]3)CC2)cc1 (protonated)
C=Cc1ccc(CN2CC[NH+](C(=O)c3cc4ccccc4[nH]3)CC2)cc1 (3D coordinates assigned)
C=Cc1ccc(CN2CC[NH+](C(=O)c3cc4ccccc4[nH]3)CC2)cc1 (nonaromatic ring conformer: 104.59009649674718 kcal/mol)

>  <smiles>  (38) 
C=Cc1ccc(CN2CCN(C(=O)c3cc4ccccc4[nH]3)CC2)cc1

>  <score_type>  (38) 
oracle

>  <origin>  (38) 
adg

>  <m_score__min__energy>  (38) 
-7.3799999999999999

>  <m_primary>  (38) 
energy

$$$$
38:0
     RDKit          3D

 64 66  0  0  0  0  0  0  0  0999 V2000
   55.1110   30.6820   52.0490 C   0  0  0  0  0  0  0  0  0  0  0  0
   56.5730   30.8670   52.4430 C   0  0  0  0  0  0  0  0  0  0  0  0
   57.4380   30.3050   51.4560 O   0  0  0  0  0  0  0  0  0  0  0  0
   58.1140   31.0650   50.4950 C   0  0  0  0  0  0  0  0  0  0  0  0
   58.0880   32.3260   50.5530 O   0  0  0  0  0  0  0  0  0  0  0  0
   58.8430   30.4120   49.4390 N   0  0  0  0  0  0  0  0  0  0  0  0
   58.8290   28.9480   49.3260 C   0  0  0  0  0  0  0  0  0  0  0  0
   58.8790   28.4950   47.8520 C   0  0  0  0  0  0  0  0  0  0  0  0
   59.6230   29.4170   46.9480 N   0  0  0  0  0  0  0  0  0  0  0  0
   60.3170   28.6860   45.8700 C   0  0  0  0  0  0  0  0  0  0  0  0
   59.6410   27.3710   45.5990 C   0  0  0  0  0  0  0  0  0  0  0  0
   60.1120   26.1990   46.0980 N   0  0  0  0  0  0  0  0  0  0  0  0
   59.2330   25.2960   45.6300 C   0  0  0  0  0  0  0  0  0  0  0  0
   59.2500   23.9190   45.8300 C   0  0  0  0  0  0  0  0  0  0  0  0
   58.2360   23.1420   45.2180 C   0  0  0  0  0  0  0  0  0  0  0  0
   58.1750   21.7120   45.3750 N   0  0  0  0  0  0  0  0  0  0  0  0
   57.0240   20.8780   46.3720 S   0  0  0  0  0  0  0  0  0  0  0  0
   57.3710   19.1320   46.3800 C   0  0  0  0  0  0  0  0  0  0  0  0
   55.6480   21.0940   45.8060 O   0  0  0  0  0  0  0  0  0  0  0  0
   57.0620   21.4280   47.7690 O   0  0  0  0  0  0  0  0  0  0  0  0
   57.2460   23.7870   44.4290 C   0  0  0  0  0  0  0  0  0  0  0  0
   57.2550   25.1810   44.2570 C   0  0  0  0  0  0  0  0  0  0  0  0
   58.2690   25.9040   44.8830 C   0  0  0  0  0  0  0  0  0  0  0  0
   58.5020   27.2270   44.8660 N   0  0  0  0  0  0  0  0  0  0  0  0
   57.7320   28.2600   44.1680 C   0  0  0  0  0  0  0  0  0  0  0  0
   56.4900   28.5860   44.9340 C   0  0  0  0  0  0  0  0  0  0  0  0
   55.9200   27.6900   45.6100 O   0  0  0  0  0  0  0  0  0  0  0  0
   55.9580   29.9140   44.8770 N   0  0  0  0  0  0  0  0  0  0  0  0
   56.6580   31.1100   44.4000 C   0  0  0  0  0  0  0  0  0  0  0  0
   56.9750   30.9990   42.9040 C   0  0  0  0  0  0  0  0  0  0  0  0
   57.9110   31.3900   45.2370 C   0  0  0  0  0  0  0  0  0  0  0  0
   60.5630   30.2890   47.6700 C   0  0  0  0  0  0  0  0  0  0  0  0
   59.7810   31.1920   48.6220 C   0  0  0  0  0  0  0  0  0  0  0  0
   54.4938   30.6039   52.9562 H   0  0  0  0  0  0  0  0  0  0  0  0
   54.7797   31.5454   51.4533 H   0  0  0  0  0  0  0  0  0  0  0  0
   55.0052   29.7633   51.4533 H   0  0  0  0  0  0  0  0  0  0  0  0
   56.7872   31.9415   52.5408 H   0  0  0  0  0  0  0  0  0  0  0  0
   56.7485   30.3535   53.3998 H   0  0  0  0  0  0  0  0  0  0  0  0
   59.7028   28.5401   49.8553 H   0  0  0  0  0  0  0  0  0  0  0  0
   57.8939   28.5761   49.7702 H   0  0  0  0  0  0  0  0  0  0  0  0
   59.3641   27.5086   47.8118 H   0  0  0  0  0  0  0  0  0  0  0  0
   57.8389   28.4772   47.4943 H   0  0  0  0  0  0  0  0  0  0  0  0
   60.3030   29.2947   44.9539 H   0  0  0  0  0  0  0  0  0  0  0  0
   61.3533   28.4928   46.1841 H   0  0  0  0  0  0  0  0  0  0  0  0
   60.0293   23.4469   46.4463 H   0  0  0  0  0  0  0  0  0  0  0  0
   58.8890   21.1190   44.8890 H   0  0  0  0  0  0  0  0  0  0  0  0
   57.4416   18.7769   47.4187 H   0  0  0  0  0  0  0  0  0  0  0  0
   56.5620   18.5950   45.8631 H   0  0  0  0  0  0  0  0  0  0  0  0
   58.3238   18.9452   45.8631 H   0  0  0  0  0  0  0  0  0  0  0  0
   56.4613   23.1861   43.9460 H   0  0  0  0  0  0  0  0  0  0  0  0
   56.4886   25.6845   43.6495 H   0  0  0  0  0  0  0  0  0  0  0  0
   58.3467   29.1669   44.0698 H   0  0  0  0  0  0  0  0  0  0  0  0
   57.4512   27.8863   43.1723 H   0  0  0  0  0  0  0  0  0  0  0  0
   55.9889   31.9738   44.5274 H   0  0  0  0  0  0  0  0  0  0  0  0
   58.0059   30.6380   42.7734 H   0  0  0  0  0  0  0  0  0  0  0  0
   56.2765   30.2920   42.4326 H   0  0  0  0  0  0  0  0  0  0  0  0
   56.8701   31.9873   42.4326 H   0  0  0  0  0  0  0  0  0  0  0  0
   57.6580   31.3335   46.3060 H   0  0  0  0  0  0  0  0  0  0  0  0
   58.6830   30.6422   45.0029 H   0  0  0  0  0  0  0  0  0  0  0  0
   58.2913   32.3953   45.0029 H   0  0  0  0  0  0  0  0  0  0  0  0
   61.2693   29.6722   48.2450 H   0  0  0  0  0  0  0  0  0  0  0  0
   61.1213   30.9061   46.9506 H   0  0  0  0  0  0  0  0  0  0  0  0
   60.4876   31.7129   49.2848 H   0  0  0  0  0  0  0  0  0  0  0  0
   59.2064   31.9153   48.0248 H   0  0  0  0  0  0  0  0  0  0  0  0
  1  2  1  0
  2  3  1  0
  3  4  1  0
  4  5  2  0
  4  6  1  0
  6  7  1  0
  7  8  1  0
  8  9  1  0
  9 10  1  0
 10 11  1  0
 11 12  2  0
 12 13  1  0
 13 14  2  0
 14 15  1  0
 15 16  1  0
 16 17  1  0
 17 18  1  0
 17 19  2  0
 17 20  2  0
 15 21  2  0
 21 22  1  0
 22 23  2  0
 23 24  1  0
 24 25  1  0
 25 26  1  0
 26 27  2  0
 26 28  1  0
 28 29  1  0
 29 30  1  0
 29 31  1  0
  9 32  1  0
 32 33  1  0
 33  6  1  0
 24 11  1  0
 23 13  1  0
  1 34  1  0
  1 35  1  0
  1 36  1  0
  2 37  1  0
  2 38  1  0
  7 39  1  0
  7 40  1  0
  8 41  1  0
  8 42  1  0
 10 43  1  0
 10 44  1  0
 14 45  1  0
 16 46  1  0
 18 47  1  0
 18 48  1  0
 18 49  1  0
 21 50  1  0
 22 51  1  0
 25 52  1  0
 25 53  1  0
 29 54  1  0
 30 55  1  0
 30 56  1  0
 30 57  1  0
 31 58  1  0
 31 59  1  0
 31 60  1  0
 32 61  1  0
 32 62  1  0
 33 63  1  0
 33 64  1  0
M  CHG  1  28  -1
M  END
>  <UniqueID>  (39) 
39

>  <SMILES>  (39) 
CCOC(=O)N1CCN(Cc2nc3cc(NS(C)(=O)=O)ccc3n2CC(=O)[N-]C(C)C)CC1

>  <Energy>  (39) 
93.24485091525911

>  <Genealogy>  (39) 
CCOC(=O)N1CCN(Cc2nc3cc(NS(C)(=O)=O)ccc3n2CC(=O)[N-]C(C)C)CC1 (protonated)
CCOC(=O)N1CCN(Cc2nc3cc(NS(C)(=O)=O)ccc3n2CC(=O)[N-]C(C)C)CC1 (3D coordinates assigned)
CCOC(=O)N1CCN(Cc2nc3cc(NS(C)(=O)=O)ccc3n2CC(=O)[N-]C(C)C)CC1 (nonaromatic ring conformer: 93.24485091525911 kcal/mol)

>  <smiles>  (39) 
CCOC(=O)N1CCN(Cc2nc3cc(NS(C)(=O)=O)ccc3n2CC(=O)NC(C)C)CC1

>  <score_type>  (39) 
oracle

>  <origin>  (39) 
adg

>  <m_score__min__energy>  (39) 
-9.8300000000000001

>  <m_primary>  (39) 
energy

$$$$
39:0
     RDKit          3D

 54 57  0  0  0  0  0  0  0  0999 V2000
   54.7120   25.9120   45.8690 O   0  0  0  0  0  0  0  0  0  0  0  0
   55.8760   25.8740   46.3510 C   0  0  0  0  0  0  0  0  0  0  0  0
   56.4010   24.5690   46.8860 C   0  0  0  0  0  0  0  0  0  0  0  0
   56.8090   23.6450   45.7760 C   0  0  0  0  0  0  0  0  0  0  0  0
   58.1330   23.2620   45.5560 C   0  0  0  0  0  0  0  0  0  0  0  0
   58.1750   22.2800   44.1890 S   0  0  0  0  0  0  0  0  0  0  0  0
   56.5190   22.4010   43.9410 C   0  0  0  0  0  0  0  0  0  0  0  0
   55.9000   21.8460   42.9970 O   0  0  0  0  0  0  0  0  0  0  0  0
   55.9130   23.1700   44.8670 N   0  0  0  0  0  0  0  0  0  0  0  0
   56.6900   27.0500   46.2780 N   0  0  0  0  0  0  0  0  0  0  0  0
   58.0460   27.1670   46.7260 C   0  0  0  0  0  0  0  0  0  0  0  0
   59.0820   26.4610   46.0980 C   0  0  0  0  0  0  0  0  0  0  0  0
   60.3930   26.5830   46.5600 C   0  0  0  0  0  0  0  0  0  0  0  0
   60.6790   27.3980   47.6580 C   0  0  0  0  0  0  0  0  0  0  0  0
   59.6470   28.0880   48.3200 C   0  0  0  0  0  0  0  0  0  0  0  0
   59.9430   28.9460   49.4900 C   0  0  0  0  0  0  0  0  0  0  0  0
   60.9120   28.6620   50.2460 O   0  0  0  0  0  0  0  0  0  0  0  0
   59.1620   30.1230   49.7360 N   0  0  0  0  0  0  0  0  0  0  0  0
   59.2420   31.3640   49.0200 C   0  0  0  0  0  0  0  0  0  0  0  0
   59.5770   32.5710   49.6590 C   0  0  0  0  0  0  0  0  0  0  0  0
   59.6410   33.7570   48.9250 C   0  0  0  0  0  0  0  0  0  0  0  0
   59.3580   33.7560   47.5580 C   0  0  0  0  0  0  0  0  0  0  0  0
   58.9770   32.5670   46.9140 C   0  0  0  0  0  0  0  0  0  0  0  0
   58.6910   32.5540   45.4600 C   0  0  0  0  0  0  0  0  0  0  0  0
   58.9260   33.5870   44.7720 O   0  0  0  0  0  0  0  0  0  0  0  0
   58.1260   31.3980   44.8210 N   0  0  0  0  0  0  0  0  0  0  0  0
   58.8280   30.1070   44.9180 C   0  0  0  0  0  0  0  0  0  0  0  0
   58.1630   29.0390   44.0420 C   0  0  0  0  0  0  0  0  0  0  0  0
   56.6440   29.0550   44.2420 C   0  0  0  0  0  0  0  0  0  0  0  0
   56.0140   30.4390   43.9670 C   0  0  0  0  0  0  0  0  0  0  0  0
   57.0440   31.5750   43.8460 C   0  0  0  0  0  0  0  0  0  0  0  0
   58.9260   31.3740   47.6550 C   0  0  0  0  0  0  0  0  0  0  0  0
   58.3270   27.9530   47.8500 C   0  0  0  0  0  0  0  0  0  0  0  0
   57.2745   24.7695   47.5238 H   0  0  0  0  0  0  0  0  0  0  0  0
   55.5992   24.0841   47.4622 H   0  0  0  0  0  0  0  0  0  0  0  0
   58.9990   23.5515   46.1694 H   0  0  0  0  0  0  0  0  0  0  0  0
   58.8608   25.8098   45.2395 H   0  0  0  0  0  0  0  0  0  0  0  0
   61.2042   26.0355   46.0578 H   0  0  0  0  0  0  0  0  0  0  0  0
   61.7171   27.5008   48.0070 H   0  0  0  0  0  0  0  0  0  0  0  0
   59.7889   32.5808   50.7384 H   0  0  0  0  0  0  0  0  0  0  0  0
   59.9158   34.6968   49.4263 H   0  0  0  0  0  0  0  0  0  0  0  0
   59.4337   34.6904   46.9825 H   0  0  0  0  0  0  0  0  0  0  0  0
   59.8694   30.2408   44.5899 H   0  0  0  0  0  0  0  0  0  0  0  0
   58.7874   29.7697   45.9642 H   0  0  0  0  0  0  0  0  0  0  0  0
   58.3918   29.2427   42.9855 H   0  0  0  0  0  0  0  0  0  0  0  0
   58.5505   28.0502   44.3285 H   0  0  0  0  0  0  0  0  0  0  0  0
   56.1924   28.3219   43.5574 H   0  0  0  0  0  0  0  0  0  0  0  0
   56.4479   28.8074   45.2957 H   0  0  0  0  0  0  0  0  0  0  0  0
   55.4480   30.3819   43.0255 H   0  0  0  0  0  0  0  0  0  0  0  0
   55.3731   30.6771   44.8287 H   0  0  0  0  0  0  0  0  0  0  0  0
   57.4680   31.5717   42.8310 H   0  0  0  0  0  0  0  0  0  0  0  0
   56.5405   32.5325   44.0454 H   0  0  0  0  0  0  0  0  0  0  0  0
   58.6346   30.4372   47.1576 H   0  0  0  0  0  0  0  0  0  0  0  0
   57.5080   28.4703   48.3711 H   0  0  0  0  0  0  0  0  0  0  0  0
  1  2  2  0
  2  3  1  0
  3  4  1  0
  4  5  2  0
  5  6  1  0
  6  7  1  0
  7  8  2  0
  7  9  1  0
  2 10  1  0
 10 11  1  0
 11 12  2  0
 12 13  1  0
 13 14  2  0
 14 15  1  0
 15 16  1  0
 16 17  2  0
 16 18  1  0
 18 19  1  0
 19 20  2  0
 20 21  1  0
 21 22  2  0
 22 23  1  0
 23 24  1  0
 24 25  2  0
 24 26  1  0
 26 27  1  0
 27 28  1  0
 28 29  1  0
 29 30  1  0
 30 31  1  0
 23 32  2  0
 15 33  2  0
  9  4  1  0
 33 11  1  0
 32 19  1  0
 31 26  1  0
  3 34  1  0
  3 35  1  0
  5 36  1  0
 12 37  1  0
 13 38  1  0
 14 39  1  0
 20 40  1  0
 21 41  1  0
 22 42  1  0
 27 43  1  0
 27 44  1  0
 28 45  1  0
 28 46  1  0
 29 47  1  0
 29 48  1  0
 30 49  1  0
 30 50  1  0
 31 51  1  0
 31 52  1  0
 32 53  1  0
 33 54  1  0
M  CHG  3   9  -1  10  -1  18  -1
M  END
>  <UniqueID>  (40) 
40

>  <SMILES>  (40) 
O=C(Cc1csc(=O)[n-]1)[N-]c1cccc(C(=O)[N-]c2cccc(C(=O)N3CCCCC3)c2)c1

>  <Energy>  (40) 
101.4279977836488

>  <Genealogy>  (40) 
O=C(Cc1csc(=O)[n-]1)[N-]c1cccc(C(=O)[N-]c2cccc(C(=O)N3CCCCC3)c2)c1 (protonated)
O=C(Cc1csc(=O)[n-]1)[N-]c1cccc(C(=O)[N-]c2cccc(C(=O)N3CCCCC3)c2)c1 (3D coordinates assigned)
O=C(Cc1csc(=O)[n-]1)[N-]c1cccc(C(=O)[N-]c2cccc(C(=O)N3CCCCC3)c2)c1 (nonaromatic ring conformer: 101.4279977836488 kcal/mol)

>  <smiles>  (40) 
O=C(Cc1csc(=O)[nH]1)Nc1cccc(C(=O)Nc2cccc(C(=O)N3CCCCC3)c2)c1

>  <score_type>  (40) 
oracle

>  <origin>  (40) 
adg

>  <m_score__min__energy>  (40) 
-15.5

>  <m_primary>  (40) 
energy

$$$$
40:0
     RDKit          3D

 52 55  0  0  0  0  0  0  0  0999 V2000
   56.2321   30.4215   43.3539 H   0  0  0  0  0  0  0  0  0  0  0  0
   56.6940   29.4350   43.5070 C   0  0  0  0  0  0  0  0  0  0  0  0
   56.4792   28.6128   42.8086 H   0  0  0  0  0  0  0  0  0  0  0  0
   57.5220   29.2340   44.5490 C   0  0  0  0  0  0  0  0  0  0  0  0
   58.1660   27.9760   44.8200 C   0  0  0  0  0  0  0  0  0  0  0  0
   57.7330   26.7850   44.3240 C   0  0  0  0  0  0  0  0  0  0  0  0
   57.7069   26.6707   43.2303 H   0  0  0  0  0  0  0  0  0  0  0  0
   57.2950   25.6330   45.1400 C   0  0  0  0  0  0  0  0  0  0  0  0
   57.9560   24.4600   45.2090 N   0  0  0  0  0  0  0  0  0  0  0  0
   57.1910   23.6430   45.9650 C   0  0  0  0  0  0  0  0  0  0  0  0
   57.5840   22.2300   46.2620 C   0  0  0  0  0  0  0  0  0  0  0  0
   57.6251   22.0821   47.3512 H   0  0  0  0  0  0  0  0  0  0  0  0
   56.8426   21.5439   45.8265 H   0  0  0  0  0  0  0  0  0  0  0  0
   58.5732   22.0253   45.8265 H   0  0  0  0  0  0  0  0  0  0  0  0
   56.0120   24.2770   46.3540 C   0  0  0  0  0  0  0  0  0  0  0  0
   54.8910   23.7020   47.1360 C   0  0  0  0  0  0  0  0  0  0  0  0
   53.7200   23.7390   46.6760 O   0  0  0  0  0  0  0  0  0  0  0  0
   55.1090   23.1000   48.4890 C   0  0  0  0  0  0  0  0  0  0  0  0
   54.8432   23.8340   49.2640 H   0  0  0  0  0  0  0  0  0  0  0  0
   54.4775   22.2060   48.5986 H   0  0  0  0  0  0  0  0  0  0  0  0
   56.1665   22.8176   48.5986 H   0  0  0  0  0  0  0  0  0  0  0  0
   56.0970   25.5460   45.8130 C   0  0  0  0  0  0  0  0  0  0  0  0
   55.1490   26.5610   45.9120 O   0  0  0  0  0  0  0  0  0  0  0  0
   59.3070   28.0030   45.6960 C   0  0  0  0  0  0  0  0  0  0  0  0
   60.1410   26.7840   45.9860 C   0  0  0  0  0  0  0  0  0  0  0  0
   60.2313   26.6520   47.0743 H   0  0  0  0  0  0  0  0  0  0  0  0
   59.6593   25.8974   45.5478 H   0  0  0  0  0  0  0  0  0  0  0  0
   61.1418   26.9117   45.5478 H   0  0  0  0  0  0  0  0  0  0  0  0
   59.6290   29.1440   46.3690 N   0  0  0  0  0  0  0  0  0  0  0  0
   58.8940   30.2590   46.1870 C   0  0  0  0  0  0  0  0  0  0  0  0
   59.0980   31.4980   46.7430 C   0  0  0  0  0  0  0  0  0  0  0  0
   59.8432   31.7970   47.4948 H   0  0  0  0  0  0  0  0  0  0  0  0
   58.1290   32.2840   46.1210 C   0  0  0  0  0  0  0  0  0  0  0  0
   57.9560   33.7390   46.3180 C   0  0  0  0  0  0  0  0  0  0  0  0
   56.8730   34.2730   45.9620 O   0  0  0  0  0  0  0  0  0  0  0  0
   58.9580   34.5710   46.9260 N   0  0  0  0  0  0  0  0  0  0  0  0
   59.5770   34.3980   48.2380 C   0  0  0  0  0  0  0  0  0  0  0  0
   59.4827   35.3340   48.8081 H   0  0  0  0  0  0  0  0  0  0  0  0
   59.0671   33.5778   48.7645 H   0  0  0  0  0  0  0  0  0  0  0  0
   61.0360   34.0500   48.0960 C   0  0  0  0  0  0  0  0  0  0  0  0
   61.8340   33.8980   49.2440 C   0  0  0  0  0  0  0  0  0  0  0  0
   61.3902   34.0364   50.2409 H   0  0  0  0  0  0  0  0  0  0  0  0
   63.1880   33.5720   49.1250 C   0  0  0  0  0  0  0  0  0  0  0  0
   63.8063   33.4538   50.0271 H   0  0  0  0  0  0  0  0  0  0  0  0
   63.7570   33.3960   47.8600 C   0  0  0  0  0  0  0  0  0  0  0  0
   64.8238   33.1443   47.7670 H   0  0  0  0  0  0  0  0  0  0  0  0
   62.9700   33.5400   46.7130 C   0  0  0  0  0  0  0  0  0  0  0  0
   63.4193   33.4046   45.7181 H   0  0  0  0  0  0  0  0  0  0  0  0
   61.6120   33.8560   46.8290 C   0  0  0  0  0  0  0  0  0  0  0  0
   60.9928   33.9530   45.9250 H   0  0  0  0  0  0  0  0  0  0  0  0
   57.4200   31.5380   45.2430 N   0  0  0  0  0  0  0  0  0  0  0  0
   57.8910   30.3040   45.3080 N   0  0  0  0  0  0  0  0  0  0  0  0
  1  2  1  0
  2  3  1  0
  2  4  2  0
  4  5  1  0
  5  6  2  0
  6  7  1  0
  6  8  1  0
  8  9  1  0
  9 10  1  0
 10 11  1  0
 11 12  1  0
 11 13  1  0
 11 14  1  0
 10 15  2  0
 15 16  1  0
 16 17  2  0
 16 18  1  0
 18 19  1  0
 18 20  1  0
 18 21  1  0
 15 22  1  0
 22 23  1  0
  5 24  1  0
 24 25  1  0
 25 26  1  0
 25 27  1  0
 25 28  1  0
 24 29  2  0
 29 30  1  0
 30 31  2  0
 31 32  1  0
 31 33  1  0
 33 34  1  0
 34 35  2  0
 34 36  1  0
 36 37  1  0
 37 38  1  0
 37 39  1  0
 37 40  1  0
 40 41  2  0
 41 42  1  0
 41 43  1  0
 43 44  1  0
 43 45  2  0
 45 46  1  0
 45 47  1  0
 47 48  1  0
 47 49  2  0
 49 50  1  0
 33 51  2  0
 51 52  1  0
 52  4  1  0
 22  8  2  0
 52 30  1  0
 49 40  1  0
M  CHG  3   9  -1  23  -1  36  -1
M  END
>  <UniqueID>  (41) 
41

>  <SMILES>  (41) 
C=c1/c(=C\c2[n-]c(C)c(C(C)=O)c2[O-])c(C)nc2cc(C(=O)[N-]Cc3ccccc3)nn12

>  <Energy>  (41) 
139.302228593735

>  <Genealogy>  (41) 
C=c1c(=Cc2[n-]c(C)c(C(C)=O)c2[O-])c(C)nc2cc(C(=O)[N-]Cc3ccccc3)nn12 (protonated)
C=c1/c(=C\c2[n-]c(C)c(C(C)=O)c2[O-])c(C)nc2cc(C(=O)[N-]Cc3ccccc3)nn12 (cis-trans isomerization)
C=c1/c(=C\c2[n-]c(C)c(C(C)=O)c2[O-])c(C)nc2cc(C(=O)[N-]Cc3ccccc3)nn12 (3D coordinates assigned)
C=c1/c(=C\c2[n-]c(C)c(C(C)=O)c2[O-])c(C)nc2cc(C(=O)[N-]Cc3ccccc3)nn12 (optimized conformer: 139.302228593735 kcal/mol)

>  <smiles>  (41) 
C=c1c(=Cc2[nH]c(C)c(C(C)=O)c2O)c(C)nc2cc(C(=O)NCc3ccccc3)nn12

>  <score_type>  (41) 
oracle

>  <origin>  (41) 
adg

>  <m_score__min__energy>  (41) 
-14.52

>  <m_primary>  (41) 
energy

$$$$
41:0
     RDKit          3D

 34 35  0  0  0  0  0  0  0  0999 V2000
   53.5240   24.0720   45.3750 C   0  0  0  0  0  0  0  0  0  0  0  0
   54.7270   24.9150   45.6260 C   0  0  0  0  0  0  0  0  0  0  0  0
   56.0290   24.4640   45.7360 C   0  0  0  0  0  0  0  0  0  0  0  0
   56.7410   25.6220   46.0160 C   0  0  0  0  0  0  0  0  0  0  0  0
   58.0150   25.7420   46.2570 N   0  0  0  0  0  0  0  0  0  0  0  0
   58.7180   26.8980   46.7410 C   0  0  0  0  0  0  0  0  0  0  0  0
   59.4150   26.8470   47.7900 O   0  0  0  0  0  0  0  0  0  0  0  0
   58.6860   28.1730   45.9570 C   0  0  0  0  0  0  0  0  0  0  0  0
   57.3900   28.8360   46.0760 N   0  0  0  0  0  0  0  0  0  0  0  0
   56.6720   29.4940   45.0230 C   0  0  0  0  0  0  0  0  0  0  0  0
   55.4380   29.2710   44.9070 O   0  0  0  0  0  0  0  0  0  0  0  0
   57.3380   30.4220   44.0410 C   0  0  0  0  0  0  0  0  0  0  0  0
   57.7390   31.7320   44.6740 C   0  0  0  0  0  0  0  0  0  0  0  0
   57.8050   31.8440   46.0750 C   0  0  0  0  0  0  0  0  0  0  0  0
   58.2100   33.0420   46.6710 C   0  0  0  0  0  0  0  0  0  0  0  0
   58.5590   34.1360   45.8780 C   0  0  0  0  0  0  0  0  0  0  0  0
   58.5080   34.0350   44.4860 C   0  0  0  0  0  0  0  0  0  0  0  0
   58.1100   32.8370   43.8820 C   0  0  0  0  0  0  0  0  0  0  0  0
   58.0990   32.7550   42.5280 F   0  0  0  0  0  0  0  0  0  0  0  0
   55.8920   26.6640   46.0610 N   0  0  0  0  0  0  0  0  0  0  0  0
   54.6960   26.2130   45.8290 O   0  0  0  0  0  0  0  0  0  0  0  0
   53.0850   23.7643   46.3355 H   0  0  0  0  0  0  0  0  0  0  0  0
   52.7841   24.6502   44.8021 H   0  0  0  0  0  0  0  0  0  0  0  0
   53.8150   23.1792   44.8021 H   0  0  0  0  0  0  0  0  0  0  0  0
   56.4085   23.4372   45.6279 H   0  0  0  0  0  0  0  0  0  0  0  0
   59.4692   28.8463   46.3355 H   0  0  0  0  0  0  0  0  0  0  0  0
   58.8579   27.9337   44.8972 H   0  0  0  0  0  0  0  0  0  0  0  0
   58.2385   29.9304   43.6442 H   0  0  0  0  0  0  0  0  0  0  0  0
   56.6153   30.6414   43.2413 H   0  0  0  0  0  0  0  0  0  0  0  0
   57.5362   30.9835   46.7053 H   0  0  0  0  0  0  0  0  0  0  0  0
   58.2537   33.1225   47.7672 H   0  0  0  0  0  0  0  0  0  0  0  0
   58.8744   35.0784   46.3496 H   0  0  0  0  0  0  0  0  0  0  0  0
   58.7813   34.8993   43.8628 H   0  0  0  0  0  0  0  0  0  0  0  0
   56.1290   27.6610   46.2620 H   0  0  0  0  0  0  0  0  0  0  0  0
  1  2  1  0
  2  3  2  0
  3  4  1  0
  4  5  2  3
  5  6  1  0
  6  7  2  0
  6  8  1  0
  8  9  1  0
  9 10  1  0
 10 11  2  0
 10 12  1  0
 12 13  1  0
 13 14  2  0
 14 15  1  0
 15 16  2  0
 16 17  1  0
 17 18  2  0
 18 19  1  0
  4 20  1  0
 20 21  1  0
 21  2  1  0
 18 13  1  0
  1 22  1  0
  1 23  1  0
  1 24  1  0
  3 25  1  0
  8 26  1  0
  8 27  1  0
 12 28  1  0
 12 29  1  0
 14 30  1  0
 15 31  1  0
 16 32  1  0
 17 33  1  0
 20 34  1  0
M  CHG  1   9  -1
M  END
>  <UniqueID>  (42) 
42

>  <SMILES>  (42) 
Cc1cc(=NC(=O)C[N-]C(=O)Cc2ccccc2F)[nH]o1

>  <Energy>  (42) 
62.44108526974019

>  <Genealogy>  (42) 
Cc1cc(=NC(=O)C[N-]C(=O)Cc2ccccc2F)[nH]o1 (protonated)
Cc1cc(=NC(=O)C[N-]C(=O)Cc2ccccc2F)[nH]o1 (3D coordinates assigned)
Cc1cc(=NC(=O)C[N-]C(=O)Cc2ccccc2F)[nH]o1 (optimized conformer: 62.44108526974019 kcal/mol)

>  <smiles>  (42) 
Cc1cc(=NC(=O)CNC(=O)Cc2ccccc2F)[nH]o1

>  <score_type>  (42) 
oracle

>  <origin>  (42) 
adg

>  <m_score__min__energy>  (42) 
-9.2400000000000002

>  <m_primary>  (42) 
energy

$$$$
42:0
     RDKit          3D

 53 56  0  0  0  0  0  0  0  0999 V2000
   54.0590   24.4940   45.9730 O   0  0  0  0  0  0  0  0  0  0  0  0
   55.2790   24.6470   45.7070 C   0  0  0  0  0  0  0  0  0  0  0  0
   55.9620   25.7950   46.2290 N   0  0  0  0  0  0  0  0  0  0  0  0
   56.8350   26.6660   45.4940 C   0  0  0  0  0  0  0  0  0  0  0  0
   57.6510   26.1240   44.4970 C   0  0  0  0  0  0  0  0  0  0  0  0
   58.5120   26.9450   43.7680 C   0  0  0  0  0  0  0  0  0  0  0  0
   58.5720   28.3150   44.0350 C   0  0  0  0  0  0  0  0  0  0  0  0
   57.7750   28.8770   45.0470 C   0  0  0  0  0  0  0  0  0  0  0  0
   57.8250   30.2930   45.3210 N   0  0  0  0  0  0  0  0  0  0  0  0
   57.0650   31.2350   44.4850 C   0  0  0  0  0  0  0  0  0  0  0  0
   57.8150   32.5720   44.3260 C   0  0  0  0  0  0  0  0  0  0  0  0
   58.5900   32.9710   45.5270 N   0  0  0  0  0  0  0  0  0  0  0  0
   58.6990   34.4360   45.6920 C   0  0  0  0  0  0  0  0  0  0  0  0
   59.1100   34.8730   47.1120 C   0  0  0  0  0  0  0  0  0  0  0  0
   60.5060   34.4020   47.4240 C   0  0  0  0  0  0  0  0  0  0  0  0
   60.9130   34.2270   48.7560 C   0  0  0  0  0  0  0  0  0  0  0  0
   62.1990   33.7560   49.0430 C   0  0  0  0  0  0  0  0  0  0  0  0
   63.0840   33.4490   48.0050 C   0  0  0  0  0  0  0  0  0  0  0  0
   64.3620   32.9820   48.3060 O   0  0  0  0  0  0  0  0  0  0  0  0
   62.6770   33.6090   46.6740 C   0  0  0  0  0  0  0  0  0  0  0  0
   61.3920   34.0790   46.3840 C   0  0  0  0  0  0  0  0  0  0  0  0
   58.2110   32.2620   46.7610 C   0  0  0  0  0  0  0  0  0  0  0  0
   58.4490   30.7660   46.5660 C   0  0  0  0  0  0  0  0  0  0  0  0
   56.9230   28.0380   45.7890 C   0  0  0  0  0  0  0  0  0  0  0  0
   55.9700   23.6140   44.9130 C   0  0  0  0  0  0  0  0  0  0  0  0
   57.1800   23.0150   45.2090 C   0  0  0  0  0  0  0  0  0  0  0  0
   57.4110   22.1170   44.1900 C   0  0  0  0  0  0  0  0  0  0  0  0
   56.3270   22.2140   43.3410 C   0  0  0  0  0  0  0  0  0  0  0  0
   55.4860   23.1110   43.8010 O   0  0  0  0  0  0  0  0  0  0  0  0
   57.6142   25.0450   44.2861 H   0  0  0  0  0  0  0  0  0  0  0  0
   59.1459   26.5120   42.9802 H   0  0  0  0  0  0  0  0  0  0  0  0
   59.2467   28.9573   43.4500 H   0  0  0  0  0  0  0  0  0  0  0  0
   56.9121   30.7893   43.4910 H   0  0  0  0  0  0  0  0  0  0  0  0
   56.1002   31.4338   44.9745 H   0  0  0  0  0  0  0  0  0  0  0  0
   58.5108   32.4806   43.4789 H   0  0  0  0  0  0  0  0  0  0  0  0
   57.0534   33.3490   44.1637 H   0  0  0  0  0  0  0  0  0  0  0  0
   59.4519   34.8099   44.9825 H   0  0  0  0  0  0  0  0  0  0  0  0
   57.6993   34.8549   45.5045 H   0  0  0  0  0  0  0  0  0  0  0  0
   59.0748   35.9705   47.1777 H   0  0  0  0  0  0  0  0  0  0  0  0
   58.4132   34.4278   47.8375 H   0  0  0  0  0  0  0  0  0  0  0  0
   60.2189   34.4608   49.5767 H   0  0  0  0  0  0  0  0  0  0  0  0
   62.5147   33.6268   50.0888 H   0  0  0  0  0  0  0  0  0  0  0  0
   64.8490   32.3390   47.6930 H   0  0  0  0  0  0  0  0  0  0  0  0
   63.3696   33.3644   45.8552 H   0  0  0  0  0  0  0  0  0  0  0  0
   61.0745   34.1960   45.3373 H   0  0  0  0  0  0  0  0  0  0  0  0
   58.8229   32.6269   47.5991 H   0  0  0  0  0  0  0  0  0  0  0  0
   57.1494   32.4442   46.9840 H   0  0  0  0  0  0  0  0  0  0  0  0
   59.5316   30.5765   46.5208 H   0  0  0  0  0  0  0  0  0  0  0  0
   57.9992   30.2255   47.4119 H   0  0  0  0  0  0  0  0  0  0  0  0
   56.3204   28.4593   46.6072 H   0  0  0  0  0  0  0  0  0  0  0  0
   57.8247   23.2140   46.0778 H   0  0  0  0  0  0  0  0  0  0  0  0
   58.2830   21.4563   44.0760 H   0  0  0  0  0  0  0  0  0  0  0  0
   56.1889   21.6291   42.4197 H   0  0  0  0  0  0  0  0  0  0  0  0
  1  2  2  0
  2  3  1  0
  3  4  1  0
  4  5  2  0
  5  6  1  0
  6  7  2  0
  7  8  1  0
  8  9  1  0
  9 10  1  0
 10 11  1  0
 11 12  1  0
 12 13  1  0
 13 14  1  0
 14 15  1  0
 15 16  2  0
 16 17  1  0
 17 18  2  0
 18 19  1  0
 18 20  1  0
 20 21  2  0
 12 22  1  0
 22 23  1  0
  8 24  2  0
  2 25  1  0
 25 26  2  0
 26 27  1  0
 27 28  2  0
 28 29  1  0
 24  4  1  0
 29 25  1  0
 23  9  1  0
 21 15  1  0
  5 30  1  0
  6 31  1  0
  7 32  1  0
 10 33  1  0
 10 34  1  0
 11 35  1  0
 11 36  1  0
 13 37  1  0
 13 38  1  0
 14 39  1  0
 14 40  1  0
 16 41  1  0
 17 42  1  0
 19 43  1  0
 20 44  1  0
 21 45  1  0
 22 46  1  0
 22 47  1  0
 23 48  1  0
 23 49  1  0
 24 50  1  0
 26 51  1  0
 27 52  1  0
 28 53  1  0
M  CHG  1   3  -1
M  END
>  <UniqueID>  (43) 
43

>  <SMILES>  (43) 
O=C([N-]c1cccc(N2CCN(CCc3ccc(O)cc3)CC2)c1)c1ccco1

>  <Energy>  (43) 
96.24387081202744

>  <Genealogy>  (43) 
O=C([N-]c1cccc(N2CCN(CCc3ccc(O)cc3)CC2)c1)c1ccco1 (protonated)
O=C([N-]c1cccc(N2CCN(CCc3ccc(O)cc3)CC2)c1)c1ccco1 (3D coordinates assigned)
O=C([N-]c1cccc(N2CCN(CCc3ccc(O)cc3)CC2)c1)c1ccco1 (nonaromatic ring conformer: 96.24387081202744 kcal/mol)

>  <smiles>  (43) 
O=C(Nc1cccc(N2CCN(CCc3ccc(O)cc3)CC2)c1)c1ccco1

>  <score_type>  (43) 
oracle

>  <origin>  (43) 
adg

>  <m_score__min__energy>  (43) 
-10.57

>  <m_primary>  (43) 
energy

$$$$
43:0
     RDKit          3D

 52 54  0  0  0  0  0  0  0  0999 V2000
   60.1068   32.5430   46.0066 H   0  0  0  0  0  0  0  0  0  0  0  0
   59.2060   33.0270   46.4120 C   0  0  0  0  0  0  0  0  0  0  0  0
   58.7590   34.1370   45.7880 C   0  0  0  0  0  0  0  0  0  0  0  0
   59.5990   35.3850   45.6660 C   0  0  0  0  0  0  0  0  0  0  0  0
   59.8499   35.7577   46.6701 H   0  0  0  0  0  0  0  0  0  0  0  0
   60.5248   35.1519   45.1195 H   0  0  0  0  0  0  0  0  0  0  0  0
   59.0346   36.1549   45.1195 H   0  0  0  0  0  0  0  0  0  0  0  0
   57.3730   34.1150   45.1960 C   0  0  0  0  0  0  0  0  0  0  0  0
   56.6286   34.1032   46.0057 H   0  0  0  0  0  0  0  0  0  0  0  0
   57.2252   35.0109   44.5751 H   0  0  0  0  0  0  0  0  0  0  0  0
   57.2537   33.2149   44.5751 H   0  0  0  0  0  0  0  0  0  0  0  0
   58.5620   32.4000   47.6250 C   0  0  0  0  0  0  0  0  0  0  0  0
   57.4694   32.4926   47.5374 H   0  0  0  0  0  0  0  0  0  0  0  0
   58.9295   32.9238   48.5198 H   0  0  0  0  0  0  0  0  0  0  0  0
   58.9220   30.9380   47.7510 C   0  0  0  0  0  0  0  0  0  0  0  0
   59.6490   30.4730   48.8560 C   0  0  0  0  0  0  0  0  0  0  0  0
   60.0370   31.3900   49.8490 O   0  0  0  0  0  0  0  0  0  0  0  0
   61.1240   31.1970   50.7520 C   0  0  0  0  0  0  0  0  0  0  0  0
   61.2231   32.0841   51.3948 H   0  0  0  0  0  0  0  0  0  0  0  0
   60.9244   30.3061   51.3656 H   0  0  0  0  0  0  0  0  0  0  0  0
   62.4270   30.9860   49.9800 C   0  0  0  0  0  0  0  0  0  0  0  0
   63.2722   31.0726   50.6786 H   0  0  0  0  0  0  0  0  0  0  0  0
   62.3929   29.9872   49.5204 H   0  0  0  0  0  0  0  0  0  0  0  0
   62.5990   32.0010   48.8790 C   0  0  0  0  0  0  0  0  0  0  0  0
   61.9250   33.2330   48.9360 C   0  0  0  0  0  0  0  0  0  0  0  0
   61.2615   33.4554   49.7847 H   0  0  0  0  0  0  0  0  0  0  0  0
   62.0940   34.1770   47.9190 C   0  0  0  0  0  0  0  0  0  0  0  0
   61.5675   35.1413   47.9720 H   0  0  0  0  0  0  0  0  0  0  0  0
   62.9300   33.8980   46.8360 C   0  0  0  0  0  0  0  0  0  0  0  0
   63.0621   34.6429   46.0374 H   0  0  0  0  0  0  0  0  0  0  0  0
   63.5990   32.6730   46.7660 C   0  0  0  0  0  0  0  0  0  0  0  0
   64.2557   32.4534   45.9113 H   0  0  0  0  0  0  0  0  0  0  0  0
   63.4340   31.7260   47.7820 C   0  0  0  0  0  0  0  0  0  0  0  0
   63.9600   30.7617   47.7224 H   0  0  0  0  0  0  0  0  0  0  0  0
   59.9690   29.1100   48.9430 C   0  0  0  0  0  0  0  0  0  0  0  0
   60.5302   28.7462   49.8163 H   0  0  0  0  0  0  0  0  0  0  0  0
   59.5900   28.1940   47.9400 C   0  0  0  0  0  0  0  0  0  0  0  0
   60.0010   26.9170   48.0920 C   0  0  0  0  0  0  0  0  0  0  0  0
   59.7342   26.1601   47.3397 H   0  0  0  0  0  0  0  0  0  0  0  0
   60.6027   26.6335   48.9681 H   0  0  0  0  0  0  0  0  0  0  0  0
   58.8360   28.6610   46.8130 C   0  0  0  0  0  0  0  0  0  0  0  0
   58.3970   27.8230   45.8330 C   0  0  0  0  0  0  0  0  0  0  0  0
   58.9847   27.7857   44.9039 H   0  0  0  0  0  0  0  0  0  0  0  0
   57.1980   26.9580   45.9090 C   0  0  0  0  0  0  0  0  0  0  0  0
   57.1750   25.7070   46.4080 N   0  0  0  0  0  0  0  0  0  0  0  0
   55.8640   25.3820   46.3780 C   0  0  0  0  0  0  0  0  0  0  0  0
   55.4350   24.2620   46.7610 O   0  0  0  0  0  0  0  0  0  0  0  0
   55.0500   26.3540   45.9160 N   0  0  0  0  0  0  0  0  0  0  0  0
   55.9080   27.3480   45.6360 C   0  0  0  0  0  0  0  0  0  0  0  0
   55.5210   28.5870   45.1430 O   0  0  0  0  0  0  0  0  0  0  0  0
   58.5060   30.0360   46.7620 C   0  0  0  0  0  0  0  0  0  0  0  0
   57.9042   30.4087   45.9200 H   0  0  0  0  0  0  0  0  0  0  0  0
  1  2  1  0
  2  3  2  3
  3  4  1  0
  4  5  1  0
  4  6  1  0
  4  7  1  0
  3  8  1  0
  8  9  1  0
  8 10  1  0
  8 11  1  0
  2 12  1  0
 12 13  1  0
 12 14  1  0
 12 15  1  0
 15 16  1  0
 16 17  1  0
 17 18  1  0
 18 19  1  0
 18 20  1  0
 18 21  1  0
 21 22  1  0
 21 23  1  0
 21 24  1  0
 24 25  2  0
 25 26  1  0
 25 27  1  0
 27 28  1  0
 27 29  2  0
 29 30  1  0
 29 31  1  0
 31 32  1  0
 31 33  2  0
 33 34  1  0
 16 35  2  0
 35 36  1  0
 35 37  1  0
 37 38  2  0
 38 39  1  0
 38 40  1  0
 37 41  1  0
 41 42  2  0
 42 43  1  0
 42 44  1  0
 44 45  1  0
 45 46  1  0
 46 47  2  0
 46 48  1  0
 48 49  1  0
 49 50  1  0
 41 51  1  0
 51 52  1  0
 51 15  2  0
 33 24  1  0
 49 44  2  0
M  CHG  3  45  -1  48  -1  50  -1
M  END
>  <UniqueID>  (44) 
44

>  <SMILES>  (44) 
C=c1cc(OCCc2ccccc2)c(CC=C(C)C)c/c1=C\c1[n-]c(=O)[n-]c1[O-]

>  <Energy>  (44) 
88.59809139681511

>  <Genealogy>  (44) 
C=c1cc(OCCc2ccccc2)c(CC=C(C)C)cc1=Cc1[n-]c(=O)[n-]c1[O-] (protonated)
C=c1cc(OCCc2ccccc2)c(CC=C(C)C)c/c1=C\c1[n-]c(=O)[n-]c1[O-] (cis-trans isomerization)
C=c1cc(OCCc2ccccc2)c(CC=C(C)C)c/c1=C\c1[n-]c(=O)[n-]c1[O-] (3D coordinates assigned)
C=c1cc(OCCc2ccccc2)c(CC=C(C)C)c/c1=C\c1[n-]c(=O)[n-]c1[O-] (optimized conformer: 88.59809139681511 kcal/mol)

>  <smiles>  (44) 
C=c1cc(OCCc2ccccc2)c(CC=C(C)C)cc1=Cc1[nH]c(=O)[nH]c1O

>  <score_type>  (44) 
oracle

>  <origin>  (44) 
adg

>  <m_score__min__energy>  (44) 
-16.760000000000002

>  <m_primary>  (44) 
energy

$$$$
44:0
     RDKit          3D

 72 77  0  0  0  0  0  0  0  0999 V2000
   55.2800   26.3880   46.0110 O   0  0  0  0  0  0  0  0  0  0  0  0
   56.1720   25.5690   45.6700 C   0  0  0  0  0  0  0  0  0  0  0  0
   55.8460   24.1950   45.4200 N   0  0  0  0  0  0  0  0  0  0  0  0
   56.4760   23.3260   44.6810 C   0  0  0  0  0  0  0  0  0  0  0  0
   57.7670   22.8480   44.9900 C   0  0  0  0  0  0  0  0  0  0  0  0
   58.3440   21.8610   44.1870 C   0  0  0  0  0  0  0  0  0  0  0  0
   57.6480   21.3630   43.0860 C   0  0  0  0  0  0  0  0  0  0  0  0
   56.3810   21.8740   42.7950 C   0  0  0  0  0  0  0  0  0  0  0  0
   55.8260   22.8170   43.6020 N   0  0  0  0  0  0  0  0  0  0  0  0
   57.5390   25.9830   45.5530 N   0  0  0  0  0  0  0  0  0  0  0  0
   58.2200   26.7190   46.5790 C   0  0  0  0  0  0  0  0  0  0  0  0
   57.7670   28.0280   46.8930 C   0  0  0  0  0  0  0  0  0  0  0  0
   58.4010   28.7960   47.8840 C   0  0  0  0  0  0  0  0  0  0  0  0
   59.4800   28.2240   48.5560 C   0  0  0  0  0  0  0  0  0  0  0  0
   59.9130   26.9600   48.2720 C   0  0  0  0  0  0  0  0  0  0  0  0
   60.9640   26.7260   49.1300 C   0  0  0  0  0  0  0  0  0  0  0  0
   61.1470   27.8320   49.8940 N   0  0  0  0  0  0  0  0  0  0  0  0
   60.2360   28.7360   49.5460 N   0  0  0  0  0  0  0  0  0  0  0  0
   60.1690   30.0800   50.1170 C   0  0  0  0  0  0  0  0  0  0  0  0
   61.1120   30.9910   49.3840 C   0  0  0  0  0  0  0  0  0  0  0  0
   62.4370   31.1460   49.8140 C   0  0  0  0  0  0  0  0  0  0  0  0
   63.2820   32.0620   49.1770 C   0  0  0  0  0  0  0  0  0  0  0  0
   62.8080   32.8370   48.1130 C   0  0  0  0  0  0  0  0  0  0  0  0
   63.6620   33.7450   47.4950 O   0  0  0  0  0  0  0  0  0  0  0  0
   61.4800   32.6860   47.6750 C   0  0  0  0  0  0  0  0  0  0  0  0
   60.9340   33.5290   46.5990 C   0  0  0  0  0  0  0  0  0  0  0  0
   61.6840   33.8220   45.6280 O   0  0  0  0  0  0  0  0  0  0  0  0
   59.5540   33.9540   46.6110 N   0  0  0  0  0  0  0  0  0  0  0  0
   59.0280   34.8140   45.5420 C   0  0  0  0  0  0  0  0  0  0  0  0
   58.0890   33.9840   44.6580 C   0  0  0  0  0  0  0  0  0  0  0  0
   57.0640   33.1040   45.4600 C   0  0  0  0  0  0  0  0  0  0  0  0
   57.2780   31.6540   45.1560 N   0  0  0  0  0  0  0  0  0  0  0  0
   58.6550   31.4100   44.6640 C   0  0  0  0  0  0  0  0  0  0  0  0
   58.9020   29.8900   44.5510 C   0  0  0  0  0  0  0  0  0  0  0  0
   57.6990   29.1440   44.4880 O   0  0  0  0  0  0  0  0  0  0  0  0
   56.7970   29.7580   43.5900 C   0  0  0  0  0  0  0  0  0  0  0  0
   56.3280   31.1170   44.1470 C   0  0  0  0  0  0  0  0  0  0  0  0
   57.1480   33.4350   46.9820 C   0  0  0  0  0  0  0  0  0  0  0  0
   58.5870   33.2940   47.5070 C   0  0  0  0  0  0  0  0  0  0  0  0
   60.6400   31.7600   48.3090 C   0  0  0  0  0  0  0  0  0  0  0  0
   59.3160   26.1690   47.2920 C   0  0  0  0  0  0  0  0  0  0  0  0
   58.3145   23.2490   45.8557 H   0  0  0  0  0  0  0  0  0  0  0  0
   59.3473   21.4767   44.4232 H   0  0  0  0  0  0  0  0  0  0  0  0
   58.0908   20.5782   42.4551 H   0  0  0  0  0  0  0  0  0  0  0  0
   55.8321   21.5133   41.9126 H   0  0  0  0  0  0  0  0  0  0  0  0
   58.1250   25.4330   44.8850 H   0  0  0  0  0  0  0  0  0  0  0  0
   56.9060   28.4472   46.3517 H   0  0  0  0  0  0  0  0  0  0  0  0
   58.0577   29.8137   48.1214 H   0  0  0  0  0  0  0  0  0  0  0  0
   61.5548   25.7998   49.1864 H   0  0  0  0  0  0  0  0  0  0  0  0
   59.1429   30.4654   50.0246 H   0  0  0  0  0  0  0  0  0  0  0  0
   60.4548   30.0387   51.1784 H   0  0  0  0  0  0  0  0  0  0  0  0
   62.8141   30.5456   50.6551 H   0  0  0  0  0  0  0  0  0  0  0  0
   64.3231   32.1731   49.5143 H   0  0  0  0  0  0  0  0  0  0  0  0
   58.4732   35.6551   45.9833 H   0  0  0  0  0  0  0  0  0  0  0  0
   59.8578   35.2098   44.9380 H   0  0  0  0  0  0  0  0  0  0  0  0
   57.5230   34.6726   44.0135 H   0  0  0  0  0  0  0  0  0  0  0  0
   58.7227   33.2905   44.0857 H   0  0  0  0  0  0  0  0  0  0  0  0
   56.0377   33.3413   45.1432 H   0  0  0  0  0  0  0  0  0  0  0  0
   58.7785   31.8756   43.6751 H   0  0  0  0  0  0  0  0  0  0  0  0
   59.3779   31.8465   45.3689 H   0  0  0  0  0  0  0  0  0  0  0  0
   59.4852   29.6950   43.6389 H   0  0  0  0  0  0  0  0  0  0  0  0
   59.4427   29.5730   45.4550 H   0  0  0  0  0  0  0  0  0  0  0  0
   57.2981   29.9155   42.6235 H   0  0  0  0  0  0  0  0  0  0  0  0
   55.9221   29.1042   43.4591 H   0  0  0  0  0  0  0  0  0  0  0  0
   56.2467   31.8339   43.3167 H   0  0  0  0  0  0  0  0  0  0  0  0
   55.3541   30.9696   44.6367 H   0  0  0  0  0  0  0  0  0  0  0  0
   56.8077   34.4686   47.1431 H   0  0  0  0  0  0  0  0  0  0  0  0
   56.5088   32.7249   47.5271 H   0  0  0  0  0  0  0  0  0  0  0  0
   58.6509   33.7545   48.5039 H   0  0  0  0  0  0  0  0  0  0  0  0
   58.8345   32.2233   47.5548 H   0  0  0  0  0  0  0  0  0  0  0  0
   59.6038   31.6352   47.9616 H   0  0  0  0  0  0  0  0  0  0  0  0
   59.6819   25.1538   47.0789 H   0  0  0  0  0  0  0  0  0  0  0  0
  1  2  2  0
  2  3  1  0
  3  4  2  3
  4  5  1  0
  5  6  2  0
  6  7  1  0
  7  8  2  0
  8  9  1  0
  2 10  1  0
 10 11  1  0
 11 12  2  0
 12 13  1  0
 13 14  2  0
 14 15  1  0
 15 16  1  0
 16 17  2  0
 17 18  1  0
 18 19  1  0
 19 20  1  0
 20 21  2  0
 21 22  1  0
 22 23  2  0
 23 24  1  0
 23 25  1  0
 25 26  1  0
 26 27  2  0
 26 28  1  0
 28 29  1  0
 29 30  1  0
 30 31  1  0
 31 32  1  0
 32 33  1  0
 33 34  1  0
 34 35  1  0
 35 36  1  0
 36 37  1  0
 31 38  1  0
 38 39  1  0
 25 40  2  0
 15 41  2  0
  9  4  1  0
 41 11  1  0
 18 14  1  0
 40 20  1  0
 39 28  1  0
 37 32  1  0
  5 42  1  0
  6 43  1  0
  7 44  1  0
  8 45  1  0
 10 46  1  0
 12 47  1  0
 13 48  1  0
 16 49  1  0
 19 50  1  0
 19 51  1  0
 21 52  1  0
 22 53  1  0
 29 54  1  0
 29 55  1  0
 30 56  1  0
 30 57  1  0
 31 58  1  0
 33 59  1  0
 33 60  1  0
 34 61  1  0
 34 62  1  0
 36 63  1  0
 36 64  1  0
 37 65  1  0
 37 66  1  0
 38 67  1  0
 38 68  1  0
 39 69  1  0
 39 70  1  0
 40 71  1  0
 41 72  1  0
M  CHG  2   9  -1  24  -1
M  END
>  <UniqueID>  (45) 
45

>  <SMILES>  (45) 
O=C(N=c1cccc[n-]1)Nc1ccc2c(cnn2Cc2ccc([O-])c(C(=O)N3CCC(N4CCOCC4)CC3)c2)c1

>  <Energy>  (45) 
156.6094572510731

>  <Genealogy>  (45) 
O=C(N=c1cccc[n-]1)Nc1ccc2c(cnn2Cc2ccc([O-])c(C(=O)N3CCC(N4CCOCC4)CC3)c2)c1 (protonated)
O=C(N=c1cccc[n-]1)Nc1ccc2c(cnn2Cc2ccc([O-])c(C(=O)N3CCC(N4CCOCC4)CC3)c2)c1 (3D coordinates assigned)
O=C(N=c1cccc[n-]1)Nc1ccc2c(cnn2Cc2ccc([O-])c(C(=O)N3CCC(N4CCOCC4)CC3)c2)c1 (nonaromatic ring conformer: 156.6094572510731 kcal/mol)

>  <smiles>  (45) 
O=C(N=c1cccc[nH]1)Nc1ccc2c(cnn2Cc2ccc(O)c(C(=O)N3CCC(N4CCOCC4)CC3)c2)c1

>  <score_type>  (45) 
oracle

>  <origin>  (45) 
adg

>  <m_score__min__energy>  (45) 
-13.470000000000001

>  <m_primary>  (45) 
energy

$$$$
45:0
     RDKit          3D

 41 43  0  0  0  0  0  0  0  0999 V2000
   60.2240   28.0610   45.5020 C   0  0  0  0  0  0  0  0  0  0  0  0
   59.1150   28.8180   45.4370 C   0  0  0  0  0  0  0  0  0  0  0  0
   59.2320   30.1730   45.8010 C   0  0  0  0  0  0  0  0  0  0  0  0
   58.2000   31.0810   45.5510 C   0  0  0  0  0  0  0  0  0  0  0  0
   58.3570   32.4680   45.9010 N   0  0  0  0  0  0  0  0  0  0  0  0
   57.9480   32.9490   47.2230 C   0  0  0  0  0  0  0  0  0  0  0  0
   58.9690   33.9570   47.7920 C   0  0  0  0  0  0  0  0  0  0  0  0
   59.7050   34.7380   46.7580 N   0  0  0  0  0  0  0  0  0  0  0  0
   61.0760   34.2250   46.5690 C   0  0  0  0  0  0  0  0  0  0  0  0
   58.9740   34.8230   45.4730 C   0  0  0  0  0  0  0  0  0  0  0  0
   58.7320   33.4340   44.8640 C   0  0  0  0  0  0  0  0  0  0  0  0
   57.0380   30.6180   44.9240 C   0  0  0  0  0  0  0  0  0  0  0  0
   56.1100   31.4140   44.6200 O   0  0  0  0  0  0  0  0  0  0  0  0
   56.9040   29.3000   44.6370 N   0  0  0  0  0  0  0  0  0  0  0  0
   57.8590   28.3680   44.9130 C   0  0  0  0  0  0  0  0  0  0  0  0
   57.5100   27.0810   44.6840 C   0  0  0  0  0  0  0  0  0  0  0  0
   57.3110   26.0190   45.6970 C   0  0  0  0  0  0  0  0  0  0  0  0
   56.0700   25.8830   46.3380 C   0  0  0  0  0  0  0  0  0  0  0  0
   55.0040   26.7070   45.9960 O   0  0  0  0  0  0  0  0  0  0  0  0
   55.9000   24.9330   47.2930 N   0  0  0  0  0  0  0  0  0  0  0  0
   56.9180   24.1150   47.6580 C   0  0  0  0  0  0  0  0  0  0  0  0
   56.7350   23.2380   48.5410 O   0  0  0  0  0  0  0  0  0  0  0  0
   58.1370   24.2450   47.0760 N   0  0  0  0  0  0  0  0  0  0  0  0
   58.3610   25.1800   46.1160 C   0  0  0  0  0  0  0  0  0  0  0  0
   59.5140   25.2920   45.6210 O   0  0  0  0  0  0  0  0  0  0  0  0
   60.1804   26.9968   45.2271 H   0  0  0  0  0  0  0  0  0  0  0  0
   61.1751   28.5058   45.8300 H   0  0  0  0  0  0  0  0  0  0  0  0
   60.1525   30.5231   46.2910 H   0  0  0  0  0  0  0  0  0  0  0  0
   56.9677   33.4408   47.1382 H   0  0  0  0  0  0  0  0  0  0  0  0
   57.8928   32.0875   47.9048 H   0  0  0  0  0  0  0  0  0  0  0  0
   58.4298   34.6649   48.4387 H   0  0  0  0  0  0  0  0  0  0  0  0
   59.7223   33.3678   48.3355 H   0  0  0  0  0  0  0  0  0  0  0  0
   59.8030   35.7200   47.1120 H   0  0  0  0  0  0  0  0  0  0  0  0
   61.5410   34.0510   47.5506 H   0  0  0  0  0  0  0  0  0  0  0  0
   61.0396   33.2796   46.0078 H   0  0  0  0  0  0  0  0  0  0  0  0
   61.6692   34.9620   46.0078 H   0  0  0  0  0  0  0  0  0  0  0  0
   58.0032   35.3101   45.6467 H   0  0  0  0  0  0  0  0  0  0  0  0
   59.5863   35.4045   44.7681 H   0  0  0  0  0  0  0  0  0  0  0  0
   57.9211   33.5013   44.1238 H   0  0  0  0  0  0  0  0  0  0  0  0
   59.6614   33.0929   44.3845 H   0  0  0  0  0  0  0  0  0  0  0  0
   57.3578   26.7927   43.6334 H   0  0  0  0  0  0  0  0  0  0  0  0
  1  2  2  0
  2  3  1  0
  3  4  2  0
  4  5  1  0
  5  6  1  0
  6  7  1  0
  7  8  1  0
  8  9  1  0
  8 10  1  0
 10 11  1  0
  4 12  1  0
 12 13  2  0
 12 14  1  0
 14 15  1  0
 15 16  2  3
 16 17  1  0
 17 18  2  0
 18 19  1  0
 18 20  1  0
 20 21  1  0
 21 22  2  0
 21 23  1  0
 23 24  1  0
 24 25  2  0
 15  2  1  0
 24 17  1  0
 11  5  1  0
  1 26  1  0
  1 27  1  0
  3 28  1  0
  6 29  1  0
  6 30  1  0
  7 31  1  0
  7 32  1  0
  8 33  1  0
  9 34  1  0
  9 35  1  0
  9 36  1  0
 10 37  1  0
 10 38  1  0
 11 39  1  0
 11 40  1  0
 16 41  1  0
M  CHG  5   8   1  14  -1  19  -1  20  -1  23  -1
M  END
>  <UniqueID>  (46) 
46

>  <SMILES>  (46) 
C=c1cc(N2CC[NH+](C)CC2)c(=O)[n-]c1=Cc1c([O-])[n-]c(=O)[n-]c1=O

>  <Energy>  (46) 
79.18965744695498

>  <Genealogy>  (46) 
C=c1cc(N2CC[NH+](C)CC2)c(=O)[n-]c1=Cc1c([O-])[n-]c(=O)[n-]c1=O (protonated)
C=c1cc(N2CC[NH+](C)CC2)c(=O)[n-]c1=Cc1c([O-])[n-]c(=O)[n-]c1=O (3D coordinates assigned)
C=c1cc(N2CC[NH+](C)CC2)c(=O)[n-]c1=Cc1c([O-])[n-]c(=O)[n-]c1=O (nonaromatic ring conformer: 79.18965744695498 kcal/mol)

>  <smiles>  (46) 
C=c1cc(N2CCN(C)CC2)c(=O)[nH]c1=Cc1c(O)[nH]c(=O)[nH]c1=O

>  <score_type>  (46) 
oracle

>  <origin>  (46) 
adg

>  <m_score__min__energy>  (46) 
-15.18

>  <m_primary>  (46) 
energy

$$$$
46:0
     RDKit          3D

 30 32  0  0  0  0  0  0  0  0999 V2000
   51.5530   28.6090   53.1660 C   0  0  0  0  0  0  0  0  0  0  0  0
   52.8720   28.8170   53.0880 C   0  0  0  0  0  0  0  0  0  0  0  0
   53.7680   27.8790   53.4580 N   0  0  0  0  0  0  0  0  0  0  0  0
   54.9680   28.4820   53.4120 C   0  0  0  0  0  0  0  0  0  0  0  0
   56.4580   27.6840   53.8940 Cl  0  0  0  0  0  0  0  0  0  0  0  0
   54.8790   29.7710   53.0200 N   0  0  0  0  0  0  0  0  0  0  0  0
   55.9800   30.6860   52.8810 C   0  0  0  0  0  0  0  0  0  0  0  0
   56.3100   31.2100   51.6220 C   0  0  0  0  0  0  0  0  0  0  0  0
   57.3740   32.1080   51.4910 C   0  0  0  0  0  0  0  0  0  0  0  0
   58.1110   32.4890   52.6160 C   0  0  0  0  0  0  0  0  0  0  0  0
   57.7830   31.9740   53.8740 C   0  0  0  0  0  0  0  0  0  0  0  0
   56.7190   31.0770   54.0080 C   0  0  0  0  0  0  0  0  0  0  0  0
   53.5620   29.9970   52.7700 C   0  0  0  0  0  0  0  0  0  0  0  0
   53.0920   31.1610   52.2680 C   0  0  0  0  0  0  0  0  0  0  0  0
   52.2680   31.3000   51.0580 C   0  0  0  0  0  0  0  0  0  0  0  0
   52.2130   30.3750   50.0840 N   0  0  0  0  0  0  0  0  0  0  0  0
   51.2530   30.8460   49.2600 C   0  0  0  0  0  0  0  0  0  0  0  0
   50.9170   30.2530   48.2020 O   0  0  0  0  0  0  0  0  0  0  0  0
   50.6710   31.9960   49.6630 N   0  0  0  0  0  0  0  0  0  0  0  0
   51.3140   32.2620   50.8110 C   0  0  0  0  0  0  0  0  0  0  0  0
   51.0180   33.3450   51.6290 O   0  0  0  0  0  0  0  0  0  0  0  0
   50.8524   29.3980   52.8549 H   0  0  0  0  0  0  0  0  0  0  0  0
   51.1688   27.6490   53.5412 H   0  0  0  0  0  0  0  0  0  0  0  0
   53.5730   26.9040   53.7780 H   0  0  0  0  0  0  0  0  0  0  0  0
   55.7302   30.9136   50.7355 H   0  0  0  0  0  0  0  0  0  0  0  0
   57.6312   32.5149   50.5019 H   0  0  0  0  0  0  0  0  0  0  0  0
   58.9490   33.1939   52.5117 H   0  0  0  0  0  0  0  0  0  0  0  0
   58.3627   32.2749   54.7591 H   0  0  0  0  0  0  0  0  0  0  0  0
   56.4605   30.6767   54.9994 H   0  0  0  0  0  0  0  0  0  0  0  0
   53.3478   32.0828   52.8110 H   0  0  0  0  0  0  0  0  0  0  0  0
  1  2  2  0
  2  3  1  0
  3  4  2  0
  4  5  1  0
  4  6  1  0
  6  7  1  0
  7  8  2  0
  8  9  1  0
  9 10  2  0
 10 11  1  0
 11 12  2  0
  6 13  1  0
 13 14  2  3
 14 15  1  0
 15 16  1  0
 16 17  1  0
 17 18  2  0
 17 19  1  0
 19 20  1  0
 20 21  1  0
 13  2  1  0
 20 15  2  0
 12  7  1  0
  1 22  1  0
  1 23  1  0
  3 24  1  0
  8 25  1  0
  9 26  1  0
 10 27  1  0
 11 28  1  0
 12 29  1  0
 14 30  1  0
M  CHG  4   3   1  16  -1  19  -1  21  -1
M  END
>  <UniqueID>  (47) 
47

>  <SMILES>  (47) 
C=c1[nH+]c(Cl)n(-c2ccccc2)c1=Cc1[n-]c(=O)[n-]c1[O-]

>  <Energy>  (47) 
114.0871670805094

>  <Genealogy>  (47) 
C=c1[nH+]c(Cl)n(-c2ccccc2)c1=Cc1[n-]c(=O)[n-]c1[O-] (protonated)
C=c1[nH+]c(Cl)n(-c2ccccc2)c1=Cc1[n-]c(=O)[n-]c1[O-] (3D coordinates assigned)
C=c1[nH+]c(Cl)n(-c2ccccc2)c1=Cc1[n-]c(=O)[n-]c1[O-] (optimized conformer: 114.0871670805094 kcal/mol)

>  <smiles>  (47) 
C=c1nc(Cl)n(-c2ccccc2)c1=Cc1[nH]c(=O)[nH]c1O

>  <score_type>  (47) 
oracle

>  <origin>  (47) 
adg

>  <m_score__min__energy>  (47) 
-14.4

>  <m_primary>  (47) 
energy

$$$$
47:0
     RDKit          3D

 63 65  0  0  0  0  0  0  0  0999 V2000
   56.6480   19.6070   43.7710 H   0  0  0  0  0  0  0  0  0  0  0  0
   55.9660   20.4020   43.7740 N   0  0  0  0  0  0  0  0  0  0  0  0
   56.2880   21.6500   43.1700 C   0  0  0  0  0  0  0  0  0  0  0  0
   55.9090   21.8790   41.9880 O   0  0  0  0  0  0  0  0  0  0  0  0
   57.0540   22.6750   43.9120 C   0  0  0  0  0  0  0  0  0  0  0  0
   56.8340   24.0420   43.6680 C   0  0  0  0  0  0  0  0  0  0  0  0
   56.0982   24.3508   42.9109 H   0  0  0  0  0  0  0  0  0  0  0  0
   57.5440   25.0100   44.3810 C   0  0  0  0  0  0  0  0  0  0  0  0
   57.3574   26.0769   44.1889 H   0  0  0  0  0  0  0  0  0  0  0  0
   58.4940   24.6300   45.3410 C   0  0  0  0  0  0  0  0  0  0  0  0
   59.2170   25.6440   46.1410 C   0  0  0  0  0  0  0  0  0  0  0  0
   60.3132   25.5707   46.1960 H   0  0  0  0  0  0  0  0  0  0  0  0
   58.6370   26.6190   46.7850 N   0  0  0  0  0  0  0  0  0  0  0  0
   57.3990   27.2700   46.4500 C   0  0  0  0  0  0  0  0  0  0  0  0
   56.2970   26.7300   46.7430 O   0  0  0  0  0  0  0  0  0  0  0  0
   57.4160   28.5560   45.7150 C   0  0  0  0  0  0  0  0  0  0  0  0
   56.3480   28.9180   44.8730 C   0  0  0  0  0  0  0  0  0  0  0  0
   55.4800   28.2497   44.7735 H   0  0  0  0  0  0  0  0  0  0  0  0
   56.3830   30.1200   44.1630 C   0  0  0  0  0  0  0  0  0  0  0  0
   55.5309   30.4042   43.5280 H   0  0  0  0  0  0  0  0  0  0  0  0
   57.4990   30.9690   44.2540 C   0  0  0  0  0  0  0  0  0  0  0  0
   57.5760   32.2340   43.4910 C   0  0  0  0  0  0  0  0  0  0  0  0
   56.8330   32.3889   42.6948 H   0  0  0  0  0  0  0  0  0  0  0  0
   58.4780   33.2090   43.6900 C   0  0  0  0  0  0  0  0  0  0  0  0
   59.1479   33.4526   42.8522 H   0  0  0  0  0  0  0  0  0  0  0  0
   58.6480   33.9830   44.9380 C   0  0  0  0  0  0  0  0  0  0  0  0
   59.2500   35.0880   44.8880 O   0  0  0  0  0  0  0  0  0  0  0  0
   58.0590   33.5550   46.1730 N   0  0  0  0  0  0  0  0  0  0  0  0
   57.1310   33.0860   46.1150 H   0  0  0  0  0  0  0  0  0  0  0  0
   58.7060   33.6280   47.4570 C   0  0  0  0  0  0  0  0  0  0  0  0
   59.7380   34.5480   47.7180 C   0  0  0  0  0  0  0  0  0  0  0  0
   60.0249   35.2812   46.9498 H   0  0  0  0  0  0  0  0  0  0  0  0
   60.3980   34.5350   48.9440 C   0  0  0  0  0  0  0  0  0  0  0  0
   61.1950   35.2664   49.1438 H   0  0  0  0  0  0  0  0  0  0  0  0
   60.0540   33.5990   49.9210 C   0  0  0  0  0  0  0  0  0  0  0  0
   60.5874   33.5882   50.8830 H   0  0  0  0  0  0  0  0  0  0  0  0
   59.0290   32.6720   49.6780 C   0  0  0  0  0  0  0  0  0  0  0  0
   58.7000   31.6480   50.6280 N   0  0  0  0  0  0  0  0  0  0  0  0
   58.9580   30.2430   50.4750 C   0  0  0  0  0  0  0  0  0  0  0  0
   58.0760   29.4050   50.8000 O   0  0  0  0  0  0  0  0  0  0  0  0
   60.2660   29.7540   49.8740 C   0  0  0  0  0  0  0  0  0  0  0  0
   61.4430   30.4740   50.5670 C   0  0  0  0  0  0  0  0  0  0  0  0
   61.3254   30.4021   51.6583 H   0  0  0  0  0  0  0  0  0  0  0  0
   62.3897   30.0003   50.2682 H   0  0  0  0  0  0  0  0  0  0  0  0
   61.4524   31.5326   50.2682 H   0  0  0  0  0  0  0  0  0  0  0  0
   60.3270   30.0540   48.3630 C   0  0  0  0  0  0  0  0  0  0  0  0
   60.5440   31.1214   48.2096 H   0  0  0  0  0  0  0  0  0  0  0  0
   61.1204   29.4484   47.9007 H   0  0  0  0  0  0  0  0  0  0  0  0
   59.3601   29.8063   47.9007 H   0  0  0  0  0  0  0  0  0  0  0  0
   60.3910   28.2350   50.0940 C   0  0  0  0  0  0  0  0  0  0  0  0
   60.4086   28.0210   51.1728 H   0  0  0  0  0  0  0  0  0  0  0  0
   59.5317   27.7258   49.6332 H   0  0  0  0  0  0  0  0  0  0  0  0
   61.3220   27.8731   49.6332 H   0  0  0  0  0  0  0  0  0  0  0  0
   58.3730   32.6830   48.4410 C   0  0  0  0  0  0  0  0  0  0  0  0
   57.5864   31.9416   48.2373 H   0  0  0  0  0  0  0  0  0  0  0  0
   58.5420   30.6330   45.1270 C   0  0  0  0  0  0  0  0  0  0  0  0
   59.3953   31.3167   45.2471 H   0  0  0  0  0  0  0  0  0  0  0  0
   58.5060   29.4360   45.8460 C   0  0  0  0  0  0  0  0  0  0  0  0
   59.3365   29.1793   46.5201 H   0  0  0  0  0  0  0  0  0  0  0  0
   58.6970   23.2690   45.6050 C   0  0  0  0  0  0  0  0  0  0  0  0
   59.4144   22.9636   46.3809 H   0  0  0  0  0  0  0  0  0  0  0  0
   57.9940   22.2980   44.8890 C   0  0  0  0  0  0  0  0  0  0  0  0
   58.1761   21.2319   45.0899 H   0  0  0  0  0  0  0  0  0  0  0  0
  1  2  1  0
  2  3  1  0
  3  4  2  0
  3  5  1  0
  5  6  2  0
  6  7  1  0
  6  8  1  0
  8  9  1  0
  8 10  2  0
 10 11  1  0
 11 12  1  0
 11 13  2  3
 13 14  1  0
 14 15  2  0
 14 16  1  0
 16 17  2  0
 17 18  1  0
 17 19  1  0
 19 20  1  0
 19 21  2  0
 21 22  1  0
 22 23  1  0
 22 24  2  0
 24 25  1  0
 24 26  1  0
 26 27  2  0
 26 28  1  0
 28 29  1  0
 28 30  1  0
 30 31  2  0
 31 32  1  0
 31 33  1  0
 33 34  1  0
 33 35  2  0
 35 36  1  0
 35 37  1  0
 37 38  1  0
 38 39  1  0
 39 40  2  0
 39 41  1  0
 41 42  1  0
 42 43  1  0
 42 44  1  0
 42 45  1  0
 41 46  1  0
 46 47  1  0
 46 48  1  0
 46 49  1  0
 41 50  1  0
 50 51  1  0
 50 52  1  0
 50 53  1  0
 37 54  2  0
 54 55  1  0
 21 56  1  0
 56 57  1  0
 56 58  2  0
 58 59  1  0
 10 60  1  0
 60 61  1  0
 60 62  2  0
 62 63  1  0
 62  5  1  0
 58 16  1  0
 54 30  1  0
M  CHG  2   2  -1  38  -1
M  END
>  <UniqueID>  (48) 
48

>  <SMILES>  (48) 
CC(C)(C)C(=O)[N-]c1cccc(NC(=O)/C=C\c2ccc(C(=O)N=Cc3ccc(C([NH-])=O)cc3)cc2)c1

>  <Energy>  (48) 
83.4275244042805

>  <Genealogy>  (48) 
CC(C)(C)C(=O)[N-]c1cccc(NC(=O)C=Cc2ccc(C(=O)N=Cc3ccc(C([NH-])=O)cc3)cc2)c1 (protonated)
CC(C)(C)C(=O)[N-]c1cccc(NC(=O)/C=C\c2ccc(C(=O)N=Cc3ccc(C([NH-])=O)cc3)cc2)c1 (cis-trans isomerization)
CC(C)(C)C(=O)[N-]c1cccc(NC(=O)/C=C\c2ccc(C(=O)N=Cc3ccc(C([NH-])=O)cc3)cc2)c1 (3D coordinates assigned)
CC(C)(C)C(=O)[N-]c1cccc(NC(=O)/C=C\c2ccc(C(=O)N=Cc3ccc(C([NH-])=O)cc3)cc2)c1 (optimized conformer: 83.4275244042805 kcal/mol)

>  <smiles>  (48) 
CC(C)(C)C(=O)Nc1cccc(NC(=O)C=Cc2ccc(C(=O)N=Cc3ccc(C(N)=O)cc3)cc2)c1

>  <score_type>  (48) 
oracle

>  <origin>  (48) 
adg

>  <m_score__min__energy>  (48) 
-16.530000000000001

>  <m_primary>  (48) 
energy

$$$$
48:0
     RDKit          3D

 36 37  0  0  0  0  0  0  0  0999 V2000
   57.5550   25.0610   47.1360 C   0  0  0  0  0  0  0  0  0  0  0  0
   57.8010   26.1760   46.4540 C   0  0  0  0  0  0  0  0  0  0  0  0
   59.0960   26.6700   46.1500 N   0  0  0  0  0  0  0  0  0  0  0  0
   58.8970   27.8790   45.4090 C   0  0  0  0  0  0  0  0  0  0  0  0
   60.0470   28.6920   44.8990 C   0  0  0  0  0  0  0  0  0  0  0  0
   57.5900   28.1600   45.2420 C   0  0  0  0  0  0  0  0  0  0  0  0
   56.9890   29.3120   44.5320 C   0  0  0  0  0  0  0  0  0  0  0  0
   56.7420   29.2160   43.2990 O   0  0  0  0  0  0  0  0  0  0  0  0
   56.6440   30.5090   45.2360 N   0  0  0  0  0  0  0  0  0  0  0  0
   57.4080   31.7220   45.2400 C   0  0  0  0  0  0  0  0  0  0  0  0
   57.8080   32.2520   46.4730 C   0  0  0  0  0  0  0  0  0  0  0  0
   58.5580   33.4300   46.5410 C   0  0  0  0  0  0  0  0  0  0  0  0
   58.9120   33.9220   47.8060 O   0  0  0  0  0  0  0  0  0  0  0  0
   60.2460   34.2180   48.2100 C   0  0  0  0  0  0  0  0  0  0  0  0
   58.9280   34.0770   45.3500 C   0  0  0  0  0  0  0  0  0  0  0  0
   58.5660   33.5390   44.1140 C   0  0  0  0  0  0  0  0  0  0  0  0
   57.8180   32.3470   44.0420 C   0  0  0  0  0  0  0  0  0  0  0  0
   57.5000   31.7490   42.8130 O   0  0  0  0  0  0  0  0  0  0  0  0
   57.7320   32.3420   41.5400 C   0  0  0  0  0  0  0  0  0  0  0  0
   56.8300   27.0920   45.8950 C   0  0  0  0  0  0  0  0  0  0  0  0
   55.5760   26.9890   45.9590 O   0  0  0  0  0  0  0  0  0  0  0  0
   56.5171   24.7509   47.3272 H   0  0  0  0  0  0  0  0  0  0  0  0
   58.3895   24.4489   47.5089 H   0  0  0  0  0  0  0  0  0  0  0  0
   60.0090   26.2370   46.4110 H   0  0  0  0  0  0  0  0  0  0  0  0
   60.6169   29.0949   45.7493 H   0  0  0  0  0  0  0  0  0  0  0  0
   60.7028   28.0557   44.2866 H   0  0  0  0  0  0  0  0  0  0  0  0
   59.6659   29.5225   44.2866 H   0  0  0  0  0  0  0  0  0  0  0  0
   57.5279   31.7337   47.4019 H   0  0  0  0  0  0  0  0  0  0  0  0
   60.3022   34.2305   49.3085 H   0  0  0  0  0  0  0  0  0  0  0  0
   60.9274   33.4492   47.8167 H   0  0  0  0  0  0  0  0  0  0  0  0
   60.5382   35.2028   47.8167 H   0  0  0  0  0  0  0  0  0  0  0  0
   59.5058   35.0121   45.3918 H   0  0  0  0  0  0  0  0  0  0  0  0
   58.8674   34.0501   43.1878 H   0  0  0  0  0  0  0  0  0  0  0  0
   58.1297   33.3585   41.6760 H   0  0  0  0  0  0  0  0  0  0  0  0
   58.4592   31.7356   40.9801 H   0  0  0  0  0  0  0  0  0  0  0  0
   56.7864   32.3901   40.9801 H   0  0  0  0  0  0  0  0  0  0  0  0
  1  2  2  0
  2  3  1  0
  3  4  1  0
  4  5  1  0
  4  6  2  0
  6  7  1  0
  7  8  2  0
  7  9  1  0
  9 10  1  0
 10 11  2  0
 11 12  1  0
 12 13  1  0
 13 14  1  0
 12 15  2  0
 15 16  1  0
 16 17  2  0
 17 18  1  0
 18 19  1  0
  6 20  1  0
 20 21  2  0
 20  2  1  0
 17 10  1  0
  1 22  1  0
  1 23  1  0
  3 24  1  0
  5 25  1  0
  5 26  1  0
  5 27  1  0
 11 28  1  0
 14 29  1  0
 14 30  1  0
 14 31  1  0
 15 32  1  0
 16 33  1  0
 19 34  1  0
 19 35  1  0
 19 36  1  0
M  CHG  1   9  -1
M  END
>  <UniqueID>  (49) 
49

>  <SMILES>  (49) 
C=C1NC(C)=C(C(=O)[N-]c2cc(OC)ccc2OC)C1=O

>  <Energy>  (49) 
65.03822938183751

>  <Genealogy>  (49) 
C=C1NC(C)=C(C(=O)[N-]c2cc(OC)ccc2OC)C1=O (protonated)
C=C1NC(C)=C(C(=O)[N-]c2cc(OC)ccc2OC)C1=O (3D coordinates assigned)
C=C1NC(C)=C(C(=O)[N-]c2cc(OC)ccc2OC)C1=O (nonaromatic ring conformer: 65.03822938183751 kcal/mol)

>  <smiles>  (49) 
C=C1NC(C)=C(C(=O)Nc2cc(OC)ccc2OC)C1=O

>  <score_type>  (49) 
oracle

>  <origin>  (49) 
adg

>  <m_score__min__energy>  (49) 
-8.9100000000000001

>  <m_primary>  (49) 
energy

$$$$
49:0
     RDKit          3D

 63 67  0  0  0  0  0  0  0  0999 V2000
   51.9090   29.8100   49.7440 O   0  0  0  0  0  0  0  0  0  0  0  0
   52.3610   30.1330   50.8750 C   0  0  0  0  0  0  0  0  0  0  0  0
   53.4530   29.4100   51.4650 N   0  0  0  0  0  0  0  0  0  0  0  0
   54.5430   29.8810   52.0070 C   0  0  0  0  0  0  0  0  0  0  0  0
   55.4830   29.0670   52.6740 C   0  0  0  0  0  0  0  0  0  0  0  0
   56.6500   29.6400   53.2020 C   0  0  0  0  0  0  0  0  0  0  0  0
   57.6950   28.7710   53.8510 C   0  0  0  0  0  0  0  0  0  0  0  0
   59.0670   29.3170   53.5610 C   0  0  0  0  0  0  0  0  0  0  0  0
   59.8260   29.9090   54.5830 C   0  0  0  0  0  0  0  0  0  0  0  0
   61.0770   30.4630   54.2990 C   0  0  0  0  0  0  0  0  0  0  0  0
   61.5670   30.4560   52.9900 C   0  0  0  0  0  0  0  0  0  0  0  0
   60.8030   29.9000   51.9520 C   0  0  0  0  0  0  0  0  0  0  0  0
   61.3040   29.9280   50.5620 C   0  0  0  0  0  0  0  0  0  0  0  0
   62.5440   29.8240   50.3600 O   0  0  0  0  0  0  0  0  0  0  0  0
   60.4090   30.0990   49.4450 N   0  0  0  0  0  0  0  0  0  0  0  0
   60.7470   29.5480   48.1300 C   0  0  0  0  0  0  0  0  0  0  0  0
   60.7520   30.6860   47.1100 C   0  0  0  0  0  0  0  0  0  0  0  0
   59.4480   31.3920   47.0430 N   0  0  0  0  0  0  0  0  0  0  0  0
   59.5770   32.7840   46.5360 C   0  0  0  0  0  0  0  0  0  0  0  0
   58.6240   33.0380   45.3490 C   0  0  0  0  0  0  0  0  0  0  0  0
   58.3840   34.5440   45.1380 C   0  0  0  0  0  0  0  0  0  0  0  0
   59.4930   35.2940   45.5920 O   0  0  0  0  0  0  0  0  0  0  0  0
   59.5500   35.2820   47.0110 C   0  0  0  0  0  0  0  0  0  0  0  0
   59.3970   33.8670   47.6220 C   0  0  0  0  0  0  0  0  0  0  0  0
   58.5440   31.1960   48.2070 C   0  0  0  0  0  0  0  0  0  0  0  0
   59.2930   31.0520   49.5450 C   0  0  0  0  0  0  0  0  0  0  0  0
   59.5660   29.3100   52.2480 C   0  0  0  0  0  0  0  0  0  0  0  0
   56.8730   31.0130   53.0410 C   0  0  0  0  0  0  0  0  0  0  0  0
   55.9260   31.7880   52.3710 C   0  0  0  0  0  0  0  0  0  0  0  0
   54.8020   31.2100   51.8720 N   0  0  0  0  0  0  0  0  0  0  0  0
   51.7020   31.2080   51.6300 C   0  0  0  0  0  0  0  0  0  0  0  0
   51.5610   31.2030   52.9670 N   0  0  0  0  0  0  0  0  0  0  0  0
   50.8850   32.3450   53.2140 C   0  0  0  0  0  0  0  0  0  0  0  0
   50.5510   32.6980   54.3740 O   0  0  0  0  0  0  0  0  0  0  0  0
   50.5840   33.0740   52.1180 N   0  0  0  0  0  0  0  0  0  0  0  0
   51.1040   32.3400   51.1230 C   0  0  0  0  0  0  0  0  0  0  0  0
   51.0340   32.7000   49.7830 O   0  0  0  0  0  0  0  0  0  0  0  0
   55.3016   27.9872   52.7797 H   0  0  0  0  0  0  0  0  0  0  0  0
   57.5314   28.7544   54.9386 H   0  0  0  0  0  0  0  0  0  0  0  0
   57.6187   27.7503   53.4480 H   0  0  0  0  0  0  0  0  0  0  0  0
   59.4346   29.9368   55.6106 H   0  0  0  0  0  0  0  0  0  0  0  0
   61.6775   30.9056   55.1074 H   0  0  0  0  0  0  0  0  0  0  0  0
   62.5550   30.8878   52.7725 H   0  0  0  0  0  0  0  0  0  0  0  0
   61.7422   29.0810   48.1688 H   0  0  0  0  0  0  0  0  0  0  0  0
   60.0070   28.7875   47.8402 H   0  0  0  0  0  0  0  0  0  0  0  0
   61.5312   31.4094   47.3918 H   0  0  0  0  0  0  0  0  0  0  0  0
   60.9474   30.2480   46.1200 H   0  0  0  0  0  0  0  0  0  0  0  0
   60.6166   32.8729   46.1876 H   0  0  0  0  0  0  0  0  0  0  0  0
   59.0677   32.6143   44.4360 H   0  0  0  0  0  0  0  0  0  0  0  0
   57.6584   32.5597   45.5699 H   0  0  0  0  0  0  0  0  0  0  0  0
   58.2304   34.7387   44.0663 H   0  0  0  0  0  0  0  0  0  0  0  0
   57.4946   34.8446   45.7112 H   0  0  0  0  0  0  0  0  0  0  0  0
   60.5208   35.6937   47.3242 H   0  0  0  0  0  0  0  0  0  0  0  0
   58.7050   35.8852   47.3745 H   0  0  0  0  0  0  0  0  0  0  0  0
   60.1588   33.7261   48.4029 H   0  0  0  0  0  0  0  0  0  0  0  0
   58.3891   33.7736   48.0526 H   0  0  0  0  0  0  0  0  0  0  0  0
   57.8708   32.0632   48.2757 H   0  0  0  0  0  0  0  0  0  0  0  0
   57.9962   30.2571   48.0385 H   0  0  0  0  0  0  0  0  0  0  0  0
   59.6892   32.0351   49.8391 H   0  0  0  0  0  0  0  0  0  0  0  0
   58.5840   30.6717   50.2952 H   0  0  0  0  0  0  0  0  0  0  0  0
   58.9812   28.8375   51.4450 H   0  0  0  0  0  0  0  0  0  0  0  0
   57.7874   31.4767   53.4395 H   0  0  0  0  0  0  0  0  0  0  0  0
   56.0895   32.8686   52.2465 H   0  0  0  0  0  0  0  0  0  0  0  0
  1  2  2  0
  2  3  1  0
  3  4  2  3
  4  5  1  0
  5  6  2  0
  6  7  1  0
  7  8  1  0
  8  9  2  0
  9 10  1  0
 10 11  2  0
 11 12  1  0
 12 13  1  0
 13 14  2  0
 13 15  1  0
 15 16  1  0
 16 17  1  0
 17 18  1  0
 18 19  1  0
 19 20  1  0
 20 21  1  0
 21 22  1  0
 22 23  1  0
 23 24  1  0
 18 25  1  0
 25 26  1  0
 12 27  2  0
  6 28  1  0
 28 29  2  0
 29 30  1  0
  2 31  1  0
 31 32  1  0
 32 33  1  0
 33 34  2  0
 33 35  1  0
 35 36  1  0
 36 37  1  0
 30  4  1  0
 36 31  2  0
 27  8  1  0
 26 15  1  0
 24 19  1  0
  5 38  1  0
  7 39  1  0
  7 40  1  0
  9 41  1  0
 10 42  1  0
 11 43  1  0
 16 44  1  0
 16 45  1  0
 17 46  1  0
 17 47  1  0
 19 48  1  0
 20 49  1  0
 20 50  1  0
 21 51  1  0
 21 52  1  0
 23 53  1  0
 23 54  1  0
 24 55  1  0
 24 56  1  0
 25 57  1  0
 25 58  1  0
 26 59  1  0
 26 60  1  0
 27 61  1  0
 28 62  1  0
 29 63  1  0
M  CHG  4  30  -1  32  -1  35  -1  37  -1
M  END
>  <UniqueID>  (50) 
50

>  <SMILES>  (50) 
O=C(N=c1cc(Cc2cccc(C(=O)N3CCN(C4CCOCC4)CC3)c2)cc[n-]1)c1[n-]c(=O)[n-]c1[O-]

>  <Energy>  (50) 
123.04648456867167

>  <Genealogy>  (50) 
O=C(N=c1cc(Cc2cccc(C(=O)N3CCN(C4CCOCC4)CC3)c2)cc[n-]1)c1[n-]c(=O)[n-]c1[O-] (protonated)
O=C(N=c1cc(Cc2cccc(C(=O)N3CCN(C4CCOCC4)CC3)c2)cc[n-]1)c1[n-]c(=O)[n-]c1[O-] (3D coordinates assigned)
O=C(N=c1cc(Cc2cccc(C(=O)N3CCN(C4CCOCC4)CC3)c2)cc[n-]1)c1[n-]c(=O)[n-]c1[O-] (nonaromatic ring conformer: 123.04648456867167 kcal/mol)

>  <smiles>  (50) 
O=C(N=c1cc(Cc2cccc(C(=O)N3CCN(C4CCOCC4)CC3)c2)cc[nH]1)c1[nH]c(=O)[nH]c1O

>  <score_type>  (50) 
oracle

>  <origin>  (50) 
adg

>  <m_score__min__energy>  (50) 
-20.109999999999999

>  <m_primary>  (50) 
energy

$$$$
50:0
     RDKit          3D

 50 53  0  0  0  0  0  0  0  0999 V2000
   54.7710   27.0650   45.1450 H   0  0  0  0  0  0  0  0  0  0  0  0
   54.9020   26.7050   46.0830 O   0  0  0  0  0  0  0  0  0  0  0  0
   55.9990   25.9060   46.3880 C   0  0  0  0  0  0  0  0  0  0  0  0
   55.9720   24.5630   46.3670 N   0  0  0  0  0  0  0  0  0  0  0  0
   57.2510   24.2370   46.6540 C   0  0  0  0  0  0  0  0  0  0  0  0
   57.6460   23.0430   46.7250 O   0  0  0  0  0  0  0  0  0  0  0  0
   58.0740   25.2890   46.8490 N   0  0  0  0  0  0  0  0  0  0  0  0
   57.2640   26.3510   46.7020 C   0  0  0  0  0  0  0  0  0  0  0  0
   57.7420   27.7450   46.7520 C   0  0  0  0  0  0  0  0  0  0  0  0
   58.3503   28.0481   47.6169 H   0  0  0  0  0  0  0  0  0  0  0  0
   57.4850   28.6680   45.8140 C   0  0  0  0  0  0  0  0  0  0  0  0
   57.9610   29.9710   45.7720 C   0  0  0  0  0  0  0  0  0  0  0  0
   58.6014   30.4635   46.5185 H   0  0  0  0  0  0  0  0  0  0  0  0
   57.4700   30.5270   44.6050 C   0  0  0  0  0  0  0  0  0  0  0  0
   57.7410   31.9050   44.1460 C   0  0  0  0  0  0  0  0  0  0  0  0
   57.5400   32.1830   42.9320 O   0  0  0  0  0  0  0  0  0  0  0  0
   58.2010   32.9320   45.0470 N   0  0  0  0  0  0  0  0  0  0  0  0
   57.6830   33.0170   46.4180 C   0  0  0  0  0  0  0  0  0  0  0  0
   56.8661   33.7530   46.4510 H   0  0  0  0  0  0  0  0  0  0  0  0
   57.3141   32.0257   46.7201 H   0  0  0  0  0  0  0  0  0  0  0  0
   58.7950   33.4510   47.3910 C   0  0  0  0  0  0  0  0  0  0  0  0
   58.3202   33.8710   48.2900 H   0  0  0  0  0  0  0  0  0  0  0  0
   59.3949   32.5532   47.6008 H   0  0  0  0  0  0  0  0  0  0  0  0
   59.7340   34.4690   46.8420 N   0  0  0  0  0  0  0  0  0  0  0  0
   61.1120   33.9550   46.6980 C   0  0  0  0  0  0  0  0  0  0  0  0
   61.2512   33.5759   45.6748 H   0  0  0  0  0  0  0  0  0  0  0  0
   61.8184   34.7736   46.9003 H   0  0  0  0  0  0  0  0  0  0  0  0
   61.3680   32.8400   47.6780 C   0  0  0  0  0  0  0  0  0  0  0  0
   61.7980   33.1210   48.9870 C   0  0  0  0  0  0  0  0  0  0  0  0
   61.9413   34.1641   49.3055 H   0  0  0  0  0  0  0  0  0  0  0  0
   62.0440   32.0770   49.8850 C   0  0  0  0  0  0  0  0  0  0  0  0
   62.3806   32.3007   50.9081 H   0  0  0  0  0  0  0  0  0  0  0  0
   61.8630   30.7510   49.4850 C   0  0  0  0  0  0  0  0  0  0  0  0
   62.0567   29.9318   50.1930 H   0  0  0  0  0  0  0  0  0  0  0  0
   61.4360   30.4650   48.1860 C   0  0  0  0  0  0  0  0  0  0  0  0
   61.2931   29.4203   47.8725 H   0  0  0  0  0  0  0  0  0  0  0  0
   61.1900   31.5040   47.2840 C   0  0  0  0  0  0  0  0  0  0  0  0
   60.8557   31.2742   46.2615 H   0  0  0  0  0  0  0  0  0  0  0  0
   59.2530   35.1070   45.5980 C   0  0  0  0  0  0  0  0  0  0  0  0
   58.3317   35.6667   45.8170 H   0  0  0  0  0  0  0  0  0  0  0  0
   60.0421   35.7784   45.2283 H   0  0  0  0  0  0  0  0  0  0  0  0
   58.9570   34.0670   44.5070 C   0  0  0  0  0  0  0  0  0  0  0  0
   58.3688   34.5424   43.7083 H   0  0  0  0  0  0  0  0  0  0  0  0
   59.9138   33.6927   44.1139 H   0  0  0  0  0  0  0  0  0  0  0  0
   56.6980   29.5460   43.9950 C   0  0  0  0  0  0  0  0  0  0  0  0
   55.9740   29.6780   42.8820 C   0  0  0  0  0  0  0  0  0  0  0  0
   55.9881   30.6270   42.3260 H   0  0  0  0  0  0  0  0  0  0  0  0
   55.3630   28.8378   42.5204 H   0  0  0  0  0  0  0  0  0  0  0  0
   56.7280   28.4140   44.7250 N   0  0  0  0  0  0  0  0  0  0  0  0
   56.2370   27.5170   44.5030 H   0  0  0  0  0  0  0  0  0  0  0  0
  1  2  1  0
  2  3  1  0
  3  4  1  0
  4  5  1  0
  5  6  2  0
  5  7  1  0
  7  8  1  0
  8  9  1  0
  9 10  1  0
  9 11  2  0
 11 12  1  0
 12 13  1  0
 12 14  2  0
 14 15  1  0
 15 16  2  0
 15 17  1  0
 17 18  1  0
 18 19  1  0
 18 20  1  0
 18 21  1  0
 21 22  1  0
 21 23  1  0
 21 24  1  0
 24 25  1  0
 25 26  1  0
 25 27  1  0
 25 28  1  0
 28 29  2  0
 29 30  1  0
 29 31  1  0
 31 32  1  0
 31 33  2  0
 33 34  1  0
 33 35  1  0
 35 36  1  0
 35 37  2  0
 37 38  1  0
 24 39  1  0
 39 40  1  0
 39 41  1  0
 39 42  1  0
 42 43  1  0
 42 44  1  0
 14 45  1  0
 45 46  2  0
 46 47  1  0
 46 48  1  0
 45 49  1  0
 49 50  1  0
  8  3  2  0
 49 11  1  0
 42 17  1  0
 37 28  1  0
M  CHG  2   4  -1   7  -1
M  END
>  <UniqueID>  (51) 
51

>  <SMILES>  (51) 
C=c1[nH]/c(=C/c2[n-]c(=O)[n-]c2O)cc1C(=O)N1CCN(Cc2ccccc2)CC1

>  <Energy>  (51) 
126.18951195806882

>  <Genealogy>  (51) 
C=c1[nH]c(=Cc2[n-]c(=O)[n-]c2O)cc1C(=O)N1CCN(Cc2ccccc2)CC1 (protonated)
C=c1[nH]/c(=C/c2[n-]c(=O)[n-]c2O)cc1C(=O)N1CCN(Cc2ccccc2)CC1 (cis-trans isomerization)
C=c1[nH]/c(=C/c2[n-]c(=O)[n-]c2O)cc1C(=O)N1CCN(Cc2ccccc2)CC1 (3D coordinates assigned)
C=c1[nH]/c(=C/c2[n-]c(=O)[n-]c2O)cc1C(=O)N1CCN(Cc2ccccc2)CC1 (nonaromatic ring conformer: 126.18951195806882 kcal/mol)

>  <smiles>  (51) 
C=c1[nH]c(=Cc2[nH]c(=O)[nH]c2O)cc1C(=O)N1CCN(Cc2ccccc2)CC1

>  <score_type>  (51) 
oracle

>  <origin>  (51) 
adg

>  <m_score__min__energy>  (51) 
-15.050000000000001

>  <m_primary>  (51) 
energy

$$$$
51:0
     RDKit          3D

 54 57  0  0  0  0  0  0  0  0999 V2000
   56.2860   29.4130   42.3130 C   0  0  0  0  0  0  0  0  0  0  0  0
   57.0780   30.4940   42.8880 N   0  0  0  0  0  0  0  0  0  0  0  0
   56.9860   30.8350   44.2800 C   0  0  0  0  0  0  0  0  0  0  0  0
   56.3100   30.1030   45.0540 O   0  0  0  0  0  0  0  0  0  0  0  0
   57.6850   32.0230   44.8280 C   0  0  0  0  0  0  0  0  0  0  0  0
   57.3930   33.3180   44.3630 C   0  0  0  0  0  0  0  0  0  0  0  0
   58.0490   34.4280   44.9000 C   0  0  0  0  0  0  0  0  0  0  0  0
   59.0010   34.2620   45.9080 C   0  0  0  0  0  0  0  0  0  0  0  0
   59.3070   32.9800   46.3860 C   0  0  0  0  0  0  0  0  0  0  0  0
   60.2950   32.8010   47.5060 C   0  0  0  0  0  0  0  0  0  0  0  0
   60.0600   31.4880   48.1910 C   0  0  0  0  0  0  0  0  0  0  0  0
   60.2630   30.2320   47.6320 C   0  0  0  0  0  0  0  0  0  0  0  0
   59.8240   29.3010   48.5700 C   0  0  0  0  0  0  0  0  0  0  0  0
   59.8020   27.8400   48.3880 C   0  0  0  0  0  0  0  0  0  0  0  0
   60.4070   27.1120   49.2190 O   0  0  0  0  0  0  0  0  0  0  0  0
   59.0910   27.2360   47.2960 N   0  0  0  0  0  0  0  0  0  0  0  0
   59.5210   27.3320   45.9100 C   0  0  0  0  0  0  0  0  0  0  0  0
   58.4790   26.5670   45.1060 C   0  0  0  0  0  0  0  0  0  0  0  0
   57.2400   26.4790   46.0040 C   0  0  2  0  0  0  0  0  0  0  0  0
   56.2680   27.5100   45.6290 N   0  0  0  0  0  0  0  0  0  0  0  0
   57.7540   26.6830   47.4350 C   0  0  0  0  0  0  0  0  0  0  0  0
   59.3340   30.0330   49.6400 C   0  0  0  0  0  0  0  0  0  0  0  0
   58.6820   29.6080   50.7970 C   0  0  0  0  0  0  0  0  0  0  0  0
   58.2420   30.5920   51.6900 C   0  0  0  0  0  0  0  0  0  0  0  0
   58.4400   31.9550   51.3860 C   0  0  0  0  0  0  0  0  0  0  0  0
   57.9800   33.0200   52.3290 C   0  0  0  0  0  0  0  0  0  0  0  0
   59.0660   32.2990   50.2240 N   0  0  0  0  0  0  0  0  0  0  0  0
   59.4890   31.3420   49.3980 N   0  0  0  0  0  0  0  0  0  0  0  0
   58.6370   31.8660   45.8510 C   0  0  0  0  0  0  0  0  0  0  0  0
   55.8452   28.8113   43.1215 H   0  0  0  0  0  0  0  0  0  0  0  0
   55.4832   29.8369   41.6919 H   0  0  0  0  0  0  0  0  0  0  0  0
   56.9322   28.7753   41.6919 H   0  0  0  0  0  0  0  0  0  0  0  0
   57.7580   30.9880   42.2680 H   0  0  0  0  0  0  0  0  0  0  0  0
   56.6427   33.4575   43.5708 H   0  0  0  0  0  0  0  0  0  0  0  0
   57.8149   35.4363   44.5277 H   0  0  0  0  0  0  0  0  0  0  0  0
   59.5127   35.1402   46.3285 H   0  0  0  0  0  0  0  0  0  0  0  0
   61.3163   32.8215   47.0978 H   0  0  0  0  0  0  0  0  0  0  0  0
   60.1681   33.6161   48.2336 H   0  0  0  0  0  0  0  0  0  0  0  0
   60.6880   30.0152   46.6408 H   0  0  0  0  0  0  0  0  0  0  0  0
   59.5565   28.3840   45.5906 H   0  0  0  0  0  0  0  0  0  0  0  0
   60.5304   26.9190   45.7667 H   0  0  0  0  0  0  0  0  0  0  0  0
   58.2411   27.1055   44.1768 H   0  0  0  0  0  0  0  0  0  0  0  0
   58.8421   25.5693   44.8185 H   0  0  0  0  0  0  0  0  0  0  0  0
   56.7214   25.5139   45.9057 H   0  0  0  0  0  0  0  0  0  0  0  0
   56.4890   27.8660   44.6700 H   0  0  0  0  0  0  0  0  0  0  0  0
   56.3640   28.3130   46.2920 H   0  0  0  0  0  0  0  0  0  0  0  0
   57.1039   27.3831   47.9802 H   0  0  0  0  0  0  0  0  0  0  0  0
   57.7606   25.7409   48.0028 H   0  0  0  0  0  0  0  0  0  0  0  0
   58.5195   28.5392   51.0004 H   0  0  0  0  0  0  0  0  0  0  0  0
   57.7430   30.3030   52.6267 H   0  0  0  0  0  0  0  0  0  0  0  0
   58.1266   32.6807   53.3650 H   0  0  0  0  0  0  0  0  0  0  0  0
   58.5620   33.9376   52.1579 H   0  0  0  0  0  0  0  0  0  0  0  0
   56.9130   33.2253   52.1579 H   0  0  0  0  0  0  0  0  0  0  0  0
   58.8599   30.8603   46.2369 H   0  0  0  0  0  0  0  0  0  0  0  0
  1  2  1  0
  2  3  1  0
  3  4  2  0
  3  5  1  0
  5  6  2  0
  6  7  1  0
  7  8  2  0
  8  9  1  0
  9 10  1  0
 10 11  1  0
 11 12  2  0
 12 13  1  0
 13 14  1  0
 14 15  2  0
 14 16  1  0
 16 17  1  0
 17 18  1  0
 18 19  1  0
 19 20  1  0
 19 21  1  0
 13 22  2  0
 22 23  1  0
 23 24  2  0
 24 25  1  0
 25 26  1  0
 25 27  2  0
 27 28  1  0
  9 29  2  0
 29  5  1  0
 28 11  1  0
 21 16  1  0
 28 22  1  0
  1 30  1  0
  1 31  1  0
  1 32  1  0
  2 33  1  0
  6 34  1  0
  7 35  1  0
  8 36  1  0
 10 37  1  0
 10 38  1  0
 12 39  1  0
 17 40  1  0
 17 41  1  0
 18 42  1  0
 18 43  1  0
 19 44  1  1
 20 45  1  0
 20 46  1  0
 21 47  1  0
 21 48  1  0
 23 49  1  0
 24 50  1  0
 26 51  1  0
 26 52  1  0
 26 53  1  0
 29 54  1  0
M  END
>  <UniqueID>  (52) 
52

>  <SMILES>  (52) 
CNC(=O)c1cccc(Cc2cc(C(=O)N3CC[C@H](N)C3)c3ccc(C)nn23)c1

>  <Energy>  (52) 
90.34427865359318

>  <Genealogy>  (52) 
CNC(=O)c1cccc(Cc2cc(C(=O)N3CC[C@H](N)C3)c3ccc(C)nn23)c1 (chirality)
CNC(=O)c1cccc(Cc2cc(C(=O)N3CC[C@H](N)C3)c3ccc(C)nn23)c1 (3D coordinates assigned)
CNC(=O)c1cccc(Cc2cc(C(=O)N3CC[C@H](N)C3)c3ccc(C)nn23)c1 (nonaromatic ring conformer: 90.34427865359318 kcal/mol)

>  <smiles>  (52) 
CNC(=O)c1cccc(Cc2cc(C(=O)N3CCC(N)C3)c3ccc(C)nn23)c1

>  <score_type>  (52) 
oracle

>  <origin>  (52) 
adg

>  <m_score__min__energy>  (52) 
-9.4100000000000001

>  <m_primary>  (52) 
energy

$$$$
52:0
     RDKit          3D

 22 23  0  0  0  0  0  0  0  0999 V2000
   54.4050   26.3220   46.0000 O   0  0  0  0  0  0  0  0  0  0  0  0
   55.4300   25.4960   45.5550 C   0  0  0  0  0  0  0  0  0  0  0  0
   55.1800   24.3890   44.8090 N   0  0  0  0  0  0  0  0  0  0  0  0
   56.3220   23.7410   44.4980 C   0  0  0  0  0  0  0  0  0  0  0  0
   56.3630   22.3690   43.6150 S   0  0  0  0  0  0  0  0  0  0  0  0
   57.6810   24.5010   45.1310 S   0  0  0  0  0  0  0  0  0  0  0  0
   56.7740   25.7360   45.8320 C   0  0  0  0  0  0  0  0  0  0  0  0
   57.3320   26.8430   46.6740 C   0  0  0  0  0  0  0  0  0  0  0  0
   57.8090   27.9740   45.7980 C   0  0  0  0  0  0  0  0  0  0  0  0
   59.1870   28.2280   45.6840 C   0  0  0  0  0  0  0  0  0  0  0  0
   59.6480   29.2920   44.9040 C   0  0  0  0  0  0  0  0  0  0  0  0
   58.7400   30.1160   44.2370 C   0  0  0  0  0  0  0  0  0  0  0  0
   57.3680   29.8820   44.3520 C   0  0  0  0  0  0  0  0  0  0  0  0
   56.8950   28.8170   45.1330 C   0  0  0  0  0  0  0  0  0  0  0  0
   55.5220   28.5950   45.2480 O   0  0  0  0  0  0  0  0  0  0  0  0
   56.5491   27.2138   47.3519 H   0  0  0  0  0  0  0  0  0  0  0  0
   58.1816   26.4574   47.2566 H   0  0  0  0  0  0  0  0  0  0  0  0
   59.9068   27.5853   46.2120 H   0  0  0  0  0  0  0  0  0  0  0  0
   60.7281   29.4804   44.8155 H   0  0  0  0  0  0  0  0  0  0  0  0
   59.1054   30.9504   43.6203 H   0  0  0  0  0  0  0  0  0  0  0  0
   56.6552   30.5356   43.8279 H   0  0  0  0  0  0  0  0  0  0  0  0
   55.1460   27.6650   45.3940 H   0  0  0  0  0  0  0  0  0  0  0  0
  1  2  1  0
  2  3  1  0
  3  4  1  0
  4  5  2  0
  4  6  1  0
  6  7  1  0
  7  8  1  0
  8  9  1  0
  9 10  2  0
 10 11  1  0
 11 12  2  0
 12 13  1  0
 13 14  2  0
 14 15  1  0
  7  2  2  0
 14  9  1  0
  8 16  1  0
  8 17  1  0
 10 18  1  0
 11 19  1  0
 12 20  1  0
 13 21  1  0
 15 22  1  0
M  CHG  2   1  -1   3  -1
M  END
>  <UniqueID>  (53) 
53

>  <SMILES>  (53) 
[O-]c1[n-]c(=S)sc1Cc1ccccc1O

>  <Energy>  (53) 
51.60706036487972

>  <Genealogy>  (53) 
[O-]c1[n-]c(=S)sc1Cc1ccccc1O (protonated)
[O-]c1[n-]c(=S)sc1Cc1ccccc1O (3D coordinates assigned)
[O-]c1[n-]c(=S)sc1Cc1ccccc1O (optimized conformer: 51.60706036487972 kcal/mol)

>  <smiles>  (53) 
Oc1ccccc1Cc1sc(=S)[nH]c1O

>  <score_type>  (53) 
oracle

>  <origin>  (53) 
adg

>  <m_score__min__energy>  (53) 
-12.56

>  <m_primary>  (53) 
energy

$$$$
53:0
     RDKit          3D

 61 63  0  0  0  0  0  0  0  0999 V2000
   63.7520   34.4220   51.3160 C   0  0  0  0  0  0  0  0  0  0  0  0
   62.7590   34.9590   50.4460 O   0  0  0  0  0  0  0  0  0  0  0  0
   61.9890   34.1940   49.5570 C   0  0  0  0  0  0  0  0  0  0  0  0
   62.5670   33.4240   48.5300 C   0  0  0  0  0  0  0  0  0  0  0  0
   61.7560   32.6830   47.6640 C   0  0  0  0  0  0  0  0  0  0  0  0
   60.3590   32.7080   47.8030 C   0  0  0  0  0  0  0  0  0  0  0  0
   59.5000   31.9330   46.8760 C   0  0  0  0  0  0  0  0  0  0  0  0
   59.1810   32.4950   45.6300 C   0  0  0  0  0  0  0  0  0  0  0  0
   58.3070   31.8450   44.7570 C   0  0  0  0  0  0  0  0  0  0  0  0
   57.7290   30.6250   45.1200 C   0  0  0  0  0  0  0  0  0  0  0  0
   56.6330   29.8050   44.0120 S   0  0  0  0  0  0  0  0  0  0  0  0
   57.4090   28.3990   43.3720 N   0  0  0  0  0  0  0  0  0  0  0  0
   56.2580   30.7310   42.8890 O   0  0  0  0  0  0  0  0  0  0  0  0
   55.3830   29.3990   44.7400 O   0  0  0  0  0  0  0  0  0  0  0  0
   58.0520   30.0420   46.3510 C   0  0  0  0  0  0  0  0  0  0  0  0
   58.9460   30.6740   47.2340 C   0  0  0  0  0  0  0  0  0  0  0  0
   59.3120   29.9810   48.4900 C   0  0  0  0  0  0  0  0  0  0  0  0
   60.2880   29.1860   48.5040 O   0  0  0  0  0  0  0  0  0  0  0  0
   58.5770   30.2340   49.6890 N   0  0  0  0  0  0  0  0  0  0  0  0
   59.3290   30.4090   51.2380 S   0  0  0  0  0  0  0  0  0  0  0  0
   59.6370   29.0410   51.7810 O   0  0  0  0  0  0  0  0  0  0  0  0
   60.6120   31.1760   51.0850 O   0  0  0  0  0  0  0  0  0  0  0  0
   58.2300   31.2580   52.3580 C   0  0  0  0  0  0  0  0  0  0  0  0
   56.9650   31.7220   51.6340 C   0  0  0  0  0  0  0  0  0  0  0  0
   55.7900   30.8670   52.0230 C   0  0  0  0  0  0  0  0  0  0  0  0
   55.9570   29.7980   52.9130 C   0  0  0  0  0  0  0  0  0  0  0  0
   54.8640   29.0220   53.2980 C   0  0  0  0  0  0  0  0  0  0  0  0
   53.5760   29.3070   52.8050 C   0  0  0  0  0  0  0  0  0  0  0  0
   52.4580   28.5380   53.1660 O   0  0  0  0  0  0  0  0  0  0  0  0
   52.4940   27.4250   54.0530 C   0  0  0  0  0  0  0  0  0  0  0  0
   53.4030   30.3910   51.9260 C   0  0  0  0  0  0  0  0  0  0  0  0
   51.7980   30.7690   51.2940 S   0  0  0  0  0  0  0  0  0  0  0  0
   51.6520   32.4800   51.0920 N   0  0  0  0  0  0  0  0  0  0  0  0
   50.7320   30.2970   52.2420 O   0  0  0  0  0  0  0  0  0  0  0  0
   51.6060   30.0880   49.9710 O   0  0  0  0  0  0  0  0  0  0  0  0
   54.5060   31.1680   51.5450 C   0  0  0  0  0  0  0  0  0  0  0  0
   59.7880   33.4580   48.8400 C   0  0  0  0  0  0  0  0  0  0  0  0
   60.5970   34.2000   49.7050 C   0  0  0  0  0  0  0  0  0  0  0  0
   63.4506   34.5850   52.3613 H   0  0  0  0  0  0  0  0  0  0  0  0
   63.8587   33.3433   51.1291 H   0  0  0  0  0  0  0  0  0  0  0  0
   64.7131   34.9233   51.1291 H   0  0  0  0  0  0  0  0  0  0  0  0
   63.6601   33.4050   48.4081 H   0  0  0  0  0  0  0  0  0  0  0  0
   62.2155   32.0770   46.8692 H   0  0  0  0  0  0  0  0  0  0  0  0
   59.6247   33.4583   45.3382 H   0  0  0  0  0  0  0  0  0  0  0  0
   58.0724   32.2940   43.7806 H   0  0  0  0  0  0  0  0  0  0  0  0
   56.6810   27.8540   42.8610 H   0  0  0  0  0  0  0  0  0  0  0  0
   58.0970   28.7260   42.6610 H   0  0  0  0  0  0  0  0  0  0  0  0
   57.6014   29.0784   46.6310 H   0  0  0  0  0  0  0  0  0  0  0  0
   57.9485   30.5752   53.1732 H   0  0  0  0  0  0  0  0  0  0  0  0
   58.7496   32.1409   52.7587 H   0  0  0  0  0  0  0  0  0  0  0  0
   56.7566   32.7678   51.9041 H   0  0  0  0  0  0  0  0  0  0  0  0
   57.1243   31.6343   50.5491 H   0  0  0  0  0  0  0  0  0  0  0  0
   56.9567   29.5692   53.3107 H   0  0  0  0  0  0  0  0  0  0  0  0
   55.0091   28.1810   53.9920 H   0  0  0  0  0  0  0  0  0  0  0  0
   52.4824   27.7842   55.0927 H   0  0  0  0  0  0  0  0  0  0  0  0
   51.6160   26.7864   53.8758 H   0  0  0  0  0  0  0  0  0  0  0  0
   53.4114   26.8445   53.8758 H   0  0  0  0  0  0  0  0  0  0  0  0
   50.6490   32.7220   51.2570 H   0  0  0  0  0  0  0  0  0  0  0  0
   54.3633   32.0211   50.8653 H   0  0  0  0  0  0  0  0  0  0  0  0
   58.6962   33.4627   48.9740 H   0  0  0  0  0  0  0  0  0  0  0  0
   60.1363   34.7934   50.5085 H   0  0  0  0  0  0  0  0  0  0  0  0
  1  2  1  0
  2  3  1  0
  3  4  2  0
  4  5  1  0
  5  6  2  0
  6  7  1  0
  7  8  2  0
  8  9  1  0
  9 10  2  0
 10 11  1  0
 11 12  1  0
 11 13  2  0
 11 14  2  0
 10 15  1  0
 15 16  2  0
 16 17  1  0
 17 18  2  0
 17 19  1  0
 19 20  1  0
 20 21  2  0
 20 22  2  0
 20 23  1  0
 23 24  1  0
 24 25  1  0
 25 26  2  0
 26 27  1  0
 27 28  2  0
 28 29  1  0
 29 30  1  0
 28 31  1  0
 31 32  1  0
 32 33  1  0
 32 34  2  0
 32 35  2  0
 31 36  2  0
  6 37  1  0
 37 38  2  0
 38  3  1  0
 16  7  1  0
 36 25  1  0
  1 39  1  0
  1 40  1  0
  1 41  1  0
  4 42  1  0
  5 43  1  0
  8 44  1  0
  9 45  1  0
 12 46  1  0
 12 47  1  0
 15 48  1  0
 23 49  1  0
 23 50  1  0
 24 51  1  0
 24 52  1  0
 26 53  1  0
 27 54  1  0
 30 55  1  0
 30 56  1  0
 30 57  1  0
 33 58  1  0
 36 59  1  0
 37 60  1  0
 38 61  1  0
M  CHG  2  19  -1  33  -1
M  END
>  <UniqueID>  (54) 
54

>  <SMILES>  (54) 
COc1ccc(-c2ccc(S(N)(=O)=O)cc2C(=O)[N-]S(=O)(=O)CCc2ccc(OC)c(S([NH-])(=O)=O)c2)cc1

>  <Energy>  (54) 
65.90178562920677

>  <Genealogy>  (54) 
COc1ccc(-c2ccc(S(N)(=O)=O)cc2C(=O)[N-]S(=O)(=O)CCc2ccc(OC)c(S([NH-])(=O)=O)c2)cc1 (protonated)
COc1ccc(-c2ccc(S(N)(=O)=O)cc2C(=O)[N-]S(=O)(=O)CCc2ccc(OC)c(S([NH-])(=O)=O)c2)cc1 (3D coordinates assigned)
COc1ccc(-c2ccc(S(N)(=O)=O)cc2C(=O)[N-]S(=O)(=O)CCc2ccc(OC)c(S([NH-])(=O)=O)c2)cc1 (optimized conformer: 65.90178562920677 kcal/mol)

>  <smiles>  (54) 
COc1ccc(-c2ccc(S(N)(=O)=O)cc2C(=O)NS(=O)(=O)CCc2ccc(OC)c(S(N)(=O)=O)c2)cc1

>  <score_type>  (54) 
oracle

>  <origin>  (54) 
adg

>  <m_score__min__energy>  (54) 
-14.050000000000001

>  <m_primary>  (54) 
energy

$$$$
54:0
     RDKit          3D

 48 50  0  0  0  0  0  0  0  0999 V2000
   58.1310   29.7000   49.8000 O   0  0  0  0  0  0  0  0  0  0  0  0
   59.1030   30.1170   49.1170 C   0  0  0  0  0  0  0  0  0  0  0  0
   59.7000   31.3720   49.4630 N   0  0  0  0  0  0  0  0  0  0  0  0
   60.9310   31.8810   48.9330 C   0  0  0  0  0  0  0  0  0  0  0  0
   62.1690   31.2960   49.2560 C   0  0  0  0  0  0  0  0  0  0  0  0
   63.3550   31.8290   48.7410 C   0  0  0  0  0  0  0  0  0  0  0  0
   63.3180   32.9570   47.9160 C   0  0  0  0  0  0  0  0  0  0  0  0
   64.5070   33.4760   47.4080 O   0  0  0  0  0  0  0  0  0  0  0  0
   62.0880   33.5560   47.6100 C   0  0  0  0  0  0  0  0  0  0  0  0
   60.9010   33.0240   48.1250 C   0  0  0  0  0  0  0  0  0  0  0  0
   59.5480   29.3670   47.9710 N   0  0  0  0  0  0  0  0  0  0  0  0
   59.9730   30.0710   46.7500 C   0  0  0  0  0  0  0  0  0  0  0  0
   59.7500   29.2030   45.5010 C   0  0  0  0  0  0  0  0  0  0  0  0
   58.4280   28.4140   45.6140 C   0  0  0  0  0  0  0  0  0  0  0  0
   57.2780   29.3160   45.7780 N   0  0  0  0  0  0  0  0  0  0  0  0
   56.8220   30.1290   44.3020 S   0  0  0  0  0  0  0  0  0  0  0  0
   56.6340   29.0870   43.2360 O   0  0  0  0  0  0  0  0  0  0  0  0
   55.5160   30.8430   44.5080 O   0  0  0  0  0  0  0  0  0  0  0  0
   58.0590   31.2970   43.7470 C   0  0  0  0  0  0  0  0  0  0  0  0
   58.1810   32.4330   44.7230 C   0  0  0  0  0  0  0  0  0  0  0  0
   57.6720   32.3080   46.0270 C   0  0  0  0  0  0  0  0  0  0  0  0
   57.8150   33.3550   46.9430 C   0  0  0  0  0  0  0  0  0  0  0  0
   58.4740   34.5290   46.5670 C   0  0  0  0  0  0  0  0  0  0  0  0
   58.9930   34.6570   45.2760 C   0  0  0  0  0  0  0  0  0  0  0  0
   58.8530   33.6120   44.3570 C   0  0  0  0  0  0  0  0  0  0  0  0
   58.4760   27.4460   46.8220 C   0  0  0  0  0  0  0  0  0  0  0  0
   59.4260   27.9030   47.9470 C   0  0  0  0  0  0  0  0  0  0  0  0
   62.2043   30.4165   49.9158 H   0  0  0  0  0  0  0  0  0  0  0  0
   64.3192   31.3595   48.9857 H   0  0  0  0  0  0  0  0  0  0  0  0
   65.1090   32.9290   46.8030 H   0  0  0  0  0  0  0  0  0  0  0  0
   62.0561   34.4457   46.9639 H   0  0  0  0  0  0  0  0  0  0  0  0
   59.9396   33.5060   47.8940 H   0  0  0  0  0  0  0  0  0  0  0  0
   59.3913   30.9992   46.6503 H   0  0  0  0  0  0  0  0  0  0  0  0
   61.0472   30.2931   46.8323 H   0  0  0  0  0  0  0  0  0  0  0  0
   59.7089   29.8513   44.6133 H   0  0  0  0  0  0  0  0  0  0  0  0
   60.5819   28.4887   45.4135 H   0  0  0  0  0  0  0  0  0  0  0  0
   58.3077   27.8444   44.6807 H   0  0  0  0  0  0  0  0  0  0  0  0
   59.0291   30.7853   43.6631 H   0  0  0  0  0  0  0  0  0  0  0  0
   57.7577   31.6981   42.7680 H   0  0  0  0  0  0  0  0  0  0  0  0
   57.1590   31.3828   46.3284 H   0  0  0  0  0  0  0  0  0  0  0  0
   57.4086   33.2546   47.9602 H   0  0  0  0  0  0  0  0  0  0  0  0
   58.5841   35.3526   47.2879 H   0  0  0  0  0  0  0  0  0  0  0  0
   59.5124   35.5810   44.9820 H   0  0  0  0  0  0  0  0  0  0  0  0
   59.2703   33.7132   43.3443 H   0  0  0  0  0  0  0  0  0  0  0  0
   57.4614   27.3599   47.2382 H   0  0  0  0  0  0  0  0  0  0  0  0
   58.8601   26.4854   46.4482 H   0  0  0  0  0  0  0  0  0  0  0  0
   59.0301   27.5591   48.9140 H   0  0  0  0  0  0  0  0  0  0  0  0
   60.4208   27.4715   47.7624 H   0  0  0  0  0  0  0  0  0  0  0  0
  1  2  2  0
  2  3  1  0
  3  4  1  0
  4  5  2  0
  5  6  1  0
  6  7  2  0
  7  8  1  0
  7  9  1  0
  9 10  2  0
  2 11  1  0
 11 12  1  0
 12 13  1  0
 13 14  1  0
 14 15  1  0
 15 16  1  0
 16 17  2  0
 16 18  2  0
 16 19  1  0
 19 20  1  0
 20 21  2  0
 21 22  1  0
 22 23  2  0
 23 24  1  0
 24 25  2  0
 14 26  1  0
 26 27  1  0
 10  4  1  0
 27 11  1  0
 25 20  1  0
  5 28  1  0
  6 29  1  0
  8 30  1  0
  9 31  1  0
 10 32  1  0
 12 33  1  0
 12 34  1  0
 13 35  1  0
 13 36  1  0
 14 37  1  0
 19 38  1  0
 19 39  1  0
 21 40  1  0
 22 41  1  0
 23 42  1  0
 24 43  1  0
 25 44  1  0
 26 45  1  0
 26 46  1  0
 27 47  1  0
 27 48  1  0
M  CHG  2   3  -1  15  -1
M  END
>  <UniqueID>  (55) 
55

>  <SMILES>  (55) 
O=C([N-]c1ccc(O)cc1)N1CCC([N-]S(=O)(=O)Cc2ccccc2)CC1

>  <Energy>  (55) 
53.52939591195773

>  <Genealogy>  (55) 
O=C([N-]c1ccc(O)cc1)N1CCC([N-]S(=O)(=O)Cc2ccccc2)CC1 (protonated)
O=C([N-]c1ccc(O)cc1)N1CCC([N-]S(=O)(=O)Cc2ccccc2)CC1 (3D coordinates assigned)
O=C([N-]c1ccc(O)cc1)N1CCC([N-]S(=O)(=O)Cc2ccccc2)CC1 (nonaromatic ring conformer: 53.52939591195773 kcal/mol)

>  <smiles>  (55) 
O=C(Nc1ccc(O)cc1)N1CCC(NS(=O)(=O)Cc2ccccc2)CC1

>  <score_type>  (55) 
oracle

>  <origin>  (55) 
adg

>  <m_score__min__energy>  (55) 
-11.44

>  <m_primary>  (55) 
energy

$$$$
55:0
     RDKit          3D

 50 52  0  0  0  0  0  0  0  0999 V2000
   57.5380   25.8620   46.6140 C   0  0  0  0  0  0  0  0  0  0  0  0
   56.6330   26.8880   45.9860 C   0  0  0  0  0  0  0  0  0  0  0  0
   55.3810   26.7170   46.0180 O   0  0  0  0  0  0  0  0  0  0  0  0
   57.1820   28.0920   45.3390 C   0  0  0  0  0  0  0  0  0  0  0  0
   56.4810   28.9900   44.5340 C   0  0  0  0  0  0  0  0  0  0  0  0
   57.2830   30.0330   44.0400 C   0  0  0  0  0  0  0  0  0  0  0  0
   56.7690   31.0740   43.0890 C   0  0  0  0  0  0  0  0  0  0  0  0
   57.8540   32.0600   42.7790 C   0  0  0  0  0  0  0  0  0  0  0  0
   58.3920   32.0600   41.6370 O   0  0  0  0  0  0  0  0  0  0  0  0
   58.2850   32.9940   43.7840 N   0  0  0  0  0  0  0  0  0  0  0  0
   57.3760   33.5470   44.7800 C   0  0  0  0  0  0  0  0  0  0  0  0
   57.9450   33.3520   46.1580 C   0  0  0  0  0  0  0  0  0  0  0  0
   57.2020   33.4680   47.1220 O   0  0  0  0  0  0  0  0  0  0  0  0
   59.3540   33.0390   46.3360 N   0  0  0  0  0  0  0  0  0  0  0  0
   60.0730   34.0780   47.0830 C   0  0  0  0  0  0  0  0  0  0  0  0
   59.6120   34.1970   48.5390 C   0  0  0  0  0  0  0  0  0  0  0  0
   59.2780   32.9110   49.1930 N   0  0  0  0  0  0  0  0  0  0  0  0
   58.9060   32.9170   50.6090 C   0  0  0  0  0  0  0  0  0  0  0  0
   57.9460   32.0090   51.1220 C   0  0  0  0  0  0  0  0  0  0  0  0
   57.5980   32.0170   52.4740 C   0  0  0  0  0  0  0  0  0  0  0  0
   58.1920   32.9230   53.3510 C   0  0  0  0  0  0  0  0  0  0  0  0
   59.1410   33.8260   52.8760 C   0  0  0  0  0  0  0  0  0  0  0  0
   59.4970   33.8250   51.5240 C   0  0  0  0  0  0  0  0  0  0  0  0
   59.1830   31.6440   48.4330 C   0  0  0  0  0  0  0  0  0  0  0  0
   59.5900   31.7220   46.9490 C   0  0  0  0  0  0  0  0  0  0  0  0
   58.6160   29.9520   44.4410 C   0  0  0  0  0  0  0  0  0  0  0  0
   58.7900   28.5930   45.4220 S   0  0  0  0  0  0  0  0  0  0  0  0
   57.4722   25.9366   47.7095 H   0  0  0  0  0  0  0  0  0  0  0  0
   57.2280   24.8557   46.2957 H   0  0  0  0  0  0  0  0  0  0  0  0
   58.5751   26.0440   46.2957 H   0  0  0  0  0  0  0  0  0  0  0  0
   55.4088   28.8917   44.3086 H   0  0  0  0  0  0  0  0  0  0  0  0
   56.4408   30.5879   42.1584 H   0  0  0  0  0  0  0  0  0  0  0  0
   55.9214   31.6009   43.5515 H   0  0  0  0  0  0  0  0  0  0  0  0
   57.2385   34.6219   44.5911 H   0  0  0  0  0  0  0  0  0  0  0  0
   56.4074   33.0301   44.7122 H   0  0  0  0  0  0  0  0  0  0  0  0
   59.7930   33.0070   45.3840 H   0  0  0  0  0  0  0  0  0  0  0  0
   61.1462   33.8369   47.0739 H   0  0  0  0  0  0  0  0  0  0  0  0
   59.8636   35.0400   46.5923 H   0  0  0  0  0  0  0  0  0  0  0  0
   60.4184   34.6743   49.1151 H   0  0  0  0  0  0  0  0  0  0  0  0
   58.6829   34.7856   48.5219 H   0  0  0  0  0  0  0  0  0  0  0  0
   57.4677   31.2867   50.4442 H   0  0  0  0  0  0  0  0  0  0  0  0
   56.8499   31.3034   52.8497 H   0  0  0  0  0  0  0  0  0  0  0  0
   57.9125   32.9251   54.4149 H   0  0  0  0  0  0  0  0  0  0  0  0
   59.6113   34.5415   53.5666 H   0  0  0  0  0  0  0  0  0  0  0  0
   60.2494   34.5418   51.1634 H   0  0  0  0  0  0  0  0  0  0  0  0
   59.8347   30.9061   48.9237 H   0  0  0  0  0  0  0  0  0  0  0  0
   58.1173   31.3714   48.4373 H   0  0  0  0  0  0  0  0  0  0  0  0
   60.6625   31.4905   46.8711 H   0  0  0  0  0  0  0  0  0  0  0  0
   58.9624   30.9995   46.4066 H   0  0  0  0  0  0  0  0  0  0  0  0
   59.4162   30.6543   44.1646 H   0  0  0  0  0  0  0  0  0  0  0  0
  1  2  1  0
  2  3  2  0
  2  4  1  0
  4  5  2  0
  5  6  1  0
  6  7  1  0
  7  8  1  0
  8  9  2  0
  8 10  1  0
 10 11  1  0
 11 12  1  0
 12 13  2  0
 12 14  1  0
 14 15  1  0
 15 16  1  0
 16 17  1  0
 17 18  1  0
 18 19  2  0
 19 20  1  0
 20 21  2  0
 21 22  1  0
 22 23  2  0
 17 24  1  0
 24 25  1  0
  6 26  2  0
 26 27  1  0
 27  4  1  0
 25 14  1  0
 23 18  1  0
  1 28  1  0
  1 29  1  0
  1 30  1  0
  5 31  1  0
  7 32  1  0
  7 33  1  0
 11 34  1  0
 11 35  1  0
 14 36  1  0
 15 37  1  0
 15 38  1  0
 16 39  1  0
 16 40  1  0
 19 41  1  0
 20 42  1  0
 21 43  1  0
 22 44  1  0
 23 45  1  0
 24 46  1  0
 24 47  1  0
 25 48  1  0
 25 49  1  0
 26 50  1  0
M  CHG  2  10  -1  14   1
M  END
>  <UniqueID>  (56) 
56

>  <SMILES>  (56) 
CC(=O)c1cc(CC(=O)[N-]CC(=O)[NH+]2CCN(c3ccccc3)CC2)cs1

>  <Energy>  (56) 
83.00055825412895

>  <Genealogy>  (56) 
CC(=O)c1cc(CC(=O)[N-]CC(=O)[NH+]2CCN(c3ccccc3)CC2)cs1 (protonated)
CC(=O)c1cc(CC(=O)[N-]CC(=O)[NH+]2CCN(c3ccccc3)CC2)cs1 (3D coordinates assigned)
CC(=O)c1cc(CC(=O)[N-]CC(=O)[NH+]2CCN(c3ccccc3)CC2)cs1 (nonaromatic ring conformer: 83.00055825412895 kcal/mol)

>  <smiles>  (56) 
CC(=O)c1cc(CC(=O)NCC(=O)N2CCN(c3ccccc3)CC2)cs1

>  <score_type>  (56) 
oracle

>  <origin>  (56) 
adg

>  <m_score__min__energy>  (56) 
-8.9399999999999995

>  <m_primary>  (56) 
energy

$$$$
56:0
     RDKit          3D

 40 42  0  0  0  0  0  0  0  0999 V2000
   61.2910   30.8610   48.0750 C   0  0  0  0  0  0  0  0  0  0  0  0
   62.0900   32.0550   47.6520 C   0  0  0  0  0  0  0  0  0  0  0  0
   63.3850   32.0310   47.1760 C   0  0  0  0  0  0  0  0  0  0  0  0
   63.7200   33.3470   46.9310 C   0  0  0  0  0  0  0  0  0  0  0  0
   62.7080   34.1290   47.2320 O   0  0  0  0  0  0  0  0  0  0  0  0
   61.7120   33.3910   47.6660 C   0  0  0  0  0  0  0  0  0  0  0  0
   60.4210   33.9540   48.0930 C   0  0  0  0  0  0  0  0  0  0  0  0
   60.2120   34.1620   49.3190 O   0  0  0  0  0  0  0  0  0  0  0  0
   59.4120   34.2650   47.1310 N   0  0  0  0  0  0  0  0  0  0  0  0
   58.0660   33.7080   47.1670 C   0  0  0  0  0  0  0  0  0  0  0  0
   57.9240   32.6660   46.0870 C   0  0  0  0  0  0  0  0  0  0  0  0
   58.2250   31.3260   46.3770 C   0  0  0  0  0  0  0  0  0  0  0  0
   58.1070   30.3330   45.3930 C   0  0  0  0  0  0  0  0  0  0  0  0
   58.4810   28.9300   45.7070 C   0  0  0  0  0  0  0  0  0  0  0  0
   59.8190   28.5430   45.9010 C   0  0  0  0  0  0  0  0  0  0  0  0
   60.1140   27.2090   46.1930 C   0  0  0  0  0  0  0  0  0  0  0  0
   59.0850   26.2720   46.2860 C   0  0  0  0  0  0  0  0  0  0  0  0
   57.7650   26.6840   46.0780 C   0  0  0  0  0  0  0  0  0  0  0  0
   56.4480   25.5290   46.1820 S   0  0  0  0  0  0  0  0  0  0  0  0
   54.9390   26.3510   46.0060 N   0  0  0  0  0  0  0  0  0  0  0  0
   56.4830   24.8440   47.5200 O   0  0  0  0  0  0  0  0  0  0  0  0
   56.5950   24.5000   45.0970 O   0  0  0  0  0  0  0  0  0  0  0  0
   57.5000   27.9870   45.7960 N   0  0  0  0  0  0  0  0  0  0  0  0
   57.6700   30.7150   44.1140 C   0  0  0  0  0  0  0  0  0  0  0  0
   57.3660   32.0120   43.8510 N   0  0  0  0  0  0  0  0  0  0  0  0
   57.4740   32.9870   44.7930 C   0  0  0  0  0  0  0  0  0  0  0  0
   57.1720   34.1710   44.4870 O   0  0  0  0  0  0  0  0  0  0  0  0
   61.2583   30.8121   49.1734 H   0  0  0  0  0  0  0  0  0  0  0  0
   60.2675   30.9465   47.6811 H   0  0  0  0  0  0  0  0  0  0  0  0
   61.7604   29.9475   47.6811 H   0  0  0  0  0  0  0  0  0  0  0  0
   64.0194   31.1454   47.0233 H   0  0  0  0  0  0  0  0  0  0  0  0
   64.6899   33.6902   46.5417 H   0  0  0  0  0  0  0  0  0  0  0  0
   57.8869   33.2452   48.1487 H   0  0  0  0  0  0  0  0  0  0  0  0
   57.3326   34.5107   47.0005 H   0  0  0  0  0  0  0  0  0  0  0  0
   58.5577   31.0510   47.3888 H   0  0  0  0  0  0  0  0  0  0  0  0
   60.6273   29.2851   45.8234 H   0  0  0  0  0  0  0  0  0  0  0  0
   61.1574   26.8978   46.3495 H   0  0  0  0  0  0  0  0  0  0  0  0
   59.3093   25.2209   46.5203 H   0  0  0  0  0  0  0  0  0  0  0  0
   55.1460   27.3750   46.0140 H   0  0  0  0  0  0  0  0  0  0  0  0
   57.5735   29.9591   43.3207 H   0  0  0  0  0  0  0  0  0  0  0  0
  1  2  1  0
  2  3  1  0
  3  4  2  0
  4  5  1  0
  5  6  1  0
  6  7  1  0
  7  8  2  0
  7  9  1  0
  9 10  1  0
 10 11  1  0
 11 12  2  0
 12 13  1  0
 13 14  1  0
 14 15  2  0
 15 16  1  0
 16 17  2  0
 17 18  1  0
 18 19  1  0
 19 20  1  0
 19 21  2  0
 19 22  2  0
 18 23  2  0
 13 24  2  0
 24 25  1  0
 25 26  1  0
 26 27  2  0
  6  2  2  0
 26 11  1  0
 23 14  1  0
  1 28  1  0
  1 29  1  0
  1 30  1  0
  3 31  1  0
  4 32  1  0
 10 33  1  0
 10 34  1  0
 12 35  1  0
 15 36  1  0
 16 37  1  0
 17 38  1  0
 20 39  1  0
 24 40  1  0
M  CHG  3   9  -1  20  -1  25  -1
M  END
>  <UniqueID>  (57) 
57

>  <SMILES>  (57) 
Cc1ccoc1C(=O)[N-]Cc1cc(-c2cccc(S([NH-])(=O)=O)n2)c[n-]c1=O

>  <Energy>  (57) 
69.99956743827934

>  <Genealogy>  (57) 
Cc1ccoc1C(=O)[N-]Cc1cc(-c2cccc(S([NH-])(=O)=O)n2)c[n-]c1=O (protonated)
Cc1ccoc1C(=O)[N-]Cc1cc(-c2cccc(S([NH-])(=O)=O)n2)c[n-]c1=O (3D coordinates assigned)
Cc1ccoc1C(=O)[N-]Cc1cc(-c2cccc(S([NH-])(=O)=O)n2)c[n-]c1=O (optimized conformer: 69.99956743827934 kcal/mol)

>  <smiles>  (57) 
Cc1ccoc1C(=O)NCc1cc(-c2cccc(S(N)(=O)=O)n2)c[nH]c1=O

>  <score_type>  (57) 
oracle

>  <origin>  (57) 
adg

>  <m_score__min__energy>  (57) 
-13.529999999999999

>  <m_primary>  (57) 
energy

$$$$
57:0
     RDKit          3D

 60 63  0  0  0  0  0  0  0  0999 V2000
   63.1500   33.7180   46.4100 C   0  0  0  0  0  0  0  0  0  0  0  0
   62.6740   33.8780   47.7960 N   0  0  0  0  0  0  0  0  0  0  0  0
   63.1320   32.7650   48.6580 C   0  0  0  0  0  0  0  0  0  0  0  0
   62.2510   31.5150   48.5160 C   0  0  0  0  0  0  0  0  0  0  0  0
   60.8260   31.8560   48.6320 N   0  0  0  0  0  0  0  0  0  0  0  0
   59.8230   30.8280   48.5020 C   0  0  0  0  0  0  0  0  0  0  0  0
   58.6470   31.1270   48.1600 O   0  0  0  0  0  0  0  0  0  0  0  0
   60.1540   29.4090   48.7270 C   0  0  0  0  0  0  0  0  0  0  0  0
   60.3240   28.9660   50.0470 C   0  0  0  0  0  0  0  0  0  0  0  0
   60.6110   27.6240   50.3230 C   0  0  0  0  0  0  0  0  0  0  0  0
   60.7890   27.2050   51.6870 N   0  0  0  0  0  0  0  0  0  0  0  0
   61.2710   25.9080   52.0840 C   0  0  0  0  0  0  0  0  0  0  0  0
   62.6040   25.7180   52.4820 C   0  0  0  0  0  0  0  0  0  0  0  0
   63.0530   24.4480   52.8480 C   0  0  0  0  0  0  0  0  0  0  0  0
   62.1870   23.3530   52.8040 C   0  0  0  0  0  0  0  0  0  0  0  0
   62.6630   22.1280   53.1490 F   0  0  0  0  0  0  0  0  0  0  0  0
   60.8530   23.5170   52.3750 C   0  0  0  0  0  0  0  0  0  0  0  0
   59.9270   22.3590   52.3240 C   0  0  0  0  0  0  0  0  0  0  0  0
   59.1280   21.9990   53.4540 N   0  0  0  0  0  0  0  0  0  0  0  0
   59.8300   21.6780   51.2680 O   0  0  0  0  0  0  0  0  0  0  0  0
   60.4090   24.8030   52.0160 C   0  0  0  0  0  0  0  0  0  0  0  0
   60.7830   26.7280   49.2570 C   0  0  0  0  0  0  0  0  0  0  0  0
   60.6290   27.1600   47.9390 C   0  0  0  0  0  0  0  0  0  0  0  0
   60.3040   28.4970   47.6550 C   0  0  0  0  0  0  0  0  0  0  0  0
   60.2140   28.9360   46.2100 C   0  0  0  0  0  0  0  0  0  0  0  0
   58.7820   28.9370   45.7410 C   0  0  0  0  0  0  0  0  0  0  0  0
   58.2480   30.0700   45.1020 C   0  0  0  0  0  0  0  0  0  0  0  0
   56.9130   30.0830   44.6850 C   0  0  0  0  0  0  0  0  0  0  0  0
   56.1000   28.9650   44.9040 C   0  0  0  0  0  0  0  0  0  0  0  0
   54.7730   28.9790   44.4910 O   0  0  0  0  0  0  0  0  0  0  0  0
   56.6250   27.8310   45.5380 C   0  0  0  0  0  0  0  0  0  0  0  0
   57.9590   27.8150   45.9540 C   0  0  0  0  0  0  0  0  0  0  0  0
   60.4490   33.2580   48.8390 C   0  0  0  0  0  0  0  0  0  0  0  0
   61.2080   34.1430   47.8410 C   0  0  0  0  0  0  0  0  0  0  0  0
   64.1926   33.3675   46.4185 H   0  0  0  0  0  0  0  0  0  0  0  0
   62.5201   32.9822   45.8886 H   0  0  0  0  0  0  0  0  0  0  0  0
   63.0924   34.6849   45.8886 H   0  0  0  0  0  0  0  0  0  0  0  0
   64.1636   32.5038   48.3796 H   0  0  0  0  0  0  0  0  0  0  0  0
   63.0702   33.1024   49.7032 H   0  0  0  0  0  0  0  0  0  0  0  0
   62.4320   31.0578   47.5320 H   0  0  0  0  0  0  0  0  0  0  0  0
   62.5089   30.8124   49.3222 H   0  0  0  0  0  0  0  0  0  0  0  0
   60.2306   29.6827   50.8763 H   0  0  0  0  0  0  0  0  0  0  0  0
   60.5480   27.8880   52.4430 H   0  0  0  0  0  0  0  0  0  0  0  0
   63.2965   26.5724   52.5055 H   0  0  0  0  0  0  0  0  0  0  0  0
   64.0947   24.3088   53.1729 H   0  0  0  0  0  0  0  0  0  0  0  0
   59.0640   22.6100   54.2950 H   0  0  0  0  0  0  0  0  0  0  0  0
   58.5270   21.1460   53.4160 H   0  0  0  0  0  0  0  0  0  0  0  0
   59.3719   24.9440   51.6774 H   0  0  0  0  0  0  0  0  0  0  0  0
   61.0409   25.6784   49.4615 H   0  0  0  0  0  0  0  0  0  0  0  0
   60.7636   26.4458   47.1133 H   0  0  0  0  0  0  0  0  0  0  0  0
   60.6256   29.9517   46.1150 H   0  0  0  0  0  0  0  0  0  0  0  0
   60.7882   28.2315   45.5903 H   0  0  0  0  0  0  0  0  0  0  0  0
   58.8837   30.9509   44.9291 H   0  0  0  0  0  0  0  0  0  0  0  0
   56.5019   30.9722   44.1847 H   0  0  0  0  0  0  0  0  0  0  0  0
   55.9860   26.9520   45.7085 H   0  0  0  0  0  0  0  0  0  0  0  0
   58.3676   26.9221   46.4498 H   0  0  0  0  0  0  0  0  0  0  0  0
   59.3664   33.3738   48.6826 H   0  0  0  0  0  0  0  0  0  0  0  0
   60.7047   33.5594   49.8655 H   0  0  0  0  0  0  0  0  0  0  0  0
   60.7930   33.9685   46.8373 H   0  0  0  0  0  0  0  0  0  0  0  0
   61.0806   35.1836   48.1741 H   0  0  0  0  0  0  0  0  0  0  0  0
  1  2  1  0
  2  3  1  0
  3  4  1  0
  4  5  1  0
  5  6  1  0
  6  7  2  0
  6  8  1  0
  8  9  2  0
  9 10  1  0
 10 11  1  0
 11 12  1  0
 12 13  2  0
 13 14  1  0
 14 15  2  0
 15 16  1  0
 15 17  1  0
 17 18  1  0
 18 19  1  0
 18 20  2  0
 17 21  2  0
 10 22  2  0
 22 23  1  0
 23 24  2  0
 24 25  1  0
 25 26  1  0
 26 27  2  0
 27 28  1  0
 28 29  2  0
 29 30  1  0
 29 31  1  0
 31 32  2  0
  5 33  1  0
 33 34  1  0
 34  2  1  0
 24  8  1  0
 32 26  1  0
 21 12  1  0
  1 35  1  0
  1 36  1  0
  1 37  1  0
  3 38  1  0
  3 39  1  0
  4 40  1  0
  4 41  1  0
  9 42  1  0
 11 43  1  0
 13 44  1  0
 14 45  1  0
 19 46  1  0
 19 47  1  0
 21 48  1  0
 22 49  1  0
 23 50  1  0
 25 51  1  0
 25 52  1  0
 27 53  1  0
 28 54  1  0
 31 55  1  0
 32 56  1  0
 33 57  1  0
 33 58  1  0
 34 59  1  0
 34 60  1  0
M  CHG  1  30  -1
M  END
>  <UniqueID>  (58) 
58

>  <SMILES>  (58) 
CN1CCN(C(=O)c2cc(Nc3ccc(F)c(C(N)=O)c3)ccc2Cc2ccc([O-])cc2)CC1

>  <Energy>  (58) 
84.13149895309176

>  <Genealogy>  (58) 
CN1CCN(C(=O)c2cc(Nc3ccc(F)c(C(N)=O)c3)ccc2Cc2ccc([O-])cc2)CC1 (protonated)
CN1CCN(C(=O)c2cc(Nc3ccc(F)c(C(N)=O)c3)ccc2Cc2ccc([O-])cc2)CC1 (3D coordinates assigned)
CN1CCN(C(=O)c2cc(Nc3ccc(F)c(C(N)=O)c3)ccc2Cc2ccc([O-])cc2)CC1 (nonaromatic ring conformer: 84.13149895309176 kcal/mol)

>  <smiles>  (58) 
CN1CCN(C(=O)c2cc(Nc3ccc(F)c(C(N)=O)c3)ccc2Cc2ccc(O)cc2)CC1

>  <score_type>  (58) 
oracle

>  <origin>  (58) 
adg

>  <m_score__min__energy>  (58) 
-12.01

>  <m_primary>  (58) 
energy

$$$$
58:0
     RDKit          3D

 62 65  0  0  0  0  0  0  0  0999 V2000
   58.1230   32.7380   47.8510 C   0  0  0  0  0  0  0  0  0  0  0  0
   58.5210   31.6390   48.5150 C   0  0  0  0  0  0  0  0  0  0  0  0
   58.3000   31.6430   49.8520 N   0  0  0  0  0  0  0  0  0  0  0  0
   58.6590   30.6300   50.6670 C   0  0  0  0  0  0  0  0  0  0  0  0
   58.3390   30.7760   52.1510 C   0  0  1  0  0  0  0  0  0  0  0  0
   58.7370   32.1340   52.7150 C   0  0  0  0  0  0  0  0  0  0  0  0
   59.8080   32.2110   53.6210 C   0  0  0  0  0  0  0  0  0  0  0  0
   60.2010   33.4520   54.1280 C   0  0  0  0  0  0  0  0  0  0  0  0
   59.5550   34.5840   53.7410 N   0  0  0  0  0  0  0  0  0  0  0  0
   58.5170   34.5460   52.8620 C   0  0  0  0  0  0  0  0  0  0  0  0
   58.0930   33.3270   52.3300 C   0  0  0  0  0  0  0  0  0  0  0  0
   56.9120   30.3670   52.5180 C   0  0  0  0  0  0  0  0  0  0  0  0
   55.7950   31.0800   52.0240 C   0  0  0  0  0  0  0  0  0  0  0  0
   54.4970   30.7130   52.3870 C   0  0  0  0  0  0  0  0  0  0  0  0
   54.2850   29.6440   53.2570 C   0  0  0  0  0  0  0  0  0  0  0  0
   55.3740   28.9370   53.7670 C   0  0  0  0  0  0  0  0  0  0  0  0
   56.6820   29.2920   53.4150 C   0  0  0  0  0  0  0  0  0  0  0  0
   58.0040   28.3820   54.1430 Cl  0  0  0  0  0  0  0  0  0  0  0  0
   59.3880   29.5620   50.1200 C   0  0  0  0  0  0  0  0  0  0  0  0
   59.8580   28.6770   50.8880 O   0  0  0  0  0  0  0  0  0  0  0  0
   59.6310   29.5010   48.7630 N   0  0  0  0  0  0  0  0  0  0  0  0
   60.6350   28.5040   48.3080 C   0  0  0  0  0  0  0  0  0  0  0  0
   59.9990   27.3470   47.5930 C   0  0  0  0  0  0  0  0  0  0  0  0
   60.2940   27.0900   46.3970 O   0  0  0  0  0  0  0  0  0  0  0  0
   59.0060   26.6130   48.2220 O   0  0  0  0  0  0  0  0  0  0  0  0
   59.1160   30.4800   47.9170 C   0  0  0  0  0  0  0  0  0  0  0  0
   59.1580   30.3560   46.5560 C   0  0  0  0  0  0  0  0  0  0  0  0
   57.9820   30.2350   45.6730 C   0  0  0  0  0  0  0  0  0  0  0  0
   57.2440   29.0870   45.5050 C   0  0  0  0  0  0  0  0  0  0  0  0
   57.3230   27.9550   46.3090 O   0  0  0  0  0  0  0  0  0  0  0  0
   56.4520   29.1840   44.4230 N   0  0  0  0  0  0  0  0  0  0  0  0
   56.7630   30.3980   43.9270 C   0  0  0  0  0  0  0  0  0  0  0  0
   56.2640   30.8240   42.8540 O   0  0  0  0  0  0  0  0  0  0  0  0
   57.6780   31.0820   44.6630 N   0  0  0  0  0  0  0  0  0  0  0  0
   58.4700   32.2650   44.2760 C   0  0  0  0  0  0  0  0  0  0  0  0
   57.8510   33.6120   44.6930 C   0  0  0  0  0  0  0  0  0  0  0  0
   58.9070   34.6970   44.9280 C   0  0  0  0  0  0  0  0  0  0  0  0
   60.0450   34.1800   45.7990 C   0  0  0  0  0  0  0  0  0  0  0  0
   58.2697   32.8065   46.7630 H   0  0  0  0  0  0  0  0  0  0  0  0
   57.6506   33.5688   48.3957 H   0  0  0  0  0  0  0  0  0  0  0  0
   58.9824   30.0405   52.6561 H   0  0  0  0  0  0  0  0  0  0  0  0
   60.3356   31.2967   53.9303 H   0  0  0  0  0  0  0  0  0  0  0  0
   61.0353   33.5135   54.8422 H   0  0  0  0  0  0  0  0  0  0  0  0
   58.0108   35.4779   52.5700 H   0  0  0  0  0  0  0  0  0  0  0  0
   57.2593   33.2977   51.6130 H   0  0  0  0  0  0  0  0  0  0  0  0
   55.9500   31.9327   51.3466 H   0  0  0  0  0  0  0  0  0  0  0  0
   53.6380   31.2699   51.9846 H   0  0  0  0  0  0  0  0  0  0  0  0
   53.2611   29.3589   53.5405 H   0  0  0  0  0  0  0  0  0  0  0  0
   55.2037   28.0931   54.4518 H   0  0  0  0  0  0  0  0  0  0  0  0
   61.3411   28.9983   47.6246 H   0  0  0  0  0  0  0  0  0  0  0  0
   61.1489   28.1110   49.1976 H   0  0  0  0  0  0  0  0  0  0  0  0
   60.1498   30.3456   46.0803 H   0  0  0  0  0  0  0  0  0  0  0  0
   58.1950   27.4520   46.4060 H   0  0  0  0  0  0  0  0  0  0  0  0
   59.4618   32.1828   44.7447 H   0  0  0  0  0  0  0  0  0  0  0  0
   58.5126   32.2671   43.1768 H   0  0  0  0  0  0  0  0  0  0  0  0
   57.1707   33.9488   43.8969 H   0  0  0  0  0  0  0  0  0  0  0  0
   57.3176   33.4545   45.6421 H   0  0  0  0  0  0  0  0  0  0  0  0
   59.3148   35.0167   43.9577 H   0  0  0  0  0  0  0  0  0  0  0  0
   58.4288   35.5417   45.4456 H   0  0  0  0  0  0  0  0  0  0  0  0
   59.7791   34.3008   46.8595 H   0  0  0  0  0  0  0  0  0  0  0  0
   60.2173   33.1152   45.5832 H   0  0  0  0  0  0  0  0  0  0  0  0
   60.9603   34.7507   45.5832 H   0  0  0  0  0  0  0  0  0  0  0  0
  1  2  2  0
  2  3  1  0
  3  4  2  0
  4  5  1  0
  5  6  1  0
  6  7  2  0
  7  8  1  0
  8  9  2  0
  9 10  1  0
 10 11  2  0
  5 12  1  0
 12 13  2  0
 13 14  1  0
 14 15  2  0
 15 16  1  0
 16 17  2  0
 17 18  1  0
  4 19  1  0
 19 20  2  0
 19 21  1  0
 21 22  1  0
 22 23  1  0
 23 24  2  0
 23 25  1  0
 21 26  1  0
 26 27  2  3
 27 28  1  0
 28 29  2  0
 29 30  1  0
 29 31  1  0
 31 32  1  0
 32 33  2  0
 32 34  1  0
 34 35  1  0
 35 36  1  0
 36 37  1  0
 37 38  1  0
 26  2  1  0
 34 28  1  0
 11  6  1  0
 17 12  1  0
  1 39  1  0
  1 40  1  0
  5 41  1  1
  7 42  1  0
  8 43  1  0
 10 44  1  0
 11 45  1  0
 13 46  1  0
 14 47  1  0
 15 48  1  0
 16 49  1  0
 22 50  1  0
 22 51  1  0
 27 52  1  0
 30 53  1  0
 35 54  1  0
 35 55  1  0
 36 56  1  0
 36 57  1  0
 37 58  1  0
 37 59  1  0
 38 60  1  0
 38 61  1  0
 38 62  1  0
M  CHG  2  25  -1  31  -1
M  END
>  <UniqueID>  (59) 
59

>  <SMILES>  (59) 
C=c1nc([C@@H](c2ccncc2)c2ccccc2Cl)c(=O)n(CC(=O)[O-])c1=Cc1c(O)[n-]c(=O)n1CCCC

>  <Energy>  (59) 
136.39324005162706

>  <Genealogy>  (59) 
C=c1nc(C(c2ccncc2)c2ccccc2Cl)c(=O)n(CC(=O)[O-])c1=Cc1c(O)[n-]c(=O)n1CCCC (protonated)
C=c1nc([C@@H](c2ccncc2)c2ccccc2Cl)c(=O)n(CC(=O)[O-])c1=Cc1c(O)[n-]c(=O)n1CCCC (chirality)
C=c1nc([C@@H](c2ccncc2)c2ccccc2Cl)c(=O)n(CC(=O)[O-])c1=Cc1c(O)[n-]c(=O)n1CCCC (3D coordinates assigned)
C=c1nc([C@@H](c2ccncc2)c2ccccc2Cl)c(=O)n(CC(=O)[O-])c1=Cc1c(O)[n-]c(=O)n1CCCC (optimized conformer: 136.39324005162706 kcal/mol)

>  <smiles>  (59) 
C=c1nc(C(c2ccncc2)c2ccccc2Cl)c(=O)n(CC(=O)O)c1=Cc1c(O)[nH]c(=O)n1CCCC

>  <score_type>  (59) 
oracle

>  <origin>  (59) 
adg

>  <m_score__min__energy>  (59) 
-15.199999999999999

>  <m_primary>  (59) 
energy

$$$$
59:0
     RDKit          3D

 64 67  0  0  0  0  0  0  0  0999 V2000
   60.2900   29.2700   44.5790 C   0  0  0  0  0  0  0  0  0  0  0  0
   60.1210   29.8100   45.9760 C   0  0  0  0  0  0  0  0  0  0  0  0
   61.0770   29.4810   46.9500 C   0  0  0  0  0  0  0  0  0  0  0  0
   60.9620   29.9620   48.2530 C   0  0  0  0  0  0  0  0  0  0  0  0
   59.8930   30.7880   48.6140 C   0  0  0  0  0  0  0  0  0  0  0  0
   59.7950   31.2520   49.9730 N   0  0  0  0  0  0  0  0  0  0  0  0
   59.1710   32.4830   50.3740 C   0  0  0  0  0  0  0  0  0  0  0  0
   58.8680   33.3610   49.5210 O   0  0  0  0  0  0  0  0  0  0  0  0
   58.9560   32.7790   51.8280 C   0  0  0  0  0  0  0  0  0  0  0  0
   58.1630   31.6730   52.4690 C   0  0  0  0  0  0  0  0  0  0  0  0
   57.3630   31.9350   53.5920 C   0  0  0  0  0  0  0  0  0  0  0  0
   56.5920   30.9190   54.1620 C   0  0  0  0  0  0  0  0  0  0  0  0
   56.6030   29.6290   53.6210 C   0  0  0  0  0  0  0  0  0  0  0  0
   55.7970   28.6480   54.2220 O   0  0  0  0  0  0  0  0  0  0  0  0
   54.5880   28.1230   53.6710 C   0  0  0  0  0  0  0  0  0  0  0  0
   53.7560   29.2210   53.0650 C   0  0  0  0  0  0  0  0  0  0  0  0
   52.6430   29.7230   53.7560 C   0  0  0  0  0  0  0  0  0  0  0  0
   51.8750   30.7540   53.2070 C   0  0  0  0  0  0  0  0  0  0  0  0
   52.2000   31.2930   51.9490 C   0  0  0  0  0  0  0  0  0  0  0  0
   51.3830   32.3830   51.3680 C   0  0  0  0  0  0  0  0  0  0  0  0
   50.6540   33.1000   52.1040 O   0  0  0  0  0  0  0  0  0  0  0  0
   51.4150   32.6380   50.0010 O   0  0  0  0  0  0  0  0  0  0  0  0
   53.3040   30.7750   51.2500 C   0  0  0  0  0  0  0  0  0  0  0  0
   54.0740   29.7470   51.8040 C   0  0  0  0  0  0  0  0  0  0  0  0
   57.4130   29.3610   52.5000 C   0  0  0  0  0  0  0  0  0  0  0  0
   58.1780   30.3790   51.9240 C   0  0  0  0  0  0  0  0  0  0  0  0
   58.9080   31.0860   47.6570 C   0  0  0  0  0  0  0  0  0  0  0  0
   59.0070   30.6060   46.3400 C   0  0  0  0  0  0  0  0  0  0  0  0
   57.7470   31.0380   45.1660 S   0  0  0  0  0  0  0  0  0  0  0  0
   58.3690   31.2180   43.8080 O   0  0  0  0  0  0  0  0  0  0  0  0
   57.1210   32.3340   45.6050 O   0  0  0  0  0  0  0  0  0  0  0  0
   56.5210   29.7840   45.0940 N   0  0  0  0  0  0  0  0  0  0  0  0
   57.0190   28.4920   45.6240 C   0  0  0  0  0  0  0  0  0  0  0  0
   57.4120   27.5030   44.5110 C   0  0  0  0  0  0  0  0  0  0  0  0
   57.9530   28.1990   43.4130 O   0  0  0  0  0  0  0  0  0  0  0  0
   56.9460   28.9580   42.7670 C   0  0  0  0  0  0  0  0  0  0  0  0
   55.9600   29.6490   43.7390 C   0  0  0  0  0  0  0  0  0  0  0  0
   60.6182   28.2213   44.6285 H   0  0  0  0  0  0  0  0  0  0  0  0
   59.3304   29.3291   44.0445 H   0  0  0  0  0  0  0  0  0  0  0  0
   61.0447   29.8656   44.0445 H   0  0  0  0  0  0  0  0  0  0  0  0
   61.9267   28.8361   46.6816 H   0  0  0  0  0  0  0  0  0  0  0  0
   61.7185   29.6896   49.0037 H   0  0  0  0  0  0  0  0  0  0  0  0
   60.2630   30.6830   50.7150 H   0  0  0  0  0  0  0  0  0  0  0  0
   59.9311   32.8655   52.3297 H   0  0  0  0  0  0  0  0  0  0  0  0
   58.4002   33.7233   51.9248 H   0  0  0  0  0  0  0  0  0  0  0  0
   57.3430   32.9457   54.0256 H   0  0  0  0  0  0  0  0  0  0  0  0
   55.9709   31.1352   55.0438 H   0  0  0  0  0  0  0  0  0  0  0  0
   54.8364   27.3870   52.8921 H   0  0  0  0  0  0  0  0  0  0  0  0
   54.0105   27.6471   54.4772 H   0  0  0  0  0  0  0  0  0  0  0  0
   52.3730   29.3027   54.7360 H   0  0  0  0  0  0  0  0  0  0  0  0
   51.0106   31.1465   53.7626 H   0  0  0  0  0  0  0  0  0  0  0  0
   53.5641   31.1806   50.2611 H   0  0  0  0  0  0  0  0  0  0  0  0
   54.9348   29.3483   51.2471 H   0  0  0  0  0  0  0  0  0  0  0  0
   57.4435   28.3463   52.0763 H   0  0  0  0  0  0  0  0  0  0  0  0
   58.7952   30.1654   51.0389 H   0  0  0  0  0  0  0  0  0  0  0  0
   58.0452   31.7052   47.9436 H   0  0  0  0  0  0  0  0  0  0  0  0
   57.9024   28.6859   46.2501 H   0  0  0  0  0  0  0  0  0  0  0  0
   56.2026   28.0338   46.2015 H   0  0  0  0  0  0  0  0  0  0  0  0
   58.1613   26.7975   44.8993 H   0  0  0  0  0  0  0  0  0  0  0  0
   56.5159   26.9554   44.1836 H   0  0  0  0  0  0  0  0  0  0  0  0
   57.4339   29.7341   42.1590 H   0  0  0  0  0  0  0  0  0  0  0  0
   56.3561   28.2548   42.1608 H   0  0  0  0  0  0  0  0  0  0  0  0
   55.7236   30.6510   43.3515 H   0  0  0  0  0  0  0  0  0  0  0  0
   55.0573   29.0241   43.8068 H   0  0  0  0  0  0  0  0  0  0  0  0
  1  2  1  0
  2  3  2  0
  3  4  1  0
  4  5  2  0
  5  6  1  0
  6  7  1  0
  7  8  2  0
  7  9  1  0
  9 10  1  0
 10 11  2  0
 11 12  1  0
 12 13  2  0
 13 14  1  0
 14 15  1  0
 15 16  1  0
 16 17  2  0
 17 18  1  0
 18 19  2  0
 19 20  1  0
 20 21  2  0
 20 22  1  0
 19 23  1  0
 23 24  2  0
 13 25  1  0
 25 26  2  0
  5 27  1  0
 27 28  2  0
 28 29  1  0
 29 30  2  0
 29 31  2  0
 29 32  1  0
 32 33  1  0
 33 34  1  0
 34 35  1  0
 35 36  1  0
 36 37  1  0
 28  2  1  0
 37 32  1  0
 26 10  1  0
 24 16  1  0
  1 38  1  0
  1 39  1  0
  1 40  1  0
  3 41  1  0
  4 42  1  0
  6 43  1  0
  9 44  1  0
  9 45  1  0
 11 46  1  0
 12 47  1  0
 15 48  1  0
 15 49  1  0
 17 50  1  0
 18 51  1  0
 23 52  1  0
 24 53  1  0
 25 54  1  0
 26 55  1  0
 27 56  1  0
 33 57  1  0
 33 58  1  0
 34 59  1  0
 34 60  1  0
 36 61  1  0
 36 62  1  0
 37 63  1  0
 37 64  1  0
M  CHG  1  22  -1
M  END
>  <UniqueID>  (60) 
60

>  <SMILES>  (60) 
Cc1ccc(NC(=O)Cc2ccc(OCc3ccc(C(=O)[O-])cc3)cc2)cc1S(=O)(=O)N1CCOCC1

>  <Energy>  (60) 
81.94653500331079

>  <Genealogy>  (60) 
Cc1ccc(NC(=O)Cc2ccc(OCc3ccc(C(=O)[O-])cc3)cc2)cc1S(=O)(=O)N1CCOCC1 (protonated)
Cc1ccc(NC(=O)Cc2ccc(OCc3ccc(C(=O)[O-])cc3)cc2)cc1S(=O)(=O)N1CCOCC1 (3D coordinates assigned)
Cc1ccc(NC(=O)Cc2ccc(OCc3ccc(C(=O)[O-])cc3)cc2)cc1S(=O)(=O)N1CCOCC1 (nonaromatic ring conformer: 81.94653500331079 kcal/mol)

>  <smiles>  (60) 
Cc1ccc(NC(=O)Cc2ccc(OCc3ccc(C(=O)O)cc3)cc2)cc1S(=O)(=O)N1CCOCC1

>  <score_type>  (60) 
oracle

>  <origin>  (60) 
adg

>  <m_score__min__energy>  (60) 
-15.619999999999999

>  <m_primary>  (60) 
energy

$$$$
60:0
     RDKit          3D

 44 46  0  0  0  0  0  0  0  0999 V2000
   57.0200   30.1260   45.6690 O   0  0  0  0  0  0  0  0  0  0  0  0
   57.5820   30.8220   44.7830 C   0  0  0  0  0  0  0  0  0  0  0  0
   57.7020   30.3110   43.4500 N   0  0  0  0  0  0  0  0  0  0  0  0
   57.0370   29.0870   43.0150 C   0  0  0  0  0  0  0  0  0  0  0  0
   57.7700   27.8620   43.4980 C   0  0  0  0  0  0  0  0  0  0  0  0
   57.7910   26.8340   42.7650 O   0  0  0  0  0  0  0  0  0  0  0  0
   58.4060   27.8210   44.7970 N   0  0  0  0  0  0  0  0  0  0  0  0
   57.6690   27.1990   45.9130 C   0  0  0  0  0  0  0  0  0  0  0  0
   58.4490   27.1560   47.2050 C   0  0  0  0  0  0  0  0  0  0  0  0
   59.5180   27.9360   47.4260 C   0  0  0  0  0  0  0  0  0  0  0  0
   60.1850   27.9370   48.7500 C   0  0  0  0  0  0  0  0  0  0  0  0
   60.4710   26.7250   49.4010 C   0  0  0  0  0  0  0  0  0  0  0  0
   61.1440   26.7250   50.6300 C   0  0  0  0  0  0  0  0  0  0  0  0
   61.5350   27.9310   51.2180 C   0  0  0  0  0  0  0  0  0  0  0  0
   61.2450   29.1400   50.5820 C   0  0  0  0  0  0  0  0  0  0  0  0
   60.5710   29.1470   49.3550 C   0  0  0  0  0  0  0  0  0  0  0  0
   59.9590   28.9060   46.3660 C   0  0  0  0  0  0  0  0  0  0  0  0
   59.7900   28.2910   44.9820 C   0  0  0  0  0  0  0  0  0  0  0  0
   58.1170   32.1560   45.1390 C   0  0  0  0  0  0  0  0  0  0  0  0
   59.1830   32.2930   46.0490 C   0  0  0  0  0  0  0  0  0  0  0  0
   59.6850   33.5610   46.3660 C   0  0  0  0  0  0  0  0  0  0  0  0
   59.1350   34.7020   45.7750 C   0  0  0  0  0  0  0  0  0  0  0  0
   59.6240   35.9320   46.0820 F   0  0  0  0  0  0  0  0  0  0  0  0
   58.0870   34.5770   44.8610 C   0  0  0  0  0  0  0  0  0  0  0  0
   57.5820   33.3120   44.5400 C   0  0  0  0  0  0  0  0  0  0  0  0
   58.3620   30.7590   42.7800 H   0  0  0  0  0  0  0  0  0  0  0  0
   56.0133   29.0734   43.4173 H   0  0  0  0  0  0  0  0  0  0  0  0
   57.0242   29.0718   41.9152 H   0  0  0  0  0  0  0  0  0  0  0  0
   56.7464   27.7734   46.0831 H   0  0  0  0  0  0  0  0  0  0  0  0
   57.4669   26.1570   45.6242 H   0  0  0  0  0  0  0  0  0  0  0  0
   58.1291   26.4596   47.9941 H   0  0  0  0  0  0  0  0  0  0  0  0
   60.1653   25.7723   48.9439 H   0  0  0  0  0  0  0  0  0  0  0  0
   61.3653   25.7725   51.1337 H   0  0  0  0  0  0  0  0  0  0  0  0
   62.0698   27.9280   52.1792 H   0  0  0  0  0  0  0  0  0  0  0  0
   61.5472   30.0901   51.0468 H   0  0  0  0  0  0  0  0  0  0  0  0
   60.3421   30.1031   48.8616 H   0  0  0  0  0  0  0  0  0  0  0  0
   59.3497   29.8193   46.4340 H   0  0  0  0  0  0  0  0  0  0  0  0
   61.0205   29.1482   46.5224 H   0  0  0  0  0  0  0  0  0  0  0  0
   60.0215   29.0477   44.2179 H   0  0  0  0  0  0  0  0  0  0  0  0
   60.4745   27.4355   44.8845 H   0  0  0  0  0  0  0  0  0  0  0  0
   59.6238   31.3986   46.5135 H   0  0  0  0  0  0  0  0  0  0  0  0
   60.5143   33.6595   47.0819 H   0  0  0  0  0  0  0  0  0  0  0  0
   57.6574   35.4747   44.3923 H   0  0  0  0  0  0  0  0  0  0  0  0
   56.7607   33.2203   43.8140 H   0  0  0  0  0  0  0  0  0  0  0  0
  1  2  2  0
  2  3  1  0
  3  4  1  0
  4  5  1  0
  5  6  2  0
  5  7  1  0
  7  8  1  0
  8  9  1  0
  9 10  2  0
 10 11  1  0
 11 12  2  0
 12 13  1  0
 13 14  2  0
 14 15  1  0
 15 16  2  0
 10 17  1  0
 17 18  1  0
  2 19  1  0
 19 20  2  0
 20 21  1  0
 21 22  2  0
 22 23  1  0
 22 24  1  0
 24 25  2  0
 18  7  1  0
 25 19  1  0
 16 11  1  0
  3 26  1  0
  4 27  1  0
  4 28  1  0
  8 29  1  0
  8 30  1  0
  9 31  1  0
 12 32  1  0
 13 33  1  0
 14 34  1  0
 15 35  1  0
 16 36  1  0
 17 37  1  0
 17 38  1  0
 18 39  1  0
 18 40  1  0
 20 41  1  0
 21 42  1  0
 24 43  1  0
 25 44  1  0
M  END
>  <UniqueID>  (61) 
61

>  <SMILES>  (61) 
O=C(NCC(=O)N1CC=C(c2ccccc2)CC1)c1ccc(F)cc1

>  <Energy>  (61) 
54.067900718105186

>  <Genealogy>  (61) 
O=C(NCC(=O)N1CC=C(c2ccccc2)CC1)c1ccc(F)cc1 (3D coordinates assigned)
O=C(NCC(=O)N1CC=C(c2ccccc2)CC1)c1ccc(F)cc1 (nonaromatic ring conformer: 54.067900718105186 kcal/mol)

>  <smiles>  (61) 
O=C(NCC(=O)N1CC=C(c2ccccc2)CC1)c1ccc(F)cc1

>  <score_type>  (61) 
oracle

>  <origin>  (61) 
adg

>  <m_score__min__energy>  (61) 
-8.5199999999999996

>  <m_primary>  (61) 
energy

$$$$
61:0
     RDKit          3D

 31 33  0  0  0  0  0  0  0  0999 V2000
   60.1360   29.0420   45.4140 C   0  0  0  0  0  0  0  0  0  0  0  0
   58.7270   28.5370   45.5630 C   0  0  0  0  0  0  0  0  0  0  0  0
   58.3930   27.3020   46.1460 C   0  0  0  0  0  0  0  0  0  0  0  0
   59.2940   26.3210   46.7790 C   0  0  0  0  0  0  0  0  0  0  0  0
   60.1390   26.6820   47.8720 N   0  0  0  0  0  0  0  0  0  0  0  0
   59.2820   25.1260   46.3800 O   0  0  0  0  0  0  0  0  0  0  0  0
   56.7320   27.0630   45.9950 S   0  0  0  0  0  0  0  0  0  0  0  0
   56.4160   28.5230   45.2390 C   0  0  0  0  0  0  0  0  0  0  0  0
   55.1490   28.9600   44.8740 O   0  0  0  0  0  0  0  0  0  0  0  0
   57.5990   29.2320   45.0690 C   0  0  0  0  0  0  0  0  0  0  0  0
   57.6450   30.5710   44.4470 C   0  0  0  0  0  0  0  0  0  0  0  0
   57.4190   30.8220   43.1560 C   0  0  0  0  0  0  0  0  0  0  0  0
   57.5980   32.2800   42.8320 C   0  0  0  0  0  0  0  0  0  0  0  0
   57.9640   32.8250   44.1700 C   0  0  0  0  0  0  0  0  0  0  0  0
   58.2270   34.1500   44.5230 C   0  0  0  0  0  0  0  0  0  0  0  0
   58.5140   34.4390   45.8660 C   0  0  0  0  0  0  0  0  0  0  0  0
   58.5220   33.4110   46.8290 C   0  0  0  0  0  0  0  0  0  0  0  0
   58.2500   32.0860   46.4530 C   0  0  0  0  0  0  0  0  0  0  0  0
   57.9890   31.8200   45.1060 C   0  0  0  0  0  0  0  0  0  0  0  0
   60.5762   29.1998   46.4097 H   0  0  0  0  0  0  0  0  0  0  0  0
   60.7341   28.3023   44.8617 H   0  0  0  0  0  0  0  0  0  0  0  0
   60.1281   29.9933   44.8617 H   0  0  0  0  0  0  0  0  0  0  0  0
   60.0320   27.5990   48.3590 H   0  0  0  0  0  0  0  0  0  0  0  0
   60.8090   25.9860   48.2670 H   0  0  0  0  0  0  0  0  0  0  0  0
   57.1363   30.0562   42.4187 H   0  0  0  0  0  0  0  0  0  0  0  0
   58.4030   32.4351   42.0985 H   0  0  0  0  0  0  0  0  0  0  0  0
   56.7175   32.7545   42.3742 H   0  0  0  0  0  0  0  0  0  0  0  0
   58.2097   34.9484   43.7665 H   0  0  0  0  0  0  0  0  0  0  0  0
   58.7338   35.4736   46.1682 H   0  0  0  0  0  0  0  0  0  0  0  0
   58.7424   33.6475   47.8804 H   0  0  0  0  0  0  0  0  0  0  0  0
   58.2425   31.2780   47.1994 H   0  0  0  0  0  0  0  0  0  0  0  0
  1  2  1  0
  2  3  2  0
  3  4  1  0
  4  5  1  0
  4  6  2  0
  3  7  1  0
  7  8  1  0
  8  9  1  0
  8 10  2  0
 10 11  1  0
 11 12  2  0
 12 13  1  0
 13 14  1  0
 14 15  2  0
 15 16  1  0
 16 17  2  0
 17 18  1  0
 18 19  2  0
 10  2  1  0
 19 11  1  0
 19 14  1  0
  1 20  1  0
  1 21  1  0
  1 22  1  0
  5 23  1  0
  5 24  1  0
 12 25  1  0
 13 26  1  0
 13 27  1  0
 15 28  1  0
 16 29  1  0
 17 30  1  0
 18 31  1  0
M  CHG  1   9  -1
M  END
>  <UniqueID>  (62) 
62

>  <SMILES>  (62) 
Cc1c(C(N)=O)sc([O-])c1C1=CCc2ccccc21

>  <Energy>  (62) 
85.1836848217231

>  <Genealogy>  (62) 
Cc1c(C(N)=O)sc([O-])c1C1=CCc2ccccc21 (protonated)
Cc1c(C(N)=O)sc([O-])c1C1=CCc2ccccc21 (3D coordinates assigned)
Cc1c(C(N)=O)sc([O-])c1C1=CCc2ccccc21 (nonaromatic ring conformer: 85.1836848217231 kcal/mol)

>  <smiles>  (62) 
Cc1c(C(N)=O)sc(O)c1C1=CCc2ccccc21

>  <score_type>  (62) 
oracle

>  <origin>  (62) 
adg

>  <m_score__min__energy>  (62) 
-11.33

>  <m_primary>  (62) 
energy

$$$$
62:0
     RDKit          3D

 62 65  0  0  0  0  0  0  0  0999 V2000
   57.1360   27.9270   44.8420 N   0  0  0  0  0  0  0  0  0  0  0  0
   56.6450   29.2660   44.9100 C   0  0  0  0  0  0  0  0  0  0  0  0
   55.4040   29.4810   44.8830 O   0  0  0  0  0  0  0  0  0  0  0  0
   57.5970   30.4180   45.0440 C   0  0  0  0  0  0  0  0  0  0  0  0
   58.9810   30.0860   44.4700 C   0  0  0  0  0  0  0  0  0  0  0  0
   59.8410   29.3370   45.4580 C   0  0  0  0  0  0  0  0  0  0  0  0
   60.2570   28.1900   45.1340 O   0  0  0  0  0  0  0  0  0  0  0  0
   60.2170   29.9330   46.7220 N   0  0  0  0  0  0  0  0  0  0  0  0
   61.3890   30.5730   46.7870 N   0  0  0  0  0  0  0  0  0  0  0  0
   61.8520   31.1540   47.9230 C   0  0  0  0  0  0  0  0  0  0  0  0
   63.1660   31.8880   47.8940 C   0  0  0  0  0  0  0  0  0  0  0  0
   63.0170   33.3780   47.5370 C   0  0  0  0  0  0  0  0  0  0  0  0
   61.5750   33.7980   47.3740 C   0  0  0  0  0  0  0  0  0  0  0  0
   60.8180   34.1930   48.4880 C   0  0  0  0  0  0  0  0  0  0  0  0
   59.4890   34.6040   48.3270 C   0  0  0  0  0  0  0  0  0  0  0  0
   58.9130   34.6330   47.0520 C   0  0  0  0  0  0  0  0  0  0  0  0
   59.6630   34.2480   45.9370 C   0  0  0  0  0  0  0  0  0  0  0  0
   60.9890   33.8330   46.0950 C   0  0  0  0  0  0  0  0  0  0  0  0
   61.0840   31.0790   49.0830 C   0  0  0  0  0  0  0  0  0  0  0  0
   59.8370   30.4510   49.0420 C   0  0  0  0  0  0  0  0  0  0  0  0
   58.9650   30.4770   50.2410 C   0  0  0  0  0  0  0  0  0  0  0  0
   58.1240   31.5780   50.4720 C   0  0  0  0  0  0  0  0  0  0  0  0
   57.2440   31.5770   51.5570 C   0  0  0  0  0  0  0  0  0  0  0  0
   57.1830   30.4710   52.4140 C   0  0  0  0  0  0  0  0  0  0  0  0
   56.2430   30.4310   53.4920 N   0  0  0  0  0  0  0  0  0  0  0  0
   54.8620   30.0620   53.3630 C   0  0  0  0  0  0  0  0  0  0  0  0
   54.1020   30.1960   54.3560 O   0  0  0  0  0  0  0  0  0  0  0  0
   54.3300   29.4050   52.1150 C   0  0  0  0  0  0  0  0  0  0  0  0
   53.2460   30.2240   51.4810 C   0  0  0  0  0  0  0  0  0  0  0  0
   52.9270   31.5380   51.8060 C   0  0  0  0  0  0  0  0  0  0  0  0
   51.8820   32.0580   51.0330 C   0  0  0  0  0  0  0  0  0  0  0  0
   51.3870   31.1640   50.0900 C   0  0  0  0  0  0  0  0  0  0  0  0
   52.2500   29.7270   50.2160 S   0  0  0  0  0  0  0  0  0  0  0  0
   58.0650   29.4000   52.2260 C   0  0  0  0  0  0  0  0  0  0  0  0
   58.9440   29.3960   51.1380 C   0  0  0  0  0  0  0  0  0  0  0  0
   59.4090   29.8720   47.8330 C   0  0  0  0  0  0  0  0  0  0  0  0
   58.2690   29.3290   47.7720 O   0  0  0  0  0  0  0  0  0  0  0  0
   58.1620   27.7340   44.8930 H   0  0  0  0  0  0  0  0  0  0  0  0
   56.4740   27.1230   44.7580 H   0  0  0  0  0  0  0  0  0  0  0  0
   57.1862   31.2836   44.5037 H   0  0  0  0  0  0  0  0  0  0  0  0
   57.7161   30.6392   46.1149 H   0  0  0  0  0  0  0  0  0  0  0  0
   58.8524   29.4661   43.5704 H   0  0  0  0  0  0  0  0  0  0  0  0
   59.4855   31.0343   44.2328 H   0  0  0  0  0  0  0  0  0  0  0  0
   63.6322   31.8108   48.8873 H   0  0  0  0  0  0  0  0  0  0  0  0
   63.7844   31.4233   47.1119 H   0  0  0  0  0  0  0  0  0  0  0  0
   63.4698   33.9789   48.3394 H   0  0  0  0  0  0  0  0  0  0  0  0
   63.5209   33.5402   46.5728 H   0  0  0  0  0  0  0  0  0  0  0  0
   61.2701   34.1797   49.4907 H   0  0  0  0  0  0  0  0  0  0  0  0
   58.8970   34.9045   49.2041 H   0  0  0  0  0  0  0  0  0  0  0  0
   57.8698   34.9588   46.9272 H   0  0  0  0  0  0  0  0  0  0  0  0
   59.2100   34.2715   44.9349 H   0  0  0  0  0  0  0  0  0  0  0  0
   61.5769   33.5324   45.2152 H   0  0  0  0  0  0  0  0  0  0  0  0
   61.4566   31.5109   50.0236 H   0  0  0  0  0  0  0  0  0  0  0  0
   58.1584   32.4448   49.7956 H   0  0  0  0  0  0  0  0  0  0  0  0
   56.5969   32.4477   51.7388 H   0  0  0  0  0  0  0  0  0  0  0  0
   55.1536   29.2845   51.3959 H   0  0  0  0  0  0  0  0  0  0  0  0
   53.9064   28.4287   52.3933 H   0  0  0  0  0  0  0  0  0  0  0  0
   53.4433   32.1106   52.5906 H   0  0  0  0  0  0  0  0  0  0  0  0
   51.4895   33.0777   51.1597 H   0  0  0  0  0  0  0  0  0  0  0  0
   50.5693   31.3633   49.3817 H   0  0  0  0  0  0  0  0  0  0  0  0
   58.0667   28.5596   52.9357 H   0  0  0  0  0  0  0  0  0  0  0  0
   59.6215   28.5431   50.9841 H   0  0  0  0  0  0  0  0  0  0  0  0
  1  2  1  0
  2  3  2  0
  2  4  1  0
  4  5  1  0
  5  6  1  0
  6  7  2  0
  6  8  1  0
  8  9  1  0
  9 10  2  0
 10 11  1  0
 11 12  1  0
 12 13  1  0
 13 14  2  0
 14 15  1  0
 15 16  2  0
 16 17  1  0
 17 18  2  0
 10 19  1  0
 19 20  2  0
 20 21  1  0
 21 22  2  0
 22 23  1  0
 23 24  2  0
 24 25  1  0
 25 26  1  0
 26 27  2  0
 26 28  1  0
 28 29  1  0
 29 30  2  0
 30 31  1  0
 31 32  2  0
 32 33  1  0
 24 34  1  0
 34 35  2  0
 20 36  1  0
 36 37  2  0
 36  8  1  0
 18 13  1  0
 35 21  1  0
 33 29  1  0
  1 38  1  0
  1 39  1  0
  4 40  1  0
  4 41  1  0
  5 42  1  0
  5 43  1  0
 11 44  1  0
 11 45  1  0
 12 46  1  0
 12 47  1  0
 14 48  1  0
 15 49  1  0
 16 50  1  0
 17 51  1  0
 18 52  1  0
 19 53  1  0
 22 54  1  0
 23 55  1  0
 28 56  1  0
 28 57  1  0
 30 58  1  0
 31 59  1  0
 32 60  1  0
 34 61  1  0
 35 62  1  0
M  CHG  1  25  -1
M  END
>  <UniqueID>  (63) 
63

>  <SMILES>  (63) 
NC(=O)CCC(=O)n1nc(CCc2ccccc2)cc(-c2ccc([N-]C(=O)Cc3cccs3)cc2)c1=O

>  <Energy>  (63) 
97.742048752608

>  <Genealogy>  (63) 
NC(=O)CCC(=O)n1nc(CCc2ccccc2)cc(-c2ccc([N-]C(=O)Cc3cccs3)cc2)c1=O (protonated)
NC(=O)CCC(=O)n1nc(CCc2ccccc2)cc(-c2ccc([N-]C(=O)Cc3cccs3)cc2)c1=O (3D coordinates assigned)
NC(=O)CCC(=O)n1nc(CCc2ccccc2)cc(-c2ccc([N-]C(=O)Cc3cccs3)cc2)c1=O (optimized conformer: 97.742048752608 kcal/mol)

>  <smiles>  (63) 
NC(=O)CCC(=O)n1nc(CCc2ccccc2)cc(-c2ccc(NC(=O)Cc3cccs3)cc2)c1=O

>  <score_type>  (63) 
oracle

>  <origin>  (63) 
adg

>  <m_score__min__energy>  (63) 
-11.19

>  <m_primary>  (63) 
energy

$$$$
63:0
     RDKit          3D

 53 56  0  0  0  0  0  0  0  0999 V2000
   57.6280   33.0720   52.5740 C   0  0  0  0  0  0  0  0  0  0  0  0
   58.1580   32.0720   51.6010 C   0  0  0  0  0  0  0  0  0  0  0  0
   57.9380   32.1340   50.2680 N   0  0  0  0  0  0  0  0  0  0  0  0
   58.4790   31.1180   49.5960 N   0  0  0  0  0  0  0  0  0  0  0  0
   59.1170   30.2340   50.3950 C   0  0  0  0  0  0  0  0  0  0  0  0
   59.9860   28.7870   49.7850 S   0  0  0  0  0  0  0  0  0  0  0  0
   60.8340   28.3900   51.3620 C   0  0  0  0  0  0  0  0  0  0  0  0
   61.0370   26.8730   51.5580 C   0  0  0  0  0  0  0  0  0  0  0  0
   60.7280   26.4190   52.9990 C   0  0  0  0  0  0  0  0  0  0  0  0
   59.5070   27.0740   53.5080 N   0  0  0  0  0  0  0  0  0  0  0  0
   59.8010   27.9860   54.6340 C   0  0  0  0  0  0  0  0  0  0  0  0
   58.5740   28.8680   54.9440 C   0  0  0  0  0  0  0  0  0  0  0  0
   57.2630   28.2080   54.4540 C   0  0  0  0  0  0  0  0  0  0  0  0
   57.2780   26.6770   54.6170 C   0  0  0  0  0  0  0  0  0  0  0  0
   58.5080   26.0550   53.9150 C   0  0  0  0  0  0  0  0  0  0  0  0
   56.0060   28.8850   54.9250 C   0  0  0  0  0  0  0  0  0  0  0  0
   55.5600   29.3380   53.5930 N   0  0  0  0  0  0  0  0  0  0  0  0
   54.4700   30.0930   53.0520 C   0  0  0  0  0  0  0  0  0  0  0  0
   54.5150   30.5220   51.7200 C   0  0  0  0  0  0  0  0  0  0  0  0
   53.4440   31.2350   51.1710 C   0  0  0  0  0  0  0  0  0  0  0  0
   52.3120   31.5340   51.9500 C   0  0  0  0  0  0  0  0  0  0  0  0
   51.1820   32.2870   51.3650 C   0  0  0  0  0  0  0  0  0  0  0  0
   51.0190   32.3290   50.1150 O   0  0  0  0  0  0  0  0  0  0  0  0
   50.2880   32.9690   52.1870 O   0  0  0  0  0  0  0  0  0  0  0  0
   52.2730   31.1040   53.2880 C   0  0  0  0  0  0  0  0  0  0  0  0
   53.3440   30.3910   53.8370 C   0  0  0  0  0  0  0  0  0  0  0  0
   53.2790   29.9870   55.1310 F   0  0  0  0  0  0  0  0  0  0  0  0
   56.7840   28.6740   53.1030 C   0  0  0  0  0  0  0  0  0  0  0  0
   59.0430   30.6970   52.0130 S   0  0  0  0  0  0  0  0  0  0  0  0
   57.8144   32.7203   53.5995 H   0  0  0  0  0  0  0  0  0  0  0  0
   58.1331   34.0370   52.4198 H   0  0  0  0  0  0  0  0  0  0  0  0
   56.5459   33.1958   52.4198 H   0  0  0  0  0  0  0  0  0  0  0  0
   61.8183   28.8811   51.3667 H   0  0  0  0  0  0  0  0  0  0  0  0
   60.1980   28.7511   52.1837 H   0  0  0  0  0  0  0  0  0  0  0  0
   60.3702   26.3354   50.8678 H   0  0  0  0  0  0  0  0  0  0  0  0
   62.0944   26.6475   51.3552 H   0  0  0  0  0  0  0  0  0  0  0  0
   60.5828   25.3287   53.0096 H   0  0  0  0  0  0  0  0  0  0  0  0
   61.5728   26.7007   53.6447 H   0  0  0  0  0  0  0  0  0  0  0  0
   60.0554   27.3925   55.5245 H   0  0  0  0  0  0  0  0  0  0  0  0
   60.6463   28.6336   54.3582 H   0  0  0  0  0  0  0  0  0  0  0  0
   58.5112   29.0237   56.0311 H   0  0  0  0  0  0  0  0  0  0  0  0
   58.6958   29.8262   54.4176 H   0  0  0  0  0  0  0  0  0  0  0  0
   57.3126   26.4300   55.6883 H   0  0  0  0  0  0  0  0  0  0  0  0
   56.3675   26.2672   54.1553 H   0  0  0  0  0  0  0  0  0  0  0  0
   58.9881   25.3471   54.6067 H   0  0  0  0  0  0  0  0  0  0  0  0
   58.1532   25.5526   53.0030 H   0  0  0  0  0  0  0  0  0  0  0  0
   55.2981   28.1859   55.3942 H   0  0  0  0  0  0  0  0  0  0  0  0
   56.1142   29.6539   55.7041 H   0  0  0  0  0  0  0  0  0  0  0  0
   55.3969   30.2973   51.1022 H   0  0  0  0  0  0  0  0  0  0  0  0
   53.4876   31.5642   50.1223 H   0  0  0  0  0  0  0  0  0  0  0  0
   51.3931   31.3301   53.9082 H   0  0  0  0  0  0  0  0  0  0  0  0
   56.5699   27.8408   52.4175 H   0  0  0  0  0  0  0  0  0  0  0  0
   57.4800   29.2821   52.5065 H   0  0  0  0  0  0  0  0  0  0  0  0
  1  2  1  0
  2  3  2  0
  3  4  1  0
  4  5  2  0
  5  6  1  0
  6  7  1  0
  7  8  1  0
  8  9  1  0
  9 10  1  0
 10 11  1  0
 11 12  1  0
 12 13  1  0
 13 14  1  0
 14 15  1  0
 13 16  1  0
 16 17  1  0
 17 18  1  0
 18 19  2  0
 19 20  1  0
 20 21  2  0
 21 22  1  0
 22 23  2  0
 22 24  1  0
 21 25  1  0
 25 26  2  0
 26 27  1  0
 17 28  1  0
  5 29  1  0
 29  2  1  0
 15 10  1  0
 26 18  1  0
 28 13  1  0
  1 30  1  0
  1 31  1  0
  1 32  1  0
  7 33  1  0
  7 34  1  0
  8 35  1  0
  8 36  1  0
  9 37  1  0
  9 38  1  0
 11 39  1  0
 11 40  1  0
 12 41  1  0
 12 42  1  0
 14 43  1  0
 14 44  1  0
 15 45  1  0
 15 46  1  0
 16 47  1  0
 16 48  1  0
 19 49  1  0
 20 50  1  0
 25 51  1  0
 28 52  1  0
 28 53  1  0
M  CHG  1  24  -1
M  END
>  <UniqueID>  (64) 
64

>  <SMILES>  (64) 
Cc1nnc(SCCCN2CCC3(CC2)CN(c2ccc(C(=O)[O-])cc2F)C3)s1

>  <Energy>  (64) 
135.56691061533726

>  <Genealogy>  (64) 
Cc1nnc(SCCCN2CCC3(CC2)CN(c2ccc(C(=O)[O-])cc2F)C3)s1 (protonated)
Cc1nnc(SCCCN2CCC3(CC2)CN(c2ccc(C(=O)[O-])cc2F)C3)s1 (3D coordinates assigned)
Cc1nnc(SCCCN2CCC3(CC2)CN(c2ccc(C(=O)[O-])cc2F)C3)s1 (nonaromatic ring conformer: 135.56691061533726 kcal/mol)

>  <smiles>  (64) 
Cc1nnc(SCCCN2CCC3(CC2)CN(c2ccc(C(=O)O)cc2F)C3)s1

>  <score_type>  (64) 
oracle

>  <origin>  (64) 
adg

>  <m_score__min__energy>  (64) 
-11.01

>  <m_primary>  (64) 
energy

$$$$
64:0
     RDKit          3D

 59 62  0  0  0  0  0  0  0  0999 V2000
   57.6840   31.7500   51.4980 C   0  0  0  0  0  0  0  0  0  0  0  0
   58.6120   31.1470   50.7560 C   0  0  0  0  0  0  0  0  0  0  0  0
   58.7020   31.3300   49.2980 C   0  0  0  0  0  0  0  0  0  0  0  0
   58.1390   32.3290   48.7730 O   0  0  0  0  0  0  0  0  0  0  0  0
   59.3700   30.3570   48.4830 N   0  0  0  0  0  0  0  0  0  0  0  0
   58.7680   29.4940   47.5050 C   0  0  0  0  0  0  0  0  0  0  0  0
   58.6730   28.1050   47.7160 C   0  0  0  0  0  0  0  0  0  0  0  0
   58.0350   27.2790   46.7780 C   0  0  0  0  0  0  0  0  0  0  0  0
   57.9330   25.7910   47.0140 C   0  0  0  0  0  0  0  0  0  0  0  0
   56.8160   25.1790   46.2070 C   0  0  0  0  0  0  0  0  0  0  0  0
   55.5420   25.5790   46.4730 N   0  0  0  0  0  0  0  0  0  0  0  0
   54.4910   25.0760   45.8270 N   0  0  0  0  0  0  0  0  0  0  0  0
   54.6320   24.1260   44.8700 C   0  0  0  0  0  0  0  0  0  0  0  0
   53.6110   23.6860   44.2780 O   0  0  0  0  0  0  0  0  0  0  0  0
   55.9130   23.6490   44.5560 C   0  0  0  0  0  0  0  0  0  0  0  0
   57.0260   24.1860   45.2250 C   0  0  0  0  0  0  0  0  0  0  0  0
   58.3910   23.6920   44.8050 C   0  0  0  0  0  0  0  0  0  0  0  0
   58.4000   22.1590   44.6940 C   0  0  0  0  0  0  0  0  0  0  0  0
   57.1770   21.5670   43.9480 C   0  0  0  0  0  0  0  0  0  0  0  0
   56.1460   22.6120   43.4840 C   0  0  0  0  0  0  0  0  0  0  0  0
   57.5180   27.8490   45.6060 C   0  0  0  0  0  0  0  0  0  0  0  0
   57.5840   29.2260   45.4010 C   0  0  0  0  0  0  0  0  0  0  0  0
   58.1820   30.0620   46.3580 C   0  0  0  0  0  0  0  0  0  0  0  0
   58.2570   31.4830   46.1430 N   0  0  0  0  0  0  0  0  0  0  0  0
   57.3880   32.1990   45.2560 C   0  0  0  0  0  0  0  0  0  0  0  0
   56.4480   31.6050   44.6600 O   0  0  0  0  0  0  0  0  0  0  0  0
   57.5890   33.6020   45.0650 N   0  0  0  0  0  0  0  0  0  0  0  0
   58.8480   34.2060   44.6340 C   0  0  0  0  0  0  0  0  0  0  0  0
   59.6290   34.7820   45.8350 C   0  0  0  0  0  0  0  0  0  0  0  0
   60.0120   36.2650   45.6910 C   0  0  0  0  0  0  0  0  0  0  0  0
   60.7500   33.9020   46.3610 C   0  0  0  0  0  0  0  0  0  0  0  0
   60.0860   33.6640   47.5800 O   0  0  0  0  0  0  0  0  0  0  0  0
   58.9920   34.4540   47.1760 C   0  0  0  0  0  0  0  0  0  0  0  0
   57.6551   31.5834   52.5849 H   0  0  0  0  0  0  0  0  0  0  0  0
   56.9467   32.4144   51.0236 H   0  0  0  0  0  0  0  0  0  0  0  0
   59.3389   30.4870   51.2520 H   0  0  0  0  0  0  0  0  0  0  0  0
   59.1037   27.6625   48.6263 H   0  0  0  0  0  0  0  0  0  0  0  0
   58.8831   25.3174   46.7259 H   0  0  0  0  0  0  0  0  0  0  0  0
   57.7200   25.6244   48.0802 H   0  0  0  0  0  0  0  0  0  0  0  0
   58.6481   24.1269   43.8279 H   0  0  0  0  0  0  0  0  0  0  0  0
   59.1277   23.9974   45.5627 H   0  0  0  0  0  0  0  0  0  0  0  0
   59.3109   21.8578   44.1559 H   0  0  0  0  0  0  0  0  0  0  0  0
   58.3620   21.7682   45.7215 H   0  0  0  0  0  0  0  0  0  0  0  0
   57.5429   21.0280   43.0616 H   0  0  0  0  0  0  0  0  0  0  0  0
   56.6592   20.9131   44.6651 H   0  0  0  0  0  0  0  0  0  0  0  0
   56.5199   23.1091   42.5767 H   0  0  0  0  0  0  0  0  0  0  0  0
   55.1947   22.1002   43.2763 H   0  0  0  0  0  0  0  0  0  0  0  0
   57.0570   27.2048   44.8428 H   0  0  0  0  0  0  0  0  0  0  0  0
   57.1643   29.6615   44.4822 H   0  0  0  0  0  0  0  0  0  0  0  0
   58.8980   32.0470   46.7460 H   0  0  0  0  0  0  0  0  0  0  0  0
   59.4632   33.4397   44.1397 H   0  0  0  0  0  0  0  0  0  0  0  0
   58.6209   35.0277   43.9388 H   0  0  0  0  0  0  0  0  0  0  0  0
   60.1276   36.7124   46.6892 H   0  0  0  0  0  0  0  0  0  0  0  0
   60.9608   36.3469   45.1404 H   0  0  0  0  0  0  0  0  0  0  0  0
   59.2215   36.7961   45.1404 H   0  0  0  0  0  0  0  0  0  0  0  0
   60.9089   32.9918   45.7640 H   0  0  0  0  0  0  0  0  0  0  0  0
   61.7740   34.3031   46.3835 H   0  0  0  0  0  0  0  0  0  0  0  0
   58.0524   33.8889   47.0881 H   0  0  0  0  0  0  0  0  0  0  0  0
   58.6639   35.2794   47.8248 H   0  0  0  0  0  0  0  0  0  0  0  0
  1  2  2  0
  2  3  1  0
  3  4  2  0
  3  5  1  0
  5  6  1  0
  6  7  2  0
  7  8  1  0
  8  9  1  0
  9 10  1  0
 10 11  2  0
 11 12  1  0
 12 13  1  0
 13 14  2  0
 13 15  1  0
 15 16  2  0
 16 17  1  0
 17 18  1  0
 18 19  1  0
 19 20  1  0
  8 21  2  0
 21 22  1  0
 22 23  2  0
 23 24  1  0
 24 25  1  0
 25 26  2  0
 25 27  1  0
 27 28  1  0
 28 29  1  0
 29 30  1  0
 29 31  1  0
 31 32  1  0
 32 33  1  0
 23  6  1  0
 33 29  1  0
 16 10  1  0
 20 15  1  0
  1 34  1  0
  1 35  1  0
  2 36  1  0
  7 37  1  0
  9 38  1  0
  9 39  1  0
 17 40  1  0
 17 41  1  0
 18 42  1  0
 18 43  1  0
 19 44  1  0
 19 45  1  0
 20 46  1  0
 20 47  1  0
 21 48  1  0
 22 49  1  0
 24 50  1  0
 28 51  1  0
 28 52  1  0
 30 53  1  0
 30 54  1  0
 30 55  1  0
 31 56  1  0
 31 57  1  0
 33 58  1  0
 33 59  1  0
M  CHG  3   5  -1  12  -1  27  -1
M  END
>  <UniqueID>  (65) 
65

>  <SMILES>  (65) 
C=CC(=O)[N-]c1cc(Cc2n[n-]c(=O)c3c2CCCC3)ccc1NC(=O)[N-]CC1(C)COC1

>  <Energy>  (65) 
134.9392761673106

>  <Genealogy>  (65) 
C=CC(=O)[N-]c1cc(Cc2n[n-]c(=O)c3c2CCCC3)ccc1NC(=O)[N-]CC1(C)COC1 (protonated)
C=CC(=O)[N-]c1cc(Cc2n[n-]c(=O)c3c2CCCC3)ccc1NC(=O)[N-]CC1(C)COC1 (3D coordinates assigned)
C=CC(=O)[N-]c1cc(Cc2n[n-]c(=O)c3c2CCCC3)ccc1NC(=O)[N-]CC1(C)COC1 (nonaromatic ring conformer: 134.9392761673106 kcal/mol)

>  <smiles>  (65) 
C=CC(=O)Nc1cc(Cc2n[nH]c(=O)c3c2CCCC3)ccc1NC(=O)NCC1(C)COC1

>  <score_type>  (65) 
oracle

>  <origin>  (65) 
adg

>  <m_score__min__energy>  (65) 
-14.890000000000001

>  <m_primary>  (65) 
energy

$$$$
65:0
     RDKit          3D

 41 43  0  0  0  0  0  0  0  0999 V2000
   60.2160   26.9680   48.8090 O   0  0  0  0  0  0  0  0  0  0  0  0
   59.8680   27.3810   47.6710 C   0  0  0  0  0  0  0  0  0  0  0  0
   59.3080   26.4020   46.6690 C   0  0  0  0  0  0  0  0  0  0  0  0
   57.9020   26.7530   46.2760 C   0  0  0  0  0  0  0  0  0  0  0  0
   56.7830   25.9690   46.4590 C   0  0  0  0  0  0  0  0  0  0  0  0
   55.7260   26.7280   45.9990 C   0  0  0  0  0  0  0  0  0  0  0  0
   54.4030   26.3120   45.9960 O   0  0  0  0  0  0  0  0  0  0  0  0
   56.1200   27.9370   45.5510 N   0  0  0  0  0  0  0  0  0  0  0  0
   57.4560   27.9420   45.7320 C   0  0  0  0  0  0  0  0  0  0  0  0
   58.2650   29.0250   45.4060 O   0  0  0  0  0  0  0  0  0  0  0  0
   60.1910   28.7290   47.3060 N   0  0  0  0  0  0  0  0  0  0  0  0
   59.7840   29.9210   47.9880 C   0  0  0  0  0  0  0  0  0  0  0  0
   59.1320   29.8100   49.2210 C   0  0  0  0  0  0  0  0  0  0  0  0
   58.6900   30.9540   49.8920 C   0  0  0  0  0  0  0  0  0  0  0  0
   58.8850   32.2160   49.3260 C   0  0  0  0  0  0  0  0  0  0  0  0
   59.5150   32.3410   48.0810 C   0  0  0  0  0  0  0  0  0  0  0  0
   59.7750   33.9350   47.3710 S   0  0  0  0  0  0  0  0  0  0  0  0
   59.8820   34.9550   48.4720 O   0  0  0  0  0  0  0  0  0  0  0  0
   61.0740   33.9330   46.6150 O   0  0  0  0  0  0  0  0  0  0  0  0
   58.4700   34.3930   46.2950 N   0  0  0  0  0  0  0  0  0  0  0  0
   57.3450   33.4600   46.4030 C   0  0  0  0  0  0  0  0  0  0  0  0
   57.4550   32.4500   45.2730 C   0  0  0  0  0  0  0  0  0  0  0  0
   58.3920   33.0730   44.2580 C   0  0  0  0  0  0  0  0  0  0  0  0
   58.8980   34.3620   44.8930 C   0  0  0  0  0  0  0  0  0  0  0  0
   59.9440   31.1890   47.4060 C   0  0  0  0  0  0  0  0  0  0  0  0
   59.9420   26.4100   45.7701 H   0  0  0  0  0  0  0  0  0  0  0  0
   59.2955   25.4050   47.1336 H   0  0  0  0  0  0  0  0  0  0  0  0
   56.7414   24.9543   46.8817 H   0  0  0  0  0  0  0  0  0  0  0  0
   59.1340   29.1870   45.8990 H   0  0  0  0  0  0  0  0  0  0  0  0
   58.9663   28.8172   49.6648 H   0  0  0  0  0  0  0  0  0  0  0  0
   58.1883   30.8602   50.8664 H   0  0  0  0  0  0  0  0  0  0  0  0
   58.5427   33.1149   49.8597 H   0  0  0  0  0  0  0  0  0  0  0  0
   57.3839   32.9404   47.3718 H   0  0  0  0  0  0  0  0  0  0  0  0
   56.3919   34.0048   46.3340 H   0  0  0  0  0  0  0  0  0  0  0  0
   57.8685   31.5011   45.6453 H   0  0  0  0  0  0  0  0  0  0  0  0
   56.4725   32.2228   44.8336 H   0  0  0  0  0  0  0  0  0  0  0  0
   59.2322   32.3953   44.0463 H   0  0  0  0  0  0  0  0  0  0  0  0
   57.8819   33.2665   43.3028 H   0  0  0  0  0  0  0  0  0  0  0  0
   59.9962   34.3947   44.8401 H   0  0  0  0  0  0  0  0  0  0  0  0
   58.4891   35.2307   44.3563 H   0  0  0  0  0  0  0  0  0  0  0  0
   60.4093   31.2793   46.4133 H   0  0  0  0  0  0  0  0  0  0  0  0
  1  2  2  0
  2  3  1  0
  3  4  1  0
  4  5  1  0
  5  6  2  0
  6  7  1  0
  6  8  1  0
  8  9  1  0
  9 10  1  0
  2 11  1  0
 11 12  1  0
 12 13  2  0
 13 14  1  0
 14 15  2  0
 15 16  1  0
 16 17  1  0
 17 18  2  0
 17 19  2  0
 17 20  1  0
 20 21  1  0
 21 22  1  0
 22 23  1  0
 23 24  1  0
 16 25  2  0
  9  4  2  0
 25 12  1  0
 24 20  1  0
  3 26  1  0
  3 27  1  0
  5 28  1  0
 10 29  1  0
 13 30  1  0
 14 31  1  0
 15 32  1  0
 21 33  1  0
 21 34  1  0
 22 35  1  0
 22 36  1  0
 23 37  1  0
 23 38  1  0
 24 39  1  0
 24 40  1  0
 25 41  1  0
M  CHG  3   7  -1   8  -1  11  -1
M  END
>  <UniqueID>  (66) 
66

>  <SMILES>  (66) 
O=C(Cc1cc([O-])[n-]c1O)[N-]c1cccc(S(=O)(=O)N2CCCC2)c1

>  <Energy>  (66) 
70.65103455002134

>  <Genealogy>  (66) 
O=C(Cc1cc([O-])[n-]c1O)[N-]c1cccc(S(=O)(=O)N2CCCC2)c1 (protonated)
O=C(Cc1cc([O-])[n-]c1O)[N-]c1cccc(S(=O)(=O)N2CCCC2)c1 (3D coordinates assigned)
O=C(Cc1cc([O-])[n-]c1O)[N-]c1cccc(S(=O)(=O)N2CCCC2)c1 (nonaromatic ring conformer: 70.65103455002134 kcal/mol)

>  <smiles>  (66) 
O=C(Cc1cc(O)[nH]c1O)Nc1cccc(S(=O)(=O)N2CCCC2)c1

>  <score_type>  (66) 
oracle

>  <origin>  (66) 
adg

>  <m_score__min__energy>  (66) 
-16.75

>  <m_primary>  (66) 
energy

$$$$
66:0
     RDKit          3D

 70 74  0  0  0  0  0  0  0  0999 V2000
   60.1990   30.9930   50.9330 C   0  0  0  0  0  0  0  0  0  0  0  0
   60.5130   29.7900   50.2390 O   0  0  0  0  0  0  0  0  0  0  0  0
   60.2520   29.5680   48.8770 C   0  0  0  0  0  0  0  0  0  0  0  0
   59.1470   28.8140   48.4350 C   0  0  0  0  0  0  0  0  0  0  0  0
   58.9270   28.6050   47.0620 C   0  0  0  0  0  0  0  0  0  0  0  0
   57.7340   27.8110   46.6020 C   0  0  0  0  0  0  0  0  0  0  0  0
   57.2160   28.3500   45.2930 C   0  0  0  0  0  0  0  0  0  0  0  0
   57.3860   27.6750   44.2430 O   0  0  0  0  0  0  0  0  0  0  0  0
   56.5820   29.6320   45.1910 N   0  0  0  0  0  0  0  0  0  0  0  0
   57.0810   30.7970   44.5190 C   0  0  0  0  0  0  0  0  0  0  0  0
   57.4680   30.7610   43.1680 C   0  0  0  0  0  0  0  0  0  0  0  0
   57.9780   31.9050   42.5510 C   0  0  0  0  0  0  0  0  0  0  0  0
   58.1290   33.0880   43.2800 C   0  0  0  0  0  0  0  0  0  0  0  0
   57.7800   33.1290   44.6400 C   0  0  0  0  0  0  0  0  0  0  0  0
   58.0320   34.3810   45.4450 C   0  0  0  0  0  0  0  0  0  0  0  0
   59.1300   34.2050   46.4600 C   0  0  0  0  0  0  0  0  0  0  0  0
   58.8550   34.1710   47.7930 N   0  0  0  0  0  0  0  0  0  0  0  0
   59.8290   33.9690   48.7150 C   0  0  0  0  0  0  0  0  0  0  0  0
   59.5250   33.9440   49.9370 O   0  0  0  0  0  0  0  0  0  0  0  0
   61.1560   33.7810   48.2950 C   0  0  0  0  0  0  0  0  0  0  0  0
   62.2040   33.5330   49.1990 C   0  0  0  0  0  0  0  0  0  0  0  0
   63.5140   33.3340   48.7320 C   0  0  0  0  0  0  0  0  0  0  0  0
   64.5970   32.9980   49.6910 C   0  0  0  0  0  0  0  0  0  0  0  0
   65.7730   33.3870   49.4510 O   0  0  0  0  0  0  0  0  0  0  0  0
   64.3400   32.2530   50.8940 N   0  0  0  0  0  0  0  0  0  0  0  0
   63.5210   31.0340   50.8630 C   0  0  0  0  0  0  0  0  0  0  0  0
   64.2830   29.8810   51.5290 C   0  0  0  0  0  0  0  0  0  0  0  0
   64.8620   30.2800   52.8240 N   0  0  0  0  0  0  0  0  0  0  0  0
   65.5410   29.2760   53.6140 C   0  0  0  0  0  0  0  0  0  0  0  0
   65.9990   29.5390   55.0200 C   0  0  0  0  0  0  0  0  0  0  0  0
   65.7820   28.1450   53.1110 O   0  0  0  0  0  0  0  0  0  0  0  0
   64.7250   31.6720   53.2820 C   0  0  0  0  0  0  0  0  0  0  0  0
   65.0390   32.6350   52.1310 C   0  0  0  0  0  0  0  0  0  0  0  0
   63.7660   33.3900   47.3500 C   0  0  0  0  0  0  0  0  0  0  0  0
   62.7280   33.6360   46.4470 C   0  0  0  0  0  0  0  0  0  0  0  0
   61.4240   33.8260   46.9120 C   0  0  0  0  0  0  0  0  0  0  0  0
   60.4090   34.0320   46.0320 N   0  0  0  0  0  0  0  0  0  0  0  0
   57.2690   31.9740   45.2560 C   0  0  0  0  0  0  0  0  0  0  0  0
   59.8030   29.1790   46.1280 C   0  0  0  0  0  0  0  0  0  0  0  0
   60.8990   29.9300   46.5610 C   0  0  0  0  0  0  0  0  0  0  0  0
   61.1260   30.1210   47.9290 C   0  0  0  0  0  0  0  0  0  0  0  0
   62.2230   30.8640   48.3450 O   0  0  0  0  0  0  0  0  0  0  0  0
   60.2458   30.8137   52.0173 H   0  0  0  0  0  0  0  0  0  0  0  0
   60.9233   31.7742   50.6589 H   0  0  0  0  0  0  0  0  0  0  0  0
   59.1853   31.3205   50.6589 H   0  0  0  0  0  0  0  0  0  0  0  0
   58.4503   28.3851   49.1703 H   0  0  0  0  0  0  0  0  0  0  0  0
   58.0279   26.7593   46.4698 H   0  0  0  0  0  0  0  0  0  0  0  0
   56.9399   27.8898   47.3591 H   0  0  0  0  0  0  0  0  0  0  0  0
   57.3686   29.8276   42.5945 H   0  0  0  0  0  0  0  0  0  0  0  0
   58.2616   31.8752   41.4886 H   0  0  0  0  0  0  0  0  0  0  0  0
   58.5223   33.9894   42.7873 H   0  0  0  0  0  0  0  0  0  0  0  0
   58.3147   35.1914   44.7570 H   0  0  0  0  0  0  0  0  0  0  0  0
   57.1073   34.6175   45.9918 H   0  0  0  0  0  0  0  0  0  0  0  0
   61.9969   33.4946   50.2786 H   0  0  0  0  0  0  0  0  0  0  0  0
   62.5804   31.2117   51.4049 H   0  0  0  0  0  0  0  0  0  0  0  0
   63.3014   30.7696   49.8181 H   0  0  0  0  0  0  0  0  0  0  0  0
   63.5887   29.0437   51.6928 H   0  0  0  0  0  0  0  0  0  0  0  0
   65.1078   29.5879   50.8628 H   0  0  0  0  0  0  0  0  0  0  0  0
   65.2689   29.1197   55.7279 H   0  0  0  0  0  0  0  0  0  0  0  0
   66.9790   29.0661   55.1809 H   0  0  0  0  0  0  0  0  0  0  0  0
   66.0845   30.6238   55.1809 H   0  0  0  0  0  0  0  0  0  0  0  0
   63.6950   31.8419   53.6286 H   0  0  0  0  0  0  0  0  0  0  0  0
   65.4302   31.8523   54.1068 H   0  0  0  0  0  0  0  0  0  0  0  0
   64.7247   33.6490   52.4191 H   0  0  0  0  0  0  0  0  0  0  0  0
   66.1213   32.5968   51.9383 H   0  0  0  0  0  0  0  0  0  0  0  0
   64.7894   33.2388   46.9760 H   0  0  0  0  0  0  0  0  0  0  0  0
   62.9379   33.6801   45.3681 H   0  0  0  0  0  0  0  0  0  0  0  0
   57.0144   31.9939   46.3259 H   0  0  0  0  0  0  0  0  0  0  0  0
   59.6264   29.0373   45.0516 H   0  0  0  0  0  0  0  0  0  0  0  0
   61.5857   30.3726   45.8244 H   0  0  0  0  0  0  0  0  0  0  0  0
  1  2  1  0
  2  3  1  0
  3  4  2  0
  4  5  1  0
  5  6  1  0
  6  7  1  0
  7  8  2  0
  7  9  1  0
  9 10  1  0
 10 11  2  0
 11 12  1  0
 12 13  2  0
 13 14  1  0
 14 15  1  0
 15 16  1  0
 16 17  2  0
 17 18  1  0
 18 19  2  0
 18 20  1  0
 20 21  2  0
 21 22  1  0
 22 23  1  0
 23 24  2  0
 23 25  1  0
 25 26  1  0
 26 27  1  0
 27 28  1  0
 28 29  1  0
 29 30  1  0
 29 31  2  0
 28 32  1  0
 32 33  1  0
 22 34  2  0
 34 35  1  0
 35 36  2  0
 36 37  1  0
 14 38  2  0
  5 39  2  0
 39 40  1  0
 40 41  2  0
 41 42  1  0
 41  3  1  0
 38 10  1  0
 37 16  1  0
 36 20  1  0
 33 25  1  0
  1 43  1  0
  1 44  1  0
  1 45  1  0
  4 46  1  0
  6 47  1  0
  6 48  1  0
 11 49  1  0
 12 50  1  0
 13 51  1  0
 15 52  1  0
 15 53  1  0
 21 54  1  0
 26 55  1  0
 26 56  1  0
 27 57  1  0
 27 58  1  0
 30 59  1  0
 30 60  1  0
 30 61  1  0
 32 62  1  0
 32 63  1  0
 33 64  1  0
 33 65  1  0
 34 66  1  0
 35 67  1  0
 38 68  1  0
 39 69  1  0
 40 70  1  0
M  CHG  3   9  -1  37  -1  42  -1
M  END
>  <UniqueID>  (67) 
67

>  <SMILES>  (67) 
COc1cc(CC(=O)[N-]c2cccc(Cc3nc(=O)c4cc(C(=O)N5CCN(C(C)=O)CC5)ccc4[n-]3)c2)ccc1[O-]

>  <Energy>  (67) 
88.25346501863794

>  <Genealogy>  (67) 
COc1cc(CC(=O)[N-]c2cccc(Cc3nc(=O)c4cc(C(=O)N5CCN(C(C)=O)CC5)ccc4[n-]3)c2)ccc1[O-] (protonated)
COc1cc(CC(=O)[N-]c2cccc(Cc3nc(=O)c4cc(C(=O)N5CCN(C(C)=O)CC5)ccc4[n-]3)c2)ccc1[O-] (3D coordinates assigned)
COc1cc(CC(=O)[N-]c2cccc(Cc3nc(=O)c4cc(C(=O)N5CCN(C(C)=O)CC5)ccc4[n-]3)c2)ccc1[O-] (nonaromatic ring conformer: 88.25346501863794 kcal/mol)

>  <smiles>  (67) 
COc1cc(CC(=O)Nc2cccc(Cc3nc(=O)c4cc(C(=O)N5CCN(C(C)=O)CC5)ccc4[nH]3)c2)ccc1O

>  <score_type>  (67) 
oracle

>  <origin>  (67) 
adg

>  <m_score__min__energy>  (67) 
-14.24

>  <m_primary>  (67) 
energy

$$$$
67:0
     RDKit          3D

 61 65  0  0  0  0  0  0  0  0999 V2000
   52.6780   30.4550   49.1140 H   0  0  0  0  0  0  0  0  0  0  0  0
   51.8050   30.3400   49.6140 O   0  0  0  0  0  0  0  0  0  0  0  0
   51.5100   31.0890   50.7520 C   0  0  0  0  0  0  0  0  0  0  0  0
   51.0210   32.3390   50.7020 N   0  0  0  0  0  0  0  0  0  0  0  0
   50.9600   32.6910   52.0030 C   0  0  0  0  0  0  0  0  0  0  0  0
   50.5530   33.8190   52.3820 O   0  0  0  0  0  0  0  0  0  0  0  0
   51.3810   31.7400   52.8670 N   0  0  0  0  0  0  0  0  0  0  0  0
   51.7100   30.7130   52.0650 C   0  0  0  0  0  0  0  0  0  0  0  0
   52.2700   29.4460   52.5680 C   0  0  0  0  0  0  0  0  0  0  0  0
   51.5788   28.6130   52.7638 H   0  0  0  0  0  0  0  0  0  0  0  0
   53.5830   29.2530   52.8010 C   0  0  0  0  0  0  0  0  0  0  0  0
   54.6300   29.9020   52.1640 C   0  0  0  0  0  0  0  0  0  0  0  0
   54.5463   30.6882   51.3992 H   0  0  0  0  0  0  0  0  0  0  0  0
   55.7980   29.3710   52.6750 C   0  0  0  0  0  0  0  0  0  0  0  0
   57.1730   29.8230   52.2590 C   0  0  0  0  0  0  0  0  0  0  0  0
   57.9202   29.3508   52.9138 H   0  0  0  0  0  0  0  0  0  0  0  0
   57.3366   29.5283   51.2119 H   0  0  0  0  0  0  0  0  0  0  0  0
   57.3040   31.3210   52.3620 C   0  0  0  0  0  0  0  0  0  0  0  0
   56.3010   31.9980   52.7230 O   0  0  0  0  0  0  0  0  0  0  0  0
   58.5570   31.9890   52.1090 N   0  0  0  0  0  0  0  0  0  0  0  0
   59.8290   31.2850   52.3300 C   0  0  0  0  0  0  0  0  0  0  0  0
   59.8219   30.8360   53.3341 H   0  0  0  0  0  0  0  0  0  0  0  0
   59.9370   30.5064   51.5605 H   0  0  0  0  0  0  0  0  0  0  0  0
   61.0170   32.2490   52.2200 C   0  0  0  0  0  0  0  0  0  0  0  0
   61.0199   32.9150   53.0955 H   0  0  0  0  0  0  0  0  0  0  0  0
   61.9422   31.6554   52.1785 H   0  0  0  0  0  0  0  0  0  0  0  0
   60.9340   33.0680   50.9930 N   0  0  0  0  0  0  0  0  0  0  0  0
   61.2320   32.2730   49.7800 C   0  0  0  0  0  0  0  0  0  0  0  0
   62.3218   32.2208   49.6399 H   0  0  0  0  0  0  0  0  0  0  0  0
   60.8175   31.2619   49.9060 H   0  0  0  0  0  0  0  0  0  0  0  0
   60.6060   32.9090   48.5670 C   0  0  0  0  0  0  0  0  0  0  0  0
   61.2370   33.9870   47.9220 C   0  0  0  0  0  0  0  0  0  0  0  0
   62.1937   34.3703   48.3064 H   0  0  0  0  0  0  0  0  0  0  0  0
   60.6550   34.5750   46.7940 C   0  0  0  0  0  0  0  0  0  0  0  0
   61.1544   35.4183   46.2945 H   0  0  0  0  0  0  0  0  0  0  0  0
   59.4370   34.0910   46.3000 C   0  0  0  0  0  0  0  0  0  0  0  0
   58.8290   34.6610   45.1740 C   0  0  0  0  0  0  0  0  0  0  0  0
   59.3072   35.5063   44.6575 H   0  0  0  0  0  0  0  0  0  0  0  0
   57.6140   34.1530   44.7090 C   0  0  0  0  0  0  0  0  0  0  0  0
   57.1302   34.5961   43.8260 H   0  0  0  0  0  0  0  0  0  0  0  0
   57.0170   33.0780   45.3730 C   0  0  0  0  0  0  0  0  0  0  0  0
   56.0602   32.6726   45.0120 H   0  0  0  0  0  0  0  0  0  0  0  0
   57.6170   32.5320   46.4650 N   0  0  0  0  0  0  0  0  0  0  0  0
   58.8000   33.0050   46.9430 C   0  0  0  0  0  0  0  0  0  0  0  0
   59.3880   32.4210   48.0700 C   0  0  0  0  0  0  0  0  0  0  0  0
   58.8930   31.5749   48.5691 H   0  0  0  0  0  0  0  0  0  0  0  0
   59.6600   33.8320   50.8700 C   0  0  0  0  0  0  0  0  0  0  0  0
   59.8866   34.9006   50.9994 H   0  0  0  0  0  0  0  0  0  0  0  0
   59.2488   33.5960   49.8774 H   0  0  0  0  0  0  0  0  0  0  0  0
   58.5780   33.4420   51.8960 C   0  0  0  0  0  0  0  0  0  0  0  0
   58.7908   33.9431   52.8519 H   0  0  0  0  0  0  0  0  0  0  0  0
   57.5972   33.7545   51.5083 H   0  0  0  0  0  0  0  0  0  0  0  0
   55.5210   28.4390   53.6180 N   0  0  0  0  0  0  0  0  0  0  0  0
   56.4940   27.6420   54.3730 C   0  0  0  0  0  0  0  0  0  0  0  0
   56.3243   27.7810   55.4509 H   0  0  0  0  0  0  0  0  0  0  0  0
   56.3745   26.5789   54.1171 H   0  0  0  0  0  0  0  0  0  0  0  0
   57.5128   27.9685   54.1171 H   0  0  0  0  0  0  0  0  0  0  0  0
   54.1670   28.3370   53.6810 C   0  0  0  0  0  0  0  0  0  0  0  0
   53.5140   27.4730   54.4740 C   0  0  0  0  0  0  0  0  0  0  0  0
   54.0785   26.7942   55.1302 H   0  0  0  0  0  0  0  0  0  0  0  0
   52.4144   27.4438   54.4677 H   0  0  0  0  0  0  0  0  0  0  0  0
  1  2  1  0
  2  3  1  0
  3  4  1  0
  4  5  1  0
  5  6  2  0
  5  7  1  0
  7  8  1  0
  8  9  1  0
  9 10  1  0
  9 11  2  0
 11 12  1  0
 12 13  1  0
 12 14  2  0
 14 15  1  0
 15 16  1  0
 15 17  1  0
 15 18  1  0
 18 19  2  0
 18 20  1  0
 20 21  1  0
 21 22  1  0
 21 23  1  0
 21 24  1  0
 24 25  1  0
 24 26  1  0
 24 27  1  0
 27 28  1  0
 28 29  1  0
 28 30  1  0
 28 31  1  0
 31 32  2  0
 32 33  1  0
 32 34  1  0
 34 35  1  0
 34 36  2  0
 36 37  1  0
 37 38  1  0
 37 39  2  0
 39 40  1  0
 39 41  1  0
 41 42  1  0
 41 43  2  0
 43 44  1  0
 44 45  2  0
 45 46  1  0
 27 47  1  0
 47 48  1  0
 47 49  1  0
 47 50  1  0
 50 51  1  0
 50 52  1  0
 14 53  1  0
 53 54  1  0
 54 55  1  0
 54 56  1  0
 54 57  1  0
 53 58  1  0
 58 59  2  0
 59 60  1  0
 59 61  1  0
  8  3  2  0
 58 11  1  0
 50 20  1  0
 45 31  1  0
 44 36  1  0
M  CHG  2   4  -1   7  -1
M  END
>  <UniqueID>  (68) 
68

>  <SMILES>  (68) 
C=c1/c(=C/c2[n-]c(=O)[n-]c2O)cc(CC(=O)N2CCN(Cc3ccc4cccnc4c3)CC2)n1C

>  <Energy>  (68) 
142.62406995008706

>  <Genealogy>  (68) 
C=c1c(=Cc2[n-]c(=O)[n-]c2O)cc(CC(=O)N2CCN(Cc3ccc4cccnc4c3)CC2)n1C (protonated)
C=c1/c(=C/c2[n-]c(=O)[n-]c2O)cc(CC(=O)N2CCN(Cc3ccc4cccnc4c3)CC2)n1C (cis-trans isomerization)
C=c1/c(=C/c2[n-]c(=O)[n-]c2O)cc(CC(=O)N2CCN(Cc3ccc4cccnc4c3)CC2)n1C (3D coordinates assigned)
C=c1/c(=C/c2[n-]c(=O)[n-]c2O)cc(CC(=O)N2CCN(Cc3ccc4cccnc4c3)CC2)n1C (nonaromatic ring conformer: 142.62406995008706 kcal/mol)

>  <smiles>  (68) 
C=c1c(=Cc2[nH]c(=O)[nH]c2O)cc(CC(=O)N2CCN(Cc3ccc4cccnc4c3)CC2)n1C

>  <score_type>  (68) 
oracle

>  <origin>  (68) 
adg

>  <m_score__min__energy>  (68) 
-15.25

>  <m_primary>  (68) 
energy

$$$$
68:0
     RDKit          3D

 59 62  0  0  0  0  0  0  0  0999 V2000
   60.5700   34.5620   49.3950 C   0  0  0  0  0  0  0  0  0  0  0  0
   59.8080   34.0120   48.2310 C   0  0  0  0  0  0  0  0  0  0  0  0
   59.3540   34.7720   47.2060 N   0  0  0  0  0  0  0  0  0  0  0  0
   58.7140   33.9280   46.3790 C   0  0  0  0  0  0  0  0  0  0  0  0
   58.0580   34.2470   45.1920 C   0  0  0  0  0  0  0  0  0  0  0  0
   57.4370   33.2020   44.4820 C   0  0  0  0  0  0  0  0  0  0  0  0
   57.4810   31.8730   44.9670 C   0  0  0  0  0  0  0  0  0  0  0  0
   56.7390   30.5660   44.0430 S   0  0  0  0  0  0  0  0  0  0  0  0
   55.3180   30.3820   44.4970 O   0  0  0  0  0  0  0  0  0  0  0  0
   56.7160   30.9400   42.5860 O   0  0  0  0  0  0  0  0  0  0  0  0
   57.6080   29.0620   44.2480 N   0  0  0  0  0  0  0  0  0  0  0  0
   59.0560   29.3190   44.3990 C   0  0  0  0  0  0  0  0  0  0  0  0
   59.7750   28.1250   45.0340 C   0  0  0  0  0  0  0  0  0  0  0  0
   59.2680   27.8920   46.4740 C   0  0  0  0  0  0  0  0  0  0  0  0
   59.5110   26.4530   46.8780 C   0  0  0  0  0  0  0  0  0  0  0  0
   60.6600   25.9550   46.7370 O   0  0  0  0  0  0  0  0  0  0  0  0
   58.4890   25.6540   47.4900 N   0  0  0  0  0  0  0  0  0  0  0  0
   57.5290   24.8330   46.7620 C   0  0  0  0  0  0  0  0  0  0  0  0
   57.6440   25.1130   45.2660 C   0  0  0  0  0  0  0  0  0  0  0  0
   57.4640   23.8440   44.4760 C   0  0  0  0  0  0  0  0  0  0  0  0
   58.2440   22.7100   44.7670 C   0  0  0  0  0  0  0  0  0  0  0  0
   58.0450   21.5200   44.0600 C   0  0  0  0  0  0  0  0  0  0  0  0
   57.0630   21.4490   43.0670 C   0  0  0  0  0  0  0  0  0  0  0  0
   56.2730   22.5670   42.7840 C   0  0  0  0  0  0  0  0  0  0  0  0
   56.4690   23.7600   43.4870 C   0  0  0  0  0  0  0  0  0  0  0  0
   57.7820   28.3010   46.6450 C   0  0  0  0  0  0  0  0  0  0  0  0
   57.0090   28.2240   45.3170 C   0  0  0  0  0  0  0  0  0  0  0  0
   58.1430   31.5880   46.1800 C   0  0  0  0  0  0  0  0  0  0  0  0
   58.7560   32.6420   46.8560 C   0  0  0  0  0  0  0  0  0  0  0  0
   59.4700   32.6720   48.0390 C   0  0  0  0  0  0  0  0  0  0  0  0
   59.7180   31.5270   48.9710 C   0  0  0  0  0  0  0  0  0  0  0  0
   60.1025   34.2245   50.3318 H   0  0  0  0  0  0  0  0  0  0  0  0
   61.6096   34.2047   49.3546 H   0  0  0  0  0  0  0  0  0  0  0  0
   60.5583   35.6612   49.3546 H   0  0  0  0  0  0  0  0  0  0  0  0
   59.4650   35.8050   47.0880 H   0  0  0  0  0  0  0  0  0  0  0  0
   58.0263   35.2822   44.8215 H   0  0  0  0  0  0  0  0  0  0  0  0
   56.9120   33.4206   43.5404 H   0  0  0  0  0  0  0  0  0  0  0  0
   59.4902   29.5113   43.4068 H   0  0  0  0  0  0  0  0  0  0  0  0
   59.1849   30.1899   45.0584 H   0  0  0  0  0  0  0  0  0  0  0  0
   59.5824   27.2246   44.4322 H   0  0  0  0  0  0  0  0  0  0  0  0
   60.8542   28.3356   45.0664 H   0  0  0  0  0  0  0  0  0  0  0  0
   59.8398   28.5444   47.1504 H   0  0  0  0  0  0  0  0  0  0  0  0
   57.7382   23.7700   46.9523 H   0  0  0  0  0  0  0  0  0  0  0  0
   56.5110   25.0752   47.1011 H   0  0  0  0  0  0  0  0  0  0  0  0
   56.8680   25.8352   44.9723 H   0  0  0  0  0  0  0  0  0  0  0  0
   58.6430   25.5232   45.0569 H   0  0  0  0  0  0  0  0  0  0  0  0
   59.0123   22.7595   45.5526 H   0  0  0  0  0  0  0  0  0  0  0  0
   58.6623   20.6379   44.2855 H   0  0  0  0  0  0  0  0  0  0  0  0
   56.9122   20.5134   42.5086 H   0  0  0  0  0  0  0  0  0  0  0  0
   55.4962   22.5083   42.0074 H   0  0  0  0  0  0  0  0  0  0  0  0
   55.8419   24.6361   43.2650 H   0  0  0  0  0  0  0  0  0  0  0  0
   57.3084   27.6246   47.3718 H   0  0  0  0  0  0  0  0  0  0  0  0
   57.7536   29.3431   46.9959 H   0  0  0  0  0  0  0  0  0  0  0  0
   56.9984   27.1777   44.9777 H   0  0  0  0  0  0  0  0  0  0  0  0
   55.9943   28.6051   45.5042 H   0  0  0  0  0  0  0  0  0  0  0  0
   58.1745   30.5640   46.5806 H   0  0  0  0  0  0  0  0  0  0  0  0
   59.6421   31.8776   50.0109 H   0  0  0  0  0  0  0  0  0  0  0  0
   58.9693   30.7409   48.7935 H   0  0  0  0  0  0  0  0  0  0  0  0
   60.7249   31.1212   48.7935 H   0  0  0  0  0  0  0  0  0  0  0  0
  1  2  1  0
  2  3  1  0
  3  4  1  0
  4  5  2  0
  5  6  1  0
  6  7  2  0
  7  8  1  0
  8  9  2  0
  8 10  2  0
  8 11  1  0
 11 12  1  0
 12 13  1  0
 13 14  1  0
 14 15  1  0
 15 16  2  0
 15 17  1  0
 17 18  1  0
 18 19  1  0
 19 20  1  0
 20 21  2  0
 21 22  1  0
 22 23  2  0
 23 24  1  0
 24 25  2  0
 14 26  1  0
 26 27  1  0
  7 28  1  0
 28 29  2  0
 29 30  1  0
 30 31  1  0
 30  2  2  0
 29  4  1  0
 27 11  1  0
 25 20  1  0
  1 32  1  0
  1 33  1  0
  1 34  1  0
  3 35  1  0
  5 36  1  0
  6 37  1  0
 12 38  1  0
 12 39  1  0
 13 40  1  0
 13 41  1  0
 14 42  1  0
 18 43  1  0
 18 44  1  0
 19 45  1  0
 19 46  1  0
 21 47  1  0
 22 48  1  0
 23 49  1  0
 24 50  1  0
 25 51  1  0
 26 52  1  0
 26 53  1  0
 27 54  1  0
 27 55  1  0
 28 56  1  0
 31 57  1  0
 31 58  1  0
 31 59  1  0
M  CHG  1  17  -1
M  END
>  <UniqueID>  (69) 
69

>  <SMILES>  (69) 
Cc1[nH]c2ccc(S(=O)(=O)N3CCC(C(=O)[N-]CCc4ccccc4)CC3)cc2c1C

>  <Energy>  (69) 
93.6451499028895

>  <Genealogy>  (69) 
Cc1[nH]c2ccc(S(=O)(=O)N3CCC(C(=O)[N-]CCc4ccccc4)CC3)cc2c1C (protonated)
Cc1[nH]c2ccc(S(=O)(=O)N3CCC(C(=O)[N-]CCc4ccccc4)CC3)cc2c1C (3D coordinates assigned)
Cc1[nH]c2ccc(S(=O)(=O)N3CCC(C(=O)[N-]CCc4ccccc4)CC3)cc2c1C (nonaromatic ring conformer: 93.6451499028895 kcal/mol)

>  <smiles>  (69) 
Cc1[nH]c2ccc(S(=O)(=O)N3CCC(C(=O)NCCc4ccccc4)CC3)cc2c1C

>  <score_type>  (69) 
oracle

>  <origin>  (69) 
adg

>  <m_score__min__energy>  (69) 
-11.57

>  <m_primary>  (69) 
energy

$$$$
69:0
     RDKit          3D

 61 64  0  0  0  0  0  0  0  0999 V2000
   63.3930   33.8550   46.0040 C   0  0  0  0  0  0  0  0  0  0  0  0
   62.9260   33.1270   47.2310 C   0  0  0  0  0  0  0  0  0  0  0  0
   62.3210   31.8660   47.1250 C   0  0  0  0  0  0  0  0  0  0  0  0
   61.9090   31.1840   48.2740 C   0  0  0  0  0  0  0  0  0  0  0  0
   62.1160   31.7470   49.5410 C   0  0  0  0  0  0  0  0  0  0  0  0
   61.5800   30.8770   50.9730 S   0  0  0  0  0  0  0  0  0  0  0  0
   62.7730   30.5500   51.8310 O   0  0  0  0  0  0  0  0  0  0  0  0
   60.8650   29.6120   50.5820 O   0  0  0  0  0  0  0  0  0  0  0  0
   60.5020   31.8950   51.8260 O   0  0  0  0  0  0  0  0  0  0  0  0
   59.1710   31.5900   52.1360 C   0  0  0  0  0  0  0  0  0  0  0  0
   58.7430   31.4080   53.4650 C   0  0  0  0  0  0  0  0  0  0  0  0
   57.3980   31.1540   53.7430 C   0  0  0  0  0  0  0  0  0  0  0  0
   56.4670   31.0870   52.7050 C   0  0  0  0  0  0  0  0  0  0  0  0
   56.8800   31.2570   51.3800 C   0  0  0  0  0  0  0  0  0  0  0  0
   58.2330   31.4910   51.0810 C   0  0  0  0  0  0  0  0  0  0  0  0
   58.6580   31.6600   49.6730 C   0  0  0  0  0  0  0  0  0  0  0  0
   58.9170   30.6390   48.9740 O   0  0  0  0  0  0  0  0  0  0  0  0
   58.8380   32.9810   49.1240 N   0  0  0  0  0  0  0  0  0  0  0  0
   58.8240   33.2740   47.7220 C   0  0  0  0  0  0  0  0  0  0  0  0
   59.5070   34.4060   47.2570 C   0  0  0  0  0  0  0  0  0  0  0  0
   59.6080   34.6480   45.8850 C   0  0  0  0  0  0  0  0  0  0  0  0
   59.0270   33.7610   44.9710 C   0  0  0  0  0  0  0  0  0  0  0  0
   58.3050   32.6460   45.4270 C   0  0  0  0  0  0  0  0  0  0  0  0
   57.6130   31.4920   44.2810 S   0  0  0  0  0  0  0  0  0  0  0  0
   56.2040   31.1730   44.7010 O   0  0  0  0  0  0  0  0  0  0  0  0
   57.5570   32.1250   42.9180 O   0  0  0  0  0  0  0  0  0  0  0  0
   58.5600   30.0170   44.1790 N   0  0  0  0  0  0  0  0  0  0  0  0
   59.6120   29.9710   45.2350 C   0  0  0  0  0  0  0  0  0  0  0  0
   59.2360   29.0670   46.4210 C   0  0  0  0  0  0  0  0  0  0  0  0
   58.9560   27.6250   45.9600 C   0  0  0  0  0  0  0  0  0  0  0  0
   58.4270   27.5490   44.5200 C   0  0  0  0  0  0  0  0  0  0  0  0
   57.6730   28.8280   44.1490 C   0  0  0  0  0  0  0  0  0  0  0  0
   58.1720   32.4290   46.8040 C   0  0  0  0  0  0  0  0  0  0  0  0
   62.7340   32.9980   49.6510 C   0  0  0  0  0  0  0  0  0  0  0  0
   63.1410   33.6840   48.5020 C   0  0  0  0  0  0  0  0  0  0  0  0
   63.9648   34.7463   46.3018 H   0  0  0  0  0  0  0  0  0  0  0  0
   64.0342   33.1911   45.4055 H   0  0  0  0  0  0  0  0  0  0  0  0
   62.5223   34.1610   45.4055 H   0  0  0  0  0  0  0  0  0  0  0  0
   62.1701   31.4120   46.1345 H   0  0  0  0  0  0  0  0  0  0  0  0
   61.4208   30.2024   48.1834 H   0  0  0  0  0  0  0  0  0  0  0  0
   59.4709   31.4661   54.2877 H   0  0  0  0  0  0  0  0  0  0  0  0
   57.0714   31.0063   54.7830 H   0  0  0  0  0  0  0  0  0  0  0  0
   55.4066   30.9001   52.9298 H   0  0  0  0  0  0  0  0  0  0  0  0
   56.1412   31.2073   50.5666 H   0  0  0  0  0  0  0  0  0  0  0  0
   59.9640   35.1047   47.9732 H   0  0  0  0  0  0  0  0  0  0  0  0
   60.1449   35.5369   45.5222 H   0  0  0  0  0  0  0  0  0  0  0  0
   59.1364   33.9381   43.8909 H   0  0  0  0  0  0  0  0  0  0  0  0
   59.0510   30.0580   43.2530 H   0  0  0  0  0  0  0  0  0  0  0  0
   60.5421   29.5917   44.7866 H   0  0  0  0  0  0  0  0  0  0  0  0
   59.7303   30.9926   45.6254 H   0  0  0  0  0  0  0  0  0  0  0  0
   60.0670   29.0576   47.1416 H   0  0  0  0  0  0  0  0  0  0  0  0
   58.3221   29.4662   46.8851 H   0  0  0  0  0  0  0  0  0  0  0  0
   59.8914   27.0493   46.0210 H   0  0  0  0  0  0  0  0  0  0  0  0
   58.1777   27.2133   46.6193 H   0  0  0  0  0  0  0  0  0  0  0  0
   59.2744   27.4174   43.8311 H   0  0  0  0  0  0  0  0  0  0  0  0
   57.7350   26.6974   44.4434 H   0  0  0  0  0  0  0  0  0  0  0  0
   57.2600   28.7170   43.1355 H   0  0  0  0  0  0  0  0  0  0  0  0
   56.8717   28.9796   44.8871 H   0  0  0  0  0  0  0  0  0  0  0  0
   57.5555   31.5948   47.1699 H   0  0  0  0  0  0  0  0  0  0  0  0
   62.9000   33.4427   50.6433 H   0  0  0  0  0  0  0  0  0  0  0  0
   63.6317   34.6642   48.5944 H   0  0  0  0  0  0  0  0  0  0  0  0
  1  2  1  0
  2  3  2  0
  3  4  1  0
  4  5  2  0
  5  6  1  0
  6  7  2  0
  6  8  2  0
  6  9  1  0
  9 10  1  0
 10 11  2  0
 11 12  1  0
 12 13  2  0
 13 14  1  0
 14 15  2  0
 15 16  1  0
 16 17  2  0
 16 18  1  0
 18 19  1  0
 19 20  2  0
 20 21  1  0
 21 22  2  0
 22 23  1  0
 23 24  1  0
 24 25  2  0
 24 26  2  0
 24 27  1  0
 27 28  1  0
 28 29  1  0
 29 30  1  0
 30 31  1  0
 31 32  1  0
 23 33  2  0
  5 34  1  0
 34 35  2  0
 35  2  1  0
 15 10  1  0
 33 19  1  0
 32 27  1  0
  1 36  1  0
  1 37  1  0
  1 38  1  0
  3 39  1  0
  4 40  1  0
 11 41  1  0
 12 42  1  0
 13 43  1  0
 14 44  1  0
 20 45  1  0
 21 46  1  0
 22 47  1  0
 27 48  1  0
 28 49  1  0
 28 50  1  0
 29 51  1  0
 29 52  1  0
 30 53  1  0
 30 54  1  0
 31 55  1  0
 31 56  1  0
 32 57  1  0
 32 58  1  0
 33 59  1  0
 34 60  1  0
 35 61  1  0
M  CHG  2  18  -1  27   1
M  END
>  <UniqueID>  (70) 
70

>  <SMILES>  (70) 
Cc1ccc(S(=O)(=O)Oc2ccccc2C(=O)[N-]c2cccc(S(=O)(=O)[NH+]3CCCCC3)c2)cc1

>  <Energy>  (70) 
74.51102152172221

>  <Genealogy>  (70) 
Cc1ccc(S(=O)(=O)Oc2ccccc2C(=O)[N-]c2cccc(S(=O)(=O)[NH+]3CCCCC3)c2)cc1 (protonated)
Cc1ccc(S(=O)(=O)Oc2ccccc2C(=O)[N-]c2cccc(S(=O)(=O)[NH+]3CCCCC3)c2)cc1 (3D coordinates assigned)
Cc1ccc(S(=O)(=O)Oc2ccccc2C(=O)[N-]c2cccc(S(=O)(=O)[NH+]3CCCCC3)c2)cc1 (nonaromatic ring conformer: 74.51102152172221 kcal/mol)

>  <smiles>  (70) 
Cc1ccc(S(=O)(=O)Oc2ccccc2C(=O)Nc2cccc(S(=O)(=O)N3CCCCC3)c2)cc1

>  <score_type>  (70) 
oracle

>  <origin>  (70) 
adg

>  <m_score__min__energy>  (70) 
-11.640000000000001

>  <m_primary>  (70) 
energy

$$$$
70:0
     RDKit          3D

 68 72  0  0  0  0  0  0  0  0999 V2000
   55.9030   22.4120   48.6410 C   0  0  0  0  0  0  0  0  0  0  0  0
   57.0820   22.9330   48.0360 O   0  0  0  0  0  0  0  0  0  0  0  0
   57.0990   23.6910   46.8550 C   0  0  0  0  0  0  0  0  0  0  0  0
   57.7260   23.2410   45.6770 C   0  0  0  0  0  0  0  0  0  0  0  0
   57.7220   24.0390   44.5300 C   0  0  0  0  0  0  0  0  0  0  0  0
   57.0870   25.2830   44.5430 C   0  0  0  0  0  0  0  0  0  0  0  0
   56.4350   25.7310   45.7030 C   0  0  0  0  0  0  0  0  0  0  0  0
   55.8000   27.0150   45.7580 N   0  0  0  0  0  0  0  0  0  0  0  0
   56.3210   28.2470   45.2410 C   0  0  0  0  0  0  0  0  0  0  0  0
   55.5140   29.1540   44.9080 O   0  0  0  0  0  0  0  0  0  0  0  0
   57.7930   28.4610   45.0140 C   0  0  0  0  0  0  0  0  0  0  0  0
   58.3990   29.1030   46.1950 N   0  0  0  0  0  0  0  0  0  0  0  0
   58.3380   30.4680   46.3790 C   0  0  0  0  0  0  0  0  0  0  0  0
   57.7210   31.1810   45.5370 O   0  0  0  0  0  0  0  0  0  0  0  0
   58.9530   31.0680   47.4650 N   0  0  0  0  0  0  0  0  0  0  0  0
   58.9490   32.5400   47.5930 C   0  0  0  0  0  0  0  0  0  0  0  0
   60.3530   33.0470   47.8080 C   0  0  0  0  0  0  0  0  0  0  0  0
   61.3160   32.9180   46.7930 C   0  0  0  0  0  0  0  0  0  0  0  0
   62.6020   33.4380   46.9710 C   0  0  0  0  0  0  0  0  0  0  0  0
   62.9350   34.0910   48.1600 C   0  0  0  0  0  0  0  0  0  0  0  0
   61.9830   34.2240   49.1750 C   0  0  0  0  0  0  0  0  0  0  0  0
   60.6960   33.7060   49.0010 C   0  0  0  0  0  0  0  0  0  0  0  0
   59.6330   30.3020   48.3870 C   0  0  0  0  0  0  0  0  0  0  0  0
   60.1990   30.8320   49.3820 O   0  0  0  0  0  0  0  0  0  0  0  0
   59.6950   28.9250   48.1930 C   0  0  0  0  0  0  0  0  0  0  0  0
   59.0950   28.3650   47.1060 C   0  0  0  0  0  0  0  0  0  0  0  0
   59.3700   27.0090   47.1210 C   0  0  0  0  0  0  0  0  0  0  0  0
   60.1440   26.8090   48.2560 C   0  0  0  0  0  0  0  0  0  0  0  0
   60.3360   27.9780   48.9160 N   0  0  0  0  0  0  0  0  0  0  0  0
   61.1510   28.1440   50.1230 C   0  0  0  0  0  0  0  0  0  0  0  0
   60.6550   27.2760   51.2500 C   0  0  0  0  0  0  0  0  0  0  0  0
   60.7390   26.0220   51.1680 O   0  0  0  0  0  0  0  0  0  0  0  0
   60.0700   27.8530   52.4230 N   0  0  0  0  0  0  0  0  0  0  0  0
   60.4110   29.1730   52.9400 C   0  0  0  0  0  0  0  0  0  0  0  0
   59.4950   30.1960   52.3340 C   0  0  0  0  0  0  0  0  0  0  0  0
   59.8460   31.5570   52.3430 C   0  0  0  0  0  0  0  0  0  0  0  0
   58.9720   32.5120   51.8130 C   0  0  0  0  0  0  0  0  0  0  0  0
   57.7420   32.1170   51.2810 C   0  0  0  0  0  0  0  0  0  0  0  0
   57.3800   30.7660   51.2810 C   0  0  0  0  0  0  0  0  0  0  0  0
   58.2500   29.8090   51.8100 C   0  0  0  0  0  0  0  0  0  0  0  0
   56.4660   24.9410   46.8590 C   0  0  0  0  0  0  0  0  0  0  0  0
   56.0024   22.4559   49.7356 H   0  0  0  0  0  0  0  0  0  0  0  0
   55.0348   23.0103   48.3274 H   0  0  0  0  0  0  0  0  0  0  0  0
   55.7609   21.3673   48.3274 H   0  0  0  0  0  0  0  0  0  0  0  0
   58.2203   22.2585   45.6598 H   0  0  0  0  0  0  0  0  0  0  0  0
   58.2201   23.6867   43.6147 H   0  0  0  0  0  0  0  0  0  0  0  0
   57.0977   25.9136   43.6418 H   0  0  0  0  0  0  0  0  0  0  0  0
   58.2791   27.4900   44.8380 H   0  0  0  0  0  0  0  0  0  0  0  0
   57.9316   29.1127   44.1387 H   0  0  0  0  0  0  0  0  0  0  0  0
   58.5391   32.9837   46.6737 H   0  0  0  0  0  0  0  0  0  0  0  0
   58.3284   32.8240   48.4557 H   0  0  0  0  0  0  0  0  0  0  0  0
   61.0573   32.4059   45.8545 H   0  0  0  0  0  0  0  0  0  0  0  0
   63.3523   33.3326   46.1735 H   0  0  0  0  0  0  0  0  0  0  0  0
   63.9465   34.5007   48.2977 H   0  0  0  0  0  0  0  0  0  0  0  0
   62.2467   34.7368   50.1117 H   0  0  0  0  0  0  0  0  0  0  0  0
   59.9490   33.8147   49.8011 H   0  0  0  0  0  0  0  0  0  0  0  0
   59.0454   26.2527   46.3911 H   0  0  0  0  0  0  0  0  0  0  0  0
   60.5461   25.8364   48.5759 H   0  0  0  0  0  0  0  0  0  0  0  0
   62.1910   27.8698   49.8922 H   0  0  0  0  0  0  0  0  0  0  0  0
   61.0837   29.1945   50.4422 H   0  0  0  0  0  0  0  0  0  0  0  0
   60.2966   29.1798   54.0340 H   0  0  0  0  0  0  0  0  0  0  0  0
   61.4529   29.4121   52.6804 H   0  0  0  0  0  0  0  0  0  0  0  0
   60.8105   31.8720   52.7679 H   0  0  0  0  0  0  0  0  0  0  0  0
   59.2535   33.5754   51.8151 H   0  0  0  0  0  0  0  0  0  0  0  0
   57.0576   32.8692   50.8617 H   0  0  0  0  0  0  0  0  0  0  0  0
   56.4101   30.4567   50.8644 H   0  0  0  0  0  0  0  0  0  0  0  0
   57.9590   28.7482   51.8162 H   0  0  0  0  0  0  0  0  0  0  0  0
   55.9882   25.3058   47.7802 H   0  0  0  0  0  0  0  0  0  0  0  0
  1  2  1  0
  2  3  1  0
  3  4  2  0
  4  5  1  0
  5  6  2  0
  6  7  1  0
  7  8  1  0
  8  9  1  0
  9 10  2  0
  9 11  1  0
 11 12  1  0
 12 13  1  0
 13 14  2  0
 13 15  1  0
 15 16  1  0
 16 17  1  0
 17 18  2  0
 18 19  1  0
 19 20  2  0
 20 21  1  0
 21 22  2  0
 15 23  1  0
 23 24  2  0
 23 25  1  0
 25 26  2  0
 26 27  1  0
 27 28  2  0
 28 29  1  0
 29 30  1  0
 30 31  1  0
 31 32  2  0
 31 33  1  0
 33 34  1  0
 34 35  1  0
 35 36  2  0
 36 37  1  0
 37 38  2  0
 38 39  1  0
 39 40  2  0
  7 41  2  0
 41  3  1  0
 26 12  1  0
 40 35  1  0
 22 17  1  0
 29 25  1  0
  1 42  1  0
  1 43  1  0
  1 44  1  0
  4 45  1  0
  5 46  1  0
  6 47  1  0
 11 48  1  0
 11 49  1  0
 16 50  1  0
 16 51  1  0
 18 52  1  0
 19 53  1  0
 20 54  1  0
 21 55  1  0
 22 56  1  0
 27 57  1  0
 28 58  1  0
 30 59  1  0
 30 60  1  0
 34 61  1  0
 34 62  1  0
 36 63  1  0
 37 64  1  0
 38 65  1  0
 39 66  1  0
 40 67  1  0
 41 68  1  0
M  CHG  2   8  -1  33  -1
M  END
>  <UniqueID>  (71) 
71

>  <SMILES>  (71) 
COc1cccc([N-]C(=O)Cn2c(=O)n(Cc3ccccc3)c(=O)c3c2ccn3CC(=O)[N-]Cc2ccccc2)c1

>  <Energy>  (71) 
116.24583650708999

>  <Genealogy>  (71) 
COc1cccc([N-]C(=O)Cn2c(=O)n(Cc3ccccc3)c(=O)c3c2ccn3CC(=O)[N-]Cc2ccccc2)c1 (protonated)
COc1cccc([N-]C(=O)Cn2c(=O)n(Cc3ccccc3)c(=O)c3c2ccn3CC(=O)[N-]Cc2ccccc2)c1 (3D coordinates assigned)
COc1cccc([N-]C(=O)Cn2c(=O)n(Cc3ccccc3)c(=O)c3c2ccn3CC(=O)[N-]Cc2ccccc2)c1 (optimized conformer: 116.24583650708999 kcal/mol)

>  <smiles>  (71) 
COc1cccc(NC(=O)Cn2c(=O)n(Cc3ccccc3)c(=O)c3c2ccn3CC(=O)NCc2ccccc2)c1

>  <score_type>  (71) 
oracle

>  <origin>  (71) 
adg

>  <m_score__min__energy>  (71) 
-12.460000000000001

>  <m_primary>  (71) 
energy

$$$$
71:0
     RDKit          3D

 46 48  0  0  0  0  0  0  0  0999 V2000
   57.7740   32.7050   43.4670 C   0  0  0  0  0  0  0  0  0  0  0  0
   58.2000   33.1430   44.8850 C   0  0  0  0  0  0  0  0  0  0  0  0
   59.3160   34.2010   44.8010 C   0  0  0  0  0  0  0  0  0  0  0  0
   56.9700   33.7850   45.5680 C   0  0  0  0  0  0  0  0  0  0  0  0
   58.6820   31.9520   45.7100 C   0  0  0  0  0  0  0  0  0  0  0  0
   58.3610   30.6740   45.4060 N   0  0  0  0  0  0  0  0  0  0  0  0
   58.9340   29.8680   46.2880 N   0  0  0  0  0  0  0  0  0  0  0  0
   58.8060   28.4320   46.2520 C   0  0  0  0  0  0  0  0  0  0  0  0
   59.9280   27.6040   46.0570 C   0  0  0  0  0  0  0  0  0  0  0  0
   59.7880   26.2150   46.0360 C   0  0  0  0  0  0  0  0  0  0  0  0
   58.5320   25.6320   46.2070 C   0  0  0  0  0  0  0  0  0  0  0  0
   57.3960   26.4350   46.4070 C   0  0  0  0  0  0  0  0  0  0  0  0
   56.0980   25.8380   46.5840 N   0  0  0  0  0  0  0  0  0  0  0  0
   55.0980   26.3010   45.9980 O   0  0  0  0  0  0  0  0  0  0  0  0
   55.9410   24.7310   47.3880 O   0  0  0  0  0  0  0  0  0  0  0  0
   57.5440   27.8330   46.4270 C   0  0  0  0  0  0  0  0  0  0  0  0
   59.6320   30.6040   47.1760 C   0  0  0  0  0  0  0  0  0  0  0  0
   59.4850   31.9370   46.8530 C   0  0  0  0  0  0  0  0  0  0  0  0
   60.0610   33.0570   47.6180 C   0  0  0  0  0  0  0  0  0  0  0  0
   59.3190   34.0250   47.9320 O   0  0  0  0  0  0  0  0  0  0  0  0
   61.4780   33.0490   48.0600 C   0  0  0  0  0  0  0  0  0  0  0  0
   62.5300   33.0510   47.1240 C   0  0  0  0  0  0  0  0  0  0  0  0
   63.8620   33.0680   47.5520 C   0  0  0  0  0  0  0  0  0  0  0  0
   64.1610   33.0870   48.9200 C   0  0  0  0  0  0  0  0  0  0  0  0
   65.4840   33.1090   49.3570 O   0  0  0  0  0  0  0  0  0  0  0  0
   63.1240   33.0910   49.8560 C   0  0  0  0  0  0  0  0  0  0  0  0
   61.7920   33.0750   49.4310 C   0  0  0  0  0  0  0  0  0  0  0  0
   57.0088   31.9182   43.5407 H   0  0  0  0  0  0  0  0  0  0  0  0
   57.3610   33.5686   42.9251 H   0  0  0  0  0  0  0  0  0  0  0  0
   58.6487   32.3162   42.9251 H   0  0  0  0  0  0  0  0  0  0  0  0
   59.6227   34.4918   45.8165 H   0  0  0  0  0  0  0  0  0  0  0  0
   60.1791   33.7816   44.2632 H   0  0  0  0  0  0  0  0  0  0  0  0
   58.9433   35.0852   44.2632 H   0  0  0  0  0  0  0  0  0  0  0  0
   57.0844   33.7253   46.6604 H   0  0  0  0  0  0  0  0  0  0  0  0
   56.8909   34.8394   45.2647 H   0  0  0  0  0  0  0  0  0  0  0  0
   56.0598   33.2470   45.2647 H   0  0  0  0  0  0  0  0  0  0  0  0
   60.9221   28.0547   45.9202 H   0  0  0  0  0  0  0  0  0  0  0  0
   60.6716   25.5777   45.8840 H   0  0  0  0  0  0  0  0  0  0  0  0
   58.4302   24.5369   46.1851 H   0  0  0  0  0  0  0  0  0  0  0  0
   56.6598   28.4688   46.5818 H   0  0  0  0  0  0  0  0  0  0  0  0
   60.2201   30.2080   48.0170 H   0  0  0  0  0  0  0  0  0  0  0  0
   62.3028   33.0391   46.0478 H   0  0  0  0  0  0  0  0  0  0  0  0
   64.6761   33.0664   46.8123 H   0  0  0  0  0  0  0  0  0  0  0  0
   66.2570   32.9940   48.7110 H   0  0  0  0  0  0  0  0  0  0  0  0
   63.3561   33.1068   50.9311 H   0  0  0  0  0  0  0  0  0  0  0  0
   60.9823   33.0828   50.1755 H   0  0  0  0  0  0  0  0  0  0  0  0
  1  2  1  0
  2  3  1  0
  2  4  1  0
  2  5  1  0
  5  6  2  0
  6  7  1  0
  7  8  1  0
  8  9  2  0
  9 10  1  0
 10 11  2  0
 11 12  1  0
 12 13  1  0
 13 14  2  0
 13 15  1  0
 12 16  2  0
  7 17  1  0
 17 18  2  0
 18 19  1  0
 19 20  2  0
 19 21  1  0
 21 22  2  0
 22 23  1  0
 23 24  2  0
 24 25  1  0
 24 26  1  0
 26 27  2  0
 18  5  1  0
 27 21  1  0
 16  8  1  0
  1 28  1  0
  1 29  1  0
  1 30  1  0
  3 31  1  0
  3 32  1  0
  3 33  1  0
  4 34  1  0
  4 35  1  0
  4 36  1  0
  9 37  1  0
 10 38  1  0
 11 39  1  0
 16 40  1  0
 17 41  1  0
 22 42  1  0
 23 43  1  0
 25 44  1  0
 26 45  1  0
 27 46  1  0
M  CHG  2  13   1  15  -1
M  END
>  <UniqueID>  (72) 
72

>  <SMILES>  (72) 
CC(C)(C)c1nn(-c2cccc([N+](=O)[O-])c2)cc1C(=O)c1ccc(O)cc1

>  <Energy>  (72) 
86.97944884556554

>  <Genealogy>  (72) 
CC(C)(C)c1nn(-c2cccc([N+](=O)[O-])c2)cc1C(=O)c1ccc(O)cc1 (3D coordinates assigned)
CC(C)(C)c1nn(-c2cccc([N+](=O)[O-])c2)cc1C(=O)c1ccc(O)cc1 (optimized conformer: 86.97944884556554 kcal/mol)

>  <smiles>  (72) 
CC(C)(C)c1nn(-c2cccc([N+](=O)[O-])c2)cc1C(=O)c1ccc(O)cc1

>  <score_type>  (72) 
oracle

>  <origin>  (72) 
adg

>  <m_score__min__energy>  (72) 
-9.4000000000000004

>  <m_primary>  (72) 
energy

$$$$
72:0
     RDKit          3D

 47 49  0  0  0  0  0  0  0  0999 V2000
   57.9500   30.4880   44.5870 C   0  0  0  0  0  0  0  0  0  0  0  0
   57.8050   29.1640   45.2230 N   0  0  0  0  0  0  0  0  0  0  0  0
   58.9040   28.5280   45.7570 C   0  0  0  0  0  0  0  0  0  0  0  0
   60.3000   29.0940   45.6580 C   0  0  0  0  0  0  0  0  0  0  0  0
   60.7170   29.6790   46.9300 N   0  0  0  0  0  0  0  0  0  0  0  0
   60.0160   30.7030   47.6510 C   0  0  0  0  0  0  0  0  0  0  0  0
   59.4400   30.3990   48.7280 O   0  0  0  0  0  0  0  0  0  0  0  0
   59.9140   32.0850   47.1500 C   0  0  0  0  0  0  0  0  0  0  0  0
   58.6600   32.6750   46.9160 C   0  0  0  0  0  0  0  0  0  0  0  0
   58.5780   33.9920   46.4530 C   0  0  0  0  0  0  0  0  0  0  0  0
   59.7430   34.7270   46.2200 C   0  0  0  0  0  0  0  0  0  0  0  0
   59.6610   36.0070   45.7810 F   0  0  0  0  0  0  0  0  0  0  0  0
   60.9940   34.1390   46.4300 C   0  0  0  0  0  0  0  0  0  0  0  0
   61.0800   32.8210   46.8860 C   0  0  0  0  0  0  0  0  0  0  0  0
   58.7610   27.3130   46.3480 N   0  0  0  0  0  0  0  0  0  0  0  0
   57.5660   26.6870   46.4390 C   0  0  0  0  0  0  0  0  0  0  0  0
   57.5160   25.3440   47.0400 C   0  0  0  0  0  0  0  0  0  0  0  0
   58.5470   24.6190   47.0100 O   0  0  0  0  0  0  0  0  0  0  0  0
   56.3320   24.8380   47.6690 N   0  0  0  0  0  0  0  0  0  0  0  0
   55.7440   23.5240   47.4220 C   0  0  0  0  0  0  0  0  0  0  0  0
   56.0920   23.0120   46.0490 C   0  0  0  0  0  0  0  0  0  0  0  0
   55.5940   23.6510   44.9010 C   0  0  0  0  0  0  0  0  0  0  0  0
   55.8890   23.1470   43.6300 C   0  0  0  0  0  0  0  0  0  0  0  0
   56.6680   21.9940   43.4960 C   0  0  0  0  0  0  0  0  0  0  0  0
   56.9550   21.5100   42.2630 F   0  0  0  0  0  0  0  0  0  0  0  0
   57.1470   21.3400   44.6330 C   0  0  0  0  0  0  0  0  0  0  0  0
   56.8580   21.8430   45.9060 C   0  0  0  0  0  0  0  0  0  0  0  0
   56.4300   27.3030   45.8990 C   0  0  0  0  0  0  0  0  0  0  0  0
   55.1630   26.7150   45.9670 O   0  0  0  0  0  0  0  0  0  0  0  0
   56.5740   28.5550   45.2910 C   0  0  0  0  0  0  0  0  0  0  0  0
   55.5510   29.1130   44.8080 O   0  0  0  0  0  0  0  0  0  0  0  0
   58.0347   31.2611   45.3649 H   0  0  0  0  0  0  0  0  0  0  0  0
   58.8545   30.4970   43.9611 H   0  0  0  0  0  0  0  0  0  0  0  0
   57.0689   30.6926   43.9611 H   0  0  0  0  0  0  0  0  0  0  0  0
   60.9972   28.2875   45.3868 H   0  0  0  0  0  0  0  0  0  0  0  0
   60.3061   29.8817   44.8902 H   0  0  0  0  0  0  0  0  0  0  0  0
   57.7405   32.0992   47.0976 H   0  0  0  0  0  0  0  0  0  0  0  0
   57.5944   34.4501   46.2719 H   0  0  0  0  0  0  0  0  0  0  0  0
   61.9112   34.7144   46.2361 H   0  0  0  0  0  0  0  0  0  0  0  0
   62.0660   32.3579   47.0389 H   0  0  0  0  0  0  0  0  0  0  0  0
   56.1227   22.8160   48.1739 H   0  0  0  0  0  0  0  0  0  0  0  0
   54.6500   23.6179   47.4879 H   0  0  0  0  0  0  0  0  0  0  0  0
   54.9698   24.5510   45.0022 H   0  0  0  0  0  0  0  0  0  0  0  0
   55.5073   23.6588   42.7343 H   0  0  0  0  0  0  0  0  0  0  0  0
   57.7526   20.4278   44.5275 H   0  0  0  0  0  0  0  0  0  0  0  0
   57.2322   21.3209   46.7990 H   0  0  0  0  0  0  0  0  0  0  0  0
   54.8690   26.1320   46.7410 H   0  0  0  0  0  0  0  0  0  0  0  0
  1  2  1  0
  2  3  1  0
  3  4  1  0
  4  5  1  0
  5  6  1  0
  6  7  2  0
  6  8  1  0
  8  9  2  0
  9 10  1  0
 10 11  2  0
 11 12  1  0
 11 13  1  0
 13 14  2  0
  3 15  2  0
 15 16  1  0
 16 17  1  0
 17 18  2  0
 17 19  1  0
 19 20  1  0
 20 21  1  0
 21 22  2  0
 22 23  1  0
 23 24  2  0
 24 25  1  0
 24 26  1  0
 26 27  2  0
 16 28  2  0
 28 29  1  0
 28 30  1  0
 30 31  2  0
 30  2  1  0
 14  8  1  0
 27 21  1  0
  1 32  1  0
  1 33  1  0
  1 34  1  0
  4 35  1  0
  4 36  1  0
  9 37  1  0
 10 38  1  0
 13 39  1  0
 14 40  1  0
 20 41  1  0
 20 42  1  0
 22 43  1  0
 23 44  1  0
 26 45  1  0
 27 46  1  0
 29 47  1  0
M  CHG  2   5  -1  19  -1
M  END
>  <UniqueID>  (73) 
73

>  <SMILES>  (73) 
Cn1c(C[N-]C(=O)c2ccc(F)cc2)nc(C(=O)[N-]Cc2ccc(F)cc2)c(O)c1=O

>  <Energy>  (73) 
57.20350056139252

>  <Genealogy>  (73) 
Cn1c(C[N-]C(=O)c2ccc(F)cc2)nc(C(=O)[N-]Cc2ccc(F)cc2)c(O)c1=O (protonated)
Cn1c(C[N-]C(=O)c2ccc(F)cc2)nc(C(=O)[N-]Cc2ccc(F)cc2)c(O)c1=O (3D coordinates assigned)
Cn1c(C[N-]C(=O)c2ccc(F)cc2)nc(C(=O)[N-]Cc2ccc(F)cc2)c(O)c1=O (optimized conformer: 57.20350056139252 kcal/mol)

>  <smiles>  (73) 
Cn1c(CNC(=O)c2ccc(F)cc2)nc(C(=O)NCc2ccc(F)cc2)c(O)c1=O

>  <score_type>  (73) 
oracle

>  <origin>  (73) 
adg

>  <m_score__min__energy>  (73) 
-11.9

>  <m_primary>  (73) 
energy

$$$$
73:0
     RDKit          3D

 32 33  0  0  0  0  0  0  0  0999 V2000
   53.9520   23.7340   44.4900 C   0  0  0  0  0  0  0  0  0  0  0  0
   55.4020   23.9380   44.6500 N   0  0  0  0  0  0  0  0  0  0  0  0
   55.8630   25.0180   45.3730 C   0  0  0  0  0  0  0  0  0  0  0  0
   54.9820   25.9300   45.9690 O   0  0  0  0  0  0  0  0  0  0  0  0
   57.2450   25.2230   45.5400 C   0  0  0  0  0  0  0  0  0  0  0  0
   57.7510   26.3880   46.2960 C   0  0  0  0  0  0  0  0  0  0  0  0
   57.1130   26.7880   47.3050 O   0  0  0  0  0  0  0  0  0  0  0  0
   58.9600   27.0640   45.9300 N   0  0  0  0  0  0  0  0  0  0  0  0
   59.2490   28.4620   46.2260 C   0  0  0  0  0  0  0  0  0  0  0  0
   58.4400   29.3380   45.3140 C   0  0  0  0  0  0  0  0  0  0  0  0
   57.6680   28.7710   44.2880 C   0  0  0  0  0  0  0  0  0  0  0  0
   56.8890   29.5860   43.4610 C   0  0  0  0  0  0  0  0  0  0  0  0
   56.8660   30.9690   43.6600 C   0  0  0  0  0  0  0  0  0  0  0  0
   57.6190   31.5400   44.6910 C   0  0  0  0  0  0  0  0  0  0  0  0
   57.5810   33.2750   44.9480 Cl  0  0  0  0  0  0  0  0  0  0  0  0
   58.4010   30.7280   45.5210 C   0  0  0  0  0  0  0  0  0  0  0  0
   58.1430   24.3340   44.9480 C   0  0  0  0  0  0  0  0  0  0  0  0
   57.6680   23.2480   44.2240 C   0  0  0  0  0  0  0  0  0  0  0  0
   56.2930   23.0570   44.0810 C   0  0  0  0  0  0  0  0  0  0  0  0
   55.8900   22.0610   43.4190 O   0  0  0  0  0  0  0  0  0  0  0  0
   53.4795   23.6675   45.4811 H   0  0  0  0  0  0  0  0  0  0  0  0
   53.5217   24.5805   43.9347 H   0  0  0  0  0  0  0  0  0  0  0  0
   53.7720   22.8017   43.9347 H   0  0  0  0  0  0  0  0  0  0  0  0
   55.1150   26.3260   46.8890 H   0  0  0  0  0  0  0  0  0  0  0  0
   58.9864   28.6783   47.2721 H   0  0  0  0  0  0  0  0  0  0  0  0
   60.3203   28.6582   46.0718 H   0  0  0  0  0  0  0  0  0  0  0  0
   57.6759   27.6819   44.1340 H   0  0  0  0  0  0  0  0  0  0  0  0
   56.2932   29.1377   42.6523 H   0  0  0  0  0  0  0  0  0  0  0  0
   56.2555   31.6086   43.0056 H   0  0  0  0  0  0  0  0  0  0  0  0
   58.9859   31.1783   46.3365 H   0  0  0  0  0  0  0  0  0  0  0  0
   59.2262   24.4931   45.0546 H   0  0  0  0  0  0  0  0  0  0  0  0
   58.3738   22.5403   43.7645 H   0  0  0  0  0  0  0  0  0  0  0  0
  1  2  1  0
  2  3  1  0
  3  4  1  0
  3  5  2  0
  5  6  1  0
  6  7  2  0
  6  8  1  0
  8  9  1  0
  9 10  1  0
 10 11  2  0
 11 12  1  0
 12 13  2  0
 13 14  1  0
 14 15  1  0
 14 16  2  0
  5 17  1  0
 17 18  2  0
 18 19  1  0
 19 20  2  0
 19  2  1  0
 16 10  1  0
  1 21  1  0
  1 22  1  0
  1 23  1  0
  4 24  1  0
  9 25  1  0
  9 26  1  0
 11 27  1  0
 12 28  1  0
 13 29  1  0
 16 30  1  0
 17 31  1  0
 18 32  1  0
M  CHG  1   8  -1
M  END
>  <UniqueID>  (74) 
74

>  <SMILES>  (74) 
Cn1c(O)c(C(=O)[N-]Cc2cccc(Cl)c2)ccc1=O

>  <Energy>  (74) 
41.3291173324006

>  <Genealogy>  (74) 
Cn1c(O)c(C(=O)[N-]Cc2cccc(Cl)c2)ccc1=O (protonated)
Cn1c(O)c(C(=O)[N-]Cc2cccc(Cl)c2)ccc1=O (3D coordinates assigned)
Cn1c(O)c(C(=O)[N-]Cc2cccc(Cl)c2)ccc1=O (optimized conformer: 41.3291173324006 kcal/mol)

>  <smiles>  (74) 
Cn1c(O)c(C(=O)NCc2cccc(Cl)c2)ccc1=O

>  <score_type>  (74) 
oracle

>  <origin>  (74) 
adg

>  <m_score__min__energy>  (74) 
-10.15

>  <m_primary>  (74) 
energy

$$$$
74:0
     RDKit          3D

 48 51  0  0  0  0  0  0  0  0999 V2000
   58.2250   27.0780   42.6660 C   0  0  0  0  0  0  0  0  0  0  0  0
   58.4300   28.0450   43.7630 N   0  0  0  0  0  0  0  0  0  0  0  0
   57.3010   28.9980   43.8240 C   0  0  0  0  0  0  0  0  0  0  0  0
   57.7570   30.3270   44.3690 C   0  0  0  0  0  0  0  0  0  0  0  0
   58.1880   30.4460   45.6990 C   0  0  0  0  0  0  0  0  0  0  0  0
   58.5950   31.6850   46.2010 C   0  0  0  0  0  0  0  0  0  0  0  0
   58.5860   32.8230   45.3770 C   0  0  0  0  0  0  0  0  0  0  0  0
   59.0180   34.1640   45.9170 C   0  0  0  0  0  0  0  0  0  0  0  0
   59.6830   34.0250   47.2650 C   0  0  0  0  0  0  0  0  0  0  0  0
   58.8930   34.0930   48.3710 N   0  0  0  0  0  0  0  0  0  0  0  0
   59.3870   34.0100   49.6050 N   0  0  0  0  0  0  0  0  0  0  0  0
   60.7130   33.8580   49.8330 C   0  0  0  0  0  0  0  0  0  0  0  0
   61.1300   33.7860   51.0220 O   0  0  0  0  0  0  0  0  0  0  0  0
   61.6010   33.7850   48.7480 C   0  0  0  0  0  0  0  0  0  0  0  0
   62.9860   33.6320   48.9430 C   0  0  0  0  0  0  0  0  0  0  0  0
   63.8480   33.5640   47.8490 C   0  0  0  0  0  0  0  0  0  0  0  0
   63.3430   33.6440   46.5520 C   0  0  0  0  0  0  0  0  0  0  0  0
   61.9710   33.7940   46.3390 C   0  0  0  0  0  0  0  0  0  0  0  0
   61.0810   33.8690   47.4310 C   0  0  0  0  0  0  0  0  0  0  0  0
   58.1370   32.7060   44.0520 C   0  0  0  0  0  0  0  0  0  0  0  0
   57.7290   31.4660   43.5500 C   0  0  0  0  0  0  0  0  0  0  0  0
   58.5740   27.3360   45.0530 C   0  0  0  0  0  0  0  0  0  0  0  0
   57.3600   26.4820   45.3290 C   0  0  0  0  0  0  0  0  0  0  0  0
   56.1670   27.0820   45.7530 C   0  0  0  0  0  0  0  0  0  0  0  0
   55.0750   26.3200   46.0180 N   0  0  0  0  0  0  0  0  0  0  0  0
   55.1150   24.9700   45.8810 C   0  0  0  0  0  0  0  0  0  0  0  0
   54.0920   24.2830   46.1300 O   0  0  0  0  0  0  0  0  0  0  0  0
   56.2600   24.3620   45.4760 N   0  0  0  0  0  0  0  0  0  0  0  0
   57.3780   25.0810   45.2000 C   0  0  0  0  0  0  0  0  0  0  0  0
   58.4240   24.4800   44.8330 O   0  0  0  0  0  0  0  0  0  0  0  0
   58.0143   26.0842   43.0878 H   0  0  0  0  0  0  0  0  0  0  0  0
   57.3754   27.4010   42.0465 H   0  0  0  0  0  0  0  0  0  0  0  0
   59.1326   27.0285   42.0465 H   0  0  0  0  0  0  0  0  0  0  0  0
   56.8949   29.1425   42.8120 H   0  0  0  0  0  0  0  0  0  0  0  0
   56.5271   28.5885   44.4899 H   0  0  0  0  0  0  0  0  0  0  0  0
   58.2056   29.5594   46.3499 H   0  0  0  0  0  0  0  0  0  0  0  0
   58.9243   31.7698   47.2471 H   0  0  0  0  0  0  0  0  0  0  0  0
   59.7283   34.6218   45.2127 H   0  0  0  0  0  0  0  0  0  0  0  0
   58.1245   34.7948   46.0344 H   0  0  0  0  0  0  0  0  0  0  0  0
   63.3909   33.5657   49.9636 H   0  0  0  0  0  0  0  0  0  0  0  0
   64.9298   33.4469   48.0099 H   0  0  0  0  0  0  0  0  0  0  0  0
   64.0279   33.5888   45.6930 H   0  0  0  0  0  0  0  0  0  0  0  0
   61.5814   33.8541   45.3121 H   0  0  0  0  0  0  0  0  0  0  0  0
   58.1059   33.5949   43.4048 H   0  0  0  0  0  0  0  0  0  0  0  0
   57.3846   31.3833   42.5086 H   0  0  0  0  0  0  0  0  0  0  0  0
   59.4664   26.6940   45.0149 H   0  0  0  0  0  0  0  0  0  0  0  0
   58.6742   28.0800   45.8570 H   0  0  0  0  0  0  0  0  0  0  0  0
   56.1149   28.1743   45.8716 H   0  0  0  0  0  0  0  0  0  0  0  0
  1  2  1  0
  2  3  1  0
  3  4  1  0
  4  5  2  0
  5  6  1  0
  6  7  2  0
  7  8  1  0
  8  9  1  0
  9 10  2  0
 10 11  1  0
 11 12  1  0
 12 13  2  0
 12 14  1  0
 14 15  2  0
 15 16  1  0
 16 17  2  0
 17 18  1  0
 18 19  2  0
  7 20  1  0
 20 21  2  0
  2 22  1  0
 22 23  1  0
 23 24  2  0
 24 25  1  0
 25 26  1  0
 26 27  2  0
 26 28  1  0
 28 29  1  0
 29 30  2  0
 21  4  1  0
 29 23  1  0
 19  9  1  0
 19 14  1  0
  1 31  1  0
  1 32  1  0
  1 33  1  0
  3 34  1  0
  3 35  1  0
  5 36  1  0
  6 37  1  0
  8 38  1  0
  8 39  1  0
 15 40  1  0
 16 41  1  0
 17 42  1  0
 18 43  1  0
 20 44  1  0
 21 45  1  0
 22 46  1  0
 22 47  1  0
 24 48  1  0
M  CHG  3  11  -1  25  -1  28  -1
M  END
>  <UniqueID>  (75) 
75

>  <SMILES>  (75) 
CN(Cc1ccc(Cc2n[n-]c(=O)c3ccccc23)cc1)Cc1c[n-]c(=O)[n-]c1=O

>  <Energy>  (75) 
62.634212865939354

>  <Genealogy>  (75) 
CN(Cc1ccc(Cc2n[n-]c(=O)c3ccccc23)cc1)Cc1c[n-]c(=O)[n-]c1=O (protonated)
CN(Cc1ccc(Cc2n[n-]c(=O)c3ccccc23)cc1)Cc1c[n-]c(=O)[n-]c1=O (3D coordinates assigned)
CN(Cc1ccc(Cc2n[n-]c(=O)c3ccccc23)cc1)Cc1c[n-]c(=O)[n-]c1=O (optimized conformer: 62.634212865939354 kcal/mol)

>  <smiles>  (75) 
CN(Cc1ccc(Cc2n[nH]c(=O)c3ccccc23)cc1)Cc1c[nH]c(=O)[nH]c1=O

>  <score_type>  (75) 
oracle

>  <origin>  (75) 
adg

>  <m_score__min__energy>  (75) 
-14.65

>  <m_primary>  (75) 
energy

$$$$
75:0
     RDKit          3D

 34 35  0  0  1  0  0  0  0  0999 V2000
   57.4100   32.4990   43.6010 O   0  0  0  0  0  0  0  0  0  0  0  0
   58.0460   32.0720   44.6080 C   0  0  0  0  0  0  0  0  0  0  0  0
   58.2500   30.6780   44.7870 N   0  0  0  0  0  0  0  0  0  0  0  0
   57.7440   29.6860   43.8310 C   0  0  2  0  0  0  0  0  0  0  0  0
   56.2810   29.4960   44.0040 C   0  0  0  0  0  0  0  0  0  0  0  0
   55.5190   29.6820   43.0220 O   0  0  0  0  0  0  0  0  0  0  0  0
   55.8020   29.1190   45.2480 O   0  0  0  0  0  0  0  0  0  0  0  0
   58.4160   28.4110   44.1180 C   0  0  0  0  0  0  0  0  0  0  0  0
   59.5930   28.4410   44.4290 O   0  0  0  0  0  0  0  0  0  0  0  0
   57.7660   27.0780   44.0590 C   0  0  0  0  0  0  0  0  0  0  0  0
   57.3340   26.5460   45.7600 S   0  0  0  0  0  0  0  0  0  0  0  0
   58.0790   27.7440   46.8580 C   0  0  0  0  0  0  0  0  0  0  0  0
   59.0700   27.4930   47.7400 N   0  0  0  0  0  0  0  0  0  0  0  0
   59.3820   28.6290   48.3990 C   0  0  0  0  0  0  0  0  0  0  0  0
   58.5800   29.6080   47.9300 N   0  0  0  0  0  0  0  0  0  0  0  0
   57.8030   29.0540   47.0010 N   0  0  0  0  0  0  0  0  0  0  0  0
   58.5390   33.0750   45.5430 C   0  0  0  0  0  0  0  0  0  0  0  0
   58.4170   32.8470   46.8840 C   0  0  0  0  0  0  0  0  0  0  0  0
   58.8870   33.8030   47.7760 C   0  0  0  0  0  0  0  0  0  0  0  0
   59.4750   34.9790   47.3690 C   0  0  0  0  0  0  0  0  0  0  0  0
   59.5970   35.2090   46.0200 C   0  0  0  0  0  0  0  0  0  0  0  0
   59.1290   34.2530   45.1370 C   0  0  0  0  0  0  0  0  0  0  0  0
   58.7690   30.3260   45.6090 H   0  0  0  0  0  0  0  0  0  0  0  0
   57.9391   30.0270   42.8035 H   0  0  0  0  0  0  0  0  0  0  0  0
   55.9280   29.7350   46.0530 H   0  0  0  0  0  0  0  0  0  0  0  0
   56.8526   27.1401   43.4492 H   0  0  0  0  0  0  0  0  0  0  0  0
   58.4546   26.3494   43.6062 H   0  0  0  0  0  0  0  0  0  0  0  0
   60.1512   28.7373   49.1778 H   0  0  0  0  0  0  0  0  0  0  0  0
   58.5490   30.6260   48.2190 H   0  0  0  0  0  0  0  0  0  0  0  0
   57.9534   31.9200   47.2525 H   0  0  0  0  0  0  0  0  0  0  0  0
   58.7847   33.6117   48.8544 H   0  0  0  0  0  0  0  0  0  0  0  0
   59.8370   35.7139   48.1030 H   0  0  0  0  0  0  0  0  0  0  0  0
   60.0583   36.1362   45.6492 H   0  0  0  0  0  0  0  0  0  0  0  0
   59.2326   34.4417   44.0583 H   0  0  0  0  0  0  0  0  0  0  0  0
  1  2  2  0
  2  3  1  0
  3  4  1  0
  4  5  1  0
  5  6  2  0
  5  7  1  0
  4  8  1  0
  8  9  2  0
  8 10  1  0
 10 11  1  0
 11 12  1  0
 12 13  1  0
 13 14  2  0
 14 15  1  0
 15 16  1  0
  2 17  1  0
 17 18  2  0
 18 19  1  0
 19 20  2  0
 20 21  1  0
 21 22  2  0
 16 12  2  0
 22 17  1  0
  3 23  1  0
  4 24  1  6
  7 25  1  0
 10 26  1  0
 10 27  1  0
 14 28  1  0
 15 29  1  0
 18 30  1  0
 19 31  1  0
 20 32  1  0
 21 33  1  0
 22 34  1  0
M  END
>  <smiles>  (76) 
O=C(NC(C(=O)O)C(=O)CSc1nc[nH]n1)c1ccccc1

>  <score_type>  (76) 
oracle

>  <origin>  (76) 
adg

>  <m_score__min__energy>  (76) 
-8.0899999999999999

>  <m_primary>  (76) 
energy

$$$$
76:0
     RDKit          3D

 60 62  0  0  0  0  0  0  0  0999 V2000
   66.1230   32.6090   51.9740 C   0  0  0  0  0  0  0  0  0  0  0  0
   65.5520   33.3480   50.8340 N   0  0  0  0  0  0  0  0  0  0  0  0
   65.2050   32.3990   49.7520 C   0  0  0  0  0  0  0  0  0  0  0  0
   64.4760   33.0930   48.5950 C   0  0  0  0  0  0  0  0  0  0  0  0
   63.2530   33.9240   49.0620 C   0  0  0  0  0  0  0  0  0  0  0  0
   61.9500   33.5710   48.2920 C   0  0  0  0  0  0  0  0  0  0  0  0
   61.1000   32.5740   48.9780 N   0  0  0  0  0  0  0  0  0  0  0  0
   61.4500   31.1420   48.9080 C   0  0  0  0  0  0  0  0  0  0  0  0
   60.4720   30.3720   48.0530 C   0  0  0  0  0  0  0  0  0  0  0  0
   60.6390   30.3320   46.6580 C   0  0  0  0  0  0  0  0  0  0  0  0
   59.7460   29.6150   45.8560 C   0  0  0  0  0  0  0  0  0  0  0  0
   58.6600   28.9480   46.4340 C   0  0  0  0  0  0  0  0  0  0  0  0
   57.5750   27.9780   45.4420 S   0  0  0  0  0  0  0  0  0  0  0  0
   58.3660   27.6290   43.8870 C   0  0  0  0  0  0  0  0  0  0  0  0
   56.2940   28.7250   45.1920 O   0  0  0  0  0  0  0  0  0  0  0  0
   57.2560   26.6920   46.1500 O   0  0  0  0  0  0  0  0  0  0  0  0
   58.4650   29.0160   47.8200 C   0  0  0  0  0  0  0  0  0  0  0  0
   59.3580   29.7300   48.6240 C   0  0  0  0  0  0  0  0  0  0  0  0
   59.7860   32.9580   49.4440 C   0  0  0  0  0  0  0  0  0  0  0  0
   59.6240   33.3290   50.6380 O   0  0  0  0  0  0  0  0  0  0  0  0
   58.6870   32.8870   48.5770 O   0  0  0  0  0  0  0  0  0  0  0  0
   58.6790   33.3050   47.2380 C   0  0  0  0  0  0  0  0  0  0  0  0
   59.2280   34.5360   46.8330 C   0  0  0  0  0  0  0  0  0  0  0  0
   59.2260   34.8940   45.4820 C   0  0  0  0  0  0  0  0  0  0  0  0
   58.6920   34.0290   44.5250 C   0  0  0  0  0  0  0  0  0  0  0  0
   58.1280   32.8000   44.9140 C   0  0  0  0  0  0  0  0  0  0  0  0
   57.5770   31.8350   43.8940 C   0  0  0  0  0  0  0  0  0  0  0  0
   56.3640   31.3310   44.3270 F   0  0  0  0  0  0  0  0  0  0  0  0
   58.4660   30.7880   43.7310 F   0  0  0  0  0  0  0  0  0  0  0  0
   57.3800   32.4530   42.6710 F   0  0  0  0  0  0  0  0  0  0  0  0
   58.1470   32.4400   46.2720 C   0  0  0  0  0  0  0  0  0  0  0  0
   63.0880   33.9050   50.5910 C   0  0  0  0  0  0  0  0  0  0  0  0
   64.4260   34.2200   51.2740 C   0  0  0  0  0  0  0  0  0  0  0  0
   65.7746   33.0600   52.9149 H   0  0  0  0  0  0  0  0  0  0  0  0
   65.7996   31.5586   51.9290 H   0  0  0  0  0  0  0  0  0  0  0  0
   67.2210   32.6569   51.9290 H   0  0  0  0  0  0  0  0  0  0  0  0
   66.1299   31.9440   49.3678 H   0  0  0  0  0  0  0  0  0  0  0  0
   64.5320   31.6361   50.1704 H   0  0  0  0  0  0  0  0  0  0  0  0
   65.1836   33.7652   48.0876 H   0  0  0  0  0  0  0  0  0  0  0  0
   64.1026   32.3069   47.9222 H   0  0  0  0  0  0  0  0  0  0  0  0
   63.4647   34.9700   48.7955 H   0  0  0  0  0  0  0  0  0  0  0  0
   61.3648   34.4931   48.1604 H   0  0  0  0  0  0  0  0  0  0  0  0
   62.2560   33.1248   47.3343 H   0  0  0  0  0  0  0  0  0  0  0  0
   62.4571   31.0413   48.4772 H   0  0  0  0  0  0  0  0  0  0  0  0
   61.4156   30.7291   49.9270 H   0  0  0  0  0  0  0  0  0  0  0  0
   61.4791   30.8691   46.1935 H   0  0  0  0  0  0  0  0  0  0  0  0
   59.8975   29.5750   44.7672 H   0  0  0  0  0  0  0  0  0  0  0  0
   59.3583   27.1912   44.0705 H   0  0  0  0  0  0  0  0  0  0  0  0
   57.7518   26.9183   43.3146 H   0  0  0  0  0  0  0  0  0  0  0  0
   58.4769   28.5617   43.3146 H   0  0  0  0  0  0  0  0  0  0  0  0
   57.6050   28.5050   48.2775 H   0  0  0  0  0  0  0  0  0  0  0  0
   59.1888   29.7903   49.7092 H   0  0  0  0  0  0  0  0  0  0  0  0
   59.6594   35.2175   47.5810 H   0  0  0  0  0  0  0  0  0  0  0  0
   59.6470   35.8616   45.1713 H   0  0  0  0  0  0  0  0  0  0  0  0
   58.7123   34.3097   43.4616 H   0  0  0  0  0  0  0  0  0  0  0  0
   57.7389   31.4664   46.5811 H   0  0  0  0  0  0  0  0  0  0  0  0
   62.3436   34.6595   50.8853 H   0  0  0  0  0  0  0  0  0  0  0  0
   62.7533   32.9046   50.9029 H   0  0  0  0  0  0  0  0  0  0  0  0
   64.6902   35.2644   51.0518 H   0  0  0  0  0  0  0  0  0  0  0  0
   64.2846   34.0382   52.3496 H   0  0  0  0  0  0  0  0  0  0  0  0
  1  2  1  0
  2  3  1  0
  3  4  1  0
  4  5  1  0
  5  6  1  0
  6  7  1  0
  7  8  1  0
  8  9  1  0
  9 10  2  0
 10 11  1  0
 11 12  2  0
 12 13  1  0
 13 14  1  0
 13 15  2  0
 13 16  2  0
 12 17  1  0
 17 18  2  0
  7 19  1  0
 19 20  2  0
 19 21  1  0
 21 22  1  0
 22 23  2  0
 23 24  1  0
 24 25  2  0
 25 26  1  0
 26 27  1  0
 27 28  1  0
 27 29  1  0
 27 30  1  0
 26 31  2  0
  5 32  1  0
 32 33  1  0
 33  2  1  0
 18  9  1  0
 31 22  1  0
  1 34  1  0
  1 35  1  0
  1 36  1  0
  3 37  1  0
  3 38  1  0
  4 39  1  0
  4 40  1  0
  5 41  1  0
  6 42  1  0
  6 43  1  0
  8 44  1  0
  8 45  1  0
 10 46  1  0
 11 47  1  0
 14 48  1  0
 14 49  1  0
 14 50  1  0
 17 51  1  0
 18 52  1  0
 23 53  1  0
 24 54  1  0
 25 55  1  0
 31 56  1  0
 32 57  1  0
 32 58  1  0
 33 59  1  0
 33 60  1  0
M  END
>  <UniqueID>  (77) 
76

>  <SMILES>  (77) 
CN1CCC(CN(Cc2ccc(S(C)(=O)=O)cc2)C(=O)Oc2cccc(C(F)(F)F)c2)CC1

>  <Energy>  (77) 
68.68436943387775

>  <Genealogy>  (77) 
CN1CCC(CN(Cc2ccc(S(C)(=O)=O)cc2)C(=O)Oc2cccc(C(F)(F)F)c2)CC1 (3D coordinates assigned)
CN1CCC(CN(Cc2ccc(S(C)(=O)=O)cc2)C(=O)Oc2cccc(C(F)(F)F)c2)CC1 (nonaromatic ring conformer: 68.68436943387775 kcal/mol)

>  <smiles>  (77) 
CN1CCC(CN(Cc2ccc(S(C)(=O)=O)cc2)C(=O)Oc2cccc(C(F)(F)F)c2)CC1

>  <score_type>  (77) 
oracle

>  <origin>  (77) 
adg

>  <m_score__min__energy>  (77) 
-8.5800000000000001

>  <m_primary>  (77) 
energy

$$$$
77:0
     RDKit          3D

 68 72  0  0  0  0  0  0  0  0999 V2000
   57.4410   22.2310   44.1050 C   0  0  0  0  0  0  0  0  0  0  0  0
   57.9770   22.9170   45.6600 S   0  0  0  0  0  0  0  0  0  0  0  0
   57.7160   21.9250   46.7560 O   0  0  0  0  0  0  0  0  0  0  0  0
   59.4530   23.2030   45.6130 O   0  0  0  0  0  0  0  0  0  0  0  0
   57.1110   24.3770   46.0160 N   0  0  0  0  0  0  0  0  0  0  0  0
   57.5330   25.6930   45.6420 C   0  0  0  0  0  0  0  0  0  0  0  0
   58.0840   25.9690   44.3800 C   0  0  0  0  0  0  0  0  0  0  0  0
   58.5230   27.2610   44.0700 C   0  0  0  0  0  0  0  0  0  0  0  0
   58.4890   28.2710   45.0470 C   0  0  0  0  0  0  0  0  0  0  0  0
   58.9650   29.5990   44.7820 N   0  0  0  0  0  0  0  0  0  0  0  0
   58.5130   30.7830   45.1250 C   0  0  0  0  0  0  0  0  0  0  0  0
   57.1900   31.1030   44.7310 C   0  0  0  0  0  0  0  0  0  0  0  0
   56.2840   30.0780   44.1500 C   0  0  0  0  0  0  0  0  0  0  0  0
   56.5390   29.5160   42.8600 N   0  0  0  0  0  0  0  0  0  0  0  0
   55.2660   29.7050   44.7920 O   0  0  0  0  0  0  0  0  0  0  0  0
   56.7320   32.4220   44.8580 C   0  0  0  0  0  0  0  0  0  0  0  0
   57.5290   33.3790   45.3830 N   0  0  0  0  0  0  0  0  0  0  0  0
   58.7710   33.1080   45.8550 C   0  0  0  0  0  0  0  0  0  0  0  0
   59.5170   34.1420   46.4350 C   0  0  0  0  0  0  0  0  0  0  0  0
   60.7650   33.8800   46.9960 C   0  0  0  0  0  0  0  0  0  0  0  0
   61.2490   32.5710   47.0330 C   0  0  0  0  0  0  0  0  0  0  0  0
   62.5810   32.2820   47.5870 C   0  0  0  0  0  0  0  0  0  0  0  0
   63.1990   31.2720   47.1520 O   0  0  0  0  0  0  0  0  0  0  0  0
   63.1490   33.0830   48.6480 N   0  0  0  0  0  0  0  0  0  0  0  0
   64.4770   32.7540   49.1850 C   0  0  0  0  0  0  0  0  0  0  0  0
   64.3260   32.1330   50.5900 C   0  0  0  0  0  0  0  0  0  0  0  0
   62.9470   31.6070   50.7720 N   0  0  0  0  0  0  0  0  0  0  0  0
   62.8660   30.7240   51.9730 C   0  0  0  0  0  0  0  0  0  0  0  0
   61.4570   30.6050   52.5780 C   0  0  0  0  0  0  0  0  0  0  0  0
   60.7170   29.6170   51.6870 C   0  0  0  0  0  0  0  0  0  0  0  0
   61.7940   28.7050   51.1060 C   0  0  0  0  0  0  0  0  0  0  0  0
   63.1390   29.2720   51.5570 C   0  0  0  0  0  0  0  0  0  0  0  0
   61.9760   32.7370   50.7660 C   0  0  0  0  0  0  0  0  0  0  0  0
   62.2610   33.7330   49.6220 C   0  0  0  0  0  0  0  0  0  0  0  0
   60.4820   31.5250   46.5010 C   0  0  0  0  0  0  0  0  0  0  0  0
   59.2810   31.7840   45.8050 C   0  0  0  0  0  0  0  0  0  0  0  0
   57.8740   28.0090   46.2770 C   0  0  0  0  0  0  0  0  0  0  0  0
   57.3950   26.7310   46.5710 C   0  0  0  0  0  0  0  0  0  0  0  0
   56.7736   21.3768   44.2917 H   0  0  0  0  0  0  0  0  0  0  0  0
   56.9016   22.9994   43.5317 H   0  0  0  0  0  0  0  0  0  0  0  0
   58.3170   21.8934   43.5317 H   0  0  0  0  0  0  0  0  0  0  0  0
   58.1708   25.1666   43.6325 H   0  0  0  0  0  0  0  0  0  0  0  0
   58.8954   27.4867   43.0599 H   0  0  0  0  0  0  0  0  0  0  0  0
   57.4180   29.7280   42.3410 H   0  0  0  0  0  0  0  0  0  0  0  0
   55.8790   28.8120   42.4570 H   0  0  0  0  0  0  0  0  0  0  0  0
   55.7151   32.6802   44.5275 H   0  0  0  0  0  0  0  0  0  0  0  0
   59.1154   35.1660   46.4476 H   0  0  0  0  0  0  0  0  0  0  0  0
   61.3676   34.7025   47.4088 H   0  0  0  0  0  0  0  0  0  0  0  0
   64.9740   32.0344   48.5178 H   0  0  0  0  0  0  0  0  0  0  0  0
   65.0817   33.6703   49.2528 H   0  0  0  0  0  0  0  0  0  0  0  0
   65.0470   31.3100   50.7032 H   0  0  0  0  0  0  0  0  0  0  0  0
   64.5185   32.9068   51.3477 H   0  0  0  0  0  0  0  0  0  0  0  0
   63.5770   31.1730   52.6821 H   0  0  0  0  0  0  0  0  0  0  0  0
   61.5117   30.2269   53.6095 H   0  0  0  0  0  0  0  0  0  0  0  0
   60.9468   31.5785   52.6215 H   0  0  0  0  0  0  0  0  0  0  0  0
   59.9959   29.0325   52.2773 H   0  0  0  0  0  0  0  0  0  0  0  0
   60.1460   30.1280   50.8978 H   0  0  0  0  0  0  0  0  0  0  0  0
   61.6681   27.6802   51.4854 H   0  0  0  0  0  0  0  0  0  0  0  0
   61.7292   28.6652   50.0086 H   0  0  0  0  0  0  0  0  0  0  0  0
   63.5301   28.6970   52.4093 H   0  0  0  0  0  0  0  0  0  0  0  0
   63.8898   29.2163   50.7550 H   0  0  0  0  0  0  0  0  0  0  0  0
   60.9605   32.3329   50.6413 H   0  0  0  0  0  0  0  0  0  0  0  0
   62.0733   33.2759   51.7200 H   0  0  0  0  0  0  0  0  0  0  0  0
   61.3173   34.0159   49.1327 H   0  0  0  0  0  0  0  0  0  0  0  0
   62.7393   34.6393   50.0218 H   0  0  0  0  0  0  0  0  0  0  0  0
   60.8211   30.4863   46.6277 H   0  0  0  0  0  0  0  0  0  0  0  0
   57.7674   28.8158   47.0171 H   0  0  0  0  0  0  0  0  0  0  0  0
   56.9066   26.5387   47.5377 H   0  0  0  0  0  0  0  0  0  0  0  0
  1  2  1  0
  2  3  2  0
  2  4  2  0
  2  5  1  0
  5  6  1  0
  6  7  2  0
  7  8  1  0
  8  9  2  0
  9 10  1  0
 10 11  2  3
 11 12  1  0
 12 13  1  0
 13 14  1  0
 13 15  2  0
 12 16  2  0
 16 17  1  0
 17 18  1  0
 18 19  2  0
 19 20  1  0
 20 21  2  0
 21 22  1  0
 22 23  2  0
 22 24  1  0
 24 25  1  0
 25 26  1  0
 26 27  1  0
 27 28  1  0
 28 29  1  0
 29 30  1  0
 30 31  1  0
 31 32  1  0
 27 33  1  0
 33 34  1  0
 21 35  1  0
 35 36  2  0
  9 37  1  0
 37 38  2  0
 38  6  1  0
 36 11  1  0
 36 18  1  0
 34 24  1  0
 32 28  1  0
  1 39  1  0
  1 40  1  0
  1 41  1  0
  7 42  1  0
  8 43  1  0
 14 44  1  0
 14 45  1  0
 16 46  1  0
 19 47  1  0
 20 48  1  0
 25 49  1  0
 25 50  1  0
 26 51  1  0
 26 52  1  0
 28 53  1  0
 29 54  1  0
 29 55  1  0
 30 56  1  0
 30 57  1  0
 31 58  1  0
 31 59  1  0
 32 60  1  0
 32 61  1  0
 33 62  1  0
 33 63  1  0
 34 64  1  0
 34 65  1  0
 35 66  1  0
 37 67  1  0
 38 68  1  0
M  CHG  2   5  -1  17  -1
M  END
>  <UniqueID>  (78) 
77

>  <SMILES>  (78) 
CS(=O)(=O)[N-]c1ccc(N=c2c(C(N)=O)c[n-]c3ccc(C(=O)N4CCN(C5CCCC5)CC4)cc23)cc1

>  <Energy>  (78) 
120.36977662695868

>  <Genealogy>  (78) 
CS(=O)(=O)[N-]c1ccc(N=c2c(C(N)=O)c[n-]c3ccc(C(=O)N4CCN(C5CCCC5)CC4)cc23)cc1 (protonated)
CS(=O)(=O)[N-]c1ccc(N=c2c(C(N)=O)c[n-]c3ccc(C(=O)N4CCN(C5CCCC5)CC4)cc23)cc1 (3D coordinates assigned)
CS(=O)(=O)[N-]c1ccc(N=c2c(C(N)=O)c[n-]c3ccc(C(=O)N4CCN(C5CCCC5)CC4)cc23)cc1 (nonaromatic ring conformer: 120.36977662695868 kcal/mol)

>  <smiles>  (78) 
CS(=O)(=O)Nc1ccc(N=c2c(C(N)=O)c[nH]c3ccc(C(=O)N4CCN(C5CCCC5)CC4)cc23)cc1

>  <score_type>  (78) 
oracle

>  <origin>  (78) 
adg

>  <m_score__min__energy>  (78) 
-12.82

>  <m_primary>  (78) 
energy

$$$$
78:0
     RDKit          3D

 63 67  0  0  0  0  0  0  0  0999 V2000
   55.5870   31.3990   52.2530 O   0  0  0  0  0  0  0  0  0  0  0  0
   55.5040   30.1560   52.4510 C   0  0  0  0  0  0  0  0  0  0  0  0
   54.1630   29.4860   52.4590 C   0  0  0  0  0  0  0  0  0  0  0  0
   53.1620   30.2530   51.6350 C   0  0  0  0  0  0  0  0  0  0  0  0
   52.7040   29.7320   50.4120 C   0  0  0  0  0  0  0  0  0  0  0  0
   51.7520   30.4300   49.6600 C   0  0  0  0  0  0  0  0  0  0  0  0
   51.2510   31.6510   50.1240 C   0  0  0  0  0  0  0  0  0  0  0  0
   50.3070   32.3450   49.3770 O   0  0  0  0  0  0  0  0  0  0  0  0
   51.7010   32.1730   51.3430 C   0  0  0  0  0  0  0  0  0  0  0  0
   52.6470   31.4760   52.0990 C   0  0  0  0  0  0  0  0  0  0  0  0
   56.6860   29.3520   52.5450 N   0  0  0  0  0  0  0  0  0  0  0  0
   58.0390   29.8300   52.5330 C   0  0  0  0  0  0  0  0  0  0  0  0
   58.5450   30.6510   53.5540 C   0  0  0  0  0  0  0  0  0  0  0  0
   59.8730   31.0850   53.5110 C   0  0  0  0  0  0  0  0  0  0  0  0
   60.7080   30.6950   52.4610 C   0  0  0  0  0  0  0  0  0  0  0  0
   60.2250   29.8490   51.4470 C   0  0  0  0  0  0  0  0  0  0  0  0
   61.1070   29.4450   50.3250 C   0  0  0  0  0  0  0  0  0  0  0  0
   62.2820   29.0500   50.5570 O   0  0  0  0  0  0  0  0  0  0  0  0
   60.6490   29.5120   48.9670 N   0  0  0  0  0  0  0  0  0  0  0  0
   59.5990   28.5980   48.5060 C   0  0  0  0  0  0  0  0  0  0  0  0
   58.7230   29.3000   47.4700 C   0  0  0  0  0  0  0  0  0  0  0  0
   59.5610   29.7490   46.2450 C   0  0  0  0  0  0  0  0  0  0  0  0
   58.9090   30.8260   45.4590 N   0  0  0  0  0  0  0  0  0  0  0  0
   58.1570   30.5220   44.2700 C   0  0  0  0  0  0  0  0  0  0  0  0
   57.4970   29.4530   44.1700 O   0  0  0  0  0  0  0  0  0  0  0  0
   58.1460   31.5140   43.1560 C   0  0  0  0  0  0  0  0  0  0  0  0
   57.7580   32.8850   43.7020 C   0  0  0  0  0  0  0  0  0  0  0  0
   58.4860   33.2360   44.9790 C   0  0  0  0  0  0  0  0  0  0  0  0
   58.5480   34.5860   45.3610 C   0  0  0  0  0  0  0  0  0  0  0  0
   59.0670   34.9480   46.6010 C   0  0  0  0  0  0  0  0  0  0  0  0
   59.4980   33.9660   47.4900 C   0  0  0  0  0  0  0  0  0  0  0  0
   59.4330   32.6170   47.1360 C   0  0  0  0  0  0  0  0  0  0  0  0
   58.9600   32.2250   45.8630 C   0  0  0  0  0  0  0  0  0  0  0  0
   61.0290   30.1200   46.5830 C   0  0  0  0  0  0  0  0  0  0  0  0
   61.2630   30.4850   48.0570 C   0  0  0  0  0  0  0  0  0  0  0  0
   58.8860   29.4210   51.4960 C   0  0  0  0  0  0  0  0  0  0  0  0
   54.2666   28.4724   52.0444 H   0  0  0  0  0  0  0  0  0  0  0  0
   53.8008   29.4473   53.4970 H   0  0  0  0  0  0  0  0  0  0  0  0
   53.0955   28.7719   50.0447 H   0  0  0  0  0  0  0  0  0  0  0  0
   51.3975   30.0182   48.7035 H   0  0  0  0  0  0  0  0  0  0  0  0
   51.3087   33.1343   51.7063 H   0  0  0  0  0  0  0  0  0  0  0  0
   52.9900   31.8856   53.0605 H   0  0  0  0  0  0  0  0  0  0  0  0
   57.8953   30.9529   54.3887 H   0  0  0  0  0  0  0  0  0  0  0  0
   60.2623   31.7364   54.3073 H   0  0  0  0  0  0  0  0  0  0  0  0
   61.7481   31.0514   52.4274 H   0  0  0  0  0  0  0  0  0  0  0  0
   60.0615   27.7093   48.0518 H   0  0  0  0  0  0  0  0  0  0  0  0
   58.9784   28.2950   49.3622 H   0  0  0  0  0  0  0  0  0  0  0  0
   57.9379   28.6067   47.1339 H   0  0  0  0  0  0  0  0  0  0  0  0
   58.2772   30.1916   47.9350 H   0  0  0  0  0  0  0  0  0  0  0  0
   59.6055   28.8521   45.6097 H   0  0  0  0  0  0  0  0  0  0  0  0
   59.1472   31.5690   42.7037 H   0  0  0  0  0  0  0  0  0  0  0  0
   57.4168   31.2023   42.3937 H   0  0  0  0  0  0  0  0  0  0  0  0
   57.9943   33.6451   42.9428 H   0  0  0  0  0  0  0  0  0  0  0  0
   56.6826   32.8570   43.9316 H   0  0  0  0  0  0  0  0  0  0  0  0
   58.1833   35.3642   44.6744 H   0  0  0  0  0  0  0  0  0  0  0  0
   59.1368   36.0100   46.8789 H   0  0  0  0  0  0  0  0  0  0  0  0
   59.8915   34.2548   48.4758 H   0  0  0  0  0  0  0  0  0  0  0  0
   59.7537   31.8501   47.8564 H   0  0  0  0  0  0  0  0  0  0  0  0
   61.6681   29.2597   46.3350 H   0  0  0  0  0  0  0  0  0  0  0  0
   61.2725   31.0159   45.9930 H   0  0  0  0  0  0  0  0  0  0  0  0
   62.3459   30.5159   48.2479 H   0  0  0  0  0  0  0  0  0  0  0  0
   60.7987   31.4648   48.2428 H   0  0  0  0  0  0  0  0  0  0  0  0
   58.4994   28.7564   50.7094 H   0  0  0  0  0  0  0  0  0  0  0  0
  1  2  2  0
  2  3  1  0
  3  4  1  0
  4  5  2  0
  5  6  1  0
  6  7  2  0
  7  8  1  0
  7  9  1  0
  9 10  2  0
  2 11  1  0
 11 12  1  0
 12 13  2  0
 13 14  1  0
 14 15  2  0
 15 16  1  0
 16 17  1  0
 17 18  2  0
 17 19  1  0
 19 20  1  0
 20 21  1  0
 21 22  1  0
 22 23  1  0
 23 24  1  0
 24 25  2  0
 24 26  1  0
 26 27  1  0
 27 28  1  0
 28 29  2  0
 29 30  1  0
 30 31  2  0
 31 32  1  0
 32 33  2  0
 22 34  1  0
 34 35  1  0
 16 36  2  0
 10  4  1  0
 36 12  1  0
 35 19  1  0
 33 23  1  0
 33 28  1  0
  3 37  1  0
  3 38  1  0
  5 39  1  0
  6 40  1  0
  9 41  1  0
 10 42  1  0
 13 43  1  0
 14 44  1  0
 15 45  1  0
 20 46  1  0
 20 47  1  0
 21 48  1  0
 21 49  1  0
 22 50  1  0
 26 51  1  0
 26 52  1  0
 27 53  1  0
 27 54  1  0
 29 55  1  0
 30 56  1  0
 31 57  1  0
 32 58  1  0
 34 59  1  0
 34 60  1  0
 35 61  1  0
 35 62  1  0
 36 63  1  0
M  CHG  2   8  -1  11  -1
M  END
>  <UniqueID>  (79) 
78

>  <SMILES>  (79) 
O=C(Cc1ccc([O-])cc1)[N-]c1cccc(C(=O)N2CCC(N3C(=O)CCc4ccccc43)CC2)c1

>  <Energy>  (79) 
89.56139404966581

>  <Genealogy>  (79) 
O=C(Cc1ccc([O-])cc1)[N-]c1cccc(C(=O)N2CCC(N3C(=O)CCc4ccccc43)CC2)c1 (protonated)
O=C(Cc1ccc([O-])cc1)[N-]c1cccc(C(=O)N2CCC(N3C(=O)CCc4ccccc43)CC2)c1 (3D coordinates assigned)
O=C(Cc1ccc([O-])cc1)[N-]c1cccc(C(=O)N2CCC(N3C(=O)CCc4ccccc43)CC2)c1 (nonaromatic ring conformer: 89.56139404966581 kcal/mol)

>  <smiles>  (79) 
O=C(Cc1ccc(O)cc1)Nc1cccc(C(=O)N2CCC(N3C(=O)CCc4ccccc43)CC2)c1

>  <score_type>  (79) 
oracle

>  <origin>  (79) 
adg

>  <m_score__min__energy>  (79) 
-15.69

>  <m_primary>  (79) 
energy

$$$$
79:0
     RDKit          3D

 60 63  0  0  0  0  0  0  0  0999 V2000
   60.8700   26.8870   49.6960 H   0  0  0  0  0  0  0  0  0  0  0  0
   60.2440   27.5420   49.1770 N   0  0  0  0  0  0  0  0  0  0  0  0
   59.7320   27.2220   48.0330 C   0  0  0  0  0  0  0  0  0  0  0  0
   58.9680   28.1130   47.3510 N   0  0  0  0  0  0  0  0  0  0  0  0
   58.3960   27.7930   46.1570 C   0  0  0  0  0  0  0  0  0  0  0  0
   57.5830   28.8110   45.4540 C   0  0  0  0  0  0  0  0  0  0  0  0
   58.1910   30.0210   45.0780 C   0  0  0  0  0  0  0  0  0  0  0  0
   59.2730   30.1535   45.2255 H   0  0  0  0  0  0  0  0  0  0  0  0
   57.4350   31.0640   44.5160 C   0  0  0  0  0  0  0  0  0  0  0  0
   58.0190   32.3420   44.2090 N   0  0  0  0  0  0  0  0  0  0  0  0
   57.8480   33.5610   44.9500 C   0  0  0  0  0  0  0  0  0  0  0  0
   57.0660   34.4370   44.4950 O   0  0  0  0  0  0  0  0  0  0  0  0
   58.5420   33.8080   46.2380 C   0  0  0  0  0  0  0  0  0  0  0  0
   59.6260   34.6990   46.2940 C   0  0  0  0  0  0  0  0  0  0  0  0
   59.9191   35.2617   45.3954 H   0  0  0  0  0  0  0  0  0  0  0  0
   60.3340   34.8740   47.4860 C   0  0  0  0  0  0  0  0  0  0  0  0
   61.1810   35.5749   47.5219 H   0  0  0  0  0  0  0  0  0  0  0  0
   59.9710   34.1630   48.6320 C   0  0  0  0  0  0  0  0  0  0  0  0
   60.5427   34.2921   49.5628 H   0  0  0  0  0  0  0  0  0  0  0  0
   58.8750   33.2820   48.5970 C   0  0  0  0  0  0  0  0  0  0  0  0
   58.4790   32.5280   49.7090 O   0  0  0  0  0  0  0  0  0  0  0  0
   59.1220   31.3320   50.1470 C   0  0  0  0  0  0  0  0  0  0  0  0
   59.9590   31.5906   50.8122 H   0  0  0  0  0  0  0  0  0  0  0  0
   58.3956   30.7079   50.6882 H   0  0  0  0  0  0  0  0  0  0  0  0
   59.6550   30.5530   48.9390 C   0  0  0  0  0  0  0  0  0  0  0  0
   59.3474   29.5016   49.0391 H   0  0  0  0  0  0  0  0  0  0  0  0
   59.2363   31.0256   48.0382 H   0  0  0  0  0  0  0  0  0  0  0  0
   61.1890   30.6020   48.8060 C   0  0  0  0  0  0  0  0  0  0  0  0
   61.6050   31.0016   49.7426 H   0  0  0  0  0  0  0  0  0  0  0  0
   61.5239   29.5750   48.5986 H   0  0  0  0  0  0  0  0  0  0  0  0
   61.6870   31.4760   47.6440 C   0  0  0  0  0  0  0  0  0  0  0  0
   61.4243   30.9919   46.6918 H   0  0  0  0  0  0  0  0  0  0  0  0
   61.2092   32.4639   47.7195 H   0  0  0  0  0  0  0  0  0  0  0  0
   63.1560   31.6570   47.7060 N   0  0  0  0  0  0  0  0  0  0  0  0
   63.6340   32.7580   46.8350 C   0  0  0  0  0  0  0  0  0  0  0  0
   64.6239   32.4890   46.4379 H   0  0  0  0  0  0  0  0  0  0  0  0
   62.8967   32.8903   46.0294 H   0  0  0  0  0  0  0  0  0  0  0  0
   63.7510   34.0990   47.5870 C   0  0  0  0  0  0  0  0  0  0  0  0
   64.7772   34.2130   47.9665 H   0  0  0  0  0  0  0  0  0  0  0  0
   63.5102   34.9181   46.8935 H   0  0  0  0  0  0  0  0  0  0  0  0
   62.8470   34.1380   48.6720 O   0  0  0  0  0  0  0  0  0  0  0  0
   63.2440   33.2110   49.6680 C   0  0  0  0  0  0  0  0  0  0  0  0
   64.1094   33.6250   50.2062 H   0  0  0  0  0  0  0  0  0  0  0  0
   62.3813   33.0546   50.3323 H   0  0  0  0  0  0  0  0  0  0  0  0
   63.6380   31.8290   49.0910 C   0  0  0  0  0  0  0  0  0  0  0  0
   64.7342   31.7382   49.1007 H   0  0  0  0  0  0  0  0  0  0  0  0
   63.1722   31.0519   49.7148 H   0  0  0  0  0  0  0  0  0  0  0  0
   58.1500   33.1360   47.4100 C   0  0  0  0  0  0  0  0  0  0  0  0
   57.2618   32.4873   47.3926 H   0  0  0  0  0  0  0  0  0  0  0  0
   56.0820   30.8530   44.2370 C   0  0  0  0  0  0  0  0  0  0  0  0
   55.4953   31.6420   43.7438 H   0  0  0  0  0  0  0  0  0  0  0  0
   55.4700   29.6430   44.5820 C   0  0  0  0  0  0  0  0  0  0  0  0
   54.4048   29.4850   44.3576 H   0  0  0  0  0  0  0  0  0  0  0  0
   56.2060   28.6330   45.2110 C   0  0  0  0  0  0  0  0  0  0  0  0
   55.5500   27.4740   45.6150 O   0  0  0  0  0  0  0  0  0  0  0  0
   58.6150   26.5180   45.6160 C   0  0  0  0  0  0  0  0  0  0  0  0
   58.1713   26.2335   44.6505 H   0  0  0  0  0  0  0  0  0  0  0  0
   59.4070   25.6190   46.3280 C   0  0  0  0  0  0  0  0  0  0  0  0
   59.5941   24.6128   45.9249 H   0  0  0  0  0  0  0  0  0  0  0  0
   59.9480   25.9840   47.5190 N   0  0  0  0  0  0  0  0  0  0  0  0
  1  2  1  0
  2  3  2  0
  3  4  1  0
  4  5  2  0
  5  6  1  0
  6  7  2  0
  7  8  1  0
  7  9  1  0
  9 10  1  0
 10 11  1  0
 11 12  2  0
 11 13  1  0
 13 14  2  0
 14 15  1  0
 14 16  1  0
 16 17  1  0
 16 18  2  0
 18 19  1  0
 18 20  1  0
 20 21  1  0
 21 22  1  0
 22 23  1  0
 22 24  1  0
 22 25  1  0
 25 26  1  0
 25 27  1  0
 25 28  1  0
 28 29  1  0
 28 30  1  0
 28 31  1  0
 31 32  1  0
 31 33  1  0
 31 34  1  0
 34 35  1  0
 35 36  1  0
 35 37  1  0
 35 38  1  0
 38 39  1  0
 38 40  1  0
 38 41  1  0
 41 42  1  0
 42 43  1  0
 42 44  1  0
 42 45  1  0
 45 46  1  0
 45 47  1  0
 20 48  2  0
 48 49  1  0
  9 50  2  0
 50 51  1  0
 50 52  1  0
 52 53  1  0
 52 54  2  0
 54 55  1  0
  5 56  1  0
 56 57  1  0
 56 58  2  0
 58 59  1  0
 58 60  1  0
 60  3  1  0
 54  6  1  0
 48 13  1  0
 45 34  1  0
M  CHG  3  10  -1  55  -1  60  -1
M  END
>  <UniqueID>  (80) 
79

>  <SMILES>  (80) 
[H]/N=c1\nc(-c2cc([N-]C(=O)c3cccc(OCCCCN4CCOCC4)c3)ccc2[O-])cc[n-]1

>  <Energy>  (80) 
78.7959880797378

>  <Genealogy>  (80) 
N=c1nc(-c2cc([N-]C(=O)c3cccc(OCCCCN4CCOCC4)c3)ccc2[O-])cc[n-]1 (protonated)
[H]/N=c1\nc(-c2cc([N-]C(=O)c3cccc(OCCCCN4CCOCC4)c3)ccc2[O-])cc[n-]1 (cis-trans isomerization)
[H]/N=c1\nc(-c2cc([N-]C(=O)c3cccc(OCCCCN4CCOCC4)c3)ccc2[O-])cc[n-]1 (3D coordinates assigned)
[H]/N=c1\nc(-c2cc([N-]C(=O)c3cccc(OCCCCN4CCOCC4)c3)ccc2[O-])cc[n-]1 (nonaromatic ring conformer: 78.7959880797378 kcal/mol)

>  <smiles>  (80) 
N=c1nc(-c2cc(NC(=O)c3cccc(OCCCCN4CCOCC4)c3)ccc2O)cc[nH]1

>  <score_type>  (80) 
oracle

>  <origin>  (80) 
adg

>  <m_score__min__energy>  (80) 
-15.27

>  <m_primary>  (80) 
energy

$$$$
80:0
     RDKit          3D

 45 48  0  0  0  0  0  0  0  0999 V2000
   59.2830   36.3930   47.1660 H   0  0  0  0  0  0  0  0  0  0  0  0
   59.2820   35.8840   46.2920 O   0  0  0  0  0  0  0  0  0  0  0  0
   59.2310   34.4900   46.2190 C   0  0  0  0  0  0  0  0  0  0  0  0
   58.6630   33.9100   45.0790 C   0  0  0  0  0  0  0  0  0  0  0  0
   58.3119   34.5526   44.2581 H   0  0  0  0  0  0  0  0  0  0  0  0
   58.5380   32.5250   44.9740 C   0  0  0  0  0  0  0  0  0  0  0  0
   58.0843   32.0822   44.0750 H   0  0  0  0  0  0  0  0  0  0  0  0
   58.9880   31.6960   46.0090 C   0  0  0  0  0  0  0  0  0  0  0  0
   58.8620   30.2670   45.9020 N   0  0  0  0  0  0  0  0  0  0  0  0
   59.7480   29.3590   46.3700 C   0  0  0  0  0  0  0  0  0  0  0  0
   61.0460   29.6900   47.0440 C   0  0  0  0  0  0  0  0  0  0  0  0
   60.9117   29.6558   48.1352 H   0  0  0  0  0  0  0  0  0  0  0  0
   61.8112   28.9582   46.7456 H   0  0  0  0  0  0  0  0  0  0  0  0
   61.3673   30.6988   46.7456 H   0  0  0  0  0  0  0  0  0  0  0  0
   59.3110   28.0780   46.1040 C   0  0  0  0  0  0  0  0  0  0  0  0
   59.8313   27.1417   46.3543 H   0  0  0  0  0  0  0  0  0  0  0  0
   58.0870   28.1990   45.4590 C   0  0  0  0  0  0  0  0  0  0  0  0
   57.3270   27.1910   44.9890 C   0  0  0  0  0  0  0  0  0  0  0  0
   57.0363   27.2147   43.9284 H   0  0  0  0  0  0  0  0  0  0  0  0
   56.8610   26.0580   45.8090 C   0  0  0  0  0  0  0  0  0  0  0  0
   57.6900   25.1350   46.3280 N   0  0  0  0  0  0  0  0  0  0  0  0
   56.8500   24.2560   46.9180 C   0  0  0  0  0  0  0  0  0  0  0  0
   57.2590   23.2380   47.5360 O   0  0  0  0  0  0  0  0  0  0  0  0
   55.5390   24.5480   46.7860 N   0  0  0  0  0  0  0  0  0  0  0  0
   55.5610   25.6850   46.0710 C   0  0  0  0  0  0  0  0  0  0  0  0
   54.4160   26.3350   45.6290 O   0  0  0  0  0  0  0  0  0  0  0  0
   57.8410   29.5720   45.3410 C   0  0  0  0  0  0  0  0  0  0  0  0
   56.7800   30.1430   44.7490 C   0  0  0  0  0  0  0  0  0  0  0  0
   56.6922   31.2390   44.7163 H   0  0  0  0  0  0  0  0  0  0  0  0
   55.9984   29.5149   44.2966 H   0  0  0  0  0  0  0  0  0  0  0  0
   59.5780   32.2680   47.1430 C   0  0  0  0  0  0  0  0  0  0  0  0
   59.9475   31.6174   47.9494 H   0  0  0  0  0  0  0  0  0  0  0  0
   59.7040   33.6610   47.2640 C   0  0  0  0  0  0  0  0  0  0  0  0
   60.3490   34.2160   48.4690 C   0  0  0  0  0  0  0  0  0  0  0  0
   59.6940   34.9500   49.2550 O   0  0  0  0  0  0  0  0  0  0  0  0
   61.7240   33.9410   48.7470 N   0  0  0  0  0  0  0  0  0  0  0  0
   62.7000   34.2880   49.7950 C   0  0  0  0  0  0  0  0  0  0  0  0
   62.9494   35.3593   49.8050 H   0  0  0  0  0  0  0  0  0  0  0  0
   62.3962   34.1180   50.8385 H   0  0  0  0  0  0  0  0  0  0  0  0
   63.8100   33.4430   49.2640 C   0  0  0  0  0  0  0  0  0  0  0  0
   64.6992   33.9902   48.9177 H   0  0  0  0  0  0  0  0  0  0  0  0
   64.3514   32.6943   49.8610 H   0  0  0  0  0  0  0  0  0  0  0  0
   62.8110   33.1030   48.2080 C   0  0  0  0  0  0  0  0  0  0  0  0
   63.1312   33.4169   47.2035 H   0  0  0  0  0  0  0  0  0  0  0  0
   62.5911   32.0368   48.0505 H   0  0  0  0  0  0  0  0  0  0  0  0
  1  2  1  0
  2  3  1  0
  3  4  2  0
  4  5  1  0
  4  6  1  0
  6  7  1  0
  6  8  2  0
  8  9  1  0
  9 10  1  0
 10 11  1  0
 11 12  1  0
 11 13  1  0
 11 14  1  0
 10 15  2  0
 15 16  1  0
 15 17  1  0
 17 18  2  0
 18 19  1  0
 18 20  1  0
 20 21  1  0
 21 22  1  0
 22 23  2  0
 22 24  1  0
 24 25  1  0
 25 26  1  0
 17 27  1  0
 27 28  2  0
 28 29  1  0
 28 30  1  0
  8 31  1  0
 31 32  1  0
 31 33  2  0
 33 34  1  0
 34 35  2  0
 34 36  1  0
 36 37  1  0
 37 38  1  0
 37 39  1  0
 37 40  1  0
 40 41  1  0
 40 42  1  0
 40 43  1  0
 43 44  1  0
 43 45  1  0
 33  3  1  0
 43 36  1  0
 27  9  1  0
 25 20  2  0
M  CHG  3  21  -1  24  -1  26  -1
M  END
>  <UniqueID>  (81) 
80

>  <SMILES>  (81) 
C=c1/c(=C/c2[n-]c(=O)[n-]c2[O-])cc(C)n1-c1ccc(O)c(C(=O)N2CCC2)c1

>  <Energy>  (81) 
167.1614384220502

>  <Genealogy>  (81) 
C=c1c(=Cc2[n-]c(=O)[n-]c2[O-])cc(C)n1-c1ccc(O)c(C(=O)N2CCC2)c1 (protonated)
C=c1/c(=C/c2[n-]c(=O)[n-]c2[O-])cc(C)n1-c1ccc(O)c(C(=O)N2CCC2)c1 (cis-trans isomerization)
C=c1/c(=C/c2[n-]c(=O)[n-]c2[O-])cc(C)n1-c1ccc(O)c(C(=O)N2CCC2)c1 (3D coordinates assigned)
C=c1/c(=C/c2[n-]c(=O)[n-]c2[O-])cc(C)n1-c1ccc(O)c(C(=O)N2CCC2)c1 (nonaromatic ring conformer: 167.1614384220502 kcal/mol)

>  <smiles>  (81) 
C=c1c(=Cc2[nH]c(=O)[nH]c2O)cc(C)n1-c1ccc(O)c(C(=O)N2CCC2)c1

>  <score_type>  (81) 
oracle

>  <origin>  (81) 
adg

>  <m_score__min__energy>  (81) 
-15.630000000000001

>  <m_primary>  (81) 
energy

$$$$
81:0
     RDKit          3D

 46 48  0  0  0  0  0  0  0  0999 V2000
   55.1520   29.2820   44.8660 N   0  0  0  0  0  0  0  0  0  0  0  0
   56.5260   29.5780   45.1080 C   0  0  0  0  0  0  0  0  0  0  0  0
   56.9580   30.7360   44.8600 O   0  0  0  0  0  0  0  0  0  0  0  0
   57.4390   28.5240   45.6170 C   0  0  0  0  0  0  0  0  0  0  0  0
   56.9510   27.2110   45.7560 C   0  0  0  0  0  0  0  0  0  0  0  0
   57.8010   26.1700   46.1420 C   0  0  0  0  0  0  0  0  0  0  0  0
   57.1190   24.3940   46.3100 Br  0  0  0  0  0  0  0  0  0  0  0  0
   59.1490   26.4240   46.3890 C   0  0  0  0  0  0  0  0  0  0  0  0
   59.6490   27.7220   46.2710 C   0  0  0  0  0  0  0  0  0  0  0  0
   58.8040   28.7820   45.9130 C   0  0  0  0  0  0  0  0  0  0  0  0
   59.3530   30.1070   45.8760 N   0  0  0  0  0  0  0  0  0  0  0  0
   60.4080   30.5280   46.7500 C   0  0  0  0  0  0  0  0  0  0  0  0
   60.9210   29.7110   47.5640 O   0  0  0  0  0  0  0  0  0  0  0  0
   60.9120   31.8640   46.6440 N   0  0  0  0  0  0  0  0  0  0  0  0
   61.8150   32.5140   47.5520 C   0  0  0  0  0  0  0  0  0  0  0  0
   63.2000   32.2670   47.4960 C   0  0  0  0  0  0  0  0  0  0  0  0
   64.0650   32.8790   48.4050 C   0  0  0  0  0  0  0  0  0  0  0  0
   63.5600   33.7290   49.3880 C   0  0  0  0  0  0  0  0  0  0  0  0
   62.1870   33.9640   49.4710 C   0  0  0  0  0  0  0  0  0  0  0  0
   61.3030   33.3550   48.5660 C   0  0  0  0  0  0  0  0  0  0  0  0
   59.5650   33.6770   48.7180 S   0  0  0  0  0  0  0  0  0  0  0  0
   59.3330   34.7350   49.7620 O   0  0  0  0  0  0  0  0  0  0  0  0
   58.8730   32.4240   49.1790 O   0  0  0  0  0  0  0  0  0  0  0  0
   58.8590   34.1920   47.2050 N   0  0  0  0  0  0  0  0  0  0  0  0
   59.9010   34.6420   46.2710 C   0  0  0  0  0  0  0  0  0  0  0  0
   59.2530   35.1200   44.9540 C   0  0  0  0  0  0  0  0  0  0  0  0
   57.8650   34.8380   44.9040 O   0  0  0  0  0  0  0  0  0  0  0  0
   57.6430   33.4670   45.1690 C   0  0  0  0  0  0  0  0  0  0  0  0
   58.0740   33.1020   46.6040 C   0  0  0  0  0  0  0  0  0  0  0  0
   54.4460   29.3500   45.6320 H   0  0  0  0  0  0  0  0  0  0  0  0
   55.8893   27.0016   45.5588 H   0  0  0  0  0  0  0  0  0  0  0  0
   59.8195   25.6009   46.6772 H   0  0  0  0  0  0  0  0  0  0  0  0
   60.7152   27.9149   46.4605 H   0  0  0  0  0  0  0  0  0  0  0  0
   59.1200   30.7190   45.0620 H   0  0  0  0  0  0  0  0  0  0  0  0
   63.6032   31.5873   46.7309 H   0  0  0  0  0  0  0  0  0  0  0  0
   65.1470   32.6902   48.3455 H   0  0  0  0  0  0  0  0  0  0  0  0
   64.2446   34.2149   50.0988 H   0  0  0  0  0  0  0  0  0  0  0  0
   61.7941   34.6318   50.2518 H   0  0  0  0  0  0  0  0  0  0  0  0
   60.4631   35.4722   46.7236 H   0  0  0  0  0  0  0  0  0  0  0  0
   60.5825   33.8054   46.0573 H   0  0  0  0  0  0  0  0  0  0  0  0
   59.3966   36.2068   44.8632 H   0  0  0  0  0  0  0  0  0  0  0  0
   59.7360   34.5803   44.1261 H   0  0  0  0  0  0  0  0  0  0  0  0
   56.5721   33.2466   45.0485 H   0  0  0  0  0  0  0  0  0  0  0  0
   58.2418   32.8732   44.4627 H   0  0  0  0  0  0  0  0  0  0  0  0
   57.1775   32.9230   47.2157 H   0  0  0  0  0  0  0  0  0  0  0  0
   58.6976   32.1966   46.5662 H   0  0  0  0  0  0  0  0  0  0  0  0
  1  2  1  0
  2  3  2  0
  2  4  1  0
  4  5  2  0
  5  6  1  0
  6  7  1  0
  6  8  2  0
  8  9  1  0
  9 10  2  0
 10 11  1  0
 11 12  1  0
 12 13  2  0
 12 14  1  0
 14 15  1  0
 15 16  2  0
 16 17  1  0
 17 18  2  0
 18 19  1  0
 19 20  2  0
 20 21  1  0
 21 22  2  0
 21 23  2  0
 21 24  1  0
 24 25  1  0
 25 26  1  0
 26 27  1  0
 27 28  1  0
 28 29  1  0
 10  4  1  0
 20 15  1  0
 29 24  1  0
  1 30  1  0
  5 31  1  0
  8 32  1  0
  9 33  1  0
 11 34  1  0
 16 35  1  0
 17 36  1  0
 18 37  1  0
 19 38  1  0
 25 39  1  0
 25 40  1  0
 26 41  1  0
 26 42  1  0
 28 43  1  0
 28 44  1  0
 29 45  1  0
 29 46  1  0
M  CHG  2   1  -1  14  -1
M  END
>  <UniqueID>  (82) 
81

>  <SMILES>  (82) 
[NH-]C(=O)c1cc(Br)ccc1NC(=O)[N-]c1ccccc1S(=O)(=O)N1CCOCC1

>  <Energy>  (82) 
66.9377250074916

>  <Genealogy>  (82) 
[NH-]C(=O)c1cc(Br)ccc1NC(=O)[N-]c1ccccc1S(=O)(=O)N1CCOCC1 (protonated)
[NH-]C(=O)c1cc(Br)ccc1NC(=O)[N-]c1ccccc1S(=O)(=O)N1CCOCC1 (3D coordinates assigned)
[NH-]C(=O)c1cc(Br)ccc1NC(=O)[N-]c1ccccc1S(=O)(=O)N1CCOCC1 (nonaromatic ring conformer: 66.9377250074916 kcal/mol)

>  <smiles>  (82) 
NC(=O)c1cc(Br)ccc1NC(=O)Nc1ccccc1S(=O)(=O)N1CCOCC1

>  <score_type>  (82) 
oracle

>  <origin>  (82) 
adg

>  <m_score__min__energy>  (82) 
-13.550000000000001

>  <m_primary>  (82) 
energy

$$$$
82:0
     RDKit          3D

 46 47  0  0  0  0  0  0  0  0999 V2000
   63.7400   33.0880   47.4980 C   0  0  0  0  0  0  0  0  0  0  0  0
   63.1680   32.9770   48.7000 C   0  0  0  0  0  0  0  0  0  0  0  0
   62.5960   34.1730   49.4070 C   0  0  0  0  0  0  0  0  0  0  0  0
   61.1700   34.1070   49.4440 O   0  0  0  0  0  0  0  0  0  0  0  0
   60.3430   33.8320   48.3430 C   0  0  0  0  0  0  0  0  0  0  0  0
   59.1810   33.0840   48.5600 C   0  0  0  0  0  0  0  0  0  0  0  0
   58.3220   32.7780   47.5010 C   0  0  0  0  0  0  0  0  0  0  0  0
   58.6060   33.2240   46.1980 C   0  0  0  0  0  0  0  0  0  0  0  0
   57.7150   32.8920   45.0570 C   0  0  0  0  0  0  0  0  0  0  0  0
   57.0660   33.8130   44.4880 O   0  0  0  0  0  0  0  0  0  0  0  0
   57.5750   31.5400   44.5920 N   0  0  0  0  0  0  0  0  0  0  0  0
   56.9290   31.2060   43.3220 C   0  0  0  0  0  0  0  0  0  0  0  0
   55.8930   30.0900   43.4930 C   0  0  0  0  0  0  0  0  0  0  0  0
   55.9050   29.5770   44.8600 N   0  0  0  0  0  0  0  0  0  0  0  0
   56.6930   28.4590   45.2810 C   0  0  0  0  0  0  0  0  0  0  0  0
   56.1290   27.4340   45.7520 O   0  0  0  0  0  0  0  0  0  0  0  0
   58.1240   28.5670   45.2410 N   0  0  0  0  0  0  0  0  0  0  0  0
   58.9500   29.0440   46.1330 C   0  0  0  0  0  0  0  0  0  0  0  0
   58.9930   28.5920   47.4710 C   0  0  0  0  0  0  0  0  0  0  0  0
   59.9220   29.1480   48.3630 C   0  0  0  0  0  0  0  0  0  0  0  0
   60.0180   28.6550   49.7770 C   0  0  0  0  0  0  0  0  0  0  0  0
   60.8100   30.1290   47.9080 C   0  0  0  0  0  0  0  0  0  0  0  0
   60.7490   30.5450   46.5800 C   0  0  0  0  0  0  0  0  0  0  0  0
   59.8350   29.9980   45.7360 N   0  0  0  0  0  0  0  0  0  0  0  0
   59.7760   33.9720   45.9810 C   0  0  0  0  0  0  0  0  0  0  0  0
   60.6360   34.2760   47.0400 C   0  0  0  0  0  0  0  0  0  0  0  0
   64.1517   32.1975   47.0005 H   0  0  0  0  0  0  0  0  0  0  0  0
   63.7994   34.0699   47.0057 H   0  0  0  0  0  0  0  0  0  0  0  0
   63.1146   31.9897   49.1821 H   0  0  0  0  0  0  0  0  0  0  0  0
   62.9824   34.2021   50.4365 H   0  0  0  0  0  0  0  0  0  0  0  0
   62.8926   35.0804   48.8606 H   0  0  0  0  0  0  0  0  0  0  0  0
   58.9410   32.7331   49.5745 H   0  0  0  0  0  0  0  0  0  0  0  0
   57.4159   32.1831   47.6883 H   0  0  0  0  0  0  0  0  0  0  0  0
   57.8700   30.7480   45.2030 H   0  0  0  0  0  0  0  0  0  0  0  0
   56.4265   32.1027   42.9303 H   0  0  0  0  0  0  0  0  0  0  0  0
   57.7029   30.8533   42.6244 H   0  0  0  0  0  0  0  0  0  0  0  0
   54.8931   30.4882   43.2659 H   0  0  0  0  0  0  0  0  0  0  0  0
   56.1429   29.2683   42.8056 H   0  0  0  0  0  0  0  0  0  0  0  0
   58.3011   27.8076   47.8117 H   0  0  0  0  0  0  0  0  0  0  0  0
   59.8547   29.4938   50.4696 H   0  0  0  0  0  0  0  0  0  0  0  0
   59.2533   27.8832   49.9490 H   0  0  0  0  0  0  0  0  0  0  0  0
   61.0164   28.2266   49.9490 H   0  0  0  0  0  0  0  0  0  0  0  0
   61.5501   30.5680   48.5933 H   0  0  0  0  0  0  0  0  0  0  0  0
   61.4415   31.3173   46.2140 H   0  0  0  0  0  0  0  0  0  0  0  0
   60.0175   34.3220   44.9665 H   0  0  0  0  0  0  0  0  0  0  0  0
   61.5462   34.8651   46.8542 H   0  0  0  0  0  0  0  0  0  0  0  0
  1  2  2  0
  2  3  1  0
  3  4  1  0
  4  5  1  0
  5  6  2  0
  6  7  1  0
  7  8  2  0
  8  9  1  0
  9 10  2  0
  9 11  1  0
 11 12  1  0
 12 13  1  0
 13 14  1  0
 14 15  1  0
 15 16  2  0
 15 17  1  0
 17 18  2  3
 18 19  1  0
 19 20  2  0
 20 21  1  0
 20 22  1  0
 22 23  2  0
 23 24  1  0
  8 25  1  0
 25 26  2  0
 26  5  1  0
 24 18  1  0
  1 27  1  0
  1 28  1  0
  2 29  1  0
  3 30  1  0
  3 31  1  0
  6 32  1  0
  7 33  1  0
 11 34  1  0
 12 35  1  0
 12 36  1  0
 13 37  1  0
 13 38  1  0
 19 39  1  0
 21 40  1  0
 21 41  1  0
 21 42  1  0
 22 43  1  0
 23 44  1  0
 25 45  1  0
 26 46  1  0
M  CHG  2  14  -1  24  -1
M  END
>  <UniqueID>  (83) 
82

>  <SMILES>  (83) 
C=CCOc1ccc(C(=O)NCC[N-]C(=O)N=c2cc(C)cc[n-]2)cc1

>  <Energy>  (83) 
43.494623573742224

>  <Genealogy>  (83) 
C=CCOc1ccc(C(=O)NCC[N-]C(=O)N=c2cc(C)cc[n-]2)cc1 (protonated)
C=CCOc1ccc(C(=O)NCC[N-]C(=O)N=c2cc(C)cc[n-]2)cc1 (3D coordinates assigned)
C=CCOc1ccc(C(=O)NCC[N-]C(=O)N=c2cc(C)cc[n-]2)cc1 (optimized conformer: 43.494623573742224 kcal/mol)

>  <smiles>  (83) 
C=CCOc1ccc(C(=O)NCCNC(=O)N=c2cc(C)cc[nH]2)cc1

>  <score_type>  (83) 
oracle

>  <origin>  (83) 
adg

>  <m_score__min__energy>  (83) 
-10.369999999999999

>  <m_primary>  (83) 
energy

$$$$
83:0
     RDKit          3D

 53 55  0  0  0  0  0  0  0  0999 V2000
   59.5370   33.3810   52.2590 C   0  0  0  0  0  0  0  0  0  0  0  0
   60.3020   32.4080   51.4090 C   0  0  0  0  0  0  0  0  0  0  0  0
   61.6590   32.4800   51.4160 N   0  0  0  0  0  0  0  0  0  0  0  0
   62.4170   31.6430   50.6680 C   0  0  0  0  0  0  0  0  0  0  0  0
   64.2000   31.7730   50.7120 S   0  0  0  0  0  0  0  0  0  0  0  0
   64.2070   33.4700   50.0520 C   0  0  0  0  0  0  0  0  0  0  0  0
   63.2730   33.5480   48.8880 C   0  0  0  0  0  0  0  0  0  0  0  0
   63.7250   33.3940   47.7200 O   0  0  0  0  0  0  0  0  0  0  0  0
   61.8750   33.7940   49.1050 N   0  0  0  0  0  0  0  0  0  0  0  0
   60.8640   33.6400   48.0960 C   0  0  0  0  0  0  0  0  0  0  0  0
   61.0020   32.6330   47.1290 C   0  0  0  0  0  0  0  0  0  0  0  0
   60.0460   32.4810   46.1220 C   0  0  0  0  0  0  0  0  0  0  0  0
   58.9430   33.3430   46.0590 C   0  0  0  0  0  0  0  0  0  0  0  0
   57.7350   33.1480   44.7860 S   0  0  0  0  0  0  0  0  0  0  0  0
   56.7080   34.2390   44.9080 O   0  0  0  0  0  0  0  0  0  0  0  0
   58.4030   33.2860   43.4470 O   0  0  0  0  0  0  0  0  0  0  0  0
   56.9430   31.5930   44.8750 N   0  0  0  0  0  0  0  0  0  0  0  0
   56.6660   31.0780   43.5270 C   0  0  0  0  0  0  0  0  0  0  0  0
   55.9740   29.7010   43.6200 C   0  0  0  0  0  0  0  0  0  0  0  0
   55.8780   29.2410   44.9560 O   0  0  0  0  0  0  0  0  0  0  0  0
   57.1640   29.2180   45.5470 C   0  0  0  0  0  0  0  0  0  0  0  0
   57.7700   30.6350   45.6250 C   0  0  0  0  0  0  0  0  0  0  0  0
   58.8120   34.3670   47.0080 C   0  0  0  0  0  0  0  0  0  0  0  0
   59.7670   34.5190   48.0170 C   0  0  0  0  0  0  0  0  0  0  0  0
   61.8240   30.7170   49.8760 N   0  0  0  0  0  0  0  0  0  0  0  0
   60.4720   30.5890   49.8210 C   0  0  0  0  0  0  0  0  0  0  0  0
   59.8960   29.5440   48.9100 C   0  0  0  0  0  0  0  0  0  0  0  0
   59.6580   31.4230   50.6230 C   0  0  0  0  0  0  0  0  0  0  0  0
   58.1490   31.3240   50.5740 C   0  0  0  0  0  0  0  0  0  0  0  0
   59.7131   33.1571   53.3215 H   0  0  0  0  0  0  0  0  0  0  0  0
   59.8748   34.4045   52.0391 H   0  0  0  0  0  0  0  0  0  0  0  0
   58.4627   33.2943   52.0391 H   0  0  0  0  0  0  0  0  0  0  0  0
   63.8793   34.1704   50.8343 H   0  0  0  0  0  0  0  0  0  0  0  0
   65.2240   33.7367   49.7285 H   0  0  0  0  0  0  0  0  0  0  0  0
   61.5860   34.1780   50.0340 H   0  0  0  0  0  0  0  0  0  0  0  0
   61.8698   31.9579   47.1641 H   0  0  0  0  0  0  0  0  0  0  0  0
   60.1595   31.6813   45.3753 H   0  0  0  0  0  0  0  0  0  0  0  0
   56.0076   31.7815   42.9964 H   0  0  0  0  0  0  0  0  0  0  0  0
   57.6141   30.9696   42.9799 H   0  0  0  0  0  0  0  0  0  0  0  0
   54.9607   29.7844   43.2001 H   0  0  0  0  0  0  0  0  0  0  0  0
   56.5820   28.9781   43.0562 H   0  0  0  0  0  0  0  0  0  0  0  0
   57.0839   28.8060   46.5638 H   0  0  0  0  0  0  0  0  0  0  0  0
   57.8212   28.5928   44.9247 H   0  0  0  0  0  0  0  0  0  0  0  0
   57.8218   30.9487   46.6780 H   0  0  0  0  0  0  0  0  0  0  0  0
   58.7777   30.6149   45.1844 H   0  0  0  0  0  0  0  0  0  0  0  0
   57.9540   35.0535   46.9581 H   0  0  0  0  0  0  0  0  0  0  0  0
   59.6611   35.3295   48.7531 H   0  0  0  0  0  0  0  0  0  0  0  0
   59.4515   28.7376   49.5118 H   0  0  0  0  0  0  0  0  0  0  0  0
   59.1206   29.9979   48.2753 H   0  0  0  0  0  0  0  0  0  0  0  0
   60.6938   29.1308   48.2753 H   0  0  0  0  0  0  0  0  0  0  0  0
   57.7498   31.2978   51.5987 H   0  0  0  0  0  0  0  0  0  0  0  0
   57.7413   32.1973   50.0439 H   0  0  0  0  0  0  0  0  0  0  0  0
   57.8589   30.4049   50.0439 H   0  0  0  0  0  0  0  0  0  0  0  0
  1  2  1  0
  2  3  2  0
  3  4  1  0
  4  5  1  0
  5  6  1  0
  6  7  1  0
  7  8  2  0
  7  9  1  0
  9 10  1  0
 10 11  2  0
 11 12  1  0
 12 13  2  0
 13 14  1  0
 14 15  2  0
 14 16  2  0
 14 17  1  0
 17 18  1  0
 18 19  1  0
 19 20  1  0
 20 21  1  0
 21 22  1  0
 13 23  1  0
 23 24  2  0
  4 25  2  0
 25 26  1  0
 26 27  1  0
 26 28  2  0
 28 29  1  0
 28  2  1  0
 24 10  1  0
 22 17  1  0
  1 30  1  0
  1 31  1  0
  1 32  1  0
  6 33  1  0
  6 34  1  0
  9 35  1  0
 11 36  1  0
 12 37  1  0
 18 38  1  0
 18 39  1  0
 19 40  1  0
 19 41  1  0
 21 42  1  0
 21 43  1  0
 22 44  1  0
 22 45  1  0
 23 46  1  0
 24 47  1  0
 27 48  1  0
 27 49  1  0
 27 50  1  0
 29 51  1  0
 29 52  1  0
 29 53  1  0
M  END
>  <UniqueID>  (84) 
83

>  <SMILES>  (84) 
Cc1nc(SCC(=O)Nc2ccc(S(=O)(=O)N3CCOCC3)cc2)nc(C)c1C

>  <Energy>  (84) 
60.11872517716685

>  <Genealogy>  (84) 
Cc1nc(SCC(=O)Nc2ccc(S(=O)(=O)N3CCOCC3)cc2)nc(C)c1C (3D coordinates assigned)
Cc1nc(SCC(=O)Nc2ccc(S(=O)(=O)N3CCOCC3)cc2)nc(C)c1C (nonaromatic ring conformer: 60.11872517716685 kcal/mol)

>  <smiles>  (84) 
Cc1nc(SCC(=O)Nc2ccc(S(=O)(=O)N3CCOCC3)cc2)nc(C)c1C

>  <score_type>  (84) 
oracle

>  <origin>  (84) 
adg

>  <m_score__min__energy>  (84) 
-9.5700000000000003

>  <m_primary>  (84) 
energy

$$$$
84:0
     RDKit          3D

 63 66  0  0  0  0  0  0  0  0999 V2000
   58.8550   30.5770   47.5900 C   0  0  0  0  0  0  0  0  0  0  0  0
   58.7730   30.4420   46.2480 C   0  0  0  0  0  0  0  0  0  0  0  0
   58.8060   29.2300   45.5460 C   0  0  0  0  0  0  0  0  0  0  0  0
   58.7880   27.9780   46.0480 C   0  0  0  0  0  0  0  0  0  0  0  0
   57.5440   27.2030   46.0150 C   0  0  0  0  0  0  0  0  0  0  0  0
   57.4750   25.9080   46.3890 N   0  0  0  0  0  0  0  0  0  0  0  0
   56.1500   25.6610   46.3590 C   0  0  0  0  0  0  0  0  0  0  0  0
   55.6640   24.5290   46.6190 O   0  0  0  0  0  0  0  0  0  0  0  0
   55.3900   26.7180   45.9790 N   0  0  0  0  0  0  0  0  0  0  0  0
   56.2830   27.6810   45.7510 C   0  0  0  0  0  0  0  0  0  0  0  0
   55.9680   28.9640   45.3210 O   0  0  0  0  0  0  0  0  0  0  0  0
   58.5780   29.5590   44.2170 C   0  0  0  0  0  0  0  0  0  0  0  0
   58.3260   30.9200   44.1630 C   0  0  0  0  0  0  0  0  0  0  0  0
   57.5900   31.5430   42.9990 C   0  0  0  0  0  0  0  0  0  0  0  0
   58.4080   31.4670   45.4160 N   0  0  0  0  0  0  0  0  0  0  0  0
   57.9290   32.7680   45.8160 C   0  0  0  0  0  0  0  0  0  0  0  0
   56.7090   33.0590   45.6010 O   0  0  0  0  0  0  0  0  0  0  0  0
   58.8090   33.7810   46.3920 N   0  0  0  0  0  0  0  0  0  0  0  0
   59.2810   34.8750   45.5330 C   0  0  0  0  0  0  0  0  0  0  0  0
   59.2150   33.7770   47.8150 C   0  0  0  0  0  0  0  0  0  0  0  0
   60.7100   33.6000   47.9110 C   0  0  0  0  0  0  0  0  0  0  0  0
   61.4200   33.0330   46.8440 C   0  0  0  0  0  0  0  0  0  0  0  0
   62.8010   32.8640   46.9400 C   0  0  0  0  0  0  0  0  0  0  0  0
   63.4790   33.2510   48.0980 C   0  0  0  0  0  0  0  0  0  0  0  0
   62.7860   33.8240   49.1790 C   0  0  0  0  0  0  0  0  0  0  0  0
   63.5280   34.2050   50.4020 C   0  0  0  0  0  0  0  0  0  0  0  0
   63.3920   35.3730   50.8770 O   0  0  0  0  0  0  0  0  0  0  0  0
   64.4160   33.2810   51.0480 N   0  0  0  0  0  0  0  0  0  0  0  0
   65.8340   33.6670   51.1540 C   0  0  0  0  0  0  0  0  0  0  0  0
   66.7350   32.4460   51.4310 C   0  0  0  0  0  0  0  0  0  0  0  0
   66.0680   31.2320   50.9250 N   0  0  0  0  0  0  0  0  0  0  0  0
   66.9950   30.0980   50.9050 C   0  0  0  0  0  0  0  0  0  0  0  0
   64.8830   30.9330   51.7590 C   0  0  0  0  0  0  0  0  0  0  0  0
   63.9030   32.1330   51.8250 C   0  0  0  0  0  0  0  0  0  0  0  0
   61.3870   33.9520   49.0870 C   0  0  0  0  0  0  0  0  0  0  0  0
   58.8193   31.5777   48.0453 H   0  0  0  0  0  0  0  0  0  0  0  0
   58.9574   29.6862   48.2272 H   0  0  0  0  0  0  0  0  0  0  0  0
   59.7009   27.5414   46.4793 H   0  0  0  0  0  0  0  0  0  0  0  0
   55.7970   29.6840   45.9970 H   0  0  0  0  0  0  0  0  0  0  0  0
   58.5944   28.8659   43.3630 H   0  0  0  0  0  0  0  0  0  0  0  0
   56.8019   32.2101   43.3782 H   0  0  0  0  0  0  0  0  0  0  0  0
   58.2965   32.1217   42.3858 H   0  0  0  0  0  0  0  0  0  0  0  0
   57.1360   30.7506   42.3858 H   0  0  0  0  0  0  0  0  0  0  0  0
   59.6391   35.7050   46.1598 H   0  0  0  0  0  0  0  0  0  0  0  0
   60.1034   34.5139   44.8979 H   0  0  0  0  0  0  0  0  0  0  0  0
   58.4540   35.2255   44.8979 H   0  0  0  0  0  0  0  0  0  0  0  0
   58.9281   34.7313   48.2808 H   0  0  0  0  0  0  0  0  0  0  0  0
   58.7135   32.9487   48.3370 H   0  0  0  0  0  0  0  0  0  0  0  0
   60.8889   32.7218   45.9324 H   0  0  0  0  0  0  0  0  0  0  0  0
   63.3586   32.4240   46.1001 H   0  0  0  0  0  0  0  0  0  0  0  0
   64.5673   33.1059   48.1652 H   0  0  0  0  0  0  0  0  0  0  0  0
   66.1481   34.1357   50.2097 H   0  0  0  0  0  0  0  0  0  0  0  0
   65.9378   34.3692   51.9943 H   0  0  0  0  0  0  0  0  0  0  0  0
   67.7003   32.5766   50.9200 H   0  0  0  0  0  0  0  0  0  0  0  0
   66.9091   32.3506   52.5129 H   0  0  0  0  0  0  0  0  0  0  0  0
   67.2360   29.8032   51.9370 H   0  0  0  0  0  0  0  0  0  0  0  0
   66.5272   29.2512   50.3815 H   0  0  0  0  0  0  0  0  0  0  0  0
   67.9179   30.3881   50.3815 H   0  0  0  0  0  0  0  0  0  0  0  0
   64.3564   30.0673   51.3309 H   0  0  0  0  0  0  0  0  0  0  0  0
   65.2307   30.7210   52.7808 H   0  0  0  0  0  0  0  0  0  0  0  0
   62.9304   31.8259   51.4129 H   0  0  0  0  0  0  0  0  0  0  0  0
   63.7973   32.4410   52.8757 H   0  0  0  0  0  0  0  0  0  0  0  0
   60.8183   34.3328   49.9482 H   0  0  0  0  0  0  0  0  0  0  0  0
  1  2  2  0
  2  3  1  0
  3  4  2  3
  4  5  1  0
  5  6  1  0
  6  7  1  0
  7  8  2  0
  7  9  1  0
  9 10  1  0
 10 11  1  0
  3 12  1  0
 12 13  2  0
 13 14  1  0
 13 15  1  0
 15 16  1  0
 16 17  2  0
 16 18  1  0
 18 19  1  0
 18 20  1  0
 20 21  1  0
 21 22  2  0
 22 23  1  0
 23 24  2  0
 24 25  1  0
 25 26  1  0
 26 27  2  0
 26 28  1  0
 28 29  1  0
 29 30  1  0
 30 31  1  0
 31 32  1  0
 31 33  1  0
 33 34  1  0
 25 35  2  0
 15  2  1  0
 35 21  1  0
 10  5  2  0
 34 28  1  0
  1 36  1  0
  1 37  1  0
  4 38  1  0
 11 39  1  0
 12 40  1  0
 14 41  1  0
 14 42  1  0
 14 43  1  0
 19 44  1  0
 19 45  1  0
 19 46  1  0
 20 47  1  0
 20 48  1  0
 22 49  1  0
 23 50  1  0
 24 51  1  0
 29 52  1  0
 29 53  1  0
 30 54  1  0
 30 55  1  0
 32 56  1  0
 32 57  1  0
 32 58  1  0
 33 59  1  0
 33 60  1  0
 34 61  1  0
 34 62  1  0
 35 63  1  0
M  CHG  2   6  -1   9  -1
M  END
>  <UniqueID>  (85) 
84

>  <SMILES>  (85) 
C=c1c(=Cc2[n-]c(=O)[n-]c2O)cc(C)n1C(=O)N(C)Cc1cccc(C(=O)N2CCN(C)CC2)c1

>  <Energy>  (85) 
160.77538902697412

>  <Genealogy>  (85) 
C=c1c(=Cc2[n-]c(=O)[n-]c2O)cc(C)n1C(=O)N(C)Cc1cccc(C(=O)N2CCN(C)CC2)c1 (protonated)
C=c1c(=Cc2[n-]c(=O)[n-]c2O)cc(C)n1C(=O)N(C)Cc1cccc(C(=O)N2CCN(C)CC2)c1 (3D coordinates assigned)
C=c1c(=Cc2[n-]c(=O)[n-]c2O)cc(C)n1C(=O)N(C)Cc1cccc(C(=O)N2CCN(C)CC2)c1 (nonaromatic ring conformer: 160.77538902697412 kcal/mol)

>  <smiles>  (85) 
C=c1c(=Cc2[nH]c(=O)[nH]c2O)cc(C)n1C(=O)N(C)Cc1cccc(C(=O)N2CCN(C)CC2)c1

>  <score_type>  (85) 
oracle

>  <origin>  (85) 
adg

>  <m_score__min__energy>  (85) 
-14.539999999999999

>  <m_primary>  (85) 
energy

$$$$
85:0
     RDKit          3D

 48 50  0  0  0  0  0  0  0  0999 V2000
   55.9060   30.0270   43.0320 C   0  0  0  0  0  0  0  0  0  0  0  0
   56.6720   29.7030   44.0770 C   0  0  0  0  0  0  0  0  0  0  0  0
   56.5470   28.5420   44.7470 N   0  0  0  0  0  0  0  0  0  0  0  0
   57.4190   28.5720   45.7790 C   0  0  0  0  0  0  0  0  0  0  0  0
   57.5080   27.5520   46.6530 C   0  0  0  0  0  0  0  0  0  0  0  0
   57.1880   26.1450   46.3470 C   0  0  0  0  0  0  0  0  0  0  0  0
   55.8720   25.7640   46.0570 C   0  0  0  0  0  0  0  0  0  0  0  0
   54.8540   26.7090   46.0070 O   0  0  0  0  0  0  0  0  0  0  0  0
   55.5840   24.4590   45.8110 N   0  0  0  0  0  0  0  0  0  0  0  0
   56.5510   23.5070   45.8570 C   0  0  0  0  0  0  0  0  0  0  0  0
   56.2610   22.3050   45.6220 O   0  0  0  0  0  0  0  0  0  0  0  0
   57.8290   23.8490   46.1630 N   0  0  0  0  0  0  0  0  0  0  0  0
   58.1670   25.1400   46.4160 C   0  0  0  0  0  0  0  0  0  0  0  0
   59.3580   25.4210   46.7150 O   0  0  0  0  0  0  0  0  0  0  0  0
   58.1430   29.7710   45.7470 C   0  0  0  0  0  0  0  0  0  0  0  0
   59.2830   30.1990   46.6300 C   0  0  0  0  0  0  0  0  0  0  0  0
   57.6550   30.4910   44.6610 C   0  0  0  0  0  0  0  0  0  0  0  0
   58.0910   31.8380   44.2320 C   0  0  0  0  0  0  0  0  0  0  0  0
   58.2370   32.0660   43.0000 O   0  0  0  0  0  0  0  0  0  0  0  0
   58.3710   32.8770   45.1880 N   0  0  0  0  0  0  0  0  0  0  0  0
   57.5380   33.0400   46.3890 C   0  0  0  0  0  0  0  0  0  0  0  0
   58.3860   33.4420   47.6160 C   0  0  0  0  0  0  0  0  0  0  0  0
   59.7350   33.9350   47.2500 N   0  0  0  0  0  0  0  0  0  0  0  0
   60.3640   34.6350   48.3890 C   0  0  0  0  0  0  0  0  0  0  0  0
   61.7780   34.0980   48.6300 C   0  0  0  0  0  0  0  0  0  0  0  0
   62.3990   33.8000   47.4100 O   0  0  0  0  0  0  0  0  0  0  0  0
   59.6640   34.7950   46.0540 C   0  0  0  0  0  0  0  0  0  0  0  0
   59.3370   33.9260   44.8390 C   0  0  0  0  0  0  0  0  0  0  0  0
   56.0516   30.9902   42.5210 H   0  0  0  0  0  0  0  0  0  0  0  0
   55.1296   29.3307   42.6823 H   0  0  0  0  0  0  0  0  0  0  0  0
   55.8740   27.7730   44.5280 H   0  0  0  0  0  0  0  0  0  0  0  0
   57.8452   27.7857   47.6736 H   0  0  0  0  0  0  0  0  0  0  0  0
   58.9909   30.0893   47.6848 H   0  0  0  0  0  0  0  0  0  0  0  0
   60.1616   29.5695   46.4255 H   0  0  0  0  0  0  0  0  0  0  0  0
   59.5302   31.2512   46.4255 H   0  0  0  0  0  0  0  0  0  0  0  0
   56.7885   33.8228   46.2006 H   0  0  0  0  0  0  0  0  0  0  0  0
   57.0526   32.0770   46.6056 H   0  0  0  0  0  0  0  0  0  0  0  0
   57.8579   34.2378   48.1618 H   0  0  0  0  0  0  0  0  0  0  0  0
   58.5205   32.5413   48.2329 H   0  0  0  0  0  0  0  0  0  0  0  0
   60.4177   35.7113   48.1682 H   0  0  0  0  0  0  0  0  0  0  0  0
   59.7586   34.4643   49.2914 H   0  0  0  0  0  0  0  0  0  0  0  0
   62.3691   34.8580   49.1620 H   0  0  0  0  0  0  0  0  0  0  0  0
   61.7144   33.1802   49.2330 H   0  0  0  0  0  0  0  0  0  0  0  0
   61.6900   33.4540   46.8070 H   0  0  0  0  0  0  0  0  0  0  0  0
   58.8773   35.5518   46.1894 H   0  0  0  0  0  0  0  0  0  0  0  0
   60.6281   35.3022   45.9014 H   0  0  0  0  0  0  0  0  0  0  0  0
   58.9099   34.5597   44.0478 H   0  0  0  0  0  0  0  0  0  0  0  0
   60.2640   33.4473   44.4904 H   0  0  0  0  0  0  0  0  0  0  0  0
  1  2  2  0
  2  3  1  0
  3  4  1  0
  4  5  2  3
  5  6  1  0
  6  7  2  0
  7  8  1  0
  7  9  1  0
  9 10  1  0
 10 11  2  0
 10 12  1  0
 12 13  1  0
 13 14  2  0
  4 15  1  0
 15 16  1  0
 15 17  2  0
 17 18  1  0
 18 19  2  0
 18 20  1  0
 20 21  1  0
 21 22  1  0
 22 23  1  0
 23 24  1  0
 24 25  1  0
 25 26  1  0
 23 27  1  0
 27 28  1  0
 17  2  1  0
 28 20  1  0
 13  6  1  0
  1 29  1  0
  1 30  1  0
  3 31  1  0
  5 32  1  0
 16 33  1  0
 16 34  1  0
 16 35  1  0
 21 36  1  0
 21 37  1  0
 22 38  1  0
 22 39  1  0
 24 40  1  0
 24 41  1  0
 25 42  1  0
 25 43  1  0
 26 44  1  0
 27 45  1  0
 27 46  1  0
 28 47  1  0
 28 48  1  0
M  CHG  3   8  -1   9  -1  12  -1
M  END
>  <UniqueID>  (86) 
85

>  <SMILES>  (86) 
C=c1[nH]c(=Cc2c([O-])[n-]c(=O)[n-]c2=O)c(C)c1C(=O)N1CCN(CCO)CC1

>  <Energy>  (86) 
97.69954830045248

>  <Genealogy>  (86) 
C=c1[nH]c(=Cc2c([O-])[n-]c(=O)[n-]c2=O)c(C)c1C(=O)N1CCN(CCO)CC1 (protonated)
C=c1[nH]c(=Cc2c([O-])[n-]c(=O)[n-]c2=O)c(C)c1C(=O)N1CCN(CCO)CC1 (3D coordinates assigned)
C=c1[nH]c(=Cc2c([O-])[n-]c(=O)[n-]c2=O)c(C)c1C(=O)N1CCN(CCO)CC1 (nonaromatic ring conformer: 97.69954830045248 kcal/mol)

>  <smiles>  (86) 
C=c1[nH]c(=Cc2c(O)[nH]c(=O)[nH]c2=O)c(C)c1C(=O)N1CCN(CCO)CC1

>  <score_type>  (86) 
oracle

>  <origin>  (86) 
adg

>  <m_score__min__energy>  (86) 
-15.789999999999999

>  <m_primary>  (86) 
energy

$$$$
86:0
     RDKit          3D

 66 70  0  0  0  0  0  0  0  0999 V2000
   51.1640   32.3020   53.3050 C   0  0  0  0  0  0  0  0  0  0  0  0
   50.9170   31.4220   52.1500 N   0  0  0  0  0  0  0  0  0  0  0  0
   51.7290   31.8100   50.9770 C   0  0  0  0  0  0  0  0  0  0  0  0
   53.2310   31.5720   51.2200 C   0  0  0  0  0  0  0  0  0  0  0  0
   53.4420   30.3350   51.9770 N   0  0  0  0  0  0  0  0  0  0  0  0
   54.7170   30.0950   52.5940 C   0  0  0  0  0  0  0  0  0  0  0  0
   54.9200   28.9890   53.4320 C   0  0  0  0  0  0  0  0  0  0  0  0
   56.1590   28.8130   54.0490 C   0  0  0  0  0  0  0  0  0  0  0  0
   57.1810   29.7390   53.8380 C   0  0  0  0  0  0  0  0  0  0  0  0
   56.9490   30.8440   53.0040 C   0  0  0  0  0  0  0  0  0  0  0  0
   58.0050   31.8460   52.7350 C   0  0  0  0  0  0  0  0  0  0  0  0
   58.8620   32.2920   53.7570 C   0  0  0  0  0  0  0  0  0  0  0  0
   59.8220   33.2720   53.4950 C   0  0  0  0  0  0  0  0  0  0  0  0
   59.9490   33.8070   52.2120 C   0  0  0  0  0  0  0  0  0  0  0  0
   59.1230   33.3550   51.1740 C   0  0  0  0  0  0  0  0  0  0  0  0
   59.2650   33.9130   49.8590 N   0  0  0  0  0  0  0  0  0  0  0  0
   59.7010   33.1430   48.7250 C   0  0  0  0  0  0  0  0  0  0  0  0
   60.2920   32.0430   48.9050 O   0  0  0  0  0  0  0  0  0  0  0  0
   59.5080   33.6500   47.3490 C   0  0  0  0  0  0  0  0  0  0  0  0
   59.9040   34.9510   47.0010 C   0  0  0  0  0  0  0  0  0  0  0  0
   59.6950   35.4120   45.7010 C   0  0  0  0  0  0  0  0  0  0  0  0
   59.1310   34.5970   44.7700 N   0  0  0  0  0  0  0  0  0  0  0  0
   58.7500   33.3220   45.0630 C   0  0  0  0  0  0  0  0  0  0  0  0
   58.1540   32.4850   44.0030 C   0  0  0  0  0  0  0  0  0  0  0  0
   58.1600   32.9080   42.8150 O   0  0  0  0  0  0  0  0  0  0  0  0
   57.5770   31.1970   44.2950 N   0  0  0  0  0  0  0  0  0  0  0  0
   56.4660   30.7000   43.4780 C   0  0  0  0  0  0  0  0  0  0  0  0
   55.6460   29.6840   44.2810 C   0  0  0  0  0  0  0  0  0  0  0  0
   56.4810   28.6740   44.8230 O   0  0  0  0  0  0  0  0  0  0  0  0
   57.3850   29.2450   45.7530 C   0  0  0  0  0  0  0  0  0  0  0  0
   58.3470   30.2020   45.0470 C   0  0  0  0  0  0  0  0  0  0  0  0
   58.9080   32.8390   46.3720 C   0  0  0  0  0  0  0  0  0  0  0  0
   58.1390   32.3900   51.4470 C   0  0  0  0  0  0  0  0  0  0  0  0
   55.7300   30.9860   52.4120 N   0  0  0  0  0  0  0  0  0  0  0  0
   52.3650   29.3410   52.0170 C   0  0  0  0  0  0  0  0  0  0  0  0
   51.0580   29.9860   52.5140 C   0  0  0  0  0  0  0  0  0  0  0  0
   51.0057   31.7381   54.2361 H   0  0  0  0  0  0  0  0  0  0  0  0
   52.2001   32.6698   53.2707 H   0  0  0  0  0  0  0  0  0  0  0  0
   50.4707   33.1553   53.2707 H   0  0  0  0  0  0  0  0  0  0  0  0
   51.4094   31.2141   50.1094 H   0  0  0  0  0  0  0  0  0  0  0  0
   51.5771   32.8842   50.7950 H   0  0  0  0  0  0  0  0  0  0  0  0
   53.7461   31.4951   50.2511 H   0  0  0  0  0  0  0  0  0  0  0  0
   53.6342   32.4154   51.7998 H   0  0  0  0  0  0  0  0  0  0  0  0
   54.1087   28.2658   53.6016 H   0  0  0  0  0  0  0  0  0  0  0  0
   56.3300   27.9442   54.7017 H   0  0  0  0  0  0  0  0  0  0  0  0
   58.1601   29.6043   54.3210 H   0  0  0  0  0  0  0  0  0  0  0  0
   58.7758   31.8668   54.7678 H   0  0  0  0  0  0  0  0  0  0  0  0
   60.4806   33.6236   54.3029 H   0  0  0  0  0  0  0  0  0  0  0  0
   60.7001   34.5861   52.0150 H   0  0  0  0  0  0  0  0  0  0  0  0
   59.1700   34.9480   49.7480 H   0  0  0  0  0  0  0  0  0  0  0  0
   60.3768   35.6037   47.7496 H   0  0  0  0  0  0  0  0  0  0  0  0
   59.9871   36.4369   45.4285 H   0  0  0  0  0  0  0  0  0  0  0  0
   55.8208   31.5422   43.1875 H   0  0  0  0  0  0  0  0  0  0  0  0
   56.8669   30.2127   42.5770 H   0  0  0  0  0  0  0  0  0  0  0  0
   55.1317   30.2049   45.1021 H   0  0  0  0  0  0  0  0  0  0  0  0
   54.9154   29.2118   43.6077 H   0  0  0  0  0  0  0  0  0  0  0  0
   56.8179   29.7991   46.5155 H   0  0  0  0  0  0  0  0  0  0  0  0
   57.9669   28.4391   46.2241 H   0  0  0  0  0  0  0  0  0  0  0  0
   58.9735   30.7107   45.7945 H   0  0  0  0  0  0  0  0  0  0  0  0
   58.9895   29.6354   44.3569 H   0  0  0  0  0  0  0  0  0  0  0  0
   58.5625   31.8275   46.6317 H   0  0  0  0  0  0  0  0  0  0  0  0
   57.4661   32.0568   50.6431 H   0  0  0  0  0  0  0  0  0  0  0  0
   52.2079   28.9358   51.0065 H   0  0  0  0  0  0  0  0  0  0  0  0
   52.6498   28.5336   52.7077 H   0  0  0  0  0  0  0  0  0  0  0  0
   50.2121   29.4338   52.0787 H   0  0  0  0  0  0  0  0  0  0  0  0
   51.0751   29.9356   53.6127 H   0  0  0  0  0  0  0  0  0  0  0  0
  1  2  1  0
  2  3  1  0
  3  4  1  0
  4  5  1  0
  5  6  1  0
  6  7  2  0
  7  8  1  0
  8  9  2  0
  9 10  1  0
 10 11  1  0
 11 12  2  0
 12 13  1  0
 13 14  2  0
 14 15  1  0
 15 16  1  0
 16 17  1  0
 17 18  2  0
 17 19  1  0
 19 20  2  0
 20 21  1  0
 21 22  2  0
 22 23  1  0
 23 24  1  0
 24 25  2  0
 24 26  1  0
 26 27  1  0
 27 28  1  0
 28 29  1  0
 29 30  1  0
 30 31  1  0
 23 32  2  0
 15 33  2  0
 10 34  2  0
  5 35  1  0
 35 36  1  0
 36  2  1  0
 34  6  1  0
 33 11  1  0
 32 19  1  0
 31 26  1  0
  1 37  1  0
  1 38  1  0
  1 39  1  0
  3 40  1  0
  3 41  1  0
  4 42  1  0
  4 43  1  0
  7 44  1  0
  8 45  1  0
  9 46  1  0
 12 47  1  0
 13 48  1  0
 14 49  1  0
 16 50  1  0
 20 51  1  0
 21 52  1  0
 27 53  1  0
 27 54  1  0
 28 55  1  0
 28 56  1  0
 30 57  1  0
 30 58  1  0
 31 59  1  0
 31 60  1  0
 32 61  1  0
 33 62  1  0
 35 63  1  0
 35 64  1  0
 36 65  1  0
 36 66  1  0
M  END
>  <UniqueID>  (87) 
86

>  <SMILES>  (87) 
CN1CCN(c2cccc(-c3cccc(NC(=O)c4ccnc(C(=O)N5CCOCC5)c4)c3)n2)CC1

>  <Energy>  (87) 
96.76204678871163

>  <Genealogy>  (87) 
CN1CCN(c2cccc(-c3cccc(NC(=O)c4ccnc(C(=O)N5CCOCC5)c4)c3)n2)CC1 (3D coordinates assigned)
CN1CCN(c2cccc(-c3cccc(NC(=O)c4ccnc(C(=O)N5CCOCC5)c4)c3)n2)CC1 (nonaromatic ring conformer: 96.76204678871163 kcal/mol)

>  <smiles>  (87) 
CN1CCN(c2cccc(-c3cccc(NC(=O)c4ccnc(C(=O)N5CCOCC5)c4)c3)n2)CC1

>  <score_type>  (87) 
oracle

>  <origin>  (87) 
adg

>  <m_score__min__energy>  (87) 
-9.4499999999999993

>  <m_primary>  (87) 
energy

$$$$
87:0
     RDKit          3D

 44 45  0  0  0  0  0  0  0  0999 V2000
   59.1660   29.3960   51.6320 C   0  0  0  0  0  0  0  0  0  0  0  0
   57.9640   30.0340   50.9320 C   0  0  1  0  0  0  0  0  0  0  0  0
   57.1560   30.8720   51.9360 C   0  0  0  0  0  0  0  0  0  0  0  0
   56.8200   30.1190   53.1010 O   0  0  0  0  0  0  0  0  0  0  0  0
   55.5970   29.4610   53.2760 C   0  0  0  0  0  0  0  0  0  0  0  0
   55.4970   28.2190   53.0830 O   0  0  0  0  0  0  0  0  0  0  0  0
   54.3960   30.2460   53.6970 C   0  0  0  0  0  0  0  0  0  0  0  0
   53.4910   30.5020   52.5250 C   0  0  0  0  0  0  0  0  0  0  0  0
   53.6170   29.7390   51.3530 C   0  0  0  0  0  0  0  0  0  0  0  0
   52.7600   29.9640   50.2720 C   0  0  0  0  0  0  0  0  0  0  0  0
   51.7590   30.9390   50.3530 C   0  0  0  0  0  0  0  0  0  0  0  0
   50.9110   31.1360   49.2640 O   0  0  0  0  0  0  0  0  0  0  0  0
   51.6230   31.6980   51.5280 C   0  0  0  0  0  0  0  0  0  0  0  0
   50.6300   32.6660   51.6310 O   0  0  0  0  0  0  0  0  0  0  0  0
   52.4860   31.4790   52.6060 C   0  0  0  0  0  0  0  0  0  0  0  0
   58.4570   30.8710   49.8400 N   0  0  0  0  0  0  0  0  0  0  0  0
   59.5910   30.6210   48.9950 C   0  0  0  0  0  0  0  0  0  0  0  0
   60.6100   31.3460   49.1280 O   0  0  0  0  0  0  0  0  0  0  0  0
   59.6300   29.5030   47.9860 C   0  0  0  0  0  0  0  0  0  0  0  0
   58.8020   29.8210   46.7370 C   0  0  0  0  0  0  0  0  0  0  0  0
   57.7730   28.7590   46.4590 C   0  0  0  0  0  0  0  0  0  0  0  0
   57.8570   27.5650   47.1050 N   0  0  0  0  0  0  0  0  0  0  0  0
   56.9850   26.5840   46.8670 N   0  0  0  0  0  0  0  0  0  0  0  0
   55.9850   26.7490   45.9640 C   0  0  0  0  0  0  0  0  0  0  0  0
   55.1690   25.8160   45.7480 O   0  0  0  0  0  0  0  0  0  0  0  0
   55.8700   27.9230   45.2950 N   0  0  0  0  0  0  0  0  0  0  0  0
   56.7460   28.9340   45.5190 C   0  0  0  0  0  0  0  0  0  0  0  0
   56.6260   30.0130   44.8790 O   0  0  0  0  0  0  0  0  0  0  0  0
   59.0350   29.4655   52.7220 H   0  0  0  0  0  0  0  0  0  0  0  0
   59.2424   28.3386   51.3386 H   0  0  0  0  0  0  0  0  0  0  0  0
   60.0846   29.9252   51.3386 H   0  0  0  0  0  0  0  0  0  0  0  0
   57.3004   29.2551   50.5282 H   0  0  0  0  0  0  0  0  0  0  0  0
   57.7549   31.7446   52.2358 H   0  0  0  0  0  0  0  0  0  0  0  0
   56.2211   31.1850   51.4481 H   0  0  0  0  0  0  0  0  0  0  0  0
   53.8446   29.6798   54.4621 H   0  0  0  0  0  0  0  0  0  0  0  0
   54.7298   31.2120   54.1037 H   0  0  0  0  0  0  0  0  0  0  0  0
   54.3925   28.9618   51.2854 H   0  0  0  0  0  0  0  0  0  0  0  0
   52.8729   29.3714   49.3522 H   0  0  0  0  0  0  0  0  0  0  0  0
   49.9470   30.8260   49.2710 H   0  0  0  0  0  0  0  0  0  0  0  0
   52.3769   32.0760   53.5234 H   0  0  0  0  0  0  0  0  0  0  0  0
   60.6744   29.3339   47.6850 H   0  0  0  0  0  0  0  0  0  0  0  0
   59.1991   28.6075   48.4576 H   0  0  0  0  0  0  0  0  0  0  0  0
   58.2890   30.7826   46.8860 H   0  0  0  0  0  0  0  0  0  0  0  0
   59.4865   29.8651   45.8770 H   0  0  0  0  0  0  0  0  0  0  0  0
  1  2  1  0
  2  3  1  0
  3  4  1  0
  4  5  1  0
  5  6  2  0
  5  7  1  0
  7  8  1  0
  8  9  2  0
  9 10  1  0
 10 11  2  0
 11 12  1  0
 11 13  1  0
 13 14  1  0
 13 15  2  0
  2 16  1  0
 16 17  1  0
 17 18  2  0
 17 19  1  0
 19 20  1  0
 20 21  1  0
 21 22  2  0
 22 23  1  0
 23 24  1  0
 24 25  2  0
 24 26  1  0
 26 27  1  0
 27 28  2  0
 15  8  1  0
 27 21  1  0
  1 29  1  0
  1 30  1  0
  1 31  1  0
  2 32  1  6
  3 33  1  0
  3 34  1  0
  7 35  1  0
  7 36  1  0
  9 37  1  0
 10 38  1  0
 12 39  1  0
 15 40  1  0
 19 41  1  0
 19 42  1  0
 20 43  1  0
 20 44  1  0
M  CHG  4  14  -1  16  -1  23  -1  26  -1
M  END
>  <UniqueID>  (88) 
87

>  <SMILES>  (88) 
C[C@@H](COC(=O)Cc1ccc(O)c([O-])c1)[N-]C(=O)CCc1n[n-]c(=O)[n-]c1=O

>  <Energy>  (88) 
33.77832480054892

>  <Genealogy>  (88) 
CC(COC(=O)Cc1ccc(O)c([O-])c1)[N-]C(=O)CCc1n[n-]c(=O)[n-]c1=O (protonated)
C[C@@H](COC(=O)Cc1ccc(O)c([O-])c1)[N-]C(=O)CCc1n[n-]c(=O)[n-]c1=O (chirality)
C[C@@H](COC(=O)Cc1ccc(O)c([O-])c1)[N-]C(=O)CCc1n[n-]c(=O)[n-]c1=O (3D coordinates assigned)
C[C@@H](COC(=O)Cc1ccc(O)c([O-])c1)[N-]C(=O)CCc1n[n-]c(=O)[n-]c1=O (optimized conformer: 33.77832480054892 kcal/mol)

>  <smiles>  (88) 
CC(COC(=O)Cc1ccc(O)c(O)c1)NC(=O)CCc1n[nH]c(=O)[nH]c1=O

>  <score_type>  (88) 
oracle

>  <origin>  (88) 
adg

>  <m_score__min__energy>  (88) 
-17.039999999999999

>  <m_primary>  (88) 
energy

$$$$
88:0
     RDKit          3D

 56 59  0  0  0  0  0  0  0  0999 V2000
   57.4750   30.4470   44.0030 C   0  0  0  0  0  0  0  0  0  0  0  0
   58.1050   31.3540   44.7650 C   0  0  0  0  0  0  0  0  0  0  0  0
   58.5180   32.6680   44.1950 C   0  0  0  0  0  0  0  0  0  0  0  0
   58.5690   33.5930   45.4070 C   0  0  0  0  0  0  0  0  0  0  0  0
   58.8700   32.6800   46.6270 C   0  0  2  0  0  0  0  0  0  0  0  0
   58.2950   33.3060   47.9300 C   0  0  0  0  0  0  0  0  0  0  0  0
   58.0960   32.3340   48.9220 O   0  0  0  0  0  0  0  0  0  0  0  0
   60.4340   32.5340   46.7000 C   0  0  0  0  0  0  0  0  0  0  0  0
   61.0320   31.3210   47.4830 C   0  0  1  0  0  0  0  0  0  0  0  0
   62.5590   31.2410   47.1020 C   0  0  0  0  0  0  0  0  0  0  0  0
   63.3800   32.2950   47.7950 C   0  0  0  0  0  0  0  0  0  0  0  0
   63.2550   32.4470   49.1170 C   0  0  0  0  0  0  0  0  0  0  0  0
   64.0290   33.5130   49.8410 C   0  0  0  0  0  0  0  0  0  0  0  0
   62.2670   31.5640   49.8330 C   0  0  0  0  0  0  0  0  0  0  0  0
   60.9180   31.5700   49.0690 C   0  0  2  0  0  0  0  0  0  0  0  0
   60.0090   30.7150   49.7160 O   0  0  0  0  0  0  0  0  0  0  0  0
   60.3080   30.0000   46.9980 C   0  0  2  0  0  0  0  0  0  0  0  0
   60.7420   29.4690   45.6060 C   0  0  0  0  0  0  0  0  0  0  0  0
   60.1350   28.0850   45.3230 C   0  0  0  0  0  0  0  0  0  0  0  0
   58.7000   27.9260   45.7770 C   0  0  0  0  0  0  0  0  0  0  0  0
   57.9500   26.6850   45.3780 C   0  0  0  0  0  0  0  0  0  0  0  0
   58.1040   28.8180   46.5930 C   0  0  0  0  0  0  0  0  0  0  0  0
   58.7570   30.1120   47.0170 C   0  0  2  0  0  0  0  0  0  0  0  0
   58.1530   31.3480   46.2770 C   0  0  2  0  0  0  0  0  0  0  0  0
   57.1745   29.4804   44.4335 H   0  0  0  0  0  0  0  0  0  0  0  0
   57.2590   30.6700   42.9477 H   0  0  0  0  0  0  0  0  0  0  0  0
   59.5059   32.5942   43.7169 H   0  0  0  0  0  0  0  0  0  0  0  0
   57.8304   33.0275   43.4152 H   0  0  0  0  0  0  0  0  0  0  0  0
   59.3654   34.3417   45.2837 H   0  0  0  0  0  0  0  0  0  0  0  0
   57.6244   34.1415   45.5364 H   0  0  0  0  0  0  0  0  0  0  0  0
   59.0011   34.0611   48.3058 H   0  0  0  0  0  0  0  0  0  0  0  0
   57.3226   33.7629   47.6940 H   0  0  0  0  0  0  0  0  0  0  0  0
   58.7920   32.4940   49.6120 H   0  0  0  0  0  0  0  0  0  0  0  0
   60.8029   32.4671   45.6659 H   0  0  0  0  0  0  0  0  0  0  0  0
   60.7609   33.4136   47.2739 H   0  0  0  0  0  0  0  0  0  0  0  0
   62.9427   30.2503   47.3873 H   0  0  0  0  0  0  0  0  0  0  0  0
   62.6432   31.4095   46.0183 H   0  0  0  0  0  0  0  0  0  0  0  0
   64.0720   32.9302   47.2225 H   0  0  0  0  0  0  0  0  0  0  0  0
   63.9243   33.3688   50.9265 H   0  0  0  0  0  0  0  0  0  0  0  0
   65.0913   33.4474   49.5632 H   0  0  0  0  0  0  0  0  0  0  0  0
   63.6378   34.5028   49.5632 H   0  0  0  0  0  0  0  0  0  0  0  0
   62.6584   30.5370   49.8773 H   0  0  0  0  0  0  0  0  0  0  0  0
   62.1111   31.9421   50.8542 H   0  0  0  0  0  0  0  0  0  0  0  0
   60.5242   32.5962   49.1123 H   0  0  0  0  0  0  0  0  0  0  0  0
   59.1060   30.8780   49.3380 H   0  0  0  0  0  0  0  0  0  0  0  0
   60.6450   29.2686   47.7473 H   0  0  0  0  0  0  0  0  0  0  0  0
   60.4039   30.1738   44.8321 H   0  0  0  0  0  0  0  0  0  0  0  0
   61.8381   29.3766   45.5955 H   0  0  0  0  0  0  0  0  0  0  0  0
   60.1741   27.9077   44.2381 H   0  0  0  0  0  0  0  0  0  0  0  0
   60.7281   27.3589   45.8983 H   0  0  0  0  0  0  0  0  0  0  0  0
   57.6248   26.1470   46.2806 H   0  0  0  0  0  0  0  0  0  0  0  0
   57.0696   26.9647   44.7808 H   0  0  0  0  0  0  0  0  0  0  0  0
   58.6070   26.0356   44.7808 H   0  0  0  0  0  0  0  0  0  0  0  0
   57.0946   28.5929   46.9677 H   0  0  0  0  0  0  0  0  0  0  0  0
   58.5116   30.3014   48.0724 H   0  0  0  0  0  0  0  0  0  0  0  0
   57.1240   31.2591   46.6554 H   0  0  0  0  0  0  0  0  0  0  0  0
  1  2  2  0
  2  3  1  0
  3  4  1  0
  4  5  1  0
  5  6  1  1
  6  7  1  0
  5  8  1  0
  9  8  1  6
  9 10  1  0
 10 11  1  0
 11 12  2  0
 12 13  1  0
 12 14  1  0
 14 15  1  0
 15 16  1  0
  9 17  1  0
 17 18  1  0
 18 19  1  0
 19 20  1  0
 20 21  1  0
 20 22  2  0
 22 23  1  0
 23 24  1  0
 24  2  1  0
 24  5  1  0
 15  9  1  0
 23 17  1  0
  1 25  1  0
  1 26  1  0
  3 27  1  0
  3 28  1  0
  4 29  1  0
  4 30  1  0
  6 31  1  0
  6 32  1  0
  7 33  1  0
  8 34  1  0
  8 35  1  0
 10 36  1  0
 10 37  1  0
 11 38  1  0
 13 39  1  0
 13 40  1  0
 13 41  1  0
 14 42  1  0
 14 43  1  0
 15 44  1  6
 16 45  1  0
 17 46  1  1
 18 47  1  0
 18 48  1  0
 19 49  1  0
 19 50  1  0
 21 51  1  0
 21 52  1  0
 21 53  1  0
 22 54  1  0
 23 55  1  1
 24 56  1  1
M  END
>  <UniqueID>  (89) 
88

>  <SMILES>  (89) 
C=C1CC[C@]2(CO)C[C@]3(CC=C(C)CC3O)C3CCC(C)=CC3C12

>  <Energy>  (89) 
85.35133227781004

>  <Genealogy>  (89) 
C=C1CC[C@]2(CO)C[C@]3(CC=C(C)CC3O)C3CCC(C)=CC3C12 (chirality)
C=C1CC[C@]2(CO)C[C@]3(CC=C(C)CC3O)C3CCC(C)=CC3C12 (3D coordinates assigned)
C=C1CC[C@]2(CO)C[C@]3(CC=C(C)CC3O)C3CCC(C)=CC3C12 (nonaromatic ring conformer: 85.35133227781004 kcal/mol)

>  <smiles>  (89) 
C=C1CCC2(CO)CC3(CC=C(C)CC3O)C3CCC(C)=CC3C12

>  <score_type>  (89) 
oracle

>  <origin>  (89) 
adg

>  <m_score__min__energy>  (89) 
-7.6399999999999997

>  <m_primary>  (89) 
energy

$$$$
89:0
     RDKit          3D

 51 54  0  0  0  0  0  0  0  0999 V2000
   58.2101   32.2722   41.8439 H   0  0  0  0  0  0  0  0  0  0  0  0
   57.6750   31.6180   42.5480 C   0  0  0  0  0  0  0  0  0  0  0  0
   58.0140   31.6140   43.8650 N   0  0  0  0  0  0  0  0  0  0  0  0
   57.3830   30.8170   44.7740 C   0  0  0  0  0  0  0  0  0  0  0  0
   57.7050   30.8470   46.0350 N   0  0  0  0  0  0  0  0  0  0  0  0
   57.9680   32.0180   46.8260 C   0  0  0  0  0  0  0  0  0  0  0  0
   57.1080   33.4010   46.5960 S   0  0  0  0  0  0  0  0  0  0  0  0
   59.2360   32.0930   47.5750 C   0  0  0  0  0  0  0  0  0  0  0  0
   59.6060   33.3080   48.1750 C   0  0  0  0  0  0  0  0  0  0  0  0
   58.9615   34.1920   48.0603 H   0  0  0  0  0  0  0  0  0  0  0  0
   60.7860   33.4020   48.9160 C   0  0  0  0  0  0  0  0  0  0  0  0
   61.0646   34.3567   49.3861 H   0  0  0  0  0  0  0  0  0  0  0  0
   61.6120   32.2870   49.0610 C   0  0  0  0  0  0  0  0  0  0  0  0
   62.5369   32.3617   49.6517 H   0  0  0  0  0  0  0  0  0  0  0  0
   61.2660   31.0760   48.4570 C   0  0  0  0  0  0  0  0  0  0  0  0
   61.9240   30.2017   48.5697 H   0  0  0  0  0  0  0  0  0  0  0  0
   60.0840   30.9670   47.7070 C   0  0  0  0  0  0  0  0  0  0  0  0
   59.7900   29.7350   47.0240 N   0  0  0  0  0  0  0  0  0  0  0  0
   58.9300   28.7370   47.6700 C   0  0  0  0  0  0  0  0  0  0  0  0
   57.9665   29.2026   47.9246 H   0  0  0  0  0  0  0  0  0  0  0  0
   59.4334   28.3744   48.5784 H   0  0  0  0  0  0  0  0  0  0  0  0
   58.6810   27.5450   46.7390 C   0  0  0  0  0  0  0  0  0  0  0  0
   57.7910   26.9957   47.0799 H   0  0  0  0  0  0  0  0  0  0  0  0
   59.5579   26.8811   46.7583 H   0  0  0  0  0  0  0  0  0  0  0  0
   58.4630   28.0220   45.3590 N   0  0  0  0  0  0  0  0  0  0  0  0
   57.7030   28.7420   45.3820 H   0  0  0  0  0  0  0  0  0  0  0  0
   58.0180   26.9340   44.5190 C   0  0  0  0  0  0  0  0  0  0  0  0
   57.7810   27.1490   43.2990 O   0  0  0  0  0  0  0  0  0  0  0  0
   57.7650   25.6390   45.0970 N   0  0  0  0  0  0  0  0  0  0  0  0
   56.8830   24.7420   44.7500 C   0  0  0  0  0  0  0  0  0  0  0  0
   55.6120   24.6310   45.3540 C   0  0  0  0  0  0  0  0  0  0  0  0
   55.3224   25.3158   46.1646 H   0  0  0  0  0  0  0  0  0  0  0  0
   54.7240   23.6450   44.9150 C   0  0  0  0  0  0  0  0  0  0  0  0
   53.7362   23.5465   45.3888 H   0  0  0  0  0  0  0  0  0  0  0  0
   55.0770   22.8080   43.9050 N   0  0  0  0  0  0  0  0  0  0  0  0
   56.2860   22.9010   43.2940 C   0  0  0  0  0  0  0  0  0  0  0  0
   56.5423   22.2109   42.4766 H   0  0  0  0  0  0  0  0  0  0  0  0
   57.2050   23.8710   43.7010 C   0  0  0  0  0  0  0  0  0  0  0  0
   58.1803   23.9509   43.1985 H   0  0  0  0  0  0  0  0  0  0  0  0
   59.6790   28.6520   44.7810 C   0  0  0  0  0  0  0  0  0  0  0  0
   59.3644   29.3860   44.0245 H   0  0  0  0  0  0  0  0  0  0  0  0
   60.2882   27.8435   44.3508 H   0  0  0  0  0  0  0  0  0  0  0  0
   60.5570   29.3740   45.8270 C   0  0  0  0  0  0  0  0  0  0  0  0
   60.9670   30.2901   45.3768 H   0  0  0  0  0  0  0  0  0  0  0  0
   61.3623   28.6887   46.1300 H   0  0  0  0  0  0  0  0  0  0  0  0
   56.3400   29.9810   44.3470 C   0  0  0  0  0  0  0  0  0  0  0  0
   55.6670   29.1650   45.2510 O   0  0  0  0  0  0  0  0  0  0  0  0
   55.9770   29.9700   42.9970 C   0  0  0  0  0  0  0  0  0  0  0  0
   55.1642   29.3148   42.6505 H   0  0  0  0  0  0  0  0  0  0  0  0
   56.6470   30.7910   42.0900 C   0  0  0  0  0  0  0  0  0  0  0  0
   56.3688   30.7871   41.0258 H   0  0  0  0  0  0  0  0  0  0  0  0
  1  2  1  0
  2  3  1  0
  3  4  1  0
  4  5  2  0
  5  6  1  0
  6  7  2  0
  6  8  1  0
  8  9  2  0
  9 10  1  0
  9 11  1  0
 11 12  1  0
 11 13  2  0
 13 14  1  0
 13 15  1  0
 15 16  1  0
 15 17  2  0
 17 18  1  0
 18 19  1  0
 19 20  1  0
 19 21  1  0
 19 22  1  0
 22 23  1  0
 22 24  1  0
 22 25  1  0
 25 26  1  0
 25 27  1  0
 27 28  2  0
 27 29  1  0
 29 30  2  3
 30 31  1  0
 31 32  1  0
 31 33  2  0
 33 34  1  0
 33 35  1  0
 35 36  1  0
 36 37  1  0
 36 38  2  0
 38 39  1  0
 25 40  1  0
 40 41  1  0
 40 42  1  0
 40 43  1  0
 43 44  1  0
 43 45  1  0
  4 46  1  0
 46 47  1  0
 46 48  2  0
 48 49  1  0
 48 50  1  0
 50 51  1  0
 50  2  2  0
 17  8  1  0
 43 18  1  0
 38 30  1  0
M  CHG  4   3  -1  25   1  35  -1  47  -1
M  END
>  <UniqueID>  (90) 
89

>  <SMILES>  (90) 
O=C(N=c1cc[n-]cc1)[NH+]1CCN(c2ccccc2C(=S)/N=c2\[n-]cccc2[O-])CC1

>  <Energy>  (90) 
85.76101457070953

>  <Genealogy>  (90) 
O=C(N=c1cc[n-]cc1)[NH+]1CCN(c2ccccc2C(=S)N=c2[n-]cccc2[O-])CC1 (protonated)
O=C(N=c1cc[n-]cc1)[NH+]1CCN(c2ccccc2C(=S)/N=c2\[n-]cccc2[O-])CC1 (cis-trans isomerization)
O=C(N=c1cc[n-]cc1)[NH+]1CCN(c2ccccc2C(=S)/N=c2\[n-]cccc2[O-])CC1 (3D coordinates assigned)
O=C(N=c1cc[n-]cc1)[NH+]1CCN(c2ccccc2C(=S)/N=c2\[n-]cccc2[O-])CC1 (nonaromatic ring conformer: 85.76101457070953 kcal/mol)

>  <smiles>  (90) 
O=C(N=c1cc[nH]cc1)N1CCN(c2ccccc2C(=S)N=c2[nH]cccc2O)CC1

>  <score_type>  (90) 
oracle

>  <origin>  (90) 
adg

>  <m_score__min__energy>  (90) 
-12.460000000000001

>  <m_primary>  (90) 
energy

$$$$
