0:0
     RDKit          3D

 49 52  0  0  0  0  0  0  0  0999 V2000
   62.9642   31.1892   51.1977 H   0  0  0  0  0  0  0  0  0  0  0  0
   62.5990   31.7890   50.3510 C   0  0  0  0  0  0  0  0  0  0  0  0
   63.4080   32.0000   49.2710 N   0  0  0  0  0  0  0  0  0  0  0  0
   62.9480   32.7500   48.2400 C   0  0  0  0  0  0  0  0  0  0  0  0
   61.6940   33.2930   48.2370 C   0  0  0  0  0  0  0  0  0  0  0  0
   60.8270   33.1000   49.3080 C   0  0  0  0  0  0  0  0  0  0  0  0
   59.8142   33.5293   49.3078 H   0  0  0  0  0  0  0  0  0  0  0  0
   61.2950   32.3360   50.3890 C   0  0  0  0  0  0  0  0  0  0  0  0
   60.4990   32.1140   51.4610 F   0  0  0  0  0  0  0  0  0  0  0  0
   61.5440   33.9390   47.0260 C   0  0  0  0  0  0  0  0  0  0  0  0
   60.3010   34.5760   46.4800 C   0  0  0  0  0  0  0  0  0  0  0  0
   60.5539   35.1591   45.5822 H   0  0  0  0  0  0  0  0  0  0  0  0
   59.8678   35.2389   47.2435 H   0  0  0  0  0  0  0  0  0  0  0  0
   59.3010   33.5160   46.1200 C   0  0  0  0  0  0  0  0  0  0  0  0
   59.3080   32.3330   46.7910 N   0  0  0  0  0  0  0  0  0  0  0  0
   58.3960   31.3610   46.5270 C   0  0  0  0  0  0  0  0  0  0  0  0
   58.4350   30.2580   47.2170 N   0  0  0  0  0  0  0  0  0  0  0  0
   58.9030   28.9540   46.8260 C   0  0  0  0  0  0  0  0  0  0  0  0
   59.9560   28.8800   46.1360 O   0  0  0  0  0  0  0  0  0  0  0  0
   58.1990   27.6780   47.1890 C   0  0  0  0  0  0  0  0  0  0  0  0
   57.2943   27.9105   47.7699 H   0  0  0  0  0  0  0  0  0  0  0  0
   58.8689   27.0475   47.7920 H   0  0  0  0  0  0  0  0  0  0  0  0
   57.8260   26.9670   45.9710 N   0  0  0  0  0  0  0  0  0  0  0  0
   56.5350   26.3970   45.7170 C   0  0  0  0  0  0  0  0  0  0  0  0
   55.5110   27.0820   45.9840 O   0  0  0  0  0  0  0  0  0  0  0  0
   56.3650   25.0560   45.1250 C   0  0  0  0  0  0  0  0  0  0  0  0
   57.4010   24.4570   44.3960 C   0  0  0  0  0  0  0  0  0  0  0  0
   58.3491   24.9953   44.2503 H   0  0  0  0  0  0  0  0  0  0  0  0
   57.2370   23.1800   43.8530 C   0  0  0  0  0  0  0  0  0  0  0  0
   58.0509   22.7272   43.2676 H   0  0  0  0  0  0  0  0  0  0  0  0
   56.0460   22.4730   44.0480 C   0  0  0  0  0  0  0  0  0  0  0  0
   55.9290   21.1970   43.4810 O   0  0  0  0  0  0  0  0  0  0  0  0
   56.2000   19.9860   44.1730 C   0  0  0  0  0  0  0  0  0  0  0  0
   56.1596   20.1664   45.2574 H   0  0  0  0  0  0  0  0  0  0  0  0
   55.4486   19.2309   43.8987 H   0  0  0  0  0  0  0  0  0  0  0  0
   57.2016   19.6232   43.8987 H   0  0  0  0  0  0  0  0  0  0  0  0
   55.0150   23.0620   44.8030 C   0  0  0  0  0  0  0  0  0  0  0  0
   54.0768   22.5129   44.9710 H   0  0  0  0  0  0  0  0  0  0  0  0
   55.1780   24.3410   45.3400 C   0  0  0  0  0  0  0  0  0  0  0  0
   54.3698   24.7905   45.9356 H   0  0  0  0  0  0  0  0  0  0  0  0
   57.4480   31.5760   45.5760 N   0  0  0  0  0  0  0  0  0  0  0  0
   57.3960   32.7420   44.8820 C   0  0  0  0  0  0  0  0  0  0  0  0
   56.6207   32.8934   44.1165 H   0  0  0  0  0  0  0  0  0  0  0  0
   58.3260   33.7460   45.1410 C   0  0  0  0  0  0  0  0  0  0  0  0
   58.2955   34.6973   44.5896 H   0  0  0  0  0  0  0  0  0  0  0  0
   62.7430   33.7360   46.3430 C   0  0  0  0  0  0  0  0  0  0  0  0
   62.9593   34.1106   45.3316 H   0  0  0  0  0  0  0  0  0  0  0  0
   63.6030   33.0140   47.0980 N   0  0  0  0  0  0  0  0  0  0  0  0
   64.5610   32.6970   46.8340 H   0  0  0  0  0  0  0  0  0  0  0  0
  1  2  1  0
  2  3  2  0
  3  4  1  0
  4  5  2  0
  5  6  1  0
  6  7  1  0
  6  8  2  0
  8  9  1  0
  5 10  1  0
 10 11  1  0
 11 12  1  0
 11 13  1  0
 11 14  1  0
 14 15  2  0
 15 16  1  0
 16 17  2  0
 17 18  1  0
 18 19  2  0
 18 20  1  0
 20 21  1  0
 20 22  1  0
 20 23  1  0
 23 24  1  0
 24 25  2  0
 24 26  1  0
 26 27  2  0
 27 28  1  0
 27 29  1  0
 29 30  1  0
 29 31  2  0
 31 32  1  0
 32 33  1  0
 33 34  1  0
 33 35  1  0
 33 36  1  0
 31 37  1  0
 37 38  1  0
 37 39  2  0
 39 40  1  0
 16 41  1  0
 41 42  1  0
 42 43  1  0
 42 44  2  0
 44 45  1  0
 10 46  2  0
 46 47  1  0
 46 48  1  0
 48 49  1  0
  8  2  1  0
 44 14  1  0
 48  4  1  0
 39 26  1  0
M  CHG  2  23  -1  41  -1
M  END
>  <UniqueID>  (1) 
1

>  <SMILES>  (1) 
COc1ccc(C(=O)[N-]CC(=O)/N=c2/nc(Cc3c[nH]c4ncc(F)cc34)cc[n-]2)cc1

>  <Energy>  (1) 
94.00965148775234

>  <Genealogy>  (1) 
COc1ccc(C(=O)[N-]CC(=O)N=c2nc(Cc3c[nH]c4ncc(F)cc34)cc[n-]2)cc1 (protonated)
COc1ccc(C(=O)[N-]CC(=O)/N=c2/nc(Cc3c[nH]c4ncc(F)cc34)cc[n-]2)cc1 (cis-trans isomerization)
COc1ccc(C(=O)[N-]CC(=O)/N=c2/nc(Cc3c[nH]c4ncc(F)cc34)cc[n-]2)cc1 (3D coordinates assigned)
COc1ccc(C(=O)[N-]CC(=O)/N=c2/nc(Cc3c[nH]c4ncc(F)cc34)cc[n-]2)cc1 (optimized conformer: 94.00965148775234 kcal/mol)

>  <smiles>  (1) 
COc1ccc(C(=O)NCC(=O)N=c2nc(Cc3c[nH]c4ncc(F)cc34)cc[nH]2)cc1

>  <score_type>  (1) 
oracle

>  <origin>  (1) 
adg

>  <m_score__min__energy>  (1) 
-11.49

>  <m_primary>  (1) 
energy

$$$$
1:0
     RDKit          3D

 43 45  0  0  0  0  0  0  0  0999 V2000
   58.6580   19.0530   47.5610 C   0  0  0  0  0  0  0  0  0  0  0  0
   57.6650   20.0660   47.4440 O   0  0  0  0  0  0  0  0  0  0  0  0
   57.4490   20.7780   46.2600 C   0  0  0  0  0  0  0  0  0  0  0  0
   57.7740   22.0970   46.1740 N   0  0  0  0  0  0  0  0  0  0  0  0
   57.5770   22.8120   45.0330 C   0  0  0  0  0  0  0  0  0  0  0  0
   57.9470   24.2510   45.0020 C   0  0  0  0  0  0  0  0  0  0  0  0
   58.5900   24.8320   46.1100 C   0  0  0  0  0  0  0  0  0  0  0  0
   58.9500   26.1820   46.0980 C   0  0  0  0  0  0  0  0  0  0  0  0
   58.6710   26.9820   44.9780 C   0  0  0  0  0  0  0  0  0  0  0  0
   59.0550   28.3680   44.9300 N   0  0  0  0  0  0  0  0  0  0  0  0
   58.1600   29.4620   45.1850 C   0  0  0  0  0  0  0  0  0  0  0  0
   56.9170   29.2620   45.2520 O   0  0  0  0  0  0  0  0  0  0  0  0
   58.6910   30.7870   45.3350 N   0  0  0  0  0  0  0  0  0  0  0  0
   57.8790   31.9640   45.4860 C   0  0  0  0  0  0  0  0  0  0  0  0
   56.6410   31.9130   45.2460 O   0  0  0  0  0  0  0  0  0  0  0  0
   58.4880   33.2530   45.8850 C   0  0  0  0  0  0  0  0  0  0  0  0
   58.5930   33.6120   47.2450 C   0  0  0  0  0  0  0  0  0  0  0  0
   58.1000   32.8080   48.2210 F   0  0  0  0  0  0  0  0  0  0  0  0
   59.1680   34.8340   47.6100 C   0  0  0  0  0  0  0  0  0  0  0  0
   59.6390   35.7100   46.6290 C   0  0  0  0  0  0  0  0  0  0  0  0
   59.5300   35.3710   45.2810 C   0  0  0  0  0  0  0  0  0  0  0  0
   58.9540   34.1530   44.9040 C   0  0  0  0  0  0  0  0  0  0  0  0
   58.8790   33.8430   43.5850 F   0  0  0  0  0  0  0  0  0  0  0  0
   58.0640   26.3980   43.8570 C   0  0  0  0  0  0  0  0  0  0  0  0
   57.7010   25.0480   43.8690 C   0  0  0  0  0  0  0  0  0  0  0  0
   57.0100   22.1690   43.9220 C   0  0  0  0  0  0  0  0  0  0  0  0
   56.6820   20.8150   44.0230 C   0  0  0  0  0  0  0  0  0  0  0  0
   56.1710   20.2170   43.0390 O   0  0  0  0  0  0  0  0  0  0  0  0
   56.9100   20.1450   45.1850 N   0  0  0  0  0  0  0  0  0  0  0  0
   58.8541   18.8529   48.6247 H   0  0  0  0  0  0  0  0  0  0  0  0
   58.3023   18.1329   47.0744 H   0  0  0  0  0  0  0  0  0  0  0  0
   59.5850   19.3903   47.0744 H   0  0  0  0  0  0  0  0  0  0  0  0
   58.8117   24.2173   46.9949 H   0  0  0  0  0  0  0  0  0  0  0  0
   59.4550   26.6209   46.9711 H   0  0  0  0  0  0  0  0  0  0  0  0
   60.0210   28.5990   44.6050 H   0  0  0  0  0  0  0  0  0  0  0  0
   59.7290   30.9000   45.3050 H   0  0  0  0  0  0  0  0  0  0  0  0
   59.2495   35.1059   48.6727 H   0  0  0  0  0  0  0  0  0  0  0  0
   60.0959   36.6673   46.9201 H   0  0  0  0  0  0  0  0  0  0  0  0
   59.8985   36.0642   44.5105 H   0  0  0  0  0  0  0  0  0  0  0  0
   57.8719   27.0068   42.9612 H   0  0  0  0  0  0  0  0  0  0  0  0
   57.2189   24.6051   42.9850 H   0  0  0  0  0  0  0  0  0  0  0  0
   56.8271   22.7213   42.9884 H   0  0  0  0  0  0  0  0  0  0  0  0
   56.6630   19.1320   45.2570 H   0  0  0  0  0  0  0  0  0  0  0  0
  1  2  1  0
  2  3  1  0
  3  4  2  0
  4  5  1  0
  5  6  1  0
  6  7  2  0
  7  8  1  0
  8  9  2  0
  9 10  1  0
 10 11  1  0
 11 12  2  0
 11 13  1  0
 13 14  1  0
 14 15  2  0
 14 16  1  0
 16 17  2  0
 17 18  1  0
 17 19  1  0
 19 20  2  0
 20 21  1  0
 21 22  2  0
 22 23  1  0
  9 24  1  0
 24 25  2  0
  5 26  2  0
 26 27  1  0
 27 28  2  0
 27 29  1  0
 29  3  1  0
 25  6  1  0
 22 16  1  0
  1 30  1  0
  1 31  1  0
  1 32  1  0
  7 33  1  0
  8 34  1  0
 10 35  1  0
 13 36  1  0
 19 37  1  0
 20 38  1  0
 21 39  1  0
 24 40  1  0
 25 41  1  0
 26 42  1  0
 29 43  1  0
M  END
>  <UniqueID>  (2) 
2

>  <SMILES>  (2) 
COc1nc(-c2ccc(NC(=O)NC(=O)c3c(F)cccc3F)cc2)cc(=O)[nH]1

>  <Energy>  (2) 
56.30359834769966

>  <Genealogy>  (2) 
COc1nc(-c2ccc(NC(=O)NC(=O)c3c(F)cccc3F)cc2)cc(=O)[nH]1 (3D coordinates assigned)
COc1nc(-c2ccc(NC(=O)NC(=O)c3c(F)cccc3F)cc2)cc(=O)[nH]1 (optimized conformer: 56.30359834769966 kcal/mol)

>  <smiles>  (2) 
COc1nc(-c2ccc(NC(=O)NC(=O)c3c(F)cccc3F)cc2)cc(=O)[nH]1

>  <score_type>  (2) 
oracle

>  <origin>  (2) 
adg

>  <m_score__min__energy>  (2) 
-7.79

>  <m_primary>  (2) 
energy

$$$$
2:0
     RDKit          3D

 54 56  0  0  0  0  0  0  0  0999 V2000
   63.2780   33.8200   46.3590 C   0  0  0  0  0  0  0  0  0  0  0  0
   63.7290   32.9910   47.5620 C   0  0  0  0  0  0  0  0  0  0  0  0
   63.5660   33.7440   48.8900 C   0  0  0  0  0  0  0  0  0  0  0  0
   63.3440   32.8140   50.0610 C   0  0  0  0  0  0  0  0  0  0  0  0
   64.4380   32.2590   50.6510 N   0  0  0  0  0  0  0  0  0  0  0  0
   64.3240   31.3870   51.6840 C   0  0  0  0  0  0  0  0  0  0  0  0
   63.0970   31.0360   52.1450 N   0  0  0  0  0  0  0  0  0  0  0  0
   61.9700   31.5540   51.5910 C   0  0  0  0  0  0  0  0  0  0  0  0
   62.0570   32.4620   50.5280 C   0  0  0  0  0  0  0  0  0  0  0  0
   60.8120   33.0090   49.9430 C   0  0  0  0  0  0  0  0  0  0  0  0
   60.3240   34.0670   50.4260 O   0  0  0  0  0  0  0  0  0  0  0  0
   60.1280   32.3280   48.8720 N   0  0  0  0  0  0  0  0  0  0  0  0
   60.8530   31.3970   47.9930 C   0  0  0  0  0  0  0  0  0  0  0  0
   60.3500   31.5240   46.5550 C   0  0  0  0  0  0  0  0  0  0  0  0
   58.8860   31.4660   46.5470 N   0  0  0  0  0  0  0  0  0  0  0  0
   58.1600   30.4430   45.8390 C   0  0  0  0  0  0  0  0  0  0  0  0
   57.4780   30.7270   44.6480 C   0  0  0  0  0  0  0  0  0  0  0  0
   56.8180   29.6890   43.9860 C   0  0  0  0  0  0  0  0  0  0  0  0
   56.0590   29.9540   42.7250 C   0  0  0  0  0  0  0  0  0  0  0  0
   56.8450   28.4330   44.5060 N   0  0  0  0  0  0  0  0  0  0  0  0
   57.5210   28.1640   45.6540 C   0  0  0  0  0  0  0  0  0  0  0  0
   57.5320   26.7720   46.2120 C   0  0  0  0  0  0  0  0  0  0  0  0
   56.3110   25.9730   45.7570 C   0  0  0  0  0  0  0  0  0  0  0  0
   55.1400   26.7050   45.9920 O   0  0  0  0  0  0  0  0  0  0  0  0
   58.1680   29.1660   46.3090 N   0  0  0  0  0  0  0  0  0  0  0  0
   58.1800   32.4580   47.3620 C   0  0  0  0  0  0  0  0  0  0  0  0
   58.6570   32.3510   48.8110 C   0  0  0  0  0  0  0  0  0  0  0  0
   62.7799   34.7356   46.7106 H   0  0  0  0  0  0  0  0  0  0  0  0
   64.1538   34.0896   45.7505 H   0  0  0  0  0  0  0  0  0  0  0  0
   62.5759   33.2312   45.7505 H   0  0  0  0  0  0  0  0  0  0  0  0
   63.1271   32.0712   47.6020 H   0  0  0  0  0  0  0  0  0  0  0  0
   64.7987   32.7695   47.4328 H   0  0  0  0  0  0  0  0  0  0  0  0
   64.4764   34.3330   49.0753 H   0  0  0  0  0  0  0  0  0  0  0  0
   62.6781   34.3873   48.8019 H   0  0  0  0  0  0  0  0  0  0  0  0
   65.2271   30.9641   52.1483 H   0  0  0  0  0  0  0  0  0  0  0  0
   63.0170   30.3560   52.9370 H   0  0  0  0  0  0  0  0  0  0  0  0
   60.9840   31.2589   51.9792 H   0  0  0  0  0  0  0  0  0  0  0  0
   61.9273   31.6313   48.0236 H   0  0  0  0  0  0  0  0  0  0  0  0
   60.6814   30.3682   48.3424 H   0  0  0  0  0  0  0  0  0  0  0  0
   60.6820   32.4841   46.1331 H   0  0  0  0  0  0  0  0  0  0  0  0
   60.7547   30.7000   45.9490 H   0  0  0  0  0  0  0  0  0  0  0  0
   57.4627   31.7491   44.2418 H   0  0  0  0  0  0  0  0  0  0  0  0
   55.0473   30.3072   42.9733 H   0  0  0  0  0  0  0  0  0  0  0  0
   56.5818   30.7228   42.1371 H   0  0  0  0  0  0  0  0  0  0  0  0
   55.9897   29.0269   42.1371 H   0  0  0  0  0  0  0  0  0  0  0  0
   58.4425   26.2578   45.8704 H   0  0  0  0  0  0  0  0  0  0  0  0
   57.5079   26.8414   47.3095 H   0  0  0  0  0  0  0  0  0  0  0  0
   56.3965   25.7594   44.6813 H   0  0  0  0  0  0  0  0  0  0  0  0
   56.2661   25.0314   46.3239 H   0  0  0  0  0  0  0  0  0  0  0  0
   55.1570   27.4680   45.3570 H   0  0  0  0  0  0  0  0  0  0  0  0
   58.3920   33.4670   46.9786 H   0  0  0  0  0  0  0  0  0  0  0  0
   57.0970   32.2711   47.3151 H   0  0  0  0  0  0  0  0  0  0  0  0
   58.2851   33.2166   49.3789 H   0  0  0  0  0  0  0  0  0  0  0  0
   58.2695   31.4170   49.2439 H   0  0  0  0  0  0  0  0  0  0  0  0
  1  2  1  0
  2  3  1  0
  3  4  1  0
  4  5  2  0
  5  6  1  0
  6  7  2  0
  7  8  1  0
  8  9  2  0
  9 10  1  0
 10 11  2  0
 10 12  1  0
 12 13  1  0
 13 14  1  0
 14 15  1  0
 15 16  1  0
 16 17  2  0
 17 18  1  0
 18 19  1  0
 18 20  2  0
 20 21  1  0
 21 22  1  0
 22 23  1  0
 23 24  1  0
 21 25  2  0
 15 26  1  0
 26 27  1  0
  9  4  1  0
 27 12  1  0
 25 16  1  0
  1 28  1  0
  1 29  1  0
  1 30  1  0
  2 31  1  0
  2 32  1  0
  3 33  1  0
  3 34  1  0
  6 35  1  0
  7 36  1  0
  8 37  1  0
 13 38  1  0
 13 39  1  0
 14 40  1  0
 14 41  1  0
 17 42  1  0
 19 43  1  0
 19 44  1  0
 19 45  1  0
 22 46  1  0
 22 47  1  0
 23 48  1  0
 23 49  1  0
 24 50  1  0
 26 51  1  0
 26 52  1  0
 27 53  1  0
 27 54  1  0
M  CHG  1   7   1
M  END
>  <UniqueID>  (3) 
3

>  <SMILES>  (3) 
CCCc1nc[nH+]cc1C(=O)N1CCN(c2cc(C)nc(CCO)n2)CC1

>  <Energy>  (3) 
55.99894167722201

>  <Genealogy>  (3) 
CCCc1nc[nH+]cc1C(=O)N1CCN(c2cc(C)nc(CCO)n2)CC1 (protonated)
CCCc1nc[nH+]cc1C(=O)N1CCN(c2cc(C)nc(CCO)n2)CC1 (3D coordinates assigned)
CCCc1nc[nH+]cc1C(=O)N1CCN(c2cc(C)nc(CCO)n2)CC1 (nonaromatic ring conformer: 55.99894167722201 kcal/mol)

>  <smiles>  (3) 
CCCc1ncncc1C(=O)N1CCN(c2cc(C)nc(CCO)n2)CC1

>  <score_type>  (3) 
oracle

>  <origin>  (3) 
adg

>  <m_score__min__energy>  (3) 
-6.8499999999999996

>  <m_primary>  (3) 
energy

$$$$
3:0
     RDKit          3D

 48 51  0  0  0  0  0  0  0  0999 V2000
   58.4290   33.8210   44.4030 O   0  0  0  0  0  0  0  0  0  0  0  0
   58.1340   33.1740   45.4440 C   0  0  0  0  0  0  0  0  0  0  0  0
   57.0500   32.2340   45.4230 N   0  0  0  0  0  0  0  0  0  0  0  0
   57.0490   30.9400   44.8050 C   0  0  0  0  0  0  0  0  0  0  0  0
   56.9590   30.7790   43.4110 C   0  0  0  0  0  0  0  0  0  0  0  0
   56.9760   29.4990   42.8490 C   0  0  0  0  0  0  0  0  0  0  0  0
   57.1020   28.3750   43.6670 C   0  0  0  0  0  0  0  0  0  0  0  0
   57.2290   28.5210   45.0570 C   0  0  0  0  0  0  0  0  0  0  0  0
   57.3630   27.3610   45.8980 N   0  0  0  0  0  0  0  0  0  0  0  0
   56.3790   26.5410   46.3060 C   0  0  0  0  0  0  0  0  0  0  0  0
   55.0340   26.6990   45.9920 O   0  0  0  0  0  0  0  0  0  0  0  0
   56.9070   25.5440   47.0880 C   0  0  0  0  0  0  0  0  0  0  0  0
   58.2420   25.7210   47.1780 N   0  0  0  0  0  0  0  0  0  0  0  0
   58.4830   26.8330   46.4490 C   0  0  0  0  0  0  0  0  0  0  0  0
   60.0010   27.3950   46.1910 S   0  0  0  0  0  0  0  0  0  0  0  0
   57.2010   29.8090   45.6170 C   0  0  0  0  0  0  0  0  0  0  0  0
   58.8740   33.4250   46.7030 C   0  0  0  0  0  0  0  0  0  0  0  0
   59.2910   34.7250   47.0420 C   0  0  0  0  0  0  0  0  0  0  0  0
   59.9940   34.9580   48.2260 C   0  0  0  0  0  0  0  0  0  0  0  0
   60.2880   33.9000   49.0890 C   0  0  0  0  0  0  0  0  0  0  0  0
   59.8730   32.5980   48.7750 C   0  0  0  0  0  0  0  0  0  0  0  0
   60.2080   31.4460   49.6880 C   0  0  0  0  0  0  0  0  0  0  0  0
   59.4210   31.5140   50.9370 N   0  0  0  0  0  0  0  0  0  0  0  0
   59.4700   30.2330   51.6840 C   0  0  0  0  0  0  0  0  0  0  0  0
   58.1670   29.4270   51.5340 C   0  0  0  0  0  0  0  0  0  0  0  0
   57.0170   30.1240   51.9930 O   0  0  0  0  0  0  0  0  0  0  0  0
   57.0920   31.5330   51.8150 C   0  0  0  0  0  0  0  0  0  0  0  0
   58.0330   31.9670   50.6780 C   0  0  0  0  0  0  0  0  0  0  0  0
   59.1720   32.3650   47.5810 C   0  0  0  0  0  0  0  0  0  0  0  0
   56.8750   31.6624   42.7610 H   0  0  0  0  0  0  0  0  0  0  0  0
   56.8898   29.3773   41.7592 H   0  0  0  0  0  0  0  0  0  0  0  0
   57.1018   27.3699   43.2200 H   0  0  0  0  0  0  0  0  0  0  0  0
   56.3355   24.7333   47.5636 H   0  0  0  0  0  0  0  0  0  0  0  0
   57.2996   29.9307   46.7058 H   0  0  0  0  0  0  0  0  0  0  0  0
   59.0616   35.5645   46.3693 H   0  0  0  0  0  0  0  0  0  0  0  0
   60.3173   35.9783   48.4798 H   0  0  0  0  0  0  0  0  0  0  0  0
   60.8467   34.0887   50.0176 H   0  0  0  0  0  0  0  0  0  0  0  0
   59.9830   30.5009   49.1721 H   0  0  0  0  0  0  0  0  0  0  0  0
   61.2765   31.5006   49.9436 H   0  0  0  0  0  0  0  0  0  0  0  0
   60.3064   29.6302   51.3006 H   0  0  0  0  0  0  0  0  0  0  0  0
   59.6037   30.4668   52.7505 H   0  0  0  0  0  0  0  0  0  0  0  0
   58.0269   29.1854   50.4701 H   0  0  0  0  0  0  0  0  0  0  0  0
   58.2696   28.5248   52.1549 H   0  0  0  0  0  0  0  0  0  0  0  0
   56.0824   31.9084   51.5917 H   0  0  0  0  0  0  0  0  0  0  0  0
   57.5011   31.9518   52.7463 H   0  0  0  0  0  0  0  0  0  0  0  0
   57.6816   31.5282   49.7325 H   0  0  0  0  0  0  0  0  0  0  0  0
   58.0276   33.0653   50.6176 H   0  0  0  0  0  0  0  0  0  0  0  0
   58.8520   31.3433   47.3286 H   0  0  0  0  0  0  0  0  0  0  0  0
  1  2  2  0
  2  3  1  0
  3  4  1  0
  4  5  2  0
  5  6  1  0
  6  7  2  0
  7  8  1  0
  8  9  1  0
  9 10  1  0
 10 11  1  0
 10 12  2  0
 12 13  1  0
 13 14  1  0
 14 15  2  0
  8 16  2  0
  2 17  1  0
 17 18  2  0
 18 19  1  0
 19 20  2  0
 20 21  1  0
 21 22  1  0
 22 23  1  0
 23 24  1  0
 24 25  1  0
 25 26  1  0
 26 27  1  0
 27 28  1  0
 21 29  2  0
 16  4  1  0
 29 17  1  0
 14  9  1  0
 28 23  1  0
  5 30  1  0
  6 31  1  0
  7 32  1  0
 12 33  1  0
 16 34  1  0
 18 35  1  0
 19 36  1  0
 20 37  1  0
 22 38  1  0
 22 39  1  0
 24 40  1  0
 24 41  1  0
 25 42  1  0
 25 43  1  0
 27 44  1  0
 27 45  1  0
 28 46  1  0
 28 47  1  0
 29 48  1  0
M  CHG  3   3  -1  11  -1  13  -1
M  END
>  <UniqueID>  (4) 
4

>  <SMILES>  (4) 
O=C([N-]c1cccc(-n2c([O-])c[n-]c2=S)c1)c1cccc(CN2CCOCC2)c1

>  <Energy>  (4) 
108.13251280951776

>  <Genealogy>  (4) 
O=C([N-]c1cccc(-n2c([O-])c[n-]c2=S)c1)c1cccc(CN2CCOCC2)c1 (protonated)
O=C([N-]c1cccc(-n2c([O-])c[n-]c2=S)c1)c1cccc(CN2CCOCC2)c1 (3D coordinates assigned)
O=C([N-]c1cccc(-n2c([O-])c[n-]c2=S)c1)c1cccc(CN2CCOCC2)c1 (nonaromatic ring conformer: 108.13251280951776 kcal/mol)

>  <smiles>  (4) 
O=C(Nc1cccc(-n2c(O)c[nH]c2=S)c1)c1cccc(CN2CCOCC2)c1

>  <score_type>  (4) 
oracle

>  <origin>  (4) 
adg

>  <m_score__min__energy>  (4) 
-16.039999999999999

>  <m_primary>  (4) 
energy

$$$$
4:0
     RDKit          3D

 42 44  0  0  0  0  0  0  0  0999 V2000
   58.5730   29.6570   47.4600 C   0  0  0  0  0  0  0  0  0  0  0  0
   58.1230   30.3660   46.2110 C   0  0  0  0  0  0  0  0  0  0  0  0
   58.5350   31.6870   45.9760 C   0  0  0  0  0  0  0  0  0  0  0  0
   58.1460   32.3510   44.8130 C   0  0  0  0  0  0  0  0  0  0  0  0
   57.3670   31.6970   43.8580 C   0  0  0  0  0  0  0  0  0  0  0  0
   56.9650   30.3670   44.0570 C   0  0  0  0  0  0  0  0  0  0  0  0
   56.1490   29.6890   42.9900 C   0  0  0  0  0  0  0  0  0  0  0  0
   57.3110   29.7100   45.2610 C   0  0  0  0  0  0  0  0  0  0  0  0
   56.8790   28.3660   45.5090 N   0  0  0  0  0  0  0  0  0  0  0  0
   57.7260   27.2140   45.4060 C   0  0  0  0  0  0  0  0  0  0  0  0
   58.4150   26.8760   46.4040 O   0  0  0  0  0  0  0  0  0  0  0  0
   57.7780   26.3700   44.1620 C   0  0  0  0  0  0  0  0  0  0  0  0
   56.9570   25.1270   44.3370 C   0  0  0  0  0  0  0  0  0  0  0  0
   57.0320   24.0670   43.5010 N   0  0  0  0  0  0  0  0  0  0  0  0
   56.1730   23.1730   44.0350 C   0  0  0  0  0  0  0  0  0  0  0  0
   55.9530   22.0450   43.5190 O   0  0  0  0  0  0  0  0  0  0  0  0
   55.5740   23.6050   45.1640 N   0  0  0  0  0  0  0  0  0  0  0  0
   54.5680   22.9150   45.9680 C   0  0  0  0  0  0  0  0  0  0  0  0
   53.2030   23.2230   45.4450 C   0  0  0  0  0  0  0  0  0  0  0  0
   52.7490   24.4670   45.0560 C   0  0  0  0  0  0  0  0  0  0  0  0
   51.4590   24.2680   44.6140 C   0  0  0  0  0  0  0  0  0  0  0  0
   51.2090   22.9170   44.7570 C   0  0  0  0  0  0  0  0  0  0  0  0
   52.2690   22.3210   45.2520 O   0  0  0  0  0  0  0  0  0  0  0  0
   56.0540   24.8460   45.3480 C   0  0  0  0  0  0  0  0  0  0  0  0
   55.6690   25.6790   46.3970 O   0  0  0  0  0  0  0  0  0  0  0  0
   58.2214   30.2109   48.3429 H   0  0  0  0  0  0  0  0  0  0  0  0
   58.1549   28.6397   47.4750 H   0  0  0  0  0  0  0  0  0  0  0  0
   59.6715   29.6022   47.4750 H   0  0  0  0  0  0  0  0  0  0  0  0
   59.1685   32.2016   46.7135 H   0  0  0  0  0  0  0  0  0  0  0  0
   58.4544   33.3939   44.6480 H   0  0  0  0  0  0  0  0  0  0  0  0
   57.0657   32.2274   42.9426 H   0  0  0  0  0  0  0  0  0  0  0  0
   55.3845   29.0538   43.4612 H   0  0  0  0  0  0  0  0  0  0  0  0
   55.6590   30.4496   42.3644 H   0  0  0  0  0  0  0  0  0  0  0  0
   56.8070   29.0680   42.3644 H   0  0  0  0  0  0  0  0  0  0  0  0
   57.3823   26.9491   43.3146 H   0  0  0  0  0  0  0  0  0  0  0  0
   58.8223   26.0829   43.9697 H   0  0  0  0  0  0  0  0  0  0  0  0
   54.7419   21.8300   45.9179 H   0  0  0  0  0  0  0  0  0  0  0  0
   54.6420   23.2547   47.0116 H   0  0  0  0  0  0  0  0  0  0  0  0
   53.3010   25.4178   45.0914 H   0  0  0  0  0  0  0  0  0  0  0  0
   50.7680   25.0308   44.2258 H   0  0  0  0  0  0  0  0  0  0  0  0
   50.2650   22.4164   44.4958 H   0  0  0  0  0  0  0  0  0  0  0  0
   56.1690   26.5280   46.6210 H   0  0  0  0  0  0  0  0  0  0  0  0
  1  2  1  0
  2  3  2  0
  3  4  1  0
  4  5  2  0
  5  6  1  0
  6  7  1  0
  6  8  2  0
  8  9  1  0
  9 10  1  0
 10 11  2  0
 10 12  1  0
 12 13  1  0
 13 14  1  0
 14 15  1  0
 15 16  2  0
 15 17  1  0
 17 18  1  0
 18 19  1  0
 19 20  2  0
 20 21  1  0
 21 22  2  0
 22 23  1  0
 17 24  1  0
 24 25  1  0
  8  2  1  0
 24 13  2  0
 23 19  1  0
  1 26  1  0
  1 27  1  0
  1 28  1  0
  3 29  1  0
  4 30  1  0
  5 31  1  0
  7 32  1  0
  7 33  1  0
  7 34  1  0
 12 35  1  0
 12 36  1  0
 18 37  1  0
 18 38  1  0
 20 39  1  0
 21 40  1  0
 22 41  1  0
 25 42  1  0
M  CHG  2   9  -1  14  -1
M  END
>  <UniqueID>  (5) 
5

>  <SMILES>  (5) 
Cc1cccc(C)c1[N-]C(=O)Cc1[n-]c(=O)n(Cc2ccco2)c1O

>  <Energy>  (5) 
102.32017086661973

>  <Genealogy>  (5) 
Cc1cccc(C)c1[N-]C(=O)Cc1[n-]c(=O)n(Cc2ccco2)c1O (protonated)
Cc1cccc(C)c1[N-]C(=O)Cc1[n-]c(=O)n(Cc2ccco2)c1O (3D coordinates assigned)
Cc1cccc(C)c1[N-]C(=O)Cc1[n-]c(=O)n(Cc2ccco2)c1O (optimized conformer: 102.32017086661973 kcal/mol)

>  <smiles>  (5) 
Cc1cccc(C)c1NC(=O)Cc1[nH]c(=O)n(Cc2ccco2)c1O

>  <score_type>  (5) 
oracle

>  <origin>  (5) 
adg

>  <m_score__min__energy>  (5) 
-11.26

>  <m_primary>  (5) 
energy

$$$$
5:0
     RDKit          3D

 54 56  0  0  0  0  0  0  0  0999 V2000
   56.0640   27.0820   45.6280 O   0  0  0  0  0  0  0  0  0  0  0  0
   56.6660   28.1850   45.5930 C   0  0  0  0  0  0  0  0  0  0  0  0
   58.0140   28.3220   46.2500 C   0  0  0  0  0  0  0  0  0  0  0  0
   59.1220   27.6700   45.4160 C   0  0  0  0  0  0  0  0  0  0  0  0
   59.4330   26.3120   45.9660 C   0  0  0  0  0  0  0  0  0  0  0  0
   60.6200   26.0280   46.2970 O   0  0  0  0  0  0  0  0  0  0  0  0
   58.4060   25.3090   46.0130 N   0  0  0  0  0  0  0  0  0  0  0  0
   58.7130   23.8900   45.8560 C   0  0  0  0  0  0  0  0  0  0  0  0
   57.9260   23.3320   44.7050 C   0  0  0  0  0  0  0  0  0  0  0  0
   58.1140   21.9960   44.3090 C   0  0  0  0  0  0  0  0  0  0  0  0
   57.3390   21.4510   43.2780 C   0  0  0  0  0  0  0  0  0  0  0  0
   56.3740   22.2320   42.6370 C   0  0  0  0  0  0  0  0  0  0  0  0
   56.1810   23.5610   43.0280 C   0  0  0  0  0  0  0  0  0  0  0  0
   56.9450   24.1090   44.0660 C   0  0  0  0  0  0  0  0  0  0  0  0
   56.0600   29.2810   44.9010 N   0  0  0  0  0  0  0  0  0  0  0  0
   56.7570   30.3770   44.2870 C   0  0  0  0  0  0  0  0  0  0  0  0
   56.7500   30.4930   42.8920 C   0  0  0  0  0  0  0  0  0  0  0  0
   57.3670   31.5820   42.2710 C   0  0  0  0  0  0  0  0  0  0  0  0
   57.9770   32.5740   43.0410 C   0  0  0  0  0  0  0  0  0  0  0  0
   57.9660   32.4860   44.4390 C   0  0  0  0  0  0  0  0  0  0  0  0
   58.6690   33.7740   45.4160 S   0  0  0  0  0  0  0  0  0  0  0  0
   57.6150   34.3220   46.3390 O   0  0  0  0  0  0  0  0  0  0  0  0
   59.1100   34.8880   44.5090 O   0  0  0  0  0  0  0  0  0  0  0  0
   60.0380   33.2220   46.3700 N   0  0  0  0  0  0  0  0  0  0  0  0
   60.0590   31.7530   46.5530 C   0  0  0  0  0  0  0  0  0  0  0  0
   59.6160   31.3200   47.9590 C   0  0  0  0  0  0  0  0  0  0  0  0
   58.6690   32.2300   48.4750 O   0  0  0  0  0  0  0  0  0  0  0  0
   59.3060   33.4570   48.7780 C   0  0  0  0  0  0  0  0  0  0  0  0
   60.1930   33.9900   47.6260 C   0  0  0  0  0  0  0  0  0  0  0  0
   57.3580   31.3860   45.0590 C   0  0  0  0  0  0  0  0  0  0  0  0
   58.2431   29.3908   46.3732 H   0  0  0  0  0  0  0  0  0  0  0  0
   57.9735   27.8117   47.2236 H   0  0  0  0  0  0  0  0  0  0  0  0
   58.7865   27.5743   44.3728 H   0  0  0  0  0  0  0  0  0  0  0  0
   60.0256   28.2959   45.4567 H   0  0  0  0  0  0  0  0  0  0  0  0
   57.4220   25.6120   45.8740 H   0  0  0  0  0  0  0  0  0  0  0  0
   59.7882   23.7671   45.6589 H   0  0  0  0  0  0  0  0  0  0  0  0
   58.4455   23.3527   46.7778 H   0  0  0  0  0  0  0  0  0  0  0  0
   58.8723   21.3770   44.8107 H   0  0  0  0  0  0  0  0  0  0  0  0
   57.4903   20.4053   42.9719 H   0  0  0  0  0  0  0  0  0  0  0  0
   55.7671   21.8025   41.8263 H   0  0  0  0  0  0  0  0  0  0  0  0
   55.4264   24.1781   42.5183 H   0  0  0  0  0  0  0  0  0  0  0  0
   56.7768   25.1493   44.3815 H   0  0  0  0  0  0  0  0  0  0  0  0
   56.2561   29.7227   42.2814 H   0  0  0  0  0  0  0  0  0  0  0  0
   57.3721   31.6579   41.1736 H   0  0  0  0  0  0  0  0  0  0  0  0
   58.4674   33.4267   42.5487 H   0  0  0  0  0  0  0  0  0  0  0  0
   59.3816   31.2976   45.8156 H   0  0  0  0  0  0  0  0  0  0  0  0
   61.0977   31.4178   46.4160 H   0  0  0  0  0  0  0  0  0  0  0  0
   59.1649   30.3182   47.9051 H   0  0  0  0  0  0  0  0  0  0  0  0
   60.4939   31.3023   48.6216 H   0  0  0  0  0  0  0  0  0  0  0  0
   58.5318   34.2069   48.9977 H   0  0  0  0  0  0  0  0  0  0  0  0
   59.9660   33.2764   49.6393 H   0  0  0  0  0  0  0  0  0  0  0  0
   59.9213   35.0380   47.4312 H   0  0  0  0  0  0  0  0  0  0  0  0
   61.2408   33.8883   47.9451 H   0  0  0  0  0  0  0  0  0  0  0  0
   57.3511   31.3119   46.1565 H   0  0  0  0  0  0  0  0  0  0  0  0
  1  2  2  0
  2  3  1  0
  3  4  1  0
  4  5  1  0
  5  6  2  0
  5  7  1  0
  7  8  1  0
  8  9  1  0
  9 10  2  0
 10 11  1  0
 11 12  2  0
 12 13  1  0
 13 14  2  0
  2 15  1  0
 15 16  1  0
 16 17  2  0
 17 18  1  0
 18 19  2  0
 19 20  1  0
 20 21  1  0
 21 22  2  0
 21 23  2  0
 21 24  1  0
 24 25  1  0
 25 26  1  0
 26 27  1  0
 27 28  1  0
 28 29  1  0
 20 30  2  0
 14  9  1  0
 30 16  1  0
 29 24  1  0
  3 31  1  0
  3 32  1  0
  4 33  1  0
  4 34  1  0
  7 35  1  0
  8 36  1  0
  8 37  1  0
 10 38  1  0
 11 39  1  0
 12 40  1  0
 13 41  1  0
 14 42  1  0
 17 43  1  0
 18 44  1  0
 19 45  1  0
 25 46  1  0
 25 47  1  0
 26 48  1  0
 26 49  1  0
 28 50  1  0
 28 51  1  0
 29 52  1  0
 29 53  1  0
 30 54  1  0
M  CHG  1  15  -1
M  END
>  <UniqueID>  (6) 
6

>  <SMILES>  (6) 
O=C(CCC(=O)NCc1ccccc1)[N-]c1cccc(S(=O)(=O)N2CCOCC2)c1

>  <Energy>  (6) 
61.45075474059187

>  <Genealogy>  (6) 
O=C(CCC(=O)NCc1ccccc1)[N-]c1cccc(S(=O)(=O)N2CCOCC2)c1 (protonated)
O=C(CCC(=O)NCc1ccccc1)[N-]c1cccc(S(=O)(=O)N2CCOCC2)c1 (3D coordinates assigned)
O=C(CCC(=O)NCc1ccccc1)[N-]c1cccc(S(=O)(=O)N2CCOCC2)c1 (nonaromatic ring conformer: 61.45075474059187 kcal/mol)

>  <smiles>  (6) 
O=C(CCC(=O)Nc1cccc(S(=O)(=O)N2CCOCC2)c1)NCc1ccccc1

>  <score_type>  (6) 
oracle

>  <origin>  (6) 
adg

>  <m_score__min__energy>  (6) 
-11.380000000000001

>  <m_primary>  (6) 
energy

$$$$
6:0
     RDKit          3D

 34 36  0  0  0  0  0  0  0  0999 V2000
   57.6738   25.2243   47.7488 H   0  0  0  0  0  0  0  0  0  0  0  0
   57.3650   25.6770   46.7950 C   0  0  0  0  0  0  0  0  0  0  0  0
   58.2570   26.3940   46.0960 C   0  0  0  0  0  0  0  0  0  0  0  0
   59.0532   25.8539   45.5628 H   0  0  0  0  0  0  0  0  0  0  0  0
   58.2310   27.8740   46.0010 C   0  0  0  0  0  0  0  0  0  0  0  0
   57.4240   28.5610   45.0790 C   0  0  0  0  0  0  0  0  0  0  0  0
   56.7840   27.9939   44.3870 H   0  0  0  0  0  0  0  0  0  0  0  0
   57.4260   29.9580   45.0320 C   0  0  0  0  0  0  0  0  0  0  0  0
   56.7899   30.4741   44.2979 H   0  0  0  0  0  0  0  0  0  0  0  0
   58.2300   30.7200   45.9100 C   0  0  0  0  0  0  0  0  0  0  0  0
   58.2360   32.1810   45.8600 N   0  0  0  0  0  0  0  0  0  0  0  0
   59.0860   32.9340   46.8070 C   0  0  0  0  0  0  0  0  0  0  0  0
   58.8209   32.6293   47.8302 H   0  0  0  0  0  0  0  0  0  0  0  0
   60.1316   32.6998   46.5584 H   0  0  0  0  0  0  0  0  0  0  0  0
   58.9280   34.4530   46.6980 C   0  0  0  0  0  0  0  0  0  0  0  0
   58.0381   34.7637   47.2651 H   0  0  0  0  0  0  0  0  0  0  0  0
   59.8313   34.9295   47.1068 H   0  0  0  0  0  0  0  0  0  0  0  0
   58.7800   34.8500   45.3550 O   0  0  0  0  0  0  0  0  0  0  0  0
   57.5300   34.3980   44.8950 C   0  0  0  0  0  0  0  0  0  0  0  0
   56.7504   34.7138   45.6038 H   0  0  0  0  0  0  0  0  0  0  0  0
   57.3455   34.8307   43.9006 H   0  0  0  0  0  0  0  0  0  0  0  0
   57.5080   32.8710   44.7740 C   0  0  0  0  0  0  0  0  0  0  0  0
   56.4604   32.5359   44.7899 H   0  0  0  0  0  0  0  0  0  0  0  0
   58.0149   32.6146   43.8320 H   0  0  0  0  0  0  0  0  0  0  0  0
   59.0190   30.0150   46.8490 C   0  0  0  0  0  0  0  0  0  0  0  0
   59.6472   30.5759   47.5566 H   0  0  0  0  0  0  0  0  0  0  0  0
   59.0140   28.6190   46.8930 C   0  0  0  0  0  0  0  0  0  0  0  0
   59.6330   28.0974   47.6378 H   0  0  0  0  0  0  0  0  0  0  0  0
   55.9860   25.4780   46.3240 C   0  0  0  0  0  0  0  0  0  0  0  0
   55.1700   26.4960   45.9930 N   0  0  0  0  0  0  0  0  0  0  0  0
   54.0220   25.9580   45.6190 N   0  0  0  0  0  0  0  0  0  0  0  0
   54.1750   24.6270   45.7360 C   0  0  0  0  0  0  0  0  0  0  0  0
   52.9990   23.5520   45.3790 S   0  0  0  0  0  0  0  0  0  0  0  0
   55.3960   24.2730   46.1770 N   0  0  0  0  0  0  0  0  0  0  0  0
  1  2  1  0
  2  3  2  0
  3  4  1  0
  3  5  1  0
  5  6  2  0
  6  7  1  0
  6  8  1  0
  8  9  1  0
  8 10  2  0
 10 11  1  0
 11 12  1  0
 12 13  1  0
 12 14  1  0
 12 15  1  0
 15 16  1  0
 15 17  1  0
 15 18  1  0
 18 19  1  0
 19 20  1  0
 19 21  1  0
 19 22  1  0
 22 23  1  0
 22 24  1  0
 10 25  1  0
 25 26  1  0
 25 27  2  0
 27 28  1  0
  2 29  1  0
 29 30  2  0
 30 31  1  0
 31 32  1  0
 32 33  2  0
 32 34  1  0
 27  5  1  0
 34 29  1  0
 22 11  1  0
M  CHG  2  31  -1  34  -1
M  END
>  <UniqueID>  (7) 
7

>  <SMILES>  (7) 
S=c1[n-]nc(/C=C/c2ccc(N3CCOCC3)cc2)[n-]1

>  <Energy>  (7) 
76.64531176232131

>  <Genealogy>  (7) 
S=c1[n-]nc(C=Cc2ccc(N3CCOCC3)cc2)[n-]1 (protonated)
S=c1[n-]nc(/C=C/c2ccc(N3CCOCC3)cc2)[n-]1 (cis-trans isomerization)
S=c1[n-]nc(/C=C/c2ccc(N3CCOCC3)cc2)[n-]1 (3D coordinates assigned)
S=c1[n-]nc(/C=C/c2ccc(N3CCOCC3)cc2)[n-]1 (nonaromatic ring conformer: 76.64531176232131 kcal/mol)

>  <smiles>  (7) 
S=c1[nH]nc(C=Cc2ccc(N3CCOCC3)cc2)[nH]1

>  <score_type>  (7) 
oracle

>  <origin>  (7) 
adg

>  <m_score__min__energy>  (7) 
-11.359999999999999

>  <m_primary>  (7) 
energy

$$$$
7:0
     RDKit          3D

 67 71  0  0  0  0  0  0  0  0999 V2000
   55.5310   26.9600   45.9950 O   0  0  0  0  0  0  0  0  0  0  0  0
   55.9450   25.7810   46.1650 C   0  0  0  0  0  0  0  0  0  0  0  0
   57.4110   25.5120   46.2760 C   0  0  0  0  0  0  0  0  0  0  0  0
   58.2040   26.7700   46.0450 C   0  0  0  0  0  0  0  0  0  0  0  0
   58.5080   27.1810   44.7390 C   0  0  0  0  0  0  0  0  0  0  0  0
   59.2540   28.3420   44.5250 C   0  0  0  0  0  0  0  0  0  0  0  0
   59.6970   29.1030   45.6080 C   0  0  0  0  0  0  0  0  0  0  0  0
   59.3670   28.7260   46.9190 C   0  0  0  0  0  0  0  0  0  0  0  0
   59.8320   29.5490   48.0600 C   0  0  0  0  0  0  0  0  0  0  0  0
   59.1160   29.6030   49.0990 O   0  0  0  0  0  0  0  0  0  0  0  0
   61.0700   30.3050   47.9900 N   0  0  2  0  0  0  0  0  0  0  0  0
   61.6370   30.5000   49.3530 C   0  0  0  0  0  0  0  0  0  0  0  0
   62.5110   31.7540   49.4390 C   0  0  0  0  0  0  0  0  0  0  0  0
   61.6790   33.0170   49.1600 C   0  0  0  0  0  0  0  0  0  0  0  0
   60.5490   32.7750   48.1270 C   0  0  1  0  0  0  0  0  0  0  0  0
   60.2500   34.0310   47.3880 N   0  0  0  0  0  0  0  0  0  0  0  0
   58.8840   34.5730   47.5700 C   0  0  0  0  0  0  0  0  0  0  0  0
   57.8670   33.9400   46.6010 C   0  0  0  0  0  0  0  0  0  0  0  0
   58.5100   33.5500   45.3390 N   0  0  0  0  0  0  0  0  0  0  0  0
   57.9610   32.4870   44.5320 C   0  0  0  0  0  0  0  0  0  0  0  0
   57.3500   31.3710   45.1320 C   0  0  0  0  0  0  0  0  0  0  0  0
   56.7520   30.3830   44.3480 C   0  0  0  0  0  0  0  0  0  0  0  0
   56.7680   30.4920   42.9560 C   0  0  0  0  0  0  0  0  0  0  0  0
   56.1690   29.5450   42.1970 F   0  0  0  0  0  0  0  0  0  0  0  0
   57.3780   31.5900   42.3480 C   0  0  0  0  0  0  0  0  0  0  0  0
   57.9630   32.5870   43.1290 C   0  0  0  0  0  0  0  0  0  0  0  0
   59.7130   34.2800   44.9310 C   0  0  0  0  0  0  0  0  0  0  0  0
   60.7980   34.1590   46.0120 C   0  0  0  0  0  0  0  0  0  0  0  0
   60.8750   31.5620   47.2170 C   0  0  0  0  0  0  0  0  0  0  0  0
   58.6170   27.5570   47.1310 C   0  0  0  0  0  0  0  0  0  0  0  0
   55.0210   24.7000   46.2760 N   0  0  0  0  0  0  0  0  0  0  0  0
   54.6850   23.8360   45.1530 C   0  0  0  0  0  0  0  0  0  0  0  0
   55.6510   22.6760   45.0210 C   0  0  0  0  0  0  0  0  0  0  0  0
   55.7140   23.8360   44.0400 C   0  0  0  0  0  0  0  0  0  0  0  0
   57.6317   25.1262   47.2822 H   0  0  0  0  0  0  0  0  0  0  0  0
   57.6926   24.7723   45.5121 H   0  0  0  0  0  0  0  0  0  0  0  0
   58.1581   26.5876   43.8814 H   0  0  0  0  0  0  0  0  0  0  0  0
   59.4934   28.6580   43.4989 H   0  0  0  0  0  0  0  0  0  0  0  0
   60.3070   30.0015   45.4333 H   0  0  0  0  0  0  0  0  0  0  0  0
   61.7710   29.7300   47.4630 H   0  0  0  0  0  0  0  0  0  0  0  0
   60.8093   30.5946   50.0713 H   0  0  0  0  0  0  0  0  0  0  0  0
   62.2690   29.6300   49.5847 H   0  0  0  0  0  0  0  0  0  0  0  0
   62.9451   31.8231   50.4474 H   0  0  0  0  0  0  0  0  0  0  0  0
   63.3080   31.6819   48.6843 H   0  0  0  0  0  0  0  0  0  0  0  0
   61.2262   33.3553   50.1037 H   0  0  0  0  0  0  0  0  0  0  0  0
   62.3568   33.7740   48.7386 H   0  0  0  0  0  0  0  0  0  0  0  0
   59.6215   32.5007   48.6509 H   0  0  0  0  0  0  0  0  0  0  0  0
   58.5596   34.3741   48.6021 H   0  0  0  0  0  0  0  0  0  0  0  0
   58.9206   35.6521   47.3599 H   0  0  0  0  0  0  0  0  0  0  0  0
   57.4296   33.0474   47.0721 H   0  0  0  0  0  0  0  0  0  0  0  0
   57.0863   34.6828   46.3801 H   0  0  0  0  0  0  0  0  0  0  0  0
   57.3434   31.2761   46.2279 H   0  0  0  0  0  0  0  0  0  0  0  0
   56.2683   29.5188   44.8266 H   0  0  0  0  0  0  0  0  0  0  0  0
   57.3976   31.6695   41.2511 H   0  0  0  0  0  0  0  0  0  0  0  0
   58.4291   33.4575   42.6442 H   0  0  0  0  0  0  0  0  0  0  0  0
   60.0912   33.8592   43.9877 H   0  0  0  0  0  0  0  0  0  0  0  0
   59.4598   35.3416   44.7933 H   0  0  0  0  0  0  0  0  0  0  0  0
   61.4079   33.2695   45.7956 H   0  0  0  0  0  0  0  0  0  0  0  0
   61.3893   35.0861   45.9833 H   0  0  0  0  0  0  0  0  0  0  0  0
   60.0436   31.4168   46.5116 H   0  0  0  0  0  0  0  0  0  0  0  0
   61.8169   31.7813   46.6928 H   0  0  0  0  0  0  0  0  0  0  0  0
   58.3517   27.2566   48.1554 H   0  0  0  0  0  0  0  0  0  0  0  0
   53.5923   23.9576   45.1885 H   0  0  0  0  0  0  0  0  0  0  0  0
   56.4511   22.5390   45.7633 H   0  0  0  0  0  0  0  0  0  0  0  0
   55.5489   21.5845   44.9302 H   0  0  0  0  0  0  0  0  0  0  0  0
   56.5596   24.5388   44.0723 H   0  0  0  0  0  0  0  0  0  0  0  0
   55.6763   23.9324   42.9449 H   0  0  0  0  0  0  0  0  0  0  0  0
  1  2  2  0
  2  3  1  0
  3  4  1  0
  4  5  2  0
  5  6  1  0
  6  7  2  0
  7  8  1  0
  8  9  1  0
  9 10  2  0
  9 11  1  0
 11 12  1  0
 12 13  1  0
 13 14  1  0
 14 15  1  0
 15 16  1  0
 16 17  1  0
 17 18  1  0
 18 19  1  0
 19 20  1  0
 20 21  2  0
 21 22  1  0
 22 23  2  0
 23 24  1  0
 23 25  1  0
 25 26  2  0
 19 27  1  0
 27 28  1  0
 15 29  1  0
  8 30  2  0
  2 31  1  0
 31 32  1  0
 32 33  1  0
 33 34  1  0
 30  4  1  0
 34 32  1  0
 29 11  1  0
 28 16  1  0
 26 20  1  0
  3 35  1  0
  3 36  1  0
  5 37  1  0
  6 38  1  0
  7 39  1  0
 11 40  1  6
 12 41  1  0
 12 42  1  0
 13 43  1  0
 13 44  1  0
 14 45  1  0
 14 46  1  0
 15 47  1  1
 17 48  1  0
 17 49  1  0
 18 50  1  0
 18 51  1  0
 21 52  1  0
 22 53  1  0
 25 54  1  0
 26 55  1  0
 27 56  1  0
 27 57  1  0
 28 58  1  0
 28 59  1  0
 29 60  1  0
 29 61  1  0
 30 62  1  0
 32 63  1  0
 33 64  1  0
 33 65  1  0
 34 66  1  0
 34 67  1  0
M  CHG  2  11   1  31  -1
M  END
>  <UniqueID>  (8) 
8

>  <SMILES>  (8) 
O=C(Cc1cccc(C(=O)[N@@H+]2CCC[C@@H](N3CCN(c4ccc(F)cc4)CC3)C2)c1)[N-]C1CC1

>  <Energy>  (8) 
360.7660481180716

>  <Genealogy>  (8) 
O=C(Cc1cccc(C(=O)[NH+]2CCCC(N3CCN(c4ccc(F)cc4)CC3)C2)c1)[N-]C1CC1 (protonated)
O=C(Cc1cccc(C(=O)[N@@H+]2CCC[C@@H](N3CCN(c4ccc(F)cc4)CC3)C2)c1)[N-]C1CC1 (chirality)
O=C(Cc1cccc(C(=O)[N@@H+]2CCC[C@@H](N3CCN(c4ccc(F)cc4)CC3)C2)c1)[N-]C1CC1 (3D coordinates assigned)
O=C(Cc1cccc(C(=O)[N@@H+]2CCC[C@@H](N3CCN(c4ccc(F)cc4)CC3)C2)c1)[N-]C1CC1 (nonaromatic ring conformer: 360.7660481180716 kcal/mol)

>  <smiles>  (8) 
O=C(Cc1cccc(C(=O)N2CCCC(N3CCN(c4ccc(F)cc4)CC3)C2)c1)NC1CC1

>  <score_type>  (8) 
oracle

>  <origin>  (8) 
adg

>  <m_score__min__energy>  (8) 
-10.56

>  <m_primary>  (8) 
energy

$$$$
8:0
     RDKit          3D

 38 40  0  0  0  0  0  0  0  0999 V2000
   59.3482   31.1422   48.2067 H   0  0  0  0  0  0  0  0  0  0  0  0
   58.9700   30.6510   47.2980 C   0  0  0  0  0  0  0  0  0  0  0  0
   59.0157   29.5559   47.2052 H   0  0  0  0  0  0  0  0  0  0  0  0
   58.4520   31.3890   46.3010 C   0  0  0  0  0  0  0  0  0  0  0  0
   57.9320   30.9090   45.0860 C   0  0  0  0  0  0  0  0  0  0  0  0
   57.9420   29.6780   44.5380 C   0  0  0  0  0  0  0  0  0  0  0  0
   58.3791   29.5799   43.5334 H   0  0  0  0  0  0  0  0  0  0  0  0
   57.4180   28.4490   45.1670 C   0  0  0  0  0  0  0  0  0  0  0  0
   56.0350   28.2390   45.2620 C   0  0  0  0  0  0  0  0  0  0  0  0
   55.1390   29.2040   44.8160 O   0  0  0  0  0  0  0  0  0  0  0  0
   55.5600   27.0870   45.8040 N   0  0  0  0  0  0  0  0  0  0  0  0
   56.4040   26.1190   46.2440 C   0  0  0  0  0  0  0  0  0  0  0  0
   55.9410   25.0630   46.7460 O   0  0  0  0  0  0  0  0  0  0  0  0
   57.7470   26.2870   46.1370 N   0  0  0  0  0  0  0  0  0  0  0  0
   58.2720   27.4200   45.6020 C   0  0  0  0  0  0  0  0  0  0  0  0
   59.5230   27.5330   45.4970 O   0  0  0  0  0  0  0  0  0  0  0  0
   57.3790   32.0010   44.4420 C   0  0  0  0  0  0  0  0  0  0  0  0
   56.8491   31.9932   43.4781 H   0  0  0  0  0  0  0  0  0  0  0  0
   57.6180   33.1000   45.2370 C   0  0  0  0  0  0  0  0  0  0  0  0
   57.2400   34.5030   44.8710 C   0  0  0  0  0  0  0  0  0  0  0  0
   57.0816   35.0909   45.7871 H   0  0  0  0  0  0  0  0  0  0  0  0
   58.0477   34.9577   44.2786 H   0  0  0  0  0  0  0  0  0  0  0  0
   56.3132   34.4904   44.2786 H   0  0  0  0  0  0  0  0  0  0  0  0
   58.2710   32.7390   46.3670 N   0  0  0  0  0  0  0  0  0  0  0  0
   58.7080   33.6730   47.4200 C   0  0  0  0  0  0  0  0  0  0  0  0
   58.3435   34.6829   47.1809 H   0  0  0  0  0  0  0  0  0  0  0  0
   58.2970   33.3372   48.3835 H   0  0  0  0  0  0  0  0  0  0  0  0
   60.2180   33.7000   47.5180 C   0  0  0  0  0  0  0  0  0  0  0  0
   60.9720   33.7910   46.3330 C   0  0  0  0  0  0  0  0  0  0  0  0
   60.4571   33.8382   45.3621 H   0  0  0  0  0  0  0  0  0  0  0  0
   62.3680   33.8220   46.3780 C   0  0  0  0  0  0  0  0  0  0  0  0
   62.9456   33.9002   45.4452 H   0  0  0  0  0  0  0  0  0  0  0  0
   63.0300   33.7540   47.6020 C   0  0  0  0  0  0  0  0  0  0  0  0
   64.1291   33.7831   47.6345 H   0  0  0  0  0  0  0  0  0  0  0  0
   62.3000   33.6490   48.7870 C   0  0  0  0  0  0  0  0  0  0  0  0
   62.8275   33.5918   49.7506 H   0  0  0  0  0  0  0  0  0  0  0  0
   60.8990   33.6160   48.7570 C   0  0  0  0  0  0  0  0  0  0  0  0
   60.0550   33.4600   50.2950 Cl  0  0  0  0  0  0  0  0  0  0  0  0
  1  2  1  0
  2  3  1  0
  2  4  2  0
  4  5  1  0
  5  6  2  0
  6  7  1  0
  6  8  1  0
  8  9  2  0
  9 10  1  0
  9 11  1  0
 11 12  1  0
 12 13  2  0
 12 14  1  0
 14 15  1  0
 15 16  2  0
  5 17  1  0
 17 18  1  0
 17 19  2  0
 19 20  1  0
 20 21  1  0
 20 22  1  0
 20 23  1  0
 19 24  1  0
 24 25  1  0
 25 26  1  0
 25 27  1  0
 25 28  1  0
 28 29  2  0
 29 30  1  0
 29 31  1  0
 31 32  1  0
 31 33  2  0
 33 34  1  0
 33 35  1  0
 35 36  1  0
 35 37  2  0
 37 38  1  0
 24  4  1  0
 37 28  1  0
 15  8  1  0
M  CHG  3  10  -1  11  -1  14  -1
M  END
>  <UniqueID>  (9) 
9

>  <SMILES>  (9) 
C=c1/c(=C\c2c([O-])[n-]c(=O)[n-]c2=O)cc(C)n1Cc1ccccc1Cl

>  <Energy>  (9) 
85.54818388734735

>  <Genealogy>  (9) 
C=c1c(=Cc2c([O-])[n-]c(=O)[n-]c2=O)cc(C)n1Cc1ccccc1Cl (protonated)
C=c1/c(=C\c2c([O-])[n-]c(=O)[n-]c2=O)cc(C)n1Cc1ccccc1Cl (cis-trans isomerization)
C=c1/c(=C\c2c([O-])[n-]c(=O)[n-]c2=O)cc(C)n1Cc1ccccc1Cl (3D coordinates assigned)
C=c1/c(=C\c2c([O-])[n-]c(=O)[n-]c2=O)cc(C)n1Cc1ccccc1Cl (optimized conformer: 85.54818388734735 kcal/mol)

>  <smiles>  (9) 
C=c1c(=Cc2c(O)[nH]c(=O)[nH]c2=O)cc(C)n1Cc1ccccc1Cl

>  <score_type>  (9) 
oracle

>  <origin>  (9) 
adg

>  <m_score__min__energy>  (9) 
-16.039999999999999

>  <m_primary>  (9) 
energy

$$$$
9:0
     RDKit          3D

 59 61  0  0  0  0  0  0  0  0999 V2000
   56.5980   22.1960   43.1250 C   0  0  0  0  0  0  0  0  0  0  0  0
   57.0080   21.8270   44.5460 C   0  0  0  0  0  0  0  0  0  0  0  0
   56.0550   22.3560   45.5160 N   0  0  0  0  0  0  0  0  0  0  0  0
   55.8590   23.7470   45.8130 C   0  0  0  0  0  0  0  0  0  0  0  0
   54.7650   24.1150   46.3150 O   0  0  0  0  0  0  0  0  0  0  0  0
   56.8790   24.7210   45.5550 N   0  0  0  0  0  0  0  0  0  0  0  0
   57.0660   25.2050   44.1790 C   0  0  0  0  0  0  0  0  0  0  0  0
   57.9920   26.4270   44.1300 C   0  0  0  0  0  0  0  0  0  0  0  0
   57.6010   27.4080   45.1540 N   0  0  0  0  0  0  0  0  0  0  0  0
   57.7460   28.8220   44.8980 C   0  0  0  0  0  0  0  0  0  0  0  0
   58.6690   29.5890   45.6320 C   0  0  0  0  0  0  0  0  0  0  0  0
   58.8110   30.9570   45.3830 C   0  0  0  0  0  0  0  0  0  0  0  0
   58.0290   31.5830   44.3980 C   0  0  0  0  0  0  0  0  0  0  0  0
   58.2110   33.0510   44.1010 C   0  0  0  0  0  0  0  0  0  0  0  0
   57.8480   33.9290   45.2750 C   0  0  0  0  0  0  0  0  0  0  0  0
   56.6570   34.3250   45.4080 O   0  0  0  0  0  0  0  0  0  0  0  0
   58.8480   34.3430   46.2330 N   0  0  0  0  0  0  0  0  0  0  0  0
   59.6630   35.5380   45.9880 C   0  0  0  0  0  0  0  0  0  0  0  0
   59.0270   33.5860   47.4820 C   0  0  0  0  0  0  0  0  0  0  0  0
   60.4780   33.5910   47.8830 C   0  0  0  0  0  0  0  0  0  0  0  0
   60.8760   34.2400   49.0640 C   0  0  0  0  0  0  0  0  0  0  0  0
   62.2170   34.2150   49.4630 C   0  0  0  0  0  0  0  0  0  0  0  0
   63.1670   33.5420   48.6890 C   0  0  0  0  0  0  0  0  0  0  0  0
   62.7780   32.8870   47.5120 C   0  0  0  0  0  0  0  0  0  0  0  0
   63.7130   32.2090   46.7330 O   0  0  0  0  0  0  0  0  0  0  0  0
   61.4370   32.9100   47.1150 C   0  0  0  0  0  0  0  0  0  0  0  0
   57.1240   30.8170   43.6490 C   0  0  0  0  0  0  0  0  0  0  0  0
   56.9780   29.4490   43.9010 C   0  0  0  0  0  0  0  0  0  0  0  0
   57.2190   26.9570   46.5040 C   0  0  0  0  0  0  0  0  0  0  0  0
   57.4660   25.4560   46.6800 C   0  0  0  0  0  0  0  0  0  0  0  0
   55.7808   22.9315   43.1585 H   0  0  0  0  0  0  0  0  0  0  0  0
   57.4595   22.6290   42.5955 H   0  0  0  0  0  0  0  0  0  0  0  0
   56.2579   21.2938   42.5955 H   0  0  0  0  0  0  0  0  0  0  0  0
   57.0446   20.7314   44.6374 H   0  0  0  0  0  0  0  0  0  0  0  0
   57.9971   22.2625   44.7511 H   0  0  0  0  0  0  0  0  0  0  0  0
   57.5067   24.3989   43.5741 H   0  0  0  0  0  0  0  0  0  0  0  0
   56.0838   25.5021   43.7828 H   0  0  0  0  0  0  0  0  0  0  0  0
   59.0276   26.1046   44.3136 H   0  0  0  0  0  0  0  0  0  0  0  0
   57.9122   26.8956   43.1380 H   0  0  0  0  0  0  0  0  0  0  0  0
   59.2835   29.1086   46.4076 H   0  0  0  0  0  0  0  0  0  0  0  0
   59.5383   31.5461   45.9609 H   0  0  0  0  0  0  0  0  0  0  0  0
   59.2644   33.2298   43.8394 H   0  0  0  0  0  0  0  0  0  0  0  0
   57.5379   33.3094   43.2702 H   0  0  0  0  0  0  0  0  0  0  0  0
   59.9643   35.9798   46.9493 H   0  0  0  0  0  0  0  0  0  0  0  0
   60.5599   35.2591   45.4155 H   0  0  0  0  0  0  0  0  0  0  0  0
   59.0759   36.2712   45.4155 H   0  0  0  0  0  0  0  0  0  0  0  0
   58.4272   34.0503   48.2786 H   0  0  0  0  0  0  0  0  0  0  0  0
   58.6990   32.5478   47.3254 H   0  0  0  0  0  0  0  0  0  0  0  0
   60.1313   34.7692   49.6766 H   0  0  0  0  0  0  0  0  0  0  0  0
   62.5243   34.7259   50.3874 H   0  0  0  0  0  0  0  0  0  0  0  0
   64.2209   33.5264   49.0038 H   0  0  0  0  0  0  0  0  0  0  0  0
   64.7090   32.3020   46.9020 H   0  0  0  0  0  0  0  0  0  0  0  0
   61.1311   32.3910   46.1946 H   0  0  0  0  0  0  0  0  0  0  0  0
   56.5258   31.2946   42.8591 H   0  0  0  0  0  0  0  0  0  0  0  0
   56.2574   28.8596   43.3151 H   0  0  0  0  0  0  0  0  0  0  0  0
   57.8141   27.5076   47.2475 H   0  0  0  0  0  0  0  0  0  0  0  0
   56.1453   27.1509   46.6439 H   0  0  0  0  0  0  0  0  0  0  0  0
   58.5488   25.2657   46.7154 H   0  0  0  0  0  0  0  0  0  0  0  0
   56.9997   25.1185   47.6174 H   0  0  0  0  0  0  0  0  0  0  0  0
  1  2  1  0
  2  3  1  0
  3  4  1  0
  4  5  2  0
  4  6  1  0
  6  7  1  0
  7  8  1  0
  8  9  1  0
  9 10  1  0
 10 11  2  0
 11 12  1  0
 12 13  2  0
 13 14  1  0
 14 15  1  0
 15 16  2  0
 15 17  1  0
 17 18  1  0
 17 19  1  0
 19 20  1  0
 20 21  2  0
 21 22  1  0
 22 23  2  0
 23 24  1  0
 24 25  1  0
 24 26  2  0
 13 27  1  0
 27 28  2  0
  9 29  1  0
 29 30  1  0
 30  6  1  0
 28 10  1  0
 26 20  1  0
  1 31  1  0
  1 32  1  0
  1 33  1  0
  2 34  1  0
  2 35  1  0
  7 36  1  0
  7 37  1  0
  8 38  1  0
  8 39  1  0
 11 40  1  0
 12 41  1  0
 14 42  1  0
 14 43  1  0
 18 44  1  0
 18 45  1  0
 18 46  1  0
 19 47  1  0
 19 48  1  0
 21 49  1  0
 22 50  1  0
 23 51  1  0
 25 52  1  0
 26 53  1  0
 27 54  1  0
 28 55  1  0
 29 56  1  0
 29 57  1  0
 30 58  1  0
 30 59  1  0
M  CHG  1   3  -1
M  END
>  <UniqueID>  (10) 
10

>  <SMILES>  (10) 
CC[N-]C(=O)N1CCN(c2ccc(CC(=O)N(C)Cc3cccc(O)c3)cc2)CC1

>  <Energy>  (10) 
62.023038964314715

>  <Genealogy>  (10) 
CC[N-]C(=O)N1CCN(c2ccc(CC(=O)N(C)Cc3cccc(O)c3)cc2)CC1 (protonated)
CC[N-]C(=O)N1CCN(c2ccc(CC(=O)N(C)Cc3cccc(O)c3)cc2)CC1 (3D coordinates assigned)
CC[N-]C(=O)N1CCN(c2ccc(CC(=O)N(C)Cc3cccc(O)c3)cc2)CC1 (nonaromatic ring conformer: 62.023038964314715 kcal/mol)

>  <smiles>  (10) 
CCNC(=O)N1CCN(c2ccc(CC(=O)N(C)Cc3cccc(O)c3)cc2)CC1

>  <score_type>  (10) 
oracle

>  <origin>  (10) 
adg

>  <m_score__min__energy>  (10) 
-10.109999999999999

>  <m_primary>  (10) 
energy

$$$$
10:0
     RDKit          3D

 46 48  0  0  0  0  0  0  0  0999 V2000
   59.4310   26.5210   46.2520 C   0  0  0  0  0  0  0  0  0  0  0  0
   58.0880   26.9840   45.9140 N   0  0  0  0  0  0  0  0  0  0  0  0
   57.9010   28.3150   45.4170 C   0  0  0  0  0  0  0  0  0  0  0  0
   57.0140   28.5400   44.3530 C   0  0  0  0  0  0  0  0  0  0  0  0
   56.8040   29.8330   43.8700 C   0  0  0  0  0  0  0  0  0  0  0  0
   57.4750   30.9120   44.4480 C   0  0  0  0  0  0  0  0  0  0  0  0
   58.3690   30.6980   45.5010 C   0  0  0  0  0  0  0  0  0  0  0  0
   58.6070   29.3970   45.9800 C   0  0  0  0  0  0  0  0  0  0  0  0
   59.5110   29.1530   47.0690 N   0  0  0  0  0  0  0  0  0  0  0  0
   60.1490   30.1520   47.8710 C   0  0  0  0  0  0  0  0  0  0  0  0
   61.3090   30.5530   47.5830 O   0  0  0  0  0  0  0  0  0  0  0  0
   59.4630   30.6670   49.0660 C   0  0  0  0  0  0  0  0  0  0  0  0
   58.5350   29.7210   50.1000 S   0  0  0  0  0  0  0  0  0  0  0  0
   58.0780   30.9570   51.1430 C   0  0  0  0  0  0  0  0  0  0  0  0
   58.6370   32.1400   50.6830 C   0  0  0  0  0  0  0  0  0  0  0  0
   59.4080   31.9890   49.5200 C   0  0  0  0  0  0  0  0  0  0  0  0
   60.1120   33.3690   48.6760 S   0  0  0  0  0  0  0  0  0  0  0  0
   61.5420   33.0500   48.3420 O   0  0  0  0  0  0  0  0  0  0  0  0
   60.0760   34.5850   49.5590 O   0  0  0  0  0  0  0  0  0  0  0  0
   59.1950   33.7160   47.2090 C   0  0  0  0  0  0  0  0  0  0  0  0
   57.8090   33.5040   47.1830 C   0  0  0  0  0  0  0  0  0  0  0  0
   57.0840   33.7410   46.0110 C   0  0  0  0  0  0  0  0  0  0  0  0
   57.7380   34.1980   44.8630 C   0  0  0  0  0  0  0  0  0  0  0  0
   59.1180   34.4190   44.8880 C   0  0  0  0  0  0  0  0  0  0  0  0
   59.8460   34.1800   46.0580 C   0  0  0  0  0  0  0  0  0  0  0  0
   56.7290   25.9130   46.0950 S   0  0  0  0  0  0  0  0  0  0  0  0
   56.7170   24.6780   44.8110 C   0  0  0  0  0  0  0  0  0  0  0  0
   56.8220   25.2140   47.4230 O   0  0  0  0  0  0  0  0  0  0  0  0
   55.4540   26.7050   46.0340 O   0  0  0  0  0  0  0  0  0  0  0  0
   59.5413   26.4830   47.3458 H   0  0  0  0  0  0  0  0  0  0  0  0
   59.5890   25.5165   45.8324 H   0  0  0  0  0  0  0  0  0  0  0  0
   60.1744   27.2147   45.8324 H   0  0  0  0  0  0  0  0  0  0  0  0
   56.4811   27.6927   43.8969 H   0  0  0  0  0  0  0  0  0  0  0  0
   56.1096   30.0015   43.0337 H   0  0  0  0  0  0  0  0  0  0  0  0
   57.3000   31.9317   44.0744 H   0  0  0  0  0  0  0  0  0  0  0  0
   58.8897   31.5524   45.9580 H   0  0  0  0  0  0  0  0  0  0  0  0
   57.4451   30.8468   52.0359 H   0  0  0  0  0  0  0  0  0  0  0  0
   58.4895   33.1082   51.1839 H   0  0  0  0  0  0  0  0  0  0  0  0
   57.2909   33.1505   48.0867 H   0  0  0  0  0  0  0  0  0  0  0  0
   55.9979   33.5677   45.9923 H   0  0  0  0  0  0  0  0  0  0  0  0
   57.1673   34.3835   43.9411 H   0  0  0  0  0  0  0  0  0  0  0  0
   59.6324   34.7816   43.9858 H   0  0  0  0  0  0  0  0  0  0  0  0
   60.9316   34.3566   46.0748 H   0  0  0  0  0  0  0  0  0  0  0  0
   56.7073   23.6764   45.2657 H   0  0  0  0  0  0  0  0  0  0  0  0
   55.8201   24.8063   44.1873 H   0  0  0  0  0  0  0  0  0  0  0  0
   57.6163   24.7888   44.1873 H   0  0  0  0  0  0  0  0  0  0  0  0
  1  2  1  0
  2  3  1  0
  3  4  2  0
  4  5  1  0
  5  6  2  0
  6  7  1  0
  7  8  2  0
  8  9  1  0
  9 10  1  0
 10 11  2  0
 10 12  1  0
 12 13  1  0
 13 14  1  0
 14 15  2  0
 15 16  1  0
 16 17  1  0
 17 18  2  0
 17 19  2  0
 17 20  1  0
 20 21  2  0
 21 22  1  0
 22 23  2  0
 23 24  1  0
 24 25  2  0
  2 26  1  0
 26 27  1  0
 26 28  2  0
 26 29  2  0
  8  3  1  0
 16 12  2  0
 25 20  1  0
  1 30  1  0
  1 31  1  0
  1 32  1  0
  4 33  1  0
  5 34  1  0
  6 35  1  0
  7 36  1  0
 14 37  1  0
 15 38  1  0
 21 39  1  0
 22 40  1  0
 23 41  1  0
 24 42  1  0
 25 43  1  0
 27 44  1  0
 27 45  1  0
 27 46  1  0
M  CHG  1   9  -1
M  END
>  <UniqueID>  (11) 
11

>  <SMILES>  (11) 
CN(c1ccccc1[N-]C(=O)c1sccc1S(=O)(=O)c1ccccc1)S(C)(=O)=O

>  <Energy>  (11) 
79.75241827621669

>  <Genealogy>  (11) 
CN(c1ccccc1[N-]C(=O)c1sccc1S(=O)(=O)c1ccccc1)S(C)(=O)=O (protonated)
CN(c1ccccc1[N-]C(=O)c1sccc1S(=O)(=O)c1ccccc1)S(C)(=O)=O (3D coordinates assigned)
CN(c1ccccc1[N-]C(=O)c1sccc1S(=O)(=O)c1ccccc1)S(C)(=O)=O (optimized conformer: 79.75241827621669 kcal/mol)

>  <smiles>  (11) 
CN(c1ccccc1NC(=O)c1sccc1S(=O)(=O)c1ccccc1)S(C)(=O)=O

>  <score_type>  (11) 
oracle

>  <origin>  (11) 
adg

>  <m_score__min__energy>  (11) 
-11.16

>  <m_primary>  (11) 
energy

$$$$
11:0
     RDKit          3D

 39 41  0  0  0  0  0  0  0  0999 V2000
   64.9920   32.9900   47.5020 H   0  0  0  0  0  0  0  0  0  0  0  0
   64.3810   33.4740   48.1490 O   0  0  0  0  0  0  0  0  0  0  0  0
   62.9980   33.4710   47.9840 C   0  0  0  0  0  0  0  0  0  0  0  0
   62.1460   33.4400   49.0950 C   0  0  0  0  0  0  0  0  0  0  0  0
   62.5692   33.4187   50.1101 H   0  0  0  0  0  0  0  0  0  0  0  0
   60.7590   33.4360   48.9180 C   0  0  0  0  0  0  0  0  0  0  0  0
   60.0951   33.4148   49.7948 H   0  0  0  0  0  0  0  0  0  0  0  0
   60.2090   33.4590   47.6240 C   0  0  0  0  0  0  0  0  0  0  0  0
   58.7140   33.4460   47.4320 C   0  0  0  0  0  0  0  0  0  0  0  0
   58.3720   34.4644   47.1958 H   0  0  0  0  0  0  0  0  0  0  0  0
   58.2428   33.0890   48.3596 H   0  0  0  0  0  0  0  0  0  0  0  0
   58.3350   32.5420   46.3320 N   0  0  0  0  0  0  0  0  0  0  0  0
   57.6430   32.9120   45.2280 C   0  0  0  0  0  0  0  0  0  0  0  0
   57.1460   34.2990   44.9430 C   0  0  0  0  0  0  0  0  0  0  0  0
   56.9581   34.8233   45.8916 H   0  0  0  0  0  0  0  0  0  0  0  0
   57.9033   34.8482   44.3643 H   0  0  0  0  0  0  0  0  0  0  0  0
   56.2123   34.2422   44.3643 H   0  0  0  0  0  0  0  0  0  0  0  0
   57.3940   31.8220   44.4230 C   0  0  0  0  0  0  0  0  0  0  0  0
   56.8329   31.8215   43.4769 H   0  0  0  0  0  0  0  0  0  0  0  0
   57.9830   30.7300   45.0300 C   0  0  0  0  0  0  0  0  0  0  0  0
   57.9800   29.5030   44.4680 C   0  0  0  0  0  0  0  0  0  0  0  0
   58.4468   29.4047   43.4768 H   0  0  0  0  0  0  0  0  0  0  0  0
   57.4060   28.2810   45.0650 C   0  0  0  0  0  0  0  0  0  0  0  0
   56.0210   28.1430   45.2530 C   0  0  0  0  0  0  0  0  0  0  0  0
   55.1450   29.1430   44.8450 O   0  0  0  0  0  0  0  0  0  0  0  0
   55.5250   27.0250   45.8430 N   0  0  0  0  0  0  0  0  0  0  0  0
   56.3500   26.0370   46.2750 C   0  0  0  0  0  0  0  0  0  0  0  0
   55.8680   25.0080   46.8160 O   0  0  0  0  0  0  0  0  0  0  0  0
   57.6940   26.1610   46.1310 N   0  0  0  0  0  0  0  0  0  0  0  0
   58.2390   27.2590   45.5460 C   0  0  0  0  0  0  0  0  0  0  0  0
   59.4910   27.3440   45.4340 O   0  0  0  0  0  0  0  0  0  0  0  0
   58.5300   31.1960   46.2390 C   0  0  0  0  0  0  0  0  0  0  0  0
   59.0710   30.4480   47.2160 C   0  0  0  0  0  0  0  0  0  0  0  0
   59.4689   30.9299   48.1213 H   0  0  0  0  0  0  0  0  0  0  0  0
   59.1159   29.3540   47.1103 H   0  0  0  0  0  0  0  0  0  0  0  0
   61.0700   33.4950   46.5150 C   0  0  0  0  0  0  0  0  0  0  0  0
   60.6512   33.5194   45.4981 H   0  0  0  0  0  0  0  0  0  0  0  0
   62.4560   33.5000   46.6960 C   0  0  0  0  0  0  0  0  0  0  0  0
   63.1227   33.5269   45.8215 H   0  0  0  0  0  0  0  0  0  0  0  0
  1  2  1  0
  2  3  1  0
  3  4  2  0
  4  5  1  0
  4  6  1  0
  6  7  1  0
  6  8  2  0
  8  9  1  0
  9 10  1  0
  9 11  1  0
  9 12  1  0
 12 13  1  0
 13 14  1  0
 14 15  1  0
 14 16  1  0
 14 17  1  0
 13 18  2  0
 18 19  1  0
 18 20  1  0
 20 21  2  0
 21 22  1  0
 21 23  1  0
 23 24  2  0
 24 25  1  0
 24 26  1  0
 26 27  1  0
 27 28  2  0
 27 29  1  0
 29 30  1  0
 30 31  2  0
 20 32  1  0
 32 33  2  0
 33 34  1  0
 33 35  1  0
  8 36  1  0
 36 37  1  0
 36 38  2  0
 38 39  1  0
 38  3  1  0
 32 12  1  0
 30 23  1  0
M  CHG  3  25  -1  26  -1  29  -1
M  END
>  <UniqueID>  (12) 
12

>  <SMILES>  (12) 
C=c1/c(=C\c2c([O-])[n-]c(=O)[n-]c2=O)cc(C)n1Cc1ccc(O)cc1

>  <Energy>  (12) 
84.07093971728195

>  <Genealogy>  (12) 
C=c1c(=Cc2c([O-])[n-]c(=O)[n-]c2=O)cc(C)n1Cc1ccc(O)cc1 (protonated)
C=c1/c(=C\c2c([O-])[n-]c(=O)[n-]c2=O)cc(C)n1Cc1ccc(O)cc1 (cis-trans isomerization)
C=c1/c(=C\c2c([O-])[n-]c(=O)[n-]c2=O)cc(C)n1Cc1ccc(O)cc1 (3D coordinates assigned)
C=c1/c(=C\c2c([O-])[n-]c(=O)[n-]c2=O)cc(C)n1Cc1ccc(O)cc1 (optimized conformer: 84.07093971728195 kcal/mol)

>  <smiles>  (12) 
C=c1c(=Cc2c(O)[nH]c(=O)[nH]c2=O)cc(C)n1Cc1ccc(O)cc1

>  <score_type>  (12) 
oracle

>  <origin>  (12) 
adg

>  <m_score__min__energy>  (12) 
-15.67

>  <m_primary>  (12) 
energy

$$$$
12:0
     RDKit          3D

 33 35  0  0  1  0  0  0  0  0999 V2000
   58.7850   29.3270   45.3050 C   0  0  0  0  0  0  0  0  0  0  0  0
   57.4240   29.5520   44.7990 C   0  0  0  0  0  0  0  0  0  0  0  0
   56.3360   28.8430   45.1190 N   0  0  0  0  0  0  0  0  0  0  0  0
   55.2750   29.3360   44.4660 N   0  0  0  0  0  0  0  0  0  0  0  0
   55.7010   30.3760   43.7210 C   0  0  0  0  0  0  0  0  0  0  0  0
   57.0400   30.5370   43.9060 C   0  0  0  0  0  0  0  0  0  0  0  0
   57.8580   31.5580   43.2670 C   0  0  0  0  0  0  0  0  0  0  0  0
   57.8260   32.7470   43.7650 N   0  0  0  0  0  0  0  0  0  0  0  0
   58.2000   33.0280   45.0890 N   0  0  0  0  0  0  0  0  0  0  0  0
   57.8440   32.4040   46.2050 N   0  0  0  0  0  0  0  0  0  0  0  0
   58.4330   33.0040   47.2420 C   0  0  0  0  0  0  0  0  0  0  0  0
   59.1900   34.0480   46.7670 C   0  0  0  0  0  0  0  0  0  0  0  0
   59.0350   34.0570   45.3810 C   0  0  0  0  0  0  0  0  0  0  0  0
   59.5630   34.8550   44.5860 O   0  0  0  0  0  0  0  0  0  0  0  0
   59.9890   34.9440   47.6300 C   0  0  0  0  0  0  0  0  0  0  0  0
   60.4520   34.0700   48.7920 C   0  0  0  0  0  0  0  0  0  0  0  0
   59.2950   33.4650   49.5250 C   0  0  0  0  0  0  0  0  0  0  0  0
   58.3550   32.6870   48.6840 C   0  0  0  0  0  0  0  0  0  0  0  0
   58.7723   29.3291   46.4049 H   0  0  0  0  0  0  0  0  0  0  0  0
   59.1543   28.3556   44.9444 H   0  0  0  0  0  0  0  0  0  0  0  0
   59.4473   30.1278   44.9444 H   0  0  0  0  0  0  0  0  0  0  0  0
   54.2850   28.9790   44.5220 H   0  0  0  0  0  0  0  0  0  0  0  0
   55.0680   30.9951   43.0683 H   0  0  0  0  0  0  0  0  0  0  0  0
   58.4808   31.3236   42.3911 H   0  0  0  0  0  0  0  0  0  0  0  0
   57.2050   31.5750   46.2570 H   0  0  0  0  0  0  0  0  0  0  0  0
   60.8533   35.3418   47.0780 H   0  0  0  0  0  0  0  0  0  0  0  0
   59.4065   35.8114   47.9740 H   0  0  0  0  0  0  0  0  0  0  0  0
   61.0871   33.2622   48.3995 H   0  0  0  0  0  0  0  0  0  0  0  0
   61.0108   34.7037   49.4964 H   0  0  0  0  0  0  0  0  0  0  0  0
   59.6954   32.7936   50.2989 H   0  0  0  0  0  0  0  0  0  0  0  0
   58.7163   34.3072   49.9322 H   0  0  0  0  0  0  0  0  0  0  0  0
   58.5774   31.6178   48.8154 H   0  0  0  0  0  0  0  0  0  0  0  0
   57.3396   32.9526   49.0133 H   0  0  0  0  0  0  0  0  0  0  0  0
  1  2  1  0
  2  3  2  0
  3  4  1  0
  4  5  1  0
  5  6  2  0
  6  7  1  0
  7  8  2  0
  8  9  1  0
  9 10  1  0
 10 11  1  0
 11 12  2  0
 12 13  1  0
 13 14  2  0
 12 15  1  0
 15 16  1  0
 16 17  1  0
 17 18  1  0
  6  2  1  0
 13  9  1  0
 18 11  1  0
  1 19  1  0
  1 20  1  0
  1 21  1  0
  4 22  1  0
  5 23  1  0
  7 24  1  0
 10 25  1  0
 15 26  1  0
 15 27  1  0
 16 28  1  0
 16 29  1  0
 17 30  1  0
 17 31  1  0
 18 32  1  0
 18 33  1  0
M  END
>  <smiles>  (13) 
Cc1n[nH]cc1C=Nn1[nH]c2c(c1=O)CCCC2

>  <score_type>  (13) 
oracle

>  <origin>  (13) 
adg

>  <m_score__min__energy>  (13) 
-7.4000000000000004

>  <m_primary>  (13) 
energy

$$$$
13:0
     RDKit          3D

 52 55  0  0  0  0  0  0  0  0999 V2000
   57.1005   30.8027   41.6595 H   0  0  0  0  0  0  0  0  0  0  0  0
   56.8420   30.6200   42.7130 C   0  0  0  0  0  0  0  0  0  0  0  0
   56.1860   29.5860   43.1830 O   0  0  0  0  0  0  0  0  0  0  0  0
   56.0870   29.7600   44.4790 C   0  0  0  0  0  0  0  0  0  0  0  0
   55.5130   28.9410   45.2450 O   0  0  0  0  0  0  0  0  0  0  0  0
   56.6580   30.8990   44.9160 N   0  0  0  0  0  0  0  0  0  0  0  0
   57.1490   31.4380   43.7840 C   0  0  0  0  0  0  0  0  0  0  0  0
   57.8610   32.7290   43.7060 C   0  0  0  0  0  0  0  0  0  0  0  0
   58.5090   33.0050   42.6610 O   0  0  0  0  0  0  0  0  0  0  0  0
   57.8380   33.6930   44.7690 N   0  0  0  0  0  0  0  0  0  0  0  0
   57.7720   33.4040   46.2000 C   0  0  0  0  0  0  0  0  0  0  0  0
   56.8514   32.8419   46.4155 H   0  0  0  0  0  0  0  0  0  0  0  0
   57.7717   34.3514   46.7589 H   0  0  0  0  0  0  0  0  0  0  0  0
   58.9640   32.5860   46.6180 C   0  0  0  0  0  0  0  0  0  0  0  0
   58.7820   31.2640   47.0520 C   0  0  0  0  0  0  0  0  0  0  0  0
   57.7780   30.8154   47.0241 H   0  0  0  0  0  0  0  0  0  0  0  0
   59.8690   30.5070   47.5220 C   0  0  0  0  0  0  0  0  0  0  0  0
   59.6700   29.1140   47.9880 C   0  0  0  0  0  0  0  0  0  0  0  0
   60.5070   28.5900   48.7740 O   0  0  0  0  0  0  0  0  0  0  0  0
   58.5820   28.3340   47.4650 N   0  0  0  0  0  0  0  0  0  0  0  0
   58.4440   27.8320   46.2670 C   0  0  0  0  0  0  0  0  0  0  0  0
   57.8050   26.5930   46.1400 C   0  0  0  0  0  0  0  0  0  0  0  0
   57.4345   26.0731   47.0358 H   0  0  0  0  0  0  0  0  0  0  0  0
   57.6360   26.0140   44.8790 C   0  0  0  0  0  0  0  0  0  0  0  0
   56.9680   24.7830   44.8000 O   0  0  0  0  0  0  0  0  0  0  0  0
   57.1200   23.8290   43.7470 C   0  0  2  0  0  0  0  0  0  0  0  0
   57.6678   24.3621   42.9560 H   0  0  0  0  0  0  0  0  0  0  0  0
   55.7700   23.2920   43.3190 C   0  0  0  0  0  0  0  0  0  0  0  0
   55.3767   23.8990   42.4902 H   0  0  0  0  0  0  0  0  0  0  0  0
   55.0656   23.3370   44.1627 H   0  0  0  0  0  0  0  0  0  0  0  0
   55.9250   21.9570   42.8960 O   0  0  0  0  0  0  0  0  0  0  0  0
   57.1460   21.4840   43.4190 C   0  0  0  0  0  0  0  0  0  0  0  0
   57.8009   21.1711   42.5925 H   0  0  0  0  0  0  0  0  0  0  0  0
   56.9510   20.6273   44.0808 H   0  0  0  0  0  0  0  0  0  0  0  0
   57.8250   22.5860   44.2110 C   0  0  0  0  0  0  0  0  0  0  0  0
   58.8995   22.6328   43.9800 H   0  0  0  0  0  0  0  0  0  0  0  0
   57.7622   22.4359   45.2989 H   0  0  0  0  0  0  0  0  0  0  0  0
   58.1310   26.6870   43.7510 C   0  0  0  0  0  0  0  0  0  0  0  0
   58.0040   26.2545   42.7476 H   0  0  0  0  0  0  0  0  0  0  0  0
   58.7850   27.9080   43.9120 C   0  0  0  0  0  0  0  0  0  0  0  0
   59.1829   28.4340   43.0316 H   0  0  0  0  0  0  0  0  0  0  0  0
   58.9350   28.4540   45.1490 N   0  0  0  0  0  0  0  0  0  0  0  0
   59.4710   29.3440   45.2070 H   0  0  0  0  0  0  0  0  0  0  0  0
   61.1470   31.0950   47.5520 C   0  0  0  0  0  0  0  0  0  0  0  0
   61.9994   30.5207   47.9439 H   0  0  0  0  0  0  0  0  0  0  0  0
   61.3490   32.4060   47.0880 C   0  0  0  0  0  0  0  0  0  0  0  0
   62.7150   33.0420   47.1740 C   0  0  0  0  0  0  0  0  0  0  0  0
   62.9400   33.7870   46.0310 F   0  0  0  0  0  0  0  0  0  0  0  0
   62.7980   33.8750   48.2770 F   0  0  0  0  0  0  0  0  0  0  0  0
   63.7010   32.0770   47.2870 F   0  0  0  0  0  0  0  0  0  0  0  0
   60.2490   33.1480   46.6350 C   0  0  0  0  0  0  0  0  0  0  0  0
   60.3953   34.1819   46.2892 H   0  0  0  0  0  0  0  0  0  0  0  0
  1  2  1  0
  2  3  1  0
  3  4  1  0
  4  5  2  0
  4  6  1  0
  6  7  1  0
  7  8  1  0
  8  9  2  0
  8 10  1  0
 10 11  1  0
 11 12  1  0
 11 13  1  0
 11 14  1  0
 14 15  2  0
 15 16  1  0
 15 17  1  0
 17 18  1  0
 18 19  2  0
 18 20  1  0
 20 21  2  0
 21 22  1  0
 22 23  1  0
 22 24  2  0
 24 25  1  0
 25 26  1  0
 26 27  1  6
 26 28  1  0
 28 29  1  0
 28 30  1  0
 28 31  1  0
 31 32  1  0
 32 33  1  0
 32 34  1  0
 32 35  1  0
 35 36  1  0
 35 37  1  0
 24 38  1  0
 38 39  1  0
 38 40  2  0
 40 41  1  0
 40 42  1  0
 42 43  1  0
 17 44  2  0
 44 45  1  0
 44 46  1  0
 46 47  1  0
 47 48  1  0
 47 49  1  0
 47 50  1  0
 46 51  2  0
 51 52  1  0
  7  2  2  0
 51 14  1  0
 42 21  1  0
 35 26  1  0
M  CHG  2   6  -1  10  -1
M  END
>  <UniqueID>  (14) 
13

>  <SMILES>  (14) 
O=C(/N=c1/cc(O[C@H]2CCOC2)cc[nH]1)c1cc(C[N-]C(=O)c2coc(=O)[n-]2)cc(C(F)(F)F)c1

>  <Energy>  (14) 
94.89978062649351

>  <Genealogy>  (14) 
O=C(N=c1cc(OC2CCOC2)cc[nH]1)c1cc(C[N-]C(=O)c2coc(=O)[n-]2)cc(C(F)(F)F)c1 (protonated)
O=C(N=c1cc(O[C@H]2CCOC2)cc[nH]1)c1cc(C[N-]C(=O)c2coc(=O)[n-]2)cc(C(F)(F)F)c1 (chirality)
O=C(/N=c1/cc(O[C@H]2CCOC2)cc[nH]1)c1cc(C[N-]C(=O)c2coc(=O)[n-]2)cc(C(F)(F)F)c1 (cis-trans isomerization)
O=C(/N=c1/cc(O[C@H]2CCOC2)cc[nH]1)c1cc(C[N-]C(=O)c2coc(=O)[n-]2)cc(C(F)(F)F)c1 (3D coordinates assigned)
O=C(/N=c1/cc(O[C@H]2CCOC2)cc[nH]1)c1cc(C[N-]C(=O)c2coc(=O)[n-]2)cc(C(F)(F)F)c1 (nonaromatic ring conformer: 94.89978062649351 kcal/mol)

>  <smiles>  (14) 
O=C(N=c1cc(OC2CCOC2)cc[nH]1)c1cc(CNC(=O)c2coc(=O)[nH]2)cc(C(F)(F)F)c1

>  <score_type>  (14) 
oracle

>  <origin>  (14) 
adg

>  <m_score__min__energy>  (14) 
-12.390000000000001

>  <m_primary>  (14) 
energy

$$$$
14:0
     RDKit          3D

 62 65  0  0  0  0  0  0  0  0999 V2000
   60.0740   26.6030   47.5580 C   0  0  0  0  0  0  0  0  0  0  0  0
   60.5270   27.3780   48.7570 C   0  0  0  0  0  0  0  0  0  0  0  0
   61.1480   26.7690   49.6690 O   0  0  0  0  0  0  0  0  0  0  0  0
   60.2310   28.7840   48.8990 N   0  0  0  0  0  0  0  0  0  0  0  0
   61.0130   29.6050   49.8310 C   0  0  0  0  0  0  0  0  0  0  0  0
   61.3150   30.9750   49.2070 C   0  0  0  0  0  0  0  0  0  0  0  0
   60.1310   31.5470   48.5510 N   0  0  0  0  0  0  0  0  0  0  0  0
   60.2200   32.8550   47.9590 C   0  0  0  0  0  0  0  0  0  0  0  0
   60.8780   33.7560   48.5440 O   0  0  0  0  0  0  0  0  0  0  0  0
   59.5840   33.1520   46.6560 C   0  0  0  0  0  0  0  0  0  0  0  0
   59.7130   34.4260   46.0770 C   0  0  0  0  0  0  0  0  0  0  0  0
   59.1300   34.7040   44.8380 C   0  0  0  0  0  0  0  0  0  0  0  0
   58.4100   33.7140   44.1670 C   0  0  0  0  0  0  0  0  0  0  0  0
   58.2460   32.4480   44.7440 C   0  0  0  0  0  0  0  0  0  0  0  0
   57.3460   31.2100   43.8730 S   0  0  0  0  0  0  0  0  0  0  0  0
   57.0870   31.6890   42.4720 O   0  0  0  0  0  0  0  0  0  0  0  0
   56.0200   30.9460   44.5250 O   0  0  0  0  0  0  0  0  0  0  0  0
   58.2850   29.7550   43.8010 N   0  0  0  0  0  0  0  0  0  0  0  0
   57.9170   28.5370   44.4740 C   0  0  0  0  0  0  0  0  0  0  0  0
   57.3500   28.6050   45.7580 C   0  0  0  0  0  0  0  0  0  0  0  0
   57.0270   27.4390   46.4590 C   0  0  0  0  0  0  0  0  0  0  0  0
   57.2860   26.1850   45.8920 C   0  0  0  0  0  0  0  0  0  0  0  0
   56.9840   24.7060   46.8040 S   0  0  0  0  0  0  0  0  0  0  0  0
   55.5170   24.3870   46.7420 O   0  0  0  0  0  0  0  0  0  0  0  0
   57.3880   24.8640   48.2450 O   0  0  0  0  0  0  0  0  0  0  0  0
   57.8870   23.4050   46.1030 N   0  0  0  0  0  0  0  0  0  0  0  0
   57.4090   22.5070   45.1040 C   0  0  0  0  0  0  0  0  0  0  0  0
   57.3900   22.8680   43.7460 C   0  0  0  0  0  0  0  0  0  0  0  0
   56.9140   21.9750   42.7870 C   0  0  0  0  0  0  0  0  0  0  0  0
   56.4490   20.7170   43.1700 C   0  0  0  0  0  0  0  0  0  0  0  0
   56.4710   20.3450   44.5170 C   0  0  0  0  0  0  0  0  0  0  0  0
   56.9560   21.2300   45.4800 C   0  0  0  0  0  0  0  0  0  0  0  0
   56.9770   20.6710   47.2990 Br  0  0  0  0  0  0  0  0  0  0  0  0
   57.8470   26.1090   44.6100 C   0  0  0  0  0  0  0  0  0  0  0  0
   58.1570   27.2740   43.9030 C   0  0  0  0  0  0  0  0  0  0  0  0
   58.8290   32.1700   45.9900 C   0  0  0  0  0  0  0  0  0  0  0  0
   58.8540   30.8220   48.5840 C   0  0  0  0  0  0  0  0  0  0  0  0
   59.0770   29.3590   48.1920 C   0  0  0  0  0  0  0  0  0  0  0  0
   59.5442   25.6965   47.8860 H   0  0  0  0  0  0  0  0  0  0  0  0
   59.3972   27.2249   46.9537 H   0  0  0  0  0  0  0  0  0  0  0  0
   60.9480   26.3184   46.9537 H   0  0  0  0  0  0  0  0  0  0  0  0
   60.4397   29.7470   50.7590 H   0  0  0  0  0  0  0  0  0  0  0  0
   61.9620   29.0936   50.0499 H   0  0  0  0  0  0  0  0  0  0  0  0
   61.6501   31.6612   49.9988 H   0  0  0  0  0  0  0  0  0  0  0  0
   62.0969   30.8397   48.4452 H   0  0  0  0  0  0  0  0  0  0  0  0
   60.2771   35.2102   46.6031 H   0  0  0  0  0  0  0  0  0  0  0  0
   59.2384   35.7033   44.3912 H   0  0  0  0  0  0  0  0  0  0  0  0
   57.9700   33.9287   43.1820 H   0  0  0  0  0  0  0  0  0  0  0  0
   59.2410   29.8350   43.3860 H   0  0  0  0  0  0  0  0  0  0  0  0
   57.1582   29.5862   46.2167 H   0  0  0  0  0  0  0  0  0  0  0  0
   56.5690   27.5068   47.4568 H   0  0  0  0  0  0  0  0  0  0  0  0
   57.7524   23.8599   43.4382 H   0  0  0  0  0  0  0  0  0  0  0  0
   56.9051   22.2633   41.7255 H   0  0  0  0  0  0  0  0  0  0  0  0
   56.0652   20.0180   42.4123 H   0  0  0  0  0  0  0  0  0  0  0  0
   56.1051   19.3524   44.8184 H   0  0  0  0  0  0  0  0  0  0  0  0
   58.0446   25.1261   44.1573 H   0  0  0  0  0  0  0  0  0  0  0  0
   58.5910   27.2030   42.8947 H   0  0  0  0  0  0  0  0  0  0  0  0
   58.6947   31.1789   46.4480 H   0  0  0  0  0  0  0  0  0  0  0  0
   58.4344   30.8678   49.5998 H   0  0  0  0  0  0  0  0  0  0  0  0
   58.1550   31.2858   47.8725 H   0  0  0  0  0  0  0  0  0  0  0  0
   58.1770   28.7794   48.4453 H   0  0  0  0  0  0  0  0  0  0  0  0
   59.2771   29.3168   47.1112 H   0  0  0  0  0  0  0  0  0  0  0  0
  1  2  1  0
  2  3  2  0
  2  4  1  0
  4  5  1  0
  5  6  1  0
  6  7  1  0
  7  8  1  0
  8  9  2  0
  8 10  1  0
 10 11  2  0
 11 12  1  0
 12 13  2  0
 13 14  1  0
 14 15  1  0
 15 16  2  0
 15 17  2  0
 15 18  1  0
 18 19  1  0
 19 20  2  0
 20 21  1  0
 21 22  2  0
 22 23  1  0
 23 24  2  0
 23 25  2  0
 23 26  1  0
 26 27  1  0
 27 28  2  0
 28 29  1  0
 29 30  2  0
 30 31  1  0
 31 32  2  0
 32 33  1  0
 22 34  1  0
 34 35  2  0
 14 36  2  0
  7 37  1  0
 37 38  1  0
 38  4  1  0
 36 10  1  0
 35 19  1  0
 32 27  1  0
  1 39  1  0
  1 40  1  0
  1 41  1  0
  5 42  1  0
  5 43  1  0
  6 44  1  0
  6 45  1  0
 11 46  1  0
 12 47  1  0
 13 48  1  0
 18 49  1  0
 20 50  1  0
 21 51  1  0
 28 52  1  0
 29 53  1  0
 30 54  1  0
 31 55  1  0
 34 56  1  0
 35 57  1  0
 36 58  1  0
 37 59  1  0
 37 60  1  0
 38 61  1  0
 38 62  1  0
M  CHG  1  26  -1
M  END
>  <UniqueID>  (15) 
14

>  <SMILES>  (15) 
CC(=O)N1CCN(C(=O)c2cccc(S(=O)(=O)Nc3ccc(S(=O)(=O)[N-]c4ccccc4Br)cc3)c2)CC1

>  <Energy>  (15) 
77.03312077602293

>  <Genealogy>  (15) 
CC(=O)N1CCN(C(=O)c2cccc(S(=O)(=O)Nc3ccc(S(=O)(=O)[N-]c4ccccc4Br)cc3)c2)CC1 (protonated)
CC(=O)N1CCN(C(=O)c2cccc(S(=O)(=O)Nc3ccc(S(=O)(=O)[N-]c4ccccc4Br)cc3)c2)CC1 (3D coordinates assigned)
CC(=O)N1CCN(C(=O)c2cccc(S(=O)(=O)Nc3ccc(S(=O)(=O)[N-]c4ccccc4Br)cc3)c2)CC1 (nonaromatic ring conformer: 77.03312077602293 kcal/mol)

>  <smiles>  (15) 
CC(=O)N1CCN(C(=O)c2cccc(S(=O)(=O)Nc3ccc(S(=O)(=O)Nc4ccccc4Br)cc3)c2)CC1

>  <score_type>  (15) 
oracle

>  <origin>  (15) 
adg

>  <m_score__min__energy>  (15) 
-12.09

>  <m_primary>  (15) 
energy

$$$$
15:0
     RDKit          3D

 52 54  0  0  0  0  0  0  0  0999 V2000
   58.9240   30.1480   48.1020 C   0  0  0  0  0  0  0  0  0  0  0  0
   58.5200   30.6940   46.9430 C   0  0  0  0  0  0  0  0  0  0  0  0
   58.2900   30.0320   45.7210 C   0  0  0  0  0  0  0  0  0  0  0  0
   58.4810   28.7490   45.3520 C   0  0  0  0  0  0  0  0  0  0  0  0
   57.6690   27.5970   45.7860 C   0  0  0  0  0  0  0  0  0  0  0  0
   56.2690   27.5660   45.6150 C   0  0  0  0  0  0  0  0  0  0  0  0
   55.5770   28.6150   45.0050 O   0  0  0  0  0  0  0  0  0  0  0  0
   55.5640   26.4910   46.0540 N   0  0  0  0  0  0  0  0  0  0  0  0
   56.1770   25.4500   46.6710 C   0  0  0  0  0  0  0  0  0  0  0  0
   55.4990   24.4650   47.0670 O   0  0  0  0  0  0  0  0  0  0  0  0
   57.5210   25.4710   46.8690 N   0  0  0  0  0  0  0  0  0  0  0  0
   58.2750   26.5180   46.4480 C   0  0  0  0  0  0  0  0  0  0  0  0
   59.5190   26.5050   46.6520 O   0  0  0  0  0  0  0  0  0  0  0  0
   57.8160   30.9920   44.8440 C   0  0  0  0  0  0  0  0  0  0  0  0
   57.8050   32.1900   45.5250 C   0  0  0  0  0  0  0  0  0  0  0  0
   57.3790   33.4970   44.9300 C   0  0  0  0  0  0  0  0  0  0  0  0
   58.2170   32.0130   46.8010 N   0  0  0  0  0  0  0  0  0  0  0  0
   58.3550   33.0780   47.8080 C   0  0  0  0  0  0  0  0  0  0  0  0
   59.7740   33.0810   48.3830 C   0  0  0  0  0  0  0  0  0  0  0  0
   60.6940   34.0150   47.5940 C   0  0  0  0  0  0  0  0  0  0  0  0
   61.5480   33.2160   46.6820 N   0  0  0  0  0  0  0  0  0  0  0  0
   62.8650   33.8340   46.4120 C   0  0  0  0  0  0  0  0  0  0  0  0
   63.9050   33.5570   47.5190 C   0  0  0  0  0  0  0  0  0  0  0  0
   63.2720   32.9420   48.6980 N   0  0  0  0  0  0  0  0  0  0  0  0
   64.2640   32.7390   49.7640 C   0  0  0  0  0  0  0  0  0  0  0  0
   62.6430   31.6590   48.3320 C   0  0  0  0  0  0  0  0  0  0  0  0
   61.6940   31.8130   47.1220 C   0  0  0  0  0  0  0  0  0  0  0  0
   59.0665   30.7829   48.9889 H   0  0  0  0  0  0  0  0  0  0  0  0
   59.1123   29.0660   48.1641 H   0  0  0  0  0  0  0  0  0  0  0  0
   59.3165   28.5436   44.6666 H   0  0  0  0  0  0  0  0  0  0  0  0
   55.5970   28.7780   44.0060 H   0  0  0  0  0  0  0  0  0  0  0  0
   57.5067   30.8295   43.8010 H   0  0  0  0  0  0  0  0  0  0  0  0
   57.1471   34.2086   45.7361 H   0  0  0  0  0  0  0  0  0  0  0  0
   58.1925   33.8994   44.3085 H   0  0  0  0  0  0  0  0  0  0  0  0
   56.4846   33.3428   44.3085 H   0  0  0  0  0  0  0  0  0  0  0  0
   58.1514   34.0514   47.3378 H   0  0  0  0  0  0  0  0  0  0  0  0
   57.6380   32.8972   48.6224 H   0  0  0  0  0  0  0  0  0  0  0  0
   59.7353   33.4170   49.4297 H   0  0  0  0  0  0  0  0  0  0  0  0
   60.1771   32.0597   48.3155 H   0  0  0  0  0  0  0  0  0  0  0  0
   60.0855   34.7170   47.0050 H   0  0  0  0  0  0  0  0  0  0  0  0
   61.3308   34.5774   48.2927 H   0  0  0  0  0  0  0  0  0  0  0  0
   63.2505   33.4347   45.4623 H   0  0  0  0  0  0  0  0  0  0  0  0
   62.7131   34.9227   46.3711 H   0  0  0  0  0  0  0  0  0  0  0  0
   64.6740   32.8750   47.1272 H   0  0  0  0  0  0  0  0  0  0  0  0
   64.3556   34.5134   47.8229 H   0  0  0  0  0  0  0  0  0  0  0  0
   63.7747   32.8391   50.7441 H   0  0  0  0  0  0  0  0  0  0  0  0
   64.6997   31.7331   49.6727 H   0  0  0  0  0  0  0  0  0  0  0  0
   65.0598   33.4929   49.6727 H   0  0  0  0  0  0  0  0  0  0  0  0
   63.4312   30.9353   48.0771 H   0  0  0  0  0  0  0  0  0  0  0  0
   62.0505   31.3100   49.1906 H   0  0  0  0  0  0  0  0  0  0  0  0
   62.0938   31.2221   46.2847 H   0  0  0  0  0  0  0  0  0  0  0  0
   60.7003   31.4593   47.4342 H   0  0  0  0  0  0  0  0  0  0  0  0
  1  2  2  0
  2  3  1  0
  3  4  2  3
  4  5  1  0
  5  6  2  0
  6  7  1  0
  6  8  1  0
  8  9  1  0
  9 10  2  0
  9 11  1  0
 11 12  1  0
 12 13  2  0
  3 14  1  0
 14 15  2  0
 15 16  1  0
 15 17  1  0
 17 18  1  0
 18 19  1  0
 19 20  1  0
 20 21  1  0
 21 22  1  0
 22 23  1  0
 23 24  1  0
 24 25  1  0
 24 26  1  0
 26 27  1  0
 17  2  1  0
 27 21  1  0
 12  5  1  0
  1 28  1  0
  1 29  1  0
  4 30  1  0
  7 31  1  0
 14 32  1  0
 16 33  1  0
 16 34  1  0
 16 35  1  0
 18 36  1  0
 18 37  1  0
 19 38  1  0
 19 39  1  0
 20 40  1  0
 20 41  1  0
 22 42  1  0
 22 43  1  0
 23 44  1  0
 23 45  1  0
 25 46  1  0
 25 47  1  0
 25 48  1  0
 26 49  1  0
 26 50  1  0
 27 51  1  0
 27 52  1  0
M  CHG  2   8  -1  11  -1
M  END
>  <UniqueID>  (16) 
15

>  <SMILES>  (16) 
C=c1c(=Cc2c(O)[n-]c(=O)[n-]c2=O)cc(C)n1CCCN1CCN(C)CC1

>  <Energy>  (16) 
103.2588978877298

>  <Genealogy>  (16) 
C=c1c(=Cc2c(O)[n-]c(=O)[n-]c2=O)cc(C)n1CCCN1CCN(C)CC1 (protonated)
C=c1c(=Cc2c(O)[n-]c(=O)[n-]c2=O)cc(C)n1CCCN1CCN(C)CC1 (3D coordinates assigned)
C=c1c(=Cc2c(O)[n-]c(=O)[n-]c2=O)cc(C)n1CCCN1CCN(C)CC1 (nonaromatic ring conformer: 103.2588978877298 kcal/mol)

>  <smiles>  (16) 
C=c1c(=Cc2c(O)[nH]c(=O)[nH]c2=O)cc(C)n1CCCN1CCN(C)CC1

>  <score_type>  (16) 
oracle

>  <origin>  (16) 
adg

>  <m_score__min__energy>  (16) 
-13.27

>  <m_primary>  (16) 
energy

$$$$
16:0
     RDKit          3D

 61 65  0  0  0  0  0  0  0  0999 V2000
   60.9440   22.2140   44.8690 H   0  0  0  0  0  0  0  0  0  0  0  0
   60.1680   22.2980   45.5140 O   0  0  0  0  0  0  0  0  0  0  0  0
   58.8660   21.9960   45.1230 C   0  0  0  0  0  0  0  0  0  0  0  0
   58.5600   21.8960   43.7620 C   0  0  0  0  0  0  0  0  0  0  0  0
   59.3458   22.0570   43.0092 H   0  0  0  0  0  0  0  0  0  0  0  0
   57.2580   21.5920   43.3570 C   0  0  0  0  0  0  0  0  0  0  0  0
   57.0210   21.5115   42.2858 H   0  0  0  0  0  0  0  0  0  0  0  0
   56.2560   21.3900   44.3100 C   0  0  0  0  0  0  0  0  0  0  0  0
   55.2321   21.1529   43.9852 H   0  0  0  0  0  0  0  0  0  0  0  0
   56.5490   21.4880   45.6810 C   0  0  0  0  0  0  0  0  0  0  0  0
   55.4590   21.2630   46.6990 C   0  0  0  0  0  0  0  0  0  0  0  0
   55.7187   21.7928   47.6274 H   0  0  0  0  0  0  0  0  0  0  0  0
   55.3698   20.1824   46.8844 H   0  0  0  0  0  0  0  0  0  0  0  0
   54.1340   21.7750   46.1930 C   0  0  0  0  0  0  0  0  0  0  0  0
   53.2160   20.9380   45.9790 O   0  0  0  0  0  0  0  0  0  0  0  0
   53.8880   23.1520   45.8510 N   0  0  0  0  0  0  0  0  0  0  0  0
   54.6540   24.1850   46.0440 C   0  0  0  0  0  0  0  0  0  0  0  0
   54.3720   25.3910   45.5000 N   0  0  0  0  0  0  0  0  0  0  0  0
   55.3770   26.1630   45.9430 C   0  0  0  0  0  0  0  0  0  0  0  0
   55.5210   27.5070   45.6190 O   0  0  0  0  0  0  0  0  0  0  0  0
   56.2220   25.4320   46.7390 C   0  0  0  0  0  0  0  0  0  0  0  0
   57.5020   25.8970   47.3670 C   0  0  0  0  0  0  0  0  0  0  0  0
   57.2936   26.7781   47.9917 H   0  0  0  0  0  0  0  0  0  0  0  0
   57.9073   25.0730   47.9725 H   0  0  0  0  0  0  0  0  0  0  0  0
   58.5320   26.2680   46.3230 C   0  0  0  0  0  0  0  0  0  0  0  0
   59.2450   25.3520   45.8280 O   0  0  0  0  0  0  0  0  0  0  0  0
   58.6560   27.6210   45.8220 N   0  0  0  0  0  0  0  0  0  0  0  0
   57.7540   28.6810   46.3090 C   0  0  0  0  0  0  0  0  0  0  0  0
   56.7140   28.3725   46.1267 H   0  0  0  0  0  0  0  0  0  0  0  0
   57.9475   28.8221   47.3826 H   0  0  0  0  0  0  0  0  0  0  0  0
   58.0020   30.0210   45.6060 C   0  0  0  0  0  0  0  0  0  0  0  0
   57.5916   29.9684   44.5868 H   0  0  0  0  0  0  0  0  0  0  0  0
   57.5087   30.8091   46.1939 H   0  0  0  0  0  0  0  0  0  0  0  0
   59.5020   30.3600   45.5210 C   0  0  0  0  0  0  0  0  0  0  0  0
   59.6160   31.1914   44.8098 H   0  0  0  0  0  0  0  0  0  0  0  0
   60.0050   30.8270   46.8340 N   0  0  0  0  0  0  0  0  0  0  0  0
   60.0120   32.2370   47.1320 C   0  0  0  0  0  0  0  0  0  0  0  0
   60.0980   33.0930   46.2130 O   0  0  0  0  0  0  0  0  0  0  0  0
   59.8800   32.6710   48.4850 N   0  0  0  0  0  0  0  0  0  0  0  0
   59.7180   31.7120   49.5300 C   0  0  0  0  0  0  0  0  0  0  0  0
   59.3610   32.1360   50.8150 C   0  0  0  0  0  0  0  0  0  0  0  0
   59.2267   33.2078   51.0227 H   0  0  0  0  0  0  0  0  0  0  0  0
   59.1750   31.1980   51.8350 C   0  0  0  0  0  0  0  0  0  0  0  0
   58.8892   31.5319   52.8434 H   0  0  0  0  0  0  0  0  0  0  0  0
   59.3520   29.8360   51.5740 C   0  0  0  0  0  0  0  0  0  0  0  0
   59.2024   29.0988   52.3766 H   0  0  0  0  0  0  0  0  0  0  0  0
   59.7190   29.4100   50.2940 C   0  0  0  0  0  0  0  0  0  0  0  0
   59.8721   28.3388   50.0964 H   0  0  0  0  0  0  0  0  0  0  0  0
   59.8930   30.3430   49.2600 C   0  0  0  0  0  0  0  0  0  0  0  0
   60.4000   29.8950   47.9120 C   0  0  0  0  0  0  0  0  0  0  0  0
   59.9872   28.8998   47.6901 H   0  0  0  0  0  0  0  0  0  0  0  0
   61.4989   29.8696   47.9535 H   0  0  0  0  0  0  0  0  0  0  0  0
   60.3500   29.2040   44.9200 C   0  0  0  0  0  0  0  0  0  0  0  0
   60.7566   29.5380   43.9540 H   0  0  0  0  0  0  0  0  0  0  0  0
   61.1387   28.9715   45.6507 H   0  0  0  0  0  0  0  0  0  0  0  0
   59.5570   27.9090   44.6900 C   0  0  0  0  0  0  0  0  0  0  0  0
   58.9578   28.0143   43.7735 H   0  0  0  0  0  0  0  0  0  0  0  0
   60.2714   27.0778   44.5961 H   0  0  0  0  0  0  0  0  0  0  0  0
   55.7690   24.1690   46.8070 N   0  0  0  0  0  0  0  0  0  0  0  0
   57.8630   21.7910   46.0800 C   0  0  0  0  0  0  0  0  0  0  0  0
   58.1051   21.8676   47.1503 H   0  0  0  0  0  0  0  0  0  0  0  0
  1  2  1  0
  2  3  1  0
  3  4  2  0
  4  5  1  0
  4  6  1  0
  6  7  1  0
  6  8  2  0
  8  9  1  0
  8 10  1  0
 10 11  1  0
 11 12  1  0
 11 13  1  0
 11 14  1  0
 14 15  2  0
 14 16  1  0
 16 17  2  0
 17 18  1  0
 18 19  1  0
 19 20  1  0
 19 21  2  0
 21 22  1  0
 22 23  1  0
 22 24  1  0
 22 25  1  0
 25 26  2  0
 25 27  1  0
 27 28  1  0
 28 29  1  0
 28 30  1  0
 28 31  1  0
 31 32  1  0
 31 33  1  0
 31 34  1  0
 34 35  1  0
 34 36  1  0
 36 37  1  0
 37 38  2  0
 37 39  1  0
 39 40  1  0
 40 41  2  0
 41 42  1  0
 41 43  1  0
 43 44  1  0
 43 45  2  0
 45 46  1  0
 45 47  1  0
 47 48  1  0
 47 49  2  0
 49 50  1  0
 50 51  1  0
 50 52  1  0
 34 53  1  0
 53 54  1  0
 53 55  1  0
 53 56  1  0
 56 57  1  0
 56 58  1  0
 21 59  1  0
 10 60  2  0
 60 61  1  0
 60  3  1  0
 59 17  1  0
 56 27  1  0
 50 36  1  0
 49 40  1  0
M  CHG  4  18  -1  20  -1  39  -1  59  -1
M  END
>  <UniqueID>  (17) 
16

>  <SMILES>  (17) 
O=C(Cc1cccc(O)c1)/N=c1/[n-]c([O-])c(CC(=O)N2CCC(N3Cc4ccccc4[N-]C3=O)CC2)[n-]1

>  <Energy>  (17) 
100.84632892409715

>  <Genealogy>  (17) 
O=C(Cc1cccc(O)c1)N=c1[n-]c([O-])c(CC(=O)N2CCC(N3Cc4ccccc4[N-]C3=O)CC2)[n-]1 (protonated)
O=C(Cc1cccc(O)c1)/N=c1/[n-]c([O-])c(CC(=O)N2CCC(N3Cc4ccccc4[N-]C3=O)CC2)[n-]1 (cis-trans isomerization)
O=C(Cc1cccc(O)c1)/N=c1/[n-]c([O-])c(CC(=O)N2CCC(N3Cc4ccccc4[N-]C3=O)CC2)[n-]1 (3D coordinates assigned)
O=C(Cc1cccc(O)c1)/N=c1/[n-]c([O-])c(CC(=O)N2CCC(N3Cc4ccccc4[N-]C3=O)CC2)[n-]1 (nonaromatic ring conformer: 100.84632892409715 kcal/mol)

>  <smiles>  (17) 
O=C(Cc1cccc(O)c1)N=c1[nH]c(O)c(CC(=O)N2CCC(N3Cc4ccccc4NC3=O)CC2)[nH]1

>  <score_type>  (17) 
oracle

>  <origin>  (17) 
adg

>  <m_score__min__energy>  (17) 
-17.559999999999999

>  <m_primary>  (17) 
energy

$$$$
17:0
     RDKit          3D

 45 48  0  0  0  0  0  0  0  0999 V2000
   54.0470   24.5008   46.0670 H   0  0  0  0  0  0  0  0  0  0  0  0
   55.0390   24.9000   45.8090 C   0  0  0  0  0  0  0  0  0  0  0  0
   55.3100   26.2190   45.9930 N   0  0  0  0  0  0  0  0  0  0  0  0
   56.5220   26.7620   45.6810 C   0  0  0  0  0  0  0  0  0  0  0  0
   56.7610   28.0300   45.8670 N   0  0  0  0  0  0  0  0  0  0  0  0
   56.2470   29.1350   45.1040 C   0  0  0  0  0  0  0  0  0  0  0  0
   55.1430   29.0410   44.4990 O   0  0  0  0  0  0  0  0  0  0  0  0
   57.0210   30.3960   45.0250 C   0  0  0  0  0  0  0  0  0  0  0  0
   56.9950   31.1860   43.8640 C   0  0  0  0  0  0  0  0  0  0  0  0
   56.3934   30.8701   42.9990 H   0  0  0  0  0  0  0  0  0  0  0  0
   57.7300   32.3700   43.8050 C   0  0  0  0  0  0  0  0  0  0  0  0
   57.7115   32.9891   42.8960 H   0  0  0  0  0  0  0  0  0  0  0  0
   58.4890   32.7630   44.9080 C   0  0  0  0  0  0  0  0  0  0  0  0
   59.4140   34.2530   44.8470 Cl  0  0  0  0  0  0  0  0  0  0  0  0
   58.5090   31.9930   46.0300 N   0  0  0  0  0  0  0  0  0  0  0  0
   59.0810   32.2950   46.8510 H   0  0  0  0  0  0  0  0  0  0  0  0
   57.8020   30.8330   46.1110 C   0  0  0  0  0  0  0  0  0  0  0  0
   57.8413   30.2327   47.0319 H   0  0  0  0  0  0  0  0  0  0  0  0
   57.5290   25.9460   45.1410 C   0  0  0  0  0  0  0  0  0  0  0  0
   58.7810   26.5050   44.8370 O   0  0  0  0  0  0  0  0  0  0  0  0
   59.4210   27.5160   45.5680 C   0  0  0  0  0  0  0  0  0  0  0  0
   60.0510   28.6050   44.9380 C   0  0  0  0  0  0  0  0  0  0  0  0
   60.0643   28.6705   43.8400 H   0  0  0  0  0  0  0  0  0  0  0  0
   60.6600   29.6040   45.7030 C   0  0  0  0  0  0  0  0  0  0  0  0
   61.1777   30.4360   45.2033 H   0  0  0  0  0  0  0  0  0  0  0  0
   60.6150   29.5520   47.1010 C   0  0  0  0  0  0  0  0  0  0  0  0
   61.2900   30.5650   47.8630 N   0  0  0  0  0  0  0  0  0  0  0  0
   60.9450   31.8150   48.0030 C   0  0  0  0  0  0  0  0  0  0  0  0
   59.7300   32.0920   48.5500 N   0  0  0  0  0  0  0  0  0  0  0  0
   59.2930   33.3650   48.7450 C   0  0  0  0  0  0  0  0  0  0  0  0
   58.3006   33.5446   49.1843 H   0  0  0  0  0  0  0  0  0  0  0  0
   60.1030   34.4430   48.3880 C   0  0  0  0  0  0  0  0  0  0  0  0
   59.7517   35.4749   48.5356 H   0  0  0  0  0  0  0  0  0  0  0  0
   61.3630   34.1990   47.8420 C   0  0  0  0  0  0  0  0  0  0  0  0
   62.0145   35.0400   47.5623 H   0  0  0  0  0  0  0  0  0  0  0  0
   61.7960   32.8850   47.6510 C   0  0  0  0  0  0  0  0  0  0  0  0
   62.7923   32.6854   47.2296 H   0  0  0  0  0  0  0  0  0  0  0  0
   59.9990   28.4580   47.7300 C   0  0  0  0  0  0  0  0  0  0  0  0
   59.9950   28.3878   48.8278 H   0  0  0  0  0  0  0  0  0  0  0  0
   59.3910   27.4580   46.9660 C   0  0  0  0  0  0  0  0  0  0  0  0
   58.8853   26.6194   47.4671 H   0  0  0  0  0  0  0  0  0  0  0  0
   57.2690   24.5750   44.9650 C   0  0  0  0  0  0  0  0  0  0  0  0
   58.0533   23.9138   44.5679 H   0  0  0  0  0  0  0  0  0  0  0  0
   56.0190   24.0530   45.2930 C   0  0  0  0  0  0  0  0  0  0  0  0
   55.8077   22.9835   45.1462 H   0  0  0  0  0  0  0  0  0  0  0  0
  1  2  1  0
  2  3  1  0
  3  4  1  0
  4  5  2  3
  5  6  1  0
  6  7  2  0
  6  8  1  0
  8  9  2  0
  9 10  1  0
  9 11  1  0
 11 12  1  0
 11 13  2  0
 13 14  1  0
 13 15  1  0
 15 16  1  0
 15 17  2  0
 17 18  1  0
  4 19  1  0
 19 20  1  0
 20 21  1  0
 21 22  2  0
 22 23  1  0
 22 24  1  0
 24 25  1  0
 24 26  2  0
 26 27  1  0
 27 28  2  0
 28 29  1  0
 29 30  1  0
 30 31  1  0
 30 32  2  0
 32 33  1  0
 32 34  1  0
 34 35  1  0
 34 36  2  0
 36 37  1  0
 26 38  1  0
 38 39  1  0
 38 40  2  0
 40 41  1  0
 19 42  2  0
 42 43  1  0
 42 44  1  0
 44 45  1  0
 44  2  2  0
 17  8  1  0
 40 21  1  0
 36 28  1  0
M  CHG  3   3  -1  15   1  29  -1
M  END
>  <UniqueID>  (18) 
17

>  <SMILES>  (18) 
O=C(N=c1[n-]cccc1Oc1ccc(/N=c2\cccc[n-]2)cc1)c1ccc(Cl)[nH+]c1

>  <Energy>  (18) 
71.23687004479169

>  <Genealogy>  (18) 
O=C(N=c1[n-]cccc1Oc1ccc(N=c2cccc[n-]2)cc1)c1ccc(Cl)[nH+]c1 (protonated)
O=C(N=c1[n-]cccc1Oc1ccc(/N=c2\cccc[n-]2)cc1)c1ccc(Cl)[nH+]c1 (cis-trans isomerization)
O=C(N=c1[n-]cccc1Oc1ccc(/N=c2\cccc[n-]2)cc1)c1ccc(Cl)[nH+]c1 (3D coordinates assigned)
O=C(N=c1[n-]cccc1Oc1ccc(/N=c2\cccc[n-]2)cc1)c1ccc(Cl)[nH+]c1 (optimized conformer: 71.23687004479169 kcal/mol)

>  <smiles>  (18) 
O=C(N=c1[nH]cccc1Oc1ccc(N=c2cccc[nH]2)cc1)c1ccc(Cl)nc1

>  <score_type>  (18) 
oracle

>  <origin>  (18) 
adg

>  <m_score__min__energy>  (18) 
-9.6899999999999995

>  <m_primary>  (18) 
energy

$$$$
18:0
     RDKit          3D

 45 48  0  0  0  0  0  0  0  0999 V2000
   56.2170   30.7680   44.7300 O   0  0  0  0  0  0  0  0  0  0  0  0
   57.3440   30.3740   45.1330 C   0  0  0  0  0  0  0  0  0  0  0  0
   57.4740   29.0700   45.8200 C   0  0  0  0  0  0  0  0  0  0  0  0
   57.3060   27.9060   45.1820 C   0  0  0  0  0  0  0  0  0  0  0  0
   57.2080   26.6100   45.8990 C   0  0  0  0  0  0  0  0  0  0  0  0
   55.9720   26.0550   46.2920 C   0  0  0  0  0  0  0  0  0  0  0  0
   54.7710   26.6930   46.0010 O   0  0  0  0  0  0  0  0  0  0  0  0
   55.9410   24.8630   46.9410 N   0  0  0  0  0  0  0  0  0  0  0  0
   57.0810   24.1760   47.2060 C   0  0  0  0  0  0  0  0  0  0  0  0
   57.0250   23.0750   47.8110 O   0  0  0  0  0  0  0  0  0  0  0  0
   58.2800   24.6740   46.8130 N   0  0  0  0  0  0  0  0  0  0  0  0
   58.3700   25.8630   46.1640 C   0  0  0  0  0  0  0  0  0  0  0  0
   59.5030   26.2920   45.8160 O   0  0  0  0  0  0  0  0  0  0  0  0
   58.4880   31.2030   44.8950 N   0  0  0  0  0  0  0  0  0  0  0  0
   58.8860   32.3110   45.7190 C   0  0  0  0  0  0  0  0  0  0  0  0
   58.1340   33.5020   45.6690 C   0  0  0  0  0  0  0  0  0  0  0  0
   56.9980   33.6110   44.8660 O   0  0  0  0  0  0  0  0  0  0  0  0
   58.5300   34.6120   46.4220 C   0  0  0  0  0  0  0  0  0  0  0  0
   59.6660   34.5540   47.2280 C   0  0  0  0  0  0  0  0  0  0  0  0
   60.4060   33.3710   47.3140 C   0  0  0  0  0  0  0  0  0  0  0  0
   61.4990   33.3210   48.1210 N   0  0  0  0  0  0  0  0  0  0  0  0
   62.2460   32.1930   48.2680 C   0  0  0  0  0  0  0  0  0  0  0  0
   63.4010   32.2140   49.1300 N   0  0  0  0  0  0  0  0  0  0  0  0
   63.5980   31.3330   50.2700 C   0  0  0  0  0  0  0  0  0  0  0  0
   64.8700   31.8180   50.9510 C   0  0  0  0  0  0  0  0  0  0  0  0
   65.5770   32.7070   49.9340 C   0  0  0  0  0  0  0  0  0  0  0  0
   64.5090   33.1340   48.9380 C   0  0  0  0  0  0  0  0  0  0  0  0
   61.8710   31.0280   47.5780 C   0  0  0  0  0  0  0  0  0  0  0  0
   60.7520   31.0490   46.7450 C   0  0  0  0  0  0  0  0  0  0  0  0
   60.0120   32.2320   46.5760 C   0  0  0  0  0  0  0  0  0  0  0  0
   57.7172   29.0571   46.8927 H   0  0  0  0  0  0  0  0  0  0  0  0
   57.2379   27.9096   44.0841 H   0  0  0  0  0  0  0  0  0  0  0  0
   56.6420   32.8360   44.3200 H   0  0  0  0  0  0  0  0  0  0  0  0
   57.9398   35.5392   46.3779 H   0  0  0  0  0  0  0  0  0  0  0  0
   59.9808   35.4409   47.7975 H   0  0  0  0  0  0  0  0  0  0  0  0
   62.7438   31.4015   50.9597 H   0  0  0  0  0  0  0  0  0  0  0  0
   63.6794   30.2806   49.9603 H   0  0  0  0  0  0  0  0  0  0  0  0
   64.6239   32.3930   51.8559 H   0  0  0  0  0  0  0  0  0  0  0  0
   65.5065   30.9768   51.2629 H   0  0  0  0  0  0  0  0  0  0  0  0
   66.0100   33.5874   50.4313 H   0  0  0  0  0  0  0  0  0  0  0  0
   66.4019   32.1749   49.4376 H   0  0  0  0  0  0  0  0  0  0  0  0
   64.1887   34.1671   49.1386 H   0  0  0  0  0  0  0  0  0  0  0  0
   64.8842   33.1070   47.9043 H   0  0  0  0  0  0  0  0  0  0  0  0
   62.4566   30.1041   47.6939 H   0  0  0  0  0  0  0  0  0  0  0  0
   60.4468   30.1336   46.2169 H   0  0  0  0  0  0  0  0  0  0  0  0
  1  2  2  0
  2  3  1  0
  3  4  2  3
  4  5  1  0
  5  6  2  0
  6  7  1  0
  6  8  1  0
  8  9  1  0
  9 10  2  0
  9 11  1  0
 11 12  1  0
 12 13  2  0
  2 14  1  0
 14 15  1  0
 15 16  2  0
 16 17  1  0
 16 18  1  0
 18 19  2  0
 19 20  1  0
 20 21  2  0
 21 22  1  0
 22 23  1  0
 23 24  1  0
 24 25  1  0
 25 26  1  0
 26 27  1  0
 22 28  2  0
 28 29  1  0
 29 30  2  0
 12  5  1  0
 30 15  1  0
 30 20  1  0
 27 23  1  0
  3 31  1  0
  4 32  1  0
 17 33  1  0
 18 34  1  0
 19 35  1  0
 24 36  1  0
 24 37  1  0
 25 38  1  0
 25 39  1  0
 26 40  1  0
 26 41  1  0
 27 42  1  0
 27 43  1  0
 28 44  1  0
 29 45  1  0
M  CHG  4   7  -1   8  -1  11  -1  14  -1
M  END
>  <UniqueID>  (19) 
18

>  <SMILES>  (19) 
O=C(C=Cc1c([O-])[n-]c(=O)[n-]c1=O)[N-]c1c(O)ccc2nc(N3CCCC3)ccc12

>  <Energy>  (19) 
65.25258619581751

>  <Genealogy>  (19) 
O=C(C=Cc1c([O-])[n-]c(=O)[n-]c1=O)[N-]c1c(O)ccc2nc(N3CCCC3)ccc12 (protonated)
O=C(C=Cc1c([O-])[n-]c(=O)[n-]c1=O)[N-]c1c(O)ccc2nc(N3CCCC3)ccc12 (3D coordinates assigned)
O=C(C=Cc1c([O-])[n-]c(=O)[n-]c1=O)[N-]c1c(O)ccc2nc(N3CCCC3)ccc12 (nonaromatic ring conformer: 65.25258619581751 kcal/mol)

>  <smiles>  (19) 
O=C(C=Cc1c(O)[nH]c(=O)[nH]c1=O)Nc1c(O)ccc2nc(N3CCCC3)ccc12

>  <score_type>  (19) 
oracle

>  <origin>  (19) 
adg

>  <m_score__min__energy>  (19) 
-18.100000000000001

>  <m_primary>  (19) 
energy

$$$$
19:0
     RDKit          3D

 62 65  0  0  0  0  0  0  0  0999 V2000
   68.4620   26.8310   49.7430 C   0  0  0  0  0  0  0  0  0  0  0  0
   67.2900   26.4620   50.5930 C   0  0  0  0  0  0  0  0  0  0  0  0
   66.4420   25.6360   50.1610 O   0  0  0  0  0  0  0  0  0  0  0  0
   67.1330   27.0570   51.8880 N   0  0  0  0  0  0  0  0  0  0  0  0
   65.9960   26.7420   52.7650 C   0  0  1  0  0  0  0  0  0  0  0  0
   65.9140   27.7200   53.9430 C   0  0  0  0  0  0  0  0  0  0  0  0
   65.6100   29.1590   53.4970 C   0  0  0  0  0  0  0  0  0  0  0  0
   64.8950   29.2520   52.1360 C   0  0  0  0  0  0  0  0  0  0  0  0
   64.0480   28.0810   51.8310 N   0  0  0  0  0  0  0  0  0  0  0  0
   62.6250   28.1850   52.2220 C   0  0  0  0  0  0  0  0  0  0  0  0
   61.6890   28.3570   51.0480 C   0  0  0  0  0  0  0  0  0  0  0  0
   61.1500   27.2390   50.3900 C   0  0  0  0  0  0  0  0  0  0  0  0
   60.2710   27.4040   49.3170 C   0  0  0  0  0  0  0  0  0  0  0  0
   59.9240   28.6910   48.8700 C   0  0  0  0  0  0  0  0  0  0  0  0
   58.9780   28.8700   47.7400 C   0  0  0  0  0  0  0  0  0  0  0  0
   58.2750   27.7730   47.2220 C   0  0  0  0  0  0  0  0  0  0  0  0
   57.3870   27.9180   46.1430 C   0  0  0  0  0  0  0  0  0  0  0  0
   56.7300   26.6970   45.6090 C   0  0  0  0  0  0  0  0  0  0  0  0
   55.4070   26.3570   46.0220 N   0  0  0  0  0  0  0  0  0  0  0  0
   57.3420   25.9300   44.8190 O   0  0  0  0  0  0  0  0  0  0  0  0
   57.1650   29.2100   45.5930 C   0  0  0  0  0  0  0  0  0  0  0  0
   56.1280   29.4310   44.5150 C   0  0  0  0  0  0  0  0  0  0  0  0
   57.9090   30.3090   46.0880 C   0  0  0  0  0  0  0  0  0  0  0  0
   57.7870   31.6120   45.4950 N   0  0  0  0  0  0  0  0  0  0  0  0
   58.1680   31.9170   44.1210 C   0  0  0  0  0  0  0  0  0  0  0  0
   58.2590   33.4600   44.0450 C   0  0  0  0  0  0  0  0  0  0  0  0
   58.0500   33.9550   45.4010 N   0  0  0  0  0  0  0  0  0  0  0  0
   57.7790   32.8310   46.2080 C   0  0  0  0  0  0  0  0  0  0  0  0
   57.5510   32.9160   47.4440 O   0  0  0  0  0  0  0  0  0  0  0  0
   58.7960   30.1290   47.1570 C   0  0  0  0  0  0  0  0  0  0  0  0
   60.4880   29.8080   49.5100 C   0  0  0  0  0  0  0  0  0  0  0  0
   61.3680   29.6420   50.5820 C   0  0  0  0  0  0  0  0  0  0  0  0
   64.6660   26.7420   51.9780 C   0  0  0  0  0  0  0  0  0  0  0  0
   69.3124   27.0987   50.3873 H   0  0  0  0  0  0  0  0  0  0  0  0
   68.7380   25.9763   49.1079 H   0  0  0  0  0  0  0  0  0  0  0  0
   68.1985   27.6896   49.1079 H   0  0  0  0  0  0  0  0  0  0  0  0
   67.9050   27.6710   52.2380 H   0  0  0  0  0  0  0  0  0  0  0  0
   66.1629   25.7311   53.1654 H   0  0  0  0  0  0  0  0  0  0  0  0
   65.1165   27.3861   54.6231 H   0  0  0  0  0  0  0  0  0  0  0  0
   66.8953   27.7257   54.4399 H   0  0  0  0  0  0  0  0  0  0  0  0
   64.9696   29.6295   54.2576 H   0  0  0  0  0  0  0  0  0  0  0  0
   66.5776   29.6701   53.3852 H   0  0  0  0  0  0  0  0  0  0  0  0
   64.2594   30.1497   52.1379 H   0  0  0  0  0  0  0  0  0  0  0  0
   65.6769   29.2942   51.3634 H   0  0  0  0  0  0  0  0  0  0  0  0
   62.3437   27.2678   52.7602 H   0  0  0  0  0  0  0  0  0  0  0  0
   62.5263   29.0833   52.8492 H   0  0  0  0  0  0  0  0  0  0  0  0
   61.4221   26.2263   50.7221 H   0  0  0  0  0  0  0  0  0  0  0  0
   59.8470   26.5202   48.8179 H   0  0  0  0  0  0  0  0  0  0  0  0
   58.4217   26.7789   47.6694 H   0  0  0  0  0  0  0  0  0  0  0  0
   54.7720   27.0760   46.4320 H   0  0  0  0  0  0  0  0  0  0  0  0
   55.1534   29.6387   44.9808 H   0  0  0  0  0  0  0  0  0  0  0  0
   56.4253   30.2860   43.8900 H   0  0  0  0  0  0  0  0  0  0  0  0
   56.0509   28.5291   43.8900 H   0  0  0  0  0  0  0  0  0  0  0  0
   59.1413   31.4631   43.8830 H   0  0  0  0  0  0  0  0  0  0  0  0
   57.4405   31.5169   43.3994 H   0  0  0  0  0  0  0  0  0  0  0  0
   59.2502   33.7645   43.6780 H   0  0  0  0  0  0  0  0  0  0  0  0
   57.5086   33.8689   43.3524 H   0  0  0  0  0  0  0  0  0  0  0  0
   59.3586   30.9912   47.5445 H   0  0  0  0  0  0  0  0  0  0  0  0
   60.2344   30.8209   49.1640 H   0  0  0  0  0  0  0  0  0  0  0  0
   61.8129   30.5246   51.0648 H   0  0  0  0  0  0  0  0  0  0  0  0
   63.9538   26.0890   52.5038 H   0  0  0  0  0  0  0  0  0  0  0  0
   64.8989   26.3878   50.9630 H   0  0  0  0  0  0  0  0  0  0  0  0
  1  2  1  0
  2  3  2  0
  2  4  1  0
  4  5  1  0
  5  6  1  0
  6  7  1  0
  7  8  1  0
  8  9  1  0
  9 10  1  0
 10 11  1  0
 11 12  2  0
 12 13  1  0
 13 14  2  0
 14 15  1  0
 15 16  2  0
 16 17  1  0
 17 18  1  0
 18 19  1  0
 18 20  2  0
 17 21  2  0
 21 22  1  0
 21 23  1  0
 23 24  1  0
 24 25  1  0
 25 26  1  0
 26 27  1  0
 27 28  1  0
 28 29  2  0
 23 30  2  0
 14 31  1  0
 31 32  2  0
  9 33  1  0
 33  5  1  0
 32 11  1  0
 30 15  1  0
 28 24  1  0
  1 34  1  0
  1 35  1  0
  1 36  1  0
  4 37  1  0
  5 38  1  1
  6 39  1  0
  6 40  1  0
  7 41  1  0
  7 42  1  0
  8 43  1  0
  8 44  1  0
 10 45  1  0
 10 46  1  0
 12 47  1  0
 13 48  1  0
 16 49  1  0
 19 50  1  0
 22 51  1  0
 22 52  1  0
 22 53  1  0
 25 54  1  0
 25 55  1  0
 26 56  1  0
 26 57  1  0
 30 58  1  0
 31 59  1  0
 32 60  1  0
 33 61  1  0
 33 62  1  0
M  CHG  2  19  -1  27  -1
M  END
>  <UniqueID>  (20) 
19

>  <SMILES>  (20) 
CC(=O)N[C@H]1CCCN(Cc2ccc(-c3cc(C([NH-])=O)c(C)c(N4CC[N-]C4=O)c3)cc2)C1

>  <Energy>  (20) 
104.20962640551716

>  <Genealogy>  (20) 
CC(=O)NC1CCCN(Cc2ccc(-c3cc(C([NH-])=O)c(C)c(N4CC[N-]C4=O)c3)cc2)C1 (protonated)
CC(=O)N[C@H]1CCCN(Cc2ccc(-c3cc(C([NH-])=O)c(C)c(N4CC[N-]C4=O)c3)cc2)C1 (chirality)
CC(=O)N[C@H]1CCCN(Cc2ccc(-c3cc(C([NH-])=O)c(C)c(N4CC[N-]C4=O)c3)cc2)C1 (3D coordinates assigned)
CC(=O)N[C@H]1CCCN(Cc2ccc(-c3cc(C([NH-])=O)c(C)c(N4CC[N-]C4=O)c3)cc2)C1 (nonaromatic ring conformer: 104.20962640551716 kcal/mol)

>  <smiles>  (20) 
CC(=O)NC1CCCN(Cc2ccc(-c3cc(C(N)=O)c(C)c(N4CCNC4=O)c3)cc2)C1

>  <score_type>  (20) 
oracle

>  <origin>  (20) 
adg

>  <m_score__min__energy>  (20) 
-12.01

>  <m_primary>  (20) 
energy

$$$$
20:0
     RDKit          3D

 40 42  0  0  0  0  0  0  0  0999 V2000
   54.0920   26.3300   46.3900 H   0  0  0  0  0  0  0  0  0  0  0  0
   55.0250   26.3400   45.9990 O   0  0  0  0  0  0  0  0  0  0  0  0
   55.9680   25.3670   46.3220 C   0  0  0  0  0  0  0  0  0  0  0  0
   55.8040   24.4910   47.3280 N   0  0  0  0  0  0  0  0  0  0  0  0
   56.9350   23.7600   47.2750 C   0  0  0  0  0  0  0  0  0  0  0  0
   57.1700   22.8150   48.0730 O   0  0  0  0  0  0  0  0  0  0  0  0
   57.7980   24.1210   46.3030 N   0  0  0  0  0  0  0  0  0  0  0  0
   57.1730   25.1420   45.6870 C   0  0  0  0  0  0  0  0  0  0  0  0
   57.7430   25.9450   44.5830 C   0  0  0  0  0  0  0  0  0  0  0  0
   57.9716   25.4246   43.6412 H   0  0  0  0  0  0  0  0  0  0  0  0
   58.0040   27.2690   44.6440 C   0  0  0  0  0  0  0  0  0  0  0  0
   57.4120   28.2700   43.8830 C   0  0  0  0  0  0  0  0  0  0  0  0
   56.6562   28.1354   43.0952 H   0  0  0  0  0  0  0  0  0  0  0  0
   57.9560   29.4660   44.3070 C   0  0  0  0  0  0  0  0  0  0  0  0
   57.5830   30.8090   43.7560 C   0  0  0  0  0  0  0  0  0  0  0  0
   57.3897   31.5049   44.5857 H   0  0  0  0  0  0  0  0  0  0  0  0
   58.4082   31.1942   43.1390 H   0  0  0  0  0  0  0  0  0  0  0  0
   56.6774   30.7135   43.1390 H   0  0  0  0  0  0  0  0  0  0  0  0
   58.8690   29.2540   45.2830 N   0  0  0  0  0  0  0  0  0  0  0  0
   59.6160   30.2990   45.9980 C   0  0  0  0  0  0  0  0  0  0  0  0
   60.3091   29.8270   46.7099 H   0  0  0  0  0  0  0  0  0  0  0  0
   60.1775   30.9005   45.2680 H   0  0  0  0  0  0  0  0  0  0  0  0
   58.6530   31.2130   46.7610 C   0  0  0  0  0  0  0  0  0  0  0  0
   57.6246   31.0168   46.4234 H   0  0  0  0  0  0  0  0  0  0  0  0
   58.7463   31.0065   47.8374 H   0  0  0  0  0  0  0  0  0  0  0  0
   58.9870   32.6590   46.5140 C   0  0  0  0  0  0  0  0  0  0  0  0
   58.3680   33.3590   45.4660 C   0  0  0  0  0  0  0  0  0  0  0  0
   57.6168   32.8563   44.8391 H   0  0  0  0  0  0  0  0  0  0  0  0
   58.7040   34.6940   45.2170 C   0  0  0  0  0  0  0  0  0  0  0  0
   58.2103   35.2415   44.4006 H   0  0  0  0  0  0  0  0  0  0  0  0
   59.6660   35.3330   46.0040 C   0  0  0  0  0  0  0  0  0  0  0  0
   59.9920   36.6270   45.7600 F   0  0  0  0  0  0  0  0  0  0  0  0
   60.2960   34.6380   47.0400 C   0  0  0  0  0  0  0  0  0  0  0  0
   61.0542   35.1413   47.6579 H   0  0  0  0  0  0  0  0  0  0  0  0
   59.9630   33.3020   47.2920 C   0  0  0  0  0  0  0  0  0  0  0  0
   60.4673   32.7544   48.1018 H   0  0  0  0  0  0  0  0  0  0  0  0
   58.8930   27.9150   45.5130 C   0  0  0  0  0  0  0  0  0  0  0  0
   59.6600   27.3270   46.4460 C   0  0  0  0  0  0  0  0  0  0  0  0
   60.3248   27.9366   47.0756 H   0  0  0  0  0  0  0  0  0  0  0  0
   59.6233   26.2359   46.5804 H   0  0  0  0  0  0  0  0  0  0  0  0
  1  2  1  0
  2  3  1  0
  3  4  1  0
  4  5  1  0
  5  6  2  0
  5  7  1  0
  7  8  1  0
  8  9  1  0
  9 10  1  0
  9 11  2  0
 11 12  1  0
 12 13  1  0
 12 14  2  0
 14 15  1  0
 15 16  1  0
 15 17  1  0
 15 18  1  0
 14 19  1  0
 19 20  1  0
 20 21  1  0
 20 22  1  0
 20 23  1  0
 23 24  1  0
 23 25  1  0
 23 26  1  0
 26 27  2  0
 27 28  1  0
 27 29  1  0
 29 30  1  0
 29 31  2  0
 31 32  1  0
 31 33  1  0
 33 34  1  0
 33 35  2  0
 35 36  1  0
 19 37  1  0
 37 38  2  0
 38 39  1  0
 38 40  1  0
  8  3  2  0
 37 11  1  0
 35 26  1  0
M  CHG  2   4  -1   7  -1
M  END
>  <UniqueID>  (21) 
20

>  <SMILES>  (21) 
C=c1/c(=C/c2[n-]c(=O)[n-]c2O)cc(C)n1CCc1ccc(F)cc1

>  <Energy>  (21) 
100.53817625285399

>  <Genealogy>  (21) 
C=c1c(=Cc2[n-]c(=O)[n-]c2O)cc(C)n1CCc1ccc(F)cc1 (protonated)
C=c1/c(=C/c2[n-]c(=O)[n-]c2O)cc(C)n1CCc1ccc(F)cc1 (cis-trans isomerization)
C=c1/c(=C/c2[n-]c(=O)[n-]c2O)cc(C)n1CCc1ccc(F)cc1 (3D coordinates assigned)
C=c1/c(=C/c2[n-]c(=O)[n-]c2O)cc(C)n1CCc1ccc(F)cc1 (optimized conformer: 100.53817625285399 kcal/mol)

>  <smiles>  (21) 
C=c1c(=Cc2[nH]c(=O)[nH]c2O)cc(C)n1CCc1ccc(F)cc1

>  <score_type>  (21) 
oracle

>  <origin>  (21) 
adg

>  <m_score__min__energy>  (21) 
-12.529999999999999

>  <m_primary>  (21) 
energy

$$$$
21:0
     RDKit          3D

 56 59  0  0  0  0  0  0  0  0999 V2000
   55.0850   22.6900   48.2540 C   0  0  0  0  0  0  0  0  0  0  0  0
   56.8550   22.8990   48.6160 S   0  0  0  0  0  0  0  0  0  0  0  0
   57.2040   23.7120   47.0560 C   0  0  0  0  0  0  0  0  0  0  0  0
   57.8220   23.0100   46.0160 C   0  0  0  0  0  0  0  0  0  0  0  0
   58.0940   23.6490   44.8040 C   0  0  0  0  0  0  0  0  0  0  0  0
   57.7620   24.9970   44.6320 C   0  0  0  0  0  0  0  0  0  0  0  0
   57.1690   25.7190   45.6780 C   0  0  0  0  0  0  0  0  0  0  0  0
   56.8300   27.1020   45.4860 N   0  0  0  0  0  0  0  0  0  0  0  0
   57.6110   28.1790   46.0230 C   0  0  0  0  0  0  0  0  0  0  0  0
   58.9860   27.9790   46.9680 S   0  0  0  0  0  0  0  0  0  0  0  0
   59.3740   29.6110   47.0750 C   0  0  0  0  0  0  0  0  0  0  0  0
   60.5710   30.1440   47.7540 C   0  0  0  0  0  0  0  0  0  0  0  0
   61.5090   30.8790   47.1140 N   0  0  0  0  0  0  0  0  0  0  0  0
   62.4080   31.2090   48.0270 N   0  0  0  0  0  0  0  0  0  0  0  0
   63.5460   32.0880   47.7800 C   0  0  0  0  0  0  0  0  0  0  0  0
   63.0720   33.4960   47.6130 C   0  0  0  0  0  0  0  0  0  0  0  0
   63.3370   34.1330   46.5590 O   0  0  0  0  0  0  0  0  0  0  0  0
   62.2890   34.0880   48.5960 O   0  0  0  0  0  0  0  0  0  0  0  0
   62.0040   30.7020   49.2040 C   0  0  0  0  0  0  0  0  0  0  0  0
   62.6090   30.8790   50.2970 O   0  0  0  0  0  0  0  0  0  0  0  0
   60.8580   30.0080   49.0750 N   0  0  0  0  0  0  0  0  0  0  0  0
   60.0600   29.4050   50.1490 C   0  0  0  0  0  0  0  0  0  0  0  0
   59.1300   30.4180   50.7680 C   0  0  0  0  0  0  0  0  0  0  0  0
   59.3960   31.7940   50.6480 C   0  0  0  0  0  0  0  0  0  0  0  0
   58.5290   32.7300   51.2200 C   0  0  0  0  0  0  0  0  0  0  0  0
   57.3980   32.3040   51.9230 C   0  0  0  0  0  0  0  0  0  0  0  0
   57.1410   30.9380   52.0670 C   0  0  0  0  0  0  0  0  0  0  0  0
   58.0080   29.9980   51.5020 C   0  0  0  0  0  0  0  0  0  0  0  0
   58.4270   30.3470   46.3470 C   0  0  0  0  0  0  0  0  0  0  0  0
   58.4340   31.8520   46.2740 C   0  0  0  0  0  0  0  0  0  0  0  0
   57.4470   29.5330   45.7240 C   0  0  0  0  0  0  0  0  0  0  0  0
   56.3590   30.0420   44.8610 C   0  0  0  0  0  0  0  0  0  0  0  0
   55.1450   29.3130   44.7230 N   0  0  0  0  0  0  0  0  0  0  0  0
   56.4900   31.1420   44.2640 O   0  0  0  0  0  0  0  0  0  0  0  0
   56.8730   25.0610   46.8850 C   0  0  0  0  0  0  0  0  0  0  0  0
   54.5231   22.6237   49.1974 H   0  0  0  0  0  0  0  0  0  0  0  0
   54.7253   23.5519   47.6728 H   0  0  0  0  0  0  0  0  0  0  0  0
   54.9360   21.7680   47.6728 H   0  0  0  0  0  0  0  0  0  0  0  0
   58.0943   21.9530   46.1527 H   0  0  0  0  0  0  0  0  0  0  0  0
   58.5699   23.0915   43.9838 H   0  0  0  0  0  0  0  0  0  0  0  0
   57.9670   25.4930   43.6718 H   0  0  0  0  0  0  0  0  0  0  0  0
   56.0040   27.3340   44.8920 H   0  0  0  0  0  0  0  0  0  0  0  0
   64.2399   32.0350   48.6318 H   0  0  0  0  0  0  0  0  0  0  0  0
   64.0603   31.7668   46.8622 H   0  0  0  0  0  0  0  0  0  0  0  0
   59.4654   28.5779   49.7339 H   0  0  0  0  0  0  0  0  0  0  0  0
   60.7438   29.0364   50.9278 H   0  0  0  0  0  0  0  0  0  0  0  0
   60.2885   32.1346   50.1027 H   0  0  0  0  0  0  0  0  0  0  0  0
   58.7374   33.8051   51.1166 H   0  0  0  0  0  0  0  0  0  0  0  0
   56.7116   33.0430   52.3620 H   0  0  0  0  0  0  0  0  0  0  0  0
   56.2551   30.6018   52.6258 H   0  0  0  0  0  0  0  0  0  0  0  0
   57.8107   28.9238   51.6328 H   0  0  0  0  0  0  0  0  0  0  0  0
   58.4359   32.2685   47.2921 H   0  0  0  0  0  0  0  0  0  0  0  0
   59.3337   32.1889   45.7383 H   0  0  0  0  0  0  0  0  0  0  0  0
   57.5374   32.1973   45.7383 H   0  0  0  0  0  0  0  0  0  0  0  0
   54.4140   29.3420   45.4690 H   0  0  0  0  0  0  0  0  0  0  0  0
   56.3783   25.6100   47.6998 H   0  0  0  0  0  0  0  0  0  0  0  0
  1  2  1  0
  2  3  1  0
  3  4  2  0
  4  5  1  0
  5  6  2  0
  6  7  1  0
  7  8  1  0
  8  9  1  0
  9 10  1  0
 10 11  1  0
 11 12  1  0
 12 13  2  0
 13 14  1  0
 14 15  1  0
 15 16  1  0
 16 17  2  0
 16 18  1  0
 14 19  1  0
 19 20  2  0
 19 21  1  0
 21 22  1  0
 22 23  1  0
 23 24  2  0
 24 25  1  0
 25 26  2  0
 26 27  1  0
 27 28  2  0
 11 29  2  0
 29 30  1  0
 29 31  1  0
 31 32  1  0
 32 33  1  0
 32 34  2  0
  7 35  2  0
 35  3  1  0
 31  9  2  0
 21 12  1  0
 28 23  1  0
  1 36  1  0
  1 37  1  0
  1 38  1  0
  4 39  1  0
  5 40  1  0
  6 41  1  0
  8 42  1  0
 15 43  1  0
 15 44  1  0
 22 45  1  0
 22 46  1  0
 24 47  1  0
 25 48  1  0
 26 49  1  0
 27 50  1  0
 28 51  1  0
 30 52  1  0
 30 53  1  0
 30 54  1  0
 33 55  1  0
 35 56  1  0
M  CHG  2  18  -1  33  -1
M  END
>  <UniqueID>  (22) 
21

>  <SMILES>  (22) 
CSc1cccc(Nc2sc(-c3nn(CC(=O)[O-])c(=O)n3Cc3ccccc3)c(C)c2C([NH-])=O)c1

>  <Energy>  (22) 
125.2060369762092

>  <Genealogy>  (22) 
CSc1cccc(Nc2sc(-c3nn(CC(=O)[O-])c(=O)n3Cc3ccccc3)c(C)c2C([NH-])=O)c1 (protonated)
CSc1cccc(Nc2sc(-c3nn(CC(=O)[O-])c(=O)n3Cc3ccccc3)c(C)c2C([NH-])=O)c1 (3D coordinates assigned)
CSc1cccc(Nc2sc(-c3nn(CC(=O)[O-])c(=O)n3Cc3ccccc3)c(C)c2C([NH-])=O)c1 (optimized conformer: 125.2060369762092 kcal/mol)

>  <smiles>  (22) 
CSc1cccc(Nc2sc(-c3nn(CC(=O)O)c(=O)n3Cc3ccccc3)c(C)c2C(N)=O)c1

>  <score_type>  (22) 
oracle

>  <origin>  (22) 
adg

>  <m_score__min__energy>  (22) 
-12.529999999999999

>  <m_primary>  (22) 
energy

$$$$
22:0
     RDKit          3D

 67 72  0  0  0  0  0  0  0  0999 V2000
   54.9990   28.2400   53.1170 C   0  0  0  0  0  0  0  0  0  0  0  0
   55.1050   29.5440   52.8120 C   0  0  0  0  0  0  0  0  0  0  0  0
   54.1210   30.3820   52.2610 C   0  0  0  0  0  0  0  0  0  0  0  0
   52.8200   30.1640   51.9910 C   0  0  0  0  0  0  0  0  0  0  0  0
   52.0750   30.7160   50.8510 C   0  0  0  0  0  0  0  0  0  0  0  0
   51.8340   30.0470   49.7070 N   0  0  0  0  0  0  0  0  0  0  0  0
   51.0290   30.8860   49.0210 C   0  0  0  0  0  0  0  0  0  0  0  0
   50.5910   30.6150   47.8720 O   0  0  0  0  0  0  0  0  0  0  0  0
   50.7220   32.0330   49.6650 N   0  0  0  0  0  0  0  0  0  0  0  0
   51.3800   31.9040   50.8280 C   0  0  0  0  0  0  0  0  0  0  0  0
   51.3450   32.8590   51.8410 O   0  0  0  0  0  0  0  0  0  0  0  0
   54.7460   31.5910   51.9970 C   0  0  0  0  0  0  0  0  0  0  0  0
   56.0570   31.4660   52.4070 C   0  0  0  0  0  0  0  0  0  0  0  0
   57.0680   32.5710   52.3800 C   0  0  0  0  0  0  0  0  0  0  0  0
   56.2740   30.2280   52.9000 N   0  0  0  0  0  0  0  0  0  0  0  0
   57.5420   29.7060   53.3340 C   0  0  0  0  0  0  0  0  0  0  0  0
   57.6340   29.1080   54.5990 C   0  0  0  0  0  0  0  0  0  0  0  0
   58.8240   28.5050   55.0080 C   0  0  0  0  0  0  0  0  0  0  0  0
   59.9290   28.4890   54.1560 C   0  0  0  0  0  0  0  0  0  0  0  0
   59.8490   29.0810   52.8930 C   0  0  0  0  0  0  0  0  0  0  0  0
   58.6610   29.6980   52.4700 C   0  0  0  0  0  0  0  0  0  0  0  0
   58.6190   30.3340   51.1330 C   0  0  0  0  0  0  0  0  0  0  0  0
   57.6210   30.1410   50.3850 O   0  0  0  0  0  0  0  0  0  0  0  0
   59.6730   31.2130   50.6930 N   0  0  0  0  0  0  0  0  0  0  0  0
   60.0930   32.3270   51.5620 C   0  0  0  0  0  0  0  0  0  0  0  0
   61.5130   32.6990   51.2670 C   0  0  0  0  0  0  0  0  0  0  0  0
   62.2500   33.5810   51.9690 N   0  0  0  0  0  0  0  0  0  0  0  0
   63.4570   33.5870   51.4170 N   0  0  0  0  0  0  0  0  0  0  0  0
   63.4360   32.7080   50.3940 C   0  0  0  0  0  0  0  0  0  0  0  0
   64.6310   32.3870   49.5480 C   0  0  0  0  0  0  0  0  0  0  0  0
   65.9050   32.3520   50.3860 C   0  0  0  0  0  0  0  0  0  0  0  0
   62.2130   32.1590   50.2580 N   0  0  0  0  0  0  0  0  0  0  0  0
   61.7370   31.0910   49.3830 C   0  0  0  0  0  0  0  0  0  0  0  0
   60.1920   31.1370   49.3110 C   0  0  2  0  0  0  0  0  0  0  0  0
   59.6080   32.2870   48.4810 C   0  0  0  0  0  0  0  0  0  0  0  0
   58.5040   32.0250   47.6470 C   0  0  0  0  0  0  0  0  0  0  0  0
   57.9700   33.0180   46.8240 C   0  0  0  0  0  0  0  0  0  0  0  0
   58.5260   34.2960   46.8220 C   0  0  0  0  0  0  0  0  0  0  0  0
   59.6090   34.5840   47.6520 C   0  0  0  0  0  0  0  0  0  0  0  0
   60.1500   33.5920   48.4740 C   0  0  0  0  0  0  0  0  0  0  0  0
   55.8581   27.7041   53.5469 H   0  0  0  0  0  0  0  0  0  0  0  0
   54.0531   27.7081   52.9368 H   0  0  0  0  0  0  0  0  0  0  0  0
   52.2658   29.5153   52.6853 H   0  0  0  0  0  0  0  0  0  0  0  0
   52.0490   32.8780   52.5690 H   0  0  0  0  0  0  0  0  0  0  0  0
   54.2838   32.4815   51.5459 H   0  0  0  0  0  0  0  0  0  0  0  0
   57.3281   32.8553   53.4103 H   0  0  0  0  0  0  0  0  0  0  0  0
   57.9718   32.2283   51.8549 H   0  0  0  0  0  0  0  0  0  0  0  0
   56.6465   33.4409   51.8549 H   0  0  0  0  0  0  0  0  0  0  0  0
   56.7640   29.1143   55.2721 H   0  0  0  0  0  0  0  0  0  0  0  0
   58.8911   28.0416   56.0034 H   0  0  0  0  0  0  0  0  0  0  0  0
   60.8647   28.0095   54.4793 H   0  0  0  0  0  0  0  0  0  0  0  0
   60.7230   29.0635   52.2253 H   0  0  0  0  0  0  0  0  0  0  0  0
   59.4434   33.1959   51.3800 H   0  0  0  0  0  0  0  0  0  0  0  0
   60.0124   32.0149   52.6137 H   0  0  0  0  0  0  0  0  0  0  0  0
   64.4839   31.4039   49.0771 H   0  0  0  0  0  0  0  0  0  0  0  0
   64.7378   33.1705   48.7833 H   0  0  0  0  0  0  0  0  0  0  0  0
   65.6417   32.3592   51.4540 H   0  0  0  0  0  0  0  0  0  0  0  0
   66.4714   31.4380   50.1542 H   0  0  0  0  0  0  0  0  0  0  0  0
   66.5207   33.2336   50.1542 H   0  0  0  0  0  0  0  0  0  0  0  0
   62.1558   31.2281   48.3751 H   0  0  0  0  0  0  0  0  0  0  0  0
   62.0578   30.1177   49.7827 H   0  0  0  0  0  0  0  0  0  0  0  0
   59.8758   30.2220   48.7888 H   0  0  0  0  0  0  0  0  0  0  0  0
   58.0548   31.0209   47.6440 H   0  0  0  0  0  0  0  0  0  0  0  0
   57.1099   32.7917   46.1767 H   0  0  0  0  0  0  0  0  0  0  0  0
   58.1113   35.0762   46.1668 H   0  0  0  0  0  0  0  0  0  0  0  0
   60.0392   35.5964   47.6596 H   0  0  0  0  0  0  0  0  0  0  0  0
   61.0065   33.8293   49.1222 H   0  0  0  0  0  0  0  0  0  0  0  0
  1  2  2  0
  2  3  1  0
  3  4  2  3
  4  5  1  0
  5  6  1  0
  6  7  1  0
  7  8  2  0
  7  9  1  0
  9 10  1  0
 10 11  1  0
  3 12  1  0
 12 13  2  0
 13 14  1  0
 13 15  1  0
 15 16  1  0
 16 17  2  0
 17 18  1  0
 18 19  2  0
 19 20  1  0
 20 21  2  0
 21 22  1  0
 22 23  2  0
 22 24  1  0
 24 25  1  0
 25 26  1  0
 26 27  2  0
 27 28  1  0
 28 29  2  0
 29 30  1  0
 30 31  1  0
 29 32  1  0
 32 33  1  0
 33 34  1  0
 34 35  1  0
 35 36  2  0
 36 37  1  0
 37 38  2  0
 38 39  1  0
 39 40  2  0
 15  2  1  0
 21 16  1  0
 34 24  1  0
 40 35  1  0
 10  5  2  0
 32 26  1  0
  1 41  1  0
  1 42  1  0
  4 43  1  0
 11 44  1  0
 12 45  1  0
 14 46  1  0
 14 47  1  0
 14 48  1  0
 17 49  1  0
 18 50  1  0
 19 51  1  0
 20 52  1  0
 25 53  1  0
 25 54  1  0
 30 55  1  0
 30 56  1  0
 31 57  1  0
 31 58  1  0
 31 59  1  0
 33 60  1  0
 33 61  1  0
 34 62  1  6
 36 63  1  0
 37 64  1  0
 38 65  1  0
 39 66  1  0
 40 67  1  0
M  CHG  2   6  -1   9  -1
M  END
>  <UniqueID>  (23) 
22

>  <SMILES>  (23) 
C=c1c(=Cc2[n-]c(=O)[n-]c2O)cc(C)n1-c1ccccc1C(=O)N1Cc2nnc(CC)n2C[C@@H]1c1ccccc1

>  <Energy>  (23) 
189.18292942143628

>  <Genealogy>  (23) 
C=c1c(=Cc2[n-]c(=O)[n-]c2O)cc(C)n1-c1ccccc1C(=O)N1Cc2nnc(CC)n2CC1c1ccccc1 (protonated)
C=c1c(=Cc2[n-]c(=O)[n-]c2O)cc(C)n1-c1ccccc1C(=O)N1Cc2nnc(CC)n2C[C@@H]1c1ccccc1 (chirality)
C=c1c(=Cc2[n-]c(=O)[n-]c2O)cc(C)n1-c1ccccc1C(=O)N1Cc2nnc(CC)n2C[C@@H]1c1ccccc1 (3D coordinates assigned)
C=c1c(=Cc2[n-]c(=O)[n-]c2O)cc(C)n1-c1ccccc1C(=O)N1Cc2nnc(CC)n2C[C@@H]1c1ccccc1 (nonaromatic ring conformer: 189.18292942143628 kcal/mol)

>  <smiles>  (23) 
C=c1c(=Cc2[nH]c(=O)[nH]c2O)cc(C)n1-c1ccccc1C(=O)N1Cc2nnc(CC)n2CC1c1ccccc1

>  <score_type>  (23) 
oracle

>  <origin>  (23) 
adg

>  <m_score__min__energy>  (23) 
-15.26

>  <m_primary>  (23) 
energy

$$$$
23:0
     RDKit          3D

 67 70  0  0  0  0  0  0  0  0999 V2000
   54.3190   26.7210   46.6830 H   0  0  0  0  0  0  0  0  0  0  0  0
   54.4460   25.9870   45.9510 N   0  0  0  0  0  0  0  0  0  0  0  0
   55.5510   25.3210   45.8410 C   0  0  0  0  0  0  0  0  0  0  0  0
   55.5280   23.9600   45.8890 N   0  0  0  0  0  0  0  0  0  0  0  0
   56.6600   23.2170   45.7850 C   0  0  0  0  0  0  0  0  0  0  0  0
   56.6023   22.1195   45.8322 H   0  0  0  0  0  0  0  0  0  0  0  0
   57.8990   23.8440   45.6180 C   0  0  0  0  0  0  0  0  0  0  0  0
   59.0990   23.0540   45.5170 C   0  0  0  0  0  0  0  0  0  0  0  0
   60.0630   22.4190   45.4350 N   0  0  0  0  0  0  0  0  0  0  0  0
   57.9530   25.2440   45.5530 C   0  0  0  0  0  0  0  0  0  0  0  0
   59.1790   25.8890   45.3880 O   0  0  0  0  0  0  0  0  0  0  0  0
   60.2280   25.7400   46.3350 C   0  0  0  0  0  0  0  0  0  0  0  0
   60.1402   24.7629   46.8325 H   0  0  0  0  0  0  0  0  0  0  0  0
   61.2011   25.7983   45.8254 H   0  0  0  0  0  0  0  0  0  0  0  0
   60.1220   26.8350   47.3540 C   0  0  0  0  0  0  0  0  0  0  0  0
   60.7850   26.7230   48.5860 C   0  0  0  0  0  0  0  0  0  0  0  0
   61.3493   25.8091   48.8235 H   0  0  0  0  0  0  0  0  0  0  0  0
   60.7310   27.7680   49.5120 C   0  0  0  0  0  0  0  0  0  0  0  0
   61.2326   27.6644   50.4855 H   0  0  0  0  0  0  0  0  0  0  0  0
   60.0390   28.9490   49.2040 C   0  0  0  0  0  0  0  0  0  0  0  0
   59.9960   30.0750   50.1530 C   0  0  0  0  0  0  0  0  0  0  0  0
   59.1140   30.0640   51.0540 O   0  0  0  0  0  0  0  0  0  0  0  0
   60.8740   31.2140   50.0150 N   0  0  0  0  0  0  0  0  0  0  0  0
   60.4720   32.5230   50.5370 C   0  0  0  0  0  0  0  0  0  0  0  0
   59.4529   32.4626   50.9467 H   0  0  0  0  0  0  0  0  0  0  0  0
   61.1574   32.8372   51.3380 H   0  0  0  0  0  0  0  0  0  0  0  0
   60.5080   33.5330   49.3880 C   0  0  0  0  0  0  0  0  0  0  0  0
   59.7514   33.2431   48.6440 H   0  0  0  0  0  0  0  0  0  0  0  0
   60.3057   34.5249   49.8183 H   0  0  0  0  0  0  0  0  0  0  0  0
   61.8350   33.6060   48.7110 N   0  0  0  0  0  0  0  0  0  0  0  0
   62.2840   34.4730   49.0950 H   0  0  0  0  0  0  0  0  0  0  0  0
   61.7230   33.8690   47.2440 C   0  0  0  0  0  0  0  0  0  0  0  0
   61.7629   34.9577   47.0922 H   0  0  0  0  0  0  0  0  0  0  0  0
   62.5555   33.3217   46.7778 H   0  0  0  0  0  0  0  0  0  0  0  0
   60.4500   33.3460   46.5680 C   0  0  0  0  0  0  0  0  0  0  0  0
   60.2860   31.9500   46.5300 C   0  0  0  0  0  0  0  0  0  0  0  0
   61.0818   31.3052   46.9311 H   0  0  0  0  0  0  0  0  0  0  0  0
   59.1450   31.3660   45.9990 C   0  0  0  0  0  0  0  0  0  0  0  0
   59.0467   30.2704   45.9922 H   0  0  0  0  0  0  0  0  0  0  0  0
   58.1180   32.1570   45.4720 C   0  0  0  0  0  0  0  0  0  0  0  0
   56.9650   31.5780   44.9120 O   0  0  0  0  0  0  0  0  0  0  0  0
   56.9530   30.7520   43.7520 C   0  0  0  0  0  0  0  0  0  0  0  0
   56.9376   29.6946   44.0549 H   0  0  0  0  0  0  0  0  0  0  0  0
   56.0580   30.9747   43.1525 H   0  0  0  0  0  0  0  0  0  0  0  0
   57.8541   30.9486   43.1525 H   0  0  0  0  0  0  0  0  0  0  0  0
   58.2500   33.5610   45.4780 C   0  0  0  0  0  0  0  0  0  0  0  0
   57.1320   34.3950   44.8890 C   0  0  0  0  0  0  0  0  0  0  0  0
   56.5379   34.8382   45.7018 H   0  0  0  0  0  0  0  0  0  0  0  0
   57.5600   35.1963   44.2687 H   0  0  0  0  0  0  0  0  0  0  0  0
   56.4859   33.7565   44.2687 H   0  0  0  0  0  0  0  0  0  0  0  0
   59.4510   34.1650   45.9540 C   0  0  0  0  0  0  0  0  0  0  0  0
   59.6360   35.6560   45.7580 C   0  0  0  0  0  0  0  0  0  0  0  0
   59.6973   36.1499   46.7389 H   0  0  0  0  0  0  0  0  0  0  0  0
   60.5638   35.8397   45.1964 H   0  0  0  0  0  0  0  0  0  0  0  0
   58.7812   36.0608   45.1964 H   0  0  0  0  0  0  0  0  0  0  0  0
   62.7780   32.5120   49.0750 C   0  0  0  0  0  0  0  0  0  0  0  0
   63.5544   32.4472   48.2984 H   0  0  0  0  0  0  0  0  0  0  0  0
   63.1986   32.7583   50.0611 H   0  0  0  0  0  0  0  0  0  0  0  0
   62.0950   31.1370   49.2000 C   0  0  0  0  0  0  0  0  0  0  0  0
   61.8316   30.7760   48.1948 H   0  0  0  0  0  0  0  0  0  0  0  0
   62.7959   30.4470   49.6927 H   0  0  0  0  0  0  0  0  0  0  0  0
   59.3760   29.0600   47.9740 C   0  0  0  0  0  0  0  0  0  0  0  0
   58.8165   29.9761   47.7340 H   0  0  0  0  0  0  0  0  0  0  0  0
   59.4230   28.0120   47.0520 C   0  0  0  0  0  0  0  0  0  0  0  0
   58.9092   28.1106   46.0844 H   0  0  0  0  0  0  0  0  0  0  0  0
   56.7720   25.9930   45.6750 C   0  0  0  0  0  0  0  0  0  0  0  0
   56.8350   27.7550   45.6450 Cl  0  0  0  0  0  0  0  0  0  0  0  0
  1  2  1  0
  2  3  2  0
  3  4  1  0
  4  5  1  0
  5  6  1  0
  5  7  2  0
  7  8  1  0
  8  9  3  0
  7 10  1  0
 10 11  1  0
 11 12  1  0
 12 13  1  0
 12 14  1  0
 12 15  1  0
 15 16  2  0
 16 17  1  0
 16 18  1  0
 18 19  1  0
 18 20  2  0
 20 21  1  0
 21 22  2  0
 21 23  1  0
 23 24  1  0
 24 25  1  0
 24 26  1  0
 24 27  1  0
 27 28  1  0
 27 29  1  0
 27 30  1  0
 30 31  1  0
 30 32  1  0
 32 33  1  0
 32 34  1  0
 32 35  1  0
 35 36  2  0
 36 37  1  0
 36 38  1  0
 38 39  1  0
 38 40  2  0
 40 41  1  0
 41 42  1  0
 42 43  1  0
 42 44  1  0
 42 45  1  0
 40 46  1  0
 46 47  1  0
 47 48  1  0
 47 49  1  0
 47 50  1  0
 46 51  2  0
 51 52  1  0
 52 53  1  0
 52 54  1  0
 52 55  1  0
 30 56  1  0
 56 57  1  0
 56 58  1  0
 56 59  1  0
 59 60  1  0
 59 61  1  0
 20 62  1  0
 62 63  1  0
 62 64  2  0
 64 65  1  0
 10 66  2  0
 66 67  1  0
 66  3  1  0
 64 15  1  0
 59 23  1  0
 51 35  1  0
M  CHG  2   4  -1  30   1
M  END
>  <UniqueID>  (24) 
23

>  <SMILES>  (24) 
[H]/N=c1\[n-]cc(C#N)c(OCc2ccc(C(=O)N3CC[NH+](Cc4ccc(OC)c(C)c4C)CC3)cc2)c1Cl

>  <Energy>  (24) 
99.08055428463446

>  <Genealogy>  (24) 
COc1ccc(C[NH+]2CCN(C(=O)c3ccc(COc4c(C#N)c[n-]c(=N)c4Cl)cc3)CC2)c(C)c1C (protonated)
[H]/N=c1\[n-]cc(C#N)c(OCc2ccc(C(=O)N3CC[NH+](Cc4ccc(OC)c(C)c4C)CC3)cc2)c1Cl (cis-trans isomerization)
[H]/N=c1\[n-]cc(C#N)c(OCc2ccc(C(=O)N3CC[NH+](Cc4ccc(OC)c(C)c4C)CC3)cc2)c1Cl (3D coordinates assigned)
[H]/N=c1\[n-]cc(C#N)c(OCc2ccc(C(=O)N3CC[NH+](Cc4ccc(OC)c(C)c4C)CC3)cc2)c1Cl (nonaromatic ring conformer: 99.08055428463446 kcal/mol)

>  <smiles>  (24) 
COc1ccc(CN2CCN(C(=O)c3ccc(COc4c(C#N)c[nH]c(=N)c4Cl)cc3)CC2)c(C)c1C

>  <score_type>  (24) 
oracle

>  <origin>  (24) 
adg

>  <m_score__min__energy>  (24) 
-10.630000000000001

>  <m_primary>  (24) 
energy

$$$$
24:0
     RDKit          3D

 53 55  0  0  0  0  0  0  0  0999 V2000
   57.7550   21.2550   43.4550 C   0  0  0  0  0  0  0  0  0  0  0  0
   56.5300   22.1160   43.5260 C   0  0  0  0  0  0  0  0  0  0  0  0
   55.9360   22.4010   42.4490 O   0  0  0  0  0  0  0  0  0  0  0  0
   56.0270   22.6340   44.7800 N   0  0  0  0  0  0  0  0  0  0  0  0
   54.6900   23.2440   44.7860 C   0  0  0  0  0  0  0  0  0  0  0  0
   54.3250   23.8210   46.1580 C   0  0  0  0  0  0  0  0  0  0  0  0
   55.4840   24.4640   46.7990 N   0  0  0  0  0  0  0  0  0  0  0  0
   55.9810   25.5820   46.0080 C   0  0  0  0  0  0  0  0  0  0  0  0
   55.3720   26.6440   45.9780 O   0  0  0  0  0  0  0  0  0  0  0  0
   57.2500   25.4450   45.2040 C   0  0  0  0  0  0  0  0  0  0  0  0
   57.9680   26.7680   45.1310 C   0  0  0  0  0  0  0  0  0  0  0  0
   59.2660   26.9110   45.6490 C   0  0  0  0  0  0  0  0  0  0  0  0
   59.8820   28.1660   45.6650 C   0  0  0  0  0  0  0  0  0  0  0  0
   59.2040   29.2890   45.1810 C   0  0  0  0  0  0  0  0  0  0  0  0
   57.9100   29.1560   44.6620 C   0  0  0  0  0  0  0  0  0  0  0  0
   56.9940   30.5650   44.1410 S   0  0  0  0  0  0  0  0  0  0  0  0
   55.5640   30.4290   44.5890 O   0  0  0  0  0  0  0  0  0  0  0  0
   57.0090   30.6850   42.6420 O   0  0  0  0  0  0  0  0  0  0  0  0
   57.7270   31.9930   44.8650 C   0  0  0  0  0  0  0  0  0  0  0  0
   57.9240   32.0570   46.2510 C   0  0  0  0  0  0  0  0  0  0  0  0
   58.5430   33.1750   46.8210 C   0  0  0  0  0  0  0  0  0  0  0  0
   58.9870   34.2330   46.0080 C   0  0  0  0  0  0  0  0  0  0  0  0
   59.6070   35.4530   46.6280 C   0  0  0  0  0  0  0  0  0  0  0  0
   58.7890   34.1640   44.6210 C   0  0  0  0  0  0  0  0  0  0  0  0
   58.1710   33.0450   44.0520 C   0  0  0  0  0  0  0  0  0  0  0  0
   57.3000   27.8960   44.6300 C   0  0  0  0  0  0  0  0  0  0  0  0
   56.5420   23.4740   47.1200 C   0  0  0  0  0  0  0  0  0  0  0  0
   56.7400   22.3710   46.0460 C   0  0  0  0  0  0  0  0  0  0  0  0
   58.0948   21.0161   44.4736 H   0  0  0  0  0  0  0  0  0  0  0  0
   57.5181   20.3237   42.9197 H   0  0  0  0  0  0  0  0  0  0  0  0
   58.5510   21.7933   42.9197 H   0  0  0  0  0  0  0  0  0  0  0  0
   54.6668   24.0547   44.0429 H   0  0  0  0  0  0  0  0  0  0  0  0
   53.9587   22.4589   44.5436 H   0  0  0  0  0  0  0  0  0  0  0  0
   53.5271   24.5675   46.0310 H   0  0  0  0  0  0  0  0  0  0  0  0
   53.9894   22.9945   46.8016 H   0  0  0  0  0  0  0  0  0  0  0  0
   55.1470   24.8550   47.7120 H   0  0  0  0  0  0  0  0  0  0  0  0
   57.9050   24.7026   45.6834 H   0  0  0  0  0  0  0  0  0  0  0  0
   56.9946   25.1197   44.1847 H   0  0  0  0  0  0  0  0  0  0  0  0
   59.7991   26.0332   46.0431 H   0  0  0  0  0  0  0  0  0  0  0  0
   60.9034   28.2703   46.0597 H   0  0  0  0  0  0  0  0  0  0  0  0
   59.6869   30.2769   45.2079 H   0  0  0  0  0  0  0  0  0  0  0  0
   57.5915   31.2271   46.8918 H   0  0  0  0  0  0  0  0  0  0  0  0
   58.6830   33.2265   47.9108 H   0  0  0  0  0  0  0  0  0  0  0  0
   59.5644   35.3692   47.7240 H   0  0  0  0  0  0  0  0  0  0  0  0
   60.6559   35.5346   46.3070 H   0  0  0  0  0  0  0  0  0  0  0  0
   59.0546   36.3484   46.3070 H   0  0  0  0  0  0  0  0  0  0  0  0
   59.1208   34.9927   43.9783 H   0  0  0  0  0  0  0  0  0  0  0  0
   58.0330   32.9906   42.9620 H   0  0  0  0  0  0  0  0  0  0  0  0
   56.2894   27.7895   44.2089 H   0  0  0  0  0  0  0  0  0  0  0  0
   57.4932   24.0138   47.2372 H   0  0  0  0  0  0  0  0  0  0  0  0
   56.2217   22.9613   48.0390 H   0  0  0  0  0  0  0  0  0  0  0  0
   57.8150   22.2892   45.8276 H   0  0  0  0  0  0  0  0  0  0  0  0
   56.3216   21.4422   46.4612 H   0  0  0  0  0  0  0  0  0  0  0  0
  1  2  1  0
  2  3  2  0
  2  4  1  0
  4  5  1  0
  5  6  1  0
  6  7  1  0
  7  8  1  0
  8  9  2  0
  8 10  1  0
 10 11  1  0
 11 12  2  0
 12 13  1  0
 13 14  2  0
 14 15  1  0
 15 16  1  0
 16 17  2  0
 16 18  2  0
 16 19  1  0
 19 20  2  0
 20 21  1  0
 21 22  2  0
 22 23  1  0
 22 24  1  0
 24 25  2  0
 15 26  2  0
  7 27  1  0
 27 28  1  0
 28  4  1  0
 26 11  1  0
 25 19  1  0
  1 29  1  0
  1 30  1  0
  1 31  1  0
  5 32  1  0
  5 33  1  0
  6 34  1  0
  6 35  1  0
  7 36  1  0
 10 37  1  0
 10 38  1  0
 12 39  1  0
 13 40  1  0
 14 41  1  0
 20 42  1  0
 21 43  1  0
 23 44  1  0
 23 45  1  0
 23 46  1  0
 24 47  1  0
 25 48  1  0
 26 49  1  0
 27 50  1  0
 27 51  1  0
 28 52  1  0
 28 53  1  0
M  CHG  1   7   1
M  END
>  <UniqueID>  (25) 
24

>  <SMILES>  (25) 
CC(=O)N1CC[NH+](C(=O)Cc2cccc(S(=O)(=O)c3ccc(C)cc3)c2)CC1

>  <Energy>  (25) 
61.13297949178903

>  <Genealogy>  (25) 
CC(=O)N1CC[NH+](C(=O)Cc2cccc(S(=O)(=O)c3ccc(C)cc3)c2)CC1 (protonated)
CC(=O)N1CC[NH+](C(=O)Cc2cccc(S(=O)(=O)c3ccc(C)cc3)c2)CC1 (3D coordinates assigned)
CC(=O)N1CC[NH+](C(=O)Cc2cccc(S(=O)(=O)c3ccc(C)cc3)c2)CC1 (nonaromatic ring conformer: 61.13297949178903 kcal/mol)

>  <smiles>  (25) 
CC(=O)N1CCN(C(=O)Cc2cccc(S(=O)(=O)c3ccc(C)cc3)c2)CC1

>  <score_type>  (25) 
oracle

>  <origin>  (25) 
adg

>  <m_score__min__energy>  (25) 
-8.75

>  <m_primary>  (25) 
energy

$$$$
25:0
     RDKit          3D

 28 29  0  0  0  0  0  0  0  0999 V2000
   57.7116   33.1320   42.5143 H   0  0  0  0  0  0  0  0  0  0  0  0
   57.7480   32.1040   42.9040 C   0  0  0  0  0  0  0  0  0  0  0  0
   57.6435   31.2513   42.2169 H   0  0  0  0  0  0  0  0  0  0  0  0
   57.9200   31.8900   44.2180 C   0  0  0  0  0  0  0  0  0  0  0  0
   57.9860   30.6470   44.8540 C   0  0  0  0  0  0  0  0  0  0  0  0
   57.9280   29.4290   44.2810 C   0  0  0  0  0  0  0  0  0  0  0  0
   58.2913   29.3212   43.2483 H   0  0  0  0  0  0  0  0  0  0  0  0
   57.4010   28.2280   44.9680 C   0  0  0  0  0  0  0  0  0  0  0  0
   56.0310   28.1270   45.2500 C   0  0  0  0  0  0  0  0  0  0  0  0
   55.1510   29.1310   44.8580 O   0  0  0  0  0  0  0  0  0  0  0  0
   55.5490   27.0370   45.9020 N   0  0  0  0  0  0  0  0  0  0  0  0
   56.3760   26.0390   46.3030 C   0  0  0  0  0  0  0  0  0  0  0  0
   55.9080   25.0360   46.9000 O   0  0  0  0  0  0  0  0  0  0  0  0
   57.7110   26.1250   46.0670 N   0  0  0  0  0  0  0  0  0  0  0  0
   58.2410   27.1950   45.4200 C   0  0  0  0  0  0  0  0  0  0  0  0
   59.4880   27.2560   45.2510 O   0  0  0  0  0  0  0  0  0  0  0  0
   58.1730   30.9090   46.2040 C   0  0  0  0  0  0  0  0  0  0  0  0
   58.2764   30.1667   47.0091 H   0  0  0  0  0  0  0  0  0  0  0  0
   58.2040   32.2840   46.3400 C   0  0  0  0  0  0  0  0  0  0  0  0
   58.3990   33.0020   47.6410 C   0  0  0  0  0  0  0  0  0  0  0  0
   58.2107   32.3089   48.4741 H   0  0  0  0  0  0  0  0  0  0  0  0
   59.4314   33.3767   47.7019 H   0  0  0  0  0  0  0  0  0  0  0  0
   57.6979   33.8475   47.7019 H   0  0  0  0  0  0  0  0  0  0  0  0
   58.0500   32.8810   45.1360 N   0  0  0  0  0  0  0  0  0  0  0  0
   58.0360   34.3240   44.8710 C   0  0  0  0  0  0  0  0  0  0  0  0
   58.0307   34.8719   45.8248 H   0  0  0  0  0  0  0  0  0  0  0  0
   58.9315   34.5997   44.2948 H   0  0  0  0  0  0  0  0  0  0  0  0
   57.1353   34.5823   44.2948 H   0  0  0  0  0  0  0  0  0  0  0  0
  1  2  1  0
  2  3  1  0
  2  4  2  0
  4  5  1  0
  5  6  2  0
  6  7  1  0
  6  8  1  0
  8  9  2  0
  9 10  1  0
  9 11  1  0
 11 12  1  0
 12 13  2  0
 12 14  1  0
 14 15  1  0
 15 16  2  0
  5 17  1  0
 17 18  1  0
 17 19  2  0
 19 20  1  0
 20 21  1  0
 20 22  1  0
 20 23  1  0
 19 24  1  0
 24 25  1  0
 25 26  1  0
 25 27  1  0
 25 28  1  0
 24  4  1  0
 15  8  1  0
M  CHG  3  10  -1  11  -1  14  -1
M  END
>  <UniqueID>  (26) 
25

>  <SMILES>  (26) 
C=c1/c(=C/c2c([O-])[n-]c(=O)[n-]c2=O)cc(C)n1C

>  <Energy>  (26) 
66.8447678628873

>  <Genealogy>  (26) 
C=c1c(=Cc2c([O-])[n-]c(=O)[n-]c2=O)cc(C)n1C (protonated)
C=c1/c(=C/c2c([O-])[n-]c(=O)[n-]c2=O)cc(C)n1C (cis-trans isomerization)
C=c1/c(=C/c2c([O-])[n-]c(=O)[n-]c2=O)cc(C)n1C (3D coordinates assigned)
C=c1/c(=C/c2c([O-])[n-]c(=O)[n-]c2=O)cc(C)n1C (optimized conformer: 66.8447678628873 kcal/mol)

>  <smiles>  (26) 
C=c1c(=Cc2c(O)[nH]c(=O)[nH]c2=O)cc(C)n1C

>  <score_type>  (26) 
oracle

>  <origin>  (26) 
adg

>  <m_score__min__energy>  (26) 
-14.24

>  <m_primary>  (26) 
energy

$$$$
26:0
     RDKit          3D

 55 58  0  0  0  0  0  0  0  0999 V2000
   56.6420   29.0620   42.7740 O   0  0  0  0  0  0  0  0  0  0  0  0
   57.2050   29.4680   44.1080 S   0  0  0  0  0  0  0  0  0  0  0  0
   56.0670   29.8430   45.0160 O   0  0  0  0  0  0  0  0  0  0  0  0
   58.0770   28.1160   44.8280 C   0  0  0  0  0  0  0  0  0  0  0  0
   59.4220   28.2480   45.1970 C   0  0  0  0  0  0  0  0  0  0  0  0
   60.0970   27.1730   45.7800 C   0  0  0  0  0  0  0  0  0  0  0  0
   59.4350   25.9620   46.0020 C   0  0  0  0  0  0  0  0  0  0  0  0
   60.1240   24.9240   46.5420 F   0  0  0  0  0  0  0  0  0  0  0  0
   58.0820   25.8190   45.6410 C   0  0  0  0  0  0  0  0  0  0  0  0
   57.3610   24.5430   45.8700 C   0  0  0  0  0  0  0  0  0  0  0  0
   58.1160   23.1310   45.5330 S   0  0  0  0  0  0  0  0  0  0  0  0
   56.1500   24.4880   46.6410 N   0  0  0  0  0  0  0  0  0  0  0  0
   54.9880   24.0670   46.2280 C   0  0  0  0  0  0  0  0  0  0  0  0
   54.6450   22.7490   46.3120 N   0  0  0  0  0  0  0  0  0  0  0  0
   53.4350   22.2910   45.8960 C   0  0  0  0  0  0  0  0  0  0  0  0
   52.4950   23.1790   45.3700 C   0  0  0  0  0  0  0  0  0  0  0  0
   52.8120   24.5350   45.2830 C   0  0  0  0  0  0  0  0  0  0  0  0
   54.0620   24.9870   45.7140 C   0  0  0  0  0  0  0  0  0  0  0  0
   54.3760   26.3400   45.6280 O   0  0  0  0  0  0  0  0  0  0  0  0
   57.4090   26.9070   45.0610 C   0  0  0  0  0  0  0  0  0  0  0  0
   58.2820   30.8310   43.9140 N   0  0  0  0  0  0  0  0  0  0  0  0
   57.6100   31.8940   43.1320 C   0  0  0  0  0  0  0  0  0  0  0  0
   58.2610   33.2590   43.3840 C   0  0  0  0  0  0  0  0  0  0  0  0
   58.1160   33.6780   44.8020 N   0  0  0  0  0  0  0  0  0  0  0  0
   59.1730   34.6330   45.1940 C   0  0  0  0  0  0  0  0  0  0  0  0
   59.8300   34.2120   46.4830 C   0  0  0  0  0  0  0  0  0  0  0  0
   61.0380   33.4950   46.4700 C   0  0  0  0  0  0  0  0  0  0  0  0
   61.6550   33.1310   47.6710 C   0  0  0  0  0  0  0  0  0  0  0  0
   61.0720   33.4830   48.8920 C   0  0  0  0  0  0  0  0  0  0  0  0
   59.8740   34.2030   48.9130 C   0  0  0  0  0  0  0  0  0  0  0  0
   59.2550   34.5690   47.7140 C   0  0  0  0  0  0  0  0  0  0  0  0
   58.0370   32.5340   45.7470 C   0  0  0  0  0  0  0  0  0  0  0  0
   58.7910   31.2960   45.2310 C   0  0  0  0  0  0  0  0  0  0  0  0
   59.9472   29.1995   45.0274 H   0  0  0  0  0  0  0  0  0  0  0  0
   61.1539   27.2798   46.0656 H   0  0  0  0  0  0  0  0  0  0  0  0
   53.1962   21.2201   45.9738 H   0  0  0  0  0  0  0  0  0  0  0  0
   51.5154   22.8138   45.0280 H   0  0  0  0  0  0  0  0  0  0  0  0
   52.0791   25.2471   44.8758 H   0  0  0  0  0  0  0  0  0  0  0  0
   56.3481   26.8088   44.7874 H   0  0  0  0  0  0  0  0  0  0  0  0
   59.0990   30.4870   43.3580 H   0  0  0  0  0  0  0  0  0  0  0  0
   57.6832   31.6532   42.0612 H   0  0  0  0  0  0  0  0  0  0  0  0
   56.5568   31.9457   43.4452 H   0  0  0  0  0  0  0  0  0  0  0  0
   59.3312   33.1955   43.1377 H   0  0  0  0  0  0  0  0  0  0  0  0
   57.7569   34.0039   42.7508 H   0  0  0  0  0  0  0  0  0  0  0  0
   59.9329   34.6745   44.3997 H   0  0  0  0  0  0  0  0  0  0  0  0
   58.7147   35.6221   45.3409 H   0  0  0  0  0  0  0  0  0  0  0  0
   61.5005   33.2187   45.5110 H   0  0  0  0  0  0  0  0  0  0  0  0
   62.5995   32.5674   47.6550 H   0  0  0  0  0  0  0  0  0  0  0  0
   61.5561   33.1933   49.8363 H   0  0  0  0  0  0  0  0  0  0  0  0
   59.4177   34.4820   49.8742 H   0  0  0  0  0  0  0  0  0  0  0  0
   58.3142   35.1386   47.7347 H   0  0  0  0  0  0  0  0  0  0  0  0
   58.4748   32.8391   46.7089 H   0  0  0  0  0  0  0  0  0  0  0  0
   56.9771   32.2607   45.8561 H   0  0  0  0  0  0  0  0  0  0  0  0
   59.8567   31.5486   45.1287 H   0  0  0  0  0  0  0  0  0  0  0  0
   58.6373   30.4832   45.9561 H   0  0  0  0  0  0  0  0  0  0  0  0
  1  2  2  0
  2  3  2  0
  2  4  1  0
  4  5  2  0
  5  6  1  0
  6  7  2  0
  7  8  1  0
  7  9  1  0
  9 10  1  0
 10 11  2  0
 10 12  1  0
 12 13  2  3
 13 14  1  0
 14 15  1  0
 15 16  2  0
 16 17  1  0
 17 18  2  0
 18 19  1  0
  9 20  2  0
  2 21  1  0
 21 22  1  0
 22 23  1  0
 23 24  1  0
 24 25  1  0
 25 26  1  0
 26 27  2  0
 27 28  1  0
 28 29  2  0
 29 30  1  0
 30 31  2  0
 24 32  1  0
 32 33  1  0
 20  4  1  0
 33 21  1  0
 18 13  1  0
 31 26  1  0
  5 34  1  0
  6 35  1  0
 15 36  1  0
 16 37  1  0
 17 38  1  0
 20 39  1  0
 21 40  1  0
 22 41  1  0
 22 42  1  0
 23 43  1  0
 23 44  1  0
 25 45  1  0
 25 46  1  0
 27 47  1  0
 28 48  1  0
 29 49  1  0
 30 50  1  0
 31 51  1  0
 32 52  1  0
 32 53  1  0
 33 54  1  0
 33 55  1  0
M  CHG  3  14  -1  19  -1  21   1
M  END
>  <UniqueID>  (27) 
26

>  <SMILES>  (27) 
O=S(=O)(c1ccc(F)c(C(=S)N=c2[n-]cccc2[O-])c1)[NH+]1CCN(Cc2ccccc2)CC1

>  <Energy>  (27) 
79.21066553939917

>  <Genealogy>  (27) 
O=S(=O)(c1ccc(F)c(C(=S)N=c2[n-]cccc2[O-])c1)[NH+]1CCN(Cc2ccccc2)CC1 (protonated)
O=S(=O)(c1ccc(F)c(C(=S)N=c2[n-]cccc2[O-])c1)[NH+]1CCN(Cc2ccccc2)CC1 (3D coordinates assigned)
O=S(=O)(c1ccc(F)c(C(=S)N=c2[n-]cccc2[O-])c1)[NH+]1CCN(Cc2ccccc2)CC1 (nonaromatic ring conformer: 79.21066553939917 kcal/mol)

>  <smiles>  (27) 
O=S(=O)(c1ccc(F)c(C(=S)N=c2[nH]cccc2O)c1)N1CCN(Cc2ccccc2)CC1

>  <score_type>  (27) 
oracle

>  <origin>  (27) 
adg

>  <m_score__min__energy>  (27) 
-14.19

>  <m_primary>  (27) 
energy

$$$$
27:0
     RDKit          3D

 45 47  0  0  0  0  0  0  0  0999 V2000
   58.8340   30.4610   47.1960 C   0  0  0  0  0  0  0  0  0  0  0  0
   58.3750   31.2810   46.2350 C   0  0  0  0  0  0  0  0  0  0  0  0
   58.0190   30.9190   44.9230 C   0  0  0  0  0  0  0  0  0  0  0  0
   57.8910   29.7120   44.3370 C   0  0  0  0  0  0  0  0  0  0  0  0
   57.4800   28.4660   45.0140 C   0  0  0  0  0  0  0  0  0  0  0  0
   56.1250   28.2210   45.2810 C   0  0  0  0  0  0  0  0  0  0  0  0
   55.1520   29.1250   44.8660 O   0  0  0  0  0  0  0  0  0  0  0  0
   55.7550   27.0910   45.9420 N   0  0  0  0  0  0  0  0  0  0  0  0
   56.6870   26.1950   46.3670 C   0  0  0  0  0  0  0  0  0  0  0  0
   56.3290   25.1510   46.9740 O   0  0  0  0  0  0  0  0  0  0  0  0
   58.0050   26.4250   46.1430 N   0  0  0  0  0  0  0  0  0  0  0  0
   58.4240   27.5380   45.4880 C   0  0  0  0  0  0  0  0  0  0  0  0
   59.6570   27.7290   45.3190 O   0  0  0  0  0  0  0  0  0  0  0  0
   57.7470   32.0990   44.2560 C   0  0  0  0  0  0  0  0  0  0  0  0
   57.8850   33.1190   45.1700 C   0  0  0  0  0  0  0  0  0  0  0  0
   57.6190   34.5650   44.8730 C   0  0  0  0  0  0  0  0  0  0  0  0
   58.2680   32.6330   46.3740 N   0  0  0  0  0  0  0  0  0  0  0  0
   58.4800   33.4520   47.5810 C   0  0  0  0  0  0  0  0  0  0  0  0
   59.9400   33.4390   47.9960 C   0  0  0  0  0  0  0  0  0  0  0  0
   60.9220   33.6320   47.0060 C   0  0  0  0  0  0  0  0  0  0  0  0
   62.2850   33.6170   47.3280 C   0  0  0  0  0  0  0  0  0  0  0  0
   63.3150   33.8460   46.2610 C   0  0  0  0  0  0  0  0  0  0  0  0
   62.6760   33.4580   48.6620 C   0  0  0  0  0  0  0  0  0  0  0  0
   61.7160   33.2940   49.6610 C   0  0  0  0  0  0  0  0  0  0  0  0
   60.3460   33.2910   49.3500 C   0  0  0  0  0  0  0  0  0  0  0  0
   59.3510   33.1370   50.4710 C   0  0  0  0  0  0  0  0  0  0  0  0
   59.0805   30.8624   48.1900 H   0  0  0  0  0  0  0  0  0  0  0  0
   58.9631   29.3885   46.9884 H   0  0  0  0  0  0  0  0  0  0  0  0
   58.1119   29.6499   43.2612 H   0  0  0  0  0  0  0  0  0  0  0  0
   54.7430   26.9130   46.1250 H   0  0  0  0  0  0  0  0  0  0  0  0
   57.4724   32.2031   43.1959 H   0  0  0  0  0  0  0  0  0  0  0  0
   57.5168   35.1204   45.8170 H   0  0  0  0  0  0  0  0  0  0  0  0
   58.4559   34.9800   44.2921 H   0  0  0  0  0  0  0  0  0  0  0  0
   56.6892   34.6550   44.2921 H   0  0  0  0  0  0  0  0  0  0  0  0
   58.1745   34.4878   47.3714 H   0  0  0  0  0  0  0  0  0  0  0  0
   57.8784   33.0318   48.4005 H   0  0  0  0  0  0  0  0  0  0  0  0
   60.6140   33.7972   45.9630 H   0  0  0  0  0  0  0  0  0  0  0  0
   64.2865   34.0620   46.7295 H   0  0  0  0  0  0  0  0  0  0  0  0
   63.4017   32.9452   45.6357 H   0  0  0  0  0  0  0  0  0  0  0  0
   63.0118   34.6987   45.6357 H   0  0  0  0  0  0  0  0  0  0  0  0
   63.7443   33.4623   48.9241 H   0  0  0  0  0  0  0  0  0  0  0  0
   62.0359   33.1654   50.7056 H   0  0  0  0  0  0  0  0  0  0  0  0
   59.8714   33.2175   51.4368 H   0  0  0  0  0  0  0  0  0  0  0  0
   58.5903   33.9281   50.3973 H   0  0  0  0  0  0  0  0  0  0  0  0
   58.8650   32.1529   50.3973 H   0  0  0  0  0  0  0  0  0  0  0  0
  1  2  2  0
  2  3  1  0
  3  4  2  3
  4  5  1  0
  5  6  2  0
  6  7  1  0
  6  8  1  0
  8  9  1  0
  9 10  2  0
  9 11  1  0
 11 12  1  0
 12 13  2  0
  3 14  1  0
 14 15  2  0
 15 16  1  0
 15 17  1  0
 17 18  1  0
 18 19  1  0
 19 20  2  0
 20 21  1  0
 21 22  1  0
 21 23  2  0
 23 24  1  0
 24 25  2  0
 25 26  1  0
 17  2  1  0
 25 19  1  0
 12  5  1  0
  1 27  1  0
  1 28  1  0
  4 29  1  0
  8 30  1  0
 14 31  1  0
 16 32  1  0
 16 33  1  0
 16 34  1  0
 18 35  1  0
 18 36  1  0
 20 37  1  0
 22 38  1  0
 22 39  1  0
 22 40  1  0
 23 41  1  0
 24 42  1  0
 26 43  1  0
 26 44  1  0
 26 45  1  0
M  CHG  2   7  -1  11  -1
M  END
>  <UniqueID>  (28) 
27

>  <SMILES>  (28) 
C=c1c(=Cc2c([O-])[nH]c(=O)[n-]c2=O)cc(C)n1Cc1cc(C)ccc1C

>  <Energy>  (28) 
90.472436953522

>  <Genealogy>  (28) 
C=c1c(=Cc2c([O-])[nH]c(=O)[n-]c2=O)cc(C)n1Cc1cc(C)ccc1C (protonated)
C=c1c(=Cc2c([O-])[nH]c(=O)[n-]c2=O)cc(C)n1Cc1cc(C)ccc1C (3D coordinates assigned)
C=c1c(=Cc2c([O-])[nH]c(=O)[n-]c2=O)cc(C)n1Cc1cc(C)ccc1C (optimized conformer: 90.472436953522 kcal/mol)

>  <smiles>  (28) 
C=c1c(=Cc2c(O)[nH]c(=O)[nH]c2=O)cc(C)n1Cc1cc(C)ccc1C

>  <score_type>  (28) 
oracle

>  <origin>  (28) 
adg

>  <m_score__min__energy>  (28) 
-14.300000000000001

>  <m_primary>  (28) 
energy

$$$$
28:0
     RDKit          3D

 35 37  0  0  0  0  0  0  0  0999 V2000
   59.2550   35.2340   47.4170 N   0  0  0  0  0  0  0  0  0  0  0  0
   59.7660   34.4530   45.9630 S   0  0  0  0  0  0  0  0  0  0  0  0
   59.3950   35.3030   44.7800 O   0  0  0  0  0  0  0  0  0  0  0  0
   61.2580   34.2810   45.9840 O   0  0  0  0  0  0  0  0  0  0  0  0
   58.9870   32.8800   45.8360 C   0  0  0  0  0  0  0  0  0  0  0  0
   57.8980   32.6990   44.9720 C   0  0  0  0  0  0  0  0  0  0  0  0
   57.2730   31.4530   44.8810 C   0  0  0  0  0  0  0  0  0  0  0  0
   57.7330   30.3810   45.6500 C   0  0  0  0  0  0  0  0  0  0  0  0
   58.8280   30.5480   46.5110 C   0  0  0  0  0  0  0  0  0  0  0  0
   59.3190   29.4050   47.3090 C   0  0  0  0  0  0  0  0  0  0  0  0
   59.9250   29.6670   48.5490 C   0  0  0  0  0  0  0  0  0  0  0  0
   60.3920   28.6200   49.3440 C   0  0  0  0  0  0  0  0  0  0  0  0
   60.2540   27.3000   48.9160 C   0  0  0  0  0  0  0  0  0  0  0  0
   59.6430   27.0220   47.6920 C   0  0  0  0  0  0  0  0  0  0  0  0
   59.1670   28.0630   46.8730 C   0  0  0  0  0  0  0  0  0  0  0  0
   58.4650   27.7110   45.5780 C   0  0  0  0  0  0  0  0  0  0  0  0
   57.2180   26.9190   45.8340 C   0  0  0  0  0  0  0  0  0  0  0  0
   57.2080   25.6560   46.2960 N   0  0  0  0  0  0  0  0  0  0  0  0
   55.8920   25.3530   46.3410 C   0  0  0  0  0  0  0  0  0  0  0  0
   55.4680   24.2330   46.7260 O   0  0  0  0  0  0  0  0  0  0  0  0
   55.0670   26.3430   45.9380 N   0  0  0  0  0  0  0  0  0  0  0  0
   55.9240   27.3280   45.6210 C   0  0  0  0  0  0  0  0  0  0  0  0
   55.5310   28.5720   45.1430 O   0  0  0  0  0  0  0  0  0  0  0  0
   59.4410   31.8060   46.6140 C   0  0  0  0  0  0  0  0  0  0  0  0
   58.4260   34.7060   47.7710 H   0  0  0  0  0  0  0  0  0  0  0  0
   57.5346   33.5405   44.3639 H   0  0  0  0  0  0  0  0  0  0  0  0
   56.4177   31.3157   44.2031 H   0  0  0  0  0  0  0  0  0  0  0  0
   57.2349   29.4027   45.5801 H   0  0  0  0  0  0  0  0  0  0  0  0
   60.0321   30.7054   48.8957 H   0  0  0  0  0  0  0  0  0  0  0  0
   60.8702   28.8362   50.3107 H   0  0  0  0  0  0  0  0  0  0  0  0
   60.6269   26.4771   49.5434 H   0  0  0  0  0  0  0  0  0  0  0  0
   59.5323   25.9779   47.3640 H   0  0  0  0  0  0  0  0  0  0  0  0
   58.1986   28.6389   45.0508 H   0  0  0  0  0  0  0  0  0  0  0  0
   59.1463   27.0997   44.9680 H   0  0  0  0  0  0  0  0  0  0  0  0
   60.2818   31.9500   47.3085 H   0  0  0  0  0  0  0  0  0  0  0  0
  1  2  1  0
  2  3  2  0
  2  4  2  0
  2  5  1  0
  5  6  2  0
  6  7  1  0
  7  8  2  0
  8  9  1  0
  9 10  1  0
 10 11  2  0
 11 12  1  0
 12 13  2  0
 13 14  1  0
 14 15  2  0
 15 16  1  0
 16 17  1  0
 17 18  1  0
 18 19  1  0
 19 20  2  0
 19 21  1  0
 21 22  1  0
 22 23  1  0
  9 24  2  0
 24  5  1  0
 15 10  1  0
 22 17  2  0
  1 25  1  0
  6 26  1  0
  7 27  1  0
  8 28  1  0
 11 29  1  0
 12 30  1  0
 13 31  1  0
 14 32  1  0
 16 33  1  0
 16 34  1  0
 24 35  1  0
M  CHG  4   1  -1  18  -1  21  -1  23  -1
M  END
>  <UniqueID>  (29) 
28

>  <SMILES>  (29) 
[NH-]S(=O)(=O)c1cccc(-c2ccccc2Cc2[n-]c(=O)[n-]c2[O-])c1

>  <Energy>  (29) 
72.23602899201383

>  <Genealogy>  (29) 
[NH-]S(=O)(=O)c1cccc(-c2ccccc2Cc2[n-]c(=O)[n-]c2[O-])c1 (protonated)
[NH-]S(=O)(=O)c1cccc(-c2ccccc2Cc2[n-]c(=O)[n-]c2[O-])c1 (3D coordinates assigned)
[NH-]S(=O)(=O)c1cccc(-c2ccccc2Cc2[n-]c(=O)[n-]c2[O-])c1 (optimized conformer: 72.23602899201383 kcal/mol)

>  <smiles>  (29) 
NS(=O)(=O)c1cccc(-c2ccccc2Cc2[nH]c(=O)[nH]c2O)c1

>  <score_type>  (29) 
oracle

>  <origin>  (29) 
adg

>  <m_score__min__energy>  (29) 
-16.879999999999999

>  <m_primary>  (29) 
energy

$$$$
29:0
     RDKit          3D

 53 56  0  0  0  0  0  0  0  0999 V2000
   56.6540   30.5940   42.8320 C   0  0  0  0  0  0  0  0  0  0  0  0
   56.7970   30.6920   44.3470 C   0  0  0  0  0  0  0  0  0  0  0  0
   56.7490   29.3320   44.9820 C   0  0  0  0  0  0  0  0  0  0  0  0
   55.6150   28.6160   45.0940 N   0  0  0  0  0  0  0  0  0  0  0  0
   56.0290   27.4590   45.6470 C   0  0  0  0  0  0  0  0  0  0  0  0
   55.2420   26.5150   45.9170 O   0  0  0  0  0  0  0  0  0  0  0  0
   57.3530   27.3920   45.8850 N   0  0  0  0  0  0  0  0  0  0  0  0
   57.8150   28.5790   45.4490 C   0  0  0  0  0  0  0  0  0  0  0  0
   59.2380   28.9910   45.5000 C   0  0  0  0  0  0  0  0  0  0  0  0
   59.8960   28.9670   44.4270 O   0  0  0  0  0  0  0  0  0  0  0  0
   59.8980   29.3810   46.7340 N   0  0  0  0  0  0  0  0  0  0  0  0
   59.7960   28.5110   47.9160 C   0  0  0  0  0  0  0  0  0  0  0  0
   59.6820   29.3660   49.1820 C   0  0  0  0  0  0  0  0  0  0  0  0
   60.8210   30.2970   49.3580 N   0  0  0  0  0  0  0  0  0  0  0  0
   60.4180   31.5120   50.0950 C   0  0  0  0  0  0  0  0  0  0  0  0
   61.5910   32.4400   50.2830 C   0  0  0  0  0  0  0  0  0  0  0  0
   62.7460   31.9960   50.9530 C   0  0  0  0  0  0  0  0  0  0  0  0
   63.8280   32.8600   51.1380 C   0  0  0  0  0  0  0  0  0  0  0  0
   63.7690   34.1710   50.6590 C   0  0  0  0  0  0  0  0  0  0  0  0
   62.6270   34.6200   49.9920 C   0  0  0  0  0  0  0  0  0  0  0  0
   61.5390   33.7610   49.8040 C   0  0  0  0  0  0  0  0  0  0  0  0
   60.4360   34.2160   49.1560 F   0  0  0  0  0  0  0  0  0  0  0  0
   61.5890   30.5910   48.1210 C   0  0  0  0  0  0  0  0  0  0  0  0
   60.7410   30.5900   46.8280 C   0  0  2  0  0  0  0  0  0  0  0  0
   59.9370   31.8750   46.6920 C   0  0  0  0  0  0  0  0  0  0  0  0
   58.5410   31.9140   46.8930 C   0  0  0  0  0  0  0  0  0  0  0  0
   57.8410   33.1160   46.7630 C   0  0  0  0  0  0  0  0  0  0  0  0
   58.5210   34.2930   46.4430 C   0  0  0  0  0  0  0  0  0  0  0  0
   59.9030   34.2700   46.2510 C   0  0  0  0  0  0  0  0  0  0  0  0
   60.6080   33.0690   46.3750 C   0  0  0  0  0  0  0  0  0  0  0  0
   55.7697   29.9880   42.5856 H   0  0  0  0  0  0  0  0  0  0  0  0
   56.5369   31.6025   42.4088 H   0  0  0  0  0  0  0  0  0  0  0  0
   57.5523   30.1208   42.4088 H   0  0  0  0  0  0  0  0  0  0  0  0
   57.7595   31.1673   44.5873 H   0  0  0  0  0  0  0  0  0  0  0  0
   55.9622   31.2913   44.7394 H   0  0  0  0  0  0  0  0  0  0  0  0
   58.9041   27.8737   47.8243 H   0  0  0  0  0  0  0  0  0  0  0  0
   60.6960   27.8821   47.9826 H   0  0  0  0  0  0  0  0  0  0  0  0
   58.7543   29.9543   49.1249 H   0  0  0  0  0  0  0  0  0  0  0  0
   59.6822   28.6805   50.0423 H   0  0  0  0  0  0  0  0  0  0  0  0
   59.6331   32.0337   49.5278 H   0  0  0  0  0  0  0  0  0  0  0  0
   60.0425   31.2145   51.0852 H   0  0  0  0  0  0  0  0  0  0  0  0
   62.7971   30.9648   51.3325 H   0  0  0  0  0  0  0  0  0  0  0  0
   64.7285   32.5073   51.6620 H   0  0  0  0  0  0  0  0  0  0  0  0
   64.6219   34.8496   50.8072 H   0  0  0  0  0  0  0  0  0  0  0  0
   62.5830   35.6519   49.6135 H   0  0  0  0  0  0  0  0  0  0  0  0
   62.0496   31.5840   48.2297 H   0  0  0  0  0  0  0  0  0  0  0  0
   62.3294   29.7848   48.0118 H   0  0  0  0  0  0  0  0  0  0  0  0
   61.4310   30.5570   45.9720 H   0  0  0  0  0  0  0  0  0  0  0  0
   58.0004   30.9922   47.1537 H   0  0  0  0  0  0  0  0  0  0  0  0
   56.7515   33.1354   46.9131 H   0  0  0  0  0  0  0  0  0  0  0  0
   57.9673   35.2381   46.3423 H   0  0  0  0  0  0  0  0  0  0  0  0
   60.4384   35.1980   46.0018 H   0  0  0  0  0  0  0  0  0  0  0  0
   61.6974   33.0583   46.2232 H   0  0  0  0  0  0  0  0  0  0  0  0
  1  2  1  0
  2  3  1  0
  3  4  1  0
  4  5  1  0
  5  6  2  0
  5  7  1  0
  7  8  1  0
  8  9  1  0
  9 10  2  0
  9 11  1  0
 11 12  1  0
 12 13  1  0
 13 14  1  0
 14 15  1  0
 15 16  1  0
 16 17  2  0
 17 18  1  0
 18 19  2  0
 19 20  1  0
 20 21  2  0
 21 22  1  0
 14 23  1  0
 23 24  1  0
 24 25  1  0
 25 26  2  0
 26 27  1  0
 27 28  2  0
 28 29  1  0
 29 30  2  0
  8  3  2  0
 24 11  1  0
 30 25  1  0
 21 16  1  0
  1 31  1  0
  1 32  1  0
  1 33  1  0
  2 34  1  0
  2 35  1  0
 12 36  1  0
 12 37  1  0
 13 38  1  0
 13 39  1  0
 15 40  1  0
 15 41  1  0
 17 42  1  0
 18 43  1  0
 19 44  1  0
 20 45  1  0
 23 46  1  0
 23 47  1  0
 24 48  1  6
 26 49  1  0
 27 50  1  0
 28 51  1  0
 29 52  1  0
 30 53  1  0
M  CHG  2   4  -1   7  -1
M  END
>  <UniqueID>  (30) 
29

>  <SMILES>  (30) 
CCc1[n-]c(=O)[n-]c1C(=O)N1CCN(Cc2ccccc2F)C[C@@H]1c1ccccc1

>  <Energy>  (30) 
93.84599592693098

>  <Genealogy>  (30) 
CCc1[n-]c(=O)[n-]c1C(=O)N1CCN(Cc2ccccc2F)CC1c1ccccc1 (protonated)
CCc1[n-]c(=O)[n-]c1C(=O)N1CCN(Cc2ccccc2F)C[C@@H]1c1ccccc1 (chirality)
CCc1[n-]c(=O)[n-]c1C(=O)N1CCN(Cc2ccccc2F)C[C@@H]1c1ccccc1 (3D coordinates assigned)
CCc1[n-]c(=O)[n-]c1C(=O)N1CCN(Cc2ccccc2F)C[C@@H]1c1ccccc1 (nonaromatic ring conformer: 93.84599592693098 kcal/mol)

>  <smiles>  (30) 
CCc1[nH]c(=O)[nH]c1C(=O)N1CCN(Cc2ccccc2F)CC1c1ccccc1

>  <score_type>  (30) 
oracle

>  <origin>  (30) 
adg

>  <m_score__min__energy>  (30) 
-13.130000000000001

>  <m_primary>  (30) 
energy

$$$$
30:0
     RDKit          3D

 28 29  0  0  0  0  0  0  0  0999 V2000
   55.9160   28.4760   45.1740 N   0  0  0  0  0  0  0  0  0  0  0  0
   56.1460   29.6870   44.4510 C   0  0  0  0  0  0  0  0  0  0  0  0
   55.4650   29.9250   43.4170 O   0  0  0  0  0  0  0  0  0  0  0  0
   57.1960   30.6450   44.8710 C   0  0  0  0  0  0  0  0  0  0  0  0
   57.0600   31.9990   44.5120 C   0  0  0  0  0  0  0  0  0  0  0  0
   58.0310   32.9320   44.8810 C   0  0  0  0  0  0  0  0  0  0  0  0
   59.1390   32.5310   45.6250 C   0  0  0  0  0  0  0  0  0  0  0  0
   59.2800   31.1950   46.0070 C   0  0  0  0  0  0  0  0  0  0  0  0
   58.3200   30.2370   45.6260 C   0  0  0  0  0  0  0  0  0  0  0  0
   58.4110   28.8820   46.0950 N   0  0  0  0  0  0  0  0  0  0  0  0
   58.6840   27.7270   45.2940 C   0  0  0  0  0  0  0  0  0  0  0  0
   58.4810   27.7420   44.0500 O   0  0  0  0  0  0  0  0  0  0  0  0
   59.1740   26.4740   45.9500 C   0  0  0  0  0  0  0  0  0  0  0  0
   58.1640   26.0800   47.4180 S   0  0  0  0  0  0  0  0  0  0  0  0
   56.7000   25.6510   46.4780 C   0  0  0  0  0  0  0  0  0  0  0  0
   56.6120   24.5610   45.6940 N   0  0  0  0  0  0  0  0  0  0  0  0
   55.3600   24.6720   45.2110 C   0  0  0  0  0  0  0  0  0  0  0  0
   54.7260   25.7630   45.6790 N   0  0  0  0  0  0  0  0  0  0  0  0
   55.5730   26.3830   46.4800 N   0  0  0  0  0  0  0  0  0  0  0  0
   55.1380   27.8400   44.8930 H   0  0  0  0  0  0  0  0  0  0  0  0
   56.5680   28.1650   45.9280 H   0  0  0  0  0  0  0  0  0  0  0  0
   56.1814   32.3249   43.9359 H   0  0  0  0  0  0  0  0  0  0  0  0
   57.9212   33.9854   44.5839 H   0  0  0  0  0  0  0  0  0  0  0  0
   59.9037   33.2678   45.9119 H   0  0  0  0  0  0  0  0  0  0  0  0
   60.1474   30.8885   46.6100 H   0  0  0  0  0  0  0  0  0  0  0  0
   59.1100   25.6420   45.2333 H   0  0  0  0  0  0  0  0  0  0  0  0
   60.2166   26.6241   46.2669 H   0  0  0  0  0  0  0  0  0  0  0  0
   54.9068   23.9526   44.5131 H   0  0  0  0  0  0  0  0  0  0  0  0
  1  2  1  0
  2  3  2  0
  2  4  1  0
  4  5  2  0
  5  6  1  0
  6  7  2  0
  7  8  1  0
  8  9  2  0
  9 10  1  0
 10 11  1  0
 11 12  2  0
 11 13  1  0
 13 14  1  0
 14 15  1  0
 15 16  1  0
 16 17  2  0
 17 18  1  0
 18 19  1  0
  9  4  1  0
 19 15  2  0
  1 20  1  0
  1 21  1  0
  5 22  1  0
  6 23  1  0
  7 24  1  0
  8 25  1  0
 13 26  1  0
 13 27  1  0
 17 28  1  0
M  CHG  2  10  -1  18  -1
M  END
>  <UniqueID>  (31) 
30

>  <SMILES>  (31) 
NC(=O)c1ccccc1[N-]C(=O)CSc1nc[n-]n1

>  <Energy>  (31) 
62.17311839941639

>  <Genealogy>  (31) 
NC(=O)c1ccccc1[N-]C(=O)CSc1nc[n-]n1 (protonated)
NC(=O)c1ccccc1[N-]C(=O)CSc1nc[n-]n1 (3D coordinates assigned)
NC(=O)c1ccccc1[N-]C(=O)CSc1nc[n-]n1 (optimized conformer: 62.17311839941639 kcal/mol)

>  <smiles>  (31) 
NC(=O)c1ccccc1NC(=O)CSc1nc[nH]n1

>  <score_type>  (31) 
oracle

>  <origin>  (31) 
adg

>  <m_score__min__energy>  (31) 
-9.7100000000000009

>  <m_primary>  (31) 
energy

$$$$
31:0
     RDKit          3D

 38 39  0  0  0  0  0  0  0  0999 V2000
   63.4590   33.1520   47.1560 C   0  0  0  0  0  0  0  0  0  0  0  0
   62.4320   34.0440   46.7420 O   0  0  0  0  0  0  0  0  0  0  0  0
   61.0800   33.8260   47.0270 C   0  0  0  0  0  0  0  0  0  0  0  0
   60.1490   33.8320   45.9840 C   0  0  0  0  0  0  0  0  0  0  0  0
   58.7930   33.6110   46.2640 C   0  0  0  0  0  0  0  0  0  0  0  0
   57.7680   33.6320   45.1630 C   0  0  0  0  0  0  0  0  0  0  0  0
   57.0940   32.3370   45.0710 N   0  0  0  0  0  0  0  0  0  0  0  0
   57.0280   31.5890   43.8460 C   0  0  0  0  0  0  0  0  0  0  0  0
   57.5840   32.0440   42.8110 O   0  0  0  0  0  0  0  0  0  0  0  0
   56.3200   30.2870   43.8090 C   0  0  0  0  0  0  0  0  0  0  0  0
   55.9350   29.8360   42.6990 O   0  0  0  0  0  0  0  0  0  0  0  0
   56.0520   29.5060   44.9830 N   0  0  0  0  0  0  0  0  0  0  0  0
   56.6820   28.2430   45.3460 C   0  0  0  0  0  0  0  0  0  0  0  0
   57.9050   28.5170   46.1820 C   0  0  0  0  0  0  0  0  0  0  0  0
   58.5160   29.7820   46.1180 C   0  0  0  0  0  0  0  0  0  0  0  0
   59.6670   30.0500   46.8630 C   0  0  0  0  0  0  0  0  0  0  0  0
   60.2250   29.0580   47.6720 C   0  0  0  0  0  0  0  0  0  0  0  0
   59.6360   27.7940   47.7340 C   0  0  0  0  0  0  0  0  0  0  0  0
   58.4830   27.5120   46.9900 C   0  0  0  0  0  0  0  0  0  0  0  0
   57.7980   25.8930   47.0860 Cl  0  0  0  0  0  0  0  0  0  0  0  0
   58.3940   33.3970   47.5910 C   0  0  0  0  0  0  0  0  0  0  0  0
   59.3540   33.3980   48.6060 C   0  0  0  0  0  0  0  0  0  0  0  0
   60.6620   33.6110   48.3060 N   0  0  0  0  0  0  0  0  0  0  0  0
   63.4959   33.1200   48.2549 H   0  0  0  0  0  0  0  0  0  0  0  0
   63.2489   32.1449   46.7667 H   0  0  0  0  0  0  0  0  0  0  0  0
   64.4268   33.5011   46.7667 H   0  0  0  0  0  0  0  0  0  0  0  0
   60.4784   34.0091   44.9495 H   0  0  0  0  0  0  0  0  0  0  0  0
   57.0239   34.4139   45.3750 H   0  0  0  0  0  0  0  0  0  0  0  0
   58.2731   33.8407   44.2084 H   0  0  0  0  0  0  0  0  0  0  0  0
   56.6540   31.9530   45.9380 H   0  0  0  0  0  0  0  0  0  0  0  0
   55.9726   27.6312   45.9226 H   0  0  0  0  0  0  0  0  0  0  0  0
   56.9737   27.7019   44.4338 H   0  0  0  0  0  0  0  0  0  0  0  0
   58.0849   30.5654   45.4773 H   0  0  0  0  0  0  0  0  0  0  0  0
   60.1346   31.0444   46.8122 H   0  0  0  0  0  0  0  0  0  0  0  0
   61.1291   29.2727   48.2607 H   0  0  0  0  0  0  0  0  0  0  0  0
   60.0799   27.0147   48.3709 H   0  0  0  0  0  0  0  0  0  0  0  0
   57.3336   33.2297   47.8310 H   0  0  0  0  0  0  0  0  0  0  0  0
   59.0506   33.2261   49.6493 H   0  0  0  0  0  0  0  0  0  0  0  0
  1  2  1  0
  2  3  1  0
  3  4  2  0
  4  5  1  0
  5  6  1  0
  6  7  1  0
  7  8  1  0
  8  9  2  0
  8 10  1  0
 10 11  2  0
 10 12  1  0
 12 13  1  0
 13 14  1  0
 14 15  2  0
 15 16  1  0
 16 17  2  0
 17 18  1  0
 18 19  2  0
 19 20  1  0
  5 21  2  0
 21 22  1  0
 22 23  2  0
 23  3  1  0
 19 14  1  0
  1 24  1  0
  1 25  1  0
  1 26  1  0
  4 27  1  0
  6 28  1  0
  6 29  1  0
  7 30  1  0
 13 31  1  0
 13 32  1  0
 15 33  1  0
 16 34  1  0
 17 35  1  0
 18 36  1  0
 21 37  1  0
 22 38  1  0
M  CHG  1  12  -1
M  END
>  <UniqueID>  (32) 
31

>  <SMILES>  (32) 
COc1cc(CNC(=O)C(=O)[N-]Cc2ccccc2Cl)ccn1

>  <Energy>  (32) 
34.56345172342931

>  <Genealogy>  (32) 
COc1cc(CNC(=O)C(=O)[N-]Cc2ccccc2Cl)ccn1 (protonated)
COc1cc(CNC(=O)C(=O)[N-]Cc2ccccc2Cl)ccn1 (3D coordinates assigned)
COc1cc(CNC(=O)C(=O)[N-]Cc2ccccc2Cl)ccn1 (optimized conformer: 34.56345172342931 kcal/mol)

>  <smiles>  (32) 
COc1cc(CNC(=O)C(=O)NCc2ccccc2Cl)ccn1

>  <score_type>  (32) 
oracle

>  <origin>  (32) 
adg

>  <m_score__min__energy>  (32) 
-9.1199999999999992

>  <m_primary>  (32) 
energy

$$$$
32:0
     RDKit          3D

 46 48  0  0  0  0  0  0  0  0999 V2000
   57.6860   31.7980   46.0450 O   0  0  0  0  0  0  0  0  0  0  0  0
   57.3610   32.3380   44.9540 C   0  0  0  0  0  0  0  0  0  0  0  0
   57.4050   33.8090   44.8450 C   0  0  0  0  0  0  0  0  0  0  0  0
   58.4840   34.5760   45.0660 C   0  0  0  0  0  0  0  0  0  0  0  0
   59.4460   34.3940   46.1730 C   0  0  0  0  0  0  0  0  0  0  0  0
   59.0910   34.6810   47.5010 C   0  0  0  0  0  0  0  0  0  0  0  0
   60.0070   34.4720   48.5350 C   0  0  0  0  0  0  0  0  0  0  0  0
   61.2800   33.9560   48.2680 C   0  0  0  0  0  0  0  0  0  0  0  0
   62.1600   33.7760   49.3430 O   0  0  0  0  0  0  0  0  0  0  0  0
   62.3330   32.3220   50.2290 S   0  0  0  0  0  0  0  0  0  0  0  0
   63.6410   31.6770   49.8660 O   0  0  0  0  0  0  0  0  0  0  0  0
   62.3150   32.6100   51.7040 O   0  0  0  0  0  0  0  0  0  0  0  0
   60.9900   31.2460   49.8320 C   0  0  0  0  0  0  0  0  0  0  0  0
   61.2130   30.1320   49.0070 C   0  0  0  0  0  0  0  0  0  0  0  0
   60.1620   29.2690   48.6840 C   0  0  0  0  0  0  0  0  0  0  0  0
   58.8800   29.5110   49.1810 C   0  0  0  0  0  0  0  0  0  0  0  0
   58.6470   30.6140   50.0050 C   0  0  0  0  0  0  0  0  0  0  0  0
   59.6930   31.4850   50.3370 C   0  0  0  0  0  0  0  0  0  0  0  0
   59.3410   32.8530   51.3870 Cl  0  0  0  0  0  0  0  0  0  0  0  0
   61.6230   33.6360   46.9400 C   0  0  0  0  0  0  0  0  0  0  0  0
   60.7080   33.8440   45.9040 C   0  0  0  0  0  0  0  0  0  0  0  0
   57.0280   31.5230   43.8260 N   0  0  0  0  0  0  0  0  0  0  0  0
   56.4370   29.9040   43.9810 S   0  0  0  0  0  0  0  0  0  0  0  0
   55.1760   29.9040   44.8000 O   0  0  0  0  0  0  0  0  0  0  0  0
   56.1170   29.3630   42.6170 O   0  0  0  0  0  0  0  0  0  0  0  0
   57.6680   28.8960   44.7340 C   0  0  0  0  0  0  0  0  0  0  0  0
   57.3010   27.8170   45.5530 C   0  0  0  0  0  0  0  0  0  0  0  0
   58.2850   27.0340   46.1650 C   0  0  0  0  0  0  0  0  0  0  0  0
   59.6380   27.3250   45.9630 C   0  0  0  0  0  0  0  0  0  0  0  0
   60.8720   26.3440   46.7340 Cl  0  0  0  0  0  0  0  0  0  0  0  0
   60.0070   28.4020   45.1490 C   0  0  0  0  0  0  0  0  0  0  0  0
   59.0240   29.1870   44.5380 C   0  0  0  0  0  0  0  0  0  0  0  0
   56.4743   34.3204   44.5582 H   0  0  0  0  0  0  0  0  0  0  0  0
   58.6668   35.4060   44.3677 H   0  0  0  0  0  0  0  0  0  0  0  0
   58.0881   35.0718   47.7280 H   0  0  0  0  0  0  0  0  0  0  0  0
   59.7245   34.7156   49.5698 H   0  0  0  0  0  0  0  0  0  0  0  0
   62.2211   29.9372   48.6124 H   0  0  0  0  0  0  0  0  0  0  0  0
   60.3452   28.3981   48.0374 H   0  0  0  0  0  0  0  0  0  0  0  0
   58.0533   28.8326   48.9234 H   0  0  0  0  0  0  0  0  0  0  0  0
   57.6358   30.8002   50.3959 H   0  0  0  0  0  0  0  0  0  0  0  0
   62.6166   33.2200   46.7168 H   0  0  0  0  0  0  0  0  0  0  0  0
   60.9790   33.5750   44.8724 H   0  0  0  0  0  0  0  0  0  0  0  0
   56.2375   27.5867   45.7138 H   0  0  0  0  0  0  0  0  0  0  0  0
   57.9945   26.1885   46.8059 H   0  0  0  0  0  0  0  0  0  0  0  0
   61.0710   28.6312   44.9897 H   0  0  0  0  0  0  0  0  0  0  0  0
   59.3165   30.0353   43.9017 H   0  0  0  0  0  0  0  0  0  0  0  0
  1  2  2  0
  2  3  1  0
  3  4  2  3
  4  5  1  0
  5  6  2  0
  6  7  1  0
  7  8  2  0
  8  9  1  0
  9 10  1  0
 10 11  2  0
 10 12  2  0
 10 13  1  0
 13 14  2  0
 14 15  1  0
 15 16  2  0
 16 17  1  0
 17 18  2  0
 18 19  1  0
  8 20  1  0
 20 21  2  0
  2 22  1  0
 22 23  1  0
 23 24  2  0
 23 25  2  0
 23 26  1  0
 26 27  2  0
 27 28  1  0
 28 29  2  0
 29 30  1  0
 29 31  1  0
 31 32  2  0
 21  5  1  0
 32 26  1  0
 18 13  1  0
  3 33  1  0
  4 34  1  0
  6 35  1  0
  7 36  1  0
 14 37  1  0
 15 38  1  0
 16 39  1  0
 17 40  1  0
 20 41  1  0
 21 42  1  0
 27 43  1  0
 28 44  1  0
 31 45  1  0
 32 46  1  0
M  CHG  1  22  -1
M  END
>  <UniqueID>  (33) 
32

>  <SMILES>  (33) 
O=C(C=Cc1ccc(OS(=O)(=O)c2ccccc2Cl)cc1)[N-]S(=O)(=O)c1ccc(Cl)cc1

>  <Energy>  (33) 
59.87756689600152

>  <Genealogy>  (33) 
O=C(C=Cc1ccc(OS(=O)(=O)c2ccccc2Cl)cc1)[N-]S(=O)(=O)c1ccc(Cl)cc1 (protonated)
O=C(C=Cc1ccc(OS(=O)(=O)c2ccccc2Cl)cc1)[N-]S(=O)(=O)c1ccc(Cl)cc1 (3D coordinates assigned)
O=C(C=Cc1ccc(OS(=O)(=O)c2ccccc2Cl)cc1)[N-]S(=O)(=O)c1ccc(Cl)cc1 (optimized conformer: 59.87756689600152 kcal/mol)

>  <smiles>  (33) 
O=C(C=Cc1ccc(OS(=O)(=O)c2ccccc2Cl)cc1)NS(=O)(=O)c1ccc(Cl)cc1

>  <score_type>  (33) 
oracle

>  <origin>  (33) 
adg

>  <m_score__min__energy>  (33) 
-11.9

>  <m_primary>  (33) 
energy

$$$$
33:0
     RDKit          3D

 53 55  0  0  0  0  0  0  0  0999 V2000
   51.0090   32.7300   51.6260 O   0  0  0  0  0  0  0  0  0  0  0  0
   51.2490   31.9740   50.6470 C   0  0  0  0  0  0  0  0  0  0  0  0
   50.6500   32.2290   49.4190 O   0  0  0  0  0  0  0  0  0  0  0  0
   52.1440   30.7860   50.8150 C   0  0  0  0  0  0  0  0  0  0  0  0
   53.5480   31.1940   51.2790 C   0  0  0  0  0  0  0  0  0  0  0  0
   54.1850   30.1610   52.1800 C   0  0  0  0  0  0  0  0  0  0  0  0
   53.9200   28.9410   51.9980 O   0  0  0  0  0  0  0  0  0  0  0  0
   54.9640   30.5270   53.3230 N   0  0  0  0  0  0  0  0  0  0  0  0
   56.2960   31.0500   53.2990 C   0  0  0  0  0  0  0  0  0  0  0  0
   57.1450   30.9170   54.4060 C   0  0  0  0  0  0  0  0  0  0  0  0
   58.4420   31.4330   54.3590 C   0  0  0  0  0  0  0  0  0  0  0  0
   58.9030   32.0880   53.2120 C   0  0  0  0  0  0  0  0  0  0  0  0
   60.5640   32.6670   53.1860 Cl  0  0  0  0  0  0  0  0  0  0  0  0
   58.0510   32.2400   52.0960 C   0  0  0  0  0  0  0  0  0  0  0  0
   58.5170   32.8900   50.9000 N   0  0  0  0  0  0  0  0  0  0  0  0
   59.3180   32.0230   49.6280 S   0  0  0  0  0  0  0  0  0  0  0  0
   60.7390   31.7350   50.0300 O   0  0  0  0  0  0  0  0  0  0  0  0
   58.6090   30.7190   49.3920 O   0  0  0  0  0  0  0  0  0  0  0  0
   59.2650   32.9740   48.1450 C   0  0  0  0  0  0  0  0  0  0  0  0
   59.5990   34.3350   48.1540 C   0  0  0  0  0  0  0  0  0  0  0  0
   59.4940   35.0890   46.9840 C   0  0  0  0  0  0  0  0  0  0  0  0
   59.0650   34.4900   45.7960 C   0  0  0  0  0  0  0  0  0  0  0  0
   58.7440   33.1230   45.7680 C   0  0  0  0  0  0  0  0  0  0  0  0
   58.2930   32.4850   44.5100 C   0  0  0  0  0  0  0  0  0  0  0  0
   58.4010   33.1150   43.4210 O   0  0  0  0  0  0  0  0  0  0  0  0
   57.7200   31.1650   44.5110 N   0  0  0  0  0  0  0  0  0  0  0  0
   56.6600   30.8360   43.5550 C   0  0  0  0  0  0  0  0  0  0  0  0
   55.8140   29.6860   44.1070 C   0  0  0  0  0  0  0  0  0  0  0  0
   56.6300   28.5870   44.4700 O   0  0  0  0  0  0  0  0  0  0  0  0
   57.4890   28.9550   45.5360 C   0  0  0  0  0  0  0  0  0  0  0  0
   58.4680   30.0480   45.0950 C   0  0  0  0  0  0  0  0  0  0  0  0
   58.8330   32.3740   46.9560 C   0  0  0  0  0  0  0  0  0  0  0  0
   56.7380   31.7420   52.1680 C   0  0  0  0  0  0  0  0  0  0  0  0
   51.7035   30.1109   51.5634 H   0  0  0  0  0  0  0  0  0  0  0  0
   52.2371   30.2864   49.8394 H   0  0  0  0  0  0  0  0  0  0  0  0
   54.1860   31.3306   50.3934 H   0  0  0  0  0  0  0  0  0  0  0  0
   53.4508   32.1253   51.8562 H   0  0  0  0  0  0  0  0  0  0  0  0
   56.7896   30.4057   55.3128 H   0  0  0  0  0  0  0  0  0  0  0  0
   59.1054   31.3237   55.2296 H   0  0  0  0  0  0  0  0  0  0  0  0
   58.5280   33.9330   50.8440 H   0  0  0  0  0  0  0  0  0  0  0  0
   59.9443   34.8097   49.0843 H   0  0  0  0  0  0  0  0  0  0  0  0
   59.7498   36.1588   46.9969 H   0  0  0  0  0  0  0  0  0  0  0  0
   58.9785   35.0918   44.8793 H   0  0  0  0  0  0  0  0  0  0  0  0
   56.0217   31.7179   43.3974 H   0  0  0  0  0  0  0  0  0  0  0  0
   57.1103   30.5335   42.5981 H   0  0  0  0  0  0  0  0  0  0  0  0
   55.2657   30.0359   44.9941 H   0  0  0  0  0  0  0  0  0  0  0  0
   55.1122   29.3595   43.3254 H   0  0  0  0  0  0  0  0  0  0  0  0
   56.8832   29.3305   46.3738 H   0  0  0  0  0  0  0  0  0  0  0  0
   58.0650   28.0704   45.8454 H   0  0  0  0  0  0  0  0  0  0  0  0
   59.0378   30.4035   45.9662 H   0  0  0  0  0  0  0  0  0  0  0  0
   59.1620   29.6391   44.3459 H   0  0  0  0  0  0  0  0  0  0  0  0
   58.5609   31.3082   46.9505 H   0  0  0  0  0  0  0  0  0  0  0  0
   56.0503   31.8990   51.3239 H   0  0  0  0  0  0  0  0  0  0  0  0
  1  2  2  0
  2  3  1  0
  2  4  1  0
  4  5  1  0
  5  6  1  0
  6  7  2  0
  6  8  1  0
  8  9  1  0
  9 10  2  0
 10 11  1  0
 11 12  2  0
 12 13  1  0
 12 14  1  0
 14 15  1  0
 15 16  1  0
 16 17  2  0
 16 18  2  0
 16 19  1  0
 19 20  2  0
 20 21  1  0
 21 22  2  0
 22 23  1  0
 23 24  1  0
 24 25  2  0
 24 26  1  0
 26 27  1  0
 27 28  1  0
 28 29  1  0
 29 30  1  0
 30 31  1  0
 23 32  2  0
 14 33  2  0
 33  9  1  0
 32 19  1  0
 31 26  1  0
  4 34  1  0
  4 35  1  0
  5 36  1  0
  5 37  1  0
 10 38  1  0
 11 39  1  0
 15 40  1  0
 20 41  1  0
 21 42  1  0
 22 43  1  0
 27 44  1  0
 27 45  1  0
 28 46  1  0
 28 47  1  0
 30 48  1  0
 30 49  1  0
 31 50  1  0
 31 51  1  0
 32 52  1  0
 33 53  1  0
M  CHG  2   3  -1   8  -1
M  END
>  <UniqueID>  (34) 
33

>  <SMILES>  (34) 
O=C([O-])CCC(=O)[N-]c1ccc(Cl)c(NS(=O)(=O)c2cccc(C(=O)N3CCOCC3)c2)c1

>  <Energy>  (34) 
65.6720754240741

>  <Genealogy>  (34) 
O=C([O-])CCC(=O)[N-]c1ccc(Cl)c(NS(=O)(=O)c2cccc(C(=O)N3CCOCC3)c2)c1 (protonated)
O=C([O-])CCC(=O)[N-]c1ccc(Cl)c(NS(=O)(=O)c2cccc(C(=O)N3CCOCC3)c2)c1 (3D coordinates assigned)
O=C([O-])CCC(=O)[N-]c1ccc(Cl)c(NS(=O)(=O)c2cccc(C(=O)N3CCOCC3)c2)c1 (nonaromatic ring conformer: 65.6720754240741 kcal/mol)

>  <smiles>  (34) 
O=C(O)CCC(=O)Nc1ccc(Cl)c(NS(=O)(=O)c2cccc(C(=O)N3CCOCC3)c2)c1

>  <score_type>  (34) 
oracle

>  <origin>  (34) 
adg

>  <m_score__min__energy>  (34) 
-14.85

>  <m_primary>  (34) 
energy

$$$$
34:0
     RDKit          3D

 35 37  0  0  0  0  0  0  0  0999 V2000
   57.7358   32.0755   46.4208 H   0  0  0  0  0  0  0  0  0  0  0  0
   58.1620   32.7550   45.6680 C   0  0  0  0  0  0  0  0  0  0  0  0
   58.7830   33.8730   46.0680 C   0  0  0  0  0  0  0  0  0  0  0  0
   58.3794   34.8389   45.7301 H   0  0  0  0  0  0  0  0  0  0  0  0
   59.9830   33.8840   46.9400 C   0  0  0  0  0  0  0  0  0  0  0  0
   59.8150   34.1280   48.3120 C   0  0  0  0  0  0  0  0  0  0  0  0
   58.8057   34.2982   48.7149 H   0  0  0  0  0  0  0  0  0  0  0  0
   60.9170   34.1570   49.1720 C   0  0  0  0  0  0  0  0  0  0  0  0
   60.7677   34.3396   50.2464 H   0  0  0  0  0  0  0  0  0  0  0  0
   62.2150   33.9540   48.6710 C   0  0  0  0  0  0  0  0  0  0  0  0
   63.3590   33.9700   49.4850 O   0  0  0  0  0  0  0  0  0  0  0  0
   64.3080   32.9090   49.6070 C   0  0  0  0  0  0  0  0  0  0  0  0
   64.9037   33.0607   50.5192 H   0  0  0  0  0  0  0  0  0  0  0  0
   64.9590   32.9137   48.7204 H   0  0  0  0  0  0  0  0  0  0  0  0
   63.6020   31.5600   49.6890 C   0  0  0  0  0  0  0  0  0  0  0  0
   63.4581   31.2850   50.7443 H   0  0  0  0  0  0  0  0  0  0  0  0
   62.6235   31.6274   49.1909 H   0  0  0  0  0  0  0  0  0  0  0  0
   64.2151   30.7944   49.1909 H   0  0  0  0  0  0  0  0  0  0  0  0
   62.3850   33.7220   47.3010 C   0  0  0  0  0  0  0  0  0  0  0  0
   63.3959   33.5606   46.8984 H   0  0  0  0  0  0  0  0  0  0  0  0
   61.2860   33.6930   46.4390 C   0  0  0  0  0  0  0  0  0  0  0  0
   61.4387   33.5201   45.3635 H   0  0  0  0  0  0  0  0  0  0  0  0
   58.0390   32.4180   44.2350 C   0  0  0  0  0  0  0  0  0  0  0  0
   58.4380   33.2190   43.2710 O   0  0  0  0  0  0  0  0  0  0  0  0
   58.1970   32.6510   42.1110 C   0  0  0  0  0  0  0  0  0  0  0  0
   58.4274   33.0922   41.1300 H   0  0  0  0  0  0  0  0  0  0  0  0
   57.6120   31.4190   42.3090 C   0  0  0  0  0  0  0  0  0  0  0  0
   57.2922   30.7071   41.5337 H   0  0  0  0  0  0  0  0  0  0  0  0
   57.5080   31.2580   43.6770 C   0  0  0  0  0  0  0  0  0  0  0  0
   56.9420   30.0680   44.3430 C   0  0  0  0  0  0  0  0  0  0  0  0
   55.6390   29.9050   44.6390 N   0  0  0  0  0  0  0  0  0  0  0  0
   55.5240   28.7280   45.2280 N   0  0  0  0  0  0  0  0  0  0  0  0
   56.7620   28.2080   45.2740 C   0  0  0  0  0  0  0  0  0  0  0  0
   57.1050   26.7500   45.9240 S   0  0  0  0  0  0  0  0  0  0  0  0
   57.6920   29.0160   44.7290 N   0  0  0  0  0  0  0  0  0  0  0  0
  1  2  1  0
  2  3  2  0
  3  4  1  0
  3  5  1  0
  5  6  2  0
  6  7  1  0
  6  8  1  0
  8  9  1  0
  8 10  2  0
 10 11  1  0
 11 12  1  0
 12 13  1  0
 12 14  1  0
 12 15  1  0
 15 16  1  0
 15 17  1  0
 15 18  1  0
 10 19  1  0
 19 20  1  0
 19 21  2  0
 21 22  1  0
  2 23  1  0
 23 24  1  0
 24 25  1  0
 25 26  1  0
 25 27  2  0
 27 28  1  0
 27 29  1  0
 29 30  1  0
 30 31  2  0
 31 32  1  0
 32 33  1  0
 33 34  2  0
 33 35  1  0
 21  5  1  0
 29 23  2  0
 35 30  1  0
M  CHG  2  32  -1  35  -1
M  END
>  <UniqueID>  (35) 
34

>  <SMILES>  (35) 
CCOc1ccc(/C=C/c2occc2-c2n[n-]c(=S)[n-]2)cc1

>  <Energy>  (35) 
96.26455257085895

>  <Genealogy>  (35) 
CCOc1ccc(C=Cc2occc2-c2n[n-]c(=S)[n-]2)cc1 (protonated)
CCOc1ccc(/C=C/c2occc2-c2n[n-]c(=S)[n-]2)cc1 (cis-trans isomerization)
CCOc1ccc(/C=C/c2occc2-c2n[n-]c(=S)[n-]2)cc1 (3D coordinates assigned)
CCOc1ccc(/C=C/c2occc2-c2n[n-]c(=S)[n-]2)cc1 (optimized conformer: 96.26455257085895 kcal/mol)

>  <smiles>  (35) 
CCOc1ccc(C=Cc2occc2-c2n[nH]c(=S)[nH]2)cc1

>  <score_type>  (35) 
oracle

>  <origin>  (35) 
adg

>  <m_score__min__energy>  (35) 
-11.23

>  <m_primary>  (35) 
energy

$$$$
35:0
     RDKit          3D

 50 53  0  0  0  0  0  0  0  0999 V2000
   59.6780   28.0770   47.3400 C   0  0  0  0  0  0  0  0  0  0  0  0
   59.0400   28.7850   46.3950 C   0  0  0  0  0  0  0  0  0  0  0  0
   58.0820   28.3160   45.4810 C   0  0  0  0  0  0  0  0  0  0  0  0
   57.6880   27.0640   45.1740 C   0  0  0  0  0  0  0  0  0  0  0  0
   57.2340   26.0480   46.1360 C   0  0  0  0  0  0  0  0  0  0  0  0
   58.0410   25.1770   46.7690 N   0  0  0  0  0  0  0  0  0  0  0  0
   57.1770   24.3670   47.4190 C   0  0  0  0  0  0  0  0  0  0  0  0
   57.5580   23.4150   48.1490 O   0  0  0  0  0  0  0  0  0  0  0  0
   55.8720   24.6510   47.2160 N   0  0  0  0  0  0  0  0  0  0  0  0
   55.9270   25.7080   46.3890 C   0  0  0  0  0  0  0  0  0  0  0  0
   54.8080   26.3480   45.8690 O   0  0  0  0  0  0  0  0  0  0  0  0
   57.5620   29.4380   44.8550 C   0  0  0  0  0  0  0  0  0  0  0  0
   58.2460   30.5280   45.3520 C   0  0  0  0  0  0  0  0  0  0  0  0
   58.0240   31.9470   44.9260 C   0  0  0  0  0  0  0  0  0  0  0  0
   59.1510   30.1320   46.2730 N   0  0  0  0  0  0  0  0  0  0  0  0
   59.9930   31.0100   47.0380 C   0  0  0  0  0  0  0  0  0  0  0  0
   61.3820   30.9950   46.8470 C   0  0  0  0  0  0  0  0  0  0  0  0
   62.2050   31.8360   47.6000 C   0  0  0  0  0  0  0  0  0  0  0  0
   61.6520   32.6950   48.5640 C   0  0  0  0  0  0  0  0  0  0  0  0
   62.5260   33.5930   49.3520 C   0  0  0  0  0  0  0  0  0  0  0  0
   62.2660   34.8270   49.3950 O   0  0  0  0  0  0  0  0  0  0  0  0
   63.6690   33.0880   50.0640 N   0  0  0  0  0  0  0  0  0  0  0  0
   64.6450   32.2410   49.3540 C   0  0  0  0  0  0  0  0  0  0  0  0
   65.8930   31.9520   50.2020 C   0  0  0  0  0  0  0  0  0  0  0  0
   66.3590   33.2060   50.8910 C   0  0  0  0  0  0  0  0  0  0  0  0
   67.5510   33.4540   50.9680 O   0  0  0  0  0  0  0  0  0  0  0  0
   65.3580   34.1400   51.5150 C   0  0  0  0  0  0  0  0  0  0  0  0
   63.9430   33.5620   51.4290 C   0  0  0  0  0  0  0  0  0  0  0  0
   60.2580   32.7170   48.7420 C   0  0  0  0  0  0  0  0  0  0  0  0
   59.4350   31.8760   47.9880 C   0  0  0  0  0  0  0  0  0  0  0  0
   58.0900   31.9170   48.1690 F   0  0  0  0  0  0  0  0  0  0  0  0
   60.4112   28.5699   47.9954 H   0  0  0  0  0  0  0  0  0  0  0  0
   59.4677   27.0039   47.4591 H   0  0  0  0  0  0  0  0  0  0  0  0
   57.7077   26.7773   44.1122 H   0  0  0  0  0  0  0  0  0  0  0  0
   54.3590   27.0990   46.3800 H   0  0  0  0  0  0  0  0  0  0  0  0
   56.7575   29.4559   44.1050 H   0  0  0  0  0  0  0  0  0  0  0  0
   57.9241   32.5857   45.8160 H   0  0  0  0  0  0  0  0  0  0  0  0
   58.8798   32.2875   44.3246 H   0  0  0  0  0  0  0  0  0  0  0  0
   57.1051   32.0098   44.3246 H   0  0  0  0  0  0  0  0  0  0  0  0
   61.8253   30.3185   46.1015 H   0  0  0  0  0  0  0  0  0  0  0  0
   63.2928   31.8254   47.4370 H   0  0  0  0  0  0  0  0  0  0  0  0
   64.1634   31.2861   49.0968 H   0  0  0  0  0  0  0  0  0  0  0  0
   64.9687   32.7835   48.4535 H   0  0  0  0  0  0  0  0  0  0  0  0
   65.6494   31.1916   50.9586 H   0  0  0  0  0  0  0  0  0  0  0  0
   66.6953   31.5862   49.5443 H   0  0  0  0  0  0  0  0  0  0  0  0
   65.6201   34.2947   52.5721 H   0  0  0  0  0  0  0  0  0  0  0  0
   65.3810   35.0949   50.9694 H   0  0  0  0  0  0  0  0  0  0  0  0
   63.8513   32.7201   52.1310 H   0  0  0  0  0  0  0  0  0  0  0  0
   63.2183   34.3481   51.6878 H   0  0  0  0  0  0  0  0  0  0  0  0
   59.8119   33.4005   49.4795 H   0  0  0  0  0  0  0  0  0  0  0  0
  1  2  2  0
  2  3  1  0
  3  4  2  3
  4  5  1  0
  5  6  1  0
  6  7  1  0
  7  8  2  0
  7  9  1  0
  9 10  1  0
 10 11  1  0
  3 12  1  0
 12 13  2  0
 13 14  1  0
 13 15  1  0
 15 16  1  0
 16 17  2  0
 17 18  1  0
 18 19  2  0
 19 20  1  0
 20 21  2  0
 20 22  1  0
 22 23  1  0
 23 24  1  0
 24 25  1  0
 25 26  2  0
 25 27  1  0
 27 28  1  0
 19 29  1  0
 29 30  2  0
 30 31  1  0
 15  2  1  0
 30 16  1  0
 10  5  2  0
 28 22  1  0
  1 32  1  0
  1 33  1  0
  4 34  1  0
 11 35  1  0
 12 36  1  0
 14 37  1  0
 14 38  1  0
 14 39  1  0
 17 40  1  0
 18 41  1  0
 23 42  1  0
 23 43  1  0
 24 44  1  0
 24 45  1  0
 27 46  1  0
 27 47  1  0
 28 48  1  0
 28 49  1  0
 29 50  1  0
M  CHG  2   6  -1   9  -1
M  END
>  <UniqueID>  (36) 
35

>  <SMILES>  (36) 
C=c1c(=Cc2[n-]c(=O)[n-]c2O)cc(C)n1-c1ccc(C(=O)N2CCC(=O)CC2)cc1F

>  <Energy>  (36) 
132.2844910444779

>  <Genealogy>  (36) 
C=c1c(=Cc2[n-]c(=O)[n-]c2O)cc(C)n1-c1ccc(C(=O)N2CCC(=O)CC2)cc1F (protonated)
C=c1c(=Cc2[n-]c(=O)[n-]c2O)cc(C)n1-c1ccc(C(=O)N2CCC(=O)CC2)cc1F (3D coordinates assigned)
C=c1c(=Cc2[n-]c(=O)[n-]c2O)cc(C)n1-c1ccc(C(=O)N2CCC(=O)CC2)cc1F (nonaromatic ring conformer: 132.2844910444779 kcal/mol)

>  <smiles>  (36) 
C=c1c(=Cc2[nH]c(=O)[nH]c2O)cc(C)n1-c1ccc(C(=O)N2CCC(=O)CC2)cc1F

>  <score_type>  (36) 
oracle

>  <origin>  (36) 
adg

>  <m_score__min__energy>  (36) 
-13.380000000000001

>  <m_primary>  (36) 
energy

$$$$
36:0
     RDKit          3D

 44 46  0  0  0  0  0  0  0  0999 V2000
   60.7000   27.2250   45.9490 O   0  0  0  0  0  0  0  0  0  0  0  0
   59.9850   28.1190   46.4810 C   0  0  0  0  0  0  0  0  0  0  0  0
   60.5030   28.8650   47.5900 N   0  0  0  0  0  0  0  0  0  0  0  0
   59.8130   29.9970   48.1980 C   0  0  0  0  0  0  0  0  0  0  0  0
   60.6920   31.2240   48.1710 C   0  0  0  0  0  0  0  0  0  0  0  0
   61.6880   31.3430   47.1860 C   0  0  0  0  0  0  0  0  0  0  0  0
   62.4990   32.4790   47.1330 C   0  0  0  0  0  0  0  0  0  0  0  0
   62.3230   33.5080   48.0590 C   0  0  0  0  0  0  0  0  0  0  0  0
   61.3350   33.4050   49.0400 C   0  0  0  0  0  0  0  0  0  0  0  0
   60.5160   32.2700   49.1040 C   0  0  0  0  0  0  0  0  0  0  0  0
   59.2820   32.1970   50.3570 Cl  0  0  0  0  0  0  0  0  0  0  0  0
   58.6210   28.3900   45.9490 C   0  0  0  0  0  0  0  0  0  0  0  0
   58.3780   29.5760   45.2330 C   0  0  0  0  0  0  0  0  0  0  0  0
   57.1040   29.8630   44.7260 C   0  0  0  0  0  0  0  0  0  0  0  0
   56.8580   31.1670   44.0060 C   0  0  0  0  0  0  0  0  0  0  0  0
   58.1400   32.0030   43.8840 C   0  0  0  0  0  0  0  0  0  0  0  0
   58.3580   32.8740   45.0940 C   0  0  0  0  0  0  0  0  0  0  0  0
   57.7870   32.5270   46.3300 C   0  0  0  0  0  0  0  0  0  0  0  0
   57.9500   33.3600   47.4410 C   0  0  0  0  0  0  0  0  0  0  0  0
   58.6770   34.5480   47.3250 C   0  0  0  0  0  0  0  0  0  0  0  0
   59.2430   34.9080   46.0980 C   0  0  0  0  0  0  0  0  0  0  0  0
   59.9620   36.0970   45.9950 O   0  0  0  0  0  0  0  0  0  0  0  0
   59.0810   34.0730   44.9830 C   0  0  0  0  0  0  0  0  0  0  0  0
   56.0660   28.9450   44.9570 C   0  0  0  0  0  0  0  0  0  0  0  0
   54.7780   29.1930   44.4930 O   0  0  0  0  0  0  0  0  0  0  0  0
   56.3120   27.8030   45.6470 N   0  0  0  0  0  0  0  0  0  0  0  0
   57.5400   27.5000   46.1420 C   0  0  0  0  0  0  0  0  0  0  0  0
   57.6900   26.4190   46.7710 O   0  0  0  0  0  0  0  0  0  0  0  0
   58.8882   30.2010   47.6385 H   0  0  0  0  0  0  0  0  0  0  0  0
   59.5752   29.7508   49.2434 H   0  0  0  0  0  0  0  0  0  0  0  0
   61.8296   30.5360   46.4520 H   0  0  0  0  0  0  0  0  0  0  0  0
   63.2774   32.5626   46.3603 H   0  0  0  0  0  0  0  0  0  0  0  0
   62.9634   34.4013   48.0160 H   0  0  0  0  0  0  0  0  0  0  0  0
   61.1988   34.2194   49.7667 H   0  0  0  0  0  0  0  0  0  0  0  0
   59.2000   30.2883   45.0688 H   0  0  0  0  0  0  0  0  0  0  0  0
   56.4773   30.9501   42.9970 H   0  0  0  0  0  0  0  0  0  0  0  0
   56.1269   31.7463   44.5890 H   0  0  0  0  0  0  0  0  0  0  0  0
   58.9986   31.3241   43.7748 H   0  0  0  0  0  0  0  0  0  0  0  0
   58.0388   32.6575   43.0057 H   0  0  0  0  0  0  0  0  0  0  0  0
   57.2091   31.5958   46.4240 H   0  0  0  0  0  0  0  0  0  0  0  0
   57.5056   33.0800   48.4075 H   0  0  0  0  0  0  0  0  0  0  0  0
   58.8042   35.2013   48.2008 H   0  0  0  0  0  0  0  0  0  0  0  0
   59.8830   36.8260   46.6950 H   0  0  0  0  0  0  0  0  0  0  0  0
   59.5224   34.3585   44.0167 H   0  0  0  0  0  0  0  0  0  0  0  0
  1  2  2  0
  2  3  1  0
  3  4  1  0
  4  5  1  0
  5  6  2  0
  6  7  1  0
  7  8  2  0
  8  9  1  0
  9 10  2  0
 10 11  1  0
  2 12  1  0
 12 13  2  0
 13 14  1  0
 14 15  1  0
 15 16  1  0
 16 17  1  0
 17 18  2  0
 18 19  1  0
 19 20  2  0
 20 21  1  0
 21 22  1  0
 21 23  2  0
 14 24  2  0
 24 25  1  0
 24 26  1  0
 26 27  1  0
 27 28  2  0
 10  5  1  0
 27 12  1  0
 23 17  1  0
  4 29  1  0
  4 30  1  0
  6 31  1  0
  7 32  1  0
  8 33  1  0
  9 34  1  0
 13 35  1  0
 15 36  1  0
 15 37  1  0
 16 38  1  0
 16 39  1  0
 18 40  1  0
 19 41  1  0
 20 42  1  0
 22 43  1  0
 23 44  1  0
M  CHG  3   3  -1  25  -1  26  -1
M  END
>  <UniqueID>  (37) 
36

>  <SMILES>  (37) 
O=C([N-]Cc1ccccc1Cl)c1cc(CCc2cccc(O)c2)c([O-])[n-]c1=O

>  <Energy>  (37) 
45.46573673724668

>  <Genealogy>  (37) 
O=C([N-]Cc1ccccc1Cl)c1cc(CCc2cccc(O)c2)c([O-])[n-]c1=O (protonated)
O=C([N-]Cc1ccccc1Cl)c1cc(CCc2cccc(O)c2)c([O-])[n-]c1=O (3D coordinates assigned)
O=C([N-]Cc1ccccc1Cl)c1cc(CCc2cccc(O)c2)c([O-])[n-]c1=O (optimized conformer: 45.46573673724668 kcal/mol)

>  <smiles>  (37) 
O=C(NCc1ccccc1Cl)c1cc(CCc2cccc(O)c2)c(O)[nH]c1=O

>  <score_type>  (37) 
oracle

>  <origin>  (37) 
adg

>  <m_score__min__energy>  (37) 
-15.970000000000001

>  <m_primary>  (37) 
energy

$$$$
37:0
     RDKit          3D

 49 51  0  0  0  0  0  0  0  0999 V2000
   57.4113   34.4236   45.3904 H   0  0  0  0  0  0  0  0  0  0  0  0
   58.1640   33.8490   45.9500 C   0  0  0  0  0  0  0  0  0  0  0  0
   58.7530   34.3910   47.0440 N   0  0  0  0  0  0  0  0  0  0  0  0
   59.6960   33.7100   47.7530 C   0  0  0  0  0  0  0  0  0  0  0  0
   60.2340   34.2330   48.8140 N   0  0  0  0  0  0  0  0  0  0  0  0
   60.8240   33.2970   50.1500 S   0  0  0  0  0  0  0  0  0  0  0  0
   61.9530   32.4220   49.6840 O   0  0  0  0  0  0  0  0  0  0  0  0
   61.3390   34.2120   51.2260 O   0  0  0  0  0  0  0  0  0  0  0  0
   59.5210   32.2830   50.7640 C   0  0  0  0  0  0  0  0  0  0  0  0
   59.4570   30.9330   50.3940 C   0  0  0  0  0  0  0  0  0  0  0  0
   60.2494   30.4978   49.7674 H   0  0  0  0  0  0  0  0  0  0  0  0
   58.3890   30.1380   50.8190 C   0  0  0  0  0  0  0  0  0  0  0  0
   58.3538   29.0758   50.5352 H   0  0  0  0  0  0  0  0  0  0  0  0
   57.3630   30.6810   51.6030 C   0  0  0  0  0  0  0  0  0  0  0  0
   56.3010   29.8400   51.9750 O   0  0  0  0  0  0  0  0  0  0  0  0
   55.1010   30.2490   52.6380 C   0  0  0  0  0  0  0  0  0  0  0  0
   55.3297   31.0553   53.3504 H   0  0  0  0  0  0  0  0  0  0  0  0
   54.0840   30.7850   51.6220 C   0  0  0  0  0  0  0  0  0  0  0  0
   53.2334   31.2333   52.1563 H   0  0  0  0  0  0  0  0  0  0  0  0
   54.5635   31.5475   50.9906 H   0  0  0  0  0  0  0  0  0  0  0  0
   53.7260   29.9584   50.9906 H   0  0  0  0  0  0  0  0  0  0  0  0
   54.5190   29.0480   53.3830 C   0  0  0  0  0  0  0  0  0  0  0  0
   54.5998   29.2148   54.4673 H   0  0  0  0  0  0  0  0  0  0  0  0
   53.4609   28.9241   53.1089 H   0  0  0  0  0  0  0  0  0  0  0  0
   55.0774   28.1408   53.1089 H   0  0  0  0  0  0  0  0  0  0  0  0
   57.4360   32.0360   51.9860 C   0  0  0  0  0  0  0  0  0  0  0  0
   56.6453   32.4713   52.6147 H   0  0  0  0  0  0  0  0  0  0  0  0
   58.5110   32.8290   51.5690 C   0  0  0  0  0  0  0  0  0  0  0  0
   58.5639   33.8846   51.8739 H   0  0  0  0  0  0  0  0  0  0  0  0
   60.0690   32.4630   47.3500 N   0  0  0  0  0  0  0  0  0  0  0  0
   60.7950   31.9340   47.8860 H   0  0  0  0  0  0  0  0  0  0  0  0
   59.4990   31.8810   46.2610 C   0  0  0  0  0  0  0  0  0  0  0  0
   59.8137   30.8735   45.9512 H   0  0  0  0  0  0  0  0  0  0  0  0
   58.5120   32.5590   45.5310 C   0  0  0  0  0  0  0  0  0  0  0  0
   57.8760   31.9400   44.3420 C   0  0  0  0  0  0  0  0  0  0  0  0
   58.0080   32.5630   43.0870 C   0  0  0  0  0  0  0  0  0  0  0  0
   58.5972   33.4874   42.9959 H   0  0  0  0  0  0  0  0  0  0  0  0
   57.3970   32.0170   41.9570 C   0  0  0  0  0  0  0  0  0  0  0  0
   57.5087   32.5103   40.9802 H   0  0  0  0  0  0  0  0  0  0  0  0
   56.6450   30.8470   42.0640 C   0  0  0  0  0  0  0  0  0  0  0  0
   56.1538   30.4274   41.1737 H   0  0  0  0  0  0  0  0  0  0  0  0
   56.5140   30.2070   43.2980 C   0  0  0  0  0  0  0  0  0  0  0  0
   55.9216   29.2834   43.3747 H   0  0  0  0  0  0  0  0  0  0  0  0
   57.1370   30.7380   44.4470 C   0  0  0  0  0  0  0  0  0  0  0  0
   57.0570   30.0890   45.6920 O   0  0  0  0  0  0  0  0  0  0  0  0
   57.8260   28.9460   46.0620 C   0  0  0  0  0  0  0  0  0  0  0  0
   57.8735   28.8754   47.1587 H   0  0  0  0  0  0  0  0  0  0  0  0
   57.3536   28.0392   45.6563 H   0  0  0  0  0  0  0  0  0  0  0  0
   58.8439   29.0419   45.6563 H   0  0  0  0  0  0  0  0  0  0  0  0
  1  2  1  0
  2  3  2  0
  3  4  1  0
  4  5  2  0
  5  6  1  0
  6  7  2  0
  6  8  2  0
  6  9  1  0
  9 10  2  0
 10 11  1  0
 10 12  1  0
 12 13  1  0
 12 14  2  0
 14 15  1  0
 15 16  1  0
 16 17  1  0
 16 18  1  0
 18 19  1  0
 18 20  1  0
 18 21  1  0
 16 22  1  0
 22 23  1  0
 22 24  1  0
 22 25  1  0
 14 26  1  0
 26 27  1  0
 26 28  2  0
 28 29  1  0
  4 30  1  0
 30 31  1  0
 30 32  1  0
 32 33  1  0
 32 34  2  0
 34 35  1  0
 35 36  2  0
 36 37  1  0
 36 38  1  0
 38 39  1  0
 38 40  2  0
 40 41  1  0
 40 42  1  0
 42 43  1  0
 42 44  2  0
 44 45  1  0
 45 46  1  0
 46 47  1  0
 46 48  1  0
 46 49  1  0
 34  2  1  0
 44 35  1  0
 28  9  1  0
M  END
>  <UniqueID>  (38) 
37

>  <SMILES>  (38) 
COc1ccccc1-c1cn/c(=N\S(=O)(=O)c2ccc(OC(C)C)cc2)[nH]c1

>  <Energy>  (38) 
56.1138874621301

>  <Genealogy>  (38) 
COc1ccccc1-c1cn/c(=N\S(=O)(=O)c2ccc(OC(C)C)cc2)[nH]c1 (cis-trans isomerization)
COc1ccccc1-c1cn/c(=N\S(=O)(=O)c2ccc(OC(C)C)cc2)[nH]c1 (3D coordinates assigned)
COc1ccccc1-c1cn/c(=N\S(=O)(=O)c2ccc(OC(C)C)cc2)[nH]c1 (optimized conformer: 56.1138874621301 kcal/mol)

>  <smiles>  (38) 
COc1ccccc1-c1cnc(=NS(=O)(=O)c2ccc(OC(C)C)cc2)[nH]c1

>  <score_type>  (38) 
oracle

>  <origin>  (38) 
adg

>  <m_score__min__energy>  (38) 
-7.8799999999999999

>  <m_primary>  (38) 
energy

$$$$
38:0
     RDKit          3D

 30 31  0  0  0  0  0  0  0  0999 V2000
   50.6330   32.4510   49.1690 N   0  0  0  0  0  0  0  0  0  0  0  0
   51.1800   31.2470   49.7030 C   0  0  0  0  0  0  0  0  0  0  0  0
   51.4090   30.2740   48.9370 O   0  0  0  0  0  0  0  0  0  0  0  0
   51.4710   31.1430   51.1400 C   0  0  0  0  0  0  0  0  0  0  0  0
   52.2420   30.1680   51.7570 C   0  0  0  0  0  0  0  0  0  0  0  0
   52.3030   30.4050   53.0860 N   0  0  0  0  0  0  0  0  0  0  0  0
   53.0880   29.6470   54.0610 C   0  0  0  0  0  0  0  0  0  0  0  0
   54.3250   29.0230   53.4060 C   0  0  0  0  0  0  0  0  0  0  0  0
   55.4160   30.0410   53.2030 C   0  0  0  0  0  0  0  0  0  0  0  0
   56.3420   30.3000   54.2290 C   0  0  0  0  0  0  0  0  0  0  0  0
   57.3840   31.2100   54.0230 C   0  0  0  0  0  0  0  0  0  0  0  0
   57.5150   31.8590   52.7920 C   0  0  0  0  0  0  0  0  0  0  0  0
   56.6050   31.5990   51.7640 C   0  0  0  0  0  0  0  0  0  0  0  0
   55.5600   30.6930   51.9660 C   0  0  0  0  0  0  0  0  0  0  0  0
   51.5880   31.5230   53.3220 C   0  0  0  0  0  0  0  0  0  0  0  0
   51.4330   32.1000   54.5790 O   0  0  0  0  0  0  0  0  0  0  0  0
   51.0580   31.9990   52.1440 C   0  0  0  0  0  0  0  0  0  0  0  0
   50.2680   33.1330   51.9980 O   0  0  0  0  0  0  0  0  0  0  0  0
   51.0830   33.3740   49.3550 H   0  0  0  0  0  0  0  0  0  0  0  0
   52.7304   29.3280   51.2414 H   0  0  0  0  0  0  0  0  0  0  0  0
   53.4103   30.3230   54.8667 H   0  0  0  0  0  0  0  0  0  0  0  0
   52.4599   28.8387   54.4635 H   0  0  0  0  0  0  0  0  0  0  0  0
   54.7037   28.2176   54.0525 H   0  0  0  0  0  0  0  0  0  0  0  0
   54.0324   28.6303   52.4210 H   0  0  0  0  0  0  0  0  0  0  0  0
   56.2466   29.7854   55.1965 H   0  0  0  0  0  0  0  0  0  0  0  0
   58.1016   31.4153   54.8311 H   0  0  0  0  0  0  0  0  0  0  0  0
   58.3349   32.5748   52.6324 H   0  0  0  0  0  0  0  0  0  0  0  0
   56.7112   32.1079   50.7946 H   0  0  0  0  0  0  0  0  0  0  0  0
   54.8471   30.4893   51.1534 H   0  0  0  0  0  0  0  0  0  0  0  0
   50.8450   32.9150   54.7110 H   0  0  0  0  0  0  0  0  0  0  0  0
  1  2  1  0
  2  3  2  0
  2  4  1  0
  4  5  2  0
  5  6  1  0
  6  7  1  0
  7  8  1  0
  8  9  1  0
  9 10  2  0
 10 11  1  0
 11 12  2  0
 12 13  1  0
 13 14  2  0
  6 15  1  0
 15 16  1  0
 15 17  2  0
 17 18  1  0
 17  4  1  0
 14  9  1  0
  1 19  1  0
  5 20  1  0
  7 21  1  0
  7 22  1  0
  8 23  1  0
  8 24  1  0
 10 25  1  0
 11 26  1  0
 12 27  1  0
 13 28  1  0
 14 29  1  0
 16 30  1  0
M  CHG  2   1  -1  18  -1
M  END
>  <UniqueID>  (39) 
38

>  <SMILES>  (39) 
[NH-]C(=O)c1cn(CCc2ccccc2)c(O)c1[O-]

>  <Energy>  (39) 
53.03823767617663

>  <Genealogy>  (39) 
[NH-]C(=O)c1cn(CCc2ccccc2)c(O)c1[O-] (protonated)
[NH-]C(=O)c1cn(CCc2ccccc2)c(O)c1[O-] (3D coordinates assigned)
[NH-]C(=O)c1cn(CCc2ccccc2)c(O)c1[O-] (optimized conformer: 53.03823767617663 kcal/mol)

>  <smiles>  (39) 
NC(=O)c1cn(CCc2ccccc2)c(O)c1O

>  <score_type>  (39) 
oracle

>  <origin>  (39) 
adg

>  <m_score__min__energy>  (39) 
-13.02

>  <m_primary>  (39) 
energy

$$$$
39:0
     RDKit          3D

 26 27  0  0  0  0  0  0  0  0999 V2000
   57.2630   32.4440   46.2970 H   0  0  0  0  0  0  0  0  0  0  0  0
   57.3730   33.4260   46.3940 O   0  0  0  0  0  0  0  0  0  0  0  0
   57.9130   33.8910   45.1880 C   0  0  0  0  0  0  0  0  0  0  0  0
   58.9962   34.0399   45.3087 H   0  0  0  0  0  0  0  0  0  0  0  0
   57.4296   34.8427   44.9224 H   0  0  0  0  0  0  0  0  0  0  0  0
   57.6640   32.8760   44.0690 C   0  0  0  0  0  0  0  0  0  0  0  0
   58.6189   32.4088   43.7863 H   0  0  0  0  0  0  0  0  0  0  0  0
   57.2256   33.4004   43.2072 H   0  0  0  0  0  0  0  0  0  0  0  0
   56.7340   31.8380   44.5100 N   0  0  0  0  0  0  0  0  0  0  0  0
   57.0880   30.6390   44.8590 C   0  0  0  0  0  0  0  0  0  0  0  0
   57.6170   30.3270   46.0620 N   0  0  0  0  0  0  0  0  0  0  0  0
   57.9140   29.0010   46.1640 C   0  0  0  0  0  0  0  0  0  0  0  0
   58.5930   28.5640   47.2290 C   0  0  0  0  0  0  0  0  0  0  0  0
   58.8394   27.4962   47.3240 H   0  0  0  0  0  0  0  0  0  0  0  0
   58.9054   29.2722   48.0106 H   0  0  0  0  0  0  0  0  0  0  0  0
   57.5730   28.2380   45.0200 C   0  0  0  0  0  0  0  0  0  0  0  0
   57.6390   26.9140   44.7910 C   0  0  0  0  0  0  0  0  0  0  0  0
   58.1174   26.5910   43.8546 H   0  0  0  0  0  0  0  0  0  0  0  0
   57.1280   25.8580   45.6820 C   0  0  0  0  0  0  0  0  0  0  0  0
   57.8760   24.8710   46.2100 N   0  0  0  0  0  0  0  0  0  0  0  0
   57.0230   24.2520   47.0540 C   0  0  0  0  0  0  0  0  0  0  0  0
   57.3540   23.2480   47.7360 O   0  0  0  0  0  0  0  0  0  0  0  0
   55.7900   24.8000   47.1180 N   0  0  0  0  0  0  0  0  0  0  0  0
   55.8800   25.8240   46.2540 C   0  0  0  0  0  0  0  0  0  0  0  0
   54.8440   26.7130   45.9990 O   0  0  0  0  0  0  0  0  0  0  0  0
   56.9680   29.3040   43.8590 S   0  0  0  0  0  0  0  0  0  0  0  0
  1  2  1  0
  2  3  1  0
  3  4  1  0
  3  5  1  0
  3  6  1  0
  6  7  1  0
  6  8  1  0
  6  9  1  0
  9 10  2  0
 10 11  1  0
 11 12  1  0
 12 13  2  0
 13 14  1  0
 13 15  1  0
 12 16  1  0
 16 17  2  3
 17 18  1  0
 17 19  1  0
 19 20  1  0
 20 21  1  0
 21 22  2  0
 21 23  1  0
 23 24  1  0
 24 25  1  0
 16 26  1  0
 26 10  1  0
 24 19  2  0
M  CHG  4  11  -1  20  -1  23  -1  25  -1
M  END
>  <UniqueID>  (40) 
39

>  <SMILES>  (40) 
C=c1[n-]/c(=N\CCO)sc1=Cc1[n-]c(=O)[n-]c1[O-]

>  <Energy>  (40) 
95.14292458254589

>  <Genealogy>  (40) 
C=c1[n-]c(=NCCO)sc1=Cc1[n-]c(=O)[n-]c1[O-] (protonated)
C=c1[n-]/c(=N\CCO)sc1=Cc1[n-]c(=O)[n-]c1[O-] (cis-trans isomerization)
C=c1[n-]/c(=N\CCO)sc1=Cc1[n-]c(=O)[n-]c1[O-] (3D coordinates assigned)
C=c1[n-]/c(=N\CCO)sc1=Cc1[n-]c(=O)[n-]c1[O-] (optimized conformer: 95.14292458254589 kcal/mol)

>  <smiles>  (40) 
C=c1[nH]c(=NCCO)sc1=Cc1[nH]c(=O)[nH]c1O

>  <score_type>  (40) 
oracle

>  <origin>  (40) 
adg

>  <m_score__min__energy>  (40) 
-15.65

>  <m_primary>  (40) 
energy

$$$$
40:0
     RDKit          3D

 46 49  0  0  0  0  0  0  0  0999 V2000
   57.8560   30.1360   45.3370 C   0  0  0  0  0  0  0  0  0  0  0  0
   58.3830   29.4980   46.3930 C   0  0  0  0  0  0  0  0  0  0  0  0
   58.4050   28.1140   46.5980 C   0  0  0  0  0  0  0  0  0  0  0  0
   57.9440   27.1590   45.7650 C   0  0  0  0  0  0  0  0  0  0  0  0
   57.2590   25.9300   46.2110 C   0  0  0  0  0  0  0  0  0  0  0  0
   57.8580   24.8240   46.6870 N   0  0  0  0  0  0  0  0  0  0  0  0
   56.8400   24.0230   47.0640 C   0  0  0  0  0  0  0  0  0  0  0  0
   57.0150   22.8840   47.5680 O   0  0  0  0  0  0  0  0  0  0  0  0
   55.6160   24.5590   46.8710 N   0  0  0  0  0  0  0  0  0  0  0  0
   55.8990   25.7660   46.3430 C   0  0  0  0  0  0  0  0  0  0  0  0
   54.9320   26.7000   45.9940 O   0  0  0  0  0  0  0  0  0  0  0  0
   59.0540   27.9100   47.8080 C   0  0  0  0  0  0  0  0  0  0  0  0
   59.3910   29.1580   48.2920 C   0  0  0  0  0  0  0  0  0  0  0  0
   60.1350   29.3980   49.5710 C   0  0  0  0  0  0  0  0  0  0  0  0
   58.9800   30.1260   47.4390 N   0  0  0  0  0  0  0  0  0  0  0  0
   59.1860   31.5750   47.6060 C   0  0  0  0  0  0  0  0  0  0  0  0
   60.6600   31.9480   47.6060 C   0  0  0  0  0  0  0  0  0  0  0  0
   61.6250   30.9990   47.2080 C   0  0  0  0  0  0  0  0  0  0  0  0
   62.9810   31.3210   47.1910 C   0  0  0  0  0  0  0  0  0  0  0  0
   63.4050   32.5860   47.5920 C   0  0  0  0  0  0  0  0  0  0  0  0
   62.4740   33.5280   48.0280 C   0  0  0  0  0  0  0  0  0  0  0  0
   61.1010   33.2250   48.0500 C   0  0  0  0  0  0  0  0  0  0  0  0
   60.1660   34.2420   48.5940 C   0  0  0  0  0  0  0  0  0  0  0  0
   60.2480   34.5630   49.8080 O   0  0  0  0  0  0  0  0  0  0  0  0
   59.2510   34.9670   47.7550 N   0  0  0  0  0  0  0  0  0  0  0  0
   58.6410   34.5250   46.6950 C   0  0  0  0  0  0  0  0  0  0  0  0
   57.4530   33.8880   46.7670 N   0  0  0  0  0  0  0  0  0  0  0  0
   57.0240   33.4780   45.5440 C   0  0  0  0  0  0  0  0  0  0  0  0
   57.8760   33.7770   44.4860 C   0  0  0  0  0  0  0  0  0  0  0  0
   59.2140   34.5830   45.1090 S   0  0  0  0  0  0  0  0  0  0  0  0
   57.8961   31.2339   45.2815 H   0  0  0  0  0  0  0  0  0  0  0  0
   57.3838   29.5612   44.5267 H   0  0  0  0  0  0  0  0  0  0  0  0
   58.0876   27.3052   44.6843 H   0  0  0  0  0  0  0  0  0  0  0  0
   58.8790   24.6400   46.8040 H   0  0  0  0  0  0  0  0  0  0  0  0
   59.2598   26.9418   48.2879 H   0  0  0  0  0  0  0  0  0  0  0  0
   59.4748   29.1850   50.4247 H   0  0  0  0  0  0  0  0  0  0  0  0
   61.0138   28.7378   49.6134 H   0  0  0  0  0  0  0  0  0  0  0  0
   60.4623   30.4473   49.6134 H   0  0  0  0  0  0  0  0  0  0  0  0
   58.6871   32.1016   46.7791 H   0  0  0  0  0  0  0  0  0  0  0  0
   58.7632   31.8669   48.5787 H   0  0  0  0  0  0  0  0  0  0  0  0
   61.3029   29.9912   46.9070 H   0  0  0  0  0  0  0  0  0  0  0  0
   63.7181   30.5745   46.8602 H   0  0  0  0  0  0  0  0  0  0  0  0
   64.4745   32.8418   47.5647 H   0  0  0  0  0  0  0  0  0  0  0  0
   62.8174   34.5194   48.3585 H   0  0  0  0  0  0  0  0  0  0  0  0
   56.0710   32.9476   45.4012 H   0  0  0  0  0  0  0  0  0  0  0  0
   57.7047   33.5297   43.4279 H   0  0  0  0  0  0  0  0  0  0  0  0
  1  2  2  0
  2  3  1  0
  3  4  2  3
  4  5  1  0
  5  6  1  0
  6  7  1  0
  7  8  2  0
  7  9  1  0
  9 10  1  0
 10 11  1  0
  3 12  1  0
 12 13  2  0
 13 14  1  0
 13 15  1  0
 15 16  1  0
 16 17  1  0
 17 18  2  0
 18 19  1  0
 19 20  2  0
 20 21  1  0
 21 22  2  0
 22 23  1  0
 23 24  2  0
 23 25  1  0
 25 26  2  3
 26 27  1  0
 27 28  1  0
 28 29  2  0
 29 30  1  0
 15  2  1  0
 22 17  1  0
 30 26  1  0
 10  5  2  0
  1 31  1  0
  1 32  1  0
  4 33  1  0
  6 34  1  0
 12 35  1  0
 14 36  1  0
 14 37  1  0
 14 38  1  0
 16 39  1  0
 16 40  1  0
 18 41  1  0
 19 42  1  0
 20 43  1  0
 21 44  1  0
 28 45  1  0
 29 46  1  0
M  CHG  3   9  -1  11  -1  27  -1
M  END
>  <UniqueID>  (41) 
40

>  <SMILES>  (41) 
C=c1c(=Cc2[nH]c(=O)[n-]c2[O-])cc(C)n1Cc1ccccc1C(=O)N=c1[n-]ccs1

>  <Energy>  (41) 
156.33287987640134

>  <Genealogy>  (41) 
C=c1c(=Cc2[nH]c(=O)[n-]c2[O-])cc(C)n1Cc1ccccc1C(=O)N=c1[n-]ccs1 (protonated)
C=c1c(=Cc2[nH]c(=O)[n-]c2[O-])cc(C)n1Cc1ccccc1C(=O)N=c1[n-]ccs1 (3D coordinates assigned)
C=c1c(=Cc2[nH]c(=O)[n-]c2[O-])cc(C)n1Cc1ccccc1C(=O)N=c1[n-]ccs1 (optimized conformer: 156.33287987640134 kcal/mol)

>  <smiles>  (41) 
C=c1c(=Cc2[nH]c(=O)[nH]c2O)cc(C)n1Cc1ccccc1C(=O)N=c1[nH]ccs1

>  <score_type>  (41) 
oracle

>  <origin>  (41) 
adg

>  <m_score__min__energy>  (41) 
-16.469999999999999

>  <m_primary>  (41) 
energy

$$$$
41:0
     RDKit          3D

 41 43  0  0  0  0  0  0  0  0999 V2000
   51.0210   32.3050   50.8050 N   0  0  0  0  0  0  0  0  0  0  0  0
   51.6980   31.0750   50.5600 C   0  0  0  0  0  0  0  0  0  0  0  0
   51.4260   30.4260   49.5140 O   0  0  0  0  0  0  0  0  0  0  0  0
   52.7440   30.5760   51.4880 C   0  0  0  0  0  0  0  0  0  0  0  0
   54.0630   31.0400   51.3270 C   0  0  0  0  0  0  0  0  0  0  0  0
   55.0940   30.5990   52.1720 C   0  0  0  0  0  0  0  0  0  0  0  0
   56.5070   31.0880   51.9790 C   0  0  0  0  0  0  0  0  0  0  0  0
   57.3550   30.0280   51.5350 O   0  0  0  0  0  0  0  0  0  0  0  0
   58.5180   30.1850   50.7640 C   0  0  0  0  0  0  0  0  0  0  0  0
   59.5850   29.3110   50.9880 C   0  0  0  0  0  0  0  0  0  0  0  0
   60.7560   29.4140   50.2340 C   0  0  0  0  0  0  0  0  0  0  0  0
   60.8690   30.3910   49.2430 C   0  0  0  0  0  0  0  0  0  0  0  0
   59.8120   31.2850   49.0010 C   0  0  0  0  0  0  0  0  0  0  0  0
   59.9200   32.3110   47.9350 C   0  0  0  0  0  0  0  0  0  0  0  0
   58.8600   32.8600   47.2300 C   0  0  0  0  0  0  0  0  0  0  0  0
   59.4130   33.7590   46.3360 C   0  0  0  0  0  0  0  0  0  0  0  0
   58.6650   34.5800   45.3660 C   0  0  0  0  0  0  0  0  0  0  0  0
   57.3280   34.2500   44.9850 N   0  0  0  0  0  0  0  0  0  0  0  0
   59.2130   35.5960   44.8610 O   0  0  0  0  0  0  0  0  0  0  0  0
   60.7820   33.7250   46.5310 C   0  0  0  0  0  0  0  0  0  0  0  0
   61.0830   32.8420   47.5020 N   0  0  0  0  0  0  0  0  0  0  0  0
   58.6440   31.1830   49.7780 C   0  0  0  0  0  0  0  0  0  0  0  0
   54.7990   29.7020   53.2040 C   0  0  0  0  0  0  0  0  0  0  0  0
   53.4980   29.2270   53.3740 C   0  0  0  0  0  0  0  0  0  0  0  0
   52.4690   29.6480   52.5230 C   0  0  0  0  0  0  0  0  0  0  0  0
   50.8820   28.9210   52.7600 Cl  0  0  0  0  0  0  0  0  0  0  0  0
   50.0740   32.3200   51.2440 H   0  0  0  0  0  0  0  0  0  0  0  0
   54.2897   31.7595   50.5265 H   0  0  0  0  0  0  0  0  0  0  0  0
   56.5110   31.8916   51.2278 H   0  0  0  0  0  0  0  0  0  0  0  0
   56.8851   31.4618   52.9420 H   0  0  0  0  0  0  0  0  0  0  0  0
   59.5020   28.5359   51.7641 H   0  0  0  0  0  0  0  0  0  0  0  0
   61.5916   28.7235   50.4214 H   0  0  0  0  0  0  0  0  0  0  0  0
   61.7914   30.4614   48.6478 H   0  0  0  0  0  0  0  0  0  0  0  0
   57.7924   32.6272   47.3564 H   0  0  0  0  0  0  0  0  0  0  0  0
   56.8340   33.4180   45.3780 H   0  0  0  0  0  0  0  0  0  0  0  0
   56.8180   34.8470   44.2980 H   0  0  0  0  0  0  0  0  0  0  0  0
   61.5150   34.3289   45.9760 H   0  0  0  0  0  0  0  0  0  0  0  0
   62.0430   32.6370   47.8560 H   0  0  0  0  0  0  0  0  0  0  0  0
   57.8187   31.8914   49.6136 H   0  0  0  0  0  0  0  0  0  0  0  0
   55.5964   29.3695   53.8848 H   0  0  0  0  0  0  0  0  0  0  0  0
   53.2789   28.5155   54.1838 H   0  0  0  0  0  0  0  0  0  0  0  0
  1  2  1  0
  2  3  2  0
  2  4  1  0
  4  5  2  0
  5  6  1  0
  6  7  1  0
  7  8  1  0
  8  9  1  0
  9 10  2  0
 10 11  1  0
 11 12  2  0
 12 13  1  0
 13 14  1  0
 14 15  2  0
 15 16  1  0
 16 17  1  0
 17 18  1  0
 17 19  2  0
 16 20  2  0
 20 21  1  0
 13 22  2  0
  6 23  2  0
 23 24  1  0
 24 25  2  0
 25 26  1  0
 25  4  1  0
 22  9  1  0
 21 14  1  0
  1 27  1  0
  5 28  1  0
  7 29  1  0
  7 30  1  0
 10 31  1  0
 11 32  1  0
 12 33  1  0
 15 34  1  0
 18 35  1  0
 18 36  1  0
 20 37  1  0
 21 38  1  0
 22 39  1  0
 23 40  1  0
 24 41  1  0
M  CHG  1   1  -1
M  END
>  <UniqueID>  (42) 
41

>  <SMILES>  (42) 
[NH-]C(=O)c1cc(COc2cccc(-c3cc(C(N)=O)c[nH]3)c2)ccc1Cl

>  <Energy>  (42) 
73.3196659482933

>  <Genealogy>  (42) 
[NH-]C(=O)c1cc(COc2cccc(-c3cc(C(N)=O)c[nH]3)c2)ccc1Cl (protonated)
[NH-]C(=O)c1cc(COc2cccc(-c3cc(C(N)=O)c[nH]3)c2)ccc1Cl (3D coordinates assigned)
[NH-]C(=O)c1cc(COc2cccc(-c3cc(C(N)=O)c[nH]3)c2)ccc1Cl (optimized conformer: 73.3196659482933 kcal/mol)

>  <smiles>  (42) 
NC(=O)c1c[nH]c(-c2cccc(OCc3ccc(Cl)c(C(N)=O)c3)c2)c1

>  <score_type>  (42) 
oracle

>  <origin>  (42) 
adg

>  <m_score__min__energy>  (42) 
-12.84

>  <m_primary>  (42) 
energy

$$$$
42:0
     RDKit          3D

 41 43  0  0  0  0  0  0  0  0999 V2000
   58.2490   28.1780   45.0810 O   0  0  0  0  0  0  0  0  0  0  0  0
   58.5900   28.0180   46.2840 C   0  0  0  0  0  0  0  0  0  0  0  0
   58.1240   26.8660   47.0080 N   0  0  0  0  0  0  0  0  0  0  0  0
   56.9540   26.1110   46.6370 C   0  0  0  0  0  0  0  0  0  0  0  0
   55.8590   26.7210   46.0060 C   0  0  0  0  0  0  0  0  0  0  0  0
   54.7590   25.9890   45.6940 N   0  0  0  0  0  0  0  0  0  0  0  0
   54.6920   24.6660   45.9890 C   0  0  0  0  0  0  0  0  0  0  0  0
   53.6640   24.0060   45.6880 O   0  0  0  0  0  0  0  0  0  0  0  0
   55.7310   24.0560   46.6140 N   0  0  0  0  0  0  0  0  0  0  0  0
   56.8520   24.7460   46.9480 C   0  0  0  0  0  0  0  0  0  0  0  0
   57.7960   24.1480   47.5290 O   0  0  0  0  0  0  0  0  0  0  0  0
   59.5080   28.9940   46.9190 C   0  0  0  0  0  0  0  0  0  0  0  0
   59.7650   28.9270   48.3010 C   0  0  0  0  0  0  0  0  0  0  0  0
   60.6350   29.8390   48.9070 C   0  0  0  0  0  0  0  0  0  0  0  0
   61.2670   30.8250   48.1400 C   0  0  0  0  0  0  0  0  0  0  0  0
   62.3890   31.9630   48.8850 S   0  0  0  0  0  0  0  0  0  0  0  0
   62.9910   31.3170   50.1010 O   0  0  0  0  0  0  0  0  0  0  0  0
   63.5000   32.3020   47.9290 O   0  0  0  0  0  0  0  0  0  0  0  0
   61.5730   33.4240   49.3660 N   0  0  0  0  0  0  0  0  0  0  0  0
   60.1250   33.2270   49.4610 C   0  0  0  0  0  0  0  0  0  0  0  0
   59.4460   33.5290   48.1510 C   0  0  0  0  0  0  0  0  0  0  0  0
   59.9880   34.4890   47.2810 C   0  0  0  0  0  0  0  0  0  0  0  0
   59.3670   34.7620   46.0580 C   0  0  0  0  0  0  0  0  0  0  0  0
   58.2000   34.0820   45.6980 C   0  0  0  0  0  0  0  0  0  0  0  0
   57.6000   34.3480   44.5110 F   0  0  0  0  0  0  0  0  0  0  0  0
   57.6520   33.1290   46.5610 C   0  0  0  0  0  0  0  0  0  0  0  0
   58.2700   32.8530   47.7850 C   0  0  0  0  0  0  0  0  0  0  0  0
   61.0270   30.8900   46.7630 C   0  0  0  0  0  0  0  0  0  0  0  0
   60.1560   29.9820   46.1550 C   0  0  0  0  0  0  0  0  0  0  0  0
   58.7220   26.4980   47.7830 H   0  0  0  0  0  0  0  0  0  0  0  0
   55.8920   27.7935   45.7639 H   0  0  0  0  0  0  0  0  0  0  0  0
   59.2776   28.1510   48.9095 H   0  0  0  0  0  0  0  0  0  0  0  0
   60.8232   29.7814   49.9892 H   0  0  0  0  0  0  0  0  0  0  0  0
   59.9227   32.1816   49.7371 H   0  0  0  0  0  0  0  0  0  0  0  0
   59.7299   33.9138   50.2240 H   0  0  0  0  0  0  0  0  0  0  0  0
   60.9045   35.0283   47.5626 H   0  0  0  0  0  0  0  0  0  0  0  0
   59.7973   35.5126   45.3787 H   0  0  0  0  0  0  0  0  0  0  0  0
   56.7331   32.5951   46.2771 H   0  0  0  0  0  0  0  0  0  0  0  0
   57.8340   32.1045   48.4630 H   0  0  0  0  0  0  0  0  0  0  0  0
   61.5264   31.6596   46.1561 H   0  0  0  0  0  0  0  0  0  0  0  0
   59.9757   30.0401   45.0714 H   0  0  0  0  0  0  0  0  0  0  0  0
  1  2  2  0
  2  3  1  0
  3  4  1  0
  4  5  2  0
  5  6  1  0
  6  7  1  0
  7  8  2  0
  7  9  1  0
  9 10  1  0
 10 11  2  0
  2 12  1  0
 12 13  2  0
 13 14  1  0
 14 15  2  0
 15 16  1  0
 16 17  2  0
 16 18  2  0
 16 19  1  0
 19 20  1  0
 20 21  1  0
 21 22  2  0
 22 23  1  0
 23 24  2  0
 24 25  1  0
 24 26  1  0
 26 27  2  0
 15 28  1  0
 28 29  2  0
 10  4  1  0
 29 12  1  0
 27 21  1  0
  3 30  1  0
  5 31  1  0
 13 32  1  0
 14 33  1  0
 20 34  1  0
 20 35  1  0
 22 36  1  0
 23 37  1  0
 26 38  1  0
 27 39  1  0
 28 40  1  0
 29 41  1  0
M  CHG  3   6  -1   9  -1  19  -1
M  END
>  <UniqueID>  (43) 
42

>  <SMILES>  (43) 
O=C(Nc1c[n-]c(=O)[n-]c1=O)c1ccc(S(=O)(=O)[N-]Cc2ccc(F)cc2)cc1

>  <Energy>  (43) 
49.90543326535421

>  <Genealogy>  (43) 
O=C(Nc1c[n-]c(=O)[n-]c1=O)c1ccc(S(=O)(=O)[N-]Cc2ccc(F)cc2)cc1 (protonated)
O=C(Nc1c[n-]c(=O)[n-]c1=O)c1ccc(S(=O)(=O)[N-]Cc2ccc(F)cc2)cc1 (3D coordinates assigned)
O=C(Nc1c[n-]c(=O)[n-]c1=O)c1ccc(S(=O)(=O)[N-]Cc2ccc(F)cc2)cc1 (optimized conformer: 49.90543326535421 kcal/mol)

>  <smiles>  (43) 
O=C(Nc1c[nH]c(=O)[nH]c1=O)c1ccc(S(=O)(=O)NCc2ccc(F)cc2)cc1

>  <score_type>  (43) 
oracle

>  <origin>  (43) 
adg

>  <m_score__min__energy>  (43) 
-12.859999999999999

>  <m_primary>  (43) 
energy

$$$$
43:0
     RDKit          3D

 43 46  0  0  0  0  0  0  0  0999 V2000
   54.7250   28.9620   45.6190 H   0  0  0  0  0  0  0  0  0  0  0  0
   55.2360   28.9880   44.7450 O   0  0  0  0  0  0  0  0  0  0  0  0
   56.2220   29.9450   44.5290 C   0  0  0  0  0  0  0  0  0  0  0  0
   55.9910   31.2690   44.5020 N   0  0  0  0  0  0  0  0  0  0  0  0
   57.2190   31.7840   44.2750 C   0  0  0  0  0  0  0  0  0  0  0  0
   57.4590   33.1970   44.2270 N   0  0  0  0  0  0  0  0  0  0  0  0
   57.6410   33.9830   45.2500 C   0  0  0  0  0  0  0  0  0  0  0  0
   56.9320   34.8101   45.4023 H   0  0  0  0  0  0  0  0  0  0  0  0
   58.7460   33.8250   46.2160 C   0  0  0  0  0  0  0  0  0  0  0  0
   60.0660   34.1330   45.8490 C   0  0  0  0  0  0  0  0  0  0  0  0
   60.2841   34.4826   44.8291 H   0  0  0  0  0  0  0  0  0  0  0  0
   61.1020   33.9970   46.7740 C   0  0  0  0  0  0  0  0  0  0  0  0
   62.1345   34.2377   46.4808 H   0  0  0  0  0  0  0  0  0  0  0  0
   60.8310   33.5560   48.0710 C   0  0  0  0  0  0  0  0  0  0  0  0
   61.6519   33.4456   48.7948 H   0  0  0  0  0  0  0  0  0  0  0  0
   59.5110   33.2520   48.4560 C   0  0  0  0  0  0  0  0  0  0  0  0
   59.1920   32.7910   49.7420 O   0  0  0  0  0  0  0  0  0  0  0  0
   59.5750   33.4450   50.9460 C   0  0  0  0  0  0  0  0  0  0  0  0
   59.2302   32.8562   51.8088 H   0  0  0  0  0  0  0  0  0  0  0  0
   60.6705   33.5384   50.9801 H   0  0  0  0  0  0  0  0  0  0  0  0
   59.1205   34.4461   50.9801 H   0  0  0  0  0  0  0  0  0  0  0  0
   58.4740   33.4090   47.5270 C   0  0  0  0  0  0  0  0  0  0  0  0
   57.4364   33.2039   47.8291 H   0  0  0  0  0  0  0  0  0  0  0  0
   58.2030   30.8590   44.1930 N   0  0  0  0  0  0  0  0  0  0  0  0
   57.5560   29.6900   44.3260 C   0  0  0  0  0  0  0  0  0  0  0  0
   58.2270   28.3500   44.3730 C   0  0  0  0  0  0  0  0  0  0  0  0
   57.5236   27.5826   44.0175 H   0  0  0  0  0  0  0  0  0  0  0  0
   59.1192   28.3816   43.7304 H   0  0  0  0  0  0  0  0  0  0  0  0
   58.6560   28.0130   45.7720 C   0  0  0  0  0  0  0  0  0  0  0  0
   58.1910   26.9590   46.5520 C   0  0  0  0  0  0  0  0  0  0  0  0
   57.4794   26.1926   46.2110 H   0  0  0  0  0  0  0  0  0  0  0  0
   58.7370   27.0090   47.7890 N   0  0  0  0  0  0  0  0  0  0  0  0
   58.5590   26.3490   48.5780 H   0  0  0  0  0  0  0  0  0  0  0  0
   59.5330   28.0930   47.7990 C   0  0  0  0  0  0  0  0  0  0  0  0
   60.2910   28.5740   48.8660 C   0  0  0  0  0  0  0  0  0  0  0  0
   60.3126   28.0463   49.8309 H   0  0  0  0  0  0  0  0  0  0  0  0
   61.0270   29.7560   48.6680 C   0  0  0  0  0  0  0  0  0  0  0  0
   61.6388   30.1622   49.4870 H   0  0  0  0  0  0  0  0  0  0  0  0
   60.9860   30.4250   47.4250 C   0  0  0  0  0  0  0  0  0  0  0  0
   61.5642   31.3501   47.2836 H   0  0  0  0  0  0  0  0  0  0  0  0
   60.2110   29.9170   46.3660 C   0  0  0  0  0  0  0  0  0  0  0  0
   60.1674   30.4319   45.3949 H   0  0  0  0  0  0  0  0  0  0  0  0
   59.5000   28.7380   46.5900 C   0  0  0  0  0  0  0  0  0  0  0  0
  1  2  1  0
  2  3  1  0
  3  4  1  0
  4  5  1  0
  5  6  1  0
  6  7  2  0
  7  8  1  0
  7  9  1  0
  9 10  2  0
 10 11  1  0
 10 12  1  0
 12 13  1  0
 12 14  2  0
 14 15  1  0
 14 16  1  0
 16 17  1  0
 17 18  1  0
 18 19  1  0
 18 20  1  0
 18 21  1  0
 16 22  2  0
 22 23  1  0
  5 24  2  0
 24 25  1  0
 25 26  1  0
 26 27  1  0
 26 28  1  0
 26 29  1  0
 29 30  2  0
 30 31  1  0
 30 32  1  0
 32 33  1  0
 32 34  1  0
 34 35  2  0
 35 36  1  0
 35 37  1  0
 37 38  1  0
 37 39  2  0
 39 40  1  0
 39 41  1  0
 41 42  1  0
 41 43  2  0
 25  3  2  0
 43 29  1  0
 22  9  1  0
 43 34  1  0
M  CHG  1   4  -1
M  END
>  <UniqueID>  (44) 
43

>  <SMILES>  (44) 
COc1cccc(/C=N\c2nc(Cc3c[nH]c4ccccc34)c(O)[n-]2)c1

>  <Energy>  (44) 
110.3600984760278

>  <Genealogy>  (44) 
COc1cccc(C=Nc2nc(Cc3c[nH]c4ccccc34)c(O)[n-]2)c1 (protonated)
COc1cccc(/C=N\c2nc(Cc3c[nH]c4ccccc34)c(O)[n-]2)c1 (cis-trans isomerization)
COc1cccc(/C=N\c2nc(Cc3c[nH]c4ccccc34)c(O)[n-]2)c1 (3D coordinates assigned)
COc1cccc(/C=N\c2nc(Cc3c[nH]c4ccccc34)c(O)[n-]2)c1 (optimized conformer: 110.3600984760278 kcal/mol)

>  <smiles>  (44) 
COc1cccc(C=Nc2nc(Cc3c[nH]c4ccccc34)c(O)[nH]2)c1

>  <score_type>  (44) 
oracle

>  <origin>  (44) 
adg

>  <m_score__min__energy>  (44) 
-10.51

>  <m_primary>  (44) 
energy

$$$$
44:0
     RDKit          3D

 56 58  0  0  0  0  0  0  0  0999 V2000
   58.7910   34.3230   51.8270 O   0  0  0  0  0  0  0  0  0  0  0  0
   59.4520   33.4890   50.7640 S   0  0  0  0  0  0  0  0  0  0  0  0
   58.5790   32.3100   50.4440 O   0  0  0  0  0  0  0  0  0  0  0  0
   61.0420   32.9700   51.3320 C   0  0  0  0  0  0  0  0  0  0  0  0
   61.8520   32.1420   50.6580 C   0  0  0  0  0  0  0  0  0  0  0  0
   62.4520   32.4450   49.3450 C   0  0  0  0  0  0  0  0  0  0  0  0
   62.5770   31.4520   48.3590 C   0  0  0  0  0  0  0  0  0  0  0  0
   63.1140   31.7670   47.1060 C   0  0  0  0  0  0  0  0  0  0  0  0
   63.5110   33.0770   46.8240 C   0  0  0  0  0  0  0  0  0  0  0  0
   63.3670   34.0750   47.7920 C   0  0  0  0  0  0  0  0  0  0  0  0
   62.8320   33.7620   49.0480 C   0  0  0  0  0  0  0  0  0  0  0  0
   59.6440   34.4690   49.3450 N   0  0  0  0  0  0  0  0  0  0  0  0
   59.2970   34.0400   48.0150 C   0  0  0  0  0  0  0  0  0  0  0  0
   58.3760   33.0010   47.7820 C   0  0  0  0  0  0  0  0  0  0  0  0
   58.0600   32.6150   46.4750 C   0  0  0  0  0  0  0  0  0  0  0  0
   58.6530   33.2600   45.3810 C   0  0  0  0  0  0  0  0  0  0  0  0
   58.3390   32.8250   43.9730 C   0  0  0  0  0  0  0  0  0  0  0  0
   57.1330   31.8820   43.9260 C   0  0  0  0  0  0  0  0  0  0  0  0
   57.3730   30.7860   42.9750 N   0  0  0  0  0  0  0  0  0  0  0  0
   56.6640   29.5580   43.3690 C   0  0  0  0  0  0  0  0  0  0  0  0
   56.6210   29.3920   44.9010 C   0  0  1  0  0  0  0  0  0  0  0  0
   55.9020   28.2320   45.2320 O   0  0  0  0  0  0  0  0  0  0  0  0
   58.0180   29.2950   45.4760 C   0  0  0  0  0  0  0  0  0  0  0  0
   59.1120   29.0200   44.6360 C   0  0  0  0  0  0  0  0  0  0  0  0
   60.4030   28.9180   45.1650 C   0  0  0  0  0  0  0  0  0  0  0  0
   60.6120   29.0820   46.5370 C   0  0  0  0  0  0  0  0  0  0  0  0
   59.5290   29.3420   47.3860 C   0  0  0  0  0  0  0  0  0  0  0  0
   59.7910   29.5400   49.1080 Cl  0  0  0  0  0  0  0  0  0  0  0  0
   58.2360   29.4450   46.8580 C   0  0  0  0  0  0  0  0  0  0  0  0
   59.5750   34.2920   45.6100 C   0  0  0  0  0  0  0  0  0  0  0  0
   59.8870   34.6820   46.9150 C   0  0  0  0  0  0  0  0  0  0  0  0
   61.3903   33.3516   52.3031 H   0  0  0  0  0  0  0  0  0  0  0  0
   62.0855   31.1693   51.1155 H   0  0  0  0  0  0  0  0  0  0  0  0
   62.2515   30.4232   48.5729 H   0  0  0  0  0  0  0  0  0  0  0  0
   63.2238   30.9830   46.3423 H   0  0  0  0  0  0  0  0  0  0  0  0
   63.9369   33.3227   45.8400 H   0  0  0  0  0  0  0  0  0  0  0  0
   63.6741   35.1071   47.5672 H   0  0  0  0  0  0  0  0  0  0  0  0
   62.7095   34.5517   49.8039 H   0  0  0  0  0  0  0  0  0  0  0  0
   60.1240   35.3880   49.4700 H   0  0  0  0  0  0  0  0  0  0  0  0
   57.9020   32.4896   48.6328 H   0  0  0  0  0  0  0  0  0  0  0  0
   57.3413   31.7998   46.3048 H   0  0  0  0  0  0  0  0  0  0  0  0
   58.1190   33.7154   43.3657 H   0  0  0  0  0  0  0  0  0  0  0  0
   59.2121   32.2843   43.5788 H   0  0  0  0  0  0  0  0  0  0  0  0
   56.9632   31.4612   44.9280 H   0  0  0  0  0  0  0  0  0  0  0  0
   56.2497   32.4500   43.5987 H   0  0  0  0  0  0  0  0  0  0  0  0
   56.9880   31.0830   42.0480 H   0  0  0  0  0  0  0  0  0  0  0  0
   55.6338   29.6025   42.9861 H   0  0  0  0  0  0  0  0  0  0  0  0
   57.2047   28.6987   42.9457 H   0  0  0  0  0  0  0  0  0  0  0  0
   56.1253   30.2761   45.3284 H   0  0  0  0  0  0  0  0  0  0  0  0
   56.2600   27.4980   44.6670 H   0  0  0  0  0  0  0  0  0  0  0  0
   58.9515   28.8843   43.5563 H   0  0  0  0  0  0  0  0  0  0  0  0
   61.2543   28.7086   44.5006 H   0  0  0  0  0  0  0  0  0  0  0  0
   61.6285   29.0068   46.9506 H   0  0  0  0  0  0  0  0  0  0  0  0
   57.3861   29.6443   47.5273 H   0  0  0  0  0  0  0  0  0  0  0  0
   60.0546   34.7966   44.7583 H   0  0  0  0  0  0  0  0  0  0  0  0
   60.6024   35.5007   47.0820 H   0  0  0  0  0  0  0  0  0  0  0  0
  1  2  2  0
  2  3  2  0
  2  4  1  0
  4  5  2  3
  5  6  1  0
  6  7  2  0
  7  8  1  0
  8  9  2  0
  9 10  1  0
 10 11  2  0
  2 12  1  0
 12 13  1  0
 13 14  2  0
 14 15  1  0
 15 16  2  0
 16 17  1  0
 17 18  1  0
 18 19  1  0
 19 20  1  0
 20 21  1  0
 21 22  1  0
 21 23  1  0
 23 24  2  0
 24 25  1  0
 25 26  2  0
 26 27  1  0
 27 28  1  0
 27 29  2  0
 16 30  1  0
 30 31  2  0
 11  6  1  0
 31 13  1  0
 29 23  1  0
  4 32  1  0
  5 33  1  0
  7 34  1  0
  8 35  1  0
  9 36  1  0
 10 37  1  0
 11 38  1  0
 12 39  1  0
 14 40  1  0
 15 41  1  0
 17 42  1  0
 17 43  1  0
 18 44  1  0
 18 45  1  0
 19 46  1  0
 20 47  1  0
 20 48  1  0
 21 49  1  1
 22 50  1  0
 24 51  1  0
 25 52  1  0
 26 53  1  0
 29 54  1  0
 30 55  1  0
 31 56  1  0
M  END
>  <UniqueID>  (45) 
44

>  <SMILES>  (45) 
O=S(=O)(C=Cc1ccccc1)Nc1ccc(CCNC[C@@H](O)c2cccc(Cl)c2)cc1

>  <Energy>  (45) 
63.65705369966634

>  <Genealogy>  (45) 
O=S(=O)(C=Cc1ccccc1)Nc1ccc(CCNC[C@@H](O)c2cccc(Cl)c2)cc1 (chirality)
O=S(=O)(C=Cc1ccccc1)Nc1ccc(CCNC[C@@H](O)c2cccc(Cl)c2)cc1 (3D coordinates assigned)
O=S(=O)(C=Cc1ccccc1)Nc1ccc(CCNC[C@@H](O)c2cccc(Cl)c2)cc1 (optimized conformer: 63.65705369966634 kcal/mol)

>  <smiles>  (45) 
O=S(=O)(C=Cc1ccccc1)Nc1ccc(CCNCC(O)c2cccc(Cl)c2)cc1

>  <score_type>  (45) 
oracle

>  <origin>  (45) 
adg

>  <m_score__min__energy>  (45) 
-9.5700000000000003

>  <m_primary>  (45) 
energy

$$$$
45:0
     RDKit          3D

 41 43  0  0  0  0  0  0  0  0999 V2000
   55.9596   20.5611   47.4928 H   0  0  0  0  0  0  0  0  0  0  0  0
   55.1290   21.1040   47.0180 C   0  0  0  0  0  0  0  0  0  0  0  0
   54.2088   20.5686   46.7414 H   0  0  0  0  0  0  0  0  0  0  0  0
   55.2380   22.4150   46.7770 C   0  0  0  0  0  0  0  0  0  0  0  0
   54.1960   23.0610   46.1890 N   0  0  0  0  0  0  0  0  0  0  0  0
   54.2480   24.3880   45.9180 C   0  0  0  0  0  0  0  0  0  0  0  0
   53.2690   24.9560   45.3710 O   0  0  0  0  0  0  0  0  0  0  0  0
   55.3560   25.1020   46.2330 N   0  0  0  0  0  0  0  0  0  0  0  0
   56.4360   24.5270   46.8310 C   0  0  0  0  0  0  0  0  0  0  0  0
   57.5290   25.2680   47.1120 C   0  0  0  0  0  0  0  0  0  0  0  0
   58.1629   24.9505   47.9531 H   0  0  0  0  0  0  0  0  0  0  0  0
   57.9310   26.4820   46.3610 C   0  0  0  0  0  0  0  0  0  0  0  0
   57.9850   26.5020   44.9560 C   0  0  0  0  0  0  0  0  0  0  0  0
   57.7457   25.5917   44.3868 H   0  0  0  0  0  0  0  0  0  0  0  0
   58.3410   27.6720   44.2780 C   0  0  0  0  0  0  0  0  0  0  0  0
   58.3931   27.6733   43.1792 H   0  0  0  0  0  0  0  0  0  0  0  0
   58.6330   28.8480   44.9940 C   0  0  0  0  0  0  0  0  0  0  0  0
   59.0010   30.0480   44.3640 O   0  0  0  0  0  0  0  0  0  0  0  0
   58.1050   30.9260   43.6830 C   0  0  0  0  0  0  0  0  0  0  0  0
   58.6021   31.8930   43.5165 H   0  0  0  0  0  0  0  0  0  0  0  0
   57.8255   30.4733   42.7202 H   0  0  0  0  0  0  0  0  0  0  0  0
   56.8600   31.1430   44.4990 C   0  0  0  0  0  0  0  0  0  0  0  0
   56.0060   30.2200   44.5670 O   0  0  0  0  0  0  0  0  0  0  0  0
   56.6400   32.3450   45.2470 N   0  0  0  0  0  0  0  0  0  0  0  0
   57.6500   33.2120   45.7810 C   0  0  0  0  0  0  0  0  0  0  0  0
   58.2880   34.1180   44.9240 C   0  0  0  0  0  0  0  0  0  0  0  0
   57.9947   34.1695   43.8651 H   0  0  0  0  0  0  0  0  0  0  0  0
   59.2970   34.9580   45.4090 C   0  0  0  0  0  0  0  0  0  0  0  0
   59.7838   35.6784   44.7351 H   0  0  0  0  0  0  0  0  0  0  0  0
   59.6860   34.8820   46.7480 C   0  0  0  0  0  0  0  0  0  0  0  0
   60.4748   35.5469   47.1298 H   0  0  0  0  0  0  0  0  0  0  0  0
   59.0740   33.9620   47.6030 C   0  0  0  0  0  0  0  0  0  0  0  0
   59.3863   33.8984   48.6558 H   0  0  0  0  0  0  0  0  0  0  0  0
   58.0650   33.1220   47.1220 C   0  0  0  0  0  0  0  0  0  0  0  0
   57.5946   32.3890   47.7939 H   0  0  0  0  0  0  0  0  0  0  0  0
   58.5490   28.8320   46.3910 C   0  0  0  0  0  0  0  0  0  0  0  0
   58.7652   29.7481   46.9602 H   0  0  0  0  0  0  0  0  0  0  0  0
   58.1930   27.6630   47.0700 C   0  0  0  0  0  0  0  0  0  0  0  0
   58.1179   27.6697   48.1674 H   0  0  0  0  0  0  0  0  0  0  0  0
   56.4000   23.1420   47.1130 C   0  0  0  0  0  0  0  0  0  0  0  0
   57.3830   22.5650   47.6590 O   0  0  0  0  0  0  0  0  0  0  0  0
  1  2  1  0
  2  3  1  0
  2  4  2  0
  4  5  1  0
  5  6  1  0
  6  7  2  0
  6  8  1  0
  8  9  1  0
  9 10  2  0
 10 11  1  0
 10 12  1  0
 12 13  2  0
 13 14  1  0
 13 15  1  0
 15 16  1  0
 15 17  2  0
 17 18  1  0
 18 19  1  0
 19 20  1  0
 19 21  1  0
 19 22  1  0
 22 23  2  0
 22 24  1  0
 24 25  1  0
 25 26  2  0
 26 27  1  0
 26 28  1  0
 28 29  1  0
 28 30  2  0
 30 31  1  0
 30 32  1  0
 32 33  1  0
 32 34  2  0
 34 35  1  0
 17 36  1  0
 36 37  1  0
 36 38  2  0
 38 39  1  0
  9 40  1  0
 40 41  2  0
 40  4  1  0
 38 12  1  0
 34 25  1  0
M  CHG  3   5  -1   8  -1  24  -1
M  END
>  <UniqueID>  (46) 
45

>  <SMILES>  (46) 
C=c1[n-]c(=O)[n-]/c(=C\c2ccc(OCC(=O)[N-]c3ccccc3)cc2)c1=O

>  <Energy>  (46) 
57.77336349181622

>  <Genealogy>  (46) 
C=c1[n-]c(=O)[n-]c(=Cc2ccc(OCC(=O)[N-]c3ccccc3)cc2)c1=O (protonated)
C=c1[n-]c(=O)[n-]/c(=C\c2ccc(OCC(=O)[N-]c3ccccc3)cc2)c1=O (cis-trans isomerization)
C=c1[n-]c(=O)[n-]/c(=C\c2ccc(OCC(=O)[N-]c3ccccc3)cc2)c1=O (3D coordinates assigned)
C=c1[n-]c(=O)[n-]/c(=C\c2ccc(OCC(=O)[N-]c3ccccc3)cc2)c1=O (optimized conformer: 57.77336349181622 kcal/mol)

>  <smiles>  (46) 
C=c1[nH]c(=O)[nH]c(=Cc2ccc(OCC(=O)Nc3ccccc3)cc2)c1=O

>  <score_type>  (46) 
oracle

>  <origin>  (46) 
adg

>  <m_score__min__energy>  (46) 
-13.220000000000001

>  <m_primary>  (46) 
energy

$$$$
46:0
     RDKit          3D

 55 58  0  0  0  0  0  0  0  0999 V2000
   56.3010   29.4900   44.8290 O   0  0  0  0  0  0  0  0  0  0  0  0
   57.5170   29.7600   44.6250 C   0  0  0  0  0  0  0  0  0  0  0  0
   58.3020   28.9040   43.7790 N   0  0  0  0  0  0  0  0  0  0  0  0
   57.7670   27.6700   43.2060 C   0  0  0  0  0  0  0  0  0  0  0  0
   57.9410   26.5300   44.1730 C   0  0  0  0  0  0  0  0  0  0  0  0
   57.4380   25.2570   43.8560 C   0  0  0  0  0  0  0  0  0  0  0  0
   57.5790   24.1990   44.7590 C   0  0  0  0  0  0  0  0  0  0  0  0
   58.2170   24.4040   45.9850 C   0  0  0  0  0  0  0  0  0  0  0  0
   58.7150   25.6690   46.3100 C   0  0  0  0  0  0  0  0  0  0  0  0
   58.5780   26.7300   45.4100 C   0  0  0  0  0  0  0  0  0  0  0  0
   58.1040   30.9700   45.2500 C   0  0  0  0  0  0  0  0  0  0  0  0
   57.4560   32.2120   45.1170 C   0  0  0  0  0  0  0  0  0  0  0  0
   57.9940   33.3600   45.7050 C   0  0  0  0  0  0  0  0  0  0  0  0
   59.1770   33.2820   46.4460 C   0  0  0  0  0  0  0  0  0  0  0  0
   59.8630   34.7540   47.2050 S   0  0  0  0  0  0  0  0  0  0  0  0
   61.3920   33.9280   47.6820 C   0  0  0  0  0  0  0  0  0  0  0  0
   62.4280   33.8430   46.7430 C   0  0  0  0  0  0  0  0  0  0  0  0
   63.6090   33.1670   47.0530 C   0  0  0  0  0  0  0  0  0  0  0  0
   63.7650   32.5700   48.3050 C   0  0  0  0  0  0  0  0  0  0  0  0
   62.7440   32.6580   49.2550 C   0  0  0  0  0  0  0  0  0  0  0  0
   61.5590   33.3500   48.9600 C   0  0  0  0  0  0  0  0  0  0  0  0
   60.5120   33.4370   49.9930 C   0  0  0  0  0  0  0  0  0  0  0  0
   60.8020   33.9140   51.1230 O   0  0  0  0  0  0  0  0  0  0  0  0
   59.1660   33.0250   49.7370 N   0  0  0  0  0  0  0  0  0  0  0  0
   58.5460   31.8520   50.3410 C   0  0  0  0  0  0  0  0  0  0  0  0
   59.2260   30.6180   49.8380 C   0  0  0  0  0  0  0  0  0  0  0  0
   58.5860   29.7780   48.9130 C   0  0  0  0  0  0  0  0  0  0  0  0
   59.2550   28.6490   48.4370 C   0  0  0  0  0  0  0  0  0  0  0  0
   60.5520   28.3730   48.8740 C   0  0  0  0  0  0  0  0  0  0  0  0
   61.1630   29.2370   49.7860 C   0  0  0  0  0  0  0  0  0  0  0  0
   60.4950   30.3320   50.2400 N   0  0  0  0  0  0  0  0  0  0  0  0
   59.8290   32.0520   46.5850 C   0  0  0  0  0  0  0  0  0  0  0  0
   59.2940   30.9010   45.9980 C   0  0  0  0  0  0  0  0  0  0  0  0
   59.2640   29.1910   43.4920 H   0  0  0  0  0  0  0  0  0  0  0  0
   56.6966   27.8036   42.9906 H   0  0  0  0  0  0  0  0  0  0  0  0
   58.3109   27.4398   42.2780 H   0  0  0  0  0  0  0  0  0  0  0  0
   56.9313   25.0921   42.8937 H   0  0  0  0  0  0  0  0  0  0  0  0
   57.1869   23.2034   44.5038 H   0  0  0  0  0  0  0  0  0  0  0  0
   58.3273   23.5703   46.6941 H   0  0  0  0  0  0  0  0  0  0  0  0
   59.2158   25.8300   47.2761 H   0  0  0  0  0  0  0  0  0  0  0  0
   58.9698   27.7243   45.6706 H   0  0  0  0  0  0  0  0  0  0  0  0
   56.5185   32.2798   44.5456 H   0  0  0  0  0  0  0  0  0  0  0  0
   57.4852   34.3278   45.5845 H   0  0  0  0  0  0  0  0  0  0  0  0
   62.3100   34.3120   45.7550 H   0  0  0  0  0  0  0  0  0  0  0  0
   64.4177   33.1046   46.3099 H   0  0  0  0  0  0  0  0  0  0  0  0
   64.6928   32.0296   48.5441 H   0  0  0  0  0  0  0  0  0  0  0  0
   62.8696   32.1826   50.2390 H   0  0  0  0  0  0  0  0  0  0  0  0
   58.6457   31.9062   51.4351 H   0  0  0  0  0  0  0  0  0  0  0  0
   57.4797   31.8200   50.0728 H   0  0  0  0  0  0  0  0  0  0  0  0
   57.5674   30.0072   48.5667 H   0  0  0  0  0  0  0  0  0  0  0  0
   58.7611   27.9779   47.7188 H   0  0  0  0  0  0  0  0  0  0  0  0
   61.0866   27.4855   48.5044 H   0  0  0  0  0  0  0  0  0  0  0  0
   62.1850   29.0319   50.1374 H   0  0  0  0  0  0  0  0  0  0  0  0
   60.7659   31.9901   47.1581 H   0  0  0  0  0  0  0  0  0  0  0  0
   59.8066   29.9356   46.1217 H   0  0  0  0  0  0  0  0  0  0  0  0
  1  2  2  0
  2  3  1  0
  3  4  1  0
  4  5  1  0
  5  6  2  0
  6  7  1  0
  7  8  2  0
  8  9  1  0
  9 10  2  0
  2 11  1  0
 11 12  2  0
 12 13  1  0
 13 14  2  0
 14 15  1  0
 15 16  1  0
 16 17  2  0
 17 18  1  0
 18 19  2  0
 19 20  1  0
 20 21  2  0
 21 22  1  0
 22 23  2  0
 22 24  1  0
 24 25  1  0
 25 26  1  0
 26 27  2  0
 27 28  1  0
 28 29  2  0
 29 30  1  0
 30 31  2  0
 14 32  1  0
 32 33  2  0
 10  5  1  0
 33 11  1  0
 21 16  1  0
 31 26  1  0
  3 34  1  0
  4 35  1  0
  4 36  1  0
  6 37  1  0
  7 38  1  0
  8 39  1  0
  9 40  1  0
 10 41  1  0
 12 42  1  0
 13 43  1  0
 17 44  1  0
 18 45  1  0
 19 46  1  0
 20 47  1  0
 25 48  1  0
 25 49  1  0
 27 50  1  0
 28 51  1  0
 29 52  1  0
 30 53  1  0
 32 54  1  0
 33 55  1  0
M  CHG  1  24  -1
M  END
>  <UniqueID>  (47) 
46

>  <SMILES>  (47) 
O=C(NCc1ccccc1)c1ccc(Sc2ccccc2C(=O)[N-]Cc2ccccn2)cc1

>  <Energy>  (47) 
60.372526503564295

>  <Genealogy>  (47) 
O=C(NCc1ccccc1)c1ccc(Sc2ccccc2C(=O)[N-]Cc2ccccn2)cc1 (protonated)
O=C(NCc1ccccc1)c1ccc(Sc2ccccc2C(=O)[N-]Cc2ccccn2)cc1 (3D coordinates assigned)
O=C(NCc1ccccc1)c1ccc(Sc2ccccc2C(=O)[N-]Cc2ccccn2)cc1 (optimized conformer: 60.372526503564295 kcal/mol)

>  <smiles>  (47) 
O=C(NCc1ccccc1)c1ccc(Sc2ccccc2C(=O)NCc2ccccn2)cc1

>  <score_type>  (47) 
oracle

>  <origin>  (47) 
adg

>  <m_score__min__energy>  (47) 
-10.869999999999999

>  <m_primary>  (47) 
energy

$$$$
47:0
     RDKit          3D

 79 83  0  0  0  0  0  0  0  0999 V2000
   62.9110   34.5880   50.0050 C   0  0  0  0  0  0  0  0  0  0  0  0
   62.4880   33.7360   48.8520 C   0  0  0  0  0  0  0  0  0  0  0  0
   63.2580   32.8340   48.4180 O   0  0  0  0  0  0  0  0  0  0  0  0
   61.2240   33.9560   48.2050 N   0  0  0  0  0  0  0  0  0  0  0  0
   59.9890   34.0210   48.9980 C   0  0  0  0  0  0  0  0  0  0  0  0
   58.8290   33.4430   48.1870 C   0  0  0  0  0  0  0  0  0  0  0  0
   58.6200   34.2030   46.8490 C   0  0  0  0  0  0  0  0  0  0  0  0
   57.9430   33.3450   45.8050 C   0  0  0  0  0  0  0  0  0  0  0  0
   56.8290   33.6930   45.3160 O   0  0  0  0  0  0  0  0  0  0  0  0
   58.6500   32.2210   45.2500 N   0  0  0  0  0  0  0  0  0  0  0  0
   58.0500   31.1260   44.5270 C   0  0  0  0  0  0  0  0  0  0  0  0
   56.9160   31.2970   43.7080 C   0  0  0  0  0  0  0  0  0  0  0  0
   56.3930   30.2060   43.0010 C   0  0  0  0  0  0  0  0  0  0  0  0
   56.9590   28.9350   43.1330 C   0  0  0  0  0  0  0  0  0  0  0  0
   58.0360   28.7420   43.9950 C   0  0  0  0  0  0  0  0  0  0  0  0
   58.5670   27.4520   44.1360 O   0  0  0  0  0  0  0  0  0  0  0  0
   57.8300   26.3440   44.5770 C   0  0  0  0  0  0  0  0  0  0  0  0
   57.4220   25.3850   43.6420 C   0  0  0  0  0  0  0  0  0  0  0  0
   56.8740   24.1770   44.0640 C   0  0  0  0  0  0  0  0  0  0  0  0
   56.7520   23.9300   45.4310 C   0  0  0  0  0  0  0  0  0  0  0  0
   57.0960   24.8840   46.3310 N   0  0  0  0  0  0  0  0  0  0  0  0
   57.5830   26.1030   45.9600 C   0  0  0  0  0  0  0  0  0  0  0  0
   57.7770   26.9830   46.9040 N   0  0  0  0  0  0  0  0  0  0  0  0
   58.9200   27.1640   47.7610 C   0  0  0  0  0  0  0  0  0  0  0  0
   59.4580   26.1790   48.3280 O   0  0  0  0  0  0  0  0  0  0  0  0
   59.5760   28.4700   47.8320 C   0  0  0  0  0  0  0  0  0  0  0  0
   60.4180   28.8960   46.8000 C   0  0  0  0  0  0  0  0  0  0  0  0
   61.1200   30.0970   46.9180 C   0  0  0  0  0  0  0  0  0  0  0  0
   60.9560   30.8990   48.0480 C   0  0  0  0  0  0  0  0  0  0  0  0
   60.0600   30.5070   49.0660 C   0  0  0  0  0  0  0  0  0  0  0  0
   59.7720   31.3040   50.1890 O   0  0  0  0  0  0  0  0  0  0  0  0
   60.5870   31.4360   51.3580 C   0  0  0  0  0  0  0  0  0  0  0  0
   59.9610   32.4260   52.3410 C   0  0  0  0  0  0  0  0  0  0  0  0
   58.7860   31.8440   53.0280 N   0  0  0  0  0  0  0  0  0  0  0  0
   58.8400   30.3610   53.0770 C   0  0  0  0  0  0  0  0  0  0  0  0
   57.4600   29.7250   52.8890 C   0  0  0  0  0  0  0  0  0  0  0  0
   56.9120   30.0510   51.6220 O   0  0  0  0  0  0  0  0  0  0  0  0
   57.0070   31.4380   51.3060 C   0  0  0  0  0  0  0  0  0  0  0  0
   57.5220   32.3500   52.4430 C   0  0  0  0  0  0  0  0  0  0  0  0
   59.4020   29.2830   48.9600 C   0  0  0  0  0  0  0  0  0  0  0  0
   58.5850   29.8430   44.6790 C   0  0  0  0  0  0  0  0  0  0  0  0
   59.9440   34.8160   46.3030 C   0  0  0  0  0  0  0  0  0  0  0  0
   61.1710   34.0240   46.7430 C   0  0  0  0  0  0  0  0  0  0  0  0
   62.6590   34.0805   50.9478 H   0  0  0  0  0  0  0  0  0  0  0  0
   63.9971   34.7559   49.9578 H   0  0  0  0  0  0  0  0  0  0  0  0
   62.3882   35.5547   49.9578 H   0  0  0  0  0  0  0  0  0  0  0  0
   60.1160   33.4381   49.9222 H   0  0  0  0  0  0  0  0  0  0  0  0
   59.7717   35.0692   49.2513 H   0  0  0  0  0  0  0  0  0  0  0  0
   59.0416   32.3866   47.9661 H   0  0  0  0  0  0  0  0  0  0  0  0
   57.9112   33.5473   48.7843 H   0  0  0  0  0  0  0  0  0  0  0  0
   57.9432   35.0400   47.0756 H   0  0  0  0  0  0  0  0  0  0  0  0
   59.6970   32.2770   45.2630 H   0  0  0  0  0  0  0  0  0  0  0  0
   56.4418   32.2860   43.6238 H   0  0  0  0  0  0  0  0  0  0  0  0
   55.5289   30.3513   42.3359 H   0  0  0  0  0  0  0  0  0  0  0  0
   56.5549   28.0891   42.5575 H   0  0  0  0  0  0  0  0  0  0  0  0
   57.5353   25.5875   42.5668 H   0  0  0  0  0  0  0  0  0  0  0  0
   56.5420   23.4281   43.3298 H   0  0  0  0  0  0  0  0  0  0  0  0
   56.3752   22.9574   45.7805 H   0  0  0  0  0  0  0  0  0  0  0  0
   60.5275   28.2833   45.8930 H   0  0  0  0  0  0  0  0  0  0  0  0
   61.8050   30.4122   46.1171 H   0  0  0  0  0  0  0  0  0  0  0  0
   61.5243   31.8358   48.1455 H   0  0  0  0  0  0  0  0  0  0  0  0
   60.6824   30.4543   51.8450 H   0  0  0  0  0  0  0  0  0  0  0  0
   61.5774   31.8104   51.0597 H   0  0  0  0  0  0  0  0  0  0  0  0
   60.7128   32.7047   53.0941 H   0  0  0  0  0  0  0  0  0  0  0  0
   59.6261   33.3075   51.7745 H   0  0  0  0  0  0  0  0  0  0  0  0
   59.5062   30.0043   52.2777 H   0  0  0  0  0  0  0  0  0  0  0  0
   59.2135   30.0695   54.0697 H   0  0  0  0  0  0  0  0  0  0  0  0
   57.5551   28.6320   52.9680 H   0  0  0  0  0  0  0  0  0  0  0  0
   56.7887   30.1139   53.6688 H   0  0  0  0  0  0  0  0  0  0  0  0
   57.6913   31.5440   50.4513 H   0  0  0  0  0  0  0  0  0  0  0  0
   55.9791   31.7695   51.0976 H   0  0  0  0  0  0  0  0  0  0  0  0
   57.6957   33.3583   52.0390 H   0  0  0  0  0  0  0  0  0  0  0  0
   56.7614   32.3666   53.2375 H   0  0  0  0  0  0  0  0  0  0  0  0
   58.7380   28.9511   49.7717 H   0  0  0  0  0  0  0  0  0  0  0  0
   59.4484   29.6917   45.3435 H   0  0  0  0  0  0  0  0  0  0  0  0
   59.9034   34.8244   45.2038 H   0  0  0  0  0  0  0  0  0  0  0  0
   60.0366   35.8344   46.7084 H   0  0  0  0  0  0  0  0  0  0  0  0
   61.1136   33.0051   46.3326 H   0  0  0  0  0  0  0  0  0  0  0  0
   62.0771   34.5248   46.3712 H   0  0  0  0  0  0  0  0  0  0  0  0
  1  2  1  0
  2  3  2  0
  2  4  1  0
  4  5  1  0
  5  6  1  0
  6  7  1  0
  7  8  1  0
  8  9  2  0
  8 10  1  0
 10 11  1  0
 11 12  2  0
 12 13  1  0
 13 14  2  0
 14 15  1  0
 15 16  1  0
 16 17  1  0
 17 18  2  0
 18 19  1  0
 19 20  2  0
 20 21  1  0
 21 22  1  0
 22 23  2  3
 23 24  1  0
 24 25  2  0
 24 26  1  0
 26 27  2  0
 27 28  1  0
 28 29  2  0
 29 30  1  0
 30 31  1  0
 31 32  1  0
 32 33  1  0
 33 34  1  0
 34 35  1  0
 35 36  1  0
 36 37  1  0
 37 38  1  0
 38 39  1  0
 30 40  2  0
 15 41  2  0
  7 42  1  0
 42 43  1  0
 43  4  1  0
 41 11  1  0
 22 17  1  0
 40 26  1  0
 39 34  1  0
  1 44  1  0
  1 45  1  0
  1 46  1  0
  5 47  1  0
  5 48  1  0
  6 49  1  0
  6 50  1  0
  7 51  1  0
 10 52  1  0
 12 53  1  0
 13 54  1  0
 14 55  1  0
 18 56  1  0
 19 57  1  0
 20 58  1  0
 27 59  1  0
 28 60  1  0
 29 61  1  0
 32 62  1  0
 32 63  1  0
 33 64  1  0
 33 65  1  0
 35 66  1  0
 35 67  1  0
 36 68  1  0
 36 69  1  0
 38 70  1  0
 38 71  1  0
 39 72  1  0
 39 73  1  0
 40 74  1  0
 41 75  1  0
 42 76  1  0
 42 77  1  0
 43 78  1  0
 43 79  1  0
M  CHG  1  21  -1
M  END
>  <UniqueID>  (48) 
47

>  <SMILES>  (48) 
CC(=O)N1CCC(C(=O)Nc2cccc(Oc3ccc[n-]c3=NC(=O)c3cccc(OCCN4CCOCC4)c3)c2)CC1

>  <Energy>  (48) 
132.34060400225476

>  <Genealogy>  (48) 
CC(=O)N1CCC(C(=O)Nc2cccc(Oc3ccc[n-]c3=NC(=O)c3cccc(OCCN4CCOCC4)c3)c2)CC1 (protonated)
CC(=O)N1CCC(C(=O)Nc2cccc(Oc3ccc[n-]c3=NC(=O)c3cccc(OCCN4CCOCC4)c3)c2)CC1 (3D coordinates assigned)
CC(=O)N1CCC(C(=O)Nc2cccc(Oc3ccc[n-]c3=NC(=O)c3cccc(OCCN4CCOCC4)c3)c2)CC1 (nonaromatic ring conformer: 132.34060400225476 kcal/mol)

>  <smiles>  (48) 
CC(=O)N1CCC(C(=O)Nc2cccc(Oc3ccc[nH]c3=NC(=O)c3cccc(OCCN4CCOCC4)c3)c2)CC1

>  <score_type>  (48) 
oracle

>  <origin>  (48) 
adg

>  <m_score__min__energy>  (48) 
-11.779999999999999

>  <m_primary>  (48) 
energy

$$$$
48:0
     RDKit          3D

 48 50  0  0  0  0  0  0  0  0999 V2000
   56.7170   29.9992   43.1336 H   0  0  0  0  0  0  0  0  0  0  0  0
   57.5140   30.4870   43.7140 C   0  0  0  0  0  0  0  0  0  0  0  0
   57.5820   31.9620   43.6650 C   0  0  0  0  0  0  0  0  0  0  0  0
   57.5910   32.5300   42.5420 O   0  0  0  0  0  0  0  0  0  0  0  0
   57.6250   32.7310   44.8740 N   0  0  0  0  0  0  0  0  0  0  0  0
   58.7630   32.9930   45.7070 C   0  0  0  0  0  0  0  0  0  0  0  0
   59.3350   31.9240   46.4070 C   0  0  0  0  0  0  0  0  0  0  0  0
   58.9163   30.9130   46.2955 H   0  0  0  0  0  0  0  0  0  0  0  0
   60.4330   32.1300   47.2460 C   0  0  0  0  0  0  0  0  0  0  0  0
   60.8804   31.2792   47.7807 H   0  0  0  0  0  0  0  0  0  0  0  0
   60.9680   33.4170   47.4100 C   0  0  0  0  0  0  0  0  0  0  0  0
   62.0960   33.6400   48.2790 N   0  0  0  0  0  0  0  0  0  0  0  0
   61.9020   34.2300   49.6070 C   0  0  0  0  0  0  0  0  0  0  0  0
   60.8699   34.0454   49.9396 H   0  0  0  0  0  0  0  0  0  0  0  0
   62.0897   35.3124   49.5504 H   0  0  0  0  0  0  0  0  0  0  0  0
   62.8760   33.6050   50.6090 C   0  0  0  0  0  0  0  0  0  0  0  0
   62.5640   32.5719   50.8218 H   0  0  0  0  0  0  0  0  0  0  0  0
   62.8676   34.2001   51.5341 H   0  0  0  0  0  0  0  0  0  0  0  0
   64.2410   33.5960   50.0590 N   0  0  0  0  0  0  0  0  0  0  0  0
   65.3900   33.8340   50.9020 C   0  0  0  0  0  0  0  0  0  0  0  0
   66.5030   33.3120   50.6150 O   0  0  0  0  0  0  0  0  0  0  0  0
   65.2980   34.6860   52.1310 C   0  0  0  0  0  0  0  0  0  0  0  0
   65.3668   34.0487   53.0249 H   0  0  0  0  0  0  0  0  0  0  0  0
   66.1228   35.4138   52.1352 H   0  0  0  0  0  0  0  0  0  0  0  0
   64.3369   35.2210   52.1352 H   0  0  0  0  0  0  0  0  0  0  0  0
   64.4240   32.9980   48.7280 C   0  0  0  0  0  0  0  0  0  0  0  0
   64.2313   31.9166   48.7858 H   0  0  0  0  0  0  0  0  0  0  0  0
   65.4559   33.1778   48.3922 H   0  0  0  0  0  0  0  0  0  0  0  0
   63.4560   33.6310   47.7280 C   0  0  0  0  0  0  0  0  0  0  0  0
   63.4663   33.0500   46.7940 H   0  0  0  0  0  0  0  0  0  0  0  0
   63.7704   34.6661   47.5285 H   0  0  0  0  0  0  0  0  0  0  0  0
   60.3800   34.4940   46.7290 C   0  0  0  0  0  0  0  0  0  0  0  0
   60.7863   35.5082   46.8568 H   0  0  0  0  0  0  0  0  0  0  0  0
   59.2810   34.2870   45.8890 C   0  0  0  0  0  0  0  0  0  0  0  0
   58.8204   35.1399   45.3689 H   0  0  0  0  0  0  0  0  0  0  0  0
   58.3440   29.6930   44.4080 C   0  0  0  0  0  0  0  0  0  0  0  0
   59.4159   29.9392   44.3893 H   0  0  0  0  0  0  0  0  0  0  0  0
   57.9290   28.5140   45.1950 C   0  0  0  0  0  0  0  0  0  0  0  0
   58.8800   27.6940   45.8290 C   0  0  0  0  0  0  0  0  0  0  0  0
   59.9502   27.9374   45.7554 H   0  0  0  0  0  0  0  0  0  0  0  0
   58.4690   26.5710   46.5520 C   0  0  0  0  0  0  0  0  0  0  0  0
   59.2149   25.9428   47.0609 H   0  0  0  0  0  0  0  0  0  0  0  0
   57.1120   26.2440   46.6300 C   0  0  0  0  0  0  0  0  0  0  0  0
   56.7110   25.1260   47.3530 O   0  0  0  0  0  0  0  0  0  0  0  0
   56.1620   27.0380   45.9770 C   0  0  0  0  0  0  0  0  0  0  0  0
   54.8120   26.7130   46.0430 O   0  0  0  0  0  0  0  0  0  0  0  0
   56.5720   28.1630   45.2510 C   0  0  0  0  0  0  0  0  0  0  0  0
   55.8263   28.7746   44.7220 H   0  0  0  0  0  0  0  0  0  0  0  0
  1  2  1  0
  2  3  1  0
  3  4  2  0
  3  5  1  0
  5  6  1  0
  6  7  2  0
  7  8  1  0
  7  9  1  0
  9 10  1  0
  9 11  2  0
 11 12  1  0
 12 13  1  0
 13 14  1  0
 13 15  1  0
 13 16  1  0
 16 17  1  0
 16 18  1  0
 16 19  1  0
 19 20  1  0
 20 21  2  0
 20 22  1  0
 22 23  1  0
 22 24  1  0
 22 25  1  0
 19 26  1  0
 26 27  1  0
 26 28  1  0
 26 29  1  0
 29 30  1  0
 29 31  1  0
 11 32  1  0
 32 33  1  0
 32 34  2  0
 34 35  1  0
  2 36  2  0
 36 37  1  0
 36 38  1  0
 38 39  2  0
 39 40  1  0
 39 41  1  0
 41 42  1  0
 41 43  2  0
 43 44  1  0
 43 45  1  0
 45 46  1  0
 45 47  2  0
 47 48  1  0
 34  6  1  0
 47 38  1  0
 29 12  1  0
M  CHG  3   5  -1  44  -1  46  -1
M  END
>  <UniqueID>  (49) 
48

>  <SMILES>  (49) 
CC(=O)N1CCN(c2ccc([N-]C(=O)/C=C\c3ccc([O-])c([O-])c3)cc2)CC1

>  <Energy>  (49) 
63.707435856490335

>  <Genealogy>  (49) 
CC(=O)N1CCN(c2ccc([N-]C(=O)C=Cc3ccc([O-])c([O-])c3)cc2)CC1 (protonated)
CC(=O)N1CCN(c2ccc([N-]C(=O)/C=C\c3ccc([O-])c([O-])c3)cc2)CC1 (cis-trans isomerization)
CC(=O)N1CCN(c2ccc([N-]C(=O)/C=C\c3ccc([O-])c([O-])c3)cc2)CC1 (3D coordinates assigned)
CC(=O)N1CCN(c2ccc([N-]C(=O)/C=C\c3ccc([O-])c([O-])c3)cc2)CC1 (nonaromatic ring conformer: 63.707435856490335 kcal/mol)

>  <smiles>  (49) 
CC(=O)N1CCN(c2ccc(NC(=O)C=Cc3ccc(O)c(O)c3)cc2)CC1

>  <score_type>  (49) 
oracle

>  <origin>  (49) 
adg

>  <m_score__min__energy>  (49) 
-17.390000000000001

>  <m_primary>  (49) 
energy

$$$$
49:0
     RDKit          3D

 59 61  0  0  0  0  0  0  0  0999 V2000
   57.1960   28.6240   43.0530 C   0  0  0  0  0  0  0  0  0  0  0  0
   56.7120   30.0730   43.9710 S   0  0  0  0  0  0  0  0  0  0  0  0
   55.3240   29.9060   44.5260 O   0  0  0  0  0  0  0  0  0  0  0  0
   56.7190   31.2550   43.0410 O   0  0  0  0  0  0  0  0  0  0  0  0
   57.8330   30.3630   45.2630 N   0  0  0  0  0  0  0  0  0  0  0  0
   58.1620   31.6650   45.7810 C   0  0  0  0  0  0  0  0  0  0  0  0
   57.4960   32.7910   45.2690 C   0  0  0  0  0  0  0  0  0  0  0  0
   57.8060   34.0700   45.7370 C   0  0  0  0  0  0  0  0  0  0  0  0
   58.7900   34.2420   46.7130 C   0  0  0  0  0  0  0  0  0  0  0  0
   59.4720   33.1320   47.2260 C   0  0  0  0  0  0  0  0  0  0  0  0
   60.7360   33.3420   48.4330 S   0  0  0  0  0  0  0  0  0  0  0  0
   61.6170   34.4990   48.0510 O   0  0  0  0  0  0  0  0  0  0  0  0
   60.0990   33.6470   49.7600 O   0  0  0  0  0  0  0  0  0  0  0  0
   61.7030   31.9150   48.5940 N   0  0  0  0  0  0  0  0  0  0  0  0
   61.6750   31.0960   49.7640 C   0  0  0  0  0  0  0  0  0  0  0  0
   62.2750   31.5380   50.9520 C   0  0  0  0  0  0  0  0  0  0  0  0
   62.2880   30.7150   52.0800 C   0  0  0  0  0  0  0  0  0  0  0  0
   61.7290   29.4380   52.0190 C   0  0  0  0  0  0  0  0  0  0  0  0
   61.1490   28.9820   50.8330 C   0  0  0  0  0  0  0  0  0  0  0  0
   61.0990   29.8160   49.6980 C   0  0  0  0  0  0  0  0  0  0  0  0
   60.4690   29.4260   48.5030 O   0  0  0  0  0  0  0  0  0  0  0  0
   59.2950   28.6180   48.4090 C   0  0  0  0  0  0  0  0  0  0  0  0
   59.0390   28.1620   47.0050 C   0  0  0  0  0  0  0  0  0  0  0  0
   59.9550   28.2000   46.1400 O   0  0  0  0  0  0  0  0  0  0  0  0
   57.7410   27.6810   46.6560 N   0  0  0  0  0  0  0  0  0  0  0  0
   57.4840   26.2850   46.2970 C   0  0  2  0  0  0  0  0  0  0  0  0
   57.9880   26.0200   44.8640 C   0  0  0  0  0  0  0  0  0  0  0  0
   57.7310   24.6040   44.4050 C   0  0  0  0  0  0  0  0  0  0  0  0
   56.7720   24.3380   43.4150 C   0  0  0  0  0  0  0  0  0  0  0  0
   56.5020   23.0200   43.0260 C   0  0  0  0  0  0  0  0  0  0  0  0
   57.1840   21.9590   43.6240 C   0  0  0  0  0  0  0  0  0  0  0  0
   58.1430   22.2170   44.6080 C   0  0  0  0  0  0  0  0  0  0  0  0
   58.4160   23.5320   44.9990 C   0  0  0  0  0  0  0  0  0  0  0  0
   56.0240   25.9600   46.4400 C   0  0  0  0  0  0  0  0  0  0  0  0
   55.1400   26.7190   45.9540 O   0  0  0  0  0  0  0  0  0  0  0  0
   55.6430   24.7710   47.0420 O   0  0  0  0  0  0  0  0  0  0  0  0
   59.1490   31.8470   46.7690 C   0  0  0  0  0  0  0  0  0  0  0  0
   57.4648   27.8193   43.7531 H   0  0  0  0  0  0  0  0  0  0  0  0
   56.3591   28.2947   42.4197 H   0  0  0  0  0  0  0  0  0  0  0  0
   58.0628   28.8638   42.4197 H   0  0  0  0  0  0  0  0  0  0  0  0
   58.3120   29.5270   45.6630 H   0  0  0  0  0  0  0  0  0  0  0  0
   56.7253   32.6646   44.4944 H   0  0  0  0  0  0  0  0  0  0  0  0
   57.2733   34.9447   45.3355 H   0  0  0  0  0  0  0  0  0  0  0  0
   59.0296   35.2512   47.0793 H   0  0  0  0  0  0  0  0  0  0  0  0
   62.7366   32.5355   50.9954 H   0  0  0  0  0  0  0  0  0  0  0  0
   62.7391   31.0735   53.0170 H   0  0  0  0  0  0  0  0  0  0  0  0
   61.7451   28.7889   52.9069 H   0  0  0  0  0  0  0  0  0  0  0  0
   60.7290   27.9665   50.7846 H   0  0  0  0  0  0  0  0  0  0  0  0
   59.4194   27.7345   49.0523 H   0  0  0  0  0  0  0  0  0  0  0  0
   58.4369   29.2264   48.7306 H   0  0  0  0  0  0  0  0  0  0  0  0
   58.0322   25.6246   46.9850 H   0  0  0  0  0  0  0  0  0  0  0  0
   57.4753   26.7103   44.1780 H   0  0  0  0  0  0  0  0  0  0  0  0
   59.0769   26.1761   44.8620 H   0  0  0  0  0  0  0  0  0  0  0  0
   56.2294   25.1697   42.9420 H   0  0  0  0  0  0  0  0  0  0  0  0
   55.7509   22.8205   42.2475 H   0  0  0  0  0  0  0  0  0  0  0  0
   56.9677   20.9236   43.3221 H   0  0  0  0  0  0  0  0  0  0  0  0
   58.6851   21.3825   45.0767 H   0  0  0  0  0  0  0  0  0  0  0  0
   59.1706   23.7271   45.7752 H   0  0  0  0  0  0  0  0  0  0  0  0
   59.6710   30.9730   47.1857 H   0  0  0  0  0  0  0  0  0  0  0  0
  1  2  1  0
  2  3  2  0
  2  4  2  0
  2  5  1  0
  5  6  1  0
  6  7  2  0
  7  8  1  0
  8  9  2  0
  9 10  1  0
 10 11  1  0
 11 12  2  0
 11 13  2  0
 11 14  1  0
 14 15  1  0
 15 16  2  0
 16 17  1  0
 17 18  2  0
 18 19  1  0
 19 20  2  0
 20 21  1  0
 21 22  1  0
 22 23  1  0
 23 24  2  0
 23 25  1  0
 25 26  1  0
 26 27  1  0
 27 28  1  0
 28 29  2  0
 29 30  1  0
 30 31  2  0
 31 32  1  0
 32 33  2  0
 26 34  1  0
 34 35  2  0
 34 36  1  0
 10 37  2  0
 37  6  1  0
 20 15  1  0
 33 28  1  0
  1 38  1  0
  1 39  1  0
  1 40  1  0
  5 41  1  0
  7 42  1  0
  8 43  1  0
  9 44  1  0
 16 45  1  0
 17 46  1  0
 18 47  1  0
 19 48  1  0
 22 49  1  0
 22 50  1  0
 26 51  1  1
 27 52  1  0
 27 53  1  0
 29 54  1  0
 30 55  1  0
 31 56  1  0
 32 57  1  0
 33 58  1  0
 37 59  1  0
M  CHG  3  14  -1  25  -1  36  -1
M  END
>  <UniqueID>  (50) 
49

>  <SMILES>  (50) 
CS(=O)(=O)Nc1cccc(S(=O)(=O)[N-]c2ccccc2OCC(=O)[N-][C@H](Cc2ccccc2)C(=O)[O-])c1

>  <Energy>  (50) 
69.65295693079685

>  <Genealogy>  (50) 
CS(=O)(=O)Nc1cccc(S(=O)(=O)[N-]c2ccccc2OCC(=O)[N-]C(Cc2ccccc2)C(=O)[O-])c1 (protonated)
CS(=O)(=O)Nc1cccc(S(=O)(=O)[N-]c2ccccc2OCC(=O)[N-][C@H](Cc2ccccc2)C(=O)[O-])c1 (chirality)
CS(=O)(=O)Nc1cccc(S(=O)(=O)[N-]c2ccccc2OCC(=O)[N-][C@H](Cc2ccccc2)C(=O)[O-])c1 (3D coordinates assigned)
CS(=O)(=O)Nc1cccc(S(=O)(=O)[N-]c2ccccc2OCC(=O)[N-][C@H](Cc2ccccc2)C(=O)[O-])c1 (optimized conformer: 69.65295693079685 kcal/mol)

>  <smiles>  (50) 
CS(=O)(=O)Nc1cccc(S(=O)(=O)Nc2ccccc2OCC(=O)NC(Cc2ccccc2)C(=O)O)c1

>  <score_type>  (50) 
oracle

>  <origin>  (50) 
adg

>  <m_score__min__energy>  (50) 
-15.75

>  <m_primary>  (50) 
energy

$$$$
50:0
     RDKit          3D

 51 53  0  0  0  0  0  0  0  0999 V2000
   55.1500   28.2460   44.4480 H   0  0  0  0  0  0  0  0  0  0  0  0
   55.1650   29.2100   44.8490 N   0  0  0  0  0  0  0  0  0  0  0  0
   56.2800   30.0740   44.6290 C   0  0  0  0  0  0  0  0  0  0  0  0
   56.0670   31.2410   44.1990 O   0  0  0  0  0  0  0  0  0  0  0  0
   57.6770   29.6160   44.8770 C   0  0  0  0  0  0  0  0  0  0  0  0
   58.1280   28.4410   44.2390 C   0  0  0  0  0  0  0  0  0  0  0  0
   57.4488   27.8918   43.5704 H   0  0  0  0  0  0  0  0  0  0  0  0
   59.4250   27.9660   44.4450 C   0  0  0  0  0  0  0  0  0  0  0  0
   59.7578   27.0443   43.9453 H   0  0  0  0  0  0  0  0  0  0  0  0
   60.2980   28.6570   45.2820 C   0  0  0  0  0  0  0  0  0  0  0  0
   61.3193   28.2810   45.4421 H   0  0  0  0  0  0  0  0  0  0  0  0
   59.8780   29.8250   45.9170 C   0  0  0  0  0  0  0  0  0  0  0  0
   60.5781   30.3746   46.5633 H   0  0  0  0  0  0  0  0  0  0  0  0
   58.5670   30.3090   45.7400 C   0  0  0  0  0  0  0  0  0  0  0  0
   58.1640   31.5350   46.3720 N   0  0  0  0  0  0  0  0  0  0  0  0
   58.8460   32.2070   47.4410 C   0  0  0  0  0  0  0  0  0  0  0  0
   59.4280   33.2960   47.1930 O   0  0  0  0  0  0  0  0  0  0  0  0
   58.8460   31.6810   48.8270 C   0  0  0  0  0  0  0  0  0  0  0  0
   59.0670   30.3140   49.0610 C   0  0  0  0  0  0  0  0  0  0  0  0
   59.2420   29.6356   48.2130 H   0  0  0  0  0  0  0  0  0  0  0  0
   59.0660   29.8100   50.3650 C   0  0  0  0  0  0  0  0  0  0  0  0
   59.2163   28.7336   50.5348 H   0  0  0  0  0  0  0  0  0  0  0  0
   58.8750   30.6660   51.4560 C   0  0  0  0  0  0  0  0  0  0  0  0
   58.8500   30.1120   52.7780 N   0  0  0  0  0  0  0  0  0  0  0  0
   57.7750   30.2170   53.7220 C   0  0  0  0  0  0  0  0  0  0  0  0
   57.8010   31.1470   54.5710 O   0  0  0  0  0  0  0  0  0  0  0  0
   56.6020   29.2780   53.6980 C   0  0  0  0  0  0  0  0  0  0  0  0
   56.9376   28.2742   53.9977 H   0  0  0  0  0  0  0  0  0  0  0  0
   55.8379   29.6510   54.3959 H   0  0  0  0  0  0  0  0  0  0  0  0
   56.0330   29.2100   52.3910 O   0  0  0  0  0  0  0  0  0  0  0  0
   54.9620   30.0110   51.9770 C   0  0  0  0  0  0  0  0  0  0  0  0
   55.1350   31.2370   51.7320 O   0  0  0  0  0  0  0  0  0  0  0  0
   53.6330   29.3940   51.8250 C   0  0  0  0  0  0  0  0  0  0  0  0
   53.5220   28.3181   52.0253 H   0  0  0  0  0  0  0  0  0  0  0  0
   52.5530   30.0970   51.4510 C   0  0  0  0  0  0  0  0  0  0  0  0
   52.1599   29.9462   50.4348 H   0  0  0  0  0  0  0  0  0  0  0  0
   51.8600   31.0680   52.3360 C   0  0  0  0  0  0  0  0  0  0  0  0
   51.6810   30.8230   53.7140 C   0  0  0  0  0  0  0  0  0  0  0  0
   52.0616   29.8903   54.1557 H   0  0  0  0  0  0  0  0  0  0  0  0
   51.0250   31.7540   54.5220 C   0  0  0  0  0  0  0  0  0  0  0  0
   50.8839   31.5486   55.5934 H   0  0  0  0  0  0  0  0  0  0  0  0
   50.5480   32.9450   53.9720 C   0  0  0  0  0  0  0  0  0  0  0  0
   50.0240   33.6729   54.6089 H   0  0  0  0  0  0  0  0  0  0  0  0
   50.7350   33.2140   52.6140 C   0  0  0  0  0  0  0  0  0  0  0  0
   50.2690   34.4090   52.0780 O   0  0  0  0  0  0  0  0  0  0  0  0
   51.3890   32.2850   51.7960 C   0  0  0  0  0  0  0  0  0  0  0  0
   51.5600   32.5730   50.4440 O   0  0  0  0  0  0  0  0  0  0  0  0
   58.6420   32.0320   51.2250 C   0  0  0  0  0  0  0  0  0  0  0  0
   58.4594   32.7072   52.0740 H   0  0  0  0  0  0  0  0  0  0  0  0
   58.6410   32.5370   49.9230 C   0  0  0  0  0  0  0  0  0  0  0  0
   58.4787   33.6118   49.7540 H   0  0  0  0  0  0  0  0  0  0  0  0
  1  2  1  0
  2  3  1  0
  3  4  2  0
  3  5  1  0
  5  6  2  0
  6  7  1  0
  6  8  1  0
  8  9  1  0
  8 10  2  0
 10 11  1  0
 10 12  1  0
 12 13  1  0
 12 14  2  0
 14 15  1  0
 15 16  1  0
 16 17  2  0
 16 18  1  0
 18 19  2  0
 19 20  1  0
 19 21  1  0
 21 22  1  0
 21 23  2  0
 23 24  1  0
 24 25  1  0
 25 26  2  0
 25 27  1  0
 27 28  1  0
 27 29  1  0
 27 30  1  0
 30 31  1  0
 31 32  2  0
 31 33  1  0
 33 34  1  0
 33 35  2  0
 35 36  1  0
 35 37  1  0
 37 38  2  0
 38 39  1  0
 38 40  1  0
 40 41  1  0
 40 42  2  0
 42 43  1  0
 42 44  1  0
 44 45  1  0
 44 46  2  0
 46 47  1  0
 23 48  1  0
 48 49  1  0
 48 50  2  0
 50 51  1  0
 14  5  1  0
 50 18  1  0
 46 37  1  0
M  CHG  5   2  -1  15  -1  24  -1  45  -1  47  -1
M  END
>  <UniqueID>  (51) 
50

>  <SMILES>  (51) 
[NH-]C(=O)c1ccccc1[N-]C(=O)c1ccc([N-]C(=O)COC(=O)/C=C/c2cccc([O-])c2[O-])cc1

>  <Energy>  (51) 
69.37933142782218

>  <Genealogy>  (51) 
[NH-]C(=O)c1ccccc1[N-]C(=O)c1ccc([N-]C(=O)COC(=O)C=Cc2cccc([O-])c2[O-])cc1 (protonated)
[NH-]C(=O)c1ccccc1[N-]C(=O)c1ccc([N-]C(=O)COC(=O)/C=C/c2cccc([O-])c2[O-])cc1 (cis-trans isomerization)
[NH-]C(=O)c1ccccc1[N-]C(=O)c1ccc([N-]C(=O)COC(=O)/C=C/c2cccc([O-])c2[O-])cc1 (3D coordinates assigned)
[NH-]C(=O)c1ccccc1[N-]C(=O)c1ccc([N-]C(=O)COC(=O)/C=C/c2cccc([O-])c2[O-])cc1 (optimized conformer: 69.37933142782218 kcal/mol)

>  <smiles>  (51) 
NC(=O)c1ccccc1NC(=O)c1ccc(NC(=O)COC(=O)C=Cc2cccc(O)c2O)cc1

>  <score_type>  (51) 
oracle

>  <origin>  (51) 
adg

>  <m_score__min__energy>  (51) 
-22.649999999999999

>  <m_primary>  (51) 
energy

$$$$
51:0
     RDKit          3D

 44 47  0  0  0  0  0  0  0  0999 V2000
   56.2660   28.2980   42.7210 H   0  0  0  0  0  0  0  0  0  0  0  0
   56.2910   29.3020   42.4310 N   0  0  0  0  0  0  0  0  0  0  0  0
   56.8400   30.2450   43.1360 C   0  0  0  0  0  0  0  0  0  0  0  0
   56.8200   30.2110   44.5460 C   0  0  0  0  0  0  0  0  0  0  0  0
   56.1740   29.1220   45.2270 N   0  0  0  0  0  0  0  0  0  0  0  0
   56.8660   27.5570   45.5110 S   0  0  0  0  0  0  0  0  0  0  0  0
   57.3840   27.0050   44.2130 O   0  0  0  0  0  0  0  0  0  0  0  0
   55.8020   26.6330   46.0330 O   0  0  0  0  0  0  0  0  0  0  0  0
   58.2050   27.6900   46.6470 C   0  0  0  0  0  0  0  0  0  0  0  0
   58.9880   26.5600   46.9270 C   0  0  0  0  0  0  0  0  0  0  0  0
   58.7629   25.6015   46.4366 H   0  0  0  0  0  0  0  0  0  0  0  0
   60.0540   26.6490   47.8280 C   0  0  0  0  0  0  0  0  0  0  0  0
   60.6653   25.7611   48.0469 H   0  0  0  0  0  0  0  0  0  0  0  0
   60.3420   27.8670   48.4500 C   0  0  0  0  0  0  0  0  0  0  0  0
   61.1825   27.9379   49.1561 H   0  0  0  0  0  0  0  0  0  0  0  0
   59.5630   28.9960   48.1760 C   0  0  0  0  0  0  0  0  0  0  0  0
   59.7911   29.9530   48.6680 H   0  0  0  0  0  0  0  0  0  0  0  0
   58.4940   28.9100   47.2770 C   0  0  0  0  0  0  0  0  0  0  0  0
   57.8808   29.7981   47.0644 H   0  0  0  0  0  0  0  0  0  0  0  0
   57.4360   31.2570   45.2530 C   0  0  0  0  0  0  0  0  0  0  0  0
   57.4426   31.2385   46.3528 H   0  0  0  0  0  0  0  0  0  0  0  0
   58.0430   32.3250   44.5750 C   0  0  0  0  0  0  0  0  0  0  0  0
   58.7000   33.4470   45.3010 C   0  0  0  0  0  0  0  0  0  0  0  0
   59.2850   33.2560   46.5170 N   0  0  0  0  0  0  0  0  0  0  0  0
   59.8290   34.3860   47.0090 C   0  0  0  0  0  0  0  0  0  0  0  0
   60.4800   34.4040   48.1360 N   0  0  0  0  0  0  0  0  0  0  0  0
   61.7710   33.8290   48.3980 C   0  0  0  0  0  0  0  0  0  0  0  0
   62.4570   33.0650   47.4340 C   0  0  0  0  0  0  0  0  0  0  0  0
   61.9957   32.8771   46.4532 H   0  0  0  0  0  0  0  0  0  0  0  0
   63.7220   32.5450   47.7200 C   0  0  0  0  0  0  0  0  0  0  0  0
   64.2443   31.9292   46.9730 H   0  0  0  0  0  0  0  0  0  0  0  0
   64.3250   32.8060   48.9540 C   0  0  0  0  0  0  0  0  0  0  0  0
   65.3169   32.3879   49.1805 H   0  0  0  0  0  0  0  0  0  0  0  0
   63.6690   33.5970   49.8990 C   0  0  0  0  0  0  0  0  0  0  0  0
   64.4330   33.9420   51.4410 Cl  0  0  0  0  0  0  0  0  0  0  0  0
   62.3980   34.1160   49.6180 C   0  0  0  0  0  0  0  0  0  0  0  0
   61.8902   34.7515   50.3584 H   0  0  0  0  0  0  0  0  0  0  0  0
   59.6360   35.6770   45.9450 S   0  0  0  0  0  0  0  0  0  0  0  0
   58.7950   34.7560   44.8160 C   0  0  0  0  0  0  0  0  0  0  0  0
   58.3894   35.1203   43.8606 H   0  0  0  0  0  0  0  0  0  0  0  0
   58.0260   32.3110   43.1730 C   0  0  0  0  0  0  0  0  0  0  0  0
   58.4888   33.1381   42.6147 H   0  0  0  0  0  0  0  0  0  0  0  0
   57.4430   31.2850   42.4960 N   0  0  0  0  0  0  0  0  0  0  0  0
   57.4610   31.3060   41.4500 H   0  0  0  0  0  0  0  0  0  0  0  0
  1  2  1  0
  2  3  2  3
  3  4  1  0
  4  5  1  0
  5  6  1  0
  6  7  2  0
  6  8  2  0
  6  9  1  0
  9 10  2  0
 10 11  1  0
 10 12  1  0
 12 13  1  0
 12 14  2  0
 14 15  1  0
 14 16  1  0
 16 17  1  0
 16 18  2  0
 18 19  1  0
  4 20  2  0
 20 21  1  0
 20 22  1  0
 22 23  1  0
 23 24  1  0
 24 25  1  0
 25 26  2  0
 26 27  1  0
 27 28  2  0
 28 29  1  0
 28 30  1  0
 30 31  1  0
 30 32  2  0
 32 33  1  0
 32 34  1  0
 34 35  1  0
 34 36  2  0
 36 37  1  0
 25 38  1  0
 38 39  1  0
 39 40  1  0
 22 41  2  0
 41 42  1  0
 41 43  1  0
 43 44  1  0
 43  3  1  0
 18  9  1  0
 39 23  2  0
 36 27  1  0
M  CHG  2   5  -1  24  -1
M  END
>  <UniqueID>  (52) 
51

>  <SMILES>  (52) 
N=c1[nH]cc(-c2cs/c(=N\c3cccc(Cl)c3)[n-]2)cc1[N-]S(=O)(=O)c1ccccc1

>  <Energy>  (52) 
93.19475242543083

>  <Genealogy>  (52) 
N=c1[nH]cc(-c2csc(=Nc3cccc(Cl)c3)[n-]2)cc1[N-]S(=O)(=O)c1ccccc1 (protonated)
N=c1[nH]cc(-c2cs/c(=N\c3cccc(Cl)c3)[n-]2)cc1[N-]S(=O)(=O)c1ccccc1 (cis-trans isomerization)
N=c1[nH]cc(-c2cs/c(=N\c3cccc(Cl)c3)[n-]2)cc1[N-]S(=O)(=O)c1ccccc1 (3D coordinates assigned)
N=c1[nH]cc(-c2cs/c(=N\c3cccc(Cl)c3)[n-]2)cc1[N-]S(=O)(=O)c1ccccc1 (optimized conformer: 93.19475242543083 kcal/mol)

>  <smiles>  (52) 
N=c1[nH]cc(-c2csc(=Nc3cccc(Cl)c3)[nH]2)cc1NS(=O)(=O)c1ccccc1

>  <score_type>  (52) 
oracle

>  <origin>  (52) 
adg

>  <m_score__min__energy>  (52) 
-12.289999999999999

>  <m_primary>  (52) 
energy

$$$$
52:0
     RDKit          3D

 56 59  0  0  0  0  0  0  0  0999 V2000
   54.3760   26.7110   46.8050 H   0  0  0  0  0  0  0  0  0  0  0  0
   55.1240   26.5680   46.1370 O   0  0  0  0  0  0  0  0  0  0  0  0
   56.1280   25.6410   46.3900 C   0  0  0  0  0  0  0  0  0  0  0  0
   55.9030   24.3700   46.7660 N   0  0  0  0  0  0  0  0  0  0  0  0
   57.1500   23.8660   46.8620 C   0  0  0  0  0  0  0  0  0  0  0  0
   57.3740   22.6730   47.1940 O   0  0  0  0  0  0  0  0  0  0  0  0
   58.1380   24.7360   46.5650 N   0  0  0  0  0  0  0  0  0  0  0  0
   57.4780   25.8760   46.2920 C   0  0  0  0  0  0  0  0  0  0  0  0
   58.1010   27.1040   45.7670 C   0  0  0  0  0  0  0  0  0  0  0  0
   57.8874   27.3689   44.7210 H   0  0  0  0  0  0  0  0  0  0  0  0
   58.9100   27.9300   46.4590 C   0  0  0  0  0  0  0  0  0  0  0  0
   58.6820   28.2650   47.7830 C   0  0  0  0  0  0  0  0  0  0  0  0
   57.9032   27.8495   48.4394 H   0  0  0  0  0  0  0  0  0  0  0  0
   59.6180   29.2190   48.1210 C   0  0  0  0  0  0  0  0  0  0  0  0
   59.7010   29.8790   49.4640 C   0  0  0  0  0  0  0  0  0  0  0  0
   59.6053   29.1184   50.2529 H   0  0  0  0  0  0  0  0  0  0  0  0
   60.6704   30.3894   49.5624 H   0  0  0  0  0  0  0  0  0  0  0  0
   58.8882   30.6136   49.5624 H   0  0  0  0  0  0  0  0  0  0  0  0
   60.4450   29.4640   47.0770 N   0  0  0  0  0  0  0  0  0  0  0  0
   61.5320   30.4580   47.0490 C   0  0  0  0  0  0  0  0  0  0  0  0
   62.0439   30.4566   48.0226 H   0  0  0  0  0  0  0  0  0  0  0  0
   62.2290   30.1874   46.2422 H   0  0  0  0  0  0  0  0  0  0  0  0
   60.9920   31.8680   46.7700 C   0  0  0  0  0  0  0  0  0  0  0  0
   61.7352   32.4235   46.1792 H   0  0  0  0  0  0  0  0  0  0  0  0
   60.0443   31.7687   46.2204 H   0  0  0  0  0  0  0  0  0  0  0  0
   60.7170   32.6260   48.0470 C   0  0  0  0  0  0  0  0  0  0  0  0
   61.4050   32.2760   49.2220 C   0  0  0  0  0  0  0  0  0  0  0  0
   62.1147   31.4356   49.2101 H   0  0  0  0  0  0  0  0  0  0  0  0
   61.1930   32.9890   50.4050 C   0  0  0  0  0  0  0  0  0  0  0  0
   61.7268   32.7022   51.3230 H   0  0  0  0  0  0  0  0  0  0  0  0
   60.3040   34.0650   50.4220 C   0  0  0  0  0  0  0  0  0  0  0  0
   60.1389   34.6258   51.3538 H   0  0  0  0  0  0  0  0  0  0  0  0
   59.6240   34.4310   49.2590 C   0  0  0  0  0  0  0  0  0  0  0  0
   58.9337   35.2872   49.2764 H   0  0  0  0  0  0  0  0  0  0  0  0
   59.8160   33.7110   48.0630 C   0  0  0  0  0  0  0  0  0  0  0  0
   59.1770   34.0790   46.8690 O   0  0  0  0  0  0  0  0  0  0  0  0
   58.1330   33.3800   46.2500 C   0  0  0  0  0  0  0  0  0  0  0  0
   57.1460   33.9870   45.7510 O   0  0  0  0  0  0  0  0  0  0  0  0
   58.1370   31.8870   46.2920 C   0  0  0  0  0  0  0  0  0  0  0  0
   59.1627   31.5304   46.4673 H   0  0  0  0  0  0  0  0  0  0  0  0
   57.4793   31.5472   47.1056 H   0  0  0  0  0  0  0  0  0  0  0  0
   57.6340   31.3340   44.9880 C   0  0  0  0  0  0  0  0  0  0  0  0
   57.8590   32.0320   43.7890 C   0  0  0  0  0  0  0  0  0  0  0  0
   58.4256   32.9748   43.8016 H   0  0  0  0  0  0  0  0  0  0  0  0
   57.3650   31.5320   42.5800 C   0  0  0  0  0  0  0  0  0  0  0  0
   57.5513   32.0772   41.6429 H   0  0  0  0  0  0  0  0  0  0  0  0
   56.6340   30.3390   42.5610 C   0  0  0  0  0  0  0  0  0  0  0  0
   56.2481   29.9455   41.6090 H   0  0  0  0  0  0  0  0  0  0  0  0
   56.3940   29.6470   43.7520 C   0  0  0  0  0  0  0  0  0  0  0  0
   55.8162   28.7111   43.7371 H   0  0  0  0  0  0  0  0  0  0  0  0
   56.8880   30.1440   44.9620 C   0  0  0  0  0  0  0  0  0  0  0  0
   56.6915   29.6006   45.8980 H   0  0  0  0  0  0  0  0  0  0  0  0
   60.0500   28.6460   46.0640 C   0  0  0  0  0  0  0  0  0  0  0  0
   60.7610   28.4650   44.9390 C   0  0  0  0  0  0  0  0  0  0  0  0
   61.6418   29.0926   44.7380 H   0  0  0  0  0  0  0  0  0  0  0  0
   60.4626   27.6892   44.2186 H   0  0  0  0  0  0  0  0  0  0  0  0
  1  2  1  0
  2  3  1  0
  3  4  1  0
  4  5  1  0
  5  6  2  0
  5  7  1  0
  7  8  1  0
  8  9  1  0
  9 10  1  0
  9 11  2  0
 11 12  1  0
 12 13  1  0
 12 14  2  0
 14 15  1  0
 15 16  1  0
 15 17  1  0
 15 18  1  0
 14 19  1  0
 19 20  1  0
 20 21  1  0
 20 22  1  0
 20 23  1  0
 23 24  1  0
 23 25  1  0
 23 26  1  0
 26 27  2  0
 27 28  1  0
 27 29  1  0
 29 30  1  0
 29 31  2  0
 31 32  1  0
 31 33  1  0
 33 34  1  0
 33 35  2  0
 35 36  1  0
 36 37  1  0
 37 38  2  0
 37 39  1  0
 39 40  1  0
 39 41  1  0
 39 42  1  0
 42 43  2  0
 43 44  1  0
 43 45  1  0
 45 46  1  0
 45 47  2  0
 47 48  1  0
 47 49  1  0
 49 50  1  0
 49 51  2  0
 51 52  1  0
 19 53  1  0
 53 54  2  0
 54 55  1  0
 54 56  1  0
  8  3  2  0
 53 11  1  0
 35 26  1  0
 51 42  1  0
M  CHG  2   4  -1   7  -1
M  END
>  <UniqueID>  (53) 
52

>  <SMILES>  (53) 
C=c1/c(=C\c2[n-]c(=O)[n-]c2O)cc(C)n1CCc1ccccc1OC(=O)Cc1ccccc1

>  <Energy>  (53) 
125.39809832708686

>  <Genealogy>  (53) 
C=c1c(=Cc2[n-]c(=O)[n-]c2O)cc(C)n1CCc1ccccc1OC(=O)Cc1ccccc1 (protonated)
C=c1/c(=C\c2[n-]c(=O)[n-]c2O)cc(C)n1CCc1ccccc1OC(=O)Cc1ccccc1 (cis-trans isomerization)
C=c1/c(=C\c2[n-]c(=O)[n-]c2O)cc(C)n1CCc1ccccc1OC(=O)Cc1ccccc1 (3D coordinates assigned)
C=c1/c(=C\c2[n-]c(=O)[n-]c2O)cc(C)n1CCc1ccccc1OC(=O)Cc1ccccc1 (optimized conformer: 125.39809832708686 kcal/mol)

>  <smiles>  (53) 
C=c1c(=Cc2[nH]c(=O)[nH]c2O)cc(C)n1CCc1ccccc1OC(=O)Cc1ccccc1

>  <score_type>  (53) 
oracle

>  <origin>  (53) 
adg

>  <m_score__min__energy>  (53) 
-14.369999999999999

>  <m_primary>  (53) 
energy

$$$$
53:0
     RDKit          3D

 50 52  0  0  0  0  0  0  0  0999 V2000
   62.7690   33.8440   51.1990 C   0  0  0  0  0  0  0  0  0  0  0  0
   62.5280   33.8160   49.7220 C   0  0  0  0  0  0  0  0  0  0  0  0
   61.3670   34.3210   49.2220 N   0  0  0  0  0  0  0  0  0  0  0  0
   61.0900   34.3200   47.8890 C   0  0  0  0  0  0  0  0  0  0  0  0
   59.8090   34.9270   47.3990 C   0  0  0  0  0  0  0  0  0  0  0  0
   59.0650   33.9400   46.5410 C   0  0  0  0  0  0  0  0  0  0  0  0
   58.7240   34.2660   45.2230 C   0  0  0  0  0  0  0  0  0  0  0  0
   58.0620   33.3390   44.4160 C   0  0  0  0  0  0  0  0  0  0  0  0
   57.7380   32.0640   44.9090 C   0  0  0  0  0  0  0  0  0  0  0  0
   56.9080   30.9170   43.8520 S   0  0  0  0  0  0  0  0  0  0  0  0
   57.0320   31.3490   42.4180 O   0  0  0  0  0  0  0  0  0  0  0  0
   55.4520   30.8610   44.2250 O   0  0  0  0  0  0  0  0  0  0  0  0
   57.6290   29.3540   44.0340 N   0  0  0  0  0  0  0  0  0  0  0  0
   57.0920   28.3610   44.9100 C   0  0  0  0  0  0  0  0  0  0  0  0
   55.8820   28.4070   45.2620 O   0  0  0  0  0  0  0  0  0  0  0  0
   57.9850   27.2840   45.4460 C   0  0  0  0  0  0  0  0  0  0  0  0
   57.2600   26.4130   46.4800 C   0  0  0  0  0  0  0  0  0  0  0  0
   56.5640   25.2360   45.8360 C   0  0  0  0  0  0  0  0  0  0  0  0
   57.3200   24.1250   45.4230 C   0  0  0  0  0  0  0  0  0  0  0  0
   56.6980   23.0380   44.8010 C   0  0  0  0  0  0  0  0  0  0  0  0
   57.4340   21.9700   44.4090 F   0  0  0  0  0  0  0  0  0  0  0  0
   55.3180   23.0530   44.5800 C   0  0  0  0  0  0  0  0  0  0  0  0
   54.5590   24.1570   44.9770 C   0  0  0  0  0  0  0  0  0  0  0  0
   55.1730   25.2480   45.6010 C   0  0  0  0  0  0  0  0  0  0  0  0
   54.3970   26.3370   45.9810 O   0  0  0  0  0  0  0  0  0  0  0  0
   58.0960   31.7270   46.2340 C   0  0  0  0  0  0  0  0  0  0  0  0
   57.8140   30.4760   46.7880 O   0  0  0  0  0  0  0  0  0  0  0  0
   58.7590   32.6640   47.0350 C   0  0  0  0  0  0  0  0  0  0  0  0
   62.0310   33.8040   46.9850 C   0  0  0  0  0  0  0  0  0  0  0  0
   63.2310   33.2780   47.4700 C   0  0  0  0  0  0  0  0  0  0  0  0
   64.0790   32.8060   46.6670 O   0  0  0  0  0  0  0  0  0  0  0  0
   63.4870   33.2800   48.8460 C   0  0  0  0  0  0  0  0  0  0  0  0
   64.6810   32.7560   49.3360 O   0  0  0  0  0  0  0  0  0  0  0  0
   61.8115   33.7328   51.7289 H   0  0  0  0  0  0  0  0  0  0  0  0
   63.4400   33.0178   51.4768 H   0  0  0  0  0  0  0  0  0  0  0  0
   63.2327   34.8021   51.4768 H   0  0  0  0  0  0  0  0  0  0  0  0
   59.1841   35.2035   48.2610 H   0  0  0  0  0  0  0  0  0  0  0  0
   60.0394   35.8217   46.8019 H   0  0  0  0  0  0  0  0  0  0  0  0
   58.9790   35.2577   44.8212 H   0  0  0  0  0  0  0  0  0  0  0  0
   57.7916   33.6094   43.3846 H   0  0  0  0  0  0  0  0  0  0  0  0
   58.3167   26.6474   44.6125 H   0  0  0  0  0  0  0  0  0  0  0  0
   58.8434   27.7626   45.9400 H   0  0  0  0  0  0  0  0  0  0  0  0
   57.9952   26.0373   47.2068 H   0  0  0  0  0  0  0  0  0  0  0  0
   56.4965   27.0328   46.9729 H   0  0  0  0  0  0  0  0  0  0  0  0
   58.4071   24.1107   45.5901 H   0  0  0  0  0  0  0  0  0  0  0  0
   54.8295   22.1958   44.0936 H   0  0  0  0  0  0  0  0  0  0  0  0
   53.4737   24.1682   44.7980 H   0  0  0  0  0  0  0  0  0  0  0  0
   57.2880   29.7600   46.3060 H   0  0  0  0  0  0  0  0  0  0  0  0
   59.0431   32.3963   48.0634 H   0  0  0  0  0  0  0  0  0  0  0  0
   61.8257   33.8136   45.9044 H   0  0  0  0  0  0  0  0  0  0  0  0
  1  2  1  0
  2  3  1  0
  3  4  1  0
  4  5  1  0
  5  6  1  0
  6  7  2  0
  7  8  1  0
  8  9  2  0
  9 10  1  0
 10 11  2  0
 10 12  2  0
 10 13  1  0
 13 14  1  0
 14 15  2  0
 14 16  1  0
 16 17  1  0
 17 18  1  0
 18 19  2  0
 19 20  1  0
 20 21  1  0
 20 22  2  0
 22 23  1  0
 23 24  2  0
 24 25  1  0
  9 26  1  0
 26 27  1  0
 26 28  2  0
  4 29  2  0
 29 30  1  0
 30 31  2  0
 30 32  1  0
 32 33  1  0
 32  2  2  0
 28  6  1  0
 24 18  1  0
  1 34  1  0
  1 35  1  0
  1 36  1  0
  5 37  1  0
  5 38  1  0
  7 39  1  0
  8 40  1  0
 16 41  1  0
 16 42  1  0
 17 43  1  0
 17 44  1  0
 19 45  1  0
 22 46  1  0
 23 47  1  0
 27 48  1  0
 28 49  1  0
 29 50  1  0
M  CHG  4   3  -1  13  -1  25  -1  33  -1
M  END
>  <UniqueID>  (54) 
53

>  <SMILES>  (54) 
Cc1[n-]c(Cc2ccc(S(=O)(=O)[N-]C(=O)CCc3cc(F)ccc3[O-])c(O)c2)cc(=O)c1[O-]

>  <Energy>  (54) 
51.84151993903417

>  <Genealogy>  (54) 
Cc1[n-]c(Cc2ccc(S(=O)(=O)[N-]C(=O)CCc3cc(F)ccc3[O-])c(O)c2)cc(=O)c1[O-] (protonated)
Cc1[n-]c(Cc2ccc(S(=O)(=O)[N-]C(=O)CCc3cc(F)ccc3[O-])c(O)c2)cc(=O)c1[O-] (3D coordinates assigned)
Cc1[n-]c(Cc2ccc(S(=O)(=O)[N-]C(=O)CCc3cc(F)ccc3[O-])c(O)c2)cc(=O)c1[O-] (optimized conformer: 51.84151993903417 kcal/mol)

>  <smiles>  (54) 
Cc1[nH]c(Cc2ccc(S(=O)(=O)NC(=O)CCc3cc(F)ccc3O)c(O)c2)cc(=O)c1O

>  <score_type>  (54) 
oracle

>  <origin>  (54) 
adg

>  <m_score__min__energy>  (54) 
-16.989999999999998

>  <m_primary>  (54) 
energy

$$$$
54:0
     RDKit          3D

 39 41  0  0  0  0  0  0  0  0999 V2000
   61.0320   33.8280   49.8100 C   0  0  0  0  0  0  0  0  0  0  0  0
   60.3510   34.0240   48.4930 C   0  0  0  0  0  0  0  0  0  0  0  0
   59.3860   34.9360   48.2750 N   0  0  0  0  0  0  0  0  0  0  0  0
   59.0420   34.8720   47.0250 O   0  0  0  0  0  0  0  0  0  0  0  0
   59.7360   33.9520   46.3960 C   0  0  0  0  0  0  0  0  0  0  0  0
   59.5550   33.7170   45.1270 N   0  0  0  0  0  0  0  0  0  0  0  0
   58.2210   32.9580   44.3140 S   0  0  0  0  0  0  0  0  0  0  0  0
   56.9870   33.7750   44.5850 O   0  0  0  0  0  0  0  0  0  0  0  0
   58.4630   32.9430   42.8310 O   0  0  0  0  0  0  0  0  0  0  0  0
   57.9330   31.3290   44.9230 C   0  0  0  0  0  0  0  0  0  0  0  0
   58.5400   30.9180   46.1150 C   0  0  0  0  0  0  0  0  0  0  0  0
   58.3290   29.6250   46.6010 C   0  0  0  0  0  0  0  0  0  0  0  0
   57.4900   28.7370   45.9190 C   0  0  0  0  0  0  0  0  0  0  0  0
   57.3120   27.4130   46.4450 N   0  0  0  0  0  0  0  0  0  0  0  0
   56.3840   26.4300   45.9700 C   0  0  0  0  0  0  0  0  0  0  0  0
   55.1410   26.6430   46.0060 O   0  0  0  0  0  0  0  0  0  0  0  0
   56.8900   25.0950   45.5270 C   0  0  0  0  0  0  0  0  0  0  0  0
   58.3870   25.0460   45.2590 C   0  0  0  0  0  0  0  0  0  0  0  0
   57.4100   25.0540   44.0960 C   0  0  0  0  0  0  0  0  0  0  0  0
   56.8980   29.1430   44.7100 C   0  0  0  0  0  0  0  0  0  0  0  0
   57.1190   30.4330   44.2170 C   0  0  0  0  0  0  0  0  0  0  0  0
   60.6150   33.3490   47.3070 C   0  0  0  0  0  0  0  0  0  0  0  0
   61.7060   32.3390   47.1050 C   0  0  0  0  0  0  0  0  0  0  0  0
   60.3213   34.0325   50.6243 H   0  0  0  0  0  0  0  0  0  0  0  0
   61.3894   32.7905   49.8872 H   0  0  0  0  0  0  0  0  0  0  0  0
   61.8862   34.5168   49.8872 H   0  0  0  0  0  0  0  0  0  0  0  0
   58.9790   35.5990   48.9720 H   0  0  0  0  0  0  0  0  0  0  0  0
   59.1849   31.6146   46.6708 H   0  0  0  0  0  0  0  0  0  0  0  0
   58.8267   29.3026   47.5275 H   0  0  0  0  0  0  0  0  0  0  0  0
   56.1805   24.4954   46.1161 H   0  0  0  0  0  0  0  0  0  0  0  0
   59.0105   25.9299   45.4592 H   0  0  0  0  0  0  0  0  0  0  0  0
   59.2122   24.3915   45.5762 H   0  0  0  0  0  0  0  0  0  0  0  0
   57.3258   25.9437   43.4546 H   0  0  0  0  0  0  0  0  0  0  0  0
   57.2347   24.4080   43.2231 H   0  0  0  0  0  0  0  0  0  0  0  0
   56.2592   28.4440   44.1503 H   0  0  0  0  0  0  0  0  0  0  0  0
   56.6520   30.7455   43.2713 H   0  0  0  0  0  0  0  0  0  0  0  0
   62.0751   31.9973   48.0833 H   0  0  0  0  0  0  0  0  0  0  0  0
   61.3112   31.4805   46.5418 H   0  0  0  0  0  0  0  0  0  0  0  0
   62.5315   32.7987   46.5418 H   0  0  0  0  0  0  0  0  0  0  0  0
  1  2  1  0
  2  3  1  0
  3  4  1  0
  4  5  1  0
  5  6  2  3
  6  7  1  0
  7  8  2  0
  7  9  2  0
  7 10  1  0
 10 11  2  0
 11 12  1  0
 12 13  2  0
 13 14  1  0
 14 15  1  0
 15 16  2  0
 15 17  1  0
 17 18  1  0
 18 19  1  0
 13 20  1  0
 20 21  2  0
  5 22  1  0
 22 23  1  0
 22  2  2  0
 21 10  1  0
 19 17  1  0
  1 24  1  0
  1 25  1  0
  1 26  1  0
  3 27  1  0
 11 28  1  0
 12 29  1  0
 17 30  1  0
 18 31  1  0
 18 32  1  0
 19 33  1  0
 19 34  1  0
 20 35  1  0
 21 36  1  0
 23 37  1  0
 23 38  1  0
 23 39  1  0
M  CHG  1  14  -1
M  END
>  <UniqueID>  (55) 
54

>  <SMILES>  (55) 
Cc1[nH]oc(=NS(=O)(=O)c2ccc([N-]C(=O)C3CC3)cc2)c1C

>  <Energy>  (55) 
346.08358633444294

>  <Genealogy>  (55) 
Cc1[nH]oc(=NS(=O)(=O)c2ccc([N-]C(=O)C3CC3)cc2)c1C (protonated)
Cc1[nH]oc(=NS(=O)(=O)c2ccc([N-]C(=O)C3CC3)cc2)c1C (3D coordinates assigned)
Cc1[nH]oc(=NS(=O)(=O)c2ccc([N-]C(=O)C3CC3)cc2)c1C (nonaromatic ring conformer: 346.08358633444294 kcal/mol)

>  <smiles>  (55) 
Cc1[nH]oc(=NS(=O)(=O)c2ccc(NC(=O)C3CC3)cc2)c1C

>  <score_type>  (55) 
oracle

>  <origin>  (55) 
adg

>  <m_score__min__energy>  (55) 
-10.07

>  <m_primary>  (55) 
energy

$$$$
55:0
     RDKit          3D

 36 37  0  0  0  0  0  0  0  0999 V2000
   60.7830   27.4510   49.9120 N   0  0  0  0  0  0  0  0  0  0  0  0
   60.2480   27.2290   48.2830 S   0  0  0  0  0  0  0  0  0  0  0  0
   59.0250   26.3550   48.2780 O   0  0  0  0  0  0  0  0  0  0  0  0
   61.3280   26.5530   47.4860 O   0  0  0  0  0  0  0  0  0  0  0  0
   59.8780   28.7940   47.5670 C   0  0  0  0  0  0  0  0  0  0  0  0
   60.3310   29.0940   46.2770 C   0  0  0  0  0  0  0  0  0  0  0  0
   60.0550   30.3400   45.7050 C   0  0  0  0  0  0  0  0  0  0  0  0
   59.3100   31.2950   46.4090 C   0  0  0  0  0  0  0  0  0  0  0  0
   59.0650   32.5670   45.7920 N   0  0  0  0  0  0  0  0  0  0  0  0
   57.9130   32.9370   45.0250 C   0  0  0  0  0  0  0  0  0  0  0  0
   57.3770   34.0690   45.1670 O   0  0  0  0  0  0  0  0  0  0  0  0
   57.2880   31.9300   44.1130 C   0  0  0  0  0  0  0  0  0  0  0  0
   56.3390   31.1030   44.8480 N   0  0  0  0  0  0  0  0  0  0  0  0
   55.8120   29.8680   44.3520 C   0  0  0  0  0  0  0  0  0  0  0  0
   55.5280   29.7450   43.1300 O   0  0  0  0  0  0  0  0  0  0  0  0
   55.5470   28.7770   45.2400 N   0  0  0  0  0  0  0  0  0  0  0  0
   56.3730   27.6180   45.4300 C   0  0  0  0  0  0  0  0  0  0  0  0
   57.7610   27.6520   45.1990 C   0  0  0  0  0  0  0  0  0  0  0  0
   58.5330   26.4990   45.3710 C   0  0  0  0  0  0  0  0  0  0  0  0
   57.9270   25.3020   45.7590 C   0  0  0  0  0  0  0  0  0  0  0  0
   56.5460   25.2520   45.9660 C   0  0  0  0  0  0  0  0  0  0  0  0
   55.7690   26.4040   45.7960 C   0  0  0  0  0  0  0  0  0  0  0  0
   54.3950   26.3390   45.9970 O   0  0  0  0  0  0  0  0  0  0  0  0
   58.8790   31.0020   47.7170 C   0  0  0  0  0  0  0  0  0  0  0  0
   59.1590   29.7570   48.2880 C   0  0  0  0  0  0  0  0  0  0  0  0
   60.9030   26.5000   50.3260 H   0  0  0  0  0  0  0  0  0  0  0  0
   60.9064   28.3467   45.7109 H   0  0  0  0  0  0  0  0  0  0  0  0
   60.4254   30.5718   44.6955 H   0  0  0  0  0  0  0  0  0  0  0  0
   56.7611   32.4530   43.3013 H   0  0  0  0  0  0  0  0  0  0  0  0
   58.0765   31.2861   43.6964 H   0  0  0  0  0  0  0  0  0  0  0  0
   58.2405   28.5898   44.8818 H   0  0  0  0  0  0  0  0  0  0  0  0
   59.6191   26.5347   45.2005 H   0  0  0  0  0  0  0  0  0  0  0  0
   58.5373   24.3980   45.9017 H   0  0  0  0  0  0  0  0  0  0  0  0
   56.0689   24.3064   46.2629 H   0  0  0  0  0  0  0  0  0  0  0  0
   58.3200   31.7553   48.2916 H   0  0  0  0  0  0  0  0  0  0  0  0
   58.8134   29.5322   49.3078 H   0  0  0  0  0  0  0  0  0  0  0  0
  1  2  1  0
  2  3  2  0
  2  4  2  0
  2  5  1  0
  5  6  2  0
  6  7  1  0
  7  8  2  0
  8  9  1  0
  9 10  1  0
 10 11  2  0
 10 12  1  0
 12 13  1  0
 13 14  1  0
 14 15  2  0
 14 16  1  0
 16 17  1  0
 17 18  2  0
 18 19  1  0
 19 20  2  0
 20 21  1  0
 21 22  2  0
 22 23  1  0
  8 24  1  0
 24 25  2  0
 25  5  1  0
 22 17  1  0
  1 26  1  0
  6 27  1  0
  7 28  1  0
 12 29  1  0
 12 30  1  0
 18 31  1  0
 19 32  1  0
 20 33  1  0
 21 34  1  0
 24 35  1  0
 25 36  1  0
M  CHG  5   1  -1   9  -1  13  -1  16  -1  23  -1
M  END
>  <UniqueID>  (56) 
55

>  <SMILES>  (56) 
[NH-]S(=O)(=O)c1ccc([N-]C(=O)C[N-]C(=O)[N-]c2ccccc2[O-])cc1

>  <Energy>  (56) 
40.48361203256523

>  <Genealogy>  (56) 
[NH-]S(=O)(=O)c1ccc([N-]C(=O)C[N-]C(=O)[N-]c2ccccc2[O-])cc1 (protonated)
[NH-]S(=O)(=O)c1ccc([N-]C(=O)C[N-]C(=O)[N-]c2ccccc2[O-])cc1 (3D coordinates assigned)
[NH-]S(=O)(=O)c1ccc([N-]C(=O)C[N-]C(=O)[N-]c2ccccc2[O-])cc1 (optimized conformer: 40.48361203256523 kcal/mol)

>  <smiles>  (56) 
NS(=O)(=O)c1ccc(NC(=O)CNC(=O)Nc2ccccc2O)cc1

>  <score_type>  (56) 
oracle

>  <origin>  (56) 
adg

>  <m_score__min__energy>  (56) 
-16.82

>  <m_primary>  (56) 
energy

$$$$
56:0
     RDKit          3D

 62 66  0  0  0  0  0  0  0  0999 V2000
   58.3786   32.6556   42.9433 H   0  0  0  0  0  0  0  0  0  0  0  0
   57.7190   31.8260   42.6490 C   0  0  0  0  0  0  0  0  0  0  0  0
   57.6779   31.5021   41.5986 H   0  0  0  0  0  0  0  0  0  0  0  0
   56.9680   31.2120   43.5670 C   0  0  0  0  0  0  0  0  0  0  0  0
   57.0182   31.5454   44.6141 H   0  0  0  0  0  0  0  0  0  0  0  0
   56.0580   30.0780   43.2010 C   0  0  0  0  0  0  0  0  0  0  0  0
   55.2276   30.4592   42.5885 H   0  0  0  0  0  0  0  0  0  0  0  0
   56.6246   29.3270   42.6310 H   0  0  0  0  0  0  0  0  0  0  0  0
   59.1790   29.2200   47.1720 N   0  0  0  0  0  0  0  0  0  0  0  0
   58.1180   28.6550   46.6760 C   0  0  0  0  0  0  0  0  0  0  0  0
   57.7590   27.3900   47.0230 N   0  0  0  0  0  0  0  0  0  0  0  0
   56.6500   26.8180   46.4950 C   0  0  0  0  0  0  0  0  0  0  0  0
   56.3310   25.6070   46.8380 N   0  0  0  0  0  0  0  0  0  0  0  0
   57.3060   24.5600   47.1380 C   0  0  0  0  0  0  0  0  0  0  0  0
   58.0128   24.9274   47.8966 H   0  0  0  0  0  0  0  0  0  0  0  0
   56.7772   23.6733   47.5178 H   0  0  0  0  0  0  0  0  0  0  0  0
   58.0760   24.1800   45.8700 C   0  0  0  0  0  0  0  0  0  0  0  0
   58.3325   25.0976   45.3203 H   0  0  0  0  0  0  0  0  0  0  0  0
   58.9824   23.6337   46.1701 H   0  0  0  0  0  0  0  0  0  0  0  0
   57.2780   23.3000   44.9880 N   0  0  0  0  0  0  0  0  0  0  0  0
   56.7190   24.0760   43.8660 C   0  0  0  0  0  0  0  0  0  0  0  0
   56.1083   24.9003   44.2631 H   0  0  0  0  0  0  0  0  0  0  0  0
   57.5452   24.4778   43.2611 H   0  0  0  0  0  0  0  0  0  0  0  0
   55.8380   23.1710   42.9770 C   0  0  0  0  0  0  0  0  0  0  0  0
   54.7826   23.4304   43.1469 H   0  0  0  0  0  0  0  0  0  0  0  0
   56.1347   23.3411   41.9315 H   0  0  0  0  0  0  0  0  0  0  0  0
   56.0170   21.7920   43.2550 O   0  0  0  0  0  0  0  0  0  0  0  0
   57.3950   21.4850   43.2760 C   0  0  0  0  0  0  0  0  0  0  0  0
   57.5215   20.3955   43.3594 H   0  0  0  0  0  0  0  0  0  0  0  0
   57.8543   21.8511   42.3459 H   0  0  0  0  0  0  0  0  0  0  0  0
   58.0840   22.1680   44.4730 C   0  0  0  0  0  0  0  0  0  0  0  0
   58.2187   21.4297   45.2772 H   0  0  0  0  0  0  0  0  0  0  0  0
   59.0549   22.5599   44.1357 H   0  0  0  0  0  0  0  0  0  0  0  0
   55.8910   27.5180   45.6100 N   0  0  0  0  0  0  0  0  0  0  0  0
   56.2400   28.7840   45.2570 C   0  0  0  0  0  0  0  0  0  0  0  0
   55.5240   29.4620   44.4120 N   0  0  0  0  0  0  0  0  0  0  0  0
   59.4690   30.6570   47.3090 C   0  0  2  0  0  0  0  0  0  0  0  0
   60.9400   30.8970   47.7500 C   0  0  0  0  0  0  0  0  0  0  0  0
   61.1255   30.3766   48.7012 H   0  0  0  0  0  0  0  0  0  0  0  0
   61.6188   30.5088   46.9764 H   0  0  0  0  0  0  0  0  0  0  0  0
   61.1910   32.4110   47.9360 C   0  0  1  0  0  0  0  0  0  0  0  0
   62.2363   32.5740   48.2372 H   0  0  0  0  0  0  0  0  0  0  0  0
   60.9180   33.1470   46.6050 C   0  0  0  0  0  0  0  0  0  0  0  0
   61.1053   34.2229   46.7371 H   0  0  0  0  0  0  0  0  0  0  0  0
   61.5842   32.7487   45.8256 H   0  0  0  0  0  0  0  0  0  0  0  0
   59.4480   32.9300   46.1810 C   0  0  2  0  0  0  0  0  0  0  0  0
   59.2569   33.4616   45.2371 H   0  0  0  0  0  0  0  0  0  0  0  0
   58.5100   33.4760   47.2790 C   0  0  0  0  0  0  0  0  0  0  0  0
   58.6939   34.5518   47.4166 H   0  0  0  0  0  0  0  0  0  0  0  0
   57.4636   33.3180   46.9788 H   0  0  0  0  0  0  0  0  0  0  0  0
   58.7820   32.7340   48.6050 C   0  0  2  0  0  0  0  0  0  0  0  0
   58.1109   33.1202   49.3863 H   0  0  0  0  0  0  0  0  0  0  0  0
   60.2490   32.9590   49.0290 C   0  0  0  0  0  0  0  0  0  0  0  0
   60.4307   34.0355   49.1635 H   0  0  0  0  0  0  0  0  0  0  0  0
   60.4415   32.4333   49.9759 H   0  0  0  0  0  0  0  0  0  0  0  0
   58.5310   31.2240   48.4080 C   0  0  0  0  0  0  0  0  0  0  0  0
   58.7233   30.6983   49.3549 H   0  0  0  0  0  0  0  0  0  0  0  0
   57.4866   31.0741   48.0970 H   0  0  0  0  0  0  0  0  0  0  0  0
   59.1850   31.4200   45.9830 C   0  0  0  0  0  0  0  0  0  0  0  0
   58.1354   31.2673   45.6915 H   0  0  0  0  0  0  0  0  0  0  0  0
   59.8485   31.0363   45.1940 H   0  0  0  0  0  0  0  0  0  0  0  0
   57.3520   29.3450   45.7930 N   0  0  0  0  0  0  0  0  0  0  0  0
  1  2  1  0
  2  3  1  0
  2  4  2  0
  4  5  1  0
  4  6  1  0
  6  7  1  0
  6  8  1  0
  6  9  1  0
  9 10  2  0
 10 11  1  0
 11 12  1  0
 12 13  2  3
 13 14  1  0
 14 15  1  0
 14 16  1  0
 14 17  1  0
 17 18  1  0
 17 19  1  0
 17 20  1  0
 20 21  1  0
 21 22  1  0
 21 23  1  0
 21 24  1  0
 24 25  1  0
 24 26  1  0
 24 27  1  0
 27 28  1  0
 28 29  1  0
 28 30  1  0
 28 31  1  0
 31 32  1  0
 31 33  1  0
 12 34  1  0
 34 35  1  0
 35 36  2  0
 37 36  1  6
 37 38  1  0
 38 39  1  0
 38 40  1  0
 38 41  1  0
 41 42  1  1
 41 43  1  0
 43 44  1  0
 43 45  1  0
 43 46  1  0
 46 47  1  6
 46 48  1  0
 48 49  1  0
 48 50  1  0
 48 51  1  0
 51 52  1  1
 51 53  1  0
 53 54  1  0
 53 55  1  0
 51 56  1  0
 56 57  1  0
 56 58  1  0
 46 59  1  0
 59 60  1  0
 59 61  1  0
 35 62  1  0
 62 10  1  0
 31 20  1  0
 56 37  1  0
 59 37  1  0
 53 41  1  0
M  CHG  3  11  -1  34  -1  62  -1
M  END
>  <UniqueID>  (57) 
56

>  <SMILES>  (57) 
C=CC/N=c1\[n-]c(=NCCN2CCOCC2)[n-]/c(=N\C23CC4CC(CC(C4)C2)C3)[n-]1

>  <Energy>  (57) 
67.24991525375243

>  <Genealogy>  (57) 
C=CCN=c1[n-]c(=NCCN2CCOCC2)[n-]c(=NC23CC4CC(CC(C4)C2)C3)[n-]1 (protonated)
C=CC/N=c1\[n-]c(=NCCN2CCOCC2)[n-]/c(=N\C23CC4CC(CC(C4)C2)C3)[n-]1 (cis-trans isomerization)
C=CC/N=c1\[n-]c(=NCCN2CCOCC2)[n-]/c(=N\C23CC4CC(CC(C4)C2)C3)[n-]1 (3D coordinates assigned)
C=CC/N=c1\[n-]c(=NCCN2CCOCC2)[n-]/c(=N\C23CC4CC(CC(C4)C2)C3)[n-]1 (nonaromatic ring conformer: 67.24991525375243 kcal/mol)

>  <smiles>  (57) 
C=CCN=c1[nH]c(=NCCN2CCOCC2)[nH]c(=NC23CC4CC(CC(C4)C2)C3)[nH]1

>  <score_type>  (57) 
oracle

>  <origin>  (57) 
adg

>  <m_score__min__energy>  (57) 
-14.199999999999999

>  <m_primary>  (57) 
energy

$$$$
57:0
     RDKit          3D

 50 52  0  0  0  0  0  0  0  0999 V2000
   59.0900   31.8110   45.3050 C   0  0  0  0  0  0  0  0  0  0  0  0
   58.4190   30.5140   45.5130 N   0  0  0  0  0  0  0  0  0  0  0  0
   59.0930   29.4470   46.0630 C   0  0  0  0  0  0  0  0  0  0  0  0
   60.5410   29.5250   46.4720 C   0  0  0  0  0  0  0  0  0  0  0  0
   60.6680   29.2520   47.8980 N   0  0  0  0  0  0  0  0  0  0  0  0
   60.2160   30.1620   48.9050 C   0  0  0  0  0  0  0  0  0  0  0  0
   59.1650   29.9210   49.5570 O   0  0  0  0  0  0  0  0  0  0  0  0
   61.0270   31.3850   49.2080 C   0  0  0  0  0  0  0  0  0  0  0  0
   60.6380   32.5390   48.3130 C   0  0  0  0  0  0  0  0  0  0  0  0
   61.5930   33.0750   47.4330 C   0  0  0  0  0  0  0  0  0  0  0  0
   61.2740   34.1570   46.6080 C   0  0  0  0  0  0  0  0  0  0  0  0
   59.9980   34.7220   46.6570 C   0  0  0  0  0  0  0  0  0  0  0  0
   59.6840   35.8010   45.8400 O   0  0  0  0  0  0  0  0  0  0  0  0
   59.0360   34.2000   47.5260 C   0  0  0  0  0  0  0  0  0  0  0  0
   59.3430   33.1160   48.3590 C   0  0  0  0  0  0  0  0  0  0  0  0
   58.3460   32.6410   49.2120 O   0  0  0  0  0  0  0  0  0  0  0  0
   58.4560   28.2590   46.2330 N   0  0  0  0  0  0  0  0  0  0  0  0
   57.1660   28.0620   45.8670 C   0  0  0  0  0  0  0  0  0  0  0  0
   56.5610   26.7340   46.1050 C   0  0  0  0  0  0  0  0  0  0  0  0
   55.3110   26.5990   46.0050 O   0  0  0  0  0  0  0  0  0  0  0  0
   57.3690   25.6070   46.4620 N   0  0  0  0  0  0  0  0  0  0  0  0
   58.4320   25.0660   45.6230 C   0  0  0  0  0  0  0  0  0  0  0  0
   57.9120   23.9260   44.7910 C   0  0  0  0  0  0  0  0  0  0  0  0
   56.8340   24.1170   43.9080 C   0  0  0  0  0  0  0  0  0  0  0  0
   56.3270   23.0400   43.1750 C   0  0  0  0  0  0  0  0  0  0  0  0
   56.8920   21.7670   43.3160 C   0  0  0  0  0  0  0  0  0  0  0  0
   56.3940   20.7200   42.6130 F   0  0  0  0  0  0  0  0  0  0  0  0
   57.9620   21.5700   44.1920 C   0  0  0  0  0  0  0  0  0  0  0  0
   58.4680   22.6440   44.9290 C   0  0  0  0  0  0  0  0  0  0  0  0
   56.4660   29.1230   45.2770 C   0  0  0  0  0  0  0  0  0  0  0  0
   55.1430   28.9850   44.8710 O   0  0  0  0  0  0  0  0  0  0  0  0
   57.1210   30.3450   45.0950 C   0  0  0  0  0  0  0  0  0  0  0  0
   56.4990   31.2870   44.5320 O   0  0  0  0  0  0  0  0  0  0  0  0
   59.3240   32.2633   46.2800 H   0  0  0  0  0  0  0  0  0  0  0  0
   60.0209   31.6558   44.7399 H   0  0  0  0  0  0  0  0  0  0  0  0
   58.4255   32.4812   44.7399 H   0  0  0  0  0  0  0  0  0  0  0  0
   61.1209   28.7818   45.9051 H   0  0  0  0  0  0  0  0  0  0  0  0
   60.9236   30.5344   46.2606 H   0  0  0  0  0  0  0  0  0  0  0  0
   60.8617   31.6735   50.2565 H   0  0  0  0  0  0  0  0  0  0  0  0
   62.0870   31.1507   49.0306 H   0  0  0  0  0  0  0  0  0  0  0  0
   62.6020   32.6387   47.3929 H   0  0  0  0  0  0  0  0  0  0  0  0
   62.0290   34.5640   45.9193 H   0  0  0  0  0  0  0  0  0  0  0  0
   58.0299   34.6436   47.5563 H   0  0  0  0  0  0  0  0  0  0  0  0
   58.2950   31.6830   49.5280 H   0  0  0  0  0  0  0  0  0  0  0  0
   58.8083   25.8578   44.9586 H   0  0  0  0  0  0  0  0  0  0  0  0
   59.2435   24.6972   46.2675 H   0  0  0  0  0  0  0  0  0  0  0  0
   56.3887   25.1164   43.7939 H   0  0  0  0  0  0  0  0  0  0  0  0
   55.4829   23.1931   42.4865 H   0  0  0  0  0  0  0  0  0  0  0  0
   58.4062   20.5697   44.3017 H   0  0  0  0  0  0  0  0  0  0  0  0
   59.3073   22.4841   45.6218 H   0  0  0  0  0  0  0  0  0  0  0  0
  1  2  1  0
  2  3  1  0
  3  4  1  0
  4  5  1  0
  5  6  1  0
  6  7  2  0
  6  8  1  0
  8  9  1  0
  9 10  2  0
 10 11  1  0
 11 12  2  0
 12 13  1  0
 12 14  1  0
 14 15  2  0
 15 16  1  0
  3 17  2  0
 17 18  1  0
 18 19  1  0
 19 20  2  0
 19 21  1  0
 21 22  1  0
 22 23  1  0
 23 24  2  0
 24 25  1  0
 25 26  2  0
 26 27  1  0
 26 28  1  0
 28 29  2  0
 18 30  2  0
 30 31  1  0
 30 32  1  0
 32 33  2  0
 32  2  1  0
 15  9  1  0
 29 23  1  0
  1 34  1  0
  1 35  1  0
  1 36  1  0
  4 37  1  0
  4 38  1  0
  8 39  1  0
  8 40  1  0
 10 41  1  0
 11 42  1  0
 14 43  1  0
 16 44  1  0
 22 45  1  0
 22 46  1  0
 24 47  1  0
 25 48  1  0
 28 49  1  0
 29 50  1  0
M  CHG  4   5  -1  13  -1  21  -1  31  -1
M  END
>  <UniqueID>  (58) 
57

>  <SMILES>  (58) 
Cn1c(C[N-]C(=O)Cc2ccc([O-])cc2O)nc(C(=O)[N-]Cc2ccc(F)cc2)c([O-])c1=O

>  <Energy>  (58) 
54.96901786834216

>  <Genealogy>  (58) 
Cn1c(C[N-]C(=O)Cc2ccc([O-])cc2O)nc(C(=O)[N-]Cc2ccc(F)cc2)c([O-])c1=O (protonated)
Cn1c(C[N-]C(=O)Cc2ccc([O-])cc2O)nc(C(=O)[N-]Cc2ccc(F)cc2)c([O-])c1=O (3D coordinates assigned)
Cn1c(C[N-]C(=O)Cc2ccc([O-])cc2O)nc(C(=O)[N-]Cc2ccc(F)cc2)c([O-])c1=O (optimized conformer: 54.96901786834216 kcal/mol)

>  <smiles>  (58) 
Cn1c(CNC(=O)Cc2ccc(O)cc2O)nc(C(=O)NCc2ccc(F)cc2)c(O)c1=O

>  <score_type>  (58) 
oracle

>  <origin>  (58) 
adg

>  <m_score__min__energy>  (58) 
-14.710000000000001

>  <m_primary>  (58) 
energy

$$$$
58:0
     RDKit          3D

 47 50  0  0  0  0  0  0  0  0999 V2000
   59.3841   31.2010   44.1388 H   0  0  0  0  0  0  0  0  0  0  0  0
   58.8500   30.2960   44.4640 C   0  0  0  0  0  0  0  0  0  0  0  0
   58.3445   29.6595   43.7228 H   0  0  0  0  0  0  0  0  0  0  0  0
   58.8150   29.9680   45.7670 C   0  0  0  0  0  0  0  0  0  0  0  0
   58.1810   28.8540   46.3430 C   0  0  0  0  0  0  0  0  0  0  0  0
   57.3430   27.9380   45.8170 C   0  0  0  0  0  0  0  0  0  0  0  0
   56.7278   28.2533   44.9614 H   0  0  0  0  0  0  0  0  0  0  0  0
   57.1790   26.5490   46.2890 C   0  0  0  0  0  0  0  0  0  0  0  0
   55.9050   25.9680   46.3480 C   0  0  0  0  0  0  0  0  0  0  0  0
   54.7740   26.7050   46.0130 O   0  0  0  0  0  0  0  0  0  0  0  0
   55.7660   24.6760   46.7430 N   0  0  0  0  0  0  0  0  0  0  0  0
   56.8480   23.9230   47.0700 C   0  0  0  0  0  0  0  0  0  0  0  0
   56.6940   22.7290   47.4380 O   0  0  0  0  0  0  0  0  0  0  0  0
   58.0950   24.4540   46.9950 N   0  0  0  0  0  0  0  0  0  0  0  0
   58.2860   25.7410   46.6060 C   0  0  0  0  0  0  0  0  0  0  0  0
   59.4590   26.1950   46.5250 O   0  0  0  0  0  0  0  0  0  0  0  0
   58.5670   28.8320   47.6720 C   0  0  0  0  0  0  0  0  0  0  0  0
   58.2865   28.0788   48.4230 H   0  0  0  0  0  0  0  0  0  0  0  0
   59.3700   29.9340   47.8750 C   0  0  0  0  0  0  0  0  0  0  0  0
   59.9830   30.3060   49.1920 C   0  0  0  0  0  0  0  0  0  0  0  0
   59.3542   29.9244   50.0099 H   0  0  0  0  0  0  0  0  0  0  0  0
   60.9882   29.8654   49.2661 H   0  0  0  0  0  0  0  0  0  0  0  0
   60.0563   31.4011   49.2661 H   0  0  0  0  0  0  0  0  0  0  0  0
   59.5070   30.6400   46.7270 N   0  0  0  0  0  0  0  0  0  0  0  0
   60.3420   31.8380   46.5580 C   0  0  0  0  0  0  0  0  0  0  0  0
   61.0498   31.9071   47.3972 H   0  0  0  0  0  0  0  0  0  0  0  0
   60.8882   31.7593   45.6064 H   0  0  0  0  0  0  0  0  0  0  0  0
   59.4750   33.0950   46.5270 C   0  0  0  0  0  0  0  0  0  0  0  0
   59.4934   33.5281   45.5160 H   0  0  0  0  0  0  0  0  0  0  0  0
   58.4409   32.8334   46.7955 H   0  0  0  0  0  0  0  0  0  0  0  0
   59.9940   34.0690   47.4830 N   0  0  0  0  0  0  0  0  0  0  0  0
   60.3710   33.8280   48.7110 C   0  0  0  0  0  0  0  0  0  0  0  0
   59.4480   33.8120   49.7790 C   0  0  0  0  0  0  0  0  0  0  0  0
   58.3820   34.0052   49.5884 H   0  0  0  0  0  0  0  0  0  0  0  0
   59.8890   33.5510   51.0760 C   0  0  0  0  0  0  0  0  0  0  0  0
   59.1680   33.5390   51.9067 H   0  0  0  0  0  0  0  0  0  0  0  0
   61.2010   33.3120   51.3190 N   0  0  0  0  0  0  0  0  0  0  0  0
   62.1270   33.3160   50.3240 C   0  0  0  0  0  0  0  0  0  0  0  0
   63.4700   33.0620   50.6280 C   0  0  0  0  0  0  0  0  0  0  0  0
   63.7687   32.8604   51.6673 H   0  0  0  0  0  0  0  0  0  0  0  0
   64.4320   33.0640   49.6140 C   0  0  0  0  0  0  0  0  0  0  0  0
   66.1130   32.7460   50.0000 Cl  0  0  0  0  0  0  0  0  0  0  0  0
   64.0550   33.3190   48.2910 C   0  0  0  0  0  0  0  0  0  0  0  0
   64.8144   33.3196   47.4951 H   0  0  0  0  0  0  0  0  0  0  0  0
   62.7170   33.5730   47.9770 C   0  0  0  0  0  0  0  0  0  0  0  0
   62.4289   33.7727   46.9344 H   0  0  0  0  0  0  0  0  0  0  0  0
   61.7340   33.5750   48.9880 C   0  0  0  0  0  0  0  0  0  0  0  0
  1  2  1  0
  2  3  1  0
  2  4  2  0
  4  5  1  0
  5  6  2  0
  6  7  1  0
  6  8  1  0
  8  9  2  0
  9 10  1  0
  9 11  1  0
 11 12  1  0
 12 13  2  0
 12 14  1  0
 14 15  1  0
 15 16  2  0
  5 17  1  0
 17 18  1  0
 17 19  2  0
 19 20  1  0
 20 21  1  0
 20 22  1  0
 20 23  1  0
 19 24  1  0
 24 25  1  0
 25 26  1  0
 25 27  1  0
 25 28  1  0
 28 29  1  0
 28 30  1  0
 28 31  1  0
 31 32  2  0
 32 33  1  0
 33 34  1  0
 33 35  2  0
 35 36  1  0
 35 37  1  0
 37 38  1  0
 38 39  2  0
 39 40  1  0
 39 41  1  0
 41 42  1  0
 41 43  2  0
 43 44  1  0
 43 45  1  0
 45 46  1  0
 45 47  2  0
 24  4  1  0
 47 32  1  0
 15  8  1  0
 47 38  1  0
M  CHG  4  10  -1  11  -1  14  -1  37  -1
M  END
>  <UniqueID>  (59) 
58

>  <SMILES>  (59) 
C=c1/c(=C\c2c([O-])[n-]c(=O)[n-]c2=O)cc(C)n1CC/N=c1\cc[n-]c2cc(Cl)ccc12

>  <Energy>  (59) 
97.8881222390031

>  <Genealogy>  (59) 
C=c1c(=Cc2c([O-])[n-]c(=O)[n-]c2=O)cc(C)n1CCN=c1cc[n-]c2cc(Cl)ccc12 (protonated)
C=c1/c(=C\c2c([O-])[n-]c(=O)[n-]c2=O)cc(C)n1CC/N=c1\cc[n-]c2cc(Cl)ccc12 (cis-trans isomerization)
C=c1/c(=C\c2c([O-])[n-]c(=O)[n-]c2=O)cc(C)n1CC/N=c1\cc[n-]c2cc(Cl)ccc12 (3D coordinates assigned)
C=c1/c(=C\c2c([O-])[n-]c(=O)[n-]c2=O)cc(C)n1CC/N=c1\cc[n-]c2cc(Cl)ccc12 (optimized conformer: 97.8881222390031 kcal/mol)

>  <smiles>  (59) 
C=c1c(=Cc2c(O)[nH]c(=O)[nH]c2=O)cc(C)n1CCN=c1cc[nH]c2cc(Cl)ccc12

>  <score_type>  (59) 
oracle

>  <origin>  (59) 
adg

>  <m_score__min__energy>  (59) 
-17.510000000000002

>  <m_primary>  (59) 
energy

$$$$
59:0
     RDKit          3D

 45 47  0  0  0  0  0  0  0  0999 V2000
   58.3481   29.0183   47.0818 H   0  0  0  0  0  0  0  0  0  0  0  0
   58.3230   29.9770   46.5430 C   0  0  0  0  0  0  0  0  0  0  0  0
   59.2120   30.9960   46.8950 C   0  0  0  0  0  0  0  0  0  0  0  0
   59.9404   30.8329   47.7030 H   0  0  0  0  0  0  0  0  0  0  0  0
   59.1790   32.2240   46.2230 C   0  0  0  0  0  0  0  0  0  0  0  0
   60.2820   33.5250   46.6610 S   0  0  0  0  0  0  0  0  0  0  0  0
   59.8740   34.0810   47.9970 O   0  0  0  0  0  0  0  0  0  0  0  0
   60.2190   34.6250   45.6360 O   0  0  0  0  0  0  0  0  0  0  0  0
   61.9050   32.8900   46.7620 N   0  0  0  0  0  0  0  0  0  0  0  0
   62.8990   33.9630   46.7390 C   0  0  0  0  0  0  0  0  0  0  0  0
   63.1738   34.2030   45.7013 H   0  0  0  0  0  0  0  0  0  0  0  0
   62.5025   34.8796   47.2001 H   0  0  0  0  0  0  0  0  0  0  0  0
   64.1140   33.4500   47.4980 C   0  0  0  0  0  0  0  0  0  0  0  0
   64.8980   33.1279   46.7969 H   0  0  0  0  0  0  0  0  0  0  0  0
   64.5567   34.2290   48.1361 H   0  0  0  0  0  0  0  0  0  0  0  0
   63.6110   32.2680   48.3140 C   0  0  0  0  0  0  0  0  0  0  0  0
   64.1161   31.3419   48.0022 H   0  0  0  0  0  0  0  0  0  0  0  0
   63.8136   32.3954   49.3877 H   0  0  0  0  0  0  0  0  0  0  0  0
   62.1220   32.1850   48.0250 C   0  0  0  0  0  0  0  0  0  0  0  0
   61.8108   31.1340   47.9321 H   0  0  0  0  0  0  0  0  0  0  0  0
   61.5330   32.6344   48.8381 H   0  0  0  0  0  0  0  0  0  0  0  0
   58.2430   32.4280   45.2010 C   0  0  0  0  0  0  0  0  0  0  0  0
   58.2090   33.3927   44.6736 H   0  0  0  0  0  0  0  0  0  0  0  0
   57.3520   31.4100   44.8490 C   0  0  0  0  0  0  0  0  0  0  0  0
   56.6114   31.5813   44.0539 H   0  0  0  0  0  0  0  0  0  0  0  0
   57.3980   30.1710   45.5050 C   0  0  0  0  0  0  0  0  0  0  0  0
   56.4410   29.1090   45.1360 C   0  0  0  0  0  0  0  0  0  0  0  0
   55.2520   29.4230   44.8700 O   0  0  0  0  0  0  0  0  0  0  0  0
   56.8290   27.7320   45.0350 N   0  0  0  0  0  0  0  0  0  0  0  0
   57.0990   26.8580   46.1690 C   0  0  0  0  0  0  0  0  0  0  0  0
   57.3137   27.4669   47.0596 H   0  0  0  0  0  0  0  0  0  0  0  0
   57.9676   26.2212   45.9456 H   0  0  0  0  0  0  0  0  0  0  0  0
   55.9030   26.0020   46.4260 C   0  0  0  0  0  0  0  0  0  0  0  0
   54.7820   26.3480   45.9660 O   0  0  0  0  0  0  0  0  0  0  0  0
   56.0640   24.7720   47.1500 N   0  0  0  0  0  0  0  0  0  0  0  0
   56.7040   23.7190   46.7350 C   0  0  0  0  0  0  0  0  0  0  0  0
   57.0680   22.6800   47.5120 N   0  0  0  0  0  0  0  0  0  0  0  0
   57.6810   21.8380   46.7320 O   0  0  0  0  0  0  0  0  0  0  0  0
   57.7290   22.2870   45.4960 C   0  0  0  0  0  0  0  0  0  0  0  0
   58.3540   21.5610   44.3550 C   0  0  0  0  0  0  0  0  0  0  0  0
   59.0260   20.7804   44.7410 H   0  0  0  0  0  0  0  0  0  0  0  0
   57.5681   21.0973   43.7408 H   0  0  0  0  0  0  0  0  0  0  0  0
   58.9294   22.2693   43.7408 H   0  0  0  0  0  0  0  0  0  0  0  0
   57.1030   23.5150   45.4340 C   0  0  0  0  0  0  0  0  0  0  0  0
   56.9587   24.1687   44.5612 H   0  0  0  0  0  0  0  0  0  0  0  0
  1  2  1  0
  2  3  2  0
  3  4  1  0
  3  5  1  0
  5  6  1  0
  6  7  2  0
  6  8  2  0
  6  9  1  0
  9 10  1  0
 10 11  1  0
 10 12  1  0
 10 13  1  0
 13 14  1  0
 13 15  1  0
 13 16  1  0
 16 17  1  0
 16 18  1  0
 16 19  1  0
 19 20  1  0
 19 21  1  0
  5 22  2  0
 22 23  1  0
 22 24  1  0
 24 25  1  0
 24 26  2  0
 26 27  1  0
 27 28  2  0
 27 29  1  0
 29 30  1  0
 30 31  1  0
 30 32  1  0
 30 33  1  0
 33 34  2  0
 33 35  1  0
 35 36  2  0
 36 37  1  0
 37 38  1  0
 38 39  1  0
 39 40  1  0
 40 41  1  0
 40 42  1  0
 40 43  1  0
 39 44  2  0
 44 45  1  0
 26  2  1  0
 44 36  1  0
 19  9  1  0
M  CHG  2  29  -1  37  -1
M  END
>  <UniqueID>  (60) 
59

>  <SMILES>  (60) 
Cc1c/c(=N/C(=O)C[N-]C(=O)c2ccc(S(=O)(=O)N3CCCC3)cc2)[n-]o1

>  <Energy>  (60) 
80.51056047244293

>  <Genealogy>  (60) 
Cc1cc(=NC(=O)C[N-]C(=O)c2ccc(S(=O)(=O)N3CCCC3)cc2)[n-]o1 (protonated)
Cc1c/c(=N/C(=O)C[N-]C(=O)c2ccc(S(=O)(=O)N3CCCC3)cc2)[n-]o1 (cis-trans isomerization)
Cc1c/c(=N/C(=O)C[N-]C(=O)c2ccc(S(=O)(=O)N3CCCC3)cc2)[n-]o1 (3D coordinates assigned)
Cc1c/c(=N/C(=O)C[N-]C(=O)c2ccc(S(=O)(=O)N3CCCC3)cc2)[n-]o1 (nonaromatic ring conformer: 80.51056047244293 kcal/mol)

>  <smiles>  (60) 
Cc1cc(=NC(=O)CNC(=O)c2ccc(S(=O)(=O)N3CCCC3)cc2)[nH]o1

>  <score_type>  (60) 
oracle

>  <origin>  (60) 
adg

>  <m_score__min__energy>  (60) 
-13

>  <m_primary>  (60) 
energy

$$$$
60:0
     RDKit          3D

 41 43  0  0  0  0  0  0  0  0999 V2000
   58.3530   28.8100   46.7170 O   0  0  0  0  0  0  0  0  0  0  0  0
   57.5720   28.0850   46.0430 C   0  0  0  0  0  0  0  0  0  0  0  0
   56.7910   28.6660   44.9860 N   0  0  0  0  0  0  0  0  0  0  0  0
   57.1350   29.8920   44.3170 C   0  0  0  0  0  0  0  0  0  0  0  0
   56.9710   30.0380   42.9280 C   0  0  0  0  0  0  0  0  0  0  0  0
   57.3000   31.2440   42.3040 C   0  0  0  0  0  0  0  0  0  0  0  0
   57.7750   32.3200   43.0590 C   0  0  0  0  0  0  0  0  0  0  0  0
   57.9100   32.2040   44.4520 C   0  0  0  0  0  0  0  0  0  0  0  0
   58.4110   33.3460   45.2510 C   0  0  0  0  0  0  0  0  0  0  0  0
   57.9210   34.4930   45.0630 O   0  0  0  0  0  0  0  0  0  0  0  0
   59.4620   33.1780   46.2180 N   0  0  0  0  0  0  0  0  0  0  0  0
   59.3850   32.1080   47.2230 C   0  0  0  0  0  0  0  0  0  0  0  0
   60.7520   31.4260   47.4150 C   0  0  0  0  0  0  0  0  0  0  0  0
   61.9520   32.3730   47.2050 C   0  0  0  0  0  0  0  0  0  0  0  0
   61.5630   33.8450   47.3680 C   0  0  0  0  0  0  0  0  0  0  0  0
   60.4870   34.2250   46.3410 C   0  0  0  0  0  0  0  0  0  0  0  0
   57.5950   30.9820   45.0710 C   0  0  0  0  0  0  0  0  0  0  0  0
   57.4200   26.6520   46.4020 C   0  0  0  0  0  0  0  0  0  0  0  0
   58.5460   25.9000   46.7710 C   0  0  0  0  0  0  0  0  0  0  0  0
   58.4150   24.5910   47.1070 N   0  0  0  0  0  0  0  0  0  0  0  0
   57.2040   23.9810   47.0820 C   0  0  0  0  0  0  0  0  0  0  0  0
   57.1040   22.7680   47.4010 O   0  0  0  0  0  0  0  0  0  0  0  0
   56.1000   24.6780   46.7140 N   0  0  0  0  0  0  0  0  0  0  0  0
   56.1770   25.9900   46.3680 C   0  0  0  0  0  0  0  0  0  0  0  0
   55.1310   26.5870   45.9990 O   0  0  0  0  0  0  0  0  0  0  0  0
   55.8650   28.2320   44.7690 H   0  0  0  0  0  0  0  0  0  0  0  0
   56.5824   29.1999   42.3308 H   0  0  0  0  0  0  0  0  0  0  0  0
   57.1848   31.3470   41.2149 H   0  0  0  0  0  0  0  0  0  0  0  0
   58.0444   33.2624   42.5596 H   0  0  0  0  0  0  0  0  0  0  0  0
   59.0610   32.5388   48.1819 H   0  0  0  0  0  0  0  0  0  0  0  0
   58.6648   31.3533   46.8742 H   0  0  0  0  0  0  0  0  0  0  0  0
   60.8000   31.0262   48.4386 H   0  0  0  0  0  0  0  0  0  0  0  0
   60.8277   30.6368   46.6525 H   0  0  0  0  0  0  0  0  0  0  0  0
   62.7297   32.1283   47.9434 H   0  0  0  0  0  0  0  0  0  0  0  0
   62.3173   32.2322   46.1770 H   0  0  0  0  0  0  0  0  0  0  0  0
   61.1704   34.0070   48.3827 H   0  0  0  0  0  0  0  0  0  0  0  0
   62.4522   34.4717   47.2053 H   0  0  0  0  0  0  0  0  0  0  0  0
   60.0047   35.1610   46.6591 H   0  0  0  0  0  0  0  0  0  0  0  0
   60.9736   34.3466   45.3620 H   0  0  0  0  0  0  0  0  0  0  0  0
   57.7106   30.8790   46.1601 H   0  0  0  0  0  0  0  0  0  0  0  0
   59.5389   26.3731   46.7881 H   0  0  0  0  0  0  0  0  0  0  0  0
  1  2  2  0
  2  3  1  0
  3  4  1  0
  4  5  2  0
  5  6  1  0
  6  7  2  0
  7  8  1  0
  8  9  1  0
  9 10  2  0
  9 11  1  0
 11 12  1  0
 12 13  1  0
 13 14  1  0
 14 15  1  0
 15 16  1  0
  8 17  2  0
  2 18  1  0
 18 19  2  0
 19 20  1  0
 20 21  1  0
 21 22  2  0
 21 23  1  0
 23 24  1  0
 24 25  2  0
 17  4  1  0
 24 18  1  0
 16 11  1  0
  3 26  1  0
  5 27  1  0
  6 28  1  0
  7 29  1  0
 12 30  1  0
 12 31  1  0
 13 32  1  0
 13 33  1  0
 14 34  1  0
 14 35  1  0
 15 36  1  0
 15 37  1  0
 16 38  1  0
 16 39  1  0
 17 40  1  0
 19 41  1  0
M  CHG  2  20  -1  23  -1
M  END
>  <UniqueID>  (61) 
60

>  <SMILES>  (61) 
O=C(Nc1cccc(C(=O)N2CCCCC2)c1)c1c[n-]c(=O)[n-]c1=O

>  <Energy>  (61) 
56.550221845136655

>  <Genealogy>  (61) 
O=C(Nc1cccc(C(=O)N2CCCCC2)c1)c1c[n-]c(=O)[n-]c1=O (protonated)
O=C(Nc1cccc(C(=O)N2CCCCC2)c1)c1c[n-]c(=O)[n-]c1=O (3D coordinates assigned)
O=C(Nc1cccc(C(=O)N2CCCCC2)c1)c1c[n-]c(=O)[n-]c1=O (nonaromatic ring conformer: 56.550221845136655 kcal/mol)

>  <smiles>  (61) 
O=C(Nc1cccc(C(=O)N2CCCCC2)c1)c1c[nH]c(=O)[nH]c1=O

>  <score_type>  (61) 
oracle

>  <origin>  (61) 
adg

>  <m_score__min__energy>  (61) 
-12.42

>  <m_primary>  (61) 
energy

$$$$
61:0
     RDKit          3D

 30 32  0  0  0  0  0  0  0  0999 V2000
   56.7461   32.4465   53.4333 H   0  0  0  0  0  0  0  0  0  0  0  0
   57.3950   32.4060   52.5460 C   0  0  0  0  0  0  0  0  0  0  0  0
   58.3460   33.4200   52.3290 C   0  0  0  0  0  0  0  0  0  0  0  0
   58.4439   34.2649   53.0265 H   0  0  0  0  0  0  0  0  0  0  0  0
   59.1580   33.3200   51.2050 C   0  0  0  0  0  0  0  0  0  0  0  0
   59.0580   32.2830   50.3370 C   0  0  0  0  0  0  0  0  0  0  0  0
   58.1320   31.2590   50.5150 C   0  0  0  0  0  0  0  0  0  0  0  0
   58.0767   30.4181   49.8080 H   0  0  0  0  0  0  0  0  0  0  0  0
   57.2670   31.3290   51.6260 C   0  0  0  0  0  0  0  0  0  0  0  0
   56.3300   30.2580   51.8360 N   0  0  0  0  0  0  0  0  0  0  0  0
   55.0770   30.3700   52.1710 C   0  0  0  0  0  0  0  0  0  0  0  0
   54.1000   30.4490   51.2260 N   0  0  0  0  0  0  0  0  0  0  0  0
   52.7880   30.5480   51.5650 C   0  0  0  0  0  0  0  0  0  0  0  0
   51.7480   30.6070   50.4870 C   0  0  0  0  0  0  0  0  0  0  0  0
   50.9679   29.8592   50.6926 H   0  0  0  0  0  0  0  0  0  0  0  0
   52.2222   30.3960   49.5171 H   0  0  0  0  0  0  0  0  0  0  0  0
   51.1300   31.9670   50.4440 C   0  0  0  0  0  0  0  0  0  0  0  0
   50.6780   32.4230   49.3610 O   0  0  0  0  0  0  0  0  0  0  0  0
   51.0070   32.7120   51.6110 O   0  0  0  0  0  0  0  0  0  0  0  0
   52.4250   30.5390   52.9150 C   0  0  0  0  0  0  0  0  0  0  0  0
   51.3681   30.6031   53.2131 H   0  0  0  0  0  0  0  0  0  0  0  0
   53.4320   30.4470   53.8760 C   0  0  0  0  0  0  0  0  0  0  0  0
   53.1330   30.4370   55.0990 O   0  0  0  0  0  0  0  0  0  0  0  0
   54.7340   30.3620   53.4900 N   0  0  0  0  0  0  0  0  0  0  0  0
   55.4810   30.2890   54.2200 H   0  0  0  0  0  0  0  0  0  0  0  0
   59.9880   32.4340   49.3270 O   0  0  0  0  0  0  0  0  0  0  0  0
   60.7170   33.6460   49.5750 C   0  0  0  0  0  0  0  0  0  0  0  0
   61.7879   33.4324   49.7077 H   0  0  0  0  0  0  0  0  0  0  0  0
   60.6378   34.3539   48.7368 H   0  0  0  0  0  0  0  0  0  0  0  0
   60.1560   34.1780   50.7830 O   0  0  0  0  0  0  0  0  0  0  0  0
  1  2  1  0
  2  3  2  0
  3  4  1  0
  3  5  1  0
  5  6  2  0
  6  7  1  0
  7  8  1  0
  7  9  2  0
  9 10  1  0
 10 11  2  0
 11 12  1  0
 12 13  1  0
 13 14  1  0
 14 15  1  0
 14 16  1  0
 14 17  1  0
 17 18  2  0
 17 19  1  0
 13 20  2  0
 20 21  1  0
 20 22  1  0
 22 23  2  0
 22 24  1  0
 24 25  1  0
  6 26  1  0
 26 27  1  0
 27 28  1  0
 27 29  1  0
 27 30  1  0
  9  2  1  0
 24 11  1  0
 30  5  1  0
M  CHG  2  12  -1  19  -1
M  END
>  <UniqueID>  (62) 
61

>  <SMILES>  (62) 
O=C([O-])Cc1cc(=O)[nH]/c(=N/c2ccc3c(c2)OCO3)[n-]1

>  <Energy>  (62) 
64.92907398871527

>  <Genealogy>  (62) 
O=C([O-])Cc1cc(=O)[nH]c(=Nc2ccc3c(c2)OCO3)[n-]1 (protonated)
O=C([O-])Cc1cc(=O)[nH]/c(=N/c2ccc3c(c2)OCO3)[n-]1 (cis-trans isomerization)
O=C([O-])Cc1cc(=O)[nH]/c(=N/c2ccc3c(c2)OCO3)[n-]1 (3D coordinates assigned)
O=C([O-])Cc1cc(=O)[nH]/c(=N/c2ccc3c(c2)OCO3)[n-]1 (nonaromatic ring conformer: 64.92907398871527 kcal/mol)

>  <smiles>  (62) 
O=C(O)Cc1cc(=O)[nH]c(=Nc2ccc3c(c2)OCO3)[nH]1

>  <score_type>  (62) 
oracle

>  <origin>  (62) 
adg

>  <m_score__min__energy>  (62) 
-11.16

>  <m_primary>  (62) 
energy

$$$$
62:0
     RDKit          3D

 68 72  0  0  0  0  0  0  0  0999 V2000
   57.4780   28.5660   43.3730 C   0  0  0  0  0  0  0  0  0  0  0  0
   56.6170   29.2630   44.7680 S   0  0  0  0  0  0  0  0  0  0  0  0
   56.8390   30.7490   44.8160 O   0  0  0  0  0  0  0  0  0  0  0  0
   55.1470   29.0050   44.5970 O   0  0  0  0  0  0  0  0  0  0  0  0
   57.1290   28.5570   46.2680 N   0  0  0  0  0  0  0  0  0  0  0  0
   58.2670   29.0080   47.0070 C   0  0  0  0  0  0  0  0  0  0  0  0
   58.6320   30.3620   47.0260 C   0  0  0  0  0  0  0  0  0  0  0  0
   59.7860   30.7680   47.7000 C   0  0  0  0  0  0  0  0  0  0  0  0
   60.5800   29.8270   48.3630 C   0  0  0  0  0  0  0  0  0  0  0  0
   60.2240   28.4650   48.3480 C   0  0  0  0  0  0  0  0  0  0  0  0
   60.9650   27.4970   49.0380 O   0  0  0  0  0  0  0  0  0  0  0  0
   60.8780   27.2540   50.4130 C   0  0  0  0  0  0  0  0  0  0  0  0
   60.1290   28.0790   51.1880 N   0  0  0  0  0  0  0  0  0  0  0  0
   59.9940   27.8340   52.5150 C   0  0  0  0  0  0  0  0  0  0  0  0
   59.0270   28.9390   53.5320 S   0  0  0  0  0  0  0  0  0  0  0  0
   59.2990   30.3320   52.4390 C   0  0  0  0  0  0  0  0  0  0  0  0
   58.3890   30.6130   51.4150 C   0  0  0  0  0  0  0  0  0  0  0  0
   58.6120   31.6980   50.5600 C   0  0  0  0  0  0  0  0  0  0  0  0
   59.7440   32.5140   50.7190 C   0  0  0  0  0  0  0  0  0  0  0  0
   59.9690   33.5930   49.7910 N   0  0  0  0  0  0  0  0  0  0  0  0
   60.8600   33.5320   48.6660 C   0  0  0  0  0  0  0  0  0  0  0  0
   61.7840   32.6760   48.6250 O   0  0  0  0  0  0  0  0  0  0  0  0
   60.7600   34.5540   47.5760 C   0  0  0  0  0  0  0  0  0  0  0  0
   59.5770   34.2520   46.7000 C   0  0  0  0  0  0  0  0  0  0  0  0
   58.3960   33.7430   47.2630 C   0  0  0  0  0  0  0  0  0  0  0  0
   57.3150   33.4000   46.4450 C   0  0  0  0  0  0  0  0  0  0  0  0
   57.4080   33.5570   45.0600 C   0  0  0  0  0  0  0  0  0  0  0  0
   58.5810   34.0610   44.4900 C   0  0  0  0  0  0  0  0  0  0  0  0
   59.6650   34.4050   45.3060 C   0  0  0  0  0  0  0  0  0  0  0  0
   60.6660   32.2100   51.7410 C   0  0  0  0  0  0  0  0  0  0  0  0
   60.4340   31.1350   52.6030 C   0  0  0  0  0  0  0  0  0  0  0  0
   60.6060   26.7590   53.0700 N   0  0  0  0  0  0  0  0  0  0  0  0
   61.3640   25.9260   52.3040 C   0  0  0  0  0  0  0  0  0  0  0  0
   62.0170   24.7820   52.8950 N   0  0  0  0  0  0  0  0  0  0  0  0
   63.2730   24.9650   53.6360 C   0  0  0  0  0  0  0  0  0  0  0  0
   63.4960   23.8050   54.6090 C   0  0  0  0  0  0  0  0  0  0  0  0
   63.3680   22.5630   53.9470 O   0  0  0  0  0  0  0  0  0  0  0  0
   62.0310   22.3940   53.5180 C   0  0  0  0  0  0  0  0  0  0  0  0
   61.6650   23.4270   52.4480 C   0  0  0  0  0  0  0  0  0  0  0  0
   61.4930   26.1800   50.9750 N   0  0  0  0  0  0  0  0  0  0  0  0
   59.0710   28.0670   47.6600 C   0  0  0  0  0  0  0  0  0  0  0  0
   58.2865   27.9115   43.7308 H   0  0  0  0  0  0  0  0  0  0  0  0
   56.7745   27.9800   42.7634 H   0  0  0  0  0  0  0  0  0  0  0  0
   57.9047   29.3761   42.7634 H   0  0  0  0  0  0  0  0  0  0  0  0
   58.0081   31.1059   46.5089 H   0  0  0  0  0  0  0  0  0  0  0  0
   60.0709   31.8304   47.7093 H   0  0  0  0  0  0  0  0  0  0  0  0
   61.4849   30.1517   48.8975 H   0  0  0  0  0  0  0  0  0  0  0  0
   57.4983   29.9814   51.2817 H   0  0  0  0  0  0  0  0  0  0  0  0
   57.8937   31.9140   49.7554 H   0  0  0  0  0  0  0  0  0  0  0  0
   59.4540   34.4880   49.9500 H   0  0  0  0  0  0  0  0  0  0  0  0
   60.6386   35.5523   48.0218 H   0  0  0  0  0  0  0  0  0  0  0  0
   61.6769   34.5274   46.9689 H   0  0  0  0  0  0  0  0  0  0  0  0
   58.3206   33.6134   48.3527 H   0  0  0  0  0  0  0  0  0  0  0  0
   56.3905   33.0062   46.8925 H   0  0  0  0  0  0  0  0  0  0  0  0
   56.5579   33.2839   44.4175 H   0  0  0  0  0  0  0  0  0  0  0  0
   58.6520   34.1873   43.3996 H   0  0  0  0  0  0  0  0  0  0  0  0
   60.5886   34.7963   44.8546 H   0  0  0  0  0  0  0  0  0  0  0  0
   61.5723   32.8218   51.8605 H   0  0  0  0  0  0  0  0  0  0  0  0
   61.1457   30.9189   53.4134 H   0  0  0  0  0  0  0  0  0  0  0  0
   64.1105   25.0062   52.9240 H   0  0  0  0  0  0  0  0  0  0  0  0
   63.2148   25.9027   54.2082 H   0  0  0  0  0  0  0  0  0  0  0  0
   64.5061   23.8828   55.0375 H   0  0  0  0  0  0  0  0  0  0  0  0
   62.7376   23.8607   55.4038 H   0  0  0  0  0  0  0  0  0  0  0  0
   61.9123   21.3839   53.0988 H   0  0  0  0  0  0  0  0  0  0  0  0
   61.3647   22.5324   54.3822 H   0  0  0  0  0  0  0  0  0  0  0  0
   62.2130   23.1980   51.5221 H   0  0  0  0  0  0  0  0  0  0  0  0
   60.5805   23.3832   52.2692 H   0  0  0  0  0  0  0  0  0  0  0  0
   58.7942   27.0027   47.6326 H   0  0  0  0  0  0  0  0  0  0  0  0
  1  2  1  0
  2  3  2  0
  2  4  2  0
  2  5  1  0
  5  6  1  0
  6  7  2  0
  7  8  1  0
  8  9  2  0
  9 10  1  0
 10 11  1  0
 11 12  1  0
 12 13  2  0
 13 14  1  0
 14 15  1  0
 15 16  1  0
 16 17  2  0
 17 18  1  0
 18 19  2  0
 19 20  1  0
 20 21  1  0
 21 22  2  0
 21 23  1  0
 23 24  1  0
 24 25  2  0
 25 26  1  0
 26 27  2  0
 27 28  1  0
 28 29  2  0
 19 30  1  0
 30 31  2  0
 14 32  2  0
 32 33  1  0
 33 34  1  0
 34 35  1  0
 35 36  1  0
 36 37  1  0
 37 38  1  0
 38 39  1  0
 33 40  2  0
 10 41  2  0
 41  6  1  0
 40 12  1  0
 31 16  1  0
 39 34  1  0
 29 24  1  0
  1 42  1  0
  1 43  1  0
  1 44  1  0
  7 45  1  0
  8 46  1  0
  9 47  1  0
 17 48  1  0
 18 49  1  0
 20 50  1  0
 23 51  1  0
 23 52  1  0
 25 53  1  0
 26 54  1  0
 27 55  1  0
 28 56  1  0
 29 57  1  0
 30 58  1  0
 31 59  1  0
 35 60  1  0
 35 61  1  0
 36 62  1  0
 36 63  1  0
 38 64  1  0
 38 65  1  0
 39 66  1  0
 39 67  1  0
 41 68  1  0
M  CHG  1   5  -1
M  END
>  <UniqueID>  (63) 
62

>  <SMILES>  (63) 
CS(=O)(=O)[N-]c1cccc(Oc2nc(Sc3ccc(NC(=O)Cc4ccccc4)cc3)nc(N3CCOCC3)n2)c1

>  <Energy>  (63) 
82.14842206803424

>  <Genealogy>  (63) 
CS(=O)(=O)[N-]c1cccc(Oc2nc(Sc3ccc(NC(=O)Cc4ccccc4)cc3)nc(N3CCOCC3)n2)c1 (protonated)
CS(=O)(=O)[N-]c1cccc(Oc2nc(Sc3ccc(NC(=O)Cc4ccccc4)cc3)nc(N3CCOCC3)n2)c1 (3D coordinates assigned)
CS(=O)(=O)[N-]c1cccc(Oc2nc(Sc3ccc(NC(=O)Cc4ccccc4)cc3)nc(N3CCOCC3)n2)c1 (nonaromatic ring conformer: 82.14842206803424 kcal/mol)

>  <smiles>  (63) 
CS(=O)(=O)Nc1cccc(Oc2nc(Sc3ccc(NC(=O)Cc4ccccc4)cc3)nc(N3CCOCC3)n2)c1

>  <score_type>  (63) 
oracle

>  <origin>  (63) 
adg

>  <m_score__min__energy>  (63) 
-11.49

>  <m_primary>  (63) 
energy

$$$$
63:0
     RDKit          3D

 52 54  0  0  0  0  0  0  0  0999 V2000
   55.5530   30.0700   43.7850 C   0  0  0  0  0  0  0  0  0  0  0  0
   56.5870   30.0910   44.8300 N   0  0  0  0  0  0  0  0  0  0  0  0
   57.4620   28.9110   44.7120 C   0  0  0  0  0  0  0  0  0  0  0  0
   58.4750   28.8730   45.8760 C   0  0  0  0  0  0  0  0  0  0  0  0
   58.5270   30.1630   46.5930 N   0  0  0  0  0  0  0  0  0  0  0  0
   59.8930   30.1810   47.6790 S   0  0  0  0  0  0  0  0  0  0  0  0
   61.1120   30.6740   46.9490 O   0  0  0  0  0  0  0  0  0  0  0  0
   60.1680   28.7920   48.1900 O   0  0  0  0  0  0  0  0  0  0  0  0
   59.5680   31.2650   49.0290 C   0  0  0  0  0  0  0  0  0  0  0  0
   59.8930   32.6230   48.9230 C   0  0  0  0  0  0  0  0  0  0  0  0
   59.6260   33.4930   49.9830 C   0  0  0  0  0  0  0  0  0  0  0  0
   59.0250   33.0140   51.1500 C   0  0  0  0  0  0  0  0  0  0  0  0
   58.6710   31.6570   51.2570 C   0  0  0  0  0  0  0  0  0  0  0  0
   58.0760   31.1340   52.4150 O   0  0  0  0  0  0  0  0  0  0  0  0
   56.7320   30.7560   52.5400 C   0  0  0  0  0  0  0  0  0  0  0  0
   55.7510   31.1970   51.6380 C   0  0  0  0  0  0  0  0  0  0  0  0
   54.4240   30.7900   51.7980 C   0  0  0  0  0  0  0  0  0  0  0  0
   53.4670   31.2900   50.9120 O   0  0  0  0  0  0  0  0  0  0  0  0
   54.0880   29.9120   52.8500 C   0  0  0  0  0  0  0  0  0  0  0  0
   52.7150   29.3990   53.0310 C   0  0  0  0  0  0  0  0  0  0  0  0
   52.4910   28.5070   53.8940 O   0  0  0  0  0  0  0  0  0  0  0  0
   51.5830   29.8850   52.1690 C   0  0  0  0  0  0  0  0  0  0  0  0
   51.0210   31.1540   52.7390 C   0  0  0  0  0  0  0  0  0  0  0  0
   50.8090   31.2310   53.9800 O   0  0  0  0  0  0  0  0  0  0  0  0
   50.7640   32.3260   51.8850 C   0  0  0  0  0  0  0  0  0  0  0  0
   50.2490   33.3650   52.3770 O   0  0  0  0  0  0  0  0  0  0  0  0
   51.0960   32.3020   50.5360 O   0  0  0  0  0  0  0  0  0  0  0  0
   55.1040   29.4810   53.7170 C   0  0  0  0  0  0  0  0  0  0  0  0
   56.3830   29.9040   53.5400 N   0  0  0  0  0  0  0  0  0  0  0  0
   58.9570   30.7880   50.1980 C   0  0  0  0  0  0  0  0  0  0  0  0
   58.6330   31.2780   45.6400 C   0  0  0  0  0  0  0  0  0  0  0  0
   57.3820   31.3350   44.7380 C   0  0  0  0  0  0  0  0  0  0  0  0
   54.5582   30.0498   44.2539 H   0  0  0  0  0  0  0  0  0  0  0  0
   55.6454   30.9702   43.1596 H   0  0  0  0  0  0  0  0  0  0  0  0
   55.6819   29.1743   43.1596 H   0  0  0  0  0  0  0  0  0  0  0  0
   56.8466   27.9996   44.7373 H   0  0  0  0  0  0  0  0  0  0  0  0
   58.0129   28.9692   43.7617 H   0  0  0  0  0  0  0  0  0  0  0  0
   58.1780   28.0837   46.5822 H   0  0  0  0  0  0  0  0  0  0  0  0
   59.4723   28.6709   45.4581 H   0  0  0  0  0  0  0  0  0  0  0  0
   60.3595   33.0055   48.0032 H   0  0  0  0  0  0  0  0  0  0  0  0
   59.8895   34.5576   49.8987 H   0  0  0  0  0  0  0  0  0  0  0  0
   58.8282   33.7000   51.9871 H   0  0  0  0  0  0  0  0  0  0  0  0
   56.0266   31.8621   50.8063 H   0  0  0  0  0  0  0  0  0  0  0  0
   53.2680   32.2770   50.8150 H   0  0  0  0  0  0  0  0  0  0  0  0
   51.9541   30.0745   51.1510 H   0  0  0  0  0  0  0  0  0  0  0  0
   50.7941   29.1191   52.1384 H   0  0  0  0  0  0  0  0  0  0  0  0
   54.8636   28.7971   54.5443 H   0  0  0  0  0  0  0  0  0  0  0  0
   58.7004   29.7217   50.2831 H   0  0  0  0  0  0  0  0  0  0  0  0
   58.7224   32.2229   46.1960 H   0  0  0  0  0  0  0  0  0  0  0  0
   59.5212   31.1253   45.0093 H   0  0  0  0  0  0  0  0  0  0  0  0
   56.7551   32.1832   45.0504 H   0  0  0  0  0  0  0  0  0  0  0  0
   57.7142   31.4546   43.6962 H   0  0  0  0  0  0  0  0  0  0  0  0
  1  2  1  0
  2  3  1  0
  3  4  1  0
  4  5  1  0
  5  6  1  0
  6  7  2  0
  6  8  2  0
  6  9  1  0
  9 10  2  0
 10 11  1  0
 11 12  2  0
 12 13  1  0
 13 14  1  0
 14 15  1  0
 15 16  2  0
 16 17  1  0
 17 18  1  0
 17 19  2  0
 19 20  1  0
 20 21  2  0
 20 22  1  0
 22 23  1  0
 23 24  2  0
 23 25  1  0
 25 26  2  0
 25 27  1  0
 19 28  1  0
 28 29  2  0
 13 30  2  0
  5 31  1  0
 31 32  1  0
 32  2  1  0
 30  9  1  0
 29 15  1  0
  1 33  1  0
  1 34  1  0
  1 35  1  0
  3 36  1  0
  3 37  1  0
  4 38  1  0
  4 39  1  0
 10 40  1  0
 11 41  1  0
 12 42  1  0
 16 43  1  0
 18 44  1  0
 22 45  1  0
 22 46  1  0
 28 47  1  0
 30 48  1  0
 31 49  1  0
 31 50  1  0
 32 51  1  0
 32 52  1  0
M  CHG  1  27  -1
M  END
>  <UniqueID>  (64) 
63

>  <SMILES>  (64) 
CN1CCN(S(=O)(=O)c2cccc(Oc3cc(O)c(C(=O)CC(=O)C(=O)[O-])cn3)c2)CC1

>  <Energy>  (64) 
69.5519589398074

>  <Genealogy>  (64) 
CN1CCN(S(=O)(=O)c2cccc(Oc3cc(O)c(C(=O)CC(=O)C(=O)[O-])cn3)c2)CC1 (protonated)
CN1CCN(S(=O)(=O)c2cccc(Oc3cc(O)c(C(=O)CC(=O)C(=O)[O-])cn3)c2)CC1 (3D coordinates assigned)
CN1CCN(S(=O)(=O)c2cccc(Oc3cc(O)c(C(=O)CC(=O)C(=O)[O-])cn3)c2)CC1 (nonaromatic ring conformer: 69.5519589398074 kcal/mol)

>  <smiles>  (64) 
CN1CCN(S(=O)(=O)c2cccc(Oc3cc(O)c(C(=O)CC(=O)C(=O)O)cn3)c2)CC1

>  <score_type>  (64) 
oracle

>  <origin>  (64) 
adg

>  <m_score__min__energy>  (64) 
-12.06

>  <m_primary>  (64) 
energy

$$$$
64:0
     RDKit          3D

 66 69  0  0  0  0  0  0  0  0999 V2000
   55.3270   26.6900   46.0150 O   0  0  0  0  0  0  0  0  0  0  0  0
   56.2440   27.4580   45.6150 C   0  0  0  0  0  0  0  0  0  0  0  0
   57.6630   26.9770   45.5780 C   0  0  0  0  0  0  0  0  0  0  0  0
   57.7480   25.4520   45.7000 C   0  0  0  0  0  0  0  0  0  0  0  0
   58.1060   25.0160   47.0880 C   0  0  0  0  0  0  0  0  0  0  0  0
   57.7720   23.8710   47.4970 O   0  0  0  0  0  0  0  0  0  0  0  0
   58.8480   25.8990   47.9340 N   0  0  0  0  0  0  0  0  0  0  0  0
   60.1370   26.4800   47.5710 C   0  0  0  0  0  0  0  0  0  0  0  0
   60.1640   27.9490   47.8960 C   0  0  0  0  0  0  0  0  0  0  0  0
   60.7240   28.8690   46.9950 C   0  0  0  0  0  0  0  0  0  0  0  0
   60.7600   30.2290   47.3120 C   0  0  0  0  0  0  0  0  0  0  0  0
   60.2450   30.6810   48.5300 C   0  0  0  0  0  0  0  0  0  0  0  0
   59.6970   29.7720   49.4470 C   0  0  0  0  0  0  0  0  0  0  0  0
   59.1240   30.2580   50.7470 C   0  0  0  0  0  0  0  0  0  0  0  0
   60.1670   30.5170   51.6440 O   0  0  0  0  0  0  0  0  0  0  0  0
   59.6430   28.4080   49.1180 C   0  0  0  0  0  0  0  0  0  0  0  0
   55.9470   28.8030   45.2380 N   0  0  0  0  0  0  0  0  0  0  0  0
   56.5180   29.4490   44.0660 C   0  0  0  0  0  0  0  0  0  0  0  0
   57.2310   30.7020   44.4880 C   0  0  0  0  0  0  0  0  0  0  0  0
   57.7700   30.8020   45.7810 C   0  0  0  0  0  0  0  0  0  0  0  0
   58.4820   31.9430   46.1630 C   0  0  0  0  0  0  0  0  0  0  0  0
   58.6570   32.9970   45.2570 C   0  0  0  0  0  0  0  0  0  0  0  0
   59.4340   34.1820   45.6480 C   0  0  0  0  0  0  0  0  0  0  0  0
   59.2010   35.2720   45.0580 O   0  0  0  0  0  0  0  0  0  0  0  0
   60.4340   34.1150   46.6910 N   0  0  0  0  0  0  0  0  0  0  0  0
   61.7830   33.6060   46.3710 C   0  0  0  0  0  0  0  0  0  0  0  0
   62.8200   33.9710   47.4370 C   0  0  0  0  0  0  0  0  0  0  0  0
   62.2990   33.6610   48.8050 C   0  0  0  0  0  0  0  0  0  0  0  0
   63.1410   33.1440   49.8010 C   0  0  0  0  0  0  0  0  0  0  0  0
   62.6440   32.9090   51.0870 C   0  0  0  0  0  0  0  0  0  0  0  0
   61.3090   33.2020   51.3900 C   0  0  0  0  0  0  0  0  0  0  0  0
   60.8050   32.9770   52.6700 O   0  0  0  0  0  0  0  0  0  0  0  0
   60.4720   33.7310   50.4020 C   0  0  0  0  0  0  0  0  0  0  0  0
   60.9600   33.9540   49.1030 C   0  0  0  0  0  0  0  0  0  0  0  0
   60.0790   34.5720   48.0490 C   0  0  0  0  0  0  0  0  0  0  0  0
   58.1140   32.9080   43.9700 C   0  0  0  0  0  0  0  0  0  0  0  0
   57.4100   31.7620   43.5830 C   0  0  0  0  0  0  0  0  0  0  0  0
   58.1188   27.2843   44.6252 H   0  0  0  0  0  0  0  0  0  0  0  0
   58.1974   27.4195   46.4316 H   0  0  0  0  0  0  0  0  0  0  0  0
   56.7722   25.0200   45.4333 H   0  0  0  0  0  0  0  0  0  0  0  0
   58.5391   25.1017   45.0206 H   0  0  0  0  0  0  0  0  0  0  0  0
   60.9344   25.9706   48.1319 H   0  0  0  0  0  0  0  0  0  0  0  0
   60.2926   26.3523   46.4896 H   0  0  0  0  0  0  0  0  0  0  0  0
   61.1354   28.5179   46.0371 H   0  0  0  0  0  0  0  0  0  0  0  0
   61.1951   30.9464   46.6007 H   0  0  0  0  0  0  0  0  0  0  0  0
   60.2695   31.7541   48.7706 H   0  0  0  0  0  0  0  0  0  0  0  0
   58.5506   31.1806   50.5738 H   0  0  0  0  0  0  0  0  0  0  0  0
   58.4590   29.4890   51.1671 H   0  0  0  0  0  0  0  0  0  0  0  0
   59.8000   31.1420   52.3210 H   0  0  0  0  0  0  0  0  0  0  0  0
   59.1899   27.6939   49.8214 H   0  0  0  0  0  0  0  0  0  0  0  0
   57.2309   28.7662   43.5808 H   0  0  0  0  0  0  0  0  0  0  0  0
   55.7158   29.7023   43.3572 H   0  0  0  0  0  0  0  0  0  0  0  0
   57.6313   29.9784   46.4969 H   0  0  0  0  0  0  0  0  0  0  0  0
   58.9052   32.0131   47.1759 H   0  0  0  0  0  0  0  0  0  0  0  0
   61.7351   32.5102   46.2872 H   0  0  0  0  0  0  0  0  0  0  0  0
   62.0990   34.0725   45.4263 H   0  0  0  0  0  0  0  0  0  0  0  0
   63.7391   33.3930   47.2604 H   0  0  0  0  0  0  0  0  0  0  0  0
   63.0307   35.0487   47.3731 H   0  0  0  0  0  0  0  0  0  0  0  0
   64.1936   32.9232   49.5701 H   0  0  0  0  0  0  0  0  0  0  0  0
   63.3039   32.4928   51.8625 H   0  0  0  0  0  0  0  0  0  0  0  0
   60.7930   32.0510   53.0790 H   0  0  0  0  0  0  0  0  0  0  0  0
   59.4265   33.9737   50.6429 H   0  0  0  0  0  0  0  0  0  0  0  0
   59.0340   34.2966   48.2541 H   0  0  0  0  0  0  0  0  0  0  0  0
   60.2191   35.6624   48.0870 H   0  0  0  0  0  0  0  0  0  0  0  0
   58.2408   33.7400   43.2617 H   0  0  0  0  0  0  0  0  0  0  0  0
   56.9953   31.6908   42.5667 H   0  0  0  0  0  0  0  0  0  0  0  0
  1  2  2  0
  2  3  1  0
  3  4  1  0
  4  5  1  0
  5  6  2  0
  5  7  1  0
  7  8  1  0
  8  9  1  0
  9 10  2  0
 10 11  1  0
 11 12  2  0
 12 13  1  0
 13 14  1  0
 14 15  1  0
 13 16  2  0
  2 17  1  0
 17 18  1  0
 18 19  1  0
 19 20  2  0
 20 21  1  0
 21 22  2  0
 22 23  1  0
 23 24  2  0
 23 25  1  0
 25 26  1  0
 26 27  1  0
 27 28  1  0
 28 29  2  0
 29 30  1  0
 30 31  2  0
 31 32  1  0
 31 33  1  0
 33 34  2  0
 34 35  1  0
 22 36  1  0
 36 37  2  0
 16  9  1  0
 37 19  1  0
 35 25  1  0
 34 28  1  0
  3 38  1  0
  3 39  1  0
  4 40  1  0
  4 41  1  0
  8 42  1  0
  8 43  1  0
 10 44  1  0
 11 45  1  0
 12 46  1  0
 14 47  1  0
 14 48  1  0
 15 49  1  0
 16 50  1  0
 18 51  1  0
 18 52  1  0
 20 53  1  0
 21 54  1  0
 26 55  1  0
 26 56  1  0
 27 57  1  0
 27 58  1  0
 29 59  1  0
 30 60  1  0
 32 61  1  0
 33 62  1  0
 35 63  1  0
 35 64  1  0
 36 65  1  0
 37 66  1  0
M  CHG  2   7  -1  17  -1
M  END
>  <UniqueID>  (65) 
64

>  <SMILES>  (65) 
O=C(CCC(=O)[N-]Cc1cccc(CO)c1)[N-]Cc1ccc(C(=O)N2CCc3ccc(O)cc3C2)cc1

>  <Energy>  (65) 
68.11900802225

>  <Genealogy>  (65) 
O=C(CCC(=O)[N-]Cc1cccc(CO)c1)[N-]Cc1ccc(C(=O)N2CCc3ccc(O)cc3C2)cc1 (protonated)
O=C(CCC(=O)[N-]Cc1cccc(CO)c1)[N-]Cc1ccc(C(=O)N2CCc3ccc(O)cc3C2)cc1 (3D coordinates assigned)
O=C(CCC(=O)[N-]Cc1cccc(CO)c1)[N-]Cc1ccc(C(=O)N2CCc3ccc(O)cc3C2)cc1 (nonaromatic ring conformer: 68.11900802225 kcal/mol)

>  <smiles>  (65) 
O=C(CCC(=O)NCc1cccc(CO)c1)NCc1ccc(C(=O)N2CCc3ccc(O)cc3C2)cc1

>  <score_type>  (65) 
oracle

>  <origin>  (65) 
adg

>  <m_score__min__energy>  (65) 
-14.19

>  <m_primary>  (65) 
energy

$$$$
65:0
     RDKit          3D

 18 18  0  0  0  0  0  0  0  0999 V2000
   57.5020   31.9760   41.8480 C   0  0  0  0  0  0  0  0  0  0  0  0
   57.5250   31.4520   43.0770 C   0  0  0  0  0  0  0  0  0  0  0  0
   56.6530   30.2910   43.4500 C   0  0  0  0  0  0  0  0  0  0  0  0
   56.7120   30.0750   44.8940 N   0  0  0  0  0  0  0  0  0  0  0  0
   56.9290   28.9370   45.4870 C   0  0  0  0  0  0  0  0  0  0  0  0
   58.0780   28.7790   46.1930 N   0  0  0  0  0  0  0  0  0  0  0  0
   58.3420   27.6090   46.8260 C   0  0  0  0  0  0  0  0  0  0  0  0
   59.4090   27.4730   47.4770 O   0  0  0  0  0  0  0  0  0  0  0  0
   57.4550   26.5870   46.7570 N   0  0  0  0  0  0  0  0  0  0  0  0
   56.3040   26.7320   46.0560 C   0  0  0  0  0  0  0  0  0  0  0  0
   55.4850   25.7760   45.9960 O   0  0  0  0  0  0  0  0  0  0  0  0
   56.0350   27.9030   45.4190 N   0  0  0  0  0  0  0  0  0  0  0  0
   58.1525   32.8280   41.6011 H   0  0  0  0  0  0  0  0  0  0  0  0
   56.8326   31.5553   41.0832 H   0  0  0  0  0  0  0  0  0  0  0  0
   58.1991   31.8823   43.8322 H   0  0  0  0  0  0  0  0  0  0  0  0
   55.6150   30.5033   43.1541 H   0  0  0  0  0  0  0  0  0  0  0  0
   57.0073   29.3878   42.9317 H   0  0  0  0  0  0  0  0  0  0  0  0
   55.1420   27.9870   44.8850 H   0  0  0  0  0  0  0  0  0  0  0  0
  1  2  2  0
  2  3  1  0
  3  4  1  0
  4  5  2  3
  5  6  1  0
  6  7  1  0
  7  8  2  0
  7  9  1  0
  9 10  1  0
 10 11  2  0
 10 12  1  0
 12  5  1  0
  1 13  1  0
  1 14  1  0
  2 15  1  0
  3 16  1  0
  3 17  1  0
 12 18  1  0
M  CHG  2   6  -1   9  -1
M  END
>  <UniqueID>  (66) 
65

>  <SMILES>  (66) 
C=CCN=c1[n-]c(=O)[n-]c(=O)[nH]1

>  <Energy>  (66) 
14.62538516464433

>  <Genealogy>  (66) 
C=CCN=c1[n-]c(=O)[n-]c(=O)[nH]1 (protonated)
C=CCN=c1[n-]c(=O)[n-]c(=O)[nH]1 (3D coordinates assigned)
C=CCN=c1[n-]c(=O)[n-]c(=O)[nH]1 (optimized conformer: 14.62538516464433 kcal/mol)

>  <smiles>  (66) 
C=CCN=c1[nH]c(=O)[nH]c(=O)[nH]1

>  <score_type>  (66) 
oracle

>  <origin>  (66) 
adg

>  <m_score__min__energy>  (66) 
-9.3399999999999999

>  <m_primary>  (66) 
energy

$$$$
66:0
     RDKit          3D

 42 44  0  0  0  0  0  0  0  0999 V2000
   59.3290   29.8840   44.2700 O   0  0  0  0  0  0  0  0  0  0  0  0
   58.1330   29.7620   44.6490 C   0  0  0  0  0  0  0  0  0  0  0  0
   57.4850   28.4370   44.7030 C   0  0  0  0  0  0  0  0  0  0  0  0
   56.7790   27.9570   45.7390 C   0  0  0  0  0  0  0  0  0  0  0  0
   56.8450   26.5640   46.2370 C   0  0  0  0  0  0  0  0  0  0  0  0
   55.6780   25.7900   46.3170 C   0  0  0  0  0  0  0  0  0  0  0  0
   54.4460   26.3310   45.9710 O   0  0  0  0  0  0  0  0  0  0  0  0
   55.7460   24.5040   46.7460 N   0  0  0  0  0  0  0  0  0  0  0  0
   56.9310   23.9390   47.0870 C   0  0  0  0  0  0  0  0  0  0  0  0
   56.9690   22.7470   47.4850 O   0  0  0  0  0  0  0  0  0  0  0  0
   58.0790   24.6580   46.9910 N   0  0  0  0  0  0  0  0  0  0  0  0
   58.0660   25.9490   46.5670 C   0  0  0  0  0  0  0  0  0  0  0  0
   59.1550   26.5740   46.4610 O   0  0  0  0  0  0  0  0  0  0  0  0
   57.4080   30.9000   45.1290 N   0  0  0  0  0  0  0  0  0  0  0  0
   57.9560   32.1960   45.4140 C   0  0  0  0  0  0  0  0  0  0  0  0
   57.4840   33.3600   44.7790 C   0  0  0  0  0  0  0  0  0  0  0  0
   58.0320   34.6060   45.1000 C   0  0  0  0  0  0  0  0  0  0  0  0
   59.0390   34.7040   46.0620 C   0  0  0  0  0  0  0  0  0  0  0  0
   59.4970   33.5540   46.7200 C   0  0  0  0  0  0  0  0  0  0  0  0
   60.7680   33.6560   47.9360 S   0  0  0  0  0  0  0  0  0  0  0  0
   60.6720   34.9610   48.6790 O   0  0  0  0  0  0  0  0  0  0  0  0
   60.5800   32.5280   48.9120 O   0  0  0  0  0  0  0  0  0  0  0  0
   62.3320   33.5150   47.1630 N   0  0  0  0  0  0  0  0  0  0  0  0
   63.3570   34.2180   47.9420 C   0  0  0  0  0  0  0  0  0  0  0  0
   64.0080   33.2160   48.8840 C   0  0  0  0  0  0  0  0  0  0  0  0
   63.6210   31.8490   48.3560 C   0  0  0  0  0  0  0  0  0  0  0  0
   62.7610   32.1130   47.1280 C   0  0  0  0  0  0  0  0  0  0  0  0
   58.9480   32.3060   46.3960 C   0  0  0  0  0  0  0  0  0  0  0  0
   57.5893   27.7886   43.8206 H   0  0  0  0  0  0  0  0  0  0  0  0
   56.1004   28.6507   46.2570 H   0  0  0  0  0  0  0  0  0  0  0  0
   56.6826   33.2896   44.0288 H   0  0  0  0  0  0  0  0  0  0  0  0
   57.6684   35.5118   44.5928 H   0  0  0  0  0  0  0  0  0  0  0  0
   59.4737   35.6851   46.3040 H   0  0  0  0  0  0  0  0  0  0  0  0
   64.1148   34.6399   47.2655 H   0  0  0  0  0  0  0  0  0  0  0  0
   62.9020   35.0389   48.5156 H   0  0  0  0  0  0  0  0  0  0  0  0
   65.1015   33.3354   48.8755 H   0  0  0  0  0  0  0  0  0  0  0  0
   63.6768   33.3597   49.9231 H   0  0  0  0  0  0  0  0  0  0  0  0
   64.5184   31.2757   48.0803 H   0  0  0  0  0  0  0  0  0  0  0  0
   63.0817   31.2586   49.1114 H   0  0  0  0  0  0  0  0  0  0  0  0
   63.3464   31.9252   46.2158 H   0  0  0  0  0  0  0  0  0  0  0  0
   61.8854   31.4472   47.1266 H   0  0  0  0  0  0  0  0  0  0  0  0
   59.2998   31.4041   46.9182 H   0  0  0  0  0  0  0  0  0  0  0  0
  1  2  2  0
  2  3  1  0
  3  4  2  3
  4  5  1  0
  5  6  2  0
  6  7  1  0
  6  8  1  0
  8  9  1  0
  9 10  2  0
  9 11  1  0
 11 12  1  0
 12 13  2  0
  2 14  1  0
 14 15  1  0
 15 16  2  0
 16 17  1  0
 17 18  2  0
 18 19  1  0
 19 20  1  0
 20 21  2  0
 20 22  2  0
 20 23  1  0
 23 24  1  0
 24 25  1  0
 25 26  1  0
 26 27  1  0
 19 28  2  0
 12  5  1  0
 28 15  1  0
 27 23  1  0
  3 29  1  0
  4 30  1  0
 16 31  1  0
 17 32  1  0
 18 33  1  0
 24 34  1  0
 24 35  1  0
 25 36  1  0
 25 37  1  0
 26 38  1  0
 26 39  1  0
 27 40  1  0
 27 41  1  0
 28 42  1  0
M  CHG  4   7  -1   8  -1  11  -1  14  -1
M  END
>  <UniqueID>  (67) 
66

>  <SMILES>  (67) 
O=C(C=Cc1c([O-])[n-]c(=O)[n-]c1=O)[N-]c1cccc(S(=O)(=O)N2CCCC2)c1

>  <Energy>  (67) 
58.270914602948636

>  <Genealogy>  (67) 
O=C(C=Cc1c([O-])[n-]c(=O)[n-]c1=O)[N-]c1cccc(S(=O)(=O)N2CCCC2)c1 (protonated)
O=C(C=Cc1c([O-])[n-]c(=O)[n-]c1=O)[N-]c1cccc(S(=O)(=O)N2CCCC2)c1 (3D coordinates assigned)
O=C(C=Cc1c([O-])[n-]c(=O)[n-]c1=O)[N-]c1cccc(S(=O)(=O)N2CCCC2)c1 (nonaromatic ring conformer: 58.270914602948636 kcal/mol)

>  <smiles>  (67) 
O=C(C=Cc1c(O)[nH]c(=O)[nH]c1=O)Nc1cccc(S(=O)(=O)N2CCCC2)c1

>  <score_type>  (67) 
oracle

>  <origin>  (67) 
adg

>  <m_score__min__energy>  (67) 
-17.84

>  <m_primary>  (67) 
energy

$$$$
67:0
     RDKit          3D

 49 52  0  0  0  0  0  0  0  0999 V2000
   63.7650   32.5940   47.5210 C   0  0  0  0  0  0  0  0  0  0  0  0
   63.3210   32.9910   48.8680 N   0  0  0  0  0  0  0  0  0  0  0  0
   62.6520   31.8680   49.5810 C   0  0  0  0  0  0  0  0  0  0  0  0
   61.2160   32.1750   50.0360 C   0  0  0  0  0  0  0  0  0  0  0  0
   60.4920   32.8730   48.9720 N   0  0  0  0  0  0  0  0  0  0  0  0
   59.0890   32.6200   48.7790 C   0  0  0  0  0  0  0  0  0  0  0  0
   58.3480   32.4490   49.7850 O   0  0  0  0  0  0  0  0  0  0  0  0
   58.5050   32.5510   47.4220 C   0  0  0  0  0  0  0  0  0  0  0  0
   58.0780   33.7220   46.7740 C   0  0  0  0  0  0  0  0  0  0  0  0
   57.5290   33.6570   45.4920 C   0  0  0  0  0  0  0  0  0  0  0  0
   57.3810   32.4250   44.8510 C   0  0  0  0  0  0  0  0  0  0  0  0
   57.7630   31.2390   45.5030 C   0  0  0  0  0  0  0  0  0  0  0  0
   57.6380   29.9520   44.8810 N   0  0  0  0  0  0  0  0  0  0  0  0
   56.6020   28.9850   45.1060 C   0  0  0  0  0  0  0  0  0  0  0  0
   55.3980   29.2880   44.8920 O   0  0  0  0  0  0  0  0  0  0  0  0
   56.9430   27.6480   45.6460 C   0  0  0  0  0  0  0  0  0  0  0  0
   58.2870   27.2890   45.8660 C   0  0  0  0  0  0  0  0  0  0  0  0
   58.6120   26.0230   46.3670 C   0  0  0  0  0  0  0  0  0  0  0  0
   57.6000   25.1090   46.6620 C   0  0  0  0  0  0  0  0  0  0  0  0
   56.2570   25.4560   46.4570 C   0  0  0  0  0  0  0  0  0  0  0  0
   55.9320   26.7150   45.9450 C   0  0  0  0  0  0  0  0  0  0  0  0
   55.2470   24.5300   46.7430 O   0  0  0  0  0  0  0  0  0  0  0  0
   55.4560   23.3660   47.5520 C   0  0  0  0  0  0  0  0  0  0  0  0
   56.8790   22.8860   47.4810 C   0  0  0  0  0  0  0  0  0  0  0  0
   57.1640   21.7050   47.8040 O   0  0  0  0  0  0  0  0  0  0  0  0
   57.9210   23.7980   47.1270 N   0  0  0  0  0  0  0  0  0  0  0  0
   58.3350   31.3130   46.7800 C   0  0  0  0  0  0  0  0  0  0  0  0
   61.1160   34.0310   48.3200 C   0  0  0  0  0  0  0  0  0  0  0  0
   62.5440   34.2490   48.8370 C   0  0  0  0  0  0  0  0  0  0  0  0
   64.5826   31.8629   47.6051 H   0  0  0  0  0  0  0  0  0  0  0  0
   62.9233   32.1417   46.9760 H   0  0  0  0  0  0  0  0  0  0  0  0
   64.1207   33.4808   46.9760 H   0  0  0  0  0  0  0  0  0  0  0  0
   62.6215   31.0003   48.9056 H   0  0  0  0  0  0  0  0  0  0  0  0
   63.2382   31.6792   50.4925 H   0  0  0  0  0  0  0  0  0  0  0  0
   60.6991   31.2329   50.2709 H   0  0  0  0  0  0  0  0  0  0  0  0
   61.2496   32.8151   50.9299 H   0  0  0  0  0  0  0  0  0  0  0  0
   58.1766   34.6943   47.2789 H   0  0  0  0  0  0  0  0  0  0  0  0
   57.2117   34.5800   44.9846 H   0  0  0  0  0  0  0  0  0  0  0  0
   56.9646   32.3823   43.8337 H   0  0  0  0  0  0  0  0  0  0  0  0
   59.0877   28.0093   45.6423 H   0  0  0  0  0  0  0  0  0  0  0  0
   59.6650   25.7488   46.5281 H   0  0  0  0  0  0  0  0  0  0  0  0
   54.8779   26.9791   45.7742 H   0  0  0  0  0  0  0  0  0  0  0  0
   55.2142   23.6103   48.5969 H   0  0  0  0  0  0  0  0  0  0  0  0
   54.8050   22.5644   47.1730 H   0  0  0  0  0  0  0  0  0  0  0  0
   58.6549   30.3902   47.2861 H   0  0  0  0  0  0  0  0  0  0  0  0
   61.1489   33.8581   47.2342 H   0  0  0  0  0  0  0  0  0  0  0  0
   60.5195   34.9263   48.5495 H   0  0  0  0  0  0  0  0  0  0  0  0
   63.0549   34.9656   48.1771 H   0  0  0  0  0  0  0  0  0  0  0  0
   62.4776   34.6323   49.8659 H   0  0  0  0  0  0  0  0  0  0  0  0
  1  2  1  0
  2  3  1  0
  3  4  1  0
  4  5  1  0
  5  6  1  0
  6  7  2  0
  6  8  1  0
  8  9  2  0
  9 10  1  0
 10 11  2  0
 11 12  1  0
 12 13  1  0
 13 14  1  0
 14 15  2  0
 14 16  1  0
 16 17  2  0
 17 18  1  0
 18 19  2  0
 19 20  1  0
 20 21  2  0
 20 22  1  0
 22 23  1  0
 23 24  1  0
 24 25  2  0
 24 26  1  0
 12 27  2  0
  5 28  1  0
 28 29  1  0
 29  2  1  0
 27  8  1  0
 21 16  1  0
 26 19  1  0
  1 30  1  0
  1 31  1  0
  1 32  1  0
  3 33  1  0
  3 34  1  0
  4 35  1  0
  4 36  1  0
  9 37  1  0
 10 38  1  0
 11 39  1  0
 17 40  1  0
 18 41  1  0
 21 42  1  0
 23 43  1  0
 23 44  1  0
 27 45  1  0
 28 46  1  0
 28 47  1  0
 29 48  1  0
 29 49  1  0
M  CHG  2  13  -1  26  -1
M  END
>  <UniqueID>  (68) 
67

>  <SMILES>  (68) 
CN1CCN(C(=O)c2cccc([N-]C(=O)c3ccc4c(c3)OCC(=O)[N-]4)c2)CC1

>  <Energy>  (68) 
70.20389711142984

>  <Genealogy>  (68) 
CN1CCN(C(=O)c2cccc([N-]C(=O)c3ccc4c(c3)OCC(=O)[N-]4)c2)CC1 (protonated)
CN1CCN(C(=O)c2cccc([N-]C(=O)c3ccc4c(c3)OCC(=O)[N-]4)c2)CC1 (3D coordinates assigned)
CN1CCN(C(=O)c2cccc([N-]C(=O)c3ccc4c(c3)OCC(=O)[N-]4)c2)CC1 (nonaromatic ring conformer: 70.20389711142984 kcal/mol)

>  <smiles>  (68) 
CN1CCN(C(=O)c2cccc(NC(=O)c3ccc4c(c3)OCC(=O)N4)c2)CC1

>  <score_type>  (68) 
oracle

>  <origin>  (68) 
adg

>  <m_score__min__energy>  (68) 
-12.199999999999999

>  <m_primary>  (68) 
energy

$$$$
68:0
     RDKit          3D

 65 68  0  0  0  0  0  0  0  0999 V2000
   59.5740   28.5920   52.8080 C   0  0  0  0  0  0  0  0  0  0  0  0
   58.7210   29.6800   52.2290 C   0  0  0  0  0  0  0  0  0  0  0  0
   59.2020   30.7220   51.4260 C   0  0  0  0  0  0  0  0  0  0  0  0
   60.5320   30.8410   50.9000 N   0  0  0  0  0  0  0  0  0  0  0  0
   61.1360   29.7340   50.1420 C   0  0  0  0  0  0  0  0  0  0  0  0
   60.1790   29.2180   49.0980 C   0  0  0  0  0  0  0  0  0  0  0  0
   59.3300   30.1020   48.4160 C   0  0  0  0  0  0  0  0  0  0  0  0
   58.5200   29.6410   47.3740 C   0  0  0  0  0  0  0  0  0  0  0  0
   58.5570   28.2870   46.9920 C   0  0  0  0  0  0  0  0  0  0  0  0
   57.7860   27.7790   45.9340 O   0  0  0  0  0  0  0  0  0  0  0  0
   57.5720   28.4300   44.6800 C   0  0  0  0  0  0  0  0  0  0  0  0
   56.4660   29.4330   44.7880 C   0  0  0  0  0  0  0  0  0  0  0  0
   56.7280   30.6640   44.8330 O   0  0  0  0  0  0  0  0  0  0  0  0
   55.1420   29.0130   44.8200 O   0  0  0  0  0  0  0  0  0  0  0  0
   59.3970   27.4060   47.6830 C   0  0  0  0  0  0  0  0  0  0  0  0
   60.2050   27.8670   48.7270 C   0  0  0  0  0  0  0  0  0  0  0  0
   61.2800   32.4080   50.8930 S   0  0  0  0  0  0  0  0  0  0  0  0
   61.7510   32.7440   52.2780 O   0  0  0  0  0  0  0  0  0  0  0  0
   60.2880   33.4460   50.4460 O   0  0  0  0  0  0  0  0  0  0  0  0
   62.6730   32.4260   49.7700 C   0  0  0  0  0  0  0  0  0  0  0  0
   62.2050   32.3940   48.3390 C   0  0  0  0  0  0  0  0  0  0  0  0
   62.0420   31.2640   47.8010 O   0  0  0  0  0  0  0  0  0  0  0  0
   61.9340   33.5890   47.5660 N   0  0  0  0  0  0  0  0  0  0  0  0
   62.7520   33.8350   46.3690 C   0  0  0  0  0  0  0  0  0  0  0  0
   60.8200   34.4980   47.8770 C   0  0  0  0  0  0  0  0  0  0  0  0
   59.6240   34.1980   47.0110 C   0  0  0  0  0  0  0  0  0  0  0  0
   59.5700   34.6510   45.6820 C   0  0  0  0  0  0  0  0  0  0  0  0
   58.4680   34.3430   44.8750 C   0  0  0  0  0  0  0  0  0  0  0  0
   57.4180   33.5760   45.3870 C   0  0  0  0  0  0  0  0  0  0  0  0
   57.4680   33.1170   46.7070 C   0  0  0  0  0  0  0  0  0  0  0  0
   58.5680   33.4200   47.5140 C   0  0  0  0  0  0  0  0  0  0  0  0
   57.9390   31.7650   51.0090 S   0  0  0  0  0  0  0  0  0  0  0  0
   56.7680   30.9060   51.8470 C   0  0  0  0  0  0  0  0  0  0  0  0
   55.4090   31.1940   51.9480 C   0  0  0  0  0  0  0  0  0  0  0  0
   54.6000   30.3300   52.7020 C   0  0  0  0  0  0  0  0  0  0  0  0
   55.1590   29.2040   53.3300 C   0  0  0  0  0  0  0  0  0  0  0  0
   56.5320   28.9280   53.2110 C   0  0  0  0  0  0  0  0  0  0  0  0
   57.3370   29.7970   52.4600 C   0  0  0  0  0  0  0  0  0  0  0  0
   59.5355   28.6411   53.9062 H   0  0  0  0  0  0  0  0  0  0  0  0
   59.1994   27.6141   52.4713 H   0  0  0  0  0  0  0  0  0  0  0  0
   60.6131   28.7223   52.4713 H   0  0  0  0  0  0  0  0  0  0  0  0
   62.0510   30.0920   49.6475 H   0  0  0  0  0  0  0  0  0  0  0  0
   61.3733   28.9166   50.8388 H   0  0  0  0  0  0  0  0  0  0  0  0
   59.3014   31.1636   48.7026 H   0  0  0  0  0  0  0  0  0  0  0  0
   57.8508   30.3396   46.8504 H   0  0  0  0  0  0  0  0  0  0  0  0
   58.4966   28.9429   44.3767 H   0  0  0  0  0  0  0  0  0  0  0  0
   57.2927   27.6739   43.9315 H   0  0  0  0  0  0  0  0  0  0  0  0
   59.4217   26.3426   47.4026 H   0  0  0  0  0  0  0  0  0  0  0  0
   60.8642   27.1657   49.2596 H   0  0  0  0  0  0  0  0  0  0  0  0
   63.2597   33.3413   49.9374 H   0  0  0  0  0  0  0  0  0  0  0  0
   63.2909   31.5359   49.9595 H   0  0  0  0  0  0  0  0  0  0  0  0
   63.7644   34.1395   46.6730 H   0  0  0  0  0  0  0  0  0  0  0  0
   62.8104   32.9147   45.7693 H   0  0  0  0  0  0  0  0  0  0  0  0
   62.2931   34.6349   45.7693 H   0  0  0  0  0  0  0  0  0  0  0  0
   60.5395   34.3757   48.9336 H   0  0  0  0  0  0  0  0  0  0  0  0
   61.1444   35.5310   47.6829 H   0  0  0  0  0  0  0  0  0  0  0  0
   60.3972   35.2503   45.2738 H   0  0  0  0  0  0  0  0  0  0  0  0
   58.4287   34.7051   43.8370 H   0  0  0  0  0  0  0  0  0  0  0  0
   56.5529   33.3335   44.7523 H   0  0  0  0  0  0  0  0  0  0  0  0
   56.6398   32.5162   47.1109 H   0  0  0  0  0  0  0  0  0  0  0  0
   58.6071   33.0474   48.5482 H   0  0  0  0  0  0  0  0  0  0  0  0
   54.9808   32.0761   51.4495 H   0  0  0  0  0  0  0  0  0  0  0  0
   53.5239   30.5350   52.8018 H   0  0  0  0  0  0  0  0  0  0  0  0
   54.5168   28.5331   53.9195 H   0  0  0  0  0  0  0  0  0  0  0  0
   56.9684   28.0442   53.6993 H   0  0  0  0  0  0  0  0  0  0  0  0
  1  2  1  0
  2  3  2  0
  3  4  1  0
  4  5  1  0
  5  6  1  0
  6  7  2  0
  7  8  1  0
  8  9  2  0
  9 10  1  0
 10 11  1  0
 11 12  1  0
 12 13  2  0
 12 14  1  0
  9 15  1  0
 15 16  2  0
  4 17  1  0
 17 18  2  0
 17 19  2  0
 17 20  1  0
 20 21  1  0
 21 22  2  0
 21 23  1  0
 23 24  1  0
 23 25  1  0
 25 26  1  0
 26 27  2  0
 27 28  1  0
 28 29  2  0
 29 30  1  0
 30 31  2  0
  3 32  1  0
 32 33  1  0
 33 34  2  0
 34 35  1  0
 35 36  2  0
 36 37  1  0
 37 38  2  0
 38  2  1  0
 16  6  1  0
 31 26  1  0
 38 33  1  0
  1 39  1  0
  1 40  1  0
  1 41  1  0
  5 42  1  0
  5 43  1  0
  7 44  1  0
  8 45  1  0
 11 46  1  0
 11 47  1  0
 15 48  1  0
 16 49  1  0
 20 50  1  0
 20 51  1  0
 24 52  1  0
 24 53  1  0
 24 54  1  0
 25 55  1  0
 25 56  1  0
 27 57  1  0
 28 58  1  0
 29 59  1  0
 30 60  1  0
 31 61  1  0
 34 62  1  0
 35 63  1  0
 36 64  1  0
 37 65  1  0
M  CHG  1  14  -1
M  END
>  <UniqueID>  (69) 
68

>  <SMILES>  (69) 
Cc1c(N(Cc2ccc(OCC(=O)[O-])cc2)S(=O)(=O)CC(=O)N(C)Cc2ccccc2)sc2ccccc12

>  <Energy>  (69) 
93.21894525988357

>  <Genealogy>  (69) 
Cc1c(N(Cc2ccc(OCC(=O)[O-])cc2)S(=O)(=O)CC(=O)N(C)Cc2ccccc2)sc2ccccc12 (protonated)
Cc1c(N(Cc2ccc(OCC(=O)[O-])cc2)S(=O)(=O)CC(=O)N(C)Cc2ccccc2)sc2ccccc12 (3D coordinates assigned)
Cc1c(N(Cc2ccc(OCC(=O)[O-])cc2)S(=O)(=O)CC(=O)N(C)Cc2ccccc2)sc2ccccc12 (optimized conformer: 93.21894525988357 kcal/mol)

>  <smiles>  (69) 
Cc1c(N(Cc2ccc(OCC(=O)O)cc2)S(=O)(=O)CC(=O)N(C)Cc2ccccc2)sc2ccccc12

>  <score_type>  (69) 
oracle

>  <origin>  (69) 
adg

>  <m_score__min__energy>  (69) 
-12.09

>  <m_primary>  (69) 
energy

$$$$
69:0
     RDKit          3D

 54 56  0  0  0  0  0  0  0  0999 V2000
   55.4930   29.3000   44.9960 N   0  0  0  0  0  0  0  0  0  0  0  0
   56.1800   30.2720   44.2090 C   0  0  0  0  0  0  0  0  0  0  0  0
   55.8970   30.3810   42.9850 O   0  0  0  0  0  0  0  0  0  0  0  0
   57.1880   31.1630   44.8320 C   0  0  0  0  0  0  0  0  0  0  0  0
   57.0100   32.5580   44.7470 C   0  0  0  0  0  0  0  0  0  0  0  0
   57.9790   33.4310   45.2460 C   0  0  0  0  0  0  0  0  0  0  0  0
   59.1400   32.9300   45.8320 C   0  0  0  0  0  0  0  0  0  0  0  0
   59.3280   31.5520   45.9390 C   0  0  0  0  0  0  0  0  0  0  0  0
   58.3530   30.6600   45.4680 C   0  0  0  0  0  0  0  0  0  0  0  0
   58.5630   29.2550   45.6700 N   0  0  0  0  0  0  0  0  0  0  0  0
   59.8580   28.6490   45.5270 C   0  0  0  0  0  0  0  0  0  0  0  0
   60.8740   29.3600   45.3010 O   0  0  0  0  0  0  0  0  0  0  0  0
   60.0090   27.1570   45.6170 C   0  0  0  0  0  0  0  0  0  0  0  0
   58.6920   26.4630   45.9950 C   0  0  0  0  0  0  0  0  0  0  0  0
   58.6280   26.0970   47.4570 C   0  0  0  0  0  0  0  0  0  0  0  0
   57.7390   25.2990   47.8580 O   0  0  0  0  0  0  0  0  0  0  0  0
   59.5310   26.6570   48.4190 N   0  0  0  0  0  0  0  0  0  0  0  0
   59.7720   28.0510   48.6600 C   0  0  0  0  0  0  0  0  0  0  0  0
   58.6960   28.9440   48.6010 C   0  0  0  0  0  0  0  0  0  0  0  0
   58.8880   30.3030   48.8590 C   0  0  0  0  0  0  0  0  0  0  0  0
   60.1610   30.7840   49.1960 C   0  0  0  0  0  0  0  0  0  0  0  0
   60.4070   32.5020   49.5190 S   0  0  0  0  0  0  0  0  0  0  0  0
   59.2540   33.2780   48.9460 O   0  0  0  0  0  0  0  0  0  0  0  0
   60.4270   32.7280   51.0050 O   0  0  0  0  0  0  0  0  0  0  0  0
   61.8990   33.0890   48.8290 N   0  0  0  0  0  0  0  0  0  0  0  0
   63.0450   32.6990   49.6690 C   0  0  0  0  0  0  0  0  0  0  0  0
   64.3730   33.0610   48.9730 C   0  0  0  0  0  0  0  0  0  0  0  0
   64.1510   33.8470   47.8170 O   0  0  0  0  0  0  0  0  0  0  0  0
   63.3990   33.1080   46.8690 C   0  0  0  0  0  0  0  0  0  0  0  0
   62.0770   32.5770   47.4640 C   0  0  0  0  0  0  0  0  0  0  0  0
   61.2360   29.8890   49.2810 C   0  0  0  0  0  0  0  0  0  0  0  0
   61.0420   28.5280   49.0300 C   0  0  0  0  0  0  0  0  0  0  0  0
   54.4730   29.3940   45.1970 H   0  0  0  0  0  0  0  0  0  0  0  0
   56.0988   32.9635   44.2830 H   0  0  0  0  0  0  0  0  0  0  0  0
   57.8254   34.5180   45.1763 H   0  0  0  0  0  0  0  0  0  0  0  0
   59.9078   33.6210   46.2100 H   0  0  0  0  0  0  0  0  0  0  0  0
   60.2488   31.1613   46.3967 H   0  0  0  0  0  0  0  0  0  0  0  0
   57.7250   28.6330   45.6630 H   0  0  0  0  0  0  0  0  0  0  0  0
   60.3434   26.7752   44.6411 H   0  0  0  0  0  0  0  0  0  0  0  0
   60.7445   26.9387   46.4053 H   0  0  0  0  0  0  0  0  0  0  0  0
   57.8575   27.1417   45.7649 H   0  0  0  0  0  0  0  0  0  0  0  0
   58.6284   25.5305   45.4150 H   0  0  0  0  0  0  0  0  0  0  0  0
   57.6916   28.5727   48.3495 H   0  0  0  0  0  0  0  0  0  0  0  0
   58.0378   30.9982   48.7976 H   0  0  0  0  0  0  0  0  0  0  0  0
   62.9849   33.2280   50.6316 H   0  0  0  0  0  0  0  0  0  0  0  0
   63.0133   31.6115   49.8313 H   0  0  0  0  0  0  0  0  0  0  0  0
   65.0029   33.6268   49.6753 H   0  0  0  0  0  0  0  0  0  0  0  0
   64.8703   32.1284   48.6681 H   0  0  0  0  0  0  0  0  0  0  0  0
   63.1667   33.7602   46.0142 H   0  0  0  0  0  0  0  0  0  0  0  0
   64.0025   32.2426   46.5578 H   0  0  0  0  0  0  0  0  0  0  0  0
   61.2361   32.9096   46.8377 H   0  0  0  0  0  0  0  0  0  0  0  0
   62.1095   31.4778   47.4920 H   0  0  0  0  0  0  0  0  0  0  0  0
   62.2371   30.2595   49.5465 H   0  0  0  0  0  0  0  0  0  0  0  0
   61.8853   27.8278   49.1221 H   0  0  0  0  0  0  0  0  0  0  0  0
  1  2  1  0
  2  3  2  0
  2  4  1  0
  4  5  2  0
  5  6  1  0
  6  7  2  0
  7  8  1  0
  8  9  2  0
  9 10  1  0
 10 11  1  0
 11 12  2  0
 11 13  1  0
 13 14  1  0
 14 15  1  0
 15 16  2  0
 15 17  1  0
 17 18  1  0
 18 19  2  0
 19 20  1  0
 20 21  2  0
 21 22  1  0
 22 23  2  0
 22 24  2  0
 22 25  1  0
 25 26  1  0
 26 27  1  0
 27 28  1  0
 28 29  1  0
 29 30  1  0
 21 31  1  0
 31 32  2  0
  9  4  1  0
 32 18  1  0
 30 25  1  0
  1 33  1  0
  5 34  1  0
  6 35  1  0
  7 36  1  0
  8 37  1  0
 10 38  1  0
 13 39  1  0
 13 40  1  0
 14 41  1  0
 14 42  1  0
 19 43  1  0
 20 44  1  0
 26 45  1  0
 26 46  1  0
 27 47  1  0
 27 48  1  0
 29 49  1  0
 29 50  1  0
 30 51  1  0
 30 52  1  0
 31 53  1  0
 32 54  1  0
M  CHG  2   1  -1  17  -1
M  END
>  <UniqueID>  (70) 
69

>  <SMILES>  (70) 
[NH-]C(=O)c1ccccc1NC(=O)CCC(=O)[N-]c1ccc(S(=O)(=O)N2CCOCC2)cc1

>  <Energy>  (70) 
73.00257394088887

>  <Genealogy>  (70) 
[NH-]C(=O)c1ccccc1NC(=O)CCC(=O)[N-]c1ccc(S(=O)(=O)N2CCOCC2)cc1 (protonated)
[NH-]C(=O)c1ccccc1NC(=O)CCC(=O)[N-]c1ccc(S(=O)(=O)N2CCOCC2)cc1 (3D coordinates assigned)
[NH-]C(=O)c1ccccc1NC(=O)CCC(=O)[N-]c1ccc(S(=O)(=O)N2CCOCC2)cc1 (nonaromatic ring conformer: 73.00257394088887 kcal/mol)

>  <smiles>  (70) 
NC(=O)c1ccccc1NC(=O)CCC(=O)Nc1ccc(S(=O)(=O)N2CCOCC2)cc1

>  <score_type>  (70) 
oracle

>  <origin>  (70) 
adg

>  <m_score__min__energy>  (70) 
-14.609999999999999

>  <m_primary>  (70) 
energy

$$$$
70:0
     RDKit          3D

 40 44  0  0  0  0  0  0  0  0999 V2000
   55.8930   29.4050   45.6610 H   0  0  0  0  0  0  0  0  0  0  0  0
   55.5790   28.5560   45.2040 O   0  0  0  0  0  0  0  0  0  0  0  0
   55.9500   27.3100   45.6950 C   0  0  0  0  0  0  0  0  0  0  0  0
   55.0790   26.3220   45.9640 N   0  0  0  0  0  0  0  0  0  0  0  0
   55.8860   25.3160   46.3640 C   0  0  0  0  0  0  0  0  0  0  0  0
   55.4430   24.1900   46.7080 O   0  0  0  0  0  0  0  0  0  0  0  0
   57.2040   25.6090   46.3590 N   0  0  0  0  0  0  0  0  0  0  0  0
   57.2370   26.8900   45.9530 C   0  0  0  0  0  0  0  0  0  0  0  0
   58.4860   27.6370   45.7340 C   0  0  0  0  0  0  0  0  0  0  0  0
   58.9301   27.6116   44.7280 H   0  0  0  0  0  0  0  0  0  0  0  0
   59.1170   28.3450   46.6780 C   0  0  0  0  0  0  0  0  0  0  0  0
   59.8130   27.8160   47.8590 C   0  0  0  0  0  0  0  0  0  0  0  0
   59.8888   26.7529   48.1312 H   0  0  0  0  0  0  0  0  0  0  0  0
   60.3250   28.8040   48.5310 N   0  0  0  0  0  0  0  0  0  0  0  0
   60.0100   29.9780   47.8330 N   0  0  0  0  0  0  0  0  0  0  0  0
   59.6090   31.1450   48.3590 C   0  0  0  0  0  0  0  0  0  0  0  0
   60.0390   31.6060   49.4940 N   0  0  0  0  0  0  0  0  0  0  0  0
   60.8120   32.8370   49.6030 C   0  0  0  0  0  0  0  0  0  0  0  0
   61.3179   32.6109   50.5532 H   0  0  0  0  0  0  0  0  0  0  0  0
   61.2370   33.3880   48.2560 C   0  0  0  0  0  0  0  0  0  0  0  0
   62.2058   33.8983   48.1513 H   0  0  0  0  0  0  0  0  0  0  0  0
   61.3478   32.9704   47.2444 H   0  0  0  0  0  0  0  0  0  0  0  0
   60.1070   34.0520   49.0280 C   0  0  0  0  0  0  0  0  0  0  0  0
   60.2583   35.0424   49.4822 H   0  0  0  0  0  0  0  0  0  0  0  0
   59.0617   34.3137   48.8071 H   0  0  0  0  0  0  0  0  0  0  0  0
   58.6110   31.7100   47.6350 N   0  0  0  0  0  0  0  0  0  0  0  0
   58.4200   30.7840   46.6600 C   0  0  0  0  0  0  0  0  0  0  0  0
   57.4100   30.7860   45.8410 N   0  0  0  0  0  0  0  0  0  0  0  0
   57.3980   31.2350   44.4760 C   0  0  0  0  0  0  0  0  0  0  0  0
   58.1510   32.3440   44.0400 C   0  0  0  0  0  0  0  0  0  0  0  0
   58.7540   32.9156   44.7609 H   0  0  0  0  0  0  0  0  0  0  0  0
   58.1330   32.7190   42.6930 C   0  0  0  0  0  0  0  0  0  0  0  0
   58.7091   33.5948   42.3597 H   0  0  0  0  0  0  0  0  0  0  0  0
   57.3850   31.9840   41.7690 C   0  0  0  0  0  0  0  0  0  0  0  0
   57.3680   32.3600   40.4320 O   0  0  0  0  0  0  0  0  0  0  0  0
   56.6600   30.8660   42.1910 C   0  0  0  0  0  0  0  0  0  0  0  0
   56.0759   30.2835   41.4633 H   0  0  0  0  0  0  0  0  0  0  0  0
   56.6760   30.4870   43.5360 C   0  0  0  0  0  0  0  0  0  0  0  0
   56.1182   29.5957   43.8591 H   0  0  0  0  0  0  0  0  0  0  0  0
   59.2900   29.7550   46.7640 N   0  0  0  0  0  0  0  0  0  0  0  0
  1  2  1  0
  2  3  1  0
  3  4  1  0
  4  5  1  0
  5  6  2  0
  5  7  1  0
  7  8  1  0
  8  9  1  0
  9 10  1  0
  9 11  2  0
 11 12  1  0
 12 13  1  0
 12 14  2  0
 14 15  1  0
 15 16  1  0
 16 17  2  0
 17 18  1  0
 18 19  1  0
 18 20  1  0
 20 21  1  0
 20 22  1  0
 20 23  1  0
 23 24  1  0
 23 25  1  0
 16 26  1  0
 26 27  1  0
 27 28  2  3
 28 29  1  0
 29 30  2  0
 30 31  1  0
 30 32  1  0
 32 33  1  0
 32 34  2  0
 34 35  1  0
 34 36  1  0
 36 37  1  0
 36 38  2  0
 38 39  1  0
 27 40  1  0
  8  3  2  0
 40 11  1  0
 40 15  1  0
 23 18  1  0
 38 29  1  0
M  CHG  4   4  -1   7  -1  26  -1  35  -1
M  END
>  <UniqueID>  (71) 
70

>  <SMILES>  (71) 
O=c1[n-]c(O)c(/C=C2/C=Nn3/c(=N/C4CC4)[n-]c(=Nc4ccc([O-])cc4)n32)[n-]1

>  <Energy>  (71) 
441.95607780692023

>  <Genealogy>  (71) 
O=c1[n-]c(O)c(C=C2C=Nn3c(=NC4CC4)[n-]c(=Nc4ccc([O-])cc4)n32)[n-]1 (protonated)
O=c1[n-]c(O)c(/C=C2/C=Nn3/c(=N/C4CC4)[n-]c(=Nc4ccc([O-])cc4)n32)[n-]1 (cis-trans isomerization)
O=c1[n-]c(O)c(/C=C2/C=Nn3/c(=N/C4CC4)[n-]c(=Nc4ccc([O-])cc4)n32)[n-]1 (3D coordinates assigned)
O=c1[n-]c(O)c(/C=C2/C=Nn3/c(=N/C4CC4)[n-]c(=Nc4ccc([O-])cc4)n32)[n-]1 (nonaromatic ring conformer: 441.95607780692023 kcal/mol)

>  <smiles>  (71) 
O=c1[nH]c(O)c(C=C2C=Nn3c(=NC4CC4)[nH]c(=Nc4ccc(O)cc4)n32)[nH]1

>  <score_type>  (71) 
oracle

>  <origin>  (71) 
adg

>  <m_score__min__energy>  (71) 
-14.09

>  <m_primary>  (71) 
energy

$$$$
71:0
     RDKit          3D

 55 59  0  0  0  0  0  0  0  0999 V2000
   57.7470   20.3420   44.1160 H   0  0  0  0  0  0  0  0  0  0  0  0
   57.0020   21.0260   44.0460 O   0  0  0  0  0  0  0  0  0  0  0  0
   57.2340   22.3810   44.2760 C   0  0  0  0  0  0  0  0  0  0  0  0
   56.7620   23.3490   43.3810 C   0  0  0  0  0  0  0  0  0  0  0  0
   56.2013   23.0420   42.4858 H   0  0  0  0  0  0  0  0  0  0  0  0
   57.0020   24.7050   43.6230 C   0  0  0  0  0  0  0  0  0  0  0  0
   56.6201   25.4606   42.9207 H   0  0  0  0  0  0  0  0  0  0  0  0
   57.7270   25.1100   44.7560 C   0  0  0  0  0  0  0  0  0  0  0  0
   57.9540   26.5530   45.0070 C   0  0  0  0  0  0  0  0  0  0  0  0
   57.0190   27.4410   44.5830 N   0  0  0  0  0  0  0  0  0  0  0  0
   57.1630   28.7710   44.7880 C   0  0  0  0  0  0  0  0  0  0  0  0
   56.1980   29.6740   44.3470 C   0  0  0  0  0  0  0  0  0  0  0  0
   55.3033   29.3129   43.8188 H   0  0  0  0  0  0  0  0  0  0  0  0
   56.3680   31.0040   44.5730 N   0  0  0  0  0  0  0  0  0  0  0  0
   57.4580   31.4720   45.2340 C   0  0  0  0  0  0  0  0  0  0  0  0
   57.5840   32.7530   45.4230 N   0  0  0  0  0  0  0  0  0  0  0  0
   58.2210   33.3830   46.5440 C   0  0  0  0  0  0  0  0  0  0  0  0
   57.9940   32.9950   47.7230 O   0  0  0  0  0  0  0  0  0  0  0  0
   59.1740   34.5090   46.3110 C   0  0  0  0  0  0  0  0  0  0  0  0
   59.3942   34.5850   45.2360 H   0  0  0  0  0  0  0  0  0  0  0  0
   58.7214   35.4478   46.6628 H   0  0  0  0  0  0  0  0  0  0  0  0
   60.4500   34.2580   47.0660 C   0  0  0  0  0  0  0  0  0  0  0  0
   60.5150   34.4920   48.4500 C   0  0  0  0  0  0  0  0  0  0  0  0
   59.6364   34.8871   48.9811 H   0  0  0  0  0  0  0  0  0  0  0  0
   61.6940   34.2240   49.1550 C   0  0  0  0  0  0  0  0  0  0  0  0
   61.7445   34.4197   50.2363 H   0  0  0  0  0  0  0  0  0  0  0  0
   62.8070   33.7080   48.4860 C   0  0  0  0  0  0  0  0  0  0  0  0
   63.7338   33.4999   49.0408 H   0  0  0  0  0  0  0  0  0  0  0  0
   62.7440   33.4560   47.1130 C   0  0  0  0  0  0  0  0  0  0  0  0
   63.6194   33.0449   46.5889 H   0  0  0  0  0  0  0  0  0  0  0  0
   61.5690   33.7260   46.4050 C   0  0  0  0  0  0  0  0  0  0  0  0
   61.5209   33.5208   45.3254 H   0  0  0  0  0  0  0  0  0  0  0  0
   58.4130   30.6000   45.6610 N   0  0  0  0  0  0  0  0  0  0  0  0
   58.3000   29.2590   45.4490 C   0  0  0  0  0  0  0  0  0  0  0  0
   59.2810   28.3880   45.8550 N   0  0  0  0  0  0  0  0  0  0  0  0
   60.5300   28.9080   46.4470 C   0  0  0  0  0  0  0  0  0  0  0  0
   61.2505   28.0838   46.5550 H   0  0  0  0  0  0  0  0  0  0  0  0
   60.9412   29.6855   45.7864 H   0  0  0  0  0  0  0  0  0  0  0  0
   60.2580   29.5120   47.8040 C   0  0  0  0  0  0  0  0  0  0  0  0
   61.1060   30.5060   48.3200 C   0  0  0  0  0  0  0  0  0  0  0  0
   61.9900   30.8221   47.7468 H   0  0  0  0  0  0  0  0  0  0  0  0
   60.8330   31.0960   49.5580 C   0  0  0  0  0  0  0  0  0  0  0  0
   61.5031   31.8719   49.9567 H   0  0  0  0  0  0  0  0  0  0  0  0
   59.7100   30.7010   50.2890 C   0  0  0  0  0  0  0  0  0  0  0  0
   59.4943   31.1675   51.2615 H   0  0  0  0  0  0  0  0  0  0  0  0
   58.8610   29.7130   49.7840 C   0  0  0  0  0  0  0  0  0  0  0  0
   57.9780   29.4009   50.3610 H   0  0  0  0  0  0  0  0  0  0  0  0
   59.1310   29.1200   48.5470 C   0  0  0  0  0  0  0  0  0  0  0  0
   58.4586   28.3434   48.1535 H   0  0  0  0  0  0  0  0  0  0  0  0
   59.1220   27.0370   45.6390 C   0  0  0  0  0  0  0  0  0  0  0  0
   60.0270   26.2270   45.9830 O   0  0  0  0  0  0  0  0  0  0  0  0
   58.1850   24.1310   45.6580 C   0  0  0  0  0  0  0  0  0  0  0  0
   58.7371   24.4339   46.5599 H   0  0  0  0  0  0  0  0  0  0  0  0
   57.9420   22.7750   45.4140 C   0  0  0  0  0  0  0  0  0  0  0  0
   58.3097   22.0165   46.1207 H   0  0  0  0  0  0  0  0  0  0  0  0
  1  2  1  0
  2  3  1  0
  3  4  2  0
  4  5  1  0
  4  6  1  0
  6  7  1  0
  6  8  2  0
  8  9  1  0
  9 10  2  0
 10 11  1  0
 11 12  2  0
 12 13  1  0
 12 14  1  0
 14 15  1  0
 15 16  2  0
 16 17  1  0
 17 18  2  0
 17 19  1  0
 19 20  1  0
 19 21  1  0
 19 22  1  0
 22 23  2  0
 23 24  1  0
 23 25  1  0
 25 26  1  0
 25 27  2  0
 27 28  1  0
 27 29  1  0
 29 30  1  0
 29 31  2  0
 31 32  1  0
 15 33  1  0
 33 34  2  0
 34 35  1  0
 35 36  1  0
 36 37  1  0
 36 38  1  0
 36 39  1  0
 39 40  2  0
 40 41  1  0
 40 42  1  0
 42 43  1  0
 42 44  2  0
 44 45  1  0
 44 46  1  0
 46 47  1  0
 46 48  2  0
 48 49  1  0
 35 50  1  0
 50 51  2  0
  8 52  1  0
 52 53  1  0
 52 54  2  0
 54 55  1  0
 54  3  1  0
 50  9  1  0
 34 11  1  0
 48 39  1  0
 31 22  1  0
M  CHG  1  14  -1
M  END
>  <UniqueID>  (72) 
71

>  <SMILES>  (72) 
O=C(Cc1ccccc1)/N=c1\nc2c(c[n-]1)nc(-c1ccc(O)cc1)c(=O)n2Cc1ccccc1

>  <Energy>  (72) 
73.60135405014826

>  <Genealogy>  (72) 
O=C(Cc1ccccc1)N=c1nc2c(c[n-]1)nc(-c1ccc(O)cc1)c(=O)n2Cc1ccccc1 (protonated)
O=C(Cc1ccccc1)/N=c1\nc2c(c[n-]1)nc(-c1ccc(O)cc1)c(=O)n2Cc1ccccc1 (cis-trans isomerization)
O=C(Cc1ccccc1)/N=c1\nc2c(c[n-]1)nc(-c1ccc(O)cc1)c(=O)n2Cc1ccccc1 (3D coordinates assigned)
O=C(Cc1ccccc1)/N=c1\nc2c(c[n-]1)nc(-c1ccc(O)cc1)c(=O)n2Cc1ccccc1 (optimized conformer: 73.60135405014826 kcal/mol)

>  <smiles>  (72) 
O=C(Cc1ccccc1)N=c1nc2c(c[nH]1)nc(-c1ccc(O)cc1)c(=O)n2Cc1ccccc1

>  <score_type>  (72) 
oracle

>  <origin>  (72) 
adg

>  <m_score__min__energy>  (72) 
-10.619999999999999

>  <m_primary>  (72) 
energy

$$$$
72:0
     RDKit          3D

 55 58  0  0  0  0  0  0  0  0999 V2000
   57.6121   32.0884   41.0692 H   0  0  0  0  0  0  0  0  0  0  0  0
   57.6030   31.9470   42.1600 C   0  0  0  0  0  0  0  0  0  0  0  0
   57.0460   30.7900   42.7080 C   0  0  0  0  0  0  0  0  0  0  0  0
   56.6195   30.0244   42.0432 H   0  0  0  0  0  0  0  0  0  0  0  0
   57.0240   30.5920   44.1010 C   0  0  0  0  0  0  0  0  0  0  0  0
   56.4010   29.3620   44.6560 C   0  0  0  0  0  0  0  0  0  0  0  0
   55.1590   29.3340   44.8750 O   0  0  0  0  0  0  0  0  0  0  0  0
   57.1810   28.1840   44.8900 N   0  0  0  0  0  0  0  0  0  0  0  0
   57.9060   27.9100   45.9390 C   0  0  0  0  0  0  0  0  0  0  0  0
   58.4270   28.8740   46.7720 C   0  0  0  0  0  0  0  0  0  0  0  0
   58.2776   29.9628   46.7250 H   0  0  0  0  0  0  0  0  0  0  0  0
   59.1820   28.1560   47.6820 C   0  0  0  0  0  0  0  0  0  0  0  0
   60.0150   28.7060   48.7680 C   0  0  0  0  0  0  0  0  0  0  0  0
   60.6660   27.9040   49.4920 O   0  0  0  0  0  0  0  0  0  0  0  0
   60.1020   30.1200   49.0240 N   0  0  0  0  0  0  0  0  0  0  0  0
   58.9370   31.0010   48.8960 C   0  0  0  0  0  0  0  0  0  0  0  0
   59.0025   31.5612   47.9516 H   0  0  0  0  0  0  0  0  0  0  0  0
   58.0175   30.3973   48.9001 H   0  0  0  0  0  0  0  0  0  0  0  0
   58.9100   31.9820   50.0710 C   0  0  0  0  0  0  0  0  0  0  0  0
   58.1077   32.7169   49.9092 H   0  0  0  0  0  0  0  0  0  0  0  0
   58.7302   31.4179   50.9981 H   0  0  0  0  0  0  0  0  0  0  0  0
   60.1470   32.6620   50.1850 O   0  0  0  0  0  0  0  0  0  0  0  0
   61.1720   31.7420   50.5140 C   0  0  0  0  0  0  0  0  0  0  0  0
   62.1085   32.2923   50.6877 H   0  0  0  0  0  0  0  0  0  0  0  0
   60.8764   31.1939   51.4208 H   0  0  0  0  0  0  0  0  0  0  0  0
   61.3840   30.7350   49.3780 C   0  0  0  0  0  0  0  0  0  0  0  0
   61.7963   31.2541   48.5002 H   0  0  0  0  0  0  0  0  0  0  0  0
   62.0864   29.9547   49.7064 H   0  0  0  0  0  0  0  0  0  0  0  0
   59.0950   26.8360   47.4140 N   0  0  0  0  0  0  0  0  0  0  0  0
   58.3090   26.6830   46.3590 N   0  0  0  0  0  0  0  0  0  0  0  0
   57.8360   25.3900   45.9550 C   0  0  0  0  0  0  0  0  0  0  0  0
   56.4590   25.1440   45.8700 C   0  0  0  0  0  0  0  0  0  0  0  0
   55.7433   25.9426   46.1149 H   0  0  0  0  0  0  0  0  0  0  0  0
   55.9920   23.8870   45.4750 C   0  0  0  0  0  0  0  0  0  0  0  0
   54.9100   23.6940   45.4293 H   0  0  0  0  0  0  0  0  0  0  0  0
   56.8970   22.8720   45.1370 C   0  0  0  0  0  0  0  0  0  0  0  0
   56.3090   21.2800   44.6700 S   0  0  0  0  0  0  0  0  0  0  0  0
   56.2410   21.1820   43.1720 O   0  0  0  0  0  0  0  0  0  0  0  0
   54.9310   21.0610   45.2300 O   0  0  0  0  0  0  0  0  0  0  0  0
   57.3830   20.0710   45.2790 N   0  0  0  0  0  0  0  0  0  0  0  0
   58.3490   20.3470   44.9890 H   0  0  0  0  0  0  0  0  0  0  0  0
   57.1600   19.1830   44.7770 H   0  0  0  0  0  0  0  0  0  0  0  0
   58.2740   23.1240   45.1970 C   0  0  0  0  0  0  0  0  0  0  0  0
   58.9888   22.3303   44.9340 H   0  0  0  0  0  0  0  0  0  0  0  0
   58.7420   24.3810   45.5900 C   0  0  0  0  0  0  0  0  0  0  0  0
   59.8235   24.5806   45.6135 H   0  0  0  0  0  0  0  0  0  0  0  0
   57.5740   31.5890   44.9390 C   0  0  0  0  0  0  0  0  0  0  0  0
   57.5520   31.4510   46.2900 F   0  0  0  0  0  0  0  0  0  0  0  0
   58.1470   32.7490   44.3830 C   0  0  0  0  0  0  0  0  0  0  0  0
   58.7070   33.8170   45.2790 C   0  0  0  0  0  0  0  0  0  0  0  0
   58.5564   33.5299   46.3301 H   0  0  0  0  0  0  0  0  0  0  0  0
   59.7827   33.9345   45.0815 H   0  0  0  0  0  0  0  0  0  0  0  0
   58.1919   34.7686   45.0815 H   0  0  0  0  0  0  0  0  0  0  0  0
   58.1480   32.9240   42.9930 C   0  0  0  0  0  0  0  0  0  0  0  0
   58.5807   33.8363   42.5565 H   0  0  0  0  0  0  0  0  0  0  0  0
  1  2  1  0
  2  3  2  0
  3  4  1  0
  3  5  1  0
  5  6  1  0
  6  7  2  0
  6  8  1  0
  8  9  2  0
  9 10  1  0
 10 11  1  0
 10 12  2  0
 12 13  1  0
 13 14  2  0
 13 15  1  0
 15 16  1  0
 16 17  1  0
 16 18  1  0
 16 19  1  0
 19 20  1  0
 19 21  1  0
 19 22  1  0
 22 23  1  0
 23 24  1  0
 23 25  1  0
 23 26  1  0
 26 27  1  0
 26 28  1  0
 12 29  1  0
 29 30  1  0
 30 31  1  0
 31 32  2  0
 32 33  1  0
 32 34  1  0
 34 35  1  0
 34 36  2  0
 36 37  1  0
 37 38  2  0
 37 39  2  0
 37 40  1  0
 40 41  1  0
 40 42  1  0
 36 43  1  0
 43 44  1  0
 43 45  2  0
 45 46  1  0
  5 47  2  0
 47 48  1  0
 47 49  1  0
 49 50  1  0
 50 51  1  0
 50 52  1  0
 50 53  1  0
 49 54  2  0
 54 55  1  0
 54  2  1  0
 30  9  1  0
 45 31  1  0
 26 15  1  0
M  CHG  1  29  -1
M  END
>  <UniqueID>  (73) 
72

>  <SMILES>  (73) 
Cc1cccc(C(=O)/N=c2/cc(C(=O)N3CCOCC3)[n-]n2-c2ccc(S(N)(=O)=O)cc2)c1F

>  <Energy>  (73) 
109.92279243710868

>  <Genealogy>  (73) 
Cc1cccc(C(=O)N=c2cc(C(=O)N3CCOCC3)[n-]n2-c2ccc(S(N)(=O)=O)cc2)c1F (protonated)
Cc1cccc(C(=O)/N=c2/cc(C(=O)N3CCOCC3)[n-]n2-c2ccc(S(N)(=O)=O)cc2)c1F (cis-trans isomerization)
Cc1cccc(C(=O)/N=c2/cc(C(=O)N3CCOCC3)[n-]n2-c2ccc(S(N)(=O)=O)cc2)c1F (3D coordinates assigned)
Cc1cccc(C(=O)/N=c2/cc(C(=O)N3CCOCC3)[n-]n2-c2ccc(S(N)(=O)=O)cc2)c1F (nonaromatic ring conformer: 109.92279243710868 kcal/mol)

>  <smiles>  (73) 
Cc1cccc(C(=O)N=c2cc(C(=O)N3CCOCC3)[nH]n2-c2ccc(S(N)(=O)=O)cc2)c1F

>  <score_type>  (73) 
oracle

>  <origin>  (73) 
adg

>  <m_score__min__energy>  (73) 
-11.01

>  <m_primary>  (73) 
energy

$$$$
73:0
     RDKit          3D

 42 43  0  0  0  0  0  0  0  0999 V2000
   62.2738   32.6584   50.5902 H   0  0  0  0  0  0  0  0  0  0  0  0
   62.4130   33.2750   49.6900 C   0  0  0  0  0  0  0  0  0  0  0  0
   61.4410   34.0570   49.3130 N   0  0  0  0  0  0  0  0  0  0  0  0
   60.5630   33.8690   48.1920 C   0  0  0  0  0  0  0  0  0  0  0  0
   60.9250   34.2720   46.8930 C   0  0  0  0  0  0  0  0  0  0  0  0
   61.9135   34.7199   46.7134 H   0  0  0  0  0  0  0  0  0  0  0  0
   60.0330   34.1050   45.8310 C   0  0  0  0  0  0  0  0  0  0  0  0
   60.3260   34.4113   44.8159 H   0  0  0  0  0  0  0  0  0  0  0  0
   58.7670   33.5490   46.0540 C   0  0  0  0  0  0  0  0  0  0  0  0
   57.6570   33.3490   44.7040 S   0  0  0  0  0  0  0  0  0  0  0  0
   56.7960   34.5680   44.5230 O   0  0  0  0  0  0  0  0  0  0  0  0
   58.4600   33.1410   43.4510 O   0  0  0  0  0  0  0  0  0  0  0  0
   56.6490   31.9630   44.9660 N   0  0  0  0  0  0  0  0  0  0  0  0
   56.9720   30.6090   44.6190 C   0  0  0  0  0  0  0  0  0  0  0  0
   56.1260   29.7070   44.8720 O   0  0  0  0  0  0  0  0  0  0  0  0
   58.2110   30.2530   43.9750 N   0  0  0  0  0  0  0  0  0  0  0  0
   58.0690   30.0540   42.9620 H   0  0  0  0  0  0  0  0  0  0  0  0
   58.8690   31.0630   44.0590 H   0  0  0  0  0  0  0  0  0  0  0  0
   58.8010   29.0780   44.6290 C   0  0  0  0  0  0  0  0  0  0  0  0
   57.9962   28.4022   44.9540 H   0  0  0  0  0  0  0  0  0  0  0  0
   59.4601   28.5653   43.9130 H   0  0  0  0  0  0  0  0  0  0  0  0
   59.6080   29.4920   45.8200 C   0  0  0  0  0  0  0  0  0  0  0  0
   60.1400   30.6850   45.9650 O   0  0  0  0  0  0  0  0  0  0  0  0
   60.7960   30.7120   47.1010 C   0  0  0  0  0  0  0  0  0  0  0  0
   61.3432   31.5810   47.4952 H   0  0  0  0  0  0  0  0  0  0  0  0
   60.6960   29.4840   47.7280 C   0  0  0  0  0  0  0  0  0  0  0  0
   61.1357   29.1976   48.6948 H   0  0  0  0  0  0  0  0  0  0  0  0
   59.9350   28.6920   46.8980 C   0  0  0  0  0  0  0  0  0  0  0  0
   59.6476   27.6425   47.0592 H   0  0  0  0  0  0  0  0  0  0  0  0
   58.3860   33.1910   47.3540 C   0  0  0  0  0  0  0  0  0  0  0  0
   57.3854   32.7727   47.5376 H   0  0  0  0  0  0  0  0  0  0  0  0
   59.2770   33.3650   48.4190 C   0  0  0  0  0  0  0  0  0  0  0  0
   58.9648   33.1041   49.4410 H   0  0  0  0  0  0  0  0  0  0  0  0
   63.6600   33.1840   48.9790 N   0  0  0  0  0  0  0  0  0  0  0  0
   63.6870   32.8390   47.5540 C   0  0  0  0  0  0  0  0  0  0  0  0
   63.7724   31.7480   47.4424 H   0  0  0  0  0  0  0  0  0  0  0  0
   62.7590   33.1850   47.0753 H   0  0  0  0  0  0  0  0  0  0  0  0
   64.5498   33.3252   47.0753 H   0  0  0  0  0  0  0  0  0  0  0  0
   64.8990   33.1310   49.7480 C   0  0  0  0  0  0  0  0  0  0  0  0
   64.6643   33.1410   50.8226 H   0  0  0  0  0  0  0  0  0  0  0  0
   65.4450   32.2087   49.5005 H   0  0  0  0  0  0  0  0  0  0  0  0
   65.5217   34.0033   49.5005 H   0  0  0  0  0  0  0  0  0  0  0  0
  1  2  1  0
  2  3  2  0
  3  4  1  0
  4  5  2  0
  5  6  1  0
  5  7  1  0
  7  8  1  0
  7  9  2  0
  9 10  1  0
 10 11  2  0
 10 12  2  0
 10 13  1  0
 13 14  1  0
 14 15  2  0
 14 16  1  0
 16 17  1  0
 16 18  1  0
 16 19  1  0
 19 20  1  0
 19 21  1  0
 19 22  1  0
 22 23  1  0
 23 24  1  0
 24 25  1  0
 24 26  2  0
 26 27  1  0
 26 28  1  0
 28 29  1  0
  9 30  1  0
 30 31  1  0
 30 32  2  0
 32 33  1  0
  2 34  1  0
 34 35  1  0
 35 36  1  0
 35 37  1  0
 35 38  1  0
 34 39  1  0
 39 40  1  0
 39 41  1  0
 39 42  1  0
 32  4  1  0
 28 22  2  0
M  CHG  2  13  -1  16   1
M  END
>  <UniqueID>  (74) 
73

>  <SMILES>  (74) 
CN(C)/C=N\c1ccc(S(=O)(=O)[N-]C(=O)[NH2+]Cc2ccco2)cc1

>  <Energy>  (74) 
73.44313778904413

>  <Genealogy>  (74) 
CN(C)C=Nc1ccc(S(=O)(=O)[N-]C(=O)[NH2+]Cc2ccco2)cc1 (protonated)
CN(C)/C=N\c1ccc(S(=O)(=O)[N-]C(=O)[NH2+]Cc2ccco2)cc1 (cis-trans isomerization)
CN(C)/C=N\c1ccc(S(=O)(=O)[N-]C(=O)[NH2+]Cc2ccco2)cc1 (3D coordinates assigned)
CN(C)/C=N\c1ccc(S(=O)(=O)[N-]C(=O)[NH2+]Cc2ccco2)cc1 (optimized conformer: 73.44313778904413 kcal/mol)

>  <smiles>  (74) 
CN(C)C=Nc1ccc(S(=O)(=O)NC(=O)NCc2ccco2)cc1

>  <score_type>  (74) 
oracle

>  <origin>  (74) 
adg

>  <m_score__min__energy>  (74) 
-7.2300000000000004

>  <m_primary>  (74) 
energy

$$$$
74:0
     RDKit          3D

 60 63  0  0  0  0  0  0  0  0999 V2000
   55.1490   29.3550   44.8550 N   0  0  0  0  0  0  0  0  0  0  0  0
   56.3250   29.6110   44.0940 C   0  0  0  0  0  0  0  0  0  0  0  0
   56.3030   29.4180   42.8490 O   0  0  0  0  0  0  0  0  0  0  0  0
   57.5570   30.1010   44.7550 C   0  0  0  0  0  0  0  0  0  0  0  0
   58.6760   29.2610   44.8960 C   0  0  0  0  0  0  0  0  0  0  0  0
   59.8350   29.7270   45.5230 C   0  0  0  0  0  0  0  0  0  0  0  0
   59.8910   31.0330   46.0160 C   0  0  0  0  0  0  0  0  0  0  0  0
   58.7870   31.8840   45.8800 C   0  0  0  0  0  0  0  0  0  0  0  0
   58.8460   33.5340   46.4870 S   0  0  0  0  0  0  0  0  0  0  0  0
   59.3510   34.4420   45.4000 O   0  0  0  0  0  0  0  0  0  0  0  0
   57.4800   33.9930   46.9170 O   0  0  0  0  0  0  0  0  0  0  0  0
   59.9230   33.6140   47.8400 N   0  0  0  0  0  0  0  0  0  0  0  0
   60.1640   32.4930   48.6950 C   0  0  0  0  0  0  0  0  0  0  0  0
   61.1630   31.7500   48.4880 O   0  0  0  0  0  0  0  0  0  0  0  0
   59.2620   32.2290   49.8400 C   0  0  0  0  0  0  0  0  0  0  0  0
   59.1410   33.2010   50.8510 C   0  0  0  0  0  0  0  0  0  0  0  0
   58.3700   32.9560   51.9880 C   0  0  0  0  0  0  0  0  0  0  0  0
   57.7060   31.7370   52.1330 C   0  0  0  0  0  0  0  0  0  0  0  0
   57.8000   30.7650   51.1370 C   0  0  0  0  0  0  0  0  0  0  0  0
   58.5580   31.0040   49.9800 C   0  0  0  0  0  0  0  0  0  0  0  0
   58.5730   30.0040   48.9520 N   0  0  0  0  0  0  0  0  0  0  0  0
   59.3570   28.8070   49.0710 C   0  0  0  0  0  0  0  0  0  0  0  0
   60.1070   28.6450   50.0740 O   0  0  0  0  0  0  0  0  0  0  0  0
   59.3320   27.7750   48.0090 C   0  0  0  0  0  0  0  0  0  0  0  0
   60.5260   27.2490   47.4860 C   0  0  0  0  0  0  0  0  0  0  0  0
   60.4890   26.2620   46.4970 C   0  0  0  0  0  0  0  0  0  0  0  0
   59.2630   25.7910   46.0190 C   0  0  0  0  0  0  0  0  0  0  0  0
   58.0660   26.3130   46.5240 C   0  0  0  0  0  0  0  0  0  0  0  0
   56.5210   25.6740   45.9680 S   0  0  0  0  0  0  0  0  0  0  0  0
   56.7160   24.9830   44.6470 O   0  0  0  0  0  0  0  0  0  0  0  0
   55.5490   26.8060   45.7760 O   0  0  0  0  0  0  0  0  0  0  0  0
   55.9120   24.5320   47.1380 N   0  0  0  0  0  0  0  0  0  0  0  0
   55.1890   23.4400   46.4860 C   0  0  0  0  0  0  0  0  0  0  0  0
   55.2860   22.2440   47.4160 C   0  0  0  0  0  0  0  0  0  0  0  0
   56.5070   22.5090   48.2830 C   0  0  0  0  0  0  0  0  0  0  0  0
   56.9990   23.8940   47.8810 C   0  0  0  0  0  0  0  0  0  0  0  0
   58.1040   27.3070   47.5120 C   0  0  0  0  0  0  0  0  0  0  0  0
   57.6230   31.4170   45.2540 C   0  0  0  0  0  0  0  0  0  0  0  0
   55.1570   28.6680   45.6390 H   0  0  0  0  0  0  0  0  0  0  0  0
   58.6389   28.2314   44.5107 H   0  0  0  0  0  0  0  0  0  0  0  0
   60.7058   29.0633   45.6286 H   0  0  0  0  0  0  0  0  0  0  0  0
   60.8041   31.3937   46.5120 H   0  0  0  0  0  0  0  0  0  0  0  0
   59.6602   34.1648   50.7435 H   0  0  0  0  0  0  0  0  0  0  0  0
   58.2855   33.7243   52.7707 H   0  0  0  0  0  0  0  0  0  0  0  0
   57.1071   31.5423   53.0349 H   0  0  0  0  0  0  0  0  0  0  0  0
   57.2768   29.8051   51.2590 H   0  0  0  0  0  0  0  0  0  0  0  0
   58.2090   30.2720   48.0100 H   0  0  0  0  0  0  0  0  0  0  0  0
   61.4944   27.6160   47.8569 H   0  0  0  0  0  0  0  0  0  0  0  0
   61.4278   25.8546   46.0936 H   0  0  0  0  0  0  0  0  0  0  0  0
   59.2385   25.0095   45.2453 H   0  0  0  0  0  0  0  0  0  0  0  0
   54.1359   23.7188   46.3339 H   0  0  0  0  0  0  0  0  0  0  0  0
   55.6175   23.2124   45.4988 H   0  0  0  0  0  0  0  0  0  0  0  0
   54.3818   22.1646   48.0375 H   0  0  0  0  0  0  0  0  0  0  0  0
   55.3742   21.2985   46.8609 H   0  0  0  0  0  0  0  0  0  0  0  0
   56.2330   22.4926   49.3482 H   0  0  0  0  0  0  0  0  0  0  0  0
   57.2832   21.7428   48.1399 H   0  0  0  0  0  0  0  0  0  0  0  0
   57.2420   24.4840   48.7771 H   0  0  0  0  0  0  0  0  0  0  0  0
   57.9089   23.8257   47.2666 H   0  0  0  0  0  0  0  0  0  0  0  0
   57.1638   27.7243   47.9016 H   0  0  0  0  0  0  0  0  0  0  0  0
   56.7539   32.0834   45.1515 H   0  0  0  0  0  0  0  0  0  0  0  0
  1  2  1  0
  2  3  2  0
  2  4  1  0
  4  5  2  0
  5  6  1  0
  6  7  2  0
  7  8  1  0
  8  9  1  0
  9 10  2  0
  9 11  2  0
  9 12  1  0
 12 13  1  0
 13 14  2  0
 13 15  1  0
 15 16  2  0
 16 17  1  0
 17 18  2  0
 18 19  1  0
 19 20  2  0
 20 21  1  0
 21 22  1  0
 22 23  2  0
 22 24  1  0
 24 25  2  0
 25 26  1  0
 26 27  2  0
 27 28  1  0
 28 29  1  0
 29 30  2  0
 29 31  2  0
 29 32  1  0
 32 33  1  0
 33 34  1  0
 34 35  1  0
 35 36  1  0
 28 37  2  0
  8 38  2  0
 38  4  1  0
 20 15  1  0
 37 24  1  0
 36 32  1  0
  1 39  1  0
  5 40  1  0
  6 41  1  0
  7 42  1  0
 16 43  1  0
 17 44  1  0
 18 45  1  0
 19 46  1  0
 21 47  1  0
 25 48  1  0
 26 49  1  0
 27 50  1  0
 33 51  1  0
 33 52  1  0
 34 53  1  0
 34 54  1  0
 35 55  1  0
 35 56  1  0
 36 57  1  0
 36 58  1  0
 37 59  1  0
 38 60  1  0
M  CHG  2   1  -1  12  -1
M  END
>  <UniqueID>  (75) 
74

>  <SMILES>  (75) 
[NH-]C(=O)c1cccc(S(=O)(=O)[N-]C(=O)c2ccccc2NC(=O)c2cccc(S(=O)(=O)N3CCCC3)c2)c1

>  <Energy>  (75) 
76.95117454270735

>  <Genealogy>  (75) 
[NH-]C(=O)c1cccc(S(=O)(=O)[N-]C(=O)c2ccccc2NC(=O)c2cccc(S(=O)(=O)N3CCCC3)c2)c1 (protonated)
[NH-]C(=O)c1cccc(S(=O)(=O)[N-]C(=O)c2ccccc2NC(=O)c2cccc(S(=O)(=O)N3CCCC3)c2)c1 (3D coordinates assigned)
[NH-]C(=O)c1cccc(S(=O)(=O)[N-]C(=O)c2ccccc2NC(=O)c2cccc(S(=O)(=O)N3CCCC3)c2)c1 (nonaromatic ring conformer: 76.95117454270735 kcal/mol)

>  <smiles>  (75) 
NC(=O)c1cccc(S(=O)(=O)NC(=O)c2ccccc2NC(=O)c2cccc(S(=O)(=O)N3CCCC3)c2)c1

>  <score_type>  (75) 
oracle

>  <origin>  (75) 
adg

>  <m_score__min__energy>  (75) 
-16.780000000000001

>  <m_primary>  (75) 
energy

$$$$
75:0
     RDKit          3D

 53 56  0  0  0  0  0  0  0  0999 V2000
   56.4936   30.4641   41.1554 H   0  0  0  0  0  0  0  0  0  0  0  0
   56.6540   30.5650   42.2390 C   0  0  0  0  0  0  0  0  0  0  0  0
   56.1170   29.6540   43.0910 N   0  0  0  0  0  0  0  0  0  0  0  0
   56.2910   29.7370   44.4400 C   0  0  0  0  0  0  0  0  0  0  0  0
   55.7770   28.8540   45.2460 N   0  0  0  0  0  0  0  0  0  0  0  0
   56.3520   27.5940   45.6330 C   0  0  0  0  0  0  0  0  0  0  0  0
   55.6280   26.6470   46.0400 O   0  0  0  0  0  0  0  0  0  0  0  0
   57.7720   27.4190   45.6170 N   0  0  0  0  0  0  0  0  0  0  0  0
   58.7230   28.3120   46.2130 C   0  0  0  0  0  0  0  0  0  0  0  0
   58.6280   28.5780   47.5860 C   0  0  0  0  0  0  0  0  0  0  0  0
   57.8291   28.1099   48.1798 H   0  0  0  0  0  0  0  0  0  0  0  0
   59.5430   29.4350   48.2050 C   0  0  0  0  0  0  0  0  0  0  0  0
   59.4519   29.6528   49.2794 H   0  0  0  0  0  0  0  0  0  0  0  0
   60.5730   30.0150   47.4600 C   0  0  0  0  0  0  0  0  0  0  0  0
   61.2868   30.6966   47.9457 H   0  0  0  0  0  0  0  0  0  0  0  0
   60.6960   29.7290   46.0980 C   0  0  0  0  0  0  0  0  0  0  0  0
   61.5137   30.1785   45.5155 H   0  0  0  0  0  0  0  0  0  0  0  0
   59.7830   28.8730   45.4720 C   0  0  0  0  0  0  0  0  0  0  0  0
   59.9700   28.5530   44.1680 F   0  0  0  0  0  0  0  0  0  0  0  0
   57.0450   30.7910   44.9730 C   0  0  0  0  0  0  0  0  0  0  0  0
   57.2024   30.8611   46.0594 H   0  0  0  0  0  0  0  0  0  0  0  0
   57.5990   31.7570   44.1190 C   0  0  0  0  0  0  0  0  0  0  0  0
   58.4110   32.8610   44.6810 C   0  0  0  0  0  0  0  0  0  0  0  0
   58.9010   33.7200   43.8980 O   0  0  0  0  0  0  0  0  0  0  0  0
   58.6820   32.9900   46.1260 C   0  0  0  0  0  0  0  0  0  0  0  0
   58.0450   32.2570   47.0670 N   0  0  0  0  0  0  0  0  0  0  0  0
   58.5440   32.7300   48.2260 C   0  0  0  0  0  0  0  0  0  0  0  0
   58.1820   32.3000   49.3540 O   0  0  0  0  0  0  0  0  0  0  0  0
   59.4530   33.7100   48.0600 N   0  0  0  0  0  0  0  0  0  0  0  0
   60.1190   34.4980   49.0970 C   0  0  0  0  0  0  0  0  0  0  0  0
   60.6224   35.3586   48.6323 H   0  0  0  0  0  0  0  0  0  0  0  0
   59.3676   34.8480   49.8201 H   0  0  0  0  0  0  0  0  0  0  0  0
   61.1570   33.6390   49.8300 C   0  0  0  0  0  0  0  0  0  0  0  0
   61.2197   33.9700   50.8771 H   0  0  0  0  0  0  0  0  0  0  0  0
   60.8393   32.5876   49.7701 H   0  0  0  0  0  0  0  0  0  0  0  0
   62.4940   33.7560   49.2080 N   0  0  0  0  0  0  0  0  0  0  0  0
   63.2850   32.5120   49.3850 C   0  0  0  0  0  0  0  0  0  0  0  0
   64.3274   32.7818   49.6098 H   0  0  0  0  0  0  0  0  0  0  0  0
   62.8387   31.9374   50.2100 H   0  0  0  0  0  0  0  0  0  0  0  0
   63.2590   31.6330   48.1200 C   0  0  0  0  0  0  0  0  0  0  0  0
   63.8598   30.7317   48.3113 H   0  0  0  0  0  0  0  0  0  0  0  0
   62.2042   31.3990   47.9134 H   0  0  0  0  0  0  0  0  0  0  0  0
   63.7750   32.2790   46.9630 O   0  0  0  0  0  0  0  0  0  0  0  0
   63.6270   33.6930   46.9840 C   0  0  0  0  0  0  0  0  0  0  0  0
   64.5301   34.1312   47.4338 H   0  0  0  0  0  0  0  0  0  0  0  0
   63.4796   34.0189   45.9438 H   0  0  0  0  0  0  0  0  0  0  0  0
   62.4030   34.1690   47.7860 C   0  0  0  0  0  0  0  0  0  0  0  0
   62.3462   35.2663   47.7349 H   0  0  0  0  0  0  0  0  0  0  0  0
   61.5033   33.7110   47.3492 H   0  0  0  0  0  0  0  0  0  0  0  0
   59.5330   33.8960   46.7330 C   0  0  0  0  0  0  0  0  0  0  0  0
   60.1632   34.6371   46.2196 H   0  0  0  0  0  0  0  0  0  0  0  0
   57.4090   31.6290   42.7350 C   0  0  0  0  0  0  0  0  0  0  0  0
   57.8521   32.3624   42.0452 H   0  0  0  0  0  0  0  0  0  0  0  0
  1  2  1  0
  2  3  1  0
  3  4  1  0
  4  5  2  0
  5  6  1  0
  6  7  2  0
  6  8  1  0
  8  9  1  0
  9 10  2  0
 10 11  1  0
 10 12  1  0
 12 13  1  0
 12 14  2  0
 14 15  1  0
 14 16  1  0
 16 17  1  0
 16 18  2  0
 18 19  1  0
  4 20  1  0
 20 21  1  0
 20 22  2  0
 22 23  1  0
 23 24  2  0
 23 25  1  0
 25 26  1  0
 26 27  1  0
 27 28  2  0
 27 29  1  0
 29 30  1  0
 30 31  1  0
 30 32  1  0
 30 33  1  0
 33 34  1  0
 33 35  1  0
 33 36  1  0
 36 37  1  0
 37 38  1  0
 37 39  1  0
 37 40  1  0
 40 41  1  0
 40 42  1  0
 40 43  1  0
 43 44  1  0
 44 45  1  0
 44 46  1  0
 44 47  1  0
 47 48  1  0
 47 49  1  0
 29 50  1  0
 50 51  1  0
 22 52  1  0
 52 53  1  0
 52  2  2  0
 18  9  1  0
 50 25  2  0
 47 36  1  0
M  CHG  3   3  -1   8  -1  26  -1
M  END
>  <UniqueID>  (76) 
75

>  <SMILES>  (76) 
O=C(/N=c1/cc(C(=O)c2cn(CCN3CCOCC3)c(=O)[n-]2)cc[n-]1)[N-]c1ccccc1F

>  <Energy>  (76) 
111.45307750724766

>  <Genealogy>  (76) 
O=C(N=c1cc(C(=O)c2cn(CCN3CCOCC3)c(=O)[n-]2)cc[n-]1)[N-]c1ccccc1F (protonated)
O=C(/N=c1/cc(C(=O)c2cn(CCN3CCOCC3)c(=O)[n-]2)cc[n-]1)[N-]c1ccccc1F (cis-trans isomerization)
O=C(/N=c1/cc(C(=O)c2cn(CCN3CCOCC3)c(=O)[n-]2)cc[n-]1)[N-]c1ccccc1F (3D coordinates assigned)
O=C(/N=c1/cc(C(=O)c2cn(CCN3CCOCC3)c(=O)[n-]2)cc[n-]1)[N-]c1ccccc1F (nonaromatic ring conformer: 111.45307750724766 kcal/mol)

>  <smiles>  (76) 
O=C(N=c1cc(C(=O)c2cn(CCN3CCOCC3)c(=O)[nH]2)cc[nH]1)Nc1ccccc1F

>  <score_type>  (76) 
oracle

>  <origin>  (76) 
adg

>  <m_score__min__energy>  (76) 
-12.720000000000001

>  <m_primary>  (76) 
energy

$$$$
76:0
     RDKit          3D

 54 58  0  0  0  0  0  0  0  0999 V2000
   54.9750   30.4970   53.7720 O   0  0  0  0  0  0  0  0  0  0  0  0
   55.2500   30.2870   52.5600 C   0  0  0  0  0  0  0  0  0  0  0  0
   54.2670   29.6550   51.7310 N   0  0  0  0  0  0  0  0  0  0  0  0
   53.1570   30.2940   51.0920 C   0  0  0  0  0  0  0  0  0  0  0  0
   52.6090   29.7930   49.8970 C   0  0  0  0  0  0  0  0  0  0  0  0
   51.5240   30.4370   49.3010 C   0  0  0  0  0  0  0  0  0  0  0  0
   50.9920   31.5910   49.8800 C   0  0  0  0  0  0  0  0  0  0  0  0
   51.5490   32.1090   51.0530 C   0  0  0  0  0  0  0  0  0  0  0  0
   51.0240   33.2600   51.6270 O   0  0  0  0  0  0  0  0  0  0  0  0
   52.6340   31.4670   51.6520 C   0  0  0  0  0  0  0  0  0  0  0  0
   56.6070   30.6120   52.0760 C   0  0  0  0  0  0  0  0  0  0  0  0
   56.9470   31.5140   51.0910 C   0  0  0  0  0  0  0  0  0  0  0  0
   58.3120   31.3690   50.9620 C   0  0  0  0  0  0  0  0  0  0  0  0
   59.1650   32.0860   49.9990 C   0  0  0  0  0  0  0  0  0  0  0  0
   59.3480   33.4620   50.1520 C   0  0  0  0  0  0  0  0  0  0  0  0
   60.2150   34.1560   49.3090 C   0  0  0  0  0  0  0  0  0  0  0  0
   60.9310   33.4790   48.3160 C   0  0  0  0  0  0  0  0  0  0  0  0
   61.8280   34.1760   47.5090 O   0  0  0  0  0  0  0  0  0  0  0  0
   60.7340   32.0960   48.1290 C   0  0  0  0  0  0  0  0  0  0  0  0
   59.8230   31.4070   48.9440 C   0  0  0  0  0  0  0  0  0  0  0  0
   59.5180   29.9700   48.5840 C   0  0  0  0  0  0  0  0  0  0  0  0
   59.4690   29.7940   47.1190 N   0  0  0  0  0  0  0  0  0  0  0  0
   58.1800   30.1500   46.4800 C   0  0  0  0  0  0  0  0  0  0  0  0
   58.1250   31.5630   45.9480 C   0  0  0  0  0  0  0  0  0  0  0  0
   58.3560   31.8330   44.5890 C   0  0  0  0  0  0  0  0  0  0  0  0
   58.3370   33.1480   44.1180 C   0  0  0  0  0  0  0  0  0  0  0  0
   58.0640   34.2010   44.9900 C   0  0  0  0  0  0  0  0  0  0  0  0
   57.8010   33.9400   46.3320 C   0  0  0  0  0  0  0  0  0  0  0  0
   57.8350   32.6290   46.8130 C   0  0  0  0  0  0  0  0  0  0  0  0
   60.6800   30.2350   46.3870 C   0  0  0  0  0  0  0  0  0  0  0  0
   61.5190   31.3200   47.1000 C   0  0  0  0  0  0  0  0  0  0  0  0
   58.7570   30.4190   51.8080 N   0  0  0  0  0  0  0  0  0  0  0  0
   57.7180   29.9610   52.4900 N   0  0  0  0  0  0  0  0  0  0  0  0
   53.0364   28.8924   49.4319 H   0  0  0  0  0  0  0  0  0  0  0  0
   51.0875   30.0354   48.3746 H   0  0  0  0  0  0  0  0  0  0  0  0
   50.1327   32.0936   49.4121 H   0  0  0  0  0  0  0  0  0  0  0  0
   53.0801   31.8835   52.5671 H   0  0  0  0  0  0  0  0  0  0  0  0
   56.2828   32.1928   50.5360 H   0  0  0  0  0  0  0  0  0  0  0  0
   58.8050   34.0014   50.9421 H   0  0  0  0  0  0  0  0  0  0  0  0
   60.3368   35.2430   49.4255 H   0  0  0  0  0  0  0  0  0  0  0  0
   61.7430   34.1810   46.4990 H   0  0  0  0  0  0  0  0  0  0  0  0
   60.3026   29.3202   48.9989 H   0  0  0  0  0  0  0  0  0  0  0  0
   58.5369   29.7027   49.0035 H   0  0  0  0  0  0  0  0  0  0  0  0
   58.0071   29.4584   45.6422 H   0  0  0  0  0  0  0  0  0  0  0  0
   57.4077   30.0742   47.2597 H   0  0  0  0  0  0  0  0  0  0  0  0
   58.5528   31.0049   43.8922 H   0  0  0  0  0  0  0  0  0  0  0  0
   58.5380   33.3532   43.0562 H   0  0  0  0  0  0  0  0  0  0  0  0
   58.0564   35.2363   44.6183 H   0  0  0  0  0  0  0  0  0  0  0  0
   57.5657   34.7689   47.0158 H   0  0  0  0  0  0  0  0  0  0  0  0
   57.6332   32.4312   47.8761 H   0  0  0  0  0  0  0  0  0  0  0  0
   61.3224   29.3559   46.2303 H   0  0  0  0  0  0  0  0  0  0  0  0
   60.3233   30.6897   45.4510 H   0  0  0  0  0  0  0  0  0  0  0  0
   62.3676   30.8323   47.6021 H   0  0  0  0  0  0  0  0  0  0  0  0
   61.8495   32.0353   46.3325 H   0  0  0  0  0  0  0  0  0  0  0  0
  1  2  2  0
  2  3  1  0
  3  4  1  0
  4  5  2  0
  5  6  1  0
  6  7  2  0
  7  8  1  0
  8  9  1  0
  8 10  2  0
  2 11  1  0
 11 12  1  0
 12 13  2  0
 13 14  1  0
 14 15  2  0
 15 16  1  0
 16 17  2  0
 17 18  1  0
 17 19  1  0
 19 20  2  0
 20 21  1  0
 21 22  1  0
 22 23  1  0
 23 24  1  0
 24 25  2  0
 25 26  1  0
 26 27  2  0
 27 28  1  0
 28 29  2  0
 22 30  1  0
 30 31  1  0
 13 32  1  0
 32 33  1  0
 10  4  1  0
 33 11  2  0
 20 14  1  0
 29 24  1  0
 31 19  1  0
  5 34  1  0
  6 35  1  0
  7 36  1  0
 10 37  1  0
 12 38  1  0
 15 39  1  0
 16 40  1  0
 18 41  1  0
 21 42  1  0
 21 43  1  0
 23 44  1  0
 23 45  1  0
 25 46  1  0
 26 47  1  0
 27 48  1  0
 28 49  1  0
 29 50  1  0
 30 51  1  0
 30 52  1  0
 31 53  1  0
 31 54  1  0
M  CHG  3   3  -1   9  -1  32  -1
M  END
>  <UniqueID>  (77) 
76

>  <SMILES>  (77) 
O=C([N-]c1cccc([O-])c1)c1cc(-c2ccc(O)c3c2CN(Cc2ccccc2)CC3)[n-]n1

>  <Energy>  (77) 
112.58916313879136

>  <Genealogy>  (77) 
O=C([N-]c1cccc([O-])c1)c1cc(-c2ccc(O)c3c2CN(Cc2ccccc2)CC3)[n-]n1 (protonated)
O=C([N-]c1cccc([O-])c1)c1cc(-c2ccc(O)c3c2CN(Cc2ccccc2)CC3)[n-]n1 (3D coordinates assigned)
O=C([N-]c1cccc([O-])c1)c1cc(-c2ccc(O)c3c2CN(Cc2ccccc2)CC3)[n-]n1 (nonaromatic ring conformer: 112.58916313879136 kcal/mol)

>  <smiles>  (77) 
O=C(Nc1cccc(O)c1)c1cc(-c2ccc(O)c3c2CN(Cc2ccccc2)CC3)[nH]n1

>  <score_type>  (77) 
oracle

>  <origin>  (77) 
adg

>  <m_score__min__energy>  (77) 
-15.58

>  <m_primary>  (77) 
energy

$$$$
77:0
     RDKit          3D

 59 62  0  0  0  0  0  0  0  0999 V2000
   60.1873   35.5573   46.2531 H   0  0  0  0  0  0  0  0  0  0  0  0
   60.4070   34.5030   46.4770 C   0  0  0  0  0  0  0  0  0  0  0  0
   59.4710   33.5870   46.1460 C   0  0  0  0  0  0  0  0  0  0  0  0
   58.8020   32.8000   47.1060 C   0  0  0  0  0  0  0  0  0  0  0  0
   59.0385   32.9218   48.1734 H   0  0  0  0  0  0  0  0  0  0  0  0
   57.8670   31.8920   46.7210 N   0  0  0  0  0  0  0  0  0  0  0  0
   57.5390   31.6960   45.4190 C   0  0  0  0  0  0  0  0  0  0  0  0
   58.1760   32.4570   44.4170 C   0  0  0  0  0  0  0  0  0  0  0  0
   59.1310   33.4080   44.7930 C   0  0  0  0  0  0  0  0  0  0  0  0
   59.6208   34.0218   44.0227 H   0  0  0  0  0  0  0  0  0  0  0  0
   57.7250   32.3610   42.9770 C   0  0  0  0  0  0  0  0  0  0  0  0
   58.5847   32.5633   42.3212 H   0  0  0  0  0  0  0  0  0  0  0  0
   56.9241   33.0989   42.8216 H   0  0  0  0  0  0  0  0  0  0  0  0
   57.1630   30.9740   42.6430 C   0  0  0  0  0  0  0  0  0  0  0  0
   57.9966   30.2743   42.4836 H   0  0  0  0  0  0  0  0  0  0  0  0
   56.5508   31.0477   41.7321 H   0  0  0  0  0  0  0  0  0  0  0  0
   56.3050   30.4720   43.7650 C   0  0  0  0  0  0  0  0  0  0  0  0
   55.3420   29.6960   43.5310 O   0  0  0  0  0  0  0  0  0  0  0  0
   56.6440   30.8020   45.1180 N   0  0  0  0  0  0  0  0  0  0  0  0
   61.7300   34.1910   47.1300 C   0  0  0  0  0  0  0  0  0  0  0  0
   62.5268   34.2915   46.3783 H   0  0  0  0  0  0  0  0  0  0  0  0
   61.8672   34.8977   47.9617 H   0  0  0  0  0  0  0  0  0  0  0  0
   61.7770   32.8020   47.6990 C   0  0  0  0  0  0  0  0  0  0  0  0
   62.0410   31.8100   46.9650 O   0  0  0  0  0  0  0  0  0  0  0  0
   61.4630   32.6200   49.0470 O   0  0  0  0  0  0  0  0  0  0  0  0
   60.6360   33.5170   49.7790 C   0  0  0  0  0  0  0  0  0  0  0  0
   61.2362   34.3706   50.1270 H   0  0  0  0  0  0  0  0  0  0  0  0
   59.8248   33.8840   49.1330 H   0  0  0  0  0  0  0  0  0  0  0  0
   60.0570   32.7990   50.9560 C   0  0  0  0  0  0  0  0  0  0  0  0
   59.8180   33.4210   52.0240 O   0  0  0  0  0  0  0  0  0  0  0  0
   59.7590   31.4040   50.8640 N   0  0  0  0  0  0  0  0  0  0  0  0
   58.4710   30.9700   50.3170 C   0  0  0  0  0  0  0  0  0  0  0  0
   57.9257   30.3865   51.0734 H   0  0  0  0  0  0  0  0  0  0  0  0
   57.8684   31.8470   50.0381 H   0  0  0  0  0  0  0  0  0  0  0  0
   58.7270   30.1030   49.0860 C   0  0  0  0  0  0  0  0  0  0  0  0
   57.7626   29.7357   48.7051 H   0  0  0  0  0  0  0  0  0  0  0  0
   59.2438   30.7232   48.3388 H   0  0  0  0  0  0  0  0  0  0  0  0
   59.6360   28.8840   49.4030 C   0  0  0  0  0  0  0  0  0  0  0  0
   58.9539   28.0318   49.5389 H   0  0  0  0  0  0  0  0  0  0  0  0
   60.5560   28.5000   48.2130 C   0  0  0  0  0  0  0  0  0  0  0  0
   61.3431   29.2638   48.1289 H   0  0  0  0  0  0  0  0  0  0  0  0
   60.9468   27.4961   48.4355 H   0  0  0  0  0  0  0  0  0  0  0  0
   59.8550   28.3970   46.8750 C   0  0  0  0  0  0  0  0  0  0  0  0
   60.3710   29.0730   45.7550 C   0  0  0  0  0  0  0  0  0  0  0  0
   61.2914   29.6675   45.8516 H   0  0  0  0  0  0  0  0  0  0  0  0
   59.7210   28.9940   44.5190 C   0  0  0  0  0  0  0  0  0  0  0  0
   60.1229   29.5372   43.6510 H   0  0  0  0  0  0  0  0  0  0  0  0
   58.5620   28.2260   44.3860 C   0  0  0  0  0  0  0  0  0  0  0  0
   58.0456   28.1725   43.4162 H   0  0  0  0  0  0  0  0  0  0  0  0
   58.0590   27.5260   45.4850 C   0  0  0  0  0  0  0  0  0  0  0  0
   57.1532   26.9114   45.3759 H   0  0  0  0  0  0  0  0  0  0  0  0
   58.7030   27.6040   46.7230 C   0  0  0  0  0  0  0  0  0  0  0  0
   58.3073   27.0428   47.5823 H   0  0  0  0  0  0  0  0  0  0  0  0
   60.3860   28.9990   50.7620 C   0  0  0  0  0  0  0  0  0  0  0  0
   59.7154   28.6500   51.5610 H   0  0  0  0  0  0  0  0  0  0  0  0
   61.2950   28.3845   50.6843 H   0  0  0  0  0  0  0  0  0  0  0  0
   60.8340   30.4330   51.0930 C   0  0  0  0  0  0  0  0  0  0  0  0
   61.1351   30.4773   52.1501 H   0  0  0  0  0  0  0  0  0  0  0  0
   61.6749   30.6905   50.4323 H   0  0  0  0  0  0  0  0  0  0  0  0
  1  2  1  0
  2  3  2  0
  3  4  1  0
  4  5  1  0
  4  6  2  0
  6  7  1  0
  7  8  1  0
  8  9  2  0
  9 10  1  0
  8 11  1  0
 11 12  1  0
 11 13  1  0
 11 14  1  0
 14 15  1  0
 14 16  1  0
 14 17  1  0
 17 18  2  0
 17 19  1  0
  2 20  1  0
 20 21  1  0
 20 22  1  0
 20 23  1  0
 23 24  2  0
 23 25  1  0
 25 26  1  0
 26 27  1  0
 26 28  1  0
 26 29  1  0
 29 30  2  0
 29 31  1  0
 31 32  1  0
 32 33  1  0
 32 34  1  0
 32 35  1  0
 35 36  1  0
 35 37  1  0
 35 38  1  0
 38 39  1  0
 38 40  1  0
 40 41  1  0
 40 42  1  0
 40 43  1  0
 43 44  2  0
 44 45  1  0
 44 46  1  0
 46 47  1  0
 46 48  2  0
 48 49  1  0
 48 50  1  0
 50 51  1  0
 50 52  2  0
 52 53  1  0
 38 54  1  0
 54 55  1  0
 54 56  1  0
 54 57  1  0
 57 58  1  0
 57 59  1  0
  9  3  1  0
 57 31  1  0
 19  7  2  0
 52 43  1  0
M  END
>  <UniqueID>  (78) 
77

>  <SMILES>  (78) 
O=C1CCc2c/c(=C/CC(=O)OCC(=O)N3CCC(Cc4ccccc4)CC3)cnc2=N1

>  <Energy>  (78) 
68.84443971700598

>  <Genealogy>  (78) 
O=C1CCc2c/c(=C/CC(=O)OCC(=O)N3CCC(Cc4ccccc4)CC3)cnc2=N1 (cis-trans isomerization)
O=C1CCc2c/c(=C/CC(=O)OCC(=O)N3CCC(Cc4ccccc4)CC3)cnc2=N1 (3D coordinates assigned)
O=C1CCc2c/c(=C/CC(=O)OCC(=O)N3CCC(Cc4ccccc4)CC3)cnc2=N1 (nonaromatic ring conformer: 68.84443971700598 kcal/mol)

>  <smiles>  (78) 
O=C1CCc2cc(=CCC(=O)OCC(=O)N3CCC(Cc4ccccc4)CC3)cnc2=N1

>  <score_type>  (78) 
oracle

>  <origin>  (78) 
adg

>  <m_score__min__energy>  (78) 
-10.300000000000001

>  <m_primary>  (78) 
energy

$$$$
78:0
     RDKit          3D

 49 51  0  0  0  0  0  0  0  0999 V2000
   58.6970   31.2120   47.6430 C   0  0  0  0  0  0  0  0  0  0  0  0
   58.8030   32.5460   46.9370 C   0  0  0  0  0  0  0  0  0  0  0  0
   58.0630   32.7690   45.7500 C   0  0  0  0  0  0  0  0  0  0  0  0
   57.2350   31.7210   45.2180 N   0  0  0  0  0  0  0  0  0  0  0  0
   57.2870   31.1830   43.8910 C   0  0  0  0  0  0  0  0  0  0  0  0
   57.7620   31.8620   42.9420 O   0  0  0  0  0  0  0  0  0  0  0  0
   56.7240   29.8440   43.6470 C   0  0  0  0  0  0  0  0  0  0  0  0
   56.2560   29.0700   44.6360 C   0  0  0  0  0  0  0  0  0  0  0  0
   57.0990   28.0660   45.3270 C   0  0  0  0  0  0  0  0  0  0  0  0
   58.4970   28.2340   45.3790 C   0  0  0  0  0  0  0  0  0  0  0  0
   59.2980   27.3250   46.0740 C   0  0  0  0  0  0  0  0  0  0  0  0
   58.7170   26.2420   46.7330 C   0  0  0  0  0  0  0  0  0  0  0  0
   57.3330   26.0590   46.6950 C   0  0  0  0  0  0  0  0  0  0  0  0
   56.7680   24.9730   47.3530 O   0  0  0  0  0  0  0  0  0  0  0  0
   56.5160   26.9580   45.9930 C   0  0  0  0  0  0  0  0  0  0  0  0
   55.1410   26.7130   45.9610 O   0  0  0  0  0  0  0  0  0  0  0  0
   58.2010   33.9880   45.0650 C   0  0  0  0  0  0  0  0  0  0  0  0
   59.0420   34.9830   45.5540 C   0  0  0  0  0  0  0  0  0  0  0  0
   59.7760   34.7720   46.7160 C   0  0  0  0  0  0  0  0  0  0  0  0
   59.6810   33.5560   47.4110 C   0  0  0  0  0  0  0  0  0  0  0  0
   60.6910   33.3280   48.8530 S   0  0  0  0  0  0  0  0  0  0  0  0
   59.8230   32.8110   49.9660 O   0  0  0  0  0  0  0  0  0  0  0  0
   61.2750   34.6450   49.2860 O   0  0  0  0  0  0  0  0  0  0  0  0
   61.9780   32.1850   48.5280 N   0  0  0  0  0  0  0  0  0  0  0  0
   62.3770   32.1980   47.1090 C   0  0  0  0  0  0  0  0  0  0  0  0
   63.2240   33.4400   46.7440 C   0  0  0  0  0  0  0  0  0  0  0  0
   63.7840   34.0970   47.8680 O   0  0  0  0  0  0  0  0  0  0  0  0
   64.2870   33.1510   48.7840 C   0  0  0  0  0  0  0  0  0  0  0  0
   63.1290   32.3750   49.4390 C   0  0  0  0  0  0  0  0  0  0  0  0
   58.7096   31.3711   48.7314 H   0  0  0  0  0  0  0  0  0  0  0  0
   57.7568   30.7187   47.3555 H   0  0  0  0  0  0  0  0  0  0  0  0
   59.5475   30.5764   47.3555 H   0  0  0  0  0  0  0  0  0  0  0  0
   56.6863   29.4653   42.6149 H   0  0  0  0  0  0  0  0  0  0  0  0
   55.2069   29.1843   44.9464 H   0  0  0  0  0  0  0  0  0  0  0  0
   58.9621   29.0894   44.8672 H   0  0  0  0  0  0  0  0  0  0  0  0
   60.3889   27.4636   46.1016 H   0  0  0  0  0  0  0  0  0  0  0  0
   59.3499   25.5306   47.2837 H   0  0  0  0  0  0  0  0  0  0  0  0
   54.7110   25.8960   46.3730 H   0  0  0  0  0  0  0  0  0  0  0  0
   57.6395   34.1572   44.1344 H   0  0  0  0  0  0  0  0  0  0  0  0
   59.1265   35.9405   45.0191 H   0  0  0  0  0  0  0  0  0  0  0  0
   60.4374   35.5654   47.0942 H   0  0  0  0  0  0  0  0  0  0  0  0
   62.9680   31.2940   46.9003 H   0  0  0  0  0  0  0  0  0  0  0  0
   61.4591   32.2293   46.5036 H   0  0  0  0  0  0  0  0  0  0  0  0
   64.0441   33.1197   46.0845 H   0  0  0  0  0  0  0  0  0  0  0  0
   62.5488   34.1577   46.2551 H   0  0  0  0  0  0  0  0  0  0  0  0
   64.9430   32.4451   48.2535 H   0  0  0  0  0  0  0  0  0  0  0  0
   64.8542   33.6763   49.5665 H   0  0  0  0  0  0  0  0  0  0  0  0
   63.4991   31.3865   49.7485 H   0  0  0  0  0  0  0  0  0  0  0  0
   62.7778   32.9664   50.2974 H   0  0  0  0  0  0  0  0  0  0  0  0
  1  2  1  0
  2  3  2  0
  3  4  1  0
  4  5  1  0
  5  6  2  0
  5  7  1  0
  7  8  2  3
  8  9  1  0
  9 10  2  0
 10 11  1  0
 11 12  2  0
 12 13  1  0
 13 14  1  0
 13 15  2  0
 15 16  1  0
  3 17  1  0
 17 18  2  0
 18 19  1  0
 19 20  2  0
 20 21  1  0
 21 22  2  0
 21 23  2  0
 21 24  1  0
 24 25  1  0
 25 26  1  0
 26 27  1  0
 27 28  1  0
 28 29  1  0
 20  2  1  0
 29 24  1  0
 15  9  1  0
  1 30  1  0
  1 31  1  0
  1 32  1  0
  7 33  1  0
  8 34  1  0
 10 35  1  0
 11 36  1  0
 12 37  1  0
 16 38  1  0
 17 39  1  0
 18 40  1  0
 19 41  1  0
 25 42  1  0
 25 43  1  0
 26 44  1  0
 26 45  1  0
 28 46  1  0
 28 47  1  0
 29 48  1  0
 29 49  1  0
M  CHG  2   4  -1  14  -1
M  END
>  <UniqueID>  (79) 
78

>  <SMILES>  (79) 
Cc1c([N-]C(=O)C=Cc2cccc([O-])c2O)cccc1S(=O)(=O)N1CCOCC1

>  <Energy>  (79) 
71.75927873809727

>  <Genealogy>  (79) 
Cc1c([N-]C(=O)C=Cc2cccc([O-])c2O)cccc1S(=O)(=O)N1CCOCC1 (protonated)
Cc1c([N-]C(=O)C=Cc2cccc([O-])c2O)cccc1S(=O)(=O)N1CCOCC1 (3D coordinates assigned)
Cc1c([N-]C(=O)C=Cc2cccc([O-])c2O)cccc1S(=O)(=O)N1CCOCC1 (nonaromatic ring conformer: 71.75927873809727 kcal/mol)

>  <smiles>  (79) 
Cc1c(NC(=O)C=Cc2cccc(O)c2O)cccc1S(=O)(=O)N1CCOCC1

>  <score_type>  (79) 
oracle

>  <origin>  (79) 
adg

>  <m_score__min__energy>  (79) 
-15.119999999999999

>  <m_primary>  (79) 
energy

$$$$
79:0
     RDKit          3D

 86 91  0  0  0  0  0  0  0  0999 V2000
   55.5840   22.5950   42.3800 H   0  0  0  0  0  0  0  0  0  0  0  0
   55.8460   22.3210   43.3490 N   0  0  0  0  0  0  0  0  0  0  0  0
   56.9430   22.6400   43.9670 C   0  0  0  0  0  0  0  0  0  0  0  0
   58.0100   21.8040   43.8330 N   0  0  0  0  0  0  0  0  0  0  0  0
   59.1990   22.0270   44.4490 C   0  0  0  0  0  0  0  0  0  0  0  0
   60.0300   21.3198   44.3101 H   0  0  0  0  0  0  0  0  0  0  0  0
   59.3690   23.1470   45.2550 C   0  0  0  0  0  0  0  0  0  0  0  0
   60.3316   23.3289   45.7553 H   0  0  0  0  0  0  0  0  0  0  0  0
   58.3050   24.0420   45.4250 C   0  0  0  0  0  0  0  0  0  0  0  0
   58.4660   25.1580   46.2560 C   0  0  0  0  0  0  0  0  0  0  0  0
   59.4355   25.3369   46.7440 H   0  0  0  0  0  0  0  0  0  0  0  0
   57.4070   26.0490   46.4730 C   0  0  0  0  0  0  0  0  0  0  0  0
   57.5780   27.1780   47.4690 C   0  0  0  0  0  0  0  0  0  0  0  0
   56.9301   28.0140   47.1668 H   0  0  0  0  0  0  0  0  0  0  0  0
   57.3060   26.7878   48.4609 H   0  0  0  0  0  0  0  0  0  0  0  0
   59.0340   27.6880   47.5540 C   0  0  1  0  0  0  0  0  0  0  0  0
   59.6667   26.8477   47.8757 H   0  0  0  0  0  0  0  0  0  0  0  0
   59.5330   28.1430   46.2070 C   0  0  0  0  0  0  0  0  0  0  0  0
   60.1980   27.3470   45.4910 O   0  0  0  0  0  0  0  0  0  0  0  0
   59.1670   29.4340   45.6970 N   0  0  0  0  0  0  0  0  0  0  0  0
   58.1900   29.6660   44.6780 C   0  0  0  0  0  0  0  0  0  0  0  0
   57.8420   28.5990   43.8370 C   0  0  0  0  0  0  0  0  0  0  0  0
   58.2947   27.6089   43.9942 H   0  0  0  0  0  0  0  0  0  0  0  0
   56.9240   28.7860   42.8010 C   0  0  0  0  0  0  0  0  0  0  0  0
   56.6645   27.9471   42.1385 H   0  0  0  0  0  0  0  0  0  0  0  0
   56.3360   30.0360   42.6060 C   0  0  0  0  0  0  0  0  0  0  0  0
   55.6246   30.1853   41.7804 H   0  0  0  0  0  0  0  0  0  0  0  0
   56.6490   31.0980   43.4570 C   0  0  0  0  0  0  0  0  0  0  0  0
   56.1769   32.0791   43.3004 H   0  0  0  0  0  0  0  0  0  0  0  0
   57.5610   30.9250   44.5110 C   0  0  0  0  0  0  0  0  0  0  0  0
   57.7830   32.0060   45.4360 N   0  0  0  0  0  0  0  0  0  0  0  0
   57.5940   33.4000   44.9980 C   0  0  0  0  0  0  0  0  0  0  0  0
   57.7000   33.4544   43.9045 H   0  0  0  0  0  0  0  0  0  0  0  0
   56.5899   33.7360   45.2963 H   0  0  0  0  0  0  0  0  0  0  0  0
   58.6390   34.3090   45.6530 C   0  0  0  0  0  0  0  0  0  0  0  0
   59.6369   34.0146   45.2961 H   0  0  0  0  0  0  0  0  0  0  0  0
   58.4021   35.3468   45.3758 H   0  0  0  0  0  0  0  0  0  0  0  0
   58.6160   34.2160   47.1930 C   0  0  0  0  0  0  0  0  0  0  0  0
   59.6448   34.3386   47.5626 H   0  0  0  0  0  0  0  0  0  0  0  0
   57.9412   35.0078   47.5503 H   0  0  0  0  0  0  0  0  0  0  0  0
   58.0630   32.8810   47.7310 C   0  0  0  0  0  0  0  0  0  0  0  0
   58.5403   32.6624   48.6976 H   0  0  0  0  0  0  0  0  0  0  0  0
   56.9732   32.9834   47.8402 H   0  0  0  0  0  0  0  0  0  0  0  0
   58.3360   31.7190   46.7700 C   0  0  0  0  0  0  0  0  0  0  0  0
   59.4223   31.5678   46.6857 H   0  0  0  0  0  0  0  0  0  0  0  0
   57.8540   30.8126   47.1651 H   0  0  0  0  0  0  0  0  0  0  0  0
   59.1590   28.7570   48.5560 N   0  0  0  0  0  0  0  0  0  0  0  0
   58.4010   28.8830   49.2650 H   0  0  0  0  0  0  0  0  0  0  0  0
   60.3220   29.5960   48.6430 C   0  0  0  0  0  0  0  0  0  0  0  0
   61.1200   29.6630   47.6650 O   0  0  0  0  0  0  0  0  0  0  0  0
   60.5930   30.4010   49.8600 C   0  0  0  0  0  0  0  0  0  0  0  0
   59.5410   30.8700   50.6690 C   0  0  0  0  0  0  0  0  0  0  0  0
   58.4986   30.6685   50.3811 H   0  0  0  0  0  0  0  0  0  0  0  0
   59.8120   31.5890   51.8340 C   0  0  0  0  0  0  0  0  0  0  0  0
   58.9825   31.9425   52.4641 H   0  0  0  0  0  0  0  0  0  0  0  0
   61.1300   31.8620   52.2040 C   0  0  0  0  0  0  0  0  0  0  0  0
   61.3355   32.4296   53.1236 H   0  0  0  0  0  0  0  0  0  0  0  0
   62.1980   31.4120   51.4020 C   0  0  0  0  0  0  0  0  0  0  0  0
   63.5440   31.6590   51.7210 O   0  0  0  0  0  0  0  0  0  0  0  0
   64.4140   32.5480   51.0210 C   0  0  0  0  0  0  0  0  0  0  0  0
   65.2287   32.8594   51.6913 H   0  0  0  0  0  0  0  0  0  0  0  0
   64.8230   32.0268   50.1429 H   0  0  0  0  0  0  0  0  0  0  0  0
   63.6430   33.7970   50.5450 C   0  0  0  0  0  0  0  0  0  0  0  0
   62.7007   33.8540   51.1097 H   0  0  0  0  0  0  0  0  0  0  0  0
   64.3056   34.6572   50.7212 H   0  0  0  0  0  0  0  0  0  0  0  0
   63.3170   33.8090   49.1020 N   0  0  0  0  0  0  0  0  0  0  0  0
   63.9210   32.7060   48.3350 C   0  0  0  0  0  0  0  0  0  0  0  0
   64.9973   32.6525   48.5555 H   0  0  0  0  0  0  0  0  0  0  0  0
   63.4410   31.7574   48.6175 H   0  0  0  0  0  0  0  0  0  0  0  0
   63.7170   32.9560   46.8260 C   0  0  0  0  0  0  0  0  0  0  0  0
   64.6805   33.2507   46.3846 H   0  0  0  0  0  0  0  0  0  0  0  0
   63.3350   32.0243   46.3833 H   0  0  0  0  0  0  0  0  0  0  0  0
   62.7660   33.9770   46.5640 O   0  0  0  0  0  0  0  0  0  0  0  0
   61.5920   33.7560   47.3190 C   0  0  0  0  0  0  0  0  0  0  0  0
   60.8215   34.4772   47.0088 H   0  0  0  0  0  0  0  0  0  0  0  0
   61.2443   32.7277   47.1411 H   0  0  0  0  0  0  0  0  0  0  0  0
   61.8740   33.9320   48.8250 C   0  0  0  0  0  0  0  0  0  0  0  0
   61.5285   34.9266   49.1434 H   0  0  0  0  0  0  0  0  0  0  0  0
   61.3389   33.1470   49.3795 H   0  0  0  0  0  0  0  0  0  0  0  0
   61.9180   30.6800   50.2410 C   0  0  0  0  0  0  0  0  0  0  0  0
   62.7480   30.3173   49.6169 H   0  0  0  0  0  0  0  0  0  0  0  0
   56.1850   25.8390   45.8090 C   0  0  0  0  0  0  0  0  0  0  0  0
   55.1230   26.7200   45.9840 O   0  0  0  0  0  0  0  0  0  0  0  0
   56.0160   24.7330   44.9720 C   0  0  0  0  0  0  0  0  0  0  0  0
   55.0550   24.5823   44.4584 H   0  0  0  0  0  0  0  0  0  0  0  0
   57.0650   23.8050   44.7770 C   0  0  0  0  0  0  0  0  0  0  0  0
  1  2  1  0
  2  3  2  0
  3  4  1  0
  4  5  1  0
  5  6  1  0
  5  7  2  0
  7  8  1  0
  7  9  1  0
  9 10  2  0
 10 11  1  0
 10 12  1  0
 12 13  1  0
 13 14  1  0
 13 15  1  0
 13 16  1  0
 16 17  1  1
 16 18  1  0
 18 19  2  0
 18 20  1  0
 20 21  1  0
 21 22  2  0
 22 23  1  0
 22 24  1  0
 24 25  1  0
 24 26  2  0
 26 27  1  0
 26 28  1  0
 28 29  1  0
 28 30  2  0
 30 31  1  0
 31 32  1  0
 32 33  1  0
 32 34  1  0
 32 35  1  0
 35 36  1  0
 35 37  1  0
 35 38  1  0
 38 39  1  0
 38 40  1  0
 38 41  1  0
 41 42  1  0
 41 43  1  0
 41 44  1  0
 44 45  1  0
 44 46  1  0
 16 47  1  0
 47 48  1  0
 47 49  1  0
 49 50  2  0
 49 51  1  0
 51 52  2  0
 52 53  1  0
 52 54  1  0
 54 55  1  0
 54 56  2  0
 56 57  1  0
 56 58  1  0
 58 59  1  0
 59 60  1  0
 60 61  1  0
 60 62  1  0
 60 63  1  0
 63 64  1  0
 63 65  1  0
 63 66  1  0
 66 67  1  0
 67 68  1  0
 67 69  1  0
 67 70  1  0
 70 71  1  0
 70 72  1  0
 70 73  1  0
 73 74  1  0
 74 75  1  0
 74 76  1  0
 74 77  1  0
 77 78  1  0
 77 79  1  0
 58 80  2  0
 80 81  1  0
 12 82  2  0
 82 83  1  0
 82 84  1  0
 84 85  1  0
 84 86  2  0
 86  3  1  0
 86  9  1  0
 30 21  1  0
 44 31  1  0
 80 51  1  0
 77 66  1  0
M  CHG  3   4  -1  20  -1  83  -1
M  END
>  <UniqueID>  (80) 
79

>  <SMILES>  (80) 
[H]/N=c1/[n-]ccc2cc(C[C@H](NC(=O)c3cccc(OCCN4CCOCC4)c3)C(=O)[N-]c3ccccc3N3CCCCC3)c([O-])cc12

>  <Energy>  (80) 
119.87778653699058

>  <Genealogy>  (80) 
N=c1[n-]ccc2cc(CC(NC(=O)c3cccc(OCCN4CCOCC4)c3)C(=O)[N-]c3ccccc3N3CCCCC3)c([O-])cc12 (protonated)
N=c1[n-]ccc2cc(C[C@H](NC(=O)c3cccc(OCCN4CCOCC4)c3)C(=O)[N-]c3ccccc3N3CCCCC3)c([O-])cc12 (chirality)
[H]/N=c1/[n-]ccc2cc(C[C@H](NC(=O)c3cccc(OCCN4CCOCC4)c3)C(=O)[N-]c3ccccc3N3CCCCC3)c([O-])cc12 (cis-trans isomerization)
[H]/N=c1/[n-]ccc2cc(C[C@H](NC(=O)c3cccc(OCCN4CCOCC4)c3)C(=O)[N-]c3ccccc3N3CCCCC3)c([O-])cc12 (3D coordinates assigned)
[H]/N=c1/[n-]ccc2cc(C[C@H](NC(=O)c3cccc(OCCN4CCOCC4)c3)C(=O)[N-]c3ccccc3N3CCCCC3)c([O-])cc12 (nonaromatic ring conformer: 119.87778653699058 kcal/mol)

>  <smiles>  (80) 
N=c1[nH]ccc2cc(CC(NC(=O)c3cccc(OCCN4CCOCC4)c3)C(=O)Nc3ccccc3N3CCCCC3)c(O)cc12

>  <score_type>  (80) 
oracle

>  <origin>  (80) 
adg

>  <m_score__min__energy>  (80) 
-16.899999999999999

>  <m_primary>  (80) 
energy

$$$$
80:0
     RDKit          3D

 45 47  0  0  0  0  0  0  0  0999 V2000
   59.9950   29.7850   45.6510 C   0  0  0  0  0  0  0  0  0  0  0  0
   59.0210   28.8900   45.8710 C   0  0  0  0  0  0  0  0  0  0  0  0
   57.7150   28.9520   45.3830 C   0  0  0  0  0  0  0  0  0  0  0  0
   57.0960   30.0280   44.5810 C   0  0  0  0  0  0  0  0  0  0  0  0
   55.8430   30.1530   44.5630 O   0  0  0  0  0  0  0  0  0  0  0  0
   57.9160   30.9380   43.8410 N   0  0  0  0  0  0  0  0  0  0  0  0
   57.6460   32.3670   43.7400 C   0  0  0  0  0  0  0  0  0  0  0  0
   57.8960   33.0310   45.0570 C   0  0  0  0  0  0  0  0  0  0  0  0
   58.6080   34.1970   45.2530 C   0  0  0  0  0  0  0  0  0  0  0  0
   58.5550   34.4380   46.6090 C   0  0  0  0  0  0  0  0  0  0  0  0
   57.8120   33.4090   47.1530 C   0  0  0  0  0  0  0  0  0  0  0  0
   57.4320   32.5870   46.2020 O   0  0  0  0  0  0  0  0  0  0  0  0
   57.0900   27.7930   45.8210 C   0  0  0  0  0  0  0  0  0  0  0  0
   55.7560   27.4480   45.5990 O   0  0  0  0  0  0  0  0  0  0  0  0
   57.9380   27.0290   46.5400 N   0  0  0  0  0  0  0  0  0  0  0  0
   57.5860   25.7650   47.2010 C   0  0  0  0  0  0  0  0  0  0  0  0
   57.1420   24.7420   46.1870 C   0  0  0  0  0  0  0  0  0  0  0  0
   58.0850   24.0230   45.4370 C   0  0  0  0  0  0  0  0  0  0  0  0
   57.6670   23.0700   44.5040 C   0  0  0  0  0  0  0  0  0  0  0  0
   56.3040   22.8210   44.3020 C   0  0  0  0  0  0  0  0  0  0  0  0
   55.9370   21.8530   43.3560 O   0  0  0  0  0  0  0  0  0  0  0  0
   56.7940   20.8110   42.8980 C   0  0  0  0  0  0  0  0  0  0  0  0
   55.3570   23.5460   45.0490 C   0  0  0  0  0  0  0  0  0  0  0  0
   55.7750   24.4990   45.9820 C   0  0  0  0  0  0  0  0  0  0  0  0
   59.1220   27.6920   46.5880 C   0  0  0  0  0  0  0  0  0  0  0  0
   60.2120   27.2410   47.2290 C   0  0  0  0  0  0  0  0  0  0  0  0
   60.9921   29.6316   46.0894 H   0  0  0  0  0  0  0  0  0  0  0  0
   59.7968   30.6726   45.0322 H   0  0  0  0  0  0  0  0  0  0  0  0
   58.3054   32.8091   42.9785 H   0  0  0  0  0  0  0  0  0  0  0  0
   56.5939   32.5157   43.4554 H   0  0  0  0  0  0  0  0  0  0  0  0
   59.1118   34.8059   44.4879 H   0  0  0  0  0  0  0  0  0  0  0  0
   59.0123   35.2802   47.1490 H   0  0  0  0  0  0  0  0  0  0  0  0
   57.5745   33.2951   48.2210 H   0  0  0  0  0  0  0  0  0  0  0  0
   55.1430   28.0050   45.0190 H   0  0  0  0  0  0  0  0  0  0  0  0
   58.4650   25.3819   47.7401 H   0  0  0  0  0  0  0  0  0  0  0  0
   56.7599   25.9500   47.9033 H   0  0  0  0  0  0  0  0  0  0  0  0
   59.1589   24.2104   45.5841 H   0  0  0  0  0  0  0  0  0  0  0  0
   58.4153   22.5107   43.9233 H   0  0  0  0  0  0  0  0  0  0  0  0
   57.2263   20.2854   43.7622 H   0  0  0  0  0  0  0  0  0  0  0  0
   56.2150   20.1011   42.2891 H   0  0  0  0  0  0  0  0  0  0  0  0
   57.6023   21.2421   42.2891 H   0  0  0  0  0  0  0  0  0  0  0  0
   54.2831   23.3618   44.8979 H   0  0  0  0  0  0  0  0  0  0  0  0
   55.0274   25.0625   46.5596 H   0  0  0  0  0  0  0  0  0  0  0  0
   61.1379   27.8348   47.2242 H   0  0  0  0  0  0  0  0  0  0  0  0
   60.1791   26.2777   47.7590 H   0  0  0  0  0  0  0  0  0  0  0  0
  1  2  2  0
  2  3  1  0
  3  4  1  0
  4  5  2  0
  4  6  1  0
  6  7  1  0
  7  8  1  0
  8  9  2  0
  9 10  1  0
 10 11  2  0
 11 12  1  0
  3 13  2  0
 13 14  1  0
 13 15  1  0
 15 16  1  0
 16 17  1  0
 17 18  2  0
 18 19  1  0
 19 20  2  0
 20 21  1  0
 21 22  1  0
 20 23  1  0
 23 24  2  0
 15 25  1  0
 25 26  2  0
 25  2  1  0
 12  8  1  0
 24 17  1  0
  1 27  1  0
  1 28  1  0
  7 29  1  0
  7 30  1  0
  9 31  1  0
 10 32  1  0
 11 33  1  0
 14 34  1  0
 16 35  1  0
 16 36  1  0
 18 37  1  0
 19 38  1  0
 22 39  1  0
 22 40  1  0
 22 41  1  0
 23 42  1  0
 24 43  1  0
 26 44  1  0
 26 45  1  0
M  CHG  1   6  -1
M  END
>  <UniqueID>  (81) 
80

>  <SMILES>  (81) 
C=c1c(C(=O)[N-]Cc2ccco2)c(O)n(Cc2ccc(OC)cc2)c1=C

>  <Energy>  (81) 
103.05587405490733

>  <Genealogy>  (81) 
C=c1c(C(=O)[N-]Cc2ccco2)c(O)n(Cc2ccc(OC)cc2)c1=C (protonated)
C=c1c(C(=O)[N-]Cc2ccco2)c(O)n(Cc2ccc(OC)cc2)c1=C (3D coordinates assigned)
C=c1c(C(=O)[N-]Cc2ccco2)c(O)n(Cc2ccc(OC)cc2)c1=C (optimized conformer: 103.05587405490733 kcal/mol)

>  <smiles>  (81) 
C=c1c(C(=O)NCc2ccco2)c(O)n(Cc2ccc(OC)cc2)c1=C

>  <score_type>  (81) 
oracle

>  <origin>  (81) 
adg

>  <m_score__min__energy>  (81) 
-10.91

>  <m_primary>  (81) 
energy

$$$$
81:0
     RDKit          3D

 31 33  0  0  0  0  0  0  0  0999 V2000
   60.2963   30.7055   47.1994 H   0  0  0  0  0  0  0  0  0  0  0  0
   59.8420   30.0340   46.4560 C   0  0  0  0  0  0  0  0  0  0  0  0
   60.1837   28.9916   46.3750 H   0  0  0  0  0  0  0  0  0  0  0  0
   58.8590   30.4920   45.6380 C   0  0  0  0  0  0  0  0  0  0  0  0
   58.2450   29.6370   44.6550 C   0  0  0  0  0  0  0  0  0  0  0  0
   58.4570   28.2880   44.6420 C   0  0  0  0  0  0  0  0  0  0  0  0
   59.3497   27.9291   44.1089 H   0  0  0  0  0  0  0  0  0  0  0  0
   57.6010   27.2660   45.2760 C   0  0  0  0  0  0  0  0  0  0  0  0
   58.1370   25.8220   45.9690 S   0  0  0  0  0  0  0  0  0  0  0  0
   56.6230   25.4590   46.6030 C   0  0  0  0  0  0  0  0  0  0  0  0
   56.2860   24.1180   47.4710 S   0  0  0  0  0  0  0  0  0  0  0  0
   55.7140   26.4220   46.3410 N   0  0  0  0  0  0  0  0  0  0  0  0
   56.2630   27.4330   45.6180 C   0  0  0  0  0  0  0  0  0  0  0  0
   55.5240   28.5540   45.2570 O   0  0  0  0  0  0  0  0  0  0  0  0
   57.3410   30.2490   43.7460 C   0  0  0  0  0  0  0  0  0  0  0  0
   56.7050   29.5810   42.8890 O   0  0  0  0  0  0  0  0  0  0  0  0
   57.0890   31.5720   43.8240 N   0  0  0  0  0  0  0  0  0  0  0  0
   57.6400   32.3570   44.7710 C   0  0  0  0  0  0  0  0  0  0  0  0
   57.3360   33.5820   44.7950 O   0  0  0  0  0  0  0  0  0  0  0  0
   58.5000   31.8290   45.6930 N   0  0  0  0  0  0  0  0  0  0  0  0
   59.0170   32.7190   46.7070 C   0  0  0  0  0  0  0  0  0  0  0  0
   59.8160   33.8140   46.3420 C   0  0  0  0  0  0  0  0  0  0  0  0
   60.0492   33.9943   45.2822 H   0  0  0  0  0  0  0  0  0  0  0  0
   60.3160   34.6760   47.3230 C   0  0  0  0  0  0  0  0  0  0  0  0
   60.9395   35.5349   47.0339 H   0  0  0  0  0  0  0  0  0  0  0  0
   60.0240   34.4470   48.6710 C   0  0  0  0  0  0  0  0  0  0  0  0
   60.4183   35.1255   49.4418 H   0  0  0  0  0  0  0  0  0  0  0  0
   59.2310   33.3560   49.0400 C   0  0  0  0  0  0  0  0  0  0  0  0
   59.0027   33.1766   50.1010 H   0  0  0  0  0  0  0  0  0  0  0  0
   58.7280   32.4930   48.0620 C   0  0  0  0  0  0  0  0  0  0  0  0
   58.1046   31.6353   48.3547 H   0  0  0  0  0  0  0  0  0  0  0  0
  1  2  1  0
  2  3  1  0
  2  4  2  0
  4  5  1  0
  5  6  2  0
  6  7  1  0
  6  8  1  0
  8  9  1  0
  9 10  1  0
 10 11  2  0
 10 12  1  0
 12 13  1  0
 13 14  1  0
  5 15  1  0
 15 16  2  0
 15 17  1  0
 17 18  1  0
 18 19  2  0
 18 20  1  0
 20 21  1  0
 21 22  2  0
 22 23  1  0
 22 24  1  0
 24 25  1  0
 24 26  2  0
 26 27  1  0
 26 28  1  0
 28 29  1  0
 28 30  2  0
 30 31  1  0
 20  4  1  0
 30 21  1  0
 13  8  2  0
M  CHG  3  12  -1  14  -1  17  -1
M  END
>  <UniqueID>  (82) 
81

>  <SMILES>  (82) 
C=c1/c(=C/c2sc(=S)[n-]c2[O-])c(=O)[n-]c(=O)n1-c1ccccc1

>  <Energy>  (82) 
101.3972774952183

>  <Genealogy>  (82) 
C=c1c(=Cc2sc(=S)[n-]c2[O-])c(=O)[n-]c(=O)n1-c1ccccc1 (protonated)
C=c1/c(=C/c2sc(=S)[n-]c2[O-])c(=O)[n-]c(=O)n1-c1ccccc1 (cis-trans isomerization)
C=c1/c(=C/c2sc(=S)[n-]c2[O-])c(=O)[n-]c(=O)n1-c1ccccc1 (3D coordinates assigned)
C=c1/c(=C/c2sc(=S)[n-]c2[O-])c(=O)[n-]c(=O)n1-c1ccccc1 (optimized conformer: 101.3972774952183 kcal/mol)

>  <smiles>  (82) 
C=c1c(=Cc2sc(=S)[nH]c2O)c(=O)[nH]c(=O)n1-c1ccccc1

>  <score_type>  (82) 
oracle

>  <origin>  (82) 
adg

>  <m_score__min__energy>  (82) 
-14.75

>  <m_primary>  (82) 
energy

$$$$
82:0
     RDKit          3D

 49 51  0  0  0  0  0  0  0  0999 V2000
   67.0090   33.2160   50.4790 C   0  0  0  0  0  0  0  0  0  0  0  0
   66.0600   32.1550   50.4890 O   0  0  0  0  0  0  0  0  0  0  0  0
   64.7940   32.2140   49.8830 C   0  0  0  0  0  0  0  0  0  0  0  0
   64.5110   33.1040   48.8300 C   0  0  0  0  0  0  0  0  0  0  0  0
   63.2430   33.1320   48.2480 C   0  0  0  0  0  0  0  0  0  0  0  0
   62.2370   32.2620   48.6970 C   0  0  0  0  0  0  0  0  0  0  0  0
   60.9140   32.2900   48.1310 N   0  0  0  0  0  0  0  0  0  0  0  0
   60.3970   31.2780   47.2490 C   0  0  0  0  0  0  0  0  0  0  0  0
   60.9070   30.1240   47.2520 O   0  0  0  0  0  0  0  0  0  0  0  0
   59.2310   31.5600   46.3780 C   0  0  0  0  0  0  0  0  0  0  0  0
   58.8490   32.8850   46.1110 C   0  0  0  0  0  0  0  0  0  0  0  0
   57.7620   33.1590   45.2700 C   0  0  0  0  0  0  0  0  0  0  0  0
   57.3440   34.5780   45.0160 C   0  0  0  0  0  0  0  0  0  0  0  0
   57.0300   32.1000   44.7150 C   0  0  0  0  0  0  0  0  0  0  0  0
   57.3910   30.7670   44.9750 C   0  0  0  0  0  0  0  0  0  0  0  0
   56.6220   29.6490   44.3650 C   0  0  0  0  0  0  0  0  0  0  0  0
   56.4220   29.6320   43.1210 O   0  0  0  0  0  0  0  0  0  0  0  0
   56.0190   28.6260   45.1710 N   0  0  0  0  0  0  0  0  0  0  0  0
   56.5740   27.5470   45.6540 C   0  0  0  0  0  0  0  0  0  0  0  0
   57.9260   27.5480   45.8140 N   0  0  0  0  0  0  0  0  0  0  0  0
   58.6090   26.4700   46.2830 C   0  0  0  0  0  0  0  0  0  0  0  0
   57.9250   25.3060   46.6240 C   0  0  0  0  0  0  0  0  0  0  0  0
   56.5380   25.2690   46.4980 C   0  0  0  0  0  0  0  0  0  0  0  0
   55.8440   26.3890   46.0290 C   0  0  0  0  0  0  0  0  0  0  0  0
   54.4560   26.3340   45.9820 O   0  0  0  0  0  0  0  0  0  0  0  0
   58.4840   30.5080   45.8210 C   0  0  0  0  0  0  0  0  0  0  0  0
   62.5110   31.3900   49.7600 C   0  0  0  0  0  0  0  0  0  0  0  0
   63.7880   31.3560   50.3530 C   0  0  0  0  0  0  0  0  0  0  0  0
   64.0960   30.4860   51.4110 O   0  0  0  0  0  0  0  0  0  0  0  0
   63.3360   29.3310   51.7530 C   0  0  0  0  0  0  0  0  0  0  0  0
   67.2583   33.4947   51.5135 H   0  0  0  0  0  0  0  0  0  0  0  0
   67.9204   32.8878   49.9579 H   0  0  0  0  0  0  0  0  0  0  0  0
   66.5816   34.0853   49.9579 H   0  0  0  0  0  0  0  0  0  0  0  0
   65.2952   33.7825   48.4631 H   0  0  0  0  0  0  0  0  0  0  0  0
   63.0307   33.8396   47.4330 H   0  0  0  0  0  0  0  0  0  0  0  0
   60.2560   33.0310   48.4650 H   0  0  0  0  0  0  0  0  0  0  0  0
   59.4084   33.7155   46.5664 H   0  0  0  0  0  0  0  0  0  0  0  0
   57.1923   35.0930   45.9761 H   0  0  0  0  0  0  0  0  0  0  0  0
   58.1282   35.0943   44.4429 H   0  0  0  0  0  0  0  0  0  0  0  0
   56.4051   34.5867   44.4429 H   0  0  0  0  0  0  0  0  0  0  0  0
   56.1651   32.3145   44.0701 H   0  0  0  0  0  0  0  0  0  0  0  0
   59.7024   26.5174   46.3931 H   0  0  0  0  0  0  0  0  0  0  0  0
   58.4738   24.4253   46.9889 H   0  0  0  0  0  0  0  0  0  0  0  0
   55.9870   24.3561   46.7682 H   0  0  0  0  0  0  0  0  0  0  0  0
   58.7581   29.4676   46.0500 H   0  0  0  0  0  0  0  0  0  0  0  0
   61.7195   30.7247   50.1352 H   0  0  0  0  0  0  0  0  0  0  0  0
   63.2772   29.2417   52.8478 H   0  0  0  0  0  0  0  0  0  0  0  0
   62.3216   29.4233   51.3377 H   0  0  0  0  0  0  0  0  0  0  0  0
   63.8222   28.4359   51.3377 H   0  0  0  0  0  0  0  0  0  0  0  0
  1  2  1  0
  2  3  1  0
  3  4  2  0
  4  5  1  0
  5  6  2  0
  6  7  1  0
  7  8  1  0
  8  9  2  0
  8 10  1  0
 10 11  2  0
 11 12  1  0
 12 13  1  0
 12 14  2  0
 14 15  1  0
 15 16  1  0
 16 17  2  0
 16 18  1  0
 18 19  2  3
 19 20  1  0
 20 21  1  0
 21 22  2  0
 22 23  1  0
 23 24  2  0
 24 25  1  0
 15 26  2  0
  6 27  1  0
 27 28  2  0
 28 29  1  0
 29 30  1  0
 28  3  1  0
 26 10  1  0
 24 19  1  0
  1 31  1  0
  1 32  1  0
  1 33  1  0
  4 34  1  0
  5 35  1  0
  7 36  1  0
 11 37  1  0
 13 38  1  0
 13 39  1  0
 13 40  1  0
 14 41  1  0
 21 42  1  0
 22 43  1  0
 23 44  1  0
 26 45  1  0
 27 46  1  0
 30 47  1  0
 30 48  1  0
 30 49  1  0
M  CHG  2  20  -1  25  -1
M  END
>  <UniqueID>  (83) 
82

>  <SMILES>  (83) 
COc1ccc(NC(=O)c2cc(C)cc(C(=O)N=c3[n-]cccc3[O-])c2)cc1OC

>  <Energy>  (83) 
69.35842738839393

>  <Genealogy>  (83) 
COc1ccc(NC(=O)c2cc(C)cc(C(=O)N=c3[n-]cccc3[O-])c2)cc1OC (protonated)
COc1ccc(NC(=O)c2cc(C)cc(C(=O)N=c3[n-]cccc3[O-])c2)cc1OC (3D coordinates assigned)
COc1ccc(NC(=O)c2cc(C)cc(C(=O)N=c3[n-]cccc3[O-])c2)cc1OC (optimized conformer: 69.35842738839393 kcal/mol)

>  <smiles>  (83) 
COc1ccc(NC(=O)c2cc(C)cc(C(=O)N=c3[nH]cccc3O)c2)cc1OC

>  <score_type>  (83) 
oracle

>  <origin>  (83) 
adg

>  <m_score__min__energy>  (83) 
-13.84

>  <m_primary>  (83) 
energy

$$$$
83:0
     RDKit          3D

 36 37  0  0  0  0  0  0  0  0999 V2000
   57.0330   31.2730   42.9910 C   0  0  0  0  0  0  0  0  0  0  0  0
   56.9660   30.1850   44.0140 C   0  0  0  0  0  0  0  0  0  0  0  0
   55.9530   30.1000   44.7590 O   0  0  0  0  0  0  0  0  0  0  0  0
   58.0050   29.1960   44.0740 N   0  0  0  0  0  0  0  0  0  0  0  0
   58.1310   28.2210   45.1220 C   0  0  0  0  0  0  0  0  0  0  0  0
   59.3230   28.0800   45.8550 C   0  0  0  0  0  0  0  0  0  0  0  0
   59.4300   27.0980   46.8430 C   0  0  0  0  0  0  0  0  0  0  0  0
   58.3530   26.2500   47.1100 C   0  0  0  0  0  0  0  0  0  0  0  0
   57.1540   26.3850   46.3940 C   0  0  0  0  0  0  0  0  0  0  0  0
   56.0430   25.5040   46.6150 N   0  0  0  0  0  0  0  0  0  0  0  0
   54.9950   25.1960   45.6860 C   0  0  0  0  0  0  0  0  0  0  0  0
   53.9960   25.9600   45.6250 O   0  0  0  0  0  0  0  0  0  0  0  0
   55.0090   23.9510   44.8470 C   0  0  0  0  0  0  0  0  0  0  0  0
   56.2510   23.8900   44.0740 N   0  0  0  0  0  0  0  0  0  0  0  0
   56.8690   22.2670   43.9930 S   0  0  0  0  0  0  0  0  0  0  0  0
   56.2040   21.5380   42.8590 O   0  0  0  0  0  0  0  0  0  0  0  0
   58.3510   22.2990   43.7430 O   0  0  0  0  0  0  0  0  0  0  0  0
   56.5390   21.4160   45.4910 C   0  0  0  0  0  0  0  0  0  0  0  0
   56.0560   20.1210   45.5930 C   0  0  0  0  0  0  0  0  0  0  0  0
   55.8590   19.7160   46.9180 C   0  0  0  0  0  0  0  0  0  0  0  0
   56.1830   20.6920   47.8530 C   0  0  0  0  0  0  0  0  0  0  0  0
   56.7140   22.0610   47.0310 S   0  0  0  0  0  0  0  0  0  0  0  0
   57.0620   27.3490   45.3820 C   0  0  0  0  0  0  0  0  0  0  0  0
   57.0931   32.2482   43.4963 H   0  0  0  0  0  0  0  0  0  0  0  0
   57.9241   31.1305   42.3620 H   0  0  0  0  0  0  0  0  0  0  0  0
   56.1312   31.2409   42.3620 H   0  0  0  0  0  0  0  0  0  0  0  0
   58.6590   29.1310   43.2610 H   0  0  0  0  0  0  0  0  0  0  0  0
   60.1744   28.7455   45.6496 H   0  0  0  0  0  0  0  0  0  0  0  0
   60.3653   26.9925   47.4123 H   0  0  0  0  0  0  0  0  0  0  0  0
   58.4450   25.4738   47.8840 H   0  0  0  0  0  0  0  0  0  0  0  0
   54.9416   23.0689   45.5007 H   0  0  0  0  0  0  0  0  0  0  0  0
   54.1518   23.9668   44.1579 H   0  0  0  0  0  0  0  0  0  0  0  0
   55.8493   19.4791   44.7240 H   0  0  0  0  0  0  0  0  0  0  0  0
   55.4833   18.7195   47.1934 H   0  0  0  0  0  0  0  0  0  0  0  0
   56.1055   20.5873   48.9453 H   0  0  0  0  0  0  0  0  0  0  0  0
   56.1417   27.4236   44.7842 H   0  0  0  0  0  0  0  0  0  0  0  0
  1  2  1  0
  2  3  2  0
  2  4  1  0
  4  5  1  0
  5  6  2  0
  6  7  1  0
  7  8  2  0
  8  9  1  0
  9 10  1  0
 10 11  1  0
 11 12  2  0
 11 13  1  0
 13 14  1  0
 14 15  1  0
 15 16  2  0
 15 17  2  0
 15 18  1  0
 18 19  2  0
 19 20  1  0
 20 21  2  0
 21 22  1  0
  9 23  2  0
 23  5  1  0
 22 18  1  0
  1 24  1  0
  1 25  1  0
  1 26  1  0
  4 27  1  0
  6 28  1  0
  7 29  1  0
  8 30  1  0
 13 31  1  0
 13 32  1  0
 19 33  1  0
 20 34  1  0
 21 35  1  0
 23 36  1  0
M  CHG  2  10  -1  14  -1
M  END
>  <UniqueID>  (84) 
83

>  <SMILES>  (84) 
CC(=O)Nc1cccc([N-]C(=O)C[N-]S(=O)(=O)c2cccs2)c1

>  <Energy>  (84) 
67.8183477773551

>  <Genealogy>  (84) 
CC(=O)Nc1cccc([N-]C(=O)C[N-]S(=O)(=O)c2cccs2)c1 (protonated)
CC(=O)Nc1cccc([N-]C(=O)C[N-]S(=O)(=O)c2cccs2)c1 (3D coordinates assigned)
CC(=O)Nc1cccc([N-]C(=O)C[N-]S(=O)(=O)c2cccs2)c1 (optimized conformer: 67.8183477773551 kcal/mol)

>  <smiles>  (84) 
CC(=O)Nc1cccc(NC(=O)CNS(=O)(=O)c2cccs2)c1

>  <score_type>  (84) 
oracle

>  <origin>  (84) 
adg

>  <m_score__min__energy>  (84) 
-11.609999999999999

>  <m_primary>  (84) 
energy

$$$$
84:0
     RDKit          3D

 47 49  0  0  0  0  0  0  0  0999 V2000
   62.9350   33.3310   47.1600 C   0  0  0  0  0  0  0  0  0  0  0  0
   61.9540   33.9760   48.5500 S   0  0  0  0  0  0  0  0  0  0  0  0
   60.3830   33.6820   47.7290 C   0  0  0  0  0  0  0  0  0  0  0  0
   60.2800   33.8950   46.3490 C   0  0  0  0  0  0  0  0  0  0  0  0
   59.0670   33.6780   45.6910 C   0  0  0  0  0  0  0  0  0  0  0  0
   57.9520   33.2410   46.4090 C   0  0  0  0  0  0  0  0  0  0  0  0
   58.0470   33.0220   47.7850 C   0  0  0  0  0  0  0  0  0  0  0  0
   59.2580   33.2560   48.4590 C   0  0  0  0  0  0  0  0  0  0  0  0
   59.3810   32.9960   49.8630 N   0  0  0  0  0  0  0  0  0  0  0  0
   58.5640   32.0960   50.6240 C   0  0  0  0  0  0  0  0  0  0  0  0
   57.6790   32.5730   51.3840 O   0  0  0  0  0  0  0  0  0  0  0  0
   58.6470   30.6060   50.4440 C   0  0  0  0  0  0  0  0  0  0  0  0
   59.9250   30.0630   51.0880 C   0  0  0  0  0  0  0  0  0  0  0  0
   60.8330   29.4740   50.0400 C   0  0  0  0  0  0  0  0  0  0  0  0
   61.9500   29.0160   50.4040 O   0  0  0  0  0  0  0  0  0  0  0  0
   60.4260   29.3570   48.6580 N   0  0  0  0  0  0  0  0  0  0  0  0
   60.8490   30.3790   47.6790 C   0  0  0  0  0  0  0  0  0  0  0  0
   60.6200   29.9420   46.2260 C   0  0  0  0  0  0  0  0  0  0  0  0
   59.2590   29.3340   46.0630 C   0  0  0  0  0  0  0  0  0  0  0  0
   58.4860   29.5780   44.9180 C   0  0  0  0  0  0  0  0  0  0  0  0
   57.2390   28.9560   44.7650 C   0  0  0  0  0  0  0  0  0  0  0  0
   56.4620   29.2000   43.6350 O   0  0  0  0  0  0  0  0  0  0  0  0
   56.7740   28.0770   45.7520 C   0  0  0  0  0  0  0  0  0  0  0  0
   55.5430   27.4500   45.6030 O   0  0  0  0  0  0  0  0  0  0  0  0
   57.5500   27.8230   46.8870 C   0  0  0  0  0  0  0  0  0  0  0  0
   58.7910   28.4580   47.0520 C   0  0  0  0  0  0  0  0  0  0  0  0
   59.6570   28.1670   48.2480 C   0  0  0  0  0  0  0  0  0  0  0  0
   63.7947   32.7657   47.5491 H   0  0  0  0  0  0  0  0  0  0  0  0
   62.3083   32.6682   46.5453 H   0  0  0  0  0  0  0  0  0  0  0  0
   63.2951   34.1691   46.5453 H   0  0  0  0  0  0  0  0  0  0  0  0
   61.1582   34.2348   45.7804 H   0  0  0  0  0  0  0  0  0  0  0  0
   58.9902   33.8514   44.6075 H   0  0  0  0  0  0  0  0  0  0  0  0
   56.9975   33.0690   45.8901 H   0  0  0  0  0  0  0  0  0  0  0  0
   57.1697   32.6646   48.3441 H   0  0  0  0  0  0  0  0  0  0  0  0
   57.7734   30.1342   50.9175 H   0  0  0  0  0  0  0  0  0  0  0  0
   58.6630   30.3761   49.3684 H   0  0  0  0  0  0  0  0  0  0  0  0
   60.4485   30.8829   51.6015 H   0  0  0  0  0  0  0  0  0  0  0  0
   59.6548   29.2767   51.8082 H   0  0  0  0  0  0  0  0  0  0  0  0
   60.2767   31.3002   47.8632 H   0  0  0  0  0  0  0  0  0  0  0  0
   61.9297   30.5364   47.8109 H   0  0  0  0  0  0  0  0  0  0  0  0
   60.7047   30.8191   45.5676 H   0  0  0  0  0  0  0  0  0  0  0  0
   61.3772   29.1899   45.9596 H   0  0  0  0  0  0  0  0  0  0  0  0
   58.8591   30.2588   44.1387 H   0  0  0  0  0  0  0  0  0  0  0  0
   55.6890   28.5950   43.3810 H   0  0  0  0  0  0  0  0  0  0  0  0
   57.1866   27.1228   47.6536 H   0  0  0  0  0  0  0  0  0  0  0  0
   59.0171   27.8488   49.0842 H   0  0  0  0  0  0  0  0  0  0  0  0
   60.3675   27.3726   47.9759 H   0  0  0  0  0  0  0  0  0  0  0  0
  1  2  1  0
  2  3  1  0
  3  4  2  0
  4  5  1  0
  5  6  2  0
  6  7  1  0
  7  8  2  0
  8  9  1  0
  9 10  1  0
 10 11  2  0
 10 12  1  0
 12 13  1  0
 13 14  1  0
 14 15  2  0
 14 16  1  0
 16 17  1  0
 17 18  1  0
 18 19  1  0
 19 20  2  0
 20 21  1  0
 21 22  1  0
 21 23  2  0
 23 24  1  0
 23 25  1  0
 25 26  2  0
 26 27  1  0
  8  3  1  0
 27 16  1  0
 26 19  1  0
  1 28  1  0
  1 29  1  0
  1 30  1  0
  4 31  1  0
  5 32  1  0
  6 33  1  0
  7 34  1  0
 12 35  1  0
 12 36  1  0
 13 37  1  0
 13 38  1  0
 17 39  1  0
 17 40  1  0
 18 41  1  0
 18 42  1  0
 20 43  1  0
 22 44  1  0
 25 45  1  0
 27 46  1  0
 27 47  1  0
M  CHG  2   9  -1  24  -1
M  END
>  <UniqueID>  (85) 
84

>  <SMILES>  (85) 
CSc1ccccc1[N-]C(=O)CCC(=O)N1CCc2cc(O)c([O-])cc2C1

>  <Energy>  (85) 
49.00028549381901

>  <Genealogy>  (85) 
CSc1ccccc1[N-]C(=O)CCC(=O)N1CCc2cc(O)c([O-])cc2C1 (protonated)
CSc1ccccc1[N-]C(=O)CCC(=O)N1CCc2cc(O)c([O-])cc2C1 (3D coordinates assigned)
CSc1ccccc1[N-]C(=O)CCC(=O)N1CCc2cc(O)c([O-])cc2C1 (nonaromatic ring conformer: 49.00028549381901 kcal/mol)

>  <smiles>  (85) 
CSc1ccccc1NC(=O)CCC(=O)N1CCc2cc(O)c(O)cc2C1

>  <score_type>  (85) 
oracle

>  <origin>  (85) 
adg

>  <m_score__min__energy>  (85) 
-10.859999999999999

>  <m_primary>  (85) 
energy

$$$$
85:0
     RDKit          3D

 50 52  0  0  1  0  0  0  0  0999 V2000
   61.4900   33.4710   49.6300 C   0  0  0  0  0  0  0  0  0  0  0  0
   60.6530   33.5260   48.3990 C   0  0  0  0  0  0  0  0  0  0  0  0
   59.2760   33.6010   48.4560 C   0  0  0  0  0  0  0  0  0  0  0  0
   58.5390   33.6500   47.2800 C   0  0  0  0  0  0  0  0  0  0  0  0
   59.1270   33.6260   46.0350 C   0  0  0  0  0  0  0  0  0  0  0  0
   58.3280   33.6760   44.7640 C   0  0  0  0  0  0  0  0  0  0  0  0
   58.4270   32.4710   44.0150 N   0  0  0  0  0  0  0  0  0  0  0  0
   58.0630   31.3410   44.4520 C   0  0  0  0  0  0  0  0  0  0  0  0
   56.8030   30.8890   44.4060 N   0  0  0  0  0  0  0  0  0  0  0  0
   56.4130   29.6920   44.8680 C   0  0  0  0  0  0  0  0  0  0  0  0
   55.1030   29.3080   44.7820 O   0  0  0  0  0  0  0  0  0  0  0  0
   57.3510   28.8520   45.4330 C   0  0  0  0  0  0  0  0  0  0  0  0
   56.9350   27.5500   45.9380 C   0  0  0  0  0  0  0  0  0  0  0  0
   57.8000   26.7830   46.7650 N   0  0  0  0  0  0  0  0  0  0  0  0
   55.7860   27.1500   45.6050 O   0  0  0  0  0  0  0  0  0  0  0  0
   58.6480   29.3050   45.4860 C   0  0  0  0  0  0  0  0  0  0  0  0
   59.5610   28.5460   46.0090 N   0  0  0  0  0  0  0  0  0  0  0  0
   60.0520   28.7700   47.3330 C   0  0  0  0  0  0  0  0  0  0  0  0
   60.3720   30.0440   47.7470 C   0  0  0  0  0  0  0  0  0  0  0  0
   60.8480   30.2670   49.0240 C   0  0  0  0  0  0  0  0  0  0  0  0
   61.0160   29.2280   49.9220 C   0  0  0  0  0  0  0  0  0  0  0  0
   60.6920   27.9370   49.5030 C   0  0  0  0  0  0  0  0  0  0  0  0
   60.2160   27.7230   48.2230 C   0  0  0  0  0  0  0  0  0  0  0  0
   58.9980   30.5290   45.0040 N   0  0  0  0  0  0  0  0  0  0  0  0
   60.5160   33.5500   46.0160 C   0  0  0  0  0  0  0  0  0  0  0  0
   61.2730   33.5010   47.1680 C   0  0  0  0  0  0  0  0  0  0  0  0
   63.0200   33.4050   47.1040 S   0  0  0  0  0  0  0  0  0  0  0  0
   63.4420   31.7290   47.2600 N   0  0  0  0  0  0  0  0  0  0  0  0
   63.6540   34.2280   48.1810 O   0  0  0  0  0  0  0  0  0  0  0  0
   63.5320   33.8820   45.7930 O   0  0  0  0  0  0  0  0  0  0  0  0
   60.8408   33.5137   50.5170 H   0  0  0  0  0  0  0  0  0  0  0  0
   62.0647   32.5332   49.6410 H   0  0  0  0  0  0  0  0  0  0  0  0
   62.1825   34.3256   49.6410 H   0  0  0  0  0  0  0  0  0  0  0  0
   58.7642   33.6219   49.4294 H   0  0  0  0  0  0  0  0  0  0  0  0
   57.4426   33.7103   47.3456 H   0  0  0  0  0  0  0  0  0  0  0  0
   57.2716   33.8491   45.0171 H   0  0  0  0  0  0  0  0  0  0  0  0
   58.7322   34.4905   44.1449 H   0  0  0  0  0  0  0  0  0  0  0  0
   56.0760   31.5000   43.9870 H   0  0  0  0  0  0  0  0  0  0  0  0
   54.7600   28.4190   44.5000 H   0  0  0  0  0  0  0  0  0  0  0  0
   58.7570   26.4760   46.4490 H   0  0  0  0  0  0  0  0  0  0  0  0
   57.4450   26.5250   47.7290 H   0  0  0  0  0  0  0  0  0  0  0  0
   60.2475   30.8902   47.0553 H   0  0  0  0  0  0  0  0  0  0  0  0
   61.0989   31.2923   49.3337 H   0  0  0  0  0  0  0  0  0  0  0  0
   61.3944   29.4144   50.9379 H   0  0  0  0  0  0  0  0  0  0  0  0
   60.8155   27.0886   50.1921 H   0  0  0  0  0  0  0  0  0  0  0  0
   59.9627   26.7007   47.9057 H   0  0  0  0  0  0  0  0  0  0  0  0
   60.0120   30.8140   45.0760 H   0  0  0  0  0  0  0  0  0  0  0  0
   61.0308   33.5281   45.0441 H   0  0  0  0  0  0  0  0  0  0  0  0
   64.4310   31.6230   46.9470 H   0  0  0  0  0  0  0  0  0  0  0  0
   63.3590   31.3880   48.2430 H   0  0  0  0  0  0  0  0  0  0  0  0
  1  2  1  0
  2  3  2  0
  3  4  1  0
  4  5  2  0
  5  6  1  0
  6  7  1  0
  7  8  2  0
  8  9  1  0
  9 10  1  0
 10 11  1  0
 10 12  2  0
 12 13  1  0
 13 14  1  0
 13 15  2  0
 12 16  1  0
 16 17  2  0
 17 18  1  0
 18 19  2  0
 19 20  1  0
 20 21  2  0
 21 22  1  0
 22 23  2  0
 16 24  1  0
  5 25  1  0
 25 26  2  0
 26 27  1  0
 27 28  1  0
 27 29  2  0
 27 30  2  0
 26  2  1  0
 24  8  1  0
 23 18  1  0
  1 31  1  0
  1 32  1  0
  1 33  1  0
  3 34  1  0
  4 35  1  0
  6 36  1  0
  6 37  1  0
  9 38  1  0
 11 39  1  0
 14 40  1  0
 14 41  1  0
 19 42  1  0
 20 43  1  0
 21 44  1  0
 22 45  1  0
 23 46  1  0
 24 47  1  0
 25 48  1  0
 28 49  1  0
 28 50  1  0
M  END
>  <smiles>  (86) 
Cc1ccc(CN=c2[nH]c(O)c(C(N)=O)c(=Nc3ccccc3)[nH]2)cc1S(N)(=O)=O

>  <score_type>  (86) 
oracle

>  <origin>  (86) 
adg

>  <m_score__min__energy>  (86) 
-9.5899999999999999

>  <m_primary>  (86) 
energy

$$$$
86:0
     RDKit          3D

 41 43  0  0  0  0  0  0  0  0999 V2000
   59.5105   28.4412   48.7255 H   0  0  0  0  0  0  0  0  0  0  0  0
   59.0360   28.0330   47.8210 C   0  0  0  0  0  0  0  0  0  0  0  0
   59.0325   26.9474   47.6439 H   0  0  0  0  0  0  0  0  0  0  0  0
   58.4610   28.8600   46.9330 C   0  0  0  0  0  0  0  0  0  0  0  0
   57.8210   28.5060   45.7440 C   0  0  0  0  0  0  0  0  0  0  0  0
   57.6930   27.2620   45.2370 C   0  0  0  0  0  0  0  0  0  0  0  0
   58.0045   27.0990   44.1947 H   0  0  0  0  0  0  0  0  0  0  0  0
   57.1660   26.1100   45.9820 C   0  0  0  0  0  0  0  0  0  0  0  0
   57.9400   25.1640   46.5410 N   0  0  0  0  0  0  0  0  0  0  0  0
   57.0500   24.3890   47.2010 C   0  0  0  0  0  0  0  0  0  0  0  0
   57.3940   23.3680   47.8510 O   0  0  0  0  0  0  0  0  0  0  0  0
   55.7670   24.8010   47.1180 N   0  0  0  0  0  0  0  0  0  0  0  0
   55.8610   25.9010   46.3540 C   0  0  0  0  0  0  0  0  0  0  0  0
   54.7800   26.7100   46.0250 O   0  0  0  0  0  0  0  0  0  0  0  0
   57.3960   29.7310   45.2130 C   0  0  0  0  0  0  0  0  0  0  0  0
   56.7130   29.9960   43.9070 C   0  0  0  0  0  0  0  0  0  0  0  0
   55.7025   30.3881   44.0946 H   0  0  0  0  0  0  0  0  0  0  0  0
   57.2923   30.7346   43.3335 H   0  0  0  0  0  0  0  0  0  0  0  0
   56.6425   29.0600   43.3335 H   0  0  0  0  0  0  0  0  0  0  0  0
   57.7480   30.7300   46.0460 N   0  0  0  0  0  0  0  0  0  0  0  0
   58.3900   30.2050   47.0760 N   0  0  0  0  0  0  0  0  0  0  0  0
   58.8870   31.0150   48.1910 C   0  0  0  0  0  0  0  0  0  0  0  0
   58.0340   31.4200   48.7553 H   0  0  0  0  0  0  0  0  0  0  0  0
   59.5041   30.3842   48.8478 H   0  0  0  0  0  0  0  0  0  0  0  0
   59.7230   32.1500   47.6710 C   0  0  0  0  0  0  0  0  0  0  0  0
   60.9540   32.1790   47.9460 O   0  0  0  0  0  0  0  0  0  0  0  0
   59.1600   33.1720   46.8310 N   0  0  0  0  0  0  0  0  0  0  0  0
   57.8510   33.7700   47.1160 C   0  0  0  0  0  0  0  0  0  0  0  0
   57.3325   33.1629   47.8727 H   0  0  0  0  0  0  0  0  0  0  0  0
   58.0008   34.7938   47.4894 H   0  0  0  0  0  0  0  0  0  0  0  0
   56.9940   33.8260   45.8360 C   0  0  0  0  0  0  0  0  0  0  0  0
   56.3872   32.9099   45.7855 H   0  0  0  0  0  0  0  0  0  0  0  0
   56.3807   34.7367   45.9028 H   0  0  0  0  0  0  0  0  0  0  0  0
   57.7820   33.9310   44.5900 N   0  0  0  0  0  0  0  0  0  0  0  0
   57.9410   32.9690   44.2080 H   0  0  0  0  0  0  0  0  0  0  0  0
   59.0890   34.5700   44.7980 C   0  0  0  0  0  0  0  0  0  0  0  0
   59.5963   34.6815   43.8284 H   0  0  0  0  0  0  0  0  0  0  0  0
   58.9344   35.5565   45.2595 H   0  0  0  0  0  0  0  0  0  0  0  0
   59.9600   33.7160   45.7290 C   0  0  0  0  0  0  0  0  0  0  0  0
   60.3959   32.8853   45.1546 H   0  0  0  0  0  0  0  0  0  0  0  0
   60.7562   34.3487   46.1481 H   0  0  0  0  0  0  0  0  0  0  0  0
  1  2  1  0
  2  3  1  0
  2  4  2  0
  4  5  1  0
  5  6  2  0
  6  7  1  0
  6  8  1  0
  8  9  1  0
  9 10  1  0
 10 11  2  0
 10 12  1  0
 12 13  1  0
 13 14  1  0
  5 15  1  0
 15 16  1  0
 16 17  1  0
 16 18  1  0
 16 19  1  0
 15 20  2  0
 20 21  1  0
 21 22  1  0
 22 23  1  0
 22 24  1  0
 22 25  1  0
 25 26  2  0
 25 27  1  0
 27 28  1  0
 28 29  1  0
 28 30  1  0
 28 31  1  0
 31 32  1  0
 31 33  1  0
 31 34  1  0
 34 35  1  0
 34 36  1  0
 36 37  1  0
 36 38  1  0
 36 39  1  0
 39 40  1  0
 39 41  1  0
 21  4  1  0
 39 27  1  0
 13  8  2  0
M  CHG  3   9  -1  12  -1  14  -1
M  END
>  <UniqueID>  (87) 
85

>  <SMILES>  (87) 
C=c1/c(=C/c2[n-]c(=O)[n-]c2[O-])c(C)nn1CC(=O)N1CCNCC1

>  <Energy>  (87) 
119.07087176669705

>  <Genealogy>  (87) 
C=c1c(=Cc2[n-]c(=O)[n-]c2[O-])c(C)nn1CC(=O)N1CCNCC1 (protonated)
C=c1/c(=C/c2[n-]c(=O)[n-]c2[O-])c(C)nn1CC(=O)N1CCNCC1 (cis-trans isomerization)
C=c1/c(=C/c2[n-]c(=O)[n-]c2[O-])c(C)nn1CC(=O)N1CCNCC1 (3D coordinates assigned)
C=c1/c(=C/c2[n-]c(=O)[n-]c2[O-])c(C)nn1CC(=O)N1CCNCC1 (nonaromatic ring conformer: 119.07087176669705 kcal/mol)

>  <smiles>  (87) 
C=c1c(=Cc2[nH]c(=O)[nH]c2O)c(C)nn1CC(=O)N1CCNCC1

>  <score_type>  (87) 
oracle

>  <origin>  (87) 
adg

>  <m_score__min__energy>  (87) 
-15.93

>  <m_primary>  (87) 
energy

$$$$
