0:0
     RDKit          3D

 45 47  0  0  0  0  0  0  0  0999 V2000
   59.7070   33.4340   49.3390 C   0  0  0  0  0  0  0  0  0  0  0  0
   61.2020   33.2440   49.3150 C   0  0  0  0  0  0  0  0  0  0  0  0
   62.0030   34.1380   50.0460 C   0  0  0  0  0  0  0  0  0  0  0  0
   63.3900   33.9890   50.0710 C   0  0  0  0  0  0  0  0  0  0  0  0
   63.9960   32.9490   49.3670 C   0  0  0  0  0  0  0  0  0  0  0  0
   63.2170   32.0620   48.6200 C   0  0  0  0  0  0  0  0  0  0  0  0
   61.8220   32.2110   48.5690 C   0  0  0  0  0  0  0  0  0  0  0  0
   61.0510   31.2610   47.7460 C   0  0  0  0  0  0  0  0  0  0  0  0
   61.1460   31.2040   46.4020 N   0  0  0  0  0  0  0  0  0  0  0  0
   60.3080   30.2600   45.9950 N   0  0  0  0  0  0  0  0  0  0  0  0
   59.7070   29.7690   47.0940 C   0  0  0  0  0  0  0  0  0  0  0  0
   58.4720   28.4660   47.0490 S   0  0  0  0  0  0  0  0  0  0  0  0
   57.9860   28.7770   45.3150 C   0  0  0  0  0  0  0  0  0  0  0  0
   57.2910   30.0960   45.1810 C   0  0  0  0  0  0  0  0  0  0  0  0
   56.0680   30.1240   44.8720 O   0  0  0  0  0  0  0  0  0  0  0  0
   58.0200   31.3160   45.3670 N   0  0  0  0  0  0  0  0  0  0  0  0
   57.3950   32.6310   45.1810 C   0  0  0  0  0  0  0  0  0  0  0  0
   58.1420   33.4490   44.1320 C   0  0  0  0  0  0  0  0  0  0  0  0
   59.2450   34.1820   44.8840 C   0  0  0  0  0  0  0  0  0  0  0  0
   58.8300   34.2080   46.3560 C   0  0  0  0  0  0  0  0  0  0  0  0
   57.5070   33.4580   46.4560 C   0  0  0  0  0  0  0  0  0  0  0  0
   60.1410   30.3830   48.2130 N   0  0  0  0  0  0  0  0  0  0  0  0
   59.7660   30.0960   49.5970 C   0  0  0  0  0  0  0  0  0  0  0  0
   59.3597   33.4781   50.3818 H   0  0  0  0  0  0  0  0  0  0  0  0
   59.4483   34.3722   48.8264 H   0  0  0  0  0  0  0  0  0  0  0  0
   59.2219   32.5903   48.8264 H   0  0  0  0  0  0  0  0  0  0  0  0
   61.5326   34.9618   50.6029 H   0  0  0  0  0  0  0  0  0  0  0  0
   64.0071   34.6938   50.6476 H   0  0  0  0  0  0  0  0  0  0  0  0
   65.0887   32.8269   49.3999 H   0  0  0  0  0  0  0  0  0  0  0  0
   63.6996   31.2418   48.0684 H   0  0  0  0  0  0  0  0  0  0  0  0
   58.8869   28.7793   44.6838 H   0  0  0  0  0  0  0  0  0  0  0  0
   57.2947   27.9827   44.9970 H   0  0  0  0  0  0  0  0  0  0  0  0
   59.0390   31.2520   45.5980 H   0  0  0  0  0  0  0  0  0  0  0  0
   56.3519   32.4380   44.8901 H   0  0  0  0  0  0  0  0  0  0  0  0
   58.5746   32.7872   43.3672 H   0  0  0  0  0  0  0  0  0  0  0  0
   57.4716   34.1499   43.6130 H   0  0  0  0  0  0  0  0  0  0  0  0
   60.2008   33.6499   44.7688 H   0  0  0  0  0  0  0  0  0  0  0  0
   59.3811   35.2011   44.4929 H   0  0  0  0  0  0  0  0  0  0  0  0
   59.5936   33.7120   46.9732 H   0  0  0  0  0  0  0  0  0  0  0  0
   58.7251   35.2416   46.7174 H   0  0  0  0  0  0  0  0  0  0  0  0
   57.5057   32.8015   47.3386 H   0  0  0  0  0  0  0  0  0  0  0  0
   56.6588   34.1502   46.5628 H   0  0  0  0  0  0  0  0  0  0  0  0
   60.4514   30.6206   50.2789 H   0  0  0  0  0  0  0  0  0  0  0  0
   58.7364   30.4390   49.7766 H   0  0  0  0  0  0  0  0  0  0  0  0
   59.8281   29.0125   49.7766 H   0  0  0  0  0  0  0  0  0  0  0  0
  1  2  1  0
  2  3  2  0
  3  4  1  0
  4  5  2  0
  5  6  1  0
  6  7  2  0
  7  8  1  0
  8  9  2  0
  9 10  1  0
 10 11  2  0
 11 12  1  0
 12 13  1  0
 13 14  1  0
 14 15  2  0
 14 16  1  0
 16 17  1  0
 17 18  1  0
 18 19  1  0
 19 20  1  0
 20 21  1  0
 11 22  1  0
 22 23  1  0
  7  2  1  0
 22  8  1  0
 21 17  1  0
  1 24  1  0
  1 25  1  0
  1 26  1  0
  3 27  1  0
  4 28  1  0
  5 29  1  0
  6 30  1  0
 13 31  1  0
 13 32  1  0
 16 33  1  0
 17 34  1  0
 18 35  1  0
 18 36  1  0
 19 37  1  0
 19 38  1  0
 20 39  1  0
 20 40  1  0
 21 41  1  0
 21 42  1  0
 23 43  1  0
 23 44  1  0
 23 45  1  0
M  END
>  <UniqueID>  (1) 
1

>  <SMILES>  (1) 
Cc1ccccc1-c1nnc(SCC(=O)NC2CCCC2)n1C

>  <Energy>  (1) 
79.98842803500831

>  <Genealogy>  (1) 
Cc1ccccc1-c1nnc(SCC(=O)NC2CCCC2)n1C (3D coordinates assigned)
Cc1ccccc1-c1nnc(SCC(=O)NC2CCCC2)n1C (nonaromatic ring conformer: 79.98842803500831 kcal/mol)

>  <smiles>  (1) 
Cc1ccccc1-c1nnc(SCC(=O)NC2CCCC2)n1C

>  <score_type>  (1) 
oracle

>  <origin>  (1) 
adg

>  <m_score__min__energy>  (1) 
-9

>  <m_primary>  (1) 
energy

$$$$
1:0
     RDKit          3D

 38 39  0  0  0  0  0  0  0  0999 V2000
   59.6200   35.1080   46.2840 C   0  0  0  0  0  0  0  0  0  0  0  0
   59.0270   34.7970   45.0270 O   0  0  0  0  0  0  0  0  0  0  0  0
   58.5070   33.5390   44.6880 C   0  0  0  0  0  0  0  0  0  0  0  0
   58.0660   32.7010   45.7190 C   0  0  0  0  0  0  0  0  0  0  0  0
   57.5390   31.4380   45.4330 C   0  0  0  0  0  0  0  0  0  0  0  0
   57.4440   30.9990   44.1070 C   0  0  0  0  0  0  0  0  0  0  0  0
   56.7990   29.3960   43.7630 S   0  0  0  0  0  0  0  0  0  0  0  0
   55.8650   29.0100   44.8760 O   0  0  0  0  0  0  0  0  0  0  0  0
   56.0230   29.4210   42.4740 O   0  0  0  0  0  0  0  0  0  0  0  0
   58.1010   28.2350   43.6490 N   0  0  2  0  0  0  0  0  0  0  0  0
   57.7790   27.2400   42.6140 C   0  0  0  0  0  0  0  0  0  0  0  0
   58.3130   27.6010   44.9670 C   0  0  0  0  0  0  0  0  0  0  0  0
   59.0130   28.5310   45.9340 C   0  0  0  0  0  0  0  0  0  0  0  0
   58.4920   28.7110   47.2270 C   0  0  0  0  0  0  0  0  0  0  0  0
   59.1190   29.5820   48.1250 C   0  0  0  0  0  0  0  0  0  0  0  0
   60.2660   30.2790   47.7410 C   0  0  0  0  0  0  0  0  0  0  0  0
   60.7880   30.1100   46.4550 C   0  0  0  0  0  0  0  0  0  0  0  0
   60.1680   29.2420   45.5510 C   0  0  0  0  0  0  0  0  0  0  0  0
   60.6890   29.1020   44.3060 F   0  0  0  0  0  0  0  0  0  0  0  0
   57.8890   31.8300   43.0700 C   0  0  0  0  0  0  0  0  0  0  0  0
   58.4160   33.0930   43.3560 C   0  0  0  0  0  0  0  0  0  0  0  0
   58.9621   34.7629   47.0952 H   0  0  0  0  0  0  0  0  0  0  0  0
   60.5951   34.6052   46.3638 H   0  0  0  0  0  0  0  0  0  0  0  0
   59.7608   36.1960   46.3638 H   0  0  0  0  0  0  0  0  0  0  0  0
   58.1347   33.0392   46.7635 H   0  0  0  0  0  0  0  0  0  0  0  0
   57.1981   30.7875   46.2520 H   0  0  0  0  0  0  0  0  0  0  0  0
   58.9630   28.7570   43.3620 H   0  0  0  0  0  0  0  0  0  0  0  0
   57.4741   26.2980   43.0932 H   0  0  0  0  0  0  0  0  0  0  0  0
   56.9566   27.6156   41.9875 H   0  0  0  0  0  0  0  0  0  0  0  0
   58.6656   27.0625   41.9875 H   0  0  0  0  0  0  0  0  0  0  0  0
   57.3363   27.3199   45.3877 H   0  0  0  0  0  0  0  0  0  0  0  0
   58.9511   26.7169   44.8215 H   0  0  0  0  0  0  0  0  0  0  0  0
   57.5878   28.1650   47.5342 H   0  0  0  0  0  0  0  0  0  0  0  0
   58.7071   29.7178   49.1359 H   0  0  0  0  0  0  0  0  0  0  0  0
   60.7588   30.9608   48.4498 H   0  0  0  0  0  0  0  0  0  0  0  0
   61.6902   30.6622   46.1532 H   0  0  0  0  0  0  0  0  0  0  0  0
   57.8234   31.4872   42.0268 H   0  0  0  0  0  0  0  0  0  0  0  0
   58.7610   33.7409   42.5367 H   0  0  0  0  0  0  0  0  0  0  0  0
  1  2  1  0
  2  3  1  0
  3  4  2  0
  4  5  1  0
  5  6  2  0
  6  7  1  0
  7  8  2  0
  7  9  2  0
  7 10  1  0
 10 11  1  0
 10 12  1  0
 12 13  1  0
 13 14  2  0
 14 15  1  0
 15 16  2  0
 16 17  1  0
 17 18  2  0
 18 19  1  0
  6 20  1  0
 20 21  2  0
 21  3  1  0
 18 13  1  0
  1 22  1  0
  1 23  1  0
  1 24  1  0
  4 25  1  0
  5 26  1  0
 10 27  1  6
 11 28  1  0
 11 29  1  0
 11 30  1  0
 12 31  1  0
 12 32  1  0
 14 33  1  0
 15 34  1  0
 16 35  1  0
 17 36  1  0
 20 37  1  0
 21 38  1  0
M  CHG  1  10   1
M  END
>  <UniqueID>  (2) 
2

>  <SMILES>  (2) 
COc1ccc(S(=O)(=O)[N@H+](C)Cc2ccccc2F)cc1

>  <Energy>  (2) 
36.864756081527304

>  <Genealogy>  (2) 
COc1ccc(S(=O)(=O)[NH+](C)Cc2ccccc2F)cc1 (protonated)
COc1ccc(S(=O)(=O)[N@H+](C)Cc2ccccc2F)cc1 (chirality)
COc1ccc(S(=O)(=O)[N@H+](C)Cc2ccccc2F)cc1 (3D coordinates assigned)
COc1ccc(S(=O)(=O)[N@H+](C)Cc2ccccc2F)cc1 (optimized conformer: 36.864756081527304 kcal/mol)

>  <smiles>  (2) 
COc1ccc(S(=O)(=O)N(C)Cc2ccccc2F)cc1

>  <score_type>  (2) 
oracle

>  <origin>  (2) 
adg

>  <m_score__min__energy>  (2) 
-5.3099999999999996

>  <m_primary>  (2) 
energy

$$$$
2:0
     RDKit          3D

 34 36  0  0  0  0  0  0  0  0999 V2000
   55.6660   29.7090   45.9960 H   0  0  0  0  0  0  0  0  0  0  0  0
   55.6950   29.6550   44.9540 N   0  0  0  0  0  0  0  0  0  0  0  0
   56.4350   30.4330   44.2250 C   0  0  0  0  0  0  0  0  0  0  0  0
   57.4440   31.2280   44.7810 C   0  0  0  0  0  0  0  0  0  0  0  0
   57.8900   31.3980   46.0760 C   0  0  0  0  0  0  0  0  0  0  0  0
   57.5138   30.9095   46.9870 H   0  0  0  0  0  0  0  0  0  0  0  0
   58.9270   32.3300   45.9710 C   0  0  0  0  0  0  0  0  0  0  0  0
   59.7520   32.8670   47.0800 C   0  0  0  0  0  0  0  0  0  0  0  0
   61.1470   32.9560   46.9770 C   0  0  0  0  0  0  0  0  0  0  0  0
   61.6479   32.6214   46.0566 H   0  0  0  0  0  0  0  0  0  0  0  0
   61.9060   33.4650   48.0310 C   0  0  0  0  0  0  0  0  0  0  0  0
   63.8090   33.5610   47.8310 Br  0  0  0  0  0  0  0  0  0  0  0  0
   61.2920   33.9000   49.2170 C   0  0  0  0  0  0  0  0  0  0  0  0
   62.1350   34.3990   50.2290 O   0  0  0  0  0  0  0  0  0  0  0  0
   62.6600   33.6710   51.3330 C   0  0  0  0  0  0  0  0  0  0  0  0
   62.3246   34.1361   52.2717 H   0  0  0  0  0  0  0  0  0  0  0  0
   62.3022   32.6317   51.2904 H   0  0  0  0  0  0  0  0  0  0  0  0
   63.7591   33.6824   51.2904 H   0  0  0  0  0  0  0  0  0  0  0  0
   59.8810   33.8160   49.3360 C   0  0  0  0  0  0  0  0  0  0  0  0
   59.2500   34.2470   50.5140 O   0  0  0  0  0  0  0  0  0  0  0  0
   58.9900   33.4270   51.6490 C   0  0  0  0  0  0  0  0  0  0  0  0
   59.1729   34.0037   52.5676 H   0  0  0  0  0  0  0  0  0  0  0  0
   57.9420   33.0934   51.6280 H   0  0  0  0  0  0  0  0  0  0  0  0
   59.6543   32.5505   51.6280 H   0  0  0  0  0  0  0  0  0  0  0  0
   59.1290   33.2990   48.2600 C   0  0  0  0  0  0  0  0  0  0  0  0
   58.0345   33.2336   48.3481 H   0  0  0  0  0  0  0  0  0  0  0  0
   59.0880   32.6900   44.7080 O   0  0  0  0  0  0  0  0  0  0  0  0
   58.2080   32.0380   43.9900 C   0  0  0  0  0  0  0  0  0  0  0  0
   58.0170   32.1070   42.6160 C   0  0  0  0  0  0  0  0  0  0  0  0
   58.6341   32.7625   41.9839 H   0  0  0  0  0  0  0  0  0  0  0  0
   57.0020   31.3040   42.0670 C   0  0  0  0  0  0  0  0  0  0  0  0
   56.8174   31.3249   40.9828 H   0  0  0  0  0  0  0  0  0  0  0  0
   56.2400   30.4950   42.8700 N   0  0  0  0  0  0  0  0  0  0  0  0
   55.4940   29.9120   42.4280 H   0  0  0  0  0  0  0  0  0  0  0  0
  1  2  1  0
  2  3  2  0
  3  4  1  0
  4  5  1  0
  5  6  1  0
  5  7  2  0
  7  8  1  0
  8  9  2  0
  9 10  1  0
  9 11  1  0
 11 12  1  0
 11 13  2  0
 13 14  1  0
 14 15  1  0
 15 16  1  0
 15 17  1  0
 15 18  1  0
 13 19  1  0
 19 20  1  0
 20 21  1  0
 21 22  1  0
 21 23  1  0
 21 24  1  0
 19 25  2  0
 25 26  1  0
  7 27  1  0
 27 28  1  0
 28 29  1  0
 29 30  1  0
 29 31  2  0
 31 32  1  0
 31 33  1  0
 33 34  1  0
 33  3  1  0
 28  4  2  0
 25  8  1  0
M  END
>  <UniqueID>  (3) 
3

>  <SMILES>  (3) 
[H]/N=c1/[nH]ccc2oc(-c3cc(Br)c(OC)c(OC)c3)cc12

>  <Energy>  (3) 
75.37702046057247

>  <Genealogy>  (3) 
[H]/N=c1/[nH]ccc2oc(-c3cc(Br)c(OC)c(OC)c3)cc12 (cis-trans isomerization)
[H]/N=c1/[nH]ccc2oc(-c3cc(Br)c(OC)c(OC)c3)cc12 (3D coordinates assigned)
[H]/N=c1/[nH]ccc2oc(-c3cc(Br)c(OC)c(OC)c3)cc12 (optimized conformer: 75.37702046057247 kcal/mol)

>  <smiles>  (3) 
COc1cc(-c2cc3c(=N)[nH]ccc3o2)cc(Br)c1OC

>  <score_type>  (3) 
oracle

>  <origin>  (3) 
adg

>  <m_score__min__energy>  (3) 
-6.8099999999999996

>  <m_primary>  (3) 
energy

$$$$
3:0
     RDKit          3D

 29 30  0  0  0  0  0  0  0  0999 V2000
   54.9180   23.6480   45.9260 H   0  0  0  0  0  0  0  0  0  0  0  0
   55.1250   24.5300   46.4460 N   0  0  0  0  0  0  0  0  0  0  0  0
   55.9290   25.4350   45.9860 C   0  0  0  0  0  0  0  0  0  0  0  0
   55.5580   26.7420   46.0290 N   0  0  0  0  0  0  0  0  0  0  0  0
   56.3590   27.7340   45.5580 C   0  0  0  0  0  0  0  0  0  0  0  0
   56.0265   28.7810   45.6155 H   0  0  0  0  0  0  0  0  0  0  0  0
   57.6080   27.4270   44.9990 C   0  0  0  0  0  0  0  0  0  0  0  0
   58.5170   28.5180   44.5120 C   0  0  0  0  0  0  0  0  0  0  0  0
   59.5487   28.1404   44.4561 H   0  0  0  0  0  0  0  0  0  0  0  0
   58.1976   28.8481   43.5125 H   0  0  0  0  0  0  0  0  0  0  0  0
   58.4570   29.6400   45.4430 N   0  0  0  0  0  0  0  0  0  0  0  0
   57.6980   31.0080   44.6850 S   0  0  0  0  0  0  0  0  0  0  0  0
   56.2070   30.9310   44.8610 O   0  0  0  0  0  0  0  0  0  0  0  0
   57.9860   30.9550   43.2110 O   0  0  0  0  0  0  0  0  0  0  0  0
   58.3520   32.5230   45.3380 C   0  0  0  0  0  0  0  0  0  0  0  0
   58.3870   33.6390   44.4880 C   0  0  0  0  0  0  0  0  0  0  0  0
   58.0079   33.5511   43.4592 H   0  0  0  0  0  0  0  0  0  0  0  0
   58.8970   34.8580   44.9330 C   0  0  0  0  0  0  0  0  0  0  0  0
   58.9135   35.7260   44.2575 H   0  0  0  0  0  0  0  0  0  0  0  0
   59.3860   34.9780   46.2330 C   0  0  0  0  0  0  0  0  0  0  0  0
   59.7834   35.9424   46.5823 H   0  0  0  0  0  0  0  0  0  0  0  0
   59.3730   33.8770   47.0940 C   0  0  0  0  0  0  0  0  0  0  0  0
   60.0150   34.0810   48.7200 Cl  0  0  0  0  0  0  0  0  0  0  0  0
   58.8610   32.6400   46.6560 C   0  0  0  0  0  0  0  0  0  0  0  0
   58.8910   31.2670   47.7640 Cl  0  0  0  0  0  0  0  0  0  0  0  0
   58.0180   26.0870   44.9610 C   0  0  0  0  0  0  0  0  0  0  0  0
   59.0028   25.8249   44.5469 H   0  0  0  0  0  0  0  0  0  0  0  0
   57.1760   25.0840   45.4490 C   0  0  0  0  0  0  0  0  0  0  0  0
   57.4882   24.0299   45.4123 H   0  0  0  0  0  0  0  0  0  0  0  0
  1  2  1  0
  2  3  2  0
  3  4  1  0
  4  5  1  0
  5  6  1  0
  5  7  2  0
  7  8  1  0
  8  9  1  0
  8 10  1  0
  8 11  1  0
 11 12  1  0
 12 13  2  0
 12 14  2  0
 12 15  1  0
 15 16  2  0
 16 17  1  0
 16 18  1  0
 18 19  1  0
 18 20  2  0
 20 21  1  0
 20 22  1  0
 22 23  1  0
 22 24  2  0
 24 25  1  0
  7 26  1  0
 26 27  1  0
 26 28  2  0
 28 29  1  0
 28  3  1  0
 24 15  1  0
M  CHG  2   4  -1  11  -1
M  END
>  <UniqueID>  (4) 
4

>  <SMILES>  (4) 
[H]/N=c1\ccc(C[N-]S(=O)(=O)c2cccc(Cl)c2Cl)c[n-]1

>  <Energy>  (4) 
32.38857665741967

>  <Genealogy>  (4) 
N=c1ccc(C[N-]S(=O)(=O)c2cccc(Cl)c2Cl)c[n-]1 (protonated)
[H]/N=c1\ccc(C[N-]S(=O)(=O)c2cccc(Cl)c2Cl)c[n-]1 (cis-trans isomerization)
[H]/N=c1\ccc(C[N-]S(=O)(=O)c2cccc(Cl)c2Cl)c[n-]1 (3D coordinates assigned)
[H]/N=c1\ccc(C[N-]S(=O)(=O)c2cccc(Cl)c2Cl)c[n-]1 (optimized conformer: 32.38857665741967 kcal/mol)

>  <smiles>  (4) 
N=c1ccc(CNS(=O)(=O)c2cccc(Cl)c2Cl)c[nH]1

>  <score_type>  (4) 
oracle

>  <origin>  (4) 
adg

>  <m_score__min__energy>  (4) 
-10.619999999999999

>  <m_primary>  (4) 
energy

$$$$
4:0
     RDKit          3D

 23 24  0  0  0  0  0  0  0  0999 V2000
   57.8990   23.0530   45.5060 C   0  0  0  0  0  0  0  0  0  0  0  0
   57.3430   24.2570   45.6470 C   0  0  0  0  0  0  0  0  0  0  0  0
   58.0940   25.3740   45.7700 N   0  0  0  0  0  0  0  0  0  0  0  0
   57.2350   26.4070   45.8780 C   0  0  0  0  0  0  0  0  0  0  0  0
   57.6610   27.6690   46.0320 C   0  0  0  0  0  0  0  0  0  0  0  0
   57.1220   28.8360   45.3130 C   0  0  0  0  0  0  0  0  0  0  0  0
   57.8670   29.9320   44.9260 C   0  0  0  0  0  0  0  0  0  0  0  0
   57.0220   30.7290   44.1790 C   0  0  0  0  0  0  0  0  0  0  0  0
   55.8090   30.0720   44.1220 C   0  0  0  0  0  0  0  0  0  0  0  0
   55.8770   28.9160   44.8040 N   0  0  0  0  0  0  0  0  0  0  0  0
   55.9300   25.9370   45.8480 C   0  0  0  0  0  0  0  0  0  0  0  0
   54.7690   26.6840   46.0160 O   0  0  0  0  0  0  0  0  0  0  0  0
   55.9820   24.5660   45.6900 C   0  0  0  0  0  0  0  0  0  0  0  0
   54.8060   23.6650   45.6220 C   0  0  0  0  0  0  0  0  0  0  0  0
   54.5840   23.0030   44.5740 O   0  0  0  0  0  0  0  0  0  0  0  0
   53.9320   23.5340   46.6920 O   0  0  0  0  0  0  0  0  0  0  0  0
   57.2624   22.1613   45.4080 H   0  0  0  0  0  0  0  0  0  0  0  0
   58.9942   22.9517   45.4877 H   0  0  0  0  0  0  0  0  0  0  0  0
   58.4752   27.8463   46.7501 H   0  0  0  0  0  0  0  0  0  0  0  0
   58.9222   30.1306   45.1648 H   0  0  0  0  0  0  0  0  0  0  0  0
   57.2674   31.6978   43.7193 H   0  0  0  0  0  0  0  0  0  0  0  0
   54.9168   30.4411   43.5950 H   0  0  0  0  0  0  0  0  0  0  0  0
   55.1220   28.1960   44.8720 H   0  0  0  0  0  0  0  0  0  0  0  0
  1  2  2  0
  2  3  1  0
  3  4  1  0
  4  5  2  3
  5  6  1  0
  6  7  2  0
  7  8  1  0
  8  9  2  0
  9 10  1  0
  4 11  1  0
 11 12  1  0
 11 13  2  0
 13 14  1  0
 14 15  2  0
 14 16  1  0
 13  2  1  0
 10  6  1  0
  1 17  1  0
  1 18  1  0
  5 19  1  0
  7 20  1  0
  8 21  1  0
  9 22  1  0
 10 23  1  0
M  CHG  3   3  -1  12  -1  16  -1
M  END
>  <UniqueID>  (5) 
5

>  <SMILES>  (5) 
C=c1[n-]c(=Cc2ccc[nH]2)c([O-])c1C(=O)[O-]

>  <Energy>  (5) 
84.53291379753212

>  <Genealogy>  (5) 
C=c1[n-]c(=Cc2ccc[nH]2)c([O-])c1C(=O)[O-] (protonated)
C=c1[n-]c(=Cc2ccc[nH]2)c([O-])c1C(=O)[O-] (3D coordinates assigned)
C=c1[n-]c(=Cc2ccc[nH]2)c([O-])c1C(=O)[O-] (optimized conformer: 84.53291379753212 kcal/mol)

>  <smiles>  (5) 
C=c1[nH]c(=Cc2ccc[nH]2)c(O)c1C(=O)O

>  <score_type>  (5) 
oracle

>  <origin>  (5) 
adg

>  <m_score__min__energy>  (5) 
-13.76

>  <m_primary>  (5) 
energy

$$$$
5:0
     RDKit          3D

 19 21  0  0  0  0  0  0  0  0999 V2000
   58.5050   32.7160   41.7620 O   0  0  0  0  0  0  0  0  0  0  0  0
   58.0980   32.3580   42.8980 C   0  0  0  0  0  0  0  0  0  0  0  0
   58.3380   33.0220   44.1950 C   0  0  0  0  0  0  0  0  0  0  0  0
   59.0530   34.1790   44.4940 C   0  0  0  0  0  0  0  0  0  0  0  0
   59.1180   34.5890   45.8390 C   0  0  0  0  0  0  0  0  0  0  0  0
   58.4760   33.8430   46.8520 C   0  0  0  0  0  0  0  0  0  0  0  0
   57.7570   32.6760   46.5350 C   0  0  0  0  0  0  0  0  0  0  0  0
   57.7050   32.2910   45.2000 C   0  0  0  0  0  0  0  0  0  0  0  0
   57.0660   31.1660   44.5410 C   0  0  0  0  0  0  0  0  0  0  0  0
   56.3200   30.1140   44.9080 N   0  0  0  0  0  0  0  0  0  0  0  0
   56.0660   29.4670   43.7690 N   0  0  0  0  0  0  0  0  0  0  0  0
   56.6430   30.1010   42.7110 C   0  0  0  0  0  0  0  0  0  0  0  0
   57.2850   31.1970   43.2240 C   0  0  0  0  0  0  0  0  0  0  0  0
   59.5526   34.7559   43.7019 H   0  0  0  0  0  0  0  0  0  0  0  0
   59.6747   35.5000   46.1039 H   0  0  0  0  0  0  0  0  0  0  0  0
   58.5387   34.1774   47.8981 H   0  0  0  0  0  0  0  0  0  0  0  0
   57.2532   32.0883   47.3166 H   0  0  0  0  0  0  0  0  0  0  0  0
   55.5000   28.5920   43.7120 H   0  0  0  0  0  0  0  0  0  0  0  0
   56.6018   29.7944   41.6554 H   0  0  0  0  0  0  0  0  0  0  0  0
  1  2  2  0
  2  3  1  0
  3  4  2  0
  4  5  1  0
  5  6  2  0
  6  7  1  0
  7  8  2  0
  8  9  1  0
  9 10  2  0
 10 11  1  0
 11 12  1  0
 12 13  2  0
 13  2  1  0
  8  3  1  0
 13  9  1  0
  4 14  1  0
  5 15  1  0
  6 16  1  0
  7 17  1  0
 11 18  1  0
 12 19  1  0
M  END
>  <UniqueID>  (6) 
6

>  <SMILES>  (6) 
O=C1c2ccccc2-c2n[nH]cc21

>  <Energy>  (6) 
108.1347545160559

>  <Genealogy>  (6) 
O=C1c2ccccc2-c2n[nH]cc21 (3D coordinates assigned)
O=C1c2ccccc2-c2n[nH]cc21 (nonaromatic ring conformer: 108.1347545160559 kcal/mol)

>  <smiles>  (6) 
O=C1c2ccccc2-c2n[nH]cc21

>  <score_type>  (6) 
oracle

>  <origin>  (6) 
adg

>  <m_score__min__energy>  (6) 
-6.8700000000000001

>  <m_primary>  (6) 
energy

$$$$
6:0
     RDKit          3D

 50 52  0  0  0  0  0  0  0  0999 V2000
   65.2200   31.9810   50.0530 C   0  0  0  0  0  0  0  0  0  0  0  0
   64.8240   33.2520   49.5480 O   0  0  0  0  0  0  0  0  0  0  0  0
   63.6680   33.4760   48.7840 C   0  0  0  0  0  0  0  0  0  0  0  0
   63.6350   33.2800   47.3910 C   0  0  0  0  0  0  0  0  0  0  0  0
   62.4580   33.5210   46.6750 C   0  0  0  0  0  0  0  0  0  0  0  0
   61.3040   33.9620   47.3360 C   0  0  0  0  0  0  0  0  0  0  0  0
   59.8280   34.2950   46.4250 S   0  0  0  0  0  0  0  0  0  0  0  0
   60.1450   34.3070   44.9550 O   0  0  0  0  0  0  0  0  0  0  0  0
   59.3110   35.6570   46.8010 O   0  0  0  0  0  0  0  0  0  0  0  0
   58.5940   33.0960   46.7390 N   0  0  0  0  0  0  0  0  0  0  0  0
   57.4540   33.2280   45.8020 C   0  0  0  0  0  0  0  0  0  0  0  0
   57.4750   32.1590   44.7000 C   0  0  0  0  0  0  0  0  0  0  0  0
   57.4130   30.7930   45.2720 N   0  0  0  0  0  0  0  0  0  0  0  0
   57.8830   29.8000   44.2850 C   0  0  0  0  0  0  0  0  0  0  0  0
   57.8710   28.4170   44.8810 C   0  0  0  0  0  0  0  0  0  0  0  0
   59.0690   27.7130   45.0790 C   0  0  0  0  0  0  0  0  0  0  0  0
   59.0480   26.4350   45.6400 C   0  0  0  0  0  0  0  0  0  0  0  0
   57.8340   25.8490   46.0080 C   0  0  0  0  0  0  0  0  0  0  0  0
   56.6290   26.5350   45.8190 C   0  0  0  0  0  0  0  0  0  0  0  0
   55.4370   25.9040   46.2060 O   0  0  0  0  0  0  0  0  0  0  0  0
   54.9250   24.7170   45.6110 C   0  0  0  0  0  0  0  0  0  0  0  0
   56.6530   27.8240   45.2510 C   0  0  0  0  0  0  0  0  0  0  0  0
   58.1170   30.6640   46.5750 C   0  0  0  0  0  0  0  0  0  0  0  0
   59.1890   31.7440   46.7690 C   0  0  0  0  0  0  0  0  0  0  0  0
   61.3350   34.1460   48.7240 C   0  0  0  0  0  0  0  0  0  0  0  0
   62.5110   33.9070   49.4420 C   0  0  0  0  0  0  0  0  0  0  0  0
   65.2126   32.0049   51.1527 H   0  0  0  0  0  0  0  0  0  0  0  0
   64.5192   31.2109   49.6982 H   0  0  0  0  0  0  0  0  0  0  0  0
   66.2342   31.7453   49.6982 H   0  0  0  0  0  0  0  0  0  0  0  0
   64.5372   32.9364   46.8638 H   0  0  0  0  0  0  0  0  0  0  0  0
   62.4382   33.3634   45.5865 H   0  0  0  0  0  0  0  0  0  0  0  0
   56.5169   33.1314   46.3700 H   0  0  0  0  0  0  0  0  0  0  0  0
   57.5314   34.2119   45.3162 H   0  0  0  0  0  0  0  0  0  0  0  0
   56.6093   32.3098   44.0383 H   0  0  0  0  0  0  0  0  0  0  0  0
   58.4161   32.2576   44.1392 H   0  0  0  0  0  0  0  0  0  0  0  0
   57.2211   29.8214   43.4067 H   0  0  0  0  0  0  0  0  0  0  0  0
   58.9126   30.0513   43.9903 H   0  0  0  0  0  0  0  0  0  0  0  0
   60.0274   28.1698   44.7912 H   0  0  0  0  0  0  0  0  0  0  0  0
   59.9898   25.8876   45.7928 H   0  0  0  0  0  0  0  0  0  0  0  0
   57.8255   24.8415   46.4493 H   0  0  0  0  0  0  0  0  0  0  0  0
   54.6213   24.0130   46.3998 H   0  0  0  0  0  0  0  0  0  0  0  0
   54.0543   24.9660   44.9866 H   0  0  0  0  0  0  0  0  0  0  0  0
   55.7036   24.2545   44.9866 H   0  0  0  0  0  0  0  0  0  0  0  0
   55.7107   28.3700   45.0962 H   0  0  0  0  0  0  0  0  0  0  0  0
   57.3785   30.7495   47.3857 H   0  0  0  0  0  0  0  0  0  0  0  0
   58.6196   29.6856   46.5897 H   0  0  0  0  0  0  0  0  0  0  0  0
   59.6823   31.5901   47.7401 H   0  0  0  0  0  0  0  0  0  0  0  0
   59.9172   31.6646   45.9484 H   0  0  0  0  0  0  0  0  0  0  0  0
   60.4298   34.4802   49.2521 H   0  0  0  0  0  0  0  0  0  0  0  0
   62.5265   34.0589   50.5314 H   0  0  0  0  0  0  0  0  0  0  0  0
  1  2  1  0
  2  3  1  0
  3  4  2  0
  4  5  1  0
  5  6  2  0
  6  7  1  0
  7  8  2  0
  7  9  2  0
  7 10  1  0
 10 11  1  0
 11 12  1  0
 12 13  1  0
 13 14  1  0
 14 15  1  0
 15 16  2  0
 16 17  1  0
 17 18  2  0
 18 19  1  0
 19 20  1  0
 20 21  1  0
 19 22  2  0
 13 23  1  0
 23 24  1  0
  6 25  1  0
 25 26  2  0
 26  3  1  0
 24 10  1  0
 22 15  1  0
  1 27  1  0
  1 28  1  0
  1 29  1  0
  4 30  1  0
  5 31  1  0
 11 32  1  0
 11 33  1  0
 12 34  1  0
 12 35  1  0
 14 36  1  0
 14 37  1  0
 16 38  1  0
 17 39  1  0
 18 40  1  0
 21 41  1  0
 21 42  1  0
 21 43  1  0
 22 44  1  0
 23 45  1  0
 23 46  1  0
 24 47  1  0
 24 48  1  0
 25 49  1  0
 26 50  1  0
M  END
>  <UniqueID>  (7) 
7

>  <SMILES>  (7) 
COc1ccc(S(=O)(=O)N2CCN(Cc3cccc(OC)c3)CC2)cc1

>  <Energy>  (7) 
59.63038325889826

>  <Genealogy>  (7) 
COc1ccc(S(=O)(=O)N2CCN(Cc3cccc(OC)c3)CC2)cc1 (3D coordinates assigned)
COc1ccc(S(=O)(=O)N2CCN(Cc3cccc(OC)c3)CC2)cc1 (nonaromatic ring conformer: 59.63038325889826 kcal/mol)

>  <smiles>  (7) 
COc1ccc(S(=O)(=O)N2CCN(Cc3cccc(OC)c3)CC2)cc1

>  <score_type>  (7) 
oracle

>  <origin>  (7) 
adg

>  <m_score__min__energy>  (7) 
-8.8100000000000005

>  <m_primary>  (7) 
energy

$$$$
7:0
     RDKit          3D

 38 40  0  0  0  0  0  0  0  0999 V2000
   61.0760   27.2330   50.1580 C   0  0  0  0  0  0  0  0  0  0  0  0
   60.3120   27.0110   48.9770 O   0  0  0  0  0  0  0  0  0  0  0  0
   59.6880   28.0240   48.2320 C   0  0  0  0  0  0  0  0  0  0  0  0
   59.7980   29.3830   48.5790 C   0  0  0  0  0  0  0  0  0  0  0  0
   59.1620   30.3640   47.8140 C   0  0  0  0  0  0  0  0  0  0  0  0
   59.2840   31.6680   48.1520 N   0  0  0  0  0  0  0  0  0  0  0  0
   58.6770   32.6520   47.4380 C   0  0  0  0  0  0  0  0  0  0  0  0
   57.9100   32.3360   46.3400 N   0  0  0  0  0  0  0  0  0  0  0  0
   57.7830   31.0250   45.9490 C   0  0  0  0  0  0  0  0  0  0  0  0
   57.1120   30.7300   44.9200 O   0  0  0  0  0  0  0  0  0  0  0  0
   58.4040   30.0020   46.6890 C   0  0  0  0  0  0  0  0  0  0  0  0
   58.2920   28.6460   46.3380 C   0  0  0  0  0  0  0  0  0  0  0  0
   58.9320   27.6540   47.1070 C   0  0  0  0  0  0  0  0  0  0  0  0
   58.8430   26.2890   46.7880 O   0  0  0  0  0  0  0  0  0  0  0  0
   58.3530   25.7790   45.5520 C   0  0  0  0  0  0  0  0  0  0  0  0
   57.2690   33.4200   45.5640 C   0  0  0  0  0  0  0  0  0  0  0  0
   58.2910   34.1940   44.7120 C   0  0  0  0  0  0  0  0  0  0  0  0
   59.6760   34.3620   45.3630 C   0  0  0  0  0  0  0  0  0  0  0  0
   59.6360   34.9440   46.7900 C   0  0  0  0  0  0  0  0  0  0  0  0
   58.9070   34.0870   47.8540 C   0  0  0  0  0  0  0  0  0  0  0  0
   60.4468   27.0502   51.0415 H   0  0  0  0  0  0  0  0  0  0  0  0
   61.9363   26.5477   50.1724 H   0  0  0  0  0  0  0  0  0  0  0  0
   61.4351   28.2726   50.1724 H   0  0  0  0  0  0  0  0  0  0  0  0
   60.3892   29.6754   49.4593 H   0  0  0  0  0  0  0  0  0  0  0  0
   57.7005   28.3570   45.4567 H   0  0  0  0  0  0  0  0  0  0  0  0
   57.6032   24.9986   45.7488 H   0  0  0  0  0  0  0  0  0  0  0  0
   57.8910   26.5945   44.9762 H   0  0  0  0  0  0  0  0  0  0  0  0
   59.1863   25.3500   44.9762 H   0  0  0  0  0  0  0  0  0  0  0  0
   56.5104   32.9814   44.8990 H   0  0  0  0  0  0  0  0  0  0  0  0
   56.8120   34.1249   46.2741 H   0  0  0  0  0  0  0  0  0  0  0  0
   58.4222   33.6559   43.7616 H   0  0  0  0  0  0  0  0  0  0  0  0
   57.8835   35.2076   44.5830 H   0  0  0  0  0  0  0  0  0  0  0  0
   60.1591   33.3747   45.4063 H   0  0  0  0  0  0  0  0  0  0  0  0
   60.2319   35.0810   44.7434 H   0  0  0  0  0  0  0  0  0  0  0  0
   60.6743   35.0845   47.1251 H   0  0  0  0  0  0  0  0  0  0  0  0
   59.0569   35.8761   46.7133 H   0  0  0  0  0  0  0  0  0  0  0  0
   59.5125   34.0877   48.7724 H   0  0  0  0  0  0  0  0  0  0  0  0
   57.9145   34.5383   47.9995 H   0  0  0  0  0  0  0  0  0  0  0  0
  1  2  1  0
  2  3  1  0
  3  4  2  0
  4  5  1  0
  5  6  1  0
  6  7  2  0
  7  8  1  0
  8  9  1  0
  9 10  2  0
  9 11  1  0
 11 12  1  0
 12 13  2  0
 13 14  1  0
 14 15  1  0
  8 16  1  0
 16 17  1  0
 17 18  1  0
 18 19  1  0
 19 20  1  0
 13  3  1  0
 11  5  2  0
 20  7  1  0
  1 21  1  0
  1 22  1  0
  1 23  1  0
  4 24  1  0
 12 25  1  0
 15 26  1  0
 15 27  1  0
 15 28  1  0
 16 29  1  0
 16 30  1  0
 17 31  1  0
 17 32  1  0
 18 33  1  0
 18 34  1  0
 19 35  1  0
 19 36  1  0
 20 37  1  0
 20 38  1  0
M  END
>  <UniqueID>  (8) 
8

>  <SMILES>  (8) 
COc1cc2nc3n(c(=O)c2cc1OC)CCCCC3

>  <Energy>  (8) 
51.38031443310303

>  <Genealogy>  (8) 
COc1cc2nc3n(c(=O)c2cc1OC)CCCCC3 (3D coordinates assigned)
COc1cc2nc3n(c(=O)c2cc1OC)CCCCC3 (nonaromatic ring conformer: 51.38031443310303 kcal/mol)

>  <smiles>  (8) 
COc1cc2nc3n(c(=O)c2cc1OC)CCCCC3

>  <score_type>  (8) 
oracle

>  <origin>  (8) 
adg

>  <m_score__min__energy>  (8) 
-4.46

>  <m_primary>  (8) 
energy

$$$$
8:0
     RDKit          3D

 45 47  0  0  0  0  0  0  0  0999 V2000
   58.3200   33.7720   52.4580 C   0  0  0  0  0  0  0  0  0  0  0  0
   57.7890   32.5990   52.1030 C   0  0  0  0  0  0  0  0  0  0  0  0
   58.5510   31.6130   51.2580 C   0  0  0  0  0  0  0  0  0  0  0  0
   58.3010   31.8330   49.7610 C   0  0  0  0  0  0  0  0  0  0  0  0
   59.5690   31.8920   49.0020 N   0  0  0  0  0  0  0  0  0  0  0  0
   59.9570   30.8600   48.1590 C   0  0  0  0  0  0  0  0  0  0  0  0
   58.8970   29.4380   47.8240 S   0  0  0  0  0  0  0  0  0  0  0  0
   58.9750   29.5680   45.9950 C   0  0  0  0  0  0  0  0  0  0  0  0
   57.7100   30.1090   45.3820 C   0  0  0  0  0  0  0  0  0  0  0  0
   56.6300   29.4980   45.6160 O   0  0  0  0  0  0  0  0  0  0  0  0
   57.6880   31.3150   44.5830 N   0  0  0  0  0  0  0  0  0  0  0  0
   57.3800   31.2340   43.1480 C   0  0  0  0  0  0  0  0  0  0  0  0
   58.1670   32.5660   45.1440 C   0  0  0  0  0  0  0  0  0  0  0  0
   58.8950   33.4760   44.3490 C   0  0  0  0  0  0  0  0  0  0  0  0
   59.3760   34.6730   44.8900 C   0  0  0  0  0  0  0  0  0  0  0  0
   59.1500   34.9740   46.2350 C   0  0  0  0  0  0  0  0  0  0  0  0
   59.6280   36.1300   46.7610 F   0  0  0  0  0  0  0  0  0  0  0  0
   58.4310   34.0870   47.0370 C   0  0  0  0  0  0  0  0  0  0  0  0
   57.9370   32.8940   46.4980 C   0  0  0  0  0  0  0  0  0  0  0  0
   61.1780   30.8860   47.5490 N   0  0  0  0  0  0  0  0  0  0  0  0
   62.0070   31.9380   47.7320 C   0  0  0  0  0  0  0  0  0  0  0  0
   63.2680   32.0820   47.1520 C   0  0  0  0  0  0  0  0  0  0  0  0
   63.8840   33.2770   47.5160 C   0  0  0  0  0  0  0  0  0  0  0  0
   62.8570   34.1340   48.5550 S   0  0  0  0  0  0  0  0  0  0  0  0
   61.6340   32.9840   48.5360 C   0  0  0  0  0  0  0  0  0  0  0  0
   60.4110   32.9670   49.1890 C   0  0  0  0  0  0  0  0  0  0  0  0
   60.0900   33.9280   49.9430 O   0  0  0  0  0  0  0  0  0  0  0  0
   57.7405   34.4735   53.0761 H   0  0  0  0  0  0  0  0  0  0  0  0
   59.3368   34.0365   52.1323 H   0  0  0  0  0  0  0  0  0  0  0  0
   56.7712   32.3474   52.4358 H   0  0  0  0  0  0  0  0  0  0  0  0
   59.6263   31.7272   51.4600 H   0  0  0  0  0  0  0  0  0  0  0  0
   58.2052   30.6015   51.5173 H   0  0  0  0  0  0  0  0  0  0  0  0
   57.6916   31.0027   49.3747 H   0  0  0  0  0  0  0  0  0  0  0  0
   57.7793   32.7933   49.6360 H   0  0  0  0  0  0  0  0  0  0  0  0
   59.8064   30.2368   45.7276 H   0  0  0  0  0  0  0  0  0  0  0  0
   59.1186   28.5508   45.6018 H   0  0  0  0  0  0  0  0  0  0  0  0
   56.3240   30.9563   43.0147 H   0  0  0  0  0  0  0  0  0  0  0  0
   57.5643   32.2112   42.6777 H   0  0  0  0  0  0  0  0  0  0  0  0
   58.0212   30.4739   42.6777 H   0  0  0  0  0  0  0  0  0  0  0  0
   59.0866   33.2416   43.2915 H   0  0  0  0  0  0  0  0  0  0  0  0
   59.9329   35.3780   44.2553 H   0  0  0  0  0  0  0  0  0  0  0  0
   58.2521   34.3262   48.0957 H   0  0  0  0  0  0  0  0  0  0  0  0
   57.3637   32.2048   47.1354 H   0  0  0  0  0  0  0  0  0  0  0  0
   63.7236   31.3367   46.4835 H   0  0  0  0  0  0  0  0  0  0  0  0
   64.8777   33.6105   47.1823 H   0  0  0  0  0  0  0  0  0  0  0  0
  1  2  2  0
  2  3  1  0
  3  4  1  0
  4  5  1  0
  5  6  1  0
  6  7  1  0
  7  8  1  0
  8  9  1  0
  9 10  2  0
  9 11  1  0
 11 12  1  0
 11 13  1  0
 13 14  2  0
 14 15  1  0
 15 16  2  0
 16 17  1  0
 16 18  1  0
 18 19  2  0
  6 20  2  0
 20 21  1  0
 21 22  1  0
 22 23  2  0
 23 24  1  0
 24 25  1  0
 25 26  1  0
 26 27  2  0
 26  5  1  0
 19 13  1  0
 25 21  2  0
  1 28  1  0
  1 29  1  0
  2 30  1  0
  3 31  1  0
  3 32  1  0
  4 33  1  0
  4 34  1  0
  8 35  1  0
  8 36  1  0
 12 37  1  0
 12 38  1  0
 12 39  1  0
 14 40  1  0
 15 41  1  0
 18 42  1  0
 19 43  1  0
 22 44  1  0
 23 45  1  0
M  END
>  <UniqueID>  (9) 
9

>  <SMILES>  (9) 
C=CCCn1c(SCC(=O)N(C)c2ccc(F)cc2)nc2ccsc2c1=O

>  <Energy>  (9) 
80.77209445594374

>  <Genealogy>  (9) 
C=CCCn1c(SCC(=O)N(C)c2ccc(F)cc2)nc2ccsc2c1=O (3D coordinates assigned)
C=CCCn1c(SCC(=O)N(C)c2ccc(F)cc2)nc2ccsc2c1=O (optimized conformer: 80.77209445594374 kcal/mol)

>  <smiles>  (9) 
C=CCCn1c(SCC(=O)N(C)c2ccc(F)cc2)nc2ccsc2c1=O

>  <score_type>  (9) 
oracle

>  <origin>  (9) 
adg

>  <m_score__min__energy>  (9) 
-7.3600000000000003

>  <m_primary>  (9) 
energy

$$$$
9:0
     RDKit          3D

 25 26  0  0  0  0  0  0  0  0999 V2000
   55.6160   30.3640   44.7820 O   0  0  0  0  0  0  0  0  0  0  0  0
   57.0030   30.1300   44.9250 C   0  0  2  0  0  0  0  0  0  0  0  0
   57.7430   31.4010   45.4070 C   0  0  0  0  0  0  0  0  0  0  0  0
   57.1020   32.6610   45.3010 C   0  0  0  0  0  0  0  0  0  0  0  0
   57.7250   33.8320   45.7340 C   0  0  0  0  0  0  0  0  0  0  0  0
   59.0070   33.7860   46.2690 C   0  0  0  0  0  0  0  0  0  0  0  0
   59.6780   32.5700   46.3620 C   0  0  0  0  0  0  0  0  0  0  0  0
   59.0730   31.3820   45.9330 C   0  0  0  0  0  0  0  0  0  0  0  0
   60.1780   29.8120   46.0750 Br  0  0  0  0  0  0  0  0  0  0  0  0
   57.5160   29.6460   43.5660 C   0  0  0  0  0  0  0  0  0  0  0  0
   57.7670   28.1490   43.7230 C   0  0  0  0  0  0  0  0  0  0  0  0
   57.2540   27.7220   45.0240 N   0  0  0  0  0  0  0  0  0  0  0  0
   57.2010   28.9200   45.8590 C   0  0  0  0  0  0  0  0  0  0  0  0
   55.1620   30.0960   45.6240 H   0  0  0  0  0  0  0  0  0  0  0  0
   56.0922   32.7167   44.8683 H   0  0  0  0  0  0  0  0  0  0  0  0
   57.1997   34.7950   45.6517 H   0  0  0  0  0  0  0  0  0  0  0  0
   59.4910   34.7099   46.6187 H   0  0  0  0  0  0  0  0  0  0  0  0
   60.6961   32.5418   46.7776 H   0  0  0  0  0  0  0  0  0  0  0  0
   56.7624   29.8279   42.7856 H   0  0  0  0  0  0  0  0  0  0  0  0
   58.4299   30.1795   43.2658 H   0  0  0  0  0  0  0  0  0  0  0  0
   57.2486   27.6007   42.9226 H   0  0  0  0  0  0  0  0  0  0  0  0
   58.8452   27.9407   43.6583 H   0  0  0  0  0  0  0  0  0  0  0  0
   56.2710   27.3870   44.8860 H   0  0  0  0  0  0  0  0  0  0  0  0
   56.3599   28.8488   46.5643 H   0  0  0  0  0  0  0  0  0  0  0  0
   58.1290   29.0278   46.4397 H   0  0  0  0  0  0  0  0  0  0  0  0
  2  1  1  6
  2  3  1  0
  3  4  2  0
  4  5  1  0
  5  6  2  0
  6  7  1  0
  7  8  2  0
  8  9  1  0
  2 10  1  0
 10 11  1  0
 11 12  1  0
 12 13  1  0
 13  2  1  0
  8  3  1  0
  1 14  1  0
  4 15  1  0
  5 16  1  0
  6 17  1  0
  7 18  1  0
 10 19  1  0
 10 20  1  0
 11 21  1  0
 11 22  1  0
 12 23  1  0
 13 24  1  0
 13 25  1  0
M  END
>  <UniqueID>  (10) 
10

>  <SMILES>  (10) 
O[C@]1(c2ccccc2Br)CCNC1

>  <Energy>  (10) 
37.45702954864601

>  <Genealogy>  (10) 
O[C@]1(c2ccccc2Br)CCNC1 (chirality)
O[C@]1(c2ccccc2Br)CCNC1 (3D coordinates assigned)
O[C@]1(c2ccccc2Br)CCNC1 (nonaromatic ring conformer: 37.45702954864601 kcal/mol)

>  <smiles>  (10) 
OC1(c2ccccc2Br)CCNC1

>  <score_type>  (10) 
oracle

>  <origin>  (10) 
adg

>  <m_score__min__energy>  (10) 
-6.6299999999999999

>  <m_primary>  (10) 
energy

$$$$
10:0
     RDKit          3D

 47 51  0  0  0  0  0  0  0  0999 V2000
   59.4610   27.1260   48.2270 O   0  0  0  0  0  0  0  0  0  0  0  0
   59.1930   27.7980   47.1940 C   0  0  0  0  0  0  0  0  0  0  0  0
   59.5100   29.2450   47.1600 C   0  0  0  0  0  0  0  0  0  0  0  0
   60.7950   29.6800   46.7890 C   0  0  0  0  0  0  0  0  0  0  0  0
   61.0960   31.0460   46.7460 C   0  0  0  0  0  0  0  0  0  0  0  0
   60.1170   31.9900   47.0640 C   0  0  0  0  0  0  0  0  0  0  0  0
   60.4100   33.3120   47.0220 F   0  0  0  0  0  0  0  0  0  0  0  0
   58.8340   31.5690   47.4250 C   0  0  0  0  0  0  0  0  0  0  0  0
   58.5290   30.2060   47.4690 C   0  0  0  0  0  0  0  0  0  0  0  0
   58.6360   27.1260   46.0530 N   0  0  0  0  0  0  0  0  0  0  0  0
   58.1400   25.7950   46.0180 C   0  0  0  0  0  0  0  0  0  0  0  0
   58.0070   24.9180   47.0980 C   0  0  0  0  0  0  0  0  0  0  0  0
   57.5170   23.6240   46.8660 C   0  0  0  0  0  0  0  0  0  0  0  0
   57.3710   22.7550   47.9430 O   0  0  0  0  0  0  0  0  0  0  0  0
   57.1830   23.2130   45.5530 C   0  0  0  0  0  0  0  0  0  0  0  0
   56.6900   21.9200   45.2980 C   0  0  0  0  0  0  0  0  0  0  0  0
   56.3760   21.5260   43.9900 C   0  0  0  0  0  0  0  0  0  0  0  0
   55.8880   20.2460   43.7340 O   0  0  0  0  0  0  0  0  0  0  0  0
   56.5540   22.4180   42.9290 C   0  0  0  0  0  0  0  0  0  0  0  0
   57.0420   23.7050   43.1620 C   0  0  0  0  0  0  0  0  0  0  0  0
   57.3570   24.1150   44.4660 C   0  0  0  0  0  0  0  0  0  0  0  0
   57.8470   25.4020   44.7380 C   0  0  0  0  0  0  0  0  0  0  0  0
   58.1670   26.4990   43.7740 C   0  0  0  0  0  0  0  0  0  0  0  0
   58.7530   27.6180   44.6780 C   0  0  1  0  0  0  0  0  0  0  0  0
   58.0130   28.9300   44.5170 C   0  0  0  0  0  0  0  0  0  0  0  0
   58.7080   30.1160   44.2200 C   0  0  0  0  0  0  0  0  0  0  0  0
   58.0170   31.3190   44.0570 C   0  0  0  0  0  0  0  0  0  0  0  0
   56.6260   31.3510   44.1910 C   0  0  0  0  0  0  0  0  0  0  0  0
   55.9270   30.1780   44.4900 C   0  0  0  0  0  0  0  0  0  0  0  0
   56.6140   28.9720   44.6530 C   0  0  0  0  0  0  0  0  0  0  0  0
   61.5685   28.9417   46.5310 H   0  0  0  0  0  0  0  0  0  0  0  0
   62.1056   31.3769   46.4612 H   0  0  0  0  0  0  0  0  0  0  0  0
   58.0626   32.3123   47.6750 H   0  0  0  0  0  0  0  0  0  0  0  0
   57.5153   29.8818   47.7470 H   0  0  0  0  0  0  0  0  0  0  0  0
   58.2822   25.2373   48.1140 H   0  0  0  0  0  0  0  0  0  0  0  0
   56.5502   21.2142   46.1301 H   0  0  0  0  0  0  0  0  0  0  0  0
   56.5040   19.4430   43.6850 H   0  0  0  0  0  0  0  0  0  0  0  0
   56.3080   22.1040   41.9039 H   0  0  0  0  0  0  0  0  0  0  0  0
   57.1799   24.3998   42.3204 H   0  0  0  0  0  0  0  0  0  0  0  0
   58.9069   26.1661   43.0312 H   0  0  0  0  0  0  0  0  0  0  0  0
   57.2914   26.8301   43.1963 H   0  0  0  0  0  0  0  0  0  0  0  0
   59.7968   27.8279   44.4017 H   0  0  0  0  0  0  0  0  0  0  0  0
   59.8028   30.0962   44.1154 H   0  0  0  0  0  0  0  0  0  0  0  0
   58.5679   32.2419   43.8230 H   0  0  0  0  0  0  0  0  0  0  0  0
   56.0820   32.2982   44.0613 H   0  0  0  0  0  0  0  0  0  0  0  0
   54.8326   30.2043   44.5973 H   0  0  0  0  0  0  0  0  0  0  0  0
   56.0584   28.0523   44.8885 H   0  0  0  0  0  0  0  0  0  0  0  0
  1  2  2  0
  2  3  1  0
  3  4  2  0
  4  5  1  0
  5  6  2  0
  6  7  1  0
  6  8  1  0
  8  9  2  0
  2 10  1  0
 10 11  1  0
 11 12  2  0
 12 13  1  0
 13 14  1  0
 13 15  2  0
 15 16  1  0
 16 17  2  0
 17 18  1  0
 17 19  1  0
 19 20  2  0
 20 21  1  0
 21 22  2  0
 22 23  1  0
 23 24  1  0
 24 25  1  0
 25 26  2  0
 26 27  1  0
 27 28  2  0
 28 29  1  0
 29 30  2  0
  9  3  1  0
 24 10  1  0
 30 25  1  0
 22 11  1  0
 21 15  1  0
  4 31  1  0
  5 32  1  0
  8 33  1  0
  9 34  1  0
 12 35  1  0
 16 36  1  0
 18 37  1  0
 19 38  1  0
 20 39  1  0
 23 40  1  0
 23 41  1  0
 24 42  1  6
 26 43  1  0
 27 44  1  0
 28 45  1  0
 29 46  1  0
 30 47  1  0
M  CHG  1  14  -1
M  END
>  <UniqueID>  (11) 
11

>  <SMILES>  (11) 
O=C(c1ccc(F)cc1)N1c2cc([O-])c3cc(O)ccc3c2C[C@H]1c1ccccc1

>  <Energy>  (11) 
77.1235367040244

>  <Genealogy>  (11) 
O=C(c1ccc(F)cc1)N1c2cc([O-])c3cc(O)ccc3c2CC1c1ccccc1 (protonated)
O=C(c1ccc(F)cc1)N1c2cc([O-])c3cc(O)ccc3c2C[C@H]1c1ccccc1 (chirality)
O=C(c1ccc(F)cc1)N1c2cc([O-])c3cc(O)ccc3c2C[C@H]1c1ccccc1 (3D coordinates assigned)
O=C(c1ccc(F)cc1)N1c2cc([O-])c3cc(O)ccc3c2C[C@H]1c1ccccc1 (nonaromatic ring conformer: 77.1235367040244 kcal/mol)

>  <smiles>  (11) 
O=C(c1ccc(F)cc1)N1c2cc(O)c3cc(O)ccc3c2CC1c1ccccc1

>  <score_type>  (11) 
oracle

>  <origin>  (11) 
adg

>  <m_score__min__energy>  (11) 
-10.699999999999999

>  <m_primary>  (11) 
energy

$$$$
11:0
     RDKit          3D

 28 29  0  0  0  0  0  0  0  0999 V2000
   59.1200   34.3290   44.8350 C   0  0  0  0  0  0  0  0  0  0  0  0
   58.8890   33.2930   43.8880 O   0  0  0  0  0  0  0  0  0  0  0  0
   58.1480   32.1290   44.1490 C   0  0  0  0  0  0  0  0  0  0  0  0
   58.1400   31.5140   45.4170 C   0  0  0  0  0  0  0  0  0  0  0  0
   57.3840   30.3590   45.6360 C   0  0  0  0  0  0  0  0  0  0  0  0
   56.6140   29.8090   44.6070 C   0  0  0  0  0  0  0  0  0  0  0  0
   55.8600   28.6160   44.8650 N   0  0  0  0  0  0  0  0  0  0  0  0
   56.3020   27.4890   45.6320 C   0  0  0  0  0  0  0  0  0  0  0  0
   55.4580   26.6210   45.9780 O   0  0  0  0  0  0  0  0  0  0  0  0
   57.7210   27.2860   45.9770 C   0  0  0  0  0  0  0  0  0  0  0  0
   58.3010   27.2290   47.2400 C   0  0  0  0  0  0  0  0  0  0  0  0
   59.7020   27.0570   47.1980 C   0  0  0  0  0  0  0  0  0  0  0  0
   60.5350   26.9990   48.4370 C   0  0  0  0  0  0  0  0  0  0  0  0
   60.2660   27.0060   45.9630 N   0  0  0  0  0  0  0  0  0  0  0  0
   58.9920   27.1580   44.9070 S   0  0  0  0  0  0  0  0  0  0  0  0
   56.6410   30.4030   43.3350 C   0  0  0  0  0  0  0  0  0  0  0  0
   57.3940   31.5610   43.1100 C   0  0  0  0  0  0  0  0  0  0  0  0
   57.3890   32.2890   41.5110 Cl  0  0  0  0  0  0  0  0  0  0  0  0
   59.0293   33.9222   45.8530 H   0  0  0  0  0  0  0  0  0  0  0  0
   60.1313   34.7375   44.6922 H   0  0  0  0  0  0  0  0  0  0  0  0
   58.3781   35.1284   44.6922 H   0  0  0  0  0  0  0  0  0  0  0  0
   58.7315   31.9450   46.2382 H   0  0  0  0  0  0  0  0  0  0  0  0
   57.3950   29.8791   46.6257 H   0  0  0  0  0  0  0  0  0  0  0  0
   57.7274   27.3096   48.1752 H   0  0  0  0  0  0  0  0  0  0  0  0
   59.8815   27.0445   49.3207 H   0  0  0  0  0  0  0  0  0  0  0  0
   61.1060   26.0589   48.4513 H   0  0  0  0  0  0  0  0  0  0  0  0
   61.2308   27.8509   48.4513 H   0  0  0  0  0  0  0  0  0  0  0  0
   56.0668   29.9555   42.5104 H   0  0  0  0  0  0  0  0  0  0  0  0
  1  2  1  0
  2  3  1  0
  3  4  2  0
  4  5  1  0
  5  6  2  0
  6  7  1  0
  7  8  1  0
  8  9  2  0
  8 10  1  0
 10 11  2  0
 11 12  1  0
 12 13  1  0
 12 14  2  0
 14 15  1  0
  6 16  1  0
 16 17  2  0
 17 18  1  0
 17  3  1  0
 15 10  1  0
  1 19  1  0
  1 20  1  0
  1 21  1  0
  4 22  1  0
  5 23  1  0
 11 24  1  0
 13 25  1  0
 13 26  1  0
 13 27  1  0
 16 28  1  0
M  CHG  1   7  -1
M  END
>  <UniqueID>  (12) 
12

>  <SMILES>  (12) 
COc1ccc([N-]C(=O)c2cc(C)ns2)cc1Cl

>  <Energy>  (12) 
63.188130491235746

>  <Genealogy>  (12) 
COc1ccc([N-]C(=O)c2cc(C)ns2)cc1Cl (protonated)
COc1ccc([N-]C(=O)c2cc(C)ns2)cc1Cl (3D coordinates assigned)
COc1ccc([N-]C(=O)c2cc(C)ns2)cc1Cl (optimized conformer: 63.188130491235746 kcal/mol)

>  <smiles>  (12) 
COc1ccc(NC(=O)c2cc(C)ns2)cc1Cl

>  <score_type>  (12) 
oracle

>  <origin>  (12) 
adg

>  <m_score__min__energy>  (12) 
-8.1099999999999994

>  <m_primary>  (12) 
energy

$$$$
12:0
     RDKit          3D

 30 32  0  0  0  0  0  0  0  0999 V2000
   61.1960   30.0960   48.9340 C   0  0  0  0  0  0  0  0  0  0  0  0
   61.4940   30.5260   47.6380 C   0  0  0  0  0  0  0  0  0  0  0  0
   60.4970   30.5480   46.6590 C   0  0  0  0  0  0  0  0  0  0  0  0
   59.1900   30.1300   46.9680 C   0  0  0  0  0  0  0  0  0  0  0  0
   58.1280   30.1490   45.9340 C   0  0  0  0  0  0  0  0  0  0  0  0
   57.5430   28.9410   45.5300 C   0  0  0  0  0  0  0  0  0  0  0  0
   56.5100   28.9380   44.6510 N   0  0  0  0  0  0  0  0  0  0  0  0
   56.0250   30.0970   44.1420 C   0  0  0  0  0  0  0  0  0  0  0  0
   56.5810   31.2820   44.4980 N   0  0  0  0  0  0  0  0  0  0  0  0
   57.6250   31.3470   45.3690 C   0  0  0  0  0  0  0  0  0  0  0  0
   58.2090   32.6770   45.6580 C   0  0  0  0  0  0  0  0  0  0  0  0
   58.6880   33.4730   44.6050 C   0  0  0  0  0  0  0  0  0  0  0  0
   59.2510   34.7260   44.8670 C   0  0  0  0  0  0  0  0  0  0  0  0
   59.3540   35.1870   46.1820 C   0  0  0  0  0  0  0  0  0  0  0  0
   58.8990   34.3930   47.2380 C   0  0  0  0  0  0  0  0  0  0  0  0
   58.3360   33.1390   46.9800 C   0  0  0  0  0  0  0  0  0  0  0  0
   58.8960   29.7110   48.2770 C   0  0  0  0  0  0  0  0  0  0  0  0
   59.8970   29.6920   49.2530 C   0  0  0  0  0  0  0  0  0  0  0  0
   61.9832   30.0756   49.7020 H   0  0  0  0  0  0  0  0  0  0  0  0
   62.5157   30.8479   47.3880 H   0  0  0  0  0  0  0  0  0  0  0  0
   60.7354   30.8937   45.6423 H   0  0  0  0  0  0  0  0  0  0  0  0
   57.9242   27.9892   45.9284 H   0  0  0  0  0  0  0  0  0  0  0  0
   55.1791   30.0765   43.4391 H   0  0  0  0  0  0  0  0  0  0  0  0
   58.6200   33.1092   43.5691 H   0  0  0  0  0  0  0  0  0  0  0  0
   59.6133   35.3497   44.0365 H   0  0  0  0  0  0  0  0  0  0  0  0
   59.7932   36.1747   46.3859 H   0  0  0  0  0  0  0  0  0  0  0  0
   58.9837   34.7547   48.2734 H   0  0  0  0  0  0  0  0  0  0  0  0
   57.9910   32.5114   47.8149 H   0  0  0  0  0  0  0  0  0  0  0  0
   57.8739   29.3966   48.5348 H   0  0  0  0  0  0  0  0  0  0  0  0
   59.6613   29.3582   50.2743 H   0  0  0  0  0  0  0  0  0  0  0  0
  1  2  2  0
  2  3  1  0
  3  4  2  0
  4  5  1  0
  5  6  2  0
  6  7  1  0
  7  8  2  0
  8  9  1  0
  9 10  2  0
 10 11  1  0
 11 12  2  0
 12 13  1  0
 13 14  2  0
 14 15  1  0
 15 16  2  0
  4 17  1  0
 17 18  2  0
 18  1  1  0
 10  5  1  0
 16 11  1  0
  1 19  1  0
  2 20  1  0
  3 21  1  0
  6 22  1  0
  8 23  1  0
 12 24  1  0
 13 25  1  0
 14 26  1  0
 15 27  1  0
 16 28  1  0
 17 29  1  0
 18 30  1  0
M  END
>  <UniqueID>  (13) 
13

>  <SMILES>  (13) 
c1ccc(-c2cncnc2-c2ccccc2)cc1

>  <Energy>  (13) 
46.25007126402713

>  <Genealogy>  (13) 
c1ccc(-c2cncnc2-c2ccccc2)cc1 (3D coordinates assigned)
c1ccc(-c2cncnc2-c2ccccc2)cc1 (optimized conformer: 46.25007126402713 kcal/mol)

>  <smiles>  (13) 
c1ccc(-c2cncnc2-c2ccccc2)cc1

>  <score_type>  (13) 
oracle

>  <origin>  (13) 
adg

>  <m_score__min__energy>  (13) 
-6.6600000000000001

>  <m_primary>  (13) 
energy

$$$$
13:0
     RDKit          3D

 39 40  0  0  0  0  0  0  0  0999 V2000
   56.2810   29.4090   42.8790 C   0  0  0  0  0  0  0  0  0  0  0  0
   56.6820   29.5810   44.3660 C   0  0  2  0  0  0  0  0  0  0  0  0
   55.5490   30.0910   45.0360 O   0  0  0  0  0  0  0  0  0  0  0  0
   57.8020   30.6630   44.5520 C   0  0  0  0  0  0  0  0  0  0  0  0
   57.6010   31.8360   45.4580 N   0  0  0  0  0  0  0  0  0  0  0  0
   57.4010   33.1540   44.8060 C   0  0  0  0  0  0  0  0  0  0  0  0
   58.6030   34.0930   44.9610 C   0  0  0  0  0  0  0  0  0  0  0  0
   58.9600   34.1980   46.3190 O   0  0  0  0  0  0  0  0  0  0  0  0
   59.4920   32.9650   46.7390 C   0  0  0  0  0  0  0  0  0  0  0  0
   58.4330   31.8500   46.6960 C   0  0  0  0  0  0  0  0  0  0  0  0
   57.0360   28.2600   45.0160 C   0  0  0  0  0  0  0  0  0  0  0  0
   58.1970   27.7790   44.9090 O   0  0  0  0  0  0  0  0  0  0  0  0
   56.0100   27.5080   45.6750 N   0  0  0  0  0  0  0  0  0  0  0  0
   56.2380   26.2250   46.3270 C   0  0  0  0  0  0  0  0  0  0  0  0
   56.2460   25.1260   45.3130 C   0  0  0  0  0  0  0  0  0  0  0  0
   57.2540   24.8720   44.3920 C   0  0  0  0  0  0  0  0  0  0  0  0
   56.9560   23.8090   43.5300 C   0  0  0  0  0  0  0  0  0  0  0  0
   55.7140   23.2330   43.7640 C   0  0  0  0  0  0  0  0  0  0  0  0
   54.9850   24.0480   45.0420 S   0  0  0  0  0  0  0  0  0  0  0  0
   55.2716   28.9760   42.8192 H   0  0  0  0  0  0  0  0  0  0  0  0
   56.2894   30.3899   42.3812 H   0  0  0  0  0  0  0  0  0  0  0  0
   56.9974   28.7390   42.3812 H   0  0  0  0  0  0  0  0  0  0  0  0
   55.5140   29.7010   45.9500 H   0  0  0  0  0  0  0  0  0  0  0  0
   58.6911   30.1315   44.9221 H   0  0  0  0  0  0  0  0  0  0  0  0
   57.8505   31.1322   43.5583 H   0  0  0  0  0  0  0  0  0  0  0  0
   56.6440   31.6220   45.8340 H   0  0  0  0  0  0  0  0  0  0  0  0
   57.2217   32.9897   43.7332 H   0  0  0  0  0  0  0  0  0  0  0  0
   56.5439   33.6360   45.2991 H   0  0  0  0  0  0  0  0  0  0  0  0
   59.4540   33.6926   44.3905 H   0  0  0  0  0  0  0  0  0  0  0  0
   58.3343   35.0894   44.5802 H   0  0  0  0  0  0  0  0  0  0  0  0
   60.3262   32.6913   46.0763 H   0  0  0  0  0  0  0  0  0  0  0  0
   59.8366   33.0738   47.7779 H   0  0  0  0  0  0  0  0  0  0  0  0
   58.9496   30.8820   46.7740 H   0  0  0  0  0  0  0  0  0  0  0  0
   57.7453   32.0386   47.5336 H   0  0  0  0  0  0  0  0  0  0  0  0
   57.2077   26.2481   46.8458 H   0  0  0  0  0  0  0  0  0  0  0  0
   55.4300   26.0408   47.0504 H   0  0  0  0  0  0  0  0  0  0  0  0
   58.1906   25.4469   44.3444 H   0  0  0  0  0  0  0  0  0  0  0  0
   57.6410   23.4630   42.7420 H   0  0  0  0  0  0  0  0  0  0  0  0
   55.2811   22.3881   43.2084 H   0  0  0  0  0  0  0  0  0  0  0  0
  1  2  1  0
  2  3  1  1
  2  4  1  0
  4  5  1  0
  5  6  1  0
  6  7  1  0
  7  8  1  0
  8  9  1  0
  9 10  1  0
  2 11  1  0
 11 12  2  0
 11 13  1  0
 13 14  1  0
 14 15  1  0
 15 16  2  0
 16 17  1  0
 17 18  2  0
 18 19  1  0
 10  5  1  0
 19 15  1  0
  1 20  1  0
  1 21  1  0
  1 22  1  0
  3 23  1  0
  4 24  1  0
  4 25  1  0
  5 26  1  0
  6 27  1  0
  6 28  1  0
  7 29  1  0
  7 30  1  0
  9 31  1  0
  9 32  1  0
 10 33  1  0
 10 34  1  0
 14 35  1  0
 14 36  1  0
 16 37  1  0
 17 38  1  0
 18 39  1  0
M  CHG  2   5   1  13  -1
M  END
>  <UniqueID>  (14) 
14

>  <SMILES>  (14) 
C[C@](O)(C[NH+]1CCOCC1)C(=O)[N-]Cc1cccs1

>  <Energy>  (14) 
87.25707710291377

>  <Genealogy>  (14) 
CC(O)(C[NH+]1CCOCC1)C(=O)[N-]Cc1cccs1 (protonated)
C[C@](O)(C[NH+]1CCOCC1)C(=O)[N-]Cc1cccs1 (chirality)
C[C@](O)(C[NH+]1CCOCC1)C(=O)[N-]Cc1cccs1 (3D coordinates assigned)
C[C@](O)(C[NH+]1CCOCC1)C(=O)[N-]Cc1cccs1 (nonaromatic ring conformer: 87.25707710291377 kcal/mol)

>  <smiles>  (14) 
CC(O)(CN1CCOCC1)C(=O)NCc1cccs1

>  <score_type>  (14) 
oracle

>  <origin>  (14) 
adg

>  <m_score__min__energy>  (14) 
-6.9900000000000002

>  <m_primary>  (14) 
energy

$$$$
14:0
     RDKit          3D

 32 33  0  0  0  0  0  0  0  0999 V2000
   59.2690   33.8780   48.2600 C   0  0  0  0  0  0  0  0  0  0  0  0
   58.8680   33.6930   46.8250 C   0  0  0  0  0  0  0  0  0  0  0  0
   59.5990   34.3140   45.8030 C   0  0  0  0  0  0  0  0  0  0  0  0
   59.2470   34.1120   44.4660 C   0  0  0  0  0  0  0  0  0  0  0  0
   58.1750   33.2790   44.1390 C   0  0  0  0  0  0  0  0  0  0  0  0
   57.4450   32.6340   45.1550 C   0  0  0  0  0  0  0  0  0  0  0  0
   56.3500   31.7540   44.8660 N   0  0  0  0  0  0  0  0  0  0  0  0
   56.4990   30.0990   44.3710 S   0  0  0  0  0  0  0  0  0  0  0  0
   55.3080   29.3340   44.8700 O   0  0  0  0  0  0  0  0  0  0  0  0
   56.5310   30.0390   42.8690 O   0  0  0  0  0  0  0  0  0  0  0  0
   57.9600   29.3880   45.0520 C   0  0  0  0  0  0  0  0  0  0  0  0
   58.6350   29.9500   46.1460 C   0  0  0  0  0  0  0  0  0  0  0  0
   59.7720   29.2400   46.5080 C   0  0  0  0  0  0  0  0  0  0  0  0
   60.7440   29.6380   47.5680 C   0  0  0  0  0  0  0  0  0  0  0  0
   59.9610   27.9360   45.4630 S   0  0  0  0  0  0  0  0  0  0  0  0
   58.5690   28.2310   44.5620 C   0  0  0  0  0  0  0  0  0  0  0  0
   58.1380   27.4230   43.3820 C   0  0  0  0  0  0  0  0  0  0  0  0
   57.8020   32.8430   46.4930 C   0  0  0  0  0  0  0  0  0  0  0  0
   58.4669   33.5079   48.9155 H   0  0  0  0  0  0  0  0  0  0  0  0
   60.1932   33.3153   48.4579 H   0  0  0  0  0  0  0  0  0  0  0  0
   59.4407   34.9463   48.4579 H   0  0  0  0  0  0  0  0  0  0  0  0
   60.4518   34.9619   46.0541 H   0  0  0  0  0  0  0  0  0  0  0  0
   59.8164   34.6110   43.6680 H   0  0  0  0  0  0  0  0  0  0  0  0
   57.9004   33.1265   43.0848 H   0  0  0  0  0  0  0  0  0  0  0  0
   58.2980   30.8600   46.6640 H   0  0  0  0  0  0  0  0  0  0  0  0
   60.3011   29.4566   48.5584 H   0  0  0  0  0  0  0  0  0  0  0  0
   61.6640   29.0442   47.4635 H   0  0  0  0  0  0  0  0  0  0  0  0
   60.9834   30.7065   47.4635 H   0  0  0  0  0  0  0  0  0  0  0  0
   57.6466   26.5018   43.7282 H   0  0  0  0  0  0  0  0  0  0  0  0
   57.4325   28.0088   42.7744 H   0  0  0  0  0  0  0  0  0  0  0  0
   59.0175   27.1634   42.7744 H   0  0  0  0  0  0  0  0  0  0  0  0
   57.2411   32.3357   47.2918 H   0  0  0  0  0  0  0  0  0  0  0  0
  1  2  1  0
  2  3  2  0
  3  4  1  0
  4  5  2  0
  5  6  1  0
  6  7  1  0
  7  8  1  0
  8  9  2  0
  8 10  2  0
  8 11  1  0
 11 12  1  0
 12 13  2  0
 13 14  1  0
 13 15  1  0
 15 16  1  0
 16 17  1  0
  6 18  2  0
 18  2  1  0
 16 11  2  0
  1 19  1  0
  1 20  1  0
  1 21  1  0
  3 22  1  0
  4 23  1  0
  5 24  1  0
 12 25  1  0
 14 26  1  0
 14 27  1  0
 14 28  1  0
 17 29  1  0
 17 30  1  0
 17 31  1  0
 18 32  1  0
M  CHG  1   7  -1
M  END
>  <UniqueID>  (15) 
15

>  <SMILES>  (15) 
Cc1cccc([N-]S(=O)(=O)c2cc(C)sc2C)c1

>  <Energy>  (15) 
57.48389642494858

>  <Genealogy>  (15) 
Cc1cccc([N-]S(=O)(=O)c2cc(C)sc2C)c1 (protonated)
Cc1cccc([N-]S(=O)(=O)c2cc(C)sc2C)c1 (3D coordinates assigned)
Cc1cccc([N-]S(=O)(=O)c2cc(C)sc2C)c1 (optimized conformer: 57.48389642494858 kcal/mol)

>  <smiles>  (15) 
Cc1cccc(NS(=O)(=O)c2cc(C)sc2C)c1

>  <score_type>  (15) 
oracle

>  <origin>  (15) 
adg

>  <m_score__min__energy>  (15) 
-9.1099999999999994

>  <m_primary>  (15) 
energy

$$$$
15:0
     RDKit          3D

 31 32  0  0  0  0  0  0  0  0999 V2000
   62.7770   34.4690   49.1350 O   0  0  0  0  0  0  0  0  0  0  0  0
   61.9670   33.8870   48.3650 C   0  0  0  0  0  0  0  0  0  0  0  0
   60.8900   34.5550   47.8770 N   0  0  0  0  0  0  0  0  0  0  0  0
   59.9980   33.9480   47.0450 C   0  0  0  0  0  0  0  0  0  0  0  0
   59.0130   34.6130   46.6250 O   0  0  0  0  0  0  0  0  0  0  0  0
   60.1730   32.6310   46.6760 N   0  0  0  0  0  0  0  0  0  0  0  0
   59.2360   31.9210   45.7690 C   0  0  2  0  0  0  0  0  0  0  0  0
   57.7630   32.3320   46.0190 C   0  0  0  0  0  0  0  0  0  0  0  0
   56.7870   31.6830   45.2060 O   0  0  0  0  0  0  0  0  0  0  0  0
   57.2710   30.5690   44.4660 C   0  0  2  0  0  0  0  0  0  0  0  0
   56.0810   29.8130   43.8570 C   0  0  0  0  0  0  0  0  0  0  0  0
   55.1410   29.4780   44.8450 O   0  0  0  0  0  0  0  0  0  0  0  0
   58.1820   29.6350   45.3070 C   0  0  2  0  0  0  0  0  0  0  0  0
   57.4780   29.0450   46.3740 O   0  0  0  0  0  0  0  0  0  0  0  0
   59.4270   30.3910   45.8230 C   0  0  0  0  0  0  0  0  0  0  0  0
   61.2540   31.9440   47.1630 C   0  0  0  0  0  0  0  0  0  0  0  0
   62.1690   32.5570   48.0150 C   0  0  0  0  0  0  0  0  0  0  0  0
   63.2360   31.8660   48.4890 F   0  0  0  0  0  0  0  0  0  0  0  0
   60.7430   35.5540   48.1470 H   0  0  0  0  0  0  0  0  0  0  0  0
   59.4844   32.2360   44.7448 H   0  0  0  0  0  0  0  0  0  0  0  0
   57.5258   32.1119   47.0703 H   0  0  0  0  0  0  0  0  0  0  0  0
   57.7042   33.3991   45.7587 H   0  0  0  0  0  0  0  0  0  0  0  0
   57.9133   30.9468   43.6568 H   0  0  0  0  0  0  0  0  0  0  0  0
   55.5979   30.4504   43.1017 H   0  0  0  0  0  0  0  0  0  0  0  0
   56.4524   28.8856   43.3967 H   0  0  0  0  0  0  0  0  0  0  0  0
   55.3000   30.0810   45.6170 H   0  0  0  0  0  0  0  0  0  0  0  0
   58.5209   28.8252   44.6441 H   0  0  0  0  0  0  0  0  0  0  0  0
   56.5670   29.4350   46.3920 H   0  0  0  0  0  0  0  0  0  0  0  0
   59.6172   30.0932   46.8647 H   0  0  0  0  0  0  0  0  0  0  0  0
   60.2763   30.1309   45.1741 H   0  0  0  0  0  0  0  0  0  0  0  0
   61.4012   30.8922   46.8765 H   0  0  0  0  0  0  0  0  0  0  0  0
  1  2  2  0
  2  3  1  0
  3  4  1  0
  4  5  2  0
  4  6  1  0
  6  7  1  0
  7  8  1  0
  8  9  1  0
  9 10  1  0
 10 11  1  0
 11 12  1  0
 10 13  1  0
 13 14  1  0
 13 15  1  0
  6 16  1  0
 16 17  2  0
 17 18  1  0
 17  2  1  0
 15  7  1  0
  3 19  1  0
  7 20  1  6
  8 21  1  0
  8 22  1  0
 10 23  1  6
 11 24  1  0
 11 25  1  0
 12 26  1  0
 13 27  1  6
 14 28  1  0
 15 29  1  0
 15 30  1  0
 16 31  1  0
M  END
>  <UniqueID>  (16) 
16

>  <SMILES>  (16) 
O=c1[nH]c(=O)n([C@@H]2CO[C@H](CO)C(O)C2)cc1F

>  <Energy>  (16) 
49.25433852444619

>  <Genealogy>  (16) 
O=c1[nH]c(=O)n([C@@H]2CO[C@H](CO)C(O)C2)cc1F (chirality)
O=c1[nH]c(=O)n([C@@H]2CO[C@H](CO)C(O)C2)cc1F (3D coordinates assigned)
O=c1[nH]c(=O)n([C@@H]2CO[C@H](CO)C(O)C2)cc1F (nonaromatic ring conformer: 49.25433852444619 kcal/mol)

>  <smiles>  (16) 
O=c1[nH]c(=O)n(C2COC(CO)C(O)C2)cc1F

>  <score_type>  (16) 
oracle

>  <origin>  (16) 
adg

>  <m_score__min__energy>  (16) 
-5.9800000000000004

>  <m_primary>  (16) 
energy

$$$$
16:0
     RDKit          3D

 40 42  0  0  0  0  0  0  0  0999 V2000
   65.2080   32.3470   50.4070 C   0  0  0  0  0  0  0  0  0  0  0  0
   64.3040   33.4280   50.1990 O   0  0  0  0  0  0  0  0  0  0  0  0
   63.4320   33.5350   49.1050 C   0  0  0  0  0  0  0  0  0  0  0  0
   63.8870   33.4510   47.7750 C   0  0  0  0  0  0  0  0  0  0  0  0
   62.9880   33.5560   46.7120 C   0  0  0  0  0  0  0  0  0  0  0  0
   61.6180   33.7320   46.9580 C   0  0  0  0  0  0  0  0  0  0  0  0
   60.6640   33.8640   45.8920 N   0  0  0  0  0  0  0  0  0  0  0  0
   59.4900   34.6840   45.8960 C   0  0  0  0  0  0  0  0  0  0  0  0
   59.3410   35.5990   46.7490 O   0  0  0  0  0  0  0  0  0  0  0  0
   58.4330   34.4570   44.8660 C   0  0  0  0  0  0  0  0  0  0  0  0
   57.0230   33.5990   45.6310 S   0  0  0  0  0  0  0  0  0  0  0  0
   57.7960   31.9890   45.5090 C   0  0  0  0  0  0  0  0  0  0  0  0
   59.1120   31.7650   45.6490 N   0  0  0  0  0  0  0  0  0  0  0  0
   59.3120   30.4670   45.4980 N   0  0  0  0  0  0  0  0  0  0  0  0
   58.0900   29.9430   45.2680 C   0  0  0  0  0  0  0  0  0  0  0  0
   57.8390   28.5170   45.0420 C   0  0  0  0  0  0  0  0  0  0  0  0
   58.4010   27.7480   44.0450 C   0  0  0  0  0  0  0  0  0  0  0  0
   57.8810   26.4840   44.2170 C   0  0  0  0  0  0  0  0  0  0  0  0
   57.0370   26.5620   45.3080 C   0  0  0  0  0  0  0  0  0  0  0  0
   57.0330   27.7880   45.7780 O   0  0  0  0  0  0  0  0  0  0  0  0
   57.1560   30.8700   45.2730 O   0  0  0  0  0  0  0  0  0  0  0  0
   61.1670   33.8450   48.2770 C   0  0  0  0  0  0  0  0  0  0  0  0
   62.0660   33.7380   49.3570 C   0  0  0  0  0  0  0  0  0  0  0  0
   61.6420   33.8290   50.6920 O   0  0  0  0  0  0  0  0  0  0  0  0
   60.3450   33.4610   51.1540 C   0  0  0  0  0  0  0  0  0  0  0  0
   65.3435   32.1849   51.4865 H   0  0  0  0  0  0  0  0  0  0  0  0
   64.8003   31.4345   49.9476 H   0  0  0  0  0  0  0  0  0  0  0  0
   66.1783   32.5868   49.9476 H   0  0  0  0  0  0  0  0  0  0  0  0
   64.9578   33.3017   47.5723 H   0  0  0  0  0  0  0  0  0  0  0  0
   63.3556   33.5005   45.6767 H   0  0  0  0  0  0  0  0  0  0  0  0
   58.0995   35.4244   44.4623 H   0  0  0  0  0  0  0  0  0  0  0  0
   58.8398   33.8422   44.0496 H   0  0  0  0  0  0  0  0  0  0  0  0
   59.8580   32.4690   45.8440 H   0  0  0  0  0  0  0  0  0  0  0  0
   59.1145   28.0751   43.2743 H   0  0  0  0  0  0  0  0  0  0  0  0
   58.0946   25.5928   43.6087 H   0  0  0  0  0  0  0  0  0  0  0  0
   56.4562   25.7238   45.7205 H   0  0  0  0  0  0  0  0  0  0  0  0
   60.0988   34.0193   48.4736 H   0  0  0  0  0  0  0  0  0  0  0  0
   60.3347   33.4581   52.2539 H   0  0  0  0  0  0  0  0  0  0  0  0
   59.6044   34.1845   50.7823 H   0  0  0  0  0  0  0  0  0  0  0  0
   60.0947   32.4564   50.7823 H   0  0  0  0  0  0  0  0  0  0  0  0
  1  2  1  0
  2  3  1  0
  3  4  2  0
  4  5  1  0
  5  6  2  0
  6  7  1  0
  7  8  1  0
  8  9  2  0
  8 10  1  0
 10 11  1  0
 11 12  1  0
 12 13  2  0
 13 14  1  0
 14 15  2  0
 15 16  1  0
 16 17  2  0
 17 18  1  0
 18 19  2  0
 19 20  1  0
 15 21  1  0
  6 22  1  0
 22 23  2  0
 23 24  1  0
 24 25  1  0
 23  3  1  0
 21 12  1  0
 20 16  1  0
  1 26  1  0
  1 27  1  0
  1 28  1  0
  4 29  1  0
  5 30  1  0
 10 31  1  0
 10 32  1  0
 13 33  1  0
 17 34  1  0
 18 35  1  0
 19 36  1  0
 22 37  1  0
 25 38  1  0
 25 39  1  0
 25 40  1  0
M  CHG  2   7  -1  13   1
M  END
>  <UniqueID>  (17) 
17

>  <SMILES>  (17) 
COc1ccc([N-]C(=O)CSc2[nH+]nc(-c3ccco3)o2)cc1OC

>  <Energy>  (17) 
99.5988617726928

>  <Genealogy>  (17) 
COc1ccc([N-]C(=O)CSc2[nH+]nc(-c3ccco3)o2)cc1OC (protonated)
COc1ccc([N-]C(=O)CSc2[nH+]nc(-c3ccco3)o2)cc1OC (3D coordinates assigned)
COc1ccc([N-]C(=O)CSc2[nH+]nc(-c3ccco3)o2)cc1OC (optimized conformer: 99.5988617726928 kcal/mol)

>  <smiles>  (17) 
COc1ccc(NC(=O)CSc2nnc(-c3ccco3)o2)cc1OC

>  <score_type>  (17) 
oracle

>  <origin>  (17) 
adg

>  <m_score__min__energy>  (17) 
-8.3100000000000005

>  <m_primary>  (17) 
energy

$$$$
17:0
     RDKit          3D

 40 43  0  0  0  0  0  0  0  0999 V2000
   61.9310   31.3840   49.6760 O   0  0  0  0  0  0  0  0  0  0  0  0
   62.0940   31.2880   48.4310 C   0  0  0  0  0  0  0  0  0  0  0  0
   62.7010   32.4470   47.6860 C   0  0  0  0  0  0  0  0  0  0  0  0
   62.0550   34.0440   48.2950 S   0  0  0  0  0  0  0  0  0  0  0  0
   60.3210   33.5510   48.2070 C   0  0  0  0  0  0  0  0  0  0  0  0
   59.7820   32.8800   49.2620 N   0  0  0  0  0  0  0  0  0  0  0  0
   58.4900   32.4570   49.2440 C   0  0  0  0  0  0  0  0  0  0  0  0
   57.7050   32.7030   48.1660 N   0  0  0  0  0  0  0  0  0  0  0  0
   58.1830   33.3800   47.0910 C   0  0  0  0  0  0  0  0  0  0  0  0
   57.3480   33.6260   45.9950 C   0  0  0  0  0  0  0  0  0  0  0  0
   57.8320   34.3320   44.8910 C   0  0  0  0  0  0  0  0  0  0  0  0
   59.1480   34.8010   44.8800 C   0  0  0  0  0  0  0  0  0  0  0  0
   59.9910   34.5610   45.9710 C   0  0  0  0  0  0  0  0  0  0  0  0
   59.5190   33.8380   47.0830 C   0  0  0  0  0  0  0  0  0  0  0  0
   61.6140   30.1150   47.7610 N   0  0  0  0  0  0  0  0  0  0  0  0
   60.3300   29.9610   47.1470 C   0  0  0  0  0  0  0  0  0  0  0  0
   59.4150   29.0520   47.6990 C   0  0  0  0  0  0  0  0  0  0  0  0
   58.1620   28.8610   47.1070 C   0  0  0  0  0  0  0  0  0  0  0  0
   57.8300   29.5600   45.9430 C   0  0  0  0  0  0  0  0  0  0  0  0
   58.7420   30.4650   45.3830 C   0  0  0  0  0  0  0  0  0  0  0  0
   59.9990   30.6460   45.9660 C   0  0  0  0  0  0  0  0  0  0  0  0
   58.3770   31.1730   44.2330 O   0  0  0  0  0  0  0  0  0  0  0  0
   57.0180   31.2110   43.7900 C   0  0  0  0  0  0  0  0  0  0  0  0
   56.3550   29.8410   43.9910 C   0  0  0  0  0  0  0  0  0  0  0  0
   56.5950   29.3630   45.3170 O   0  0  0  0  0  0  0  0  0  0  0  0
   63.7924   32.4274   47.8218 H   0  0  0  0  0  0  0  0  0  0  0  0
   62.4378   32.3504   46.6223 H   0  0  0  0  0  0  0  0  0  0  0  0
   60.3680   32.6740   50.1010 H   0  0  0  0  0  0  0  0  0  0  0  0
   58.0798   31.9129   50.1075 H   0  0  0  0  0  0  0  0  0  0  0  0
   56.3096   33.2631   46.0029 H   0  0  0  0  0  0  0  0  0  0  0  0
   57.1755   34.5191   44.0284 H   0  0  0  0  0  0  0  0  0  0  0  0
   59.5229   35.3610   44.0106 H   0  0  0  0  0  0  0  0  0  0  0  0
   61.0243   34.9380   45.9597 H   0  0  0  0  0  0  0  0  0  0  0  0
   59.6845   28.4860   48.6029 H   0  0  0  0  0  0  0  0  0  0  0  0
   57.4403   28.1629   47.5561 H   0  0  0  0  0  0  0  0  0  0  0  0
   60.7290   31.3245   45.5004 H   0  0  0  0  0  0  0  0  0  0  0  0
   56.4687   31.9686   44.3682 H   0  0  0  0  0  0  0  0  0  0  0  0
   56.9968   31.4659   42.7202 H   0  0  0  0  0  0  0  0  0  0  0  0
   55.2709   29.9354   43.8300 H   0  0  0  0  0  0  0  0  0  0  0  0
   56.7823   29.1277   43.2708 H   0  0  0  0  0  0  0  0  0  0  0  0
  1  2  2  0
  2  3  1  0
  3  4  1  0
  4  5  1  0
  5  6  2  0
  6  7  1  0
  7  8  2  0
  8  9  1  0
  9 10  2  0
 10 11  1  0
 11 12  2  0
 12 13  1  0
 13 14  2  0
  2 15  1  0
 15 16  1  0
 16 17  2  0
 17 18  1  0
 18 19  2  0
 19 20  1  0
 20 21  2  0
 20 22  1  0
 22 23  1  0
 23 24  1  0
 24 25  1  0
 14  5  1  0
 21 16  1  0
 14  9  1  0
 25 19  1  0
  3 26  1  0
  3 27  1  0
  6 28  1  0
  7 29  1  0
 10 30  1  0
 11 31  1  0
 12 32  1  0
 13 33  1  0
 17 34  1  0
 18 35  1  0
 21 36  1  0
 23 37  1  0
 23 38  1  0
 24 39  1  0
 24 40  1  0
M  CHG  2   6   1  15  -1
M  END
>  <UniqueID>  (18) 
18

>  <SMILES>  (18) 
O=C(CSc1[nH+]cnc2ccccc12)[N-]c1ccc2c(c1)OCCO2

>  <Energy>  (18) 
49.5462624162803

>  <Genealogy>  (18) 
O=C(CSc1[nH+]cnc2ccccc12)[N-]c1ccc2c(c1)OCCO2 (protonated)
O=C(CSc1[nH+]cnc2ccccc12)[N-]c1ccc2c(c1)OCCO2 (3D coordinates assigned)
O=C(CSc1[nH+]cnc2ccccc12)[N-]c1ccc2c(c1)OCCO2 (nonaromatic ring conformer: 49.5462624162803 kcal/mol)

>  <smiles>  (18) 
O=C(CSc1ncnc2ccccc12)Nc1ccc2c(c1)OCCO2

>  <score_type>  (18) 
oracle

>  <origin>  (18) 
adg

>  <m_score__min__energy>  (18) 
-8.9499999999999993

>  <m_primary>  (18) 
energy

$$$$
18:0
     RDKit          3D

 46 49  0  0  0  0  0  0  0  0999 V2000
   54.3400   28.9600   44.5220 H   0  0  0  0  0  0  0  0  0  0  0  0
   55.1580   29.3420   43.9960 N   0  0  0  0  0  0  0  0  0  0  0  0
   56.2140   29.8570   44.5550 C   0  0  0  0  0  0  0  0  0  0  0  0
   57.0420   29.1000   45.4140 C   0  0  0  0  0  0  0  0  0  0  0  0
   56.7560   27.7040   45.6790 C   0  0  0  0  0  0  0  0  0  0  0  0
   56.5290   26.5890   45.8930 N   0  0  0  0  0  0  0  0  0  0  0  0
   58.1730   29.7130   45.9940 C   0  0  0  0  0  0  0  0  0  0  0  0
   59.0700   28.9280   46.8750 C   0  0  0  0  0  0  0  0  0  0  0  0
   59.1390   29.2120   48.2480 C   0  0  0  0  0  0  0  0  0  0  0  0
   58.5276   30.0217   48.6729 H   0  0  0  0  0  0  0  0  0  0  0  0
   59.9850   28.4660   49.0770 C   0  0  0  0  0  0  0  0  0  0  0  0
   60.0374   28.6901   50.1526 H   0  0  0  0  0  0  0  0  0  0  0  0
   60.7630   27.4370   48.5400 C   0  0  0  0  0  0  0  0  0  0  0  0
   61.4259   26.8512   49.1937 H   0  0  0  0  0  0  0  0  0  0  0  0
   60.7000   27.1510   47.1730 C   0  0  0  0  0  0  0  0  0  0  0  0
   61.3151   26.3421   46.7518 H   0  0  0  0  0  0  0  0  0  0  0  0
   59.8550   27.8930   46.3400 C   0  0  0  0  0  0  0  0  0  0  0  0
   59.8054   27.6655   45.2649 H   0  0  0  0  0  0  0  0  0  0  0  0
   58.4460   31.0740   45.7250 C   0  0  0  0  0  0  0  0  0  0  0  0
   57.6070   31.7750   44.8360 C   0  0  0  0  0  0  0  0  0  0  0  0
   56.5200   31.1570   44.2960 N   0  0  0  0  0  0  0  0  0  0  0  0
   55.8950   31.7030   43.6590 H   0  0  0  0  0  0  0  0  0  0  0  0
   57.8320   33.2330   44.5260 C   0  0  0  0  0  0  0  0  0  0  0  0
   57.0425   33.8212   45.0166 H   0  0  0  0  0  0  0  0  0  0  0  0
   57.8078   33.3434   43.4318 H   0  0  0  0  0  0  0  0  0  0  0  0
   59.1950   33.7470   45.0080 C   0  0  0  0  0  0  0  0  0  0  0  0
   59.1610   34.8455   45.0551 H   0  0  0  0  0  0  0  0  0  0  0  0
   59.9554   33.3956   44.2951 H   0  0  0  0  0  0  0  0  0  0  0  0
   59.5570   33.2270   46.3420 N   0  0  0  0  0  0  0  0  0  0  0  0
   58.6620   33.6850   47.4280 C   0  0  0  0  0  0  0  0  0  0  0  0
   58.5738   34.7806   47.3835 H   0  0  0  0  0  0  0  0  0  0  0  0
   57.6774   33.2133   47.2931 H   0  0  0  0  0  0  0  0  0  0  0  0
   59.2030   33.2890   48.7760 C   0  0  0  0  0  0  0  0  0  0  0  0
   60.3980   33.8490   49.2590 C   0  0  0  0  0  0  0  0  0  0  0  0
   60.9369   34.5949   48.6563 H   0  0  0  0  0  0  0  0  0  0  0  0
   60.9040   33.4610   50.5030 C   0  0  0  0  0  0  0  0  0  0  0  0
   61.8387   33.9036   50.8778 H   0  0  0  0  0  0  0  0  0  0  0  0
   60.2240   32.5110   51.2720 C   0  0  0  0  0  0  0  0  0  0  0  0
   60.6228   32.2079   52.2513 H   0  0  0  0  0  0  0  0  0  0  0  0
   59.0370   31.9470   50.7950 C   0  0  0  0  0  0  0  0  0  0  0  0
   58.5032   31.1985   51.3990 H   0  0  0  0  0  0  0  0  0  0  0  0
   58.5270   32.3330   49.5510 C   0  0  0  0  0  0  0  0  0  0  0  0
   57.5933   31.8862   49.1787 H   0  0  0  0  0  0  0  0  0  0  0  0
   59.6750   31.7560   46.3070 C   0  0  0  0  0  0  0  0  0  0  0  0
   59.8243   31.3919   47.3342 H   0  0  0  0  0  0  0  0  0  0  0  0
   60.5267   31.5100   45.6558 H   0  0  0  0  0  0  0  0  0  0  0  0
  1  2  1  0
  2  3  2  0
  3  4  1  0
  4  5  1  0
  5  6  3  0
  4  7  2  0
  7  8  1  0
  8  9  2  0
  9 10  1  0
  9 11  1  0
 11 12  1  0
 11 13  2  0
 13 14  1  0
 13 15  1  0
 15 16  1  0
 15 17  2  0
 17 18  1  0
  7 19  1  0
 19 20  2  0
 20 21  1  0
 21 22  1  0
 20 23  1  0
 23 24  1  0
 23 25  1  0
 23 26  1  0
 26 27  1  0
 26 28  1  0
 26 29  1  0
 29 30  1  0
 30 31  1  0
 30 32  1  0
 30 33  1  0
 33 34  2  0
 34 35  1  0
 34 36  1  0
 36 37  1  0
 36 38  2  0
 38 39  1  0
 38 40  1  0
 40 41  1  0
 40 42  2  0
 42 43  1  0
 29 44  1  0
 44 45  1  0
 44 46  1  0
 21  3  1  0
 42 33  1  0
 17  8  1  0
 44 19  1  0
M  END
>  <UniqueID>  (19) 
19

>  <SMILES>  (19) 
[H]/N=c1/[nH]c2c(c(-c3ccccc3)c1C#N)CN(Cc1ccccc1)CC2

>  <Energy>  (19) 
67.82552557570811

>  <Genealogy>  (19) 
[H]/N=c1/[nH]c2c(c(-c3ccccc3)c1C#N)CN(Cc1ccccc1)CC2 (cis-trans isomerization)
[H]/N=c1/[nH]c2c(c(-c3ccccc3)c1C#N)CN(Cc1ccccc1)CC2 (3D coordinates assigned)
[H]/N=c1/[nH]c2c(c(-c3ccccc3)c1C#N)CN(Cc1ccccc1)CC2 (nonaromatic ring conformer: 67.82552557570811 kcal/mol)

>  <smiles>  (19) 
N#Cc1c(-c2ccccc2)c2c([nH]c1=N)CCN(Cc1ccccc1)C2

>  <score_type>  (19) 
oracle

>  <origin>  (19) 
adg

>  <m_score__min__energy>  (19) 
-7.79

>  <m_primary>  (19) 
energy

$$$$
19:0
     RDKit          3D

 28 29  0  0  0  0  0  0  0  0999 V2000
   59.7160   34.6020   49.0530 C   0  0  0  0  0  0  0  0  0  0  0  0
   59.3390   34.0840   47.6970 C   0  0  0  0  0  0  0  0  0  0  0  0
   60.0120   34.5380   46.5530 C   0  0  0  0  0  0  0  0  0  0  0  0
   59.6350   34.0840   45.2860 C   0  0  0  0  0  0  0  0  0  0  0  0
   58.5730   33.1840   45.1510 C   0  0  0  0  0  0  0  0  0  0  0  0
   58.0840   32.6080   43.5250 S   0  0  0  0  0  0  0  0  0  0  0  0
   57.5150   31.0280   44.1530 C   0  0  0  0  0  0  0  0  0  0  0  0
   56.1540   30.7070   44.1160 C   0  0  0  0  0  0  0  0  0  0  0  0
   55.7110   29.4730   44.6020 C   0  0  0  0  0  0  0  0  0  0  0  0
   56.6280   28.5520   45.1280 C   0  0  0  0  0  0  0  0  0  0  0  0
   56.1750   27.2890   45.6240 N   0  0  0  0  0  0  0  0  0  0  0  0
   57.9910   28.8780   45.1680 C   0  0  0  0  0  0  0  0  0  0  0  0
   58.4330   30.1120   44.6820 C   0  0  0  0  0  0  0  0  0  0  0  0
   57.8890   32.7370   46.2880 C   0  0  0  0  0  0  0  0  0  0  0  0
   58.2650   33.1900   47.5560 C   0  0  0  0  0  0  0  0  0  0  0  0
   59.2564   33.9705   49.8276 H   0  0  0  0  0  0  0  0  0  0  0  0
   60.8102   34.5792   49.1630 H   0  0  0  0  0  0  0  0  0  0  0  0
   59.3579   35.6362   49.1630 H   0  0  0  0  0  0  0  0  0  0  0  0
   60.8404   35.2547   46.6535 H   0  0  0  0  0  0  0  0  0  0  0  0
   60.1743   34.4350   44.3938 H   0  0  0  0  0  0  0  0  0  0  0  0
   55.4311   31.4265   43.7039 H   0  0  0  0  0  0  0  0  0  0  0  0
   54.6400   29.2241   44.5716 H   0  0  0  0  0  0  0  0  0  0  0  0
   55.9150   27.1710   46.6290 H   0  0  0  0  0  0  0  0  0  0  0  0
   56.0960   26.4630   44.9890 H   0  0  0  0  0  0  0  0  0  0  0  0
   58.7146   28.1609   45.5829 H   0  0  0  0  0  0  0  0  0  0  0  0
   59.5033   30.3639   44.7151 H   0  0  0  0  0  0  0  0  0  0  0  0
   57.0544   32.0282   46.1834 H   0  0  0  0  0  0  0  0  0  0  0  0
   57.7181   32.8452   48.4459 H   0  0  0  0  0  0  0  0  0  0  0  0
  1  2  1  0
  2  3  2  0
  3  4  1  0
  4  5  2  0
  5  6  1  0
  6  7  1  0
  7  8  2  0
  8  9  1  0
  9 10  2  0
 10 11  1  0
 10 12  1  0
 12 13  2  0
  5 14  1  0
 14 15  2  0
 15  2  1  0
 13  7  1  0
  1 16  1  0
  1 17  1  0
  1 18  1  0
  3 19  1  0
  4 20  1  0
  8 21  1  0
  9 22  1  0
 11 23  1  0
 11 24  1  0
 12 25  1  0
 13 26  1  0
 14 27  1  0
 15 28  1  0
M  END
>  <UniqueID>  (20) 
20

>  <SMILES>  (20) 
Cc1ccc(Sc2ccc(N)cc2)cc1

>  <Energy>  (20) 
22.002823531612453

>  <Genealogy>  (20) 
Cc1ccc(Sc2ccc(N)cc2)cc1 (3D coordinates assigned)
Cc1ccc(Sc2ccc(N)cc2)cc1 (optimized conformer: 22.002823531612453 kcal/mol)

>  <smiles>  (20) 
Cc1ccc(Sc2ccc(N)cc2)cc1

>  <score_type>  (20) 
oracle

>  <origin>  (20) 
adg

>  <m_score__min__energy>  (20) 
-6.5700000000000003

>  <m_primary>  (20) 
energy

$$$$
20:0
     RDKit          3D

 37 39  0  0  0  0  0  0  0  0999 V2000
   62.7390   33.9160   46.3780 C   0  0  0  0  0  0  0  0  0  0  0  0
   62.8540   32.9890   47.5450 C   0  0  0  0  0  0  0  0  0  0  0  0
   63.9700   32.3040   47.8580 N   0  0  0  0  0  0  0  0  0  0  0  0
   63.7280   31.5920   48.9180 O   0  0  0  0  0  0  0  0  0  0  0  0
   62.4930   31.7810   49.3290 C   0  0  0  0  0  0  0  0  0  0  0  0
   61.8920   31.0870   50.5040 C   0  0  0  0  0  0  0  0  0  0  0  0
   61.8780   32.6870   48.4790 C   0  0  0  0  0  0  0  0  0  0  0  0
   60.2130   33.2680   48.5340 S   0  0  0  0  0  0  0  0  0  0  0  0
   59.3710   32.3220   49.3410 O   0  0  0  0  0  0  0  0  0  0  0  0
   60.1700   34.6010   49.2280 O   0  0  0  0  0  0  0  0  0  0  0  0
   59.6130   33.4650   46.9040 N   0  0  0  0  0  0  0  0  0  0  0  0
   59.5180   34.8610   46.4430 C   0  0  0  0  0  0  0  0  0  0  0  0
   58.9940   34.9760   45.0090 C   0  0  0  0  0  0  0  0  0  0  0  0
   57.7280   34.1400   44.8430 C   0  0  0  0  0  0  0  0  0  0  0  0
   58.0310   32.7030   45.1590 C   0  0  0  0  0  0  0  0  0  0  0  0
   57.3730   31.6790   44.4610 C   0  0  0  0  0  0  0  0  0  0  0  0
   57.6940   30.3430   44.7080 C   0  0  0  0  0  0  0  0  0  0  0  0
   58.6810   30.0260   45.6390 C   0  0  0  0  0  0  0  0  0  0  0  0
   59.3270   31.0380   46.3530 C   0  0  0  0  0  0  0  0  0  0  0  0
   58.9770   32.3900   46.1610 C   0  0  0  0  0  0  0  0  0  0  0  0
   62.6111   34.9469   46.7398 H   0  0  0  0  0  0  0  0  0  0  0  0
   63.6519   33.8522   45.7677 H   0  0  0  0  0  0  0  0  0  0  0  0
   61.8693   33.6311   45.7677 H   0  0  0  0  0  0  0  0  0  0  0  0
   64.8810   32.3200   47.3470 H   0  0  0  0  0  0  0  0  0  0  0  0
   62.2792   31.5341   51.4314 H   0  0  0  0  0  0  0  0  0  0  0  0
   60.7978   31.1954   50.4737 H   0  0  0  0  0  0  0  0  0  0  0  0
   62.1557   30.0195   50.4737 H   0  0  0  0  0  0  0  0  0  0  0  0
   58.8359   35.4066   47.1116 H   0  0  0  0  0  0  0  0  0  0  0  0
   60.5323   35.2863   46.4609 H   0  0  0  0  0  0  0  0  0  0  0  0
   58.7656   36.0293   44.7888 H   0  0  0  0  0  0  0  0  0  0  0  0
   59.7627   34.6058   44.3147 H   0  0  0  0  0  0  0  0  0  0  0  0
   56.9517   34.5103   45.5287 H   0  0  0  0  0  0  0  0  0  0  0  0
   57.3699   34.2194   43.8060 H   0  0  0  0  0  0  0  0  0  0  0  0
   56.6022   31.9295   43.7173 H   0  0  0  0  0  0  0  0  0  0  0  0
   57.1683   29.5415   44.1683 H   0  0  0  0  0  0  0  0  0  0  0  0
   58.9527   28.9743   45.8125 H   0  0  0  0  0  0  0  0  0  0  0  0
   60.1171   30.7772   47.0726 H   0  0  0  0  0  0  0  0  0  0  0  0
  1  2  1  0
  2  3  2  0
  3  4  1  0
  4  5  1  0
  5  6  1  0
  5  7  2  0
  7  8  1  0
  8  9  2  0
  8 10  2  0
  8 11  1  0
 11 12  1  0
 12 13  1  0
 13 14  1  0
 14 15  1  0
 15 16  2  0
 16 17  1  0
 17 18  2  0
 18 19  1  0
 19 20  2  0
  7  2  1  0
 20 11  1  0
 20 15  1  0
  1 21  1  0
  1 22  1  0
  1 23  1  0
  3 24  1  0
  6 25  1  0
  6 26  1  0
  6 27  1  0
 12 28  1  0
 12 29  1  0
 13 30  1  0
 13 31  1  0
 14 32  1  0
 14 33  1  0
 16 34  1  0
 17 35  1  0
 18 36  1  0
 19 37  1  0
M  CHG  1   3   1
M  END
>  <UniqueID>  (21) 
21

>  <SMILES>  (21) 
Cc1[nH+]oc(C)c1S(=O)(=O)N1CCCc2ccccc21

>  <Energy>  (21) 
74.66563242663975

>  <Genealogy>  (21) 
Cc1[nH+]oc(C)c1S(=O)(=O)N1CCCc2ccccc21 (protonated)
Cc1[nH+]oc(C)c1S(=O)(=O)N1CCCc2ccccc21 (3D coordinates assigned)
Cc1[nH+]oc(C)c1S(=O)(=O)N1CCCc2ccccc21 (nonaromatic ring conformer: 74.66563242663975 kcal/mol)

>  <smiles>  (21) 
Cc1noc(C)c1S(=O)(=O)N1CCCc2ccccc21

>  <score_type>  (21) 
oracle

>  <origin>  (21) 
adg

>  <m_score__min__energy>  (21) 
-6.5599999999999996

>  <m_primary>  (21) 
energy

$$$$
21:0
     RDKit          3D

 31 32  0  0  0  0  0  0  0  0999 V2000
   58.9870   29.2700   47.8540 C   0  0  0  0  0  0  0  0  0  0  0  0
   58.8720   27.8830   47.2040 C   0  0  0  0  0  0  0  0  0  0  0  0
   58.6310   27.9190   45.7420 N   0  0  1  0  0  0  0  0  0  0  0  0
   57.2280   28.1320   45.4530 C   0  0  0  0  0  0  0  0  0  0  0  0
   56.4070   27.1870   45.6070 O   0  0  0  0  0  0  0  0  0  0  0  0
   56.7400   29.4510   45.0270 C   0  0  0  0  0  0  0  0  0  0  0  0
   55.5040   29.6750   44.9240 O   0  0  0  0  0  0  0  0  0  0  0  0
   57.7310   30.4920   44.7130 C   0  0  0  0  0  0  0  0  0  0  0  0
   57.3070   31.8680   44.2850 C   0  0  0  0  0  0  0  0  0  0  0  0
   57.9630   32.9090   45.1510 C   0  0  0  0  0  0  0  0  0  0  0  0
   57.9050   32.8010   46.5520 C   0  0  0  0  0  0  0  0  0  0  0  0
   58.5410   33.7510   47.3570 C   0  0  0  0  0  0  0  0  0  0  0  0
   59.2460   34.8070   46.7730 C   0  0  0  0  0  0  0  0  0  0  0  0
   59.3170   34.9140   45.3810 C   0  0  0  0  0  0  0  0  0  0  0  0
   58.6810   33.9670   44.5720 C   0  0  0  0  0  0  0  0  0  0  0  0
   58.9940   30.1900   44.7160 N   0  0  0  0  0  0  0  0  0  0  0  0
   59.4850   28.8920   45.0820 C   0  0  0  0  0  0  0  0  0  0  0  0
   61.0750   28.5690   44.8520 S   0  0  0  0  0  0  0  0  0  0  0  0
   58.9782   29.1637   48.9488 H   0  0  0  0  0  0  0  0  0  0  0  0
   59.9277   29.7456   47.5393 H   0  0  0  0  0  0  0  0  0  0  0  0
   58.1375   29.8940   47.5393 H   0  0  0  0  0  0  0  0  0  0  0  0
   59.8093   27.3370   47.3864 H   0  0  0  0  0  0  0  0  0  0  0  0
   57.9991   27.3909   47.6578 H   0  0  0  0  0  0  0  0  0  0  0  0
   58.8790   26.9760   45.3590 H   0  0  0  0  0  0  0  0  0  0  0  0
   57.6015   32.0292   43.2375 H   0  0  0  0  0  0  0  0  0  0  0  0
   56.2151   31.9540   44.3867 H   0  0  0  0  0  0  0  0  0  0  0  0
   57.3579   31.9670   47.0157 H   0  0  0  0  0  0  0  0  0  0  0  0
   58.4863   33.6670   48.4524 H   0  0  0  0  0  0  0  0  0  0  0  0
   59.7448   35.5536   47.4084 H   0  0  0  0  0  0  0  0  0  0  0  0
   59.8737   35.7440   44.9215 H   0  0  0  0  0  0  0  0  0  0  0  0
   58.7437   34.0516   43.4771 H   0  0  0  0  0  0  0  0  0  0  0  0
  1  2  1  0
  2  3  1  0
  3  4  1  0
  4  5  2  0
  4  6  1  0
  6  7  2  0
  6  8  1  0
  8  9  1  0
  9 10  1  0
 10 11  2  0
 11 12  1  0
 12 13  2  0
 13 14  1  0
 14 15  2  0
  8 16  2  0
 16 17  1  0
 17 18  2  0
 17  3  1  0
 15 10  1  0
  1 19  1  0
  1 20  1  0
  1 21  1  0
  2 22  1  0
  2 23  1  0
  3 24  1  6
  9 25  1  0
  9 26  1  0
 11 27  1  0
 12 28  1  0
 13 29  1  0
 14 30  1  0
 15 31  1  0
M  CHG  1   3   1
M  END
>  <UniqueID>  (22) 
22

>  <SMILES>  (22) 
CC[N@H+]1C(=O)C(=O)C(Cc2ccccc2)=NC1=S

>  <Energy>  (22) 
32.70356676768501

>  <Genealogy>  (22) 
CC[NH+]1C(=O)C(=O)C(Cc2ccccc2)=NC1=S (protonated)
CC[N@H+]1C(=O)C(=O)C(Cc2ccccc2)=NC1=S (chirality)
CC[N@H+]1C(=O)C(=O)C(Cc2ccccc2)=NC1=S (3D coordinates assigned)
CC[N@H+]1C(=O)C(=O)C(Cc2ccccc2)=NC1=S (nonaromatic ring conformer: 32.70356676768501 kcal/mol)

>  <smiles>  (22) 
CCN1C(=O)C(=O)C(Cc2ccccc2)=NC1=S

>  <score_type>  (22) 
oracle

>  <origin>  (22) 
adg

>  <m_score__min__energy>  (22) 
-5.7599999999999998

>  <m_primary>  (22) 
energy

$$$$
22:0
     RDKit          3D

 48 51  0  0  1  0  0  0  0  0999 V2000
   57.0770   21.1020   42.9680 C   0  0  0  0  0  0  0  0  0  0  0  0
   55.9090   21.7010   43.5080 O   0  0  0  0  0  0  0  0  0  0  0  0
   56.0660   22.3710   44.7310 C   0  0  0  0  0  0  0  0  0  0  0  0
   56.4500   21.5950   45.8280 C   0  0  0  0  0  0  0  0  0  0  0  0
   56.6210   22.2120   47.0670 C   0  0  0  0  0  0  0  0  0  0  0  0
   56.4130   23.5790   47.2070 C   0  0  0  0  0  0  0  0  0  0  0  0
   56.0350   24.3380   46.1200 C   0  0  0  0  0  0  0  0  0  0  0  0
   55.8030   25.7400   46.1850 N   0  0  0  0  0  0  0  0  0  0  0  0
   56.6480   26.6540   45.9400 C   0  0  0  0  0  0  0  0  0  0  0  0
   57.9540   26.3560   46.0370 N   0  0  0  0  0  0  0  0  0  0  0  0
   58.8230   27.3490   45.7720 C   0  0  0  0  0  0  0  0  0  0  0  0
   58.4300   28.6230   45.4130 C   0  0  0  0  0  0  0  0  0  0  0  0
   57.0690   28.8500   45.3350 C   0  0  0  0  0  0  0  0  0  0  0  0
   56.6710   30.0110   45.0060 N   0  0  0  0  0  0  0  0  0  0  0  0
   57.4610   31.1940   44.9930 C   0  0  0  0  0  0  0  0  0  0  0  0
   57.4480   31.9540   43.8240 C   0  0  0  0  0  0  0  0  0  0  0  0
   58.1790   33.1220   43.7010 C   0  0  0  0  0  0  0  0  0  0  0  0
   58.9350   33.5230   44.7850 C   0  0  0  0  0  0  0  0  0  0  0  0
   58.9460   32.7620   45.9490 C   0  0  0  0  0  0  0  0  0  0  0  0
   59.7710   33.2600   47.0440 C   0  0  0  0  0  0  0  0  0  0  0  0
   61.1590   33.2900   46.8750 C   0  0  0  0  0  0  0  0  0  0  0  0
   61.9640   33.7590   47.8970 C   0  0  0  0  0  0  0  0  0  0  0  0
   61.4350   34.2070   49.1020 C   0  0  0  0  0  0  0  0  0  0  0  0
   60.0640   34.1690   49.2480 C   0  0  0  0  0  0  0  0  0  0  0  0
   59.2610   33.7070   48.2410 C   0  0  0  0  0  0  0  0  0  0  0  0
   58.2180   31.5980   46.0740 C   0  0  0  0  0  0  0  0  0  0  0  0
   56.1850   27.8700   45.5980 N   0  0  0  0  0  0  0  0  0  0  0  0
   55.8690   23.7040   44.8900 C   0  0  0  0  0  0  0  0  0  0  0  0
   57.7298   20.7672   43.7876 H   0  0  0  0  0  0  0  0  0  0  0  0
   56.7933   20.2381   42.3489 H   0  0  0  0  0  0  0  0  0  0  0  0
   57.6130   21.8365   42.3489 H   0  0  0  0  0  0  0  0  0  0  0  0
   56.6150   20.5132   45.7159 H   0  0  0  0  0  0  0  0  0  0  0  0
   56.9224   21.6129   47.9389 H   0  0  0  0  0  0  0  0  0  0  0  0
   56.5504   24.0568   48.1882 H   0  0  0  0  0  0  0  0  0  0  0  0
   58.2560   25.3960   46.3070 H   0  0  0  0  0  0  0  0  0  0  0  0
   59.8995   27.1350   45.8450 H   0  0  0  0  0  0  0  0  0  0  0  0
   59.1620   29.4160   45.2002 H   0  0  0  0  0  0  0  0  0  0  0  0
   56.8380   31.6145   42.9739 H   0  0  0  0  0  0  0  0  0  0  0  0
   58.1588   33.7109   42.7721 H   0  0  0  0  0  0  0  0  0  0  0  0
   59.5299   34.4465   44.7276 H   0  0  0  0  0  0  0  0  0  0  0  0
   61.6084   32.9420   45.9332 H   0  0  0  0  0  0  0  0  0  0  0  0
   63.0543   33.7781   47.7523 H   0  0  0  0  0  0  0  0  0  0  0  0
   62.0850   34.5777   49.9083 H   0  0  0  0  0  0  0  0  0  0  0  0
   59.6094   34.5152   50.1879 H   0  0  0  0  0  0  0  0  0  0  0  0
   58.1717   33.6925   48.3936 H   0  0  0  0  0  0  0  0  0  0  0  0
   58.2397   31.0110   47.0040 H   0  0  0  0  0  0  0  0  0  0  0  0
   55.1430   28.0490   45.5360 H   0  0  0  0  0  0  0  0  0  0  0  0
   55.5682   24.3045   44.0188 H   0  0  0  0  0  0  0  0  0  0  0  0
  1  2  1  0
  2  3  1  0
  3  4  2  0
  4  5  1  0
  5  6  2  0
  6  7  1  0
  7  8  1  0
  8  9  2  0
  9 10  1  0
 10 11  1  0
 11 12  2  0
 12 13  1  0
 13 14  2  0
 14 15  1  0
 15 16  2  0
 16 17  1  0
 17 18  2  0
 18 19  1  0
 19 20  1  0
 20 21  2  0
 21 22  1  0
 22 23  2  0
 23 24  1  0
 24 25  2  0
 19 26  2  0
 13 27  1  0
  7 28  2  0
 28  3  1  0
 27  9  1  0
 26 15  1  0
 25 20  1  0
  1 29  1  0
  1 30  1  0
  1 31  1  0
  4 32  1  0
  5 33  1  0
  6 34  1  0
 10 35  1  0
 11 36  1  0
 12 37  1  0
 16 38  1  0
 17 39  1  0
 18 40  1  0
 21 41  1  0
 22 42  1  0
 23 43  1  0
 24 44  1  0
 25 45  1  0
 26 46  1  0
 27 47  1  0
 28 48  1  0
M  END
>  <smiles>  (23) 
COc1cccc(N=c2[nH]ccc(=Nc3cccc(-c4ccccc4)c3)[nH]2)c1

>  <score_type>  (23) 
oracle

>  <origin>  (23) 
adg

>  <m_score__min__energy>  (23) 
-9.6199999999999992

>  <m_primary>  (23) 
energy

$$$$
23:0
     RDKit          3D

 23 24  0  0  0  0  0  0  0  0999 V2000
   58.4399   21.2133   42.5699 H   0  0  0  0  0  0  0  0  0  0  0  0
   57.7360   21.4220   43.3890 C   0  0  0  0  0  0  0  0  0  0  0  0
   56.5330   22.5970   43.3430 S   0  0  0  0  0  0  0  0  0  0  0  0
   55.9750   22.2540   44.8960 C   0  0  0  0  0  0  0  0  0  0  0  0
   54.8640   22.9330   45.5740 C   0  0  0  0  0  0  0  0  0  0  0  0
   53.6910   22.4970   45.4240 O   0  0  0  0  0  0  0  0  0  0  0  0
   55.1340   24.0800   46.3970 N   0  0  0  0  0  0  0  0  0  0  0  0
   55.7720   25.1640   46.0620 C   0  0  0  0  0  0  0  0  0  0  0  0
   55.1570   26.3640   45.9970 N   0  0  0  0  0  0  0  0  0  0  0  0
   55.9730   27.3560   45.6410 N   0  0  0  0  0  0  0  0  0  0  0  0
   57.2410   26.9490   45.4100 C   0  0  0  0  0  0  0  0  0  0  0  0
   58.3560   27.8800   45.0560 C   0  0  0  0  0  0  0  0  0  0  0  0
   59.0252   27.3860   44.3362 H   0  0  0  0  0  0  0  0  0  0  0  0
   58.9079   28.1382   45.9719 H   0  0  0  0  0  0  0  0  0  0  0  0
   57.8070   29.1600   44.4340 C   0  0  0  0  0  0  0  0  0  0  0  0
   57.5083   29.8563   45.2314 H   0  0  0  0  0  0  0  0  0  0  0  0
   58.5838   29.6274   43.8110 H   0  0  0  0  0  0  0  0  0  0  0  0
   56.9330   28.9193   43.8110 H   0  0  0  0  0  0  0  0  0  0  0  0
   57.4120   25.2930   45.6690 S   0  0  0  0  0  0  0  0  0  0  0  0
   56.7500   21.2210   45.4150 C   0  0  0  0  0  0  0  0  0  0  0  0
   56.5933   20.8049   46.4211 H   0  0  0  0  0  0  0  0  0  0  0  0
   57.7170   20.7700   44.5730 N   0  0  0  0  0  0  0  0  0  0  0  0
   58.3800   20.0010   44.8160 H   0  0  0  0  0  0  0  0  0  0  0  0
  1  2  1  0
  2  3  1  0
  3  4  1  0
  4  5  1  0
  5  6  2  0
  5  7  1  0
  7  8  2  0
  8  9  1  0
  9 10  1  0
 10 11  2  0
 11 12  1  0
 12 13  1  0
 12 14  1  0
 12 15  1  0
 15 16  1  0
 15 17  1  0
 15 18  1  0
 11 19  1  0
  4 20  2  0
 20 21  1  0
 20 22  1  0
 22 23  1  0
 22  2  2  0
 19  8  1  0
M  CHG  2   9  -1  22   1
M  END
>  <UniqueID>  (24) 
23

>  <SMILES>  (24) 
CCc1n[n-]/c(=N/C(=O)c2c[nH+]cs2)s1

>  <Energy>  (24) 
84.99482398199234

>  <Genealogy>  (24) 
CCc1n[n-]c(=NC(=O)c2c[nH+]cs2)s1 (protonated)
CCc1n[n-]/c(=N/C(=O)c2c[nH+]cs2)s1 (cis-trans isomerization)
CCc1n[n-]/c(=N/C(=O)c2c[nH+]cs2)s1 (3D coordinates assigned)
CCc1n[n-]/c(=N/C(=O)c2c[nH+]cs2)s1 (optimized conformer: 84.99482398199234 kcal/mol)

>  <smiles>  (24) 
CCc1n[nH]c(=NC(=O)c2cncs2)s1

>  <score_type>  (24) 
oracle

>  <origin>  (24) 
adg

>  <m_score__min__energy>  (24) 
-7

>  <m_primary>  (24) 
energy

$$$$
24:0
     RDKit          3D

 52 54  0  0  0  0  0  0  0  0999 V2000
   57.0400   26.9400   45.6020 C   0  0  0  0  0  0  0  0  0  0  0  0
   56.4040   28.2110   45.4970 O   0  0  0  0  0  0  0  0  0  0  0  0
   56.8670   29.2770   44.7100 C   0  0  0  0  0  0  0  0  0  0  0  0
   56.1700   29.7070   43.5630 C   0  0  0  0  0  0  0  0  0  0  0  0
   56.6450   30.7820   42.8080 C   0  0  0  0  0  0  0  0  0  0  0  0
   57.8170   31.4360   43.1810 C   0  0  0  0  0  0  0  0  0  0  0  0
   58.5270   31.0130   44.3060 C   0  0  0  0  0  0  0  0  0  0  0  0
   58.0620   29.9350   45.0770 C   0  0  0  0  0  0  0  0  0  0  0  0
   58.8450   29.5130   46.3010 C   0  0  0  0  0  0  0  0  0  0  0  0
   60.3330   29.3200   45.9920 C   0  0  0  0  0  0  0  0  0  0  0  0
   61.1650   30.1490   46.8640 N   0  0  0  0  0  0  0  0  0  0  0  0
   61.0050   30.1690   48.2910 C   0  0  0  0  0  0  0  0  0  0  0  0
   60.3000   29.2850   48.8480 O   0  0  0  0  0  0  0  0  0  0  0  0
   61.6430   31.2330   49.1110 C   0  0  0  0  0  0  0  0  0  0  0  0
   62.5290   30.8640   50.1410 C   0  0  0  0  0  0  0  0  0  0  0  0
   63.1680   31.8340   50.9160 C   0  0  0  0  0  0  0  0  0  0  0  0
   62.9350   33.1870   50.6780 C   0  0  0  0  0  0  0  0  0  0  0  0
   62.0620   33.5760   49.6630 C   0  0  0  0  0  0  0  0  0  0  0  0
   61.4120   32.6140   48.8720 C   0  0  0  0  0  0  0  0  0  0  0  0
   60.4500   33.0860   47.8470 C   0  0  0  0  0  0  0  0  0  0  0  0
   60.9170   33.6640   46.6410 C   0  0  0  0  0  0  0  0  0  0  0  0
   62.3910   33.8320   46.3780 C   0  0  0  0  0  0  0  0  0  0  0  0
   59.9900   34.0920   45.6760 C   0  0  0  0  0  0  0  0  0  0  0  0
   58.6210   33.9610   45.9020 C   0  0  0  0  0  0  0  0  0  0  0  0
   58.1560   33.4130   47.0960 C   0  0  0  0  0  0  0  0  0  0  0  0
   59.0590   32.9690   48.0760 C   0  0  0  0  0  0  0  0  0  0  0  0
   58.5300   32.3980   49.3650 C   0  0  0  0  0  0  0  0  0  0  0  0
   57.1694   26.6813   46.6633 H   0  0  0  0  0  0  0  0  0  0  0  0
   56.4175   26.1769   45.1119 H   0  0  0  0  0  0  0  0  0  0  0  0
   58.0239   26.9807   45.1119 H   0  0  0  0  0  0  0  0  0  0  0  0
   55.2459   29.1927   43.2603 H   0  0  0  0  0  0  0  0  0  0  0  0
   56.0921   31.1130   41.9165 H   0  0  0  0  0  0  0  0  0  0  0  0
   58.1835   32.2870   42.5882 H   0  0  0  0  0  0  0  0  0  0  0  0
   59.4568   31.5273   44.5906 H   0  0  0  0  0  0  0  0  0  0  0  0
   58.7405   30.2884   47.0742 H   0  0  0  0  0  0  0  0  0  0  0  0
   58.4420   28.5496   46.6466 H   0  0  0  0  0  0  0  0  0  0  0  0
   60.5969   28.2628   46.1430 H   0  0  0  0  0  0  0  0  0  0  0  0
   60.5144   29.6193   44.9492 H   0  0  0  0  0  0  0  0  0  0  0  0
   61.9430   30.6930   46.4270 H   0  0  0  0  0  0  0  0  0  0  0  0
   62.7202   29.7987   50.3376 H   0  0  0  0  0  0  0  0  0  0  0  0
   63.8575   31.5290   51.7170 H   0  0  0  0  0  0  0  0  0  0  0  0
   63.4399   33.9482   51.2910 H   0  0  0  0  0  0  0  0  0  0  0  0
   61.8806   34.6454   49.4799 H   0  0  0  0  0  0  0  0  0  0  0  0
   62.9296   33.8934   47.3352 H   0  0  0  0  0  0  0  0  0  0  0  0
   62.7615   32.9703   45.8034 H   0  0  0  0  0  0  0  0  0  0  0  0
   62.5581   34.7550   45.8034 H   0  0  0  0  0  0  0  0  0  0  0  0
   60.3476   34.5341   44.7344 H   0  0  0  0  0  0  0  0  0  0  0  0
   57.9049   34.2914   45.1351 H   0  0  0  0  0  0  0  0  0  0  0  0
   57.0736   33.3275   47.2723 H   0  0  0  0  0  0  0  0  0  0  0  0
   59.0045   32.9102   50.2150 H   0  0  0  0  0  0  0  0  0  0  0  0
   57.4407   32.5437   49.4108 H   0  0  0  0  0  0  0  0  0  0  0  0
   58.7584   31.3229   49.4108 H   0  0  0  0  0  0  0  0  0  0  0  0
  1  2  1  0
  2  3  1  0
  3  4  2  0
  4  5  1  0
  5  6  2  0
  6  7  1  0
  7  8  2  0
  8  9  1  0
  9 10  1  0
 10 11  1  0
 11 12  1  0
 12 13  2  0
 12 14  1  0
 14 15  2  0
 15 16  1  0
 16 17  2  0
 17 18  1  0
 18 19  2  0
 19 20  1  0
 20 21  2  0
 21 22  1  0
 21 23  1  0
 23 24  2  0
 24 25  1  0
 25 26  2  0
 26 27  1  0
  8  3  1  0
 19 14  1  0
 26 20  1  0
  1 28  1  0
  1 29  1  0
  1 30  1  0
  4 31  1  0
  5 32  1  0
  6 33  1  0
  7 34  1  0
  9 35  1  0
  9 36  1  0
 10 37  1  0
 10 38  1  0
 11 39  1  0
 15 40  1  0
 16 41  1  0
 17 42  1  0
 18 43  1  0
 22 44  1  0
 22 45  1  0
 22 46  1  0
 23 47  1  0
 24 48  1  0
 25 49  1  0
 27 50  1  0
 27 51  1  0
 27 52  1  0
M  END
>  <UniqueID>  (25) 
24

>  <SMILES>  (25) 
COc1ccccc1CCNC(=O)c1ccccc1-c1c(C)cccc1C

>  <Energy>  (25) 
58.05365007569832

>  <Genealogy>  (25) 
COc1ccccc1CCNC(=O)c1ccccc1-c1c(C)cccc1C (3D coordinates assigned)
COc1ccccc1CCNC(=O)c1ccccc1-c1c(C)cccc1C (optimized conformer: 58.05365007569832 kcal/mol)

>  <smiles>  (25) 
COc1ccccc1CCNC(=O)c1ccccc1-c1c(C)cccc1C

>  <score_type>  (25) 
oracle

>  <origin>  (25) 
adg

>  <m_score__min__energy>  (25) 
-8.1899999999999995

>  <m_primary>  (25) 
energy

$$$$
25:0
     RDKit          3D

 55 57  0  0  0  0  0  0  0  0999 V2000
   62.7440   34.5930   49.4410 C   0  0  0  0  0  0  0  0  0  0  0  0
   61.3870   33.9410   49.3660 C   0  0  0  0  0  0  0  0  0  0  0  0
   60.6490   33.7720   50.5490 C   0  0  0  0  0  0  0  0  0  0  0  0
   59.3900   33.1740   50.5220 C   0  0  0  0  0  0  0  0  0  0  0  0
   58.8520   32.7330   49.3160 C   0  0  0  0  0  0  0  0  0  0  0  0
   59.5630   32.8950   48.1200 C   0  0  0  0  0  0  0  0  0  0  0  0
   58.9900   32.4010   46.9010 N   0  0  0  0  0  0  0  0  0  0  0  0
   58.1840   33.3090   46.0780 C   0  0  0  0  0  0  0  0  0  0  0  0
   57.7020   32.6040   44.8100 C   0  0  0  0  0  0  0  0  0  0  0  0
   57.2070   31.2630   45.1650 N   0  0  0  0  0  0  0  0  0  0  0  0
   56.3800   30.6300   44.1140 C   0  0  0  0  0  0  0  0  0  0  0  0
   56.4590   29.0860   44.0790 C   0  0  0  0  0  0  0  0  0  0  0  0
   57.3910   28.6220   43.0390 N   0  0  0  0  0  0  0  0  0  0  0  0
   58.0380   27.3360   43.3590 C   0  0  0  0  0  0  0  0  0  0  0  0
   58.4490   27.2300   44.8180 C   0  0  0  0  0  0  0  0  0  0  0  0
   59.7290   27.6880   45.1860 C   0  0  0  0  0  0  0  0  0  0  0  0
   60.1850   27.5570   46.4980 C   0  0  0  0  0  0  0  0  0  0  0  0
   59.3800   26.9510   47.4600 C   0  0  0  0  0  0  0  0  0  0  0  0
   58.1180   26.4720   47.1130 C   0  0  0  0  0  0  0  0  0  0  0  0
   57.6330   26.6070   45.8000 C   0  0  0  0  0  0  0  0  0  0  0  0
   56.3330   26.0840   45.4880 N   0  0  0  0  0  0  0  0  0  0  0  0
   56.2280   24.9600   44.9530 O   0  0  0  0  0  0  0  0  0  0  0  0
   55.2050   26.6840   45.9950 O   0  0  0  0  0  0  0  0  0  0  0  0
   58.2480   30.3600   45.7130 C   0  0  0  0  0  0  0  0  0  0  0  0
   59.4270   31.1090   46.3670 C   0  0  0  0  0  0  0  0  0  0  0  0
   60.8260   33.5320   48.1270 C   0  0  0  0  0  0  0  0  0  0  0  0
   61.5850   33.7340   46.8350 C   0  0  0  0  0  0  0  0  0  0  0  0
   63.0276   34.7292   50.4951 H   0  0  0  0  0  0  0  0  0  0  0  0
   63.4863   33.9532   48.9413 H   0  0  0  0  0  0  0  0  0  0  0  0
   62.7084   35.5723   48.9413 H   0  0  0  0  0  0  0  0  0  0  0  0
   61.0686   34.1149   51.5063 H   0  0  0  0  0  0  0  0  0  0  0  0
   58.8207   33.0504   51.4551 H   0  0  0  0  0  0  0  0  0  0  0  0
   57.8618   32.2541   49.3023 H   0  0  0  0  0  0  0  0  0  0  0  0
   57.3119   33.6444   46.6585 H   0  0  0  0  0  0  0  0  0  0  0  0
   58.8046   34.1703   45.7898 H   0  0  0  0  0  0  0  0  0  0  0  0
   56.8904   33.1868   44.3500 H   0  0  0  0  0  0  0  0  0  0  0  0
   58.5334   32.5158   44.0952 H   0  0  0  0  0  0  0  0  0  0  0  0
   55.3315   30.9166   44.2827 H   0  0  0  0  0  0  0  0  0  0  0  0
   56.7733   30.9853   43.1501 H   0  0  0  0  0  0  0  0  0  0  0  0
   56.8047   28.7226   45.0580 H   0  0  0  0  0  0  0  0  0  0  0  0
   55.4580   28.6921   43.8491 H   0  0  0  0  0  0  0  0  0  0  0  0
   58.1220   29.3550   42.8840 H   0  0  0  0  0  0  0  0  0  0  0  0
   57.3334   26.5222   43.1324 H   0  0  0  0  0  0  0  0  0  0  0  0
   58.9524   27.2654   42.7516 H   0  0  0  0  0  0  0  0  0  0  0  0
   60.3772   28.1547   44.4297 H   0  0  0  0  0  0  0  0  0  0  0  0
   61.1815   27.9327   46.7732 H   0  0  0  0  0  0  0  0  0  0  0  0
   59.7407   26.8505   48.4943 H   0  0  0  0  0  0  0  0  0  0  0  0
   57.4940   25.9826   47.8752 H   0  0  0  0  0  0  0  0  0  0  0  0
   57.7835   29.7119   46.4707 H   0  0  0  0  0  0  0  0  0  0  0  0
   58.6568   29.7859   44.8684 H   0  0  0  0  0  0  0  0  0  0  0  0
   59.8320   30.4981   47.1872 H   0  0  0  0  0  0  0  0  0  0  0  0
   60.1994   31.2857   45.6040 H   0  0  0  0  0  0  0  0  0  0  0  0
   62.6254   34.0109   47.0604 H   0  0  0  0  0  0  0  0  0  0  0  0
   61.5719   32.8011   46.2523 H   0  0  0  0  0  0  0  0  0  0  0  0
   61.1099   34.5370   46.2523 H   0  0  0  0  0  0  0  0  0  0  0  0
  1  2  1  0
  2  3  2  0
  3  4  1  0
  4  5  2  0
  5  6  1  0
  6  7  1  0
  7  8  1  0
  8  9  1  0
  9 10  1  0
 10 11  1  0
 11 12  1  0
 12 13  1  0
 13 14  1  0
 14 15  1  0
 15 16  2  0
 16 17  1  0
 17 18  2  0
 18 19  1  0
 19 20  2  0
 20 21  1  0
 21 22  2  0
 21 23  1  0
 10 24  1  0
 24 25  1  0
  6 26  2  0
 26 27  1  0
 26  2  1  0
 25  7  1  0
 20 15  1  0
  1 28  1  0
  1 29  1  0
  1 30  1  0
  3 31  1  0
  4 32  1  0
  5 33  1  0
  8 34  1  0
  8 35  1  0
  9 36  1  0
  9 37  1  0
 11 38  1  0
 11 39  1  0
 12 40  1  0
 12 41  1  0
 13 42  1  0
 14 43  1  0
 14 44  1  0
 16 45  1  0
 17 46  1  0
 18 47  1  0
 19 48  1  0
 24 49  1  0
 24 50  1  0
 25 51  1  0
 25 52  1  0
 27 53  1  0
 27 54  1  0
 27 55  1  0
M  CHG  2  21   1  23  -1
M  END
>  <UniqueID>  (26) 
25

>  <SMILES>  (26) 
Cc1cccc(N2CCN(CCNCc3ccccc3[N+](=O)[O-])CC2)c1C

>  <Energy>  (26) 
79.28656531596123

>  <Genealogy>  (26) 
Cc1cccc(N2CCN(CCNCc3ccccc3[N+](=O)[O-])CC2)c1C (3D coordinates assigned)
Cc1cccc(N2CCN(CCNCc3ccccc3[N+](=O)[O-])CC2)c1C (nonaromatic ring conformer: 79.28656531596123 kcal/mol)

>  <smiles>  (26) 
Cc1cccc(N2CCN(CCNCc3ccccc3[N+](=O)[O-])CC2)c1C

>  <score_type>  (26) 
oracle

>  <origin>  (26) 
adg

>  <m_score__min__energy>  (26) 
-9.5099999999999998

>  <m_primary>  (26) 
energy

$$$$
26:0
     RDKit          3D

 37 39  0  0  0  0  0  0  0  0999 V2000
   54.7740   24.3770   46.4360 O   0  0  0  0  0  0  0  0  0  0  0  0
   55.6610   25.1640   46.0130 C   0  0  0  0  0  0  0  0  0  0  0  0
   55.5060   26.5020   45.9960 N   0  0  0  0  0  0  0  0  0  0  0  0
   56.6640   26.9560   45.4630 C   0  0  0  0  0  0  0  0  0  0  0  0
   56.9530   28.3940   45.2350 C   0  0  0  0  0  0  0  0  0  0  0  0
   58.2080   28.9210   45.5870 C   0  0  0  0  0  0  0  0  0  0  0  0
   58.4950   30.2730   45.3780 C   0  0  0  0  0  0  0  0  0  0  0  0
   57.5350   31.1260   44.8300 C   0  0  0  0  0  0  0  0  0  0  0  0
   57.8670   32.4730   44.6240 O   0  0  0  0  0  0  0  0  0  0  0  0
   58.4850   33.3120   45.5630 C   0  0  0  0  0  0  0  0  0  0  0  0
   59.1730   34.4780   45.1810 C   0  0  0  0  0  0  0  0  0  0  0  0
   59.7620   35.2980   46.1500 C   0  0  0  0  0  0  0  0  0  0  0  0
   59.6580   34.9660   47.5030 C   0  0  0  0  0  0  0  0  0  0  0  0
   58.9600   33.8190   47.8900 C   0  0  0  0  0  0  0  0  0  0  0  0
   58.3690   32.9990   46.9230 C   0  0  0  0  0  0  0  0  0  0  0  0
   56.2850   30.6030   44.4550 C   0  0  0  0  0  0  0  0  0  0  0  0
   55.9950   29.2510   44.6620 C   0  0  0  0  0  0  0  0  0  0  0  0
   57.4890   25.8810   45.1680 C   0  0  0  0  0  0  0  0  0  0  0  0
   56.8500   24.7560   45.5280 N   0  0  0  0  0  0  0  0  0  0  0  0
   57.3240   23.3840   45.3450 C   0  0  0  0  0  0  0  0  0  0  0  0
   56.8880   22.8350   43.9860 C   0  0  0  0  0  0  0  0  0  0  0  0
   55.5040   22.6070   43.9650 O   0  0  0  0  0  0  0  0  0  0  0  0
   58.9705   28.2639   46.0306 H   0  0  0  0  0  0  0  0  0  0  0  0
   59.4855   30.6682   45.6475 H   0  0  0  0  0  0  0  0  0  0  0  0
   59.2483   34.7462   44.1168 H   0  0  0  0  0  0  0  0  0  0  0  0
   60.3069   36.2040   45.8463 H   0  0  0  0  0  0  0  0  0  0  0  0
   60.1258   35.6078   48.2641 H   0  0  0  0  0  0  0  0  0  0  0  0
   58.8752   33.5607   48.9559 H   0  0  0  0  0  0  0  0  0  0  0  0
   57.8101   32.1035   47.2325 H   0  0  0  0  0  0  0  0  0  0  0  0
   55.5317   31.2605   43.9966 H   0  0  0  0  0  0  0  0  0  0  0  0
   55.0102   28.8540   44.3747 H   0  0  0  0  0  0  0  0  0  0  0  0
   58.4911   25.9395   44.7180 H   0  0  0  0  0  0  0  0  0  0  0  0
   58.4224   23.3712   45.4035 H   0  0  0  0  0  0  0  0  0  0  0  0
   56.8909   22.7532   46.1353 H   0  0  0  0  0  0  0  0  0  0  0  0
   57.1461   23.5629   43.2027 H   0  0  0  0  0  0  0  0  0  0  0  0
   57.4066   21.8817   43.8064 H   0  0  0  0  0  0  0  0  0  0  0  0
   55.1090   23.1830   44.6700 H   0  0  0  0  0  0  0  0  0  0  0  0
  1  2  2  0
  2  3  1  0
  3  4  1  0
  4  5  1  0
  5  6  2  0
  6  7  1  0
  7  8  2  0
  8  9  1  0
  9 10  1  0
 10 11  2  0
 11 12  1  0
 12 13  2  0
 13 14  1  0
 14 15  2  0
  8 16  1  0
 16 17  2  0
  4 18  2  0
 18 19  1  0
 19 20  1  0
 20 21  1  0
 21 22  1  0
 19  2  1  0
 17  5  1  0
 15 10  1  0
  6 23  1  0
  7 24  1  0
 11 25  1  0
 12 26  1  0
 13 27  1  0
 14 28  1  0
 15 29  1  0
 16 30  1  0
 17 31  1  0
 18 32  1  0
 20 33  1  0
 20 34  1  0
 21 35  1  0
 21 36  1  0
 22 37  1  0
M  CHG  1   3  -1
M  END
>  <UniqueID>  (27) 
26

>  <SMILES>  (27) 
O=c1[n-]c(-c2ccc(Oc3ccccc3)cc2)cn1CCO

>  <Energy>  (27) 
75.00309604963554

>  <Genealogy>  (27) 
O=c1[n-]c(-c2ccc(Oc3ccccc3)cc2)cn1CCO (protonated)
O=c1[n-]c(-c2ccc(Oc3ccccc3)cc2)cn1CCO (3D coordinates assigned)
O=c1[n-]c(-c2ccc(Oc3ccccc3)cc2)cn1CCO (optimized conformer: 75.00309604963554 kcal/mol)

>  <smiles>  (27) 
O=c1[nH]c(-c2ccc(Oc3ccccc3)cc2)cn1CCO

>  <score_type>  (27) 
oracle

>  <origin>  (27) 
adg

>  <m_score__min__energy>  (27) 
-9.5299999999999994

>  <m_primary>  (27) 
energy

$$$$
27:0
     RDKit          3D

 24 24  0  0  0  0  0  0  0  0999 V2000
   54.7540   28.9670   45.2760 H   0  0  0  0  0  0  0  0  0  0  0  0
   55.6570   29.4200   45.2110 O   0  0  0  0  0  0  0  0  0  0  0  0
   55.8480   30.5920   44.5070 N   0  0  0  0  0  0  0  0  0  0  0  0
   57.0110   31.0740   44.1840 C   0  0  0  0  0  0  0  0  0  0  0  0
   57.3176   31.0363   43.1283 H   0  0  0  0  0  0  0  0  0  0  0  0
   57.9400   31.6690   45.1630 C   0  0  0  0  0  0  0  0  0  0  0  0
   58.0570   33.0140   45.4820 C   0  0  0  0  0  0  0  0  0  0  0  0
   57.2970   34.1450   44.8570 C   0  0  0  0  0  0  0  0  0  0  0  0
   56.8700   34.7805   45.6468 H   0  0  0  0  0  0  0  0  0  0  0  0
   57.9772   34.7431   44.2328 H   0  0  0  0  0  0  0  0  0  0  0  0
   56.4862   33.7413   44.2328 H   0  0  0  0  0  0  0  0  0  0  0  0
   58.8840   33.1310   46.5450 N   0  0  0  0  0  0  0  0  0  0  0  0
   59.2410   34.3640   47.2420 C   0  0  0  0  0  0  0  0  0  0  0  0
   59.1930   34.1982   48.3284 H   0  0  0  0  0  0  0  0  0  0  0  0
   60.2621   34.6614   46.9613 H   0  0  0  0  0  0  0  0  0  0  0  0
   58.5367   35.1610   46.9613 H   0  0  0  0  0  0  0  0  0  0  0  0
   59.2880   31.9260   46.9160 N   0  0  0  0  0  0  0  0  0  0  0  0
   59.9000   31.7230   47.7390 H   0  0  0  0  0  0  0  0  0  0  0  0
   58.7220   31.0150   46.1030 C   0  0  0  0  0  0  0  0  0  0  0  0
   58.8530   29.2430   46.3530 S   0  0  0  0  0  0  0  0  0  0  0  0
   59.8950   28.9950   44.8820 C   0  0  0  0  0  0  0  0  0  0  0  0
   60.9206   28.7509   45.1961 H   0  0  0  0  0  0  0  0  0  0  0  0
   59.4892   28.1683   44.2804 H   0  0  0  0  0  0  0  0  0  0  0  0
   59.9051   29.9158   44.2804 H   0  0  0  0  0  0  0  0  0  0  0  0
  1  2  1  0
  2  3  1  0
  3  4  2  0
  4  5  1  0
  4  6  1  0
  6  7  2  0
  7  8  1  0
  8  9  1  0
  8 10  1  0
  8 11  1  0
  7 12  1  0
 12 13  1  0
 13 14  1  0
 13 15  1  0
 13 16  1  0
 12 17  1  0
 17 18  1  0
 17 19  2  0
 19 20  1  0
 20 21  1  0
 21 22  1  0
 21 23  1  0
 21 24  1  0
 19  6  1  0
M  CHG  1  17   1
M  END
>  <UniqueID>  (28) 
27

>  <SMILES>  (28) 
CSc1[nH+]n(C)c(C)c1/C=N\O

>  <Energy>  (28) 
54.439183449680705

>  <Genealogy>  (28) 
CSc1[nH+]n(C)c(C)c1C=NO (protonated)
CSc1[nH+]n(C)c(C)c1/C=N\O (cis-trans isomerization)
CSc1[nH+]n(C)c(C)c1/C=N\O (3D coordinates assigned)
CSc1[nH+]n(C)c(C)c1/C=N\O (optimized conformer: 54.439183449680705 kcal/mol)

>  <smiles>  (28) 
CSc1nn(C)c(C)c1C=NO

>  <score_type>  (28) 
oracle

>  <origin>  (28) 
adg

>  <m_score__min__energy>  (28) 
-4.8700000000000001

>  <m_primary>  (28) 
energy

$$$$
28:0
     RDKit          3D

 50 52  0  0  0  0  0  0  0  0999 V2000
   57.0170   27.5150   54.5410 C   0  0  0  0  0  0  0  0  0  0  0  0
   56.4640   28.5930   53.6670 C   0  0  0  0  0  0  0  0  0  0  0  0
   55.2190   29.0090   53.6960 O   0  0  0  0  0  0  0  0  0  0  0  0
   55.1070   29.9790   52.8110 C   0  0  0  0  0  0  0  0  0  0  0  0
   53.8320   30.6770   52.5250 C   0  0  0  0  0  0  0  0  0  0  0  0
   53.6080   31.2190   51.2460 C   0  0  0  0  0  0  0  0  0  0  0  0
   52.4160   31.8960   50.9580 C   0  0  0  0  0  0  0  0  0  0  0  0
   51.4370   32.0410   51.9450 C   0  0  0  0  0  0  0  0  0  0  0  0
   50.2550   32.7140   51.6590 O   0  0  0  0  0  0  0  0  0  0  0  0
   51.6490   31.5100   53.2220 C   0  0  0  0  0  0  0  0  0  0  0  0
   52.8390   30.8340   53.5140 C   0  0  0  0  0  0  0  0  0  0  0  0
   56.2870   30.2310   52.1970 N   0  0  0  0  0  0  0  0  0  0  0  0
   57.1410   29.3270   52.7120 C   0  0  0  0  0  0  0  0  0  0  0  0
   58.5950   29.2070   52.3390 C   0  0  0  0  0  0  0  0  0  0  0  0
   59.0890   30.3400   51.4230 C   0  0  0  0  0  0  0  0  0  0  0  0
   59.3470   29.9060   49.9620 C   0  0  0  0  0  0  0  0  0  0  0  0
   59.5430   31.1040   49.0150 C   0  0  0  0  0  0  0  0  0  0  0  0
   58.9650   32.4130   49.5790 C   0  0  0  0  0  0  0  0  0  0  0  0
   59.5210   33.6840   48.9120 C   0  0  0  0  0  0  0  0  0  0  0  0
   59.0090   33.8630   47.5020 C   0  0  0  0  0  0  0  0  0  0  0  0
   57.8020   33.2610   47.1030 C   0  0  0  0  0  0  0  0  0  0  0  0
   57.3150   33.4510   45.8040 C   0  0  0  0  0  0  0  0  0  0  0  0
   58.0210   34.2490   44.8980 C   0  0  0  0  0  0  0  0  0  0  0  0
   59.2230   34.8500   45.2860 C   0  0  0  0  0  0  0  0  0  0  0  0
   59.7180   34.6580   46.5810 C   0  0  0  0  0  0  0  0  0  0  0  0
   56.8758   27.7903   55.5966 H   0  0  0  0  0  0  0  0  0  0  0  0
   56.4921   26.5705   54.3350 H   0  0  0  0  0  0  0  0  0  0  0  0
   58.0903   27.3904   54.3350 H   0  0  0  0  0  0  0  0  0  0  0  0
   54.3755   31.1102   50.4656 H   0  0  0  0  0  0  0  0  0  0  0  0
   52.2502   32.3139   49.9541 H   0  0  0  0  0  0  0  0  0  0  0  0
   50.8783   31.6242   53.9985 H   0  0  0  0  0  0  0  0  0  0  0  0
   53.0009   30.4225   54.5212 H   0  0  0  0  0  0  0  0  0  0  0  0
   56.5020   30.9490   51.4710 H   0  0  0  0  0  0  0  0  0  0  0  0
   59.1934   29.2195   53.2619 H   0  0  0  0  0  0  0  0  0  0  0  0
   58.7092   28.2663   51.7805 H   0  0  0  0  0  0  0  0  0  0  0  0
   58.3293   31.1355   51.4176 H   0  0  0  0  0  0  0  0  0  0  0  0
   60.0548   30.6762   51.8284 H   0  0  0  0  0  0  0  0  0  0  0  0
   60.2531   29.2829   49.9342 H   0  0  0  0  0  0  0  0  0  0  0  0
   58.4622   29.3503   49.6180 H   0  0  0  0  0  0  0  0  0  0  0  0
   60.6205   31.2419   48.8417 H   0  0  0  0  0  0  0  0  0  0  0  0
   59.0041   30.8797   48.0827 H   0  0  0  0  0  0  0  0  0  0  0  0
   57.8741   32.3979   49.4383 H   0  0  0  0  0  0  0  0  0  0  0  0
   59.2559   32.4576   50.6389 H   0  0  0  0  0  0  0  0  0  0  0  0
   59.2219   34.5572   49.5104 H   0  0  0  0  0  0  0  0  0  0  0  0
   60.6156   33.5865   48.8625 H   0  0  0  0  0  0  0  0  0  0  0  0
   57.2387   32.6388   47.8140 H   0  0  0  0  0  0  0  0  0  0  0  0
   56.3745   32.9713   45.4952 H   0  0  0  0  0  0  0  0  0  0  0  0
   57.6313   34.4039   43.8811 H   0  0  0  0  0  0  0  0  0  0  0  0
   59.7801   35.4745   44.5722 H   0  0  0  0  0  0  0  0  0  0  0  0
   60.6652   35.1303   46.8807 H   0  0  0  0  0  0  0  0  0  0  0  0
  1  2  1  0
  2  3  1  0
  3  4  1  0
  4  5  1  0
  5  6  2  0
  6  7  1  0
  7  8  2  0
  8  9  1  0
  8 10  1  0
 10 11  2  0
  4 12  2  0
 12 13  1  0
 13 14  1  0
 14 15  1  0
 15 16  1  0
 16 17  1  0
 17 18  1  0
 18 19  1  0
 19 20  1  0
 20 21  2  0
 21 22  1  0
 22 23  2  0
 23 24  1  0
 24 25  2  0
 13  2  2  0
 25 20  1  0
 11  5  1  0
  1 26  1  0
  1 27  1  0
  1 28  1  0
  6 29  1  0
  7 30  1  0
 10 31  1  0
 11 32  1  0
 12 33  1  0
 14 34  1  0
 14 35  1  0
 15 36  1  0
 15 37  1  0
 16 38  1  0
 16 39  1  0
 17 40  1  0
 17 41  1  0
 18 42  1  0
 18 43  1  0
 19 44  1  0
 19 45  1  0
 21 46  1  0
 22 47  1  0
 23 48  1  0
 24 49  1  0
 25 50  1  0
M  CHG  2   9  -1  12   1
M  END
>  <UniqueID>  (29) 
28

>  <SMILES>  (29) 
Cc1oc(-c2ccc([O-])cc2)[nH+]c1CCCCCCc1ccccc1

>  <Energy>  (29) 
71.1024068984921

>  <Genealogy>  (29) 
Cc1oc(-c2ccc([O-])cc2)[nH+]c1CCCCCCc1ccccc1 (protonated)
Cc1oc(-c2ccc([O-])cc2)[nH+]c1CCCCCCc1ccccc1 (3D coordinates assigned)
Cc1oc(-c2ccc([O-])cc2)[nH+]c1CCCCCCc1ccccc1 (optimized conformer: 71.1024068984921 kcal/mol)

>  <smiles>  (29) 
Cc1oc(-c2ccc(O)cc2)nc1CCCCCCc1ccccc1

>  <score_type>  (29) 
oracle

>  <origin>  (29) 
adg

>  <m_score__min__energy>  (29) 
-9.8100000000000005

>  <m_primary>  (29) 
energy

$$$$
29:0
     RDKit          3D

 52 54  0  0  0  0  0  0  0  0999 V2000
   62.0720   33.4520   51.7230 C   0  0  0  0  0  0  0  0  0  0  0  0
   61.4750   33.7390   50.4630 O   0  0  0  0  0  0  0  0  0  0  0  0
   62.1310   33.6200   49.2270 C   0  0  0  0  0  0  0  0  0  0  0  0
   63.4680   33.1810   49.1310 C   0  0  0  0  0  0  0  0  0  0  0  0
   64.0880   33.0710   47.8840 C   0  0  0  0  0  0  0  0  0  0  0  0
   63.3850   33.3840   46.7210 C   0  0  0  0  0  0  0  0  0  0  0  0
   62.0600   33.8200   46.8020 C   0  0  0  0  0  0  0  0  0  0  0  0
   61.4340   33.9600   48.0510 C   0  0  0  0  0  0  0  0  0  0  0  0
   60.0260   34.3970   48.1290 C   0  0  0  0  0  0  0  0  0  0  0  0
   59.3660   34.9860   47.1240 C   0  0  0  0  0  0  0  0  0  0  0  0
   58.5870   34.1100   45.8060 S   0  0  0  0  0  0  0  0  0  0  0  0
   58.8580   34.7710   44.4830 O   0  0  0  0  0  0  0  0  0  0  0  0
   57.1030   34.0600   46.0410 O   0  0  0  0  0  0  0  0  0  0  0  0
   59.1830   32.4830   45.7680 N   0  0  0  0  0  0  0  0  0  0  0  0
   58.3850   31.2990   45.6150 C   0  0  0  0  0  0  0  0  0  0  0  0
   57.2960   31.2620   44.7240 C   0  0  0  0  0  0  0  0  0  0  0  0
   56.5240   30.1040   44.5990 C   0  0  0  0  0  0  0  0  0  0  0  0
   56.8240   28.9720   45.3620 C   0  0  0  0  0  0  0  0  0  0  0  0
   56.0570   27.8150   45.2460 O   0  0  0  0  0  0  0  0  0  0  0  0
   57.9030   28.9990   46.2480 C   0  0  0  0  0  0  0  0  0  0  0  0
   58.6950   30.1520   46.3760 C   0  0  0  0  0  0  0  0  0  0  0  0
   60.0480   30.1610   47.5170 S   0  0  0  0  0  0  0  0  0  0  0  0
   61.1690   30.9830   46.9410 O   0  0  0  0  0  0  0  0  0  0  0  0
   60.5420   28.7580   47.7420 O   0  0  0  0  0  0  0  0  0  0  0  0
   59.5620   30.8250   49.0760 C   0  0  0  0  0  0  0  0  0  0  0  0
   60.2200   30.4340   50.2530 C   0  0  0  0  0  0  0  0  0  0  0  0
   59.8370   30.9760   51.4840 C   0  0  0  0  0  0  0  0  0  0  0  0
   58.7960   31.9110   51.5470 C   0  0  0  0  0  0  0  0  0  0  0  0
   58.3050   32.6050   53.1270 S   0  0  0  0  0  0  0  0  0  0  0  0
   58.5350   34.3250   52.5780 C   0  0  0  0  0  0  0  0  0  0  0  0
   58.1480   32.3110   50.3730 C   0  0  0  0  0  0  0  0  0  0  0  0
   58.5300   31.7700   49.1410 C   0  0  0  0  0  0  0  0  0  0  0  0
   61.3984   33.7758   52.5301 H   0  0  0  0  0  0  0  0  0  0  0  0
   62.2503   32.3697   51.8063 H   0  0  0  0  0  0  0  0  0  0  0  0
   63.0286   33.9887   51.8063 H   0  0  0  0  0  0  0  0  0  0  0  0
   64.0258   32.9237   50.0435 H   0  0  0  0  0  0  0  0  0  0  0  0
   65.1339   32.7365   47.8192 H   0  0  0  0  0  0  0  0  0  0  0  0
   63.8735   33.2877   45.7401 H   0  0  0  0  0  0  0  0  0  0  0  0
   61.5043   34.0549   45.8822 H   0  0  0  0  0  0  0  0  0  0  0  0
   59.4853   34.2281   49.0719 H   0  0  0  0  0  0  0  0  0  0  0  0
   59.3058   36.0843   47.1200 H   0  0  0  0  0  0  0  0  0  0  0  0
   57.0512   32.1499   44.1225 H   0  0  0  0  0  0  0  0  0  0  0  0
   55.6770   30.0832   43.8975 H   0  0  0  0  0  0  0  0  0  0  0  0
   56.2500   27.1200   44.5340 H   0  0  0  0  0  0  0  0  0  0  0  0
   58.1349   28.1090   46.8514 H   0  0  0  0  0  0  0  0  0  0  0  0
   61.0381   29.7001   50.2068 H   0  0  0  0  0  0  0  0  0  0  0  0
   60.3542   30.6675   52.4045 H   0  0  0  0  0  0  0  0  0  0  0  0
   58.6228   34.9816   53.4562 H   0  0  0  0  0  0  0  0  0  0  0  0
   59.4508   34.3974   51.9730 H   0  0  0  0  0  0  0  0  0  0  0  0
   57.6704   34.6355   51.9730 H   0  0  0  0  0  0  0  0  0  0  0  0
   57.3366   33.0523   50.4191 H   0  0  0  0  0  0  0  0  0  0  0  0
   58.0185   32.0876   48.2204 H   0  0  0  0  0  0  0  0  0  0  0  0
  1  2  1  0
  2  3  1  0
  3  4  2  0
  4  5  1  0
  5  6  2  0
  6  7  1  0
  7  8  2  0
  8  9  1  0
  9 10  2  3
 10 11  1  0
 11 12  2  0
 11 13  2  0
 11 14  1  0
 14 15  1  0
 15 16  2  0
 16 17  1  0
 17 18  2  0
 18 19  1  0
 18 20  1  0
 20 21  2  0
 21 22  1  0
 22 23  2  0
 22 24  2  0
 22 25  1  0
 25 26  2  0
 26 27  1  0
 27 28  2  0
 28 29  1  0
 29 30  1  0
 28 31  1  0
 31 32  2  0
  8  3  1  0
 21 15  1  0
 32 25  1  0
  1 33  1  0
  1 34  1  0
  1 35  1  0
  4 36  1  0
  5 37  1  0
  6 38  1  0
  7 39  1  0
  9 40  1  0
 10 41  1  0
 16 42  1  0
 17 43  1  0
 19 44  1  0
 20 45  1  0
 26 46  1  0
 27 47  1  0
 30 48  1  0
 30 49  1  0
 30 50  1  0
 31 51  1  0
 32 52  1  0
M  CHG  1  14  -1
M  END
>  <UniqueID>  (30) 
29

>  <SMILES>  (30) 
COc1ccccc1C=CS(=O)(=O)[N-]c1ccc(O)cc1S(=O)(=O)c1ccc(SC)cc1

>  <Energy>  (30) 
63.31219491366549

>  <Genealogy>  (30) 
COc1ccccc1C=CS(=O)(=O)[N-]c1ccc(O)cc1S(=O)(=O)c1ccc(SC)cc1 (protonated)
COc1ccccc1C=CS(=O)(=O)[N-]c1ccc(O)cc1S(=O)(=O)c1ccc(SC)cc1 (3D coordinates assigned)
COc1ccccc1C=CS(=O)(=O)[N-]c1ccc(O)cc1S(=O)(=O)c1ccc(SC)cc1 (optimized conformer: 63.31219491366549 kcal/mol)

>  <smiles>  (30) 
COc1ccccc1C=CS(=O)(=O)Nc1ccc(O)cc1S(=O)(=O)c1ccc(SC)cc1

>  <score_type>  (30) 
oracle

>  <origin>  (30) 
adg

>  <m_score__min__energy>  (30) 
-10.84

>  <m_primary>  (30) 
energy

$$$$
30:0
     RDKit          3D

 38 40  0  0  1  0  0  0  0  0999 V2000
   62.4130   34.9230   49.7710 N   0  0  0  0  0  0  0  0  0  0  0  0
   62.0750   33.9090   49.3470 C   0  0  0  0  0  0  0  0  0  0  0  0
   61.6460   32.6370   48.7880 C   0  0  0  0  0  0  0  0  0  0  0  0
   60.6720   31.8700   49.3960 C   0  0  0  0  0  0  0  0  0  0  0  0
   60.2770   30.6570   48.8460 C   0  0  0  0  0  0  0  0  0  0  0  0
   60.8590   30.1960   47.6700 C   0  0  0  0  0  0  0  0  0  0  0  0
   60.4480   28.9530   47.1130 N   0  0  0  0  0  0  0  0  0  0  0  0
   59.4710   28.8080   46.3130 C   0  0  0  0  0  0  0  0  0  0  0  0
   59.2090   27.5640   45.7740 C   0  0  0  0  0  0  0  0  0  0  0  0
   58.1330   27.4800   44.9140 C   0  0  0  0  0  0  0  0  0  0  0  0
   57.7650   25.9360   44.2110 Cl  0  0  0  0  0  0  0  0  0  0  0  0
   57.3930   28.5690   44.6320 N   0  0  0  0  0  0  0  0  0  0  0  0
   57.6500   29.7850   45.1600 C   0  0  0  0  0  0  0  0  0  0  0  0
   56.9420   30.8240   44.8900 N   0  0  0  0  0  0  0  0  0  0  0  0
   57.4540   31.9430   44.1650 C   0  0  0  0  0  0  0  0  0  0  0  0
   58.0670   32.8710   45.1810 C   0  0  0  0  0  0  0  0  0  0  0  0
   57.7580   32.7860   46.5230 C   0  0  0  0  0  0  0  0  0  0  0  0
   58.3610   33.6770   47.4150 C   0  0  0  0  0  0  0  0  0  0  0  0
   59.2560   34.6330   46.9510 C   0  0  0  0  0  0  0  0  0  0  0  0
   59.5680   34.7260   45.6110 C   0  0  0  0  0  0  0  0  0  0  0  0
   58.9650   33.8380   44.7420 C   0  0  0  0  0  0  0  0  0  0  0  0
   58.6970   29.8660   45.9960 N   0  0  0  0  0  0  0  0  0  0  0  0
   61.8320   30.9880   47.0860 C   0  0  0  0  0  0  0  0  0  0  0  0
   62.2340   32.1940   47.6220 C   0  0  0  0  0  0  0  0  0  0  0  0
   63.4760   33.0940   46.7780 Cl  0  0  0  0  0  0  0  0  0  0  0  0
   60.2035   32.2235   50.3264 H   0  0  0  0  0  0  0  0  0  0  0  0
   59.4998   30.0580   49.3432 H   0  0  0  0  0  0  0  0  0  0  0  0
   59.8255   26.6861   46.0173 H   0  0  0  0  0  0  0  0  0  0  0  0
   56.5910   28.4390   43.9720 H   0  0  0  0  0  0  0  0  0  0  0  0
   58.2167   31.6117   43.4449 H   0  0  0  0  0  0  0  0  0  0  0  0
   56.6569   32.4465   43.5983 H   0  0  0  0  0  0  0  0  0  0  0  0
   57.0477   32.0283   46.8854 H   0  0  0  0  0  0  0  0  0  0  0  0
   58.1262   33.6212   48.4882 H   0  0  0  0  0  0  0  0  0  0  0  0
   59.7236   35.3274   47.6645 H   0  0  0  0  0  0  0  0  0  0  0  0
   60.2758   35.4845   45.2453 H   0  0  0  0  0  0  0  0  0  0  0  0
   59.2023   33.8974   43.6695 H   0  0  0  0  0  0  0  0  0  0  0  0
   58.9330   30.7660   46.4230 H   0  0  0  0  0  0  0  0  0  0  0  0
   62.3048   30.6414   46.1552 H   0  0  0  0  0  0  0  0  0  0  0  0
  1  2  3  0
  2  3  1  0
  3  4  2  0
  4  5  1  0
  5  6  2  0
  6  7  1  0
  7  8  2  0
  8  9  1  0
  9 10  2  0
 10 11  1  0
 10 12  1  0
 12 13  1  0
 13 14  2  0
 14 15  1  0
 15 16  1  0
 16 17  2  0
 17 18  1  0
 18 19  2  0
 19 20  1  0
 20 21  2  0
 13 22  1  0
  6 23  1  0
 23 24  2  0
 24 25  1  0
 24  3  1  0
 22  8  1  0
 21 16  1  0
  4 26  1  0
  5 27  1  0
  9 28  1  0
 12 29  1  0
 15 30  1  0
 15 31  1  0
 17 32  1  0
 18 33  1  0
 19 34  1  0
 20 35  1  0
 21 36  1  0
 22 37  1  0
 23 38  1  0
M  END
>  <smiles>  (31) 
N#Cc1ccc(N=c2cc(Cl)[nH]c(=NCc3ccccc3)[nH]2)cc1Cl

>  <score_type>  (31) 
oracle

>  <origin>  (31) 
adg

>  <m_score__min__energy>  (31) 
-8.7599999999999998

>  <m_primary>  (31) 
energy

$$$$
31:0
     RDKit          3D

 59 62  0  0  1  0  0  0  0  0999 V2000
   56.4200   20.5980   43.2390 N   0  0  0  0  0  0  0  0  0  0  0  0
   58.5320   22.7990   44.8940 C   0  0  0  0  0  0  0  0  0  0  0  0
   58.0200   21.6490   44.4060 N   0  0  0  0  0  0  0  0  0  0  0  0
   56.8670   21.7160   43.6820 C   0  0  0  0  0  0  0  0  0  0  0  0
   59.5990   22.7000   45.5580 O   0  0  0  0  0  0  0  0  0  0  0  0
   57.9280   24.0010   44.6830 N   0  0  0  0  0  0  0  0  0  0  0  0
   58.5510   25.1870   45.2430 C   0  0  1  0  0  0  0  0  0  0  0  0
   58.2140   26.4170   44.4380 C   0  0  0  0  0  0  0  0  0  0  0  0
   57.4850   27.4630   45.2460 C   0  0  0  0  0  0  0  0  0  0  0  0
   58.1660   27.8080   46.5370 C   0  0  2  0  0  0  0  0  0  0  0  0
   58.9270   29.0300   46.5130 N   0  0  0  0  0  0  0  0  0  0  0  0
   59.1090   29.8330   47.6620 C   0  0  0  0  0  0  0  0  0  0  0  0
   58.5760   29.4450   48.7330 O   0  0  0  0  0  0  0  0  0  0  0  0
   59.8760   31.0860   47.6910 C   0  0  1  0  0  0  0  0  0  0  0  0
   61.2490   30.8340   47.1540 C   0  0  0  0  0  0  0  0  0  0  0  0
   62.2700   31.7530   47.7710 C   0  0  0  0  0  0  0  0  0  0  0  0
   62.6280   32.9130   47.0960 C   0  0  0  0  0  0  0  0  0  0  0  0
   63.5650   33.7420   47.6780 C   0  0  0  0  0  0  0  0  0  0  0  0
   64.1630   33.4900   48.8810 C   0  0  0  0  0  0  0  0  0  0  0  0
   63.7870   32.3220   49.5360 C   0  0  0  0  0  0  0  0  0  0  0  0
   62.8530   31.4560   48.9980 C   0  0  0  0  0  0  0  0  0  0  0  0
   59.1000   32.1050   46.9460 C   0  0  0  0  0  0  0  0  0  0  0  0
   58.8440   33.3730   47.4480 C   0  0  0  0  0  0  0  0  0  0  0  0
   58.1080   34.2310   46.6590 C   0  0  0  0  0  0  0  0  0  0  0  0
   57.6220   33.8960   45.4200 C   0  0  0  0  0  0  0  0  0  0  0  0
   56.8970   34.7740   44.6710 F   0  0  0  0  0  0  0  0  0  0  0  0
   57.8880   32.6280   44.9400 C   0  0  0  0  0  0  0  0  0  0  0  0
   58.6220   31.7430   45.7020 C   0  0  0  0  0  0  0  0  0  0  0  0
   58.9600   26.6480   47.1000 C   0  0  0  0  0  0  0  0  0  0  0  0
   58.1840   25.3890   46.7180 C   0  0  0  0  0  0  0  0  0  0  0  0
   56.8120   24.0440   43.9790 C   0  0  0  0  0  0  0  0  0  0  0  0
   56.2150   22.9000   43.4370 C   0  0  0  0  0  0  0  0  0  0  0  0
   55.0720   22.9550   42.7190 F   0  0  0  0  0  0  0  0  0  0  0  0
   56.8630   19.6710   43.3450 H   0  0  0  0  0  0  0  0  0  0  0  0
   58.5090   20.7390   44.5850 H   0  0  0  0  0  0  0  0  0  0  0  0
   59.6382   25.0279   45.1912 H   0  0  0  0  0  0  0  0  0  0  0  0
   57.5772   26.1197   43.5918 H   0  0  0  0  0  0  0  0  0  0  0  0
   59.1616   26.8611   44.0992 H   0  0  0  0  0  0  0  0  0  0  0  0
   56.4773   27.0858   45.4745 H   0  0  0  0  0  0  0  0  0  0  0  0
   57.4612   28.3801   44.6391 H   0  0  0  0  0  0  0  0  0  0  0  0
   57.3400   28.0112   47.2344 H   0  0  0  0  0  0  0  0  0  0  0  0
   59.3570   29.3250   45.6080 H   0  0  0  0  0  0  0  0  0  0  0  0
   60.0237   31.4717   48.7105 H   0  0  0  0  0  0  0  0  0  0  0  0
   61.5303   29.7929   47.3709 H   0  0  0  0  0  0  0  0  0  0  0  0
   61.2313   31.0221   46.0703 H   0  0  0  0  0  0  0  0  0  0  0  0
   62.1771   33.1638   46.1245 H   0  0  0  0  0  0  0  0  0  0  0  0
   63.8475   34.6601   47.1421 H   0  0  0  0  0  0  0  0  0  0  0  0
   64.9061   34.1780   49.3106 H   0  0  0  0  0  0  0  0  0  0  0  0
   64.2444   32.0811   50.5069 H   0  0  0  0  0  0  0  0  0  0  0  0
   62.5731   30.5387   49.5367 H   0  0  0  0  0  0  0  0  0  0  0  0
   59.2139   33.6815   48.4369 H   0  0  0  0  0  0  0  0  0  0  0  0
   57.8987   35.2400   47.0438 H   0  0  0  0  0  0  0  0  0  0  0  0
   57.5147   32.3244   43.9508 H   0  0  0  0  0  0  0  0  0  0  0  0
   58.8295   30.7350   45.3134 H   0  0  0  0  0  0  0  0  0  0  0  0
   59.0385   26.7325   48.1939 H   0  0  0  0  0  0  0  0  0  0  0  0
   59.9854   26.6281   46.7024 H   0  0  0  0  0  0  0  0  0  0  0  0
   57.1012   25.5411   46.8380 H   0  0  0  0  0  0  0  0  0  0  0  0
   58.4315   24.5215   47.3474 H   0  0  0  0  0  0  0  0  0  0  0  0
   56.3315   25.0192   43.8115 H   0  0  0  0  0  0  0  0  0  0  0  0
  1  2  2  3
  2  3  1  0
  3  4  1  0
  4  5  2  0
  4  6  1  0
  6  7  1  0
  7  8  1  0
  8  9  1  0
  9 10  1  0
 10 11  1  0
 11 12  1  0
 12 13  2  0
 12 14  1  0
 14 15  1  0
 15 16  1  0
 16 17  2  0
 17 18  1  0
 18 19  2  0
 19 20  1  0
 20 21  2  0
 14 22  1  0
 22 23  2  0
 23 24  1  0
 24 25  2  0
 25 26  1  0
 25 27  1  0
 27 28  2  0
 10 29  1  0
 29 30  1  0
  6 31  1  0
 31 32  2  0
 32 33  1  0
 32  2  1  0
 30  7  1  0
 21 16  1  0
 28 22  1  0
  1 34  1  0
  3 35  1  0
  7 36  1  1
  8 37  1  0
  8 38  1  0
  9 39  1  0
  9 40  1  0
 10 41  1  1
 11 42  1  0
 14 43  1  1
 15 44  1  0
 15 45  1  0
 17 46  1  0
 18 47  1  0
 19 48  1  0
 20 49  1  0
 21 50  1  0
 23 51  1  0
 24 52  1  0
 27 53  1  0
 28 54  1  0
 29 55  1  0
 29 56  1  0
 30 57  1  0
 30 58  1  0
 31 59  1  0
M  END
>  <smiles>  (32) 
N=c1[nH]c(=O)n(C2CCC(NC(=O)C(Cc3ccccc3)c3ccc(F)cc3)CC2)cc1F

>  <score_type>  (32) 
oracle

>  <origin>  (32) 
adg

>  <m_score__min__energy>  (32) 
-10.4

>  <m_primary>  (32) 
energy

$$$$
32:0
     RDKit          3D

 37 37  0  0  0  0  0  0  0  0999 V2000
   59.2660   33.4890   48.0570 C   0  0  0  0  0  0  0  0  0  0  0  0
   59.8820   34.4420   47.0460 C   0  0  0  0  0  0  0  0  0  0  0  0
   58.8630   34.9570   46.2150 O   0  0  0  0  0  0  0  0  0  0  0  0
   58.8100   34.2430   44.9930 C   0  0  0  0  0  0  0  0  0  0  0  0
   57.4590   33.5290   44.8620 C   0  0  0  0  0  0  0  0  0  0  0  0
   57.6040   32.0030   44.9230 C   0  0  0  0  0  0  0  0  0  0  0  0
   56.3390   31.3360   44.6330 N   0  0  0  0  0  0  0  0  0  0  0  0
   56.2030   29.9180   44.4920 C   0  0  0  0  0  0  0  0  0  0  0  0
   55.1510   29.3340   44.8700 O   0  0  0  0  0  0  0  0  0  0  0  0
   57.3430   29.1180   43.9460 C   0  0  0  0  0  0  0  0  0  0  0  0
   57.9960   28.3650   45.0280 N   0  0  0  0  0  0  0  0  0  0  0  0
   58.4370   29.0450   46.1310 C   0  0  0  0  0  0  0  0  0  0  0  0
   59.0370   28.3710   47.2050 C   0  0  0  0  0  0  0  0  0  0  0  0
   59.5720   29.1440   48.3840 C   0  0  0  0  0  0  0  0  0  0  0  0
   58.5490   29.7660   49.0780 F   0  0  0  0  0  0  0  0  0  0  0  0
   60.4610   30.1160   47.9580 F   0  0  0  0  0  0  0  0  0  0  0  0
   60.2290   28.2740   49.2350 F   0  0  0  0  0  0  0  0  0  0  0  0
   59.2090   26.9840   47.1120 C   0  0  0  0  0  0  0  0  0  0  0  0
   58.7440   26.2940   45.9950 C   0  0  0  0  0  0  0  0  0  0  0  0
   58.9470   24.5480   45.9080 Cl  0  0  0  0  0  0  0  0  0  0  0  0
   58.1270   27.0000   44.9540 C   0  0  0  0  0  0  0  0  0  0  0  0
   57.6970   26.3700   43.9490 O   0  0  0  0  0  0  0  0  0  0  0  0
   59.4919   33.8385   49.0753 H   0  0  0  0  0  0  0  0  0  0  0  0
   58.1758   33.4569   47.9137 H   0  0  0  0  0  0  0  0  0  0  0  0
   59.6844   32.4818   47.9137 H   0  0  0  0  0  0  0  0  0  0  0  0
   60.3790   35.2688   47.5746 H   0  0  0  0  0  0  0  0  0  0  0  0
   60.6225   33.9054   46.4347 H   0  0  0  0  0  0  0  0  0  0  0  0
   58.9341   34.9449   44.1551 H   0  0  0  0  0  0  0  0  0  0  0  0
   59.6170   33.4957   44.9757 H   0  0  0  0  0  0  0  0  0  0  0  0
   56.8040   33.8561   45.6830 H   0  0  0  0  0  0  0  0  0  0  0  0
   57.0319   33.7896   43.8824 H   0  0  0  0  0  0  0  0  0  0  0  0
   58.3540   31.6849   44.1839 H   0  0  0  0  0  0  0  0  0  0  0  0
   57.9165   31.7253   45.9405 H   0  0  0  0  0  0  0  0  0  0  0  0
   56.9645   28.4143   43.1900 H   0  0  0  0  0  0  0  0  0  0  0  0
   58.0752   29.8000   43.4891 H   0  0  0  0  0  0  0  0  0  0  0  0
   58.3190   30.1377   46.1760 H   0  0  0  0  0  0  0  0  0  0  0  0
   59.7127   26.4382   47.9234 H   0  0  0  0  0  0  0  0  0  0  0  0
  1  2  1  0
  2  3  1  0
  3  4  1  0
  4  5  1  0
  5  6  1  0
  6  7  1  0
  7  8  1  0
  8  9  2  0
  8 10  1  0
 10 11  1  0
 11 12  1  0
 12 13  2  0
 13 14  1  0
 14 15  1  0
 14 16  1  0
 14 17  1  0
 13 18  1  0
 18 19  2  0
 19 20  1  0
 19 21  1  0
 21 22  2  0
 21 11  1  0
  1 23  1  0
  1 24  1  0
  1 25  1  0
  2 26  1  0
  2 27  1  0
  4 28  1  0
  4 29  1  0
  5 30  1  0
  5 31  1  0
  6 32  1  0
  6 33  1  0
 10 34  1  0
 10 35  1  0
 12 36  1  0
 18 37  1  0
M  CHG  1   7  -1
M  END
>  <UniqueID>  (33) 
30

>  <SMILES>  (33) 
CCOCCC[N-]C(=O)Cn1cc(C(F)(F)F)cc(Cl)c1=O

>  <Energy>  (33) 
30.277238731021477

>  <Genealogy>  (33) 
CCOCCC[N-]C(=O)Cn1cc(C(F)(F)F)cc(Cl)c1=O (protonated)
CCOCCC[N-]C(=O)Cn1cc(C(F)(F)F)cc(Cl)c1=O (3D coordinates assigned)
CCOCCC[N-]C(=O)Cn1cc(C(F)(F)F)cc(Cl)c1=O (optimized conformer: 30.277238731021477 kcal/mol)

>  <smiles>  (33) 
CCOCCCNC(=O)Cn1cc(C(F)(F)F)cc(Cl)c1=O

>  <score_type>  (33) 
oracle

>  <origin>  (33) 
adg

>  <m_score__min__energy>  (33) 
-7.8200000000000003

>  <m_primary>  (33) 
energy

$$$$
33:0
     RDKit          3D

 35 37  0  0  0  0  0  0  0  0999 V2000
   63.3960   34.1830   46.4220 N   0  0  0  0  0  0  0  0  0  0  0  0
   62.4360   33.6210   46.7390 C   0  0  0  0  0  0  0  0  0  0  0  0
   61.2420   32.9210   47.1340 C   0  0  0  0  0  0  0  0  0  0  0  0
   60.0900   33.6390   47.4800 C   0  0  0  0  0  0  0  0  0  0  0  0
   58.9350   32.9600   47.8750 C   0  0  0  0  0  0  0  0  0  0  0  0
   58.9220   31.5620   47.9180 C   0  0  0  0  0  0  0  0  0  0  0  0
   60.0670   30.8310   47.5500 C   0  0  0  0  0  0  0  0  0  0  0  0
   60.0870   29.3940   47.6150 N   0  0  0  0  0  0  0  0  0  0  0  0
   59.2590   28.5330   46.8140 C   0  0  0  0  0  0  0  0  0  0  0  0
   59.6620   27.2250   46.4910 C   0  0  0  0  0  0  0  0  0  0  0  0
   58.8340   26.4020   45.7250 C   0  0  0  0  0  0  0  0  0  0  0  0
   57.5890   26.8640   45.2940 C   0  0  0  0  0  0  0  0  0  0  0  0
   57.1510   28.1510   45.6530 C   0  0  0  0  0  0  0  0  0  0  0  0
   55.8860   28.6630   45.2120 N   0  0  0  0  0  0  0  0  0  0  0  0
   55.6860   29.7090   44.2520 C   0  0  0  0  0  0  0  0  0  0  0  0
   54.7240   29.6160   43.4440 O   0  0  0  0  0  0  0  0  0  0  0  0
   56.6170   30.8460   44.1420 C   0  0  0  0  0  0  0  0  0  0  0  0
   57.3330   31.1950   43.0140 C   0  0  0  0  0  0  0  0  0  0  0  0
   58.0740   32.3020   43.3720 C   0  0  0  0  0  0  0  0  0  0  0  0
   57.7690   32.5560   44.6940 C   0  0  0  0  0  0  0  0  0  0  0  0
   56.9000   31.6710   45.1240 O   0  0  0  0  0  0  0  0  0  0  0  0
   57.9960   28.9820   46.3980 C   0  0  0  0  0  0  0  0  0  0  0  0
   61.2300   31.5200   47.1780 C   0  0  0  0  0  0  0  0  0  0  0  0
   60.0950   34.7383   47.4406 H   0  0  0  0  0  0  0  0  0  0  0  0
   58.0336   33.5260   48.1529 H   0  0  0  0  0  0  0  0  0  0  0  0
   58.0137   31.0320   48.2406 H   0  0  0  0  0  0  0  0  0  0  0  0
   60.7480   28.9460   48.2890 H   0  0  0  0  0  0  0  0  0  0  0  0
   60.6337   26.8486   46.8433 H   0  0  0  0  0  0  0  0  0  0  0  0
   59.1636   25.3865   45.4603 H   0  0  0  0  0  0  0  0  0  0  0  0
   56.9496   26.2200   44.6724 H   0  0  0  0  0  0  0  0  0  0  0  0
   57.3160   30.6947   42.0345 H   0  0  0  0  0  0  0  0  0  0  0  0
   58.7678   32.8680   42.7330 H   0  0  0  0  0  0  0  0  0  0  0  0
   58.1899   33.3751   45.2955 H   0  0  0  0  0  0  0  0  0  0  0  0
   57.6665   29.9982   46.6603 H   0  0  0  0  0  0  0  0  0  0  0  0
   62.1391   30.9574   46.9190 H   0  0  0  0  0  0  0  0  0  0  0  0
  1  2  3  0
  2  3  1  0
  3  4  2  0
  4  5  1  0
  5  6  2  0
  6  7  1  0
  7  8  1  0
  8  9  1  0
  9 10  2  0
 10 11  1  0
 11 12  2  0
 12 13  1  0
 13 14  1  0
 14 15  1  0
 15 16  2  0
 15 17  1  0
 17 18  2  0
 18 19  1  0
 19 20  2  0
 20 21  1  0
 13 22  2  0
  7 23  2  0
 23  3  1  0
 22  9  1  0
 21 17  1  0
  4 24  1  0
  5 25  1  0
  6 26  1  0
  8 27  1  0
 10 28  1  0
 11 29  1  0
 12 30  1  0
 18 31  1  0
 19 32  1  0
 20 33  1  0
 22 34  1  0
 23 35  1  0
M  CHG  1  14  -1
M  END
>  <UniqueID>  (34) 
31

>  <SMILES>  (34) 
N#Cc1cccc(Nc2cccc([N-]C(=O)c3ccco3)c2)c1

>  <Energy>  (34) 
72.54450815599147

>  <Genealogy>  (34) 
N#Cc1cccc(Nc2cccc([N-]C(=O)c3ccco3)c2)c1 (protonated)
N#Cc1cccc(Nc2cccc([N-]C(=O)c3ccco3)c2)c1 (3D coordinates assigned)
N#Cc1cccc(Nc2cccc([N-]C(=O)c3ccco3)c2)c1 (optimized conformer: 72.54450815599147 kcal/mol)

>  <smiles>  (34) 
N#Cc1cccc(Nc2cccc(NC(=O)c3ccco3)c2)c1

>  <score_type>  (34) 
oracle

>  <origin>  (34) 
adg

>  <m_score__min__energy>  (34) 
-9.5999999999999996

>  <m_primary>  (34) 
energy

$$$$
34:0
     RDKit          3D

 63 65  0  0  1  0  0  0  0  0999 V2000
   63.8740   32.9600   46.8340 N   0  0  0  0  0  0  0  0  0  0  0  0
   63.7840   33.1850   48.0950 C   0  0  0  0  0  0  0  0  0  0  0  0
   64.8430   33.0240   48.9280 N   0  0  0  0  0  0  0  0  0  0  0  0
   64.7170   33.2660   50.2440 C   0  0  0  0  0  0  0  0  0  0  0  0
   65.8380   33.0920   51.1010 N   0  0  0  0  0  0  0  0  0  0  0  0
   66.9620   33.9960   51.2590 C   0  0  0  0  0  0  0  0  0  0  0  0
   68.1170   33.0050   51.2830 C   0  0  0  0  0  0  0  0  0  0  0  0
   67.5510   31.6560   51.5920 C   0  0  0  0  0  0  0  0  0  0  0  0
   66.1070   31.9840   51.9960 C   0  0  0  0  0  0  0  0  0  0  0  0
   63.5070   33.6800   50.7510 C   0  0  0  0  0  0  0  0  0  0  0  0
   62.4290   33.8450   49.9150 C   0  0  0  0  0  0  0  0  0  0  0  0
   61.2640   34.2250   50.2880 N   0  0  0  0  0  0  0  0  0  0  0  0
   60.1250   33.4070   50.0490 C   0  0  0  0  0  0  0  0  0  0  0  0
   59.7030   33.5360   48.6220 C   0  0  0  0  0  0  0  0  0  0  0  0
   59.5290   34.7810   48.0190 C   0  0  0  0  0  0  0  0  0  0  0  0
   59.1370   34.8980   46.6900 C   0  0  0  0  0  0  0  0  0  0  0  0
   58.9090   33.7740   45.9240 C   0  0  0  0  0  0  0  0  0  0  0  0
   59.0750   32.5330   46.4980 C   0  0  0  0  0  0  0  0  0  0  0  0
   58.8600   31.2800   45.7830 C   0  0  0  0  0  0  0  0  0  0  0  0
   59.8090   30.5090   45.4570 O   0  0  0  0  0  0  0  0  0  0  0  0
   57.5520   30.8830   45.4250 N   0  0  0  0  0  0  0  0  0  0  0  0
   57.3830   29.5520   44.6710 C   0  0  1  0  0  0  0  0  0  0  0  0
   57.3970   28.6000   45.8010 C   0  0  0  0  0  0  0  0  0  0  0  0
   57.9230   27.2450   45.7070 C   0  0  0  0  0  0  0  0  0  0  0  0
   58.7410   26.9380   44.5120 C   0  0  0  0  0  0  0  0  0  0  0  0
   57.8470   26.3960   43.3670 C   0  0  0  0  0  0  0  0  0  0  0  0
   57.6340   27.3970   42.3660 N   0  0  0  0  0  0  0  0  0  0  0  0
   56.1800   29.7340   43.8720 C   0  0  0  0  0  0  0  0  0  0  0  0
   55.2050   30.3410   44.4900 O   0  0  0  0  0  0  0  0  0  0  0  0
   55.8930   29.3870   42.5860 O   0  0  0  0  0  0  0  0  0  0  0  0
   59.4630   32.4420   47.8160 C   0  0  0  0  0  0  0  0  0  0  0  0
   62.6070   33.5900   48.6060 N   0  0  0  0  0  0  0  0  0  0  0  0
   64.5530   32.3370   46.3860 H   0  0  0  0  0  0  0  0  0  0  0  0
   65.7260   32.7080   48.4710 H   0  0  0  0  0  0  0  0  0  0  0  0
   67.0436   34.6937   50.4125 H   0  0  0  0  0  0  0  0  0  0  0  0
   66.9023   34.6503   52.1412 H   0  0  0  0  0  0  0  0  0  0  0  0
   68.6156   32.9867   50.3026 H   0  0  0  0  0  0  0  0  0  0  0  0
   68.8584   33.2952   52.0420 H   0  0  0  0  0  0  0  0  0  0  0  0
   67.5773   31.0022   50.7078 H   0  0  0  0  0  0  0  0  0  0  0  0
   68.1105   31.1140   52.3686 H   0  0  0  0  0  0  0  0  0  0  0  0
   65.4296   31.1372   51.8116 H   0  0  0  0  0  0  0  0  0  0  0  0
   65.9650   32.2072   53.0637 H   0  0  0  0  0  0  0  0  0  0  0  0
   63.4022   33.8793   51.8277 H   0  0  0  0  0  0  0  0  0  0  0  0
   60.3771   32.3577   50.2623 H   0  0  0  0  0  0  0  0  0  0  0  0
   59.3014   33.7293   50.7030 H   0  0  0  0  0  0  0  0  0  0  0  0
   59.7061   35.6925   48.6087 H   0  0  0  0  0  0  0  0  0  0  0  0
   59.0076   35.8959   46.2457 H   0  0  0  0  0  0  0  0  0  0  0  0
   58.5998   33.8670   44.8725 H   0  0  0  0  0  0  0  0  0  0  0  0
   56.6860   31.4180   45.6280 H   0  0  0  0  0  0  0  0  0  0  0  0
   58.1188   29.1924   43.9367 H   0  0  0  0  0  0  0  0  0  0  0  0
   57.9727   29.0907   46.5997 H   0  0  0  0  0  0  0  0  0  0  0  0
   56.3222   28.4034   45.9278 H   0  0  0  0  0  0  0  0  0  0  0  0
   58.5472   27.0660   46.5949 H   0  0  0  0  0  0  0  0  0  0  0  0
   57.0400   26.5933   45.6320 H   0  0  0  0  0  0  0  0  0  0  0  0
   59.2462   27.8547   44.1738 H   0  0  0  0  0  0  0  0  0  0  0  0
   59.4840   26.1713   44.7767 H   0  0  0  0  0  0  0  0  0  0  0  0
   58.3390   25.5262   42.9072 H   0  0  0  0  0  0  0  0  0  0  0  0
   56.8726   26.1086   43.7887 H   0  0  0  0  0  0  0  0  0  0  0  0
   57.8350   28.3760   42.7250 H   0  0  0  0  0  0  0  0  0  0  0  0
   56.6280   27.4380   42.0640 H   0  0  0  0  0  0  0  0  0  0  0  0
   55.6970   28.4740   42.2400 H   0  0  0  0  0  0  0  0  0  0  0  0
   59.5889   31.4397   48.2514 H   0  0  0  0  0  0  0  0  0  0  0  0
   61.8090   33.7050   47.9420 H   0  0  0  0  0  0  0  0  0  0  0  0
  1  2  2  3
  2  3  1  0
  3  4  1  0
  4  5  1  0
  5  6  1  0
  6  7  1  0
  7  8  1  0
  8  9  1  0
  4 10  2  0
 10 11  1  0
 11 12  2  0
 12 13  1  0
 13 14  1  0
 14 15  2  0
 15 16  1  0
 16 17  2  0
 17 18  1  0
 18 19  1  0
 19 20  2  0
 19 21  1  0
 21 22  1  0
 22 23  1  0
 23 24  1  0
 24 25  1  0
 25 26  1  0
 26 27  1  0
 22 28  1  0
 28 29  2  0
 28 30  1  0
 18 31  2  0
 11 32  1  0
 32  2  1  0
  9  5  1  0
 31 14  1  0
  1 33  1  0
  3 34  1  0
  6 35  1  0
  6 36  1  0
  7 37  1  0
  7 38  1  0
  8 39  1  0
  8 40  1  0
  9 41  1  0
  9 42  1  0
 10 43  1  0
 13 44  1  0
 13 45  1  0
 15 46  1  0
 16 47  1  0
 17 48  1  0
 21 49  1  0
 22 50  1  6
 23 51  1  0
 23 52  1  0
 24 53  1  0
 24 54  1  0
 25 55  1  0
 25 56  1  0
 26 57  1  0
 26 58  1  0
 27 59  1  0
 27 60  1  0
 30 61  1  0
 31 62  1  0
 32 63  1  0
M  END
>  <smiles>  (35) 
N=c1[nH]c(N2CCCC2)cc(=NCc2cccc(C(=O)NC(CCCCN)C(=O)O)c2)[nH]1

>  <score_type>  (35) 
oracle

>  <origin>  (35) 
adg

>  <m_score__min__energy>  (35) 
-10.69

>  <m_primary>  (35) 
energy

$$$$
35:0
     RDKit          3D

 52 55  0  0  0  0  0  0  0  0999 V2000
   61.8200   28.1750   51.6660 C   0  0  0  0  0  0  0  0  0  0  0  0
   61.0850   28.2090   50.3590 C   0  0  0  0  0  0  0  0  0  0  0  0
   60.7660   27.0140   49.6980 C   0  0  0  0  0  0  0  0  0  0  0  0
   60.1300   27.0450   48.4530 C   0  0  0  0  0  0  0  0  0  0  0  0
   59.8150   28.2720   47.8530 C   0  0  0  0  0  0  0  0  0  0  0  0
   59.1170   28.3260   46.2370 S   0  0  0  0  0  0  0  0  0  0  0  0
   60.1550   28.7810   45.2480 O   0  0  0  0  0  0  0  0  0  0  0  0
   58.6310   26.9610   45.8360 O   0  0  0  0  0  0  0  0  0  0  0  0
   57.8010   29.4460   46.2340 N   0  0  0  0  0  0  0  0  0  0  0  0
   58.0500   30.8370   46.0520 C   0  0  0  0  0  0  0  0  0  0  0  0
   58.6030   31.5970   47.1000 C   0  0  0  0  0  0  0  0  0  0  0  0
   59.0020   32.9360   46.8870 C   0  0  0  0  0  0  0  0  0  0  0  0
   59.6750   33.8690   48.2170 S   0  0  0  0  0  0  0  0  0  0  0  0
   59.3690   35.3290   48.0200 O   0  0  0  0  0  0  0  0  0  0  0  0
   59.0590   33.4350   49.5180 O   0  0  0  0  0  0  0  0  0  0  0  0
   61.4150   33.6210   48.2670 C   0  0  0  0  0  0  0  0  0  0  0  0
   62.1240   33.3500   47.0870 C   0  0  0  0  0  0  0  0  0  0  0  0
   63.5040   33.1320   47.1320 C   0  0  0  0  0  0  0  0  0  0  0  0
   64.1810   33.1750   48.3540 C   0  0  0  0  0  0  0  0  0  0  0  0
   63.4770   33.4340   49.5340 C   0  0  0  0  0  0  0  0  0  0  0  0
   62.0960   33.6530   49.4930 C   0  0  0  0  0  0  0  0  0  0  0  0
   58.8590   33.5190   45.6130 C   0  0  0  0  0  0  0  0  0  0  0  0
   58.3200   32.7440   44.5920 C   0  0  0  0  0  0  0  0  0  0  0  0
   58.1730   33.0890   43.3370 O   0  0  0  0  0  0  0  0  0  0  0  0
   57.6570   32.0590   42.6950 C   0  0  0  0  0  0  0  0  0  0  0  0
   57.3560   32.0720   41.2320 C   0  0  0  0  0  0  0  0  0  0  0  0
   57.4490   30.9930   43.5710 C   0  0  0  0  0  0  0  0  0  0  0  0
   56.8500   29.6890   43.2330 C   0  0  0  0  0  0  0  0  0  0  0  0
   57.4580   28.4700   43.6580 N   0  0  0  0  0  0  0  0  0  0  0  0
   55.7580   29.6490   42.6060 O   0  0  0  0  0  0  0  0  0  0  0  0
   57.8930   31.4550   44.8020 C   0  0  0  0  0  0  0  0  0  0  0  0
   60.1420   29.4670   48.5090 C   0  0  0  0  0  0  0  0  0  0  0  0
   60.7800   29.4350   49.7510 C   0  0  0  0  0  0  0  0  0  0  0  0
   61.0969   28.2084   52.4943 H   0  0  0  0  0  0  0  0  0  0  0  0
   62.4096   27.2486   51.7311 H   0  0  0  0  0  0  0  0  0  0  0  0
   62.4926   29.0430   51.7311 H   0  0  0  0  0  0  0  0  0  0  0  0
   61.0171   26.0482   50.1608 H   0  0  0  0  0  0  0  0  0  0  0  0
   59.8762   26.1039   47.9431 H   0  0  0  0  0  0  0  0  0  0  0  0
   58.7258   31.1441   48.0949 H   0  0  0  0  0  0  0  0  0  0  0  0
   61.5929   33.3090   46.1246 H   0  0  0  0  0  0  0  0  0  0  0  0
   64.0580   32.9263   46.2042 H   0  0  0  0  0  0  0  0  0  0  0  0
   65.2673   33.0051   48.3874 H   0  0  0  0  0  0  0  0  0  0  0  0
   64.0098   33.4656   50.4958 H   0  0  0  0  0  0  0  0  0  0  0  0
   61.5433   33.8506   50.4233 H   0  0  0  0  0  0  0  0  0  0  0  0
   59.1655   34.5596   45.4305 H   0  0  0  0  0  0  0  0  0  0  0  0
   56.2673   32.1190   41.0821 H   0  0  0  0  0  0  0  0  0  0  0  0
   57.8283   32.9506   40.7683 H   0  0  0  0  0  0  0  0  0  0  0  0
   57.7508   31.1560   40.7683 H   0  0  0  0  0  0  0  0  0  0  0  0
   57.0510   27.5520   43.3720 H   0  0  0  0  0  0  0  0  0  0  0  0
   58.2640   28.4780   44.3220 H   0  0  0  0  0  0  0  0  0  0  0  0
   59.8953   30.4329   48.0441 H   0  0  0  0  0  0  0  0  0  0  0  0
   61.0445   30.3764   50.2547 H   0  0  0  0  0  0  0  0  0  0  0  0
  1  2  1  0
  2  3  2  0
  3  4  1  0
  4  5  2  0
  5  6  1  0
  6  7  2  0
  6  8  2  0
  6  9  1  0
  9 10  1  0
 10 11  2  0
 11 12  1  0
 12 13  1  0
 13 14  2  0
 13 15  2  0
 13 16  1  0
 16 17  2  0
 17 18  1  0
 18 19  2  0
 19 20  1  0
 20 21  2  0
 12 22  2  0
 22 23  1  0
 23 24  1  0
 24 25  1  0
 25 26  1  0
 25 27  2  0
 27 28  1  0
 28 29  1  0
 28 30  2  0
 27 31  1  0
  5 32  1  0
 32 33  2  0
 33  2  1  0
 31 10  1  0
 21 16  1  0
 31 23  2  0
  1 34  1  0
  1 35  1  0
  1 36  1  0
  3 37  1  0
  4 38  1  0
 11 39  1  0
 17 40  1  0
 18 41  1  0
 19 42  1  0
 20 43  1  0
 21 44  1  0
 22 45  1  0
 26 46  1  0
 26 47  1  0
 26 48  1  0
 29 49  1  0
 29 50  1  0
 32 51  1  0
 33 52  1  0
M  CHG  1   9  -1
M  END
>  <UniqueID>  (36) 
32

>  <SMILES>  (36) 
Cc1ccc(S(=O)(=O)[N-]c2cc(S(=O)(=O)c3ccccc3)cc3oc(C)c(C(N)=O)c23)cc1

>  <Energy>  (36) 
100.07528819477137

>  <Genealogy>  (36) 
Cc1ccc(S(=O)(=O)[N-]c2cc(S(=O)(=O)c3ccccc3)cc3oc(C)c(C(N)=O)c23)cc1 (protonated)
Cc1ccc(S(=O)(=O)[N-]c2cc(S(=O)(=O)c3ccccc3)cc3oc(C)c(C(N)=O)c23)cc1 (3D coordinates assigned)
Cc1ccc(S(=O)(=O)[N-]c2cc(S(=O)(=O)c3ccccc3)cc3oc(C)c(C(N)=O)c23)cc1 (optimized conformer: 100.07528819477137 kcal/mol)

>  <smiles>  (36) 
Cc1ccc(S(=O)(=O)Nc2cc(S(=O)(=O)c3ccccc3)cc3oc(C)c(C(N)=O)c23)cc1

>  <score_type>  (36) 
oracle

>  <origin>  (36) 
adg

>  <m_score__min__energy>  (36) 
-11.92

>  <m_primary>  (36) 
energy

$$$$
36:0
     RDKit          3D

 54 56  0  0  0  0  0  0  0  0999 V2000
   55.9610   30.9640   52.0050 C   0  0  0  0  0  0  0  0  0  0  0  0
   57.0350   30.1260   51.5910 O   0  0  0  0  0  0  0  0  0  0  0  0
   58.0770   30.5290   50.7410 C   0  0  0  0  0  0  0  0  0  0  0  0
   58.5910   29.5940   49.8360 C   0  0  0  0  0  0  0  0  0  0  0  0
   59.6310   29.9430   48.9580 C   0  0  0  0  0  0  0  0  0  0  0  0
   60.2060   29.0030   48.0380 N   0  0  0  0  0  0  0  0  0  0  0  0
   60.6180   29.2520   46.6880 C   0  0  0  0  0  0  0  0  0  0  0  0
   61.2100   30.3210   46.3780 O   0  0  0  0  0  0  0  0  0  0  0  0
   60.3860   28.2060   45.6430 C   0  0  0  0  0  0  0  0  0  0  0  0
   59.6460   28.7780   44.4290 C   0  0  0  0  0  0  0  0  0  0  0  0
   58.2110   28.4560   44.4650 N   0  0  0  0  0  0  0  0  0  0  0  0
   57.7520   27.0990   44.5920 C   0  0  0  0  0  0  0  0  0  0  0  0
   57.7840   26.2360   43.4800 C   0  0  0  0  0  0  0  0  0  0  0  0
   58.2560   26.6690   42.2850 F   0  0  0  0  0  0  0  0  0  0  0  0
   57.3220   24.9220   43.5960 C   0  0  0  0  0  0  0  0  0  0  0  0
   56.8360   24.4540   44.8190 C   0  0  0  0  0  0  0  0  0  0  0  0
   56.8170   25.2970   45.9330 C   0  0  0  0  0  0  0  0  0  0  0  0
   57.2750   26.6140   45.8250 C   0  0  0  0  0  0  0  0  0  0  0  0
   57.2900   27.3980   46.9320 F   0  0  0  0  0  0  0  0  0  0  0  0
   57.0510   29.7350   44.2630 S   0  0  0  0  0  0  0  0  0  0  0  0
   56.6700   29.8700   42.8150 O   0  0  0  0  0  0  0  0  0  0  0  0
   55.8190   29.4150   45.0620 O   0  0  0  0  0  0  0  0  0  0  0  0
   57.7620   31.2540   44.7970 C   0  0  0  0  0  0  0  0  0  0  0  0
   58.1170   31.4160   46.1420 C   0  0  0  0  0  0  0  0  0  0  0  0
   58.6700   32.6210   46.5840 C   0  0  0  0  0  0  0  0  0  0  0  0
   58.8720   33.6710   45.6820 C   0  0  0  0  0  0  0  0  0  0  0  0
   59.6260   35.3180   46.2860 Br  0  0  0  0  0  0  0  0  0  0  0  0
   58.5150   33.5150   44.3390 C   0  0  0  0  0  0  0  0  0  0  0  0
   57.9620   32.3100   43.8950 C   0  0  0  0  0  0  0  0  0  0  0  0
   60.1740   31.2300   49.0200 C   0  0  0  0  0  0  0  0  0  0  0  0
   59.6730   32.1810   49.9150 C   0  0  0  0  0  0  0  0  0  0  0  0
   60.2510   33.4590   49.9180 O   0  0  0  0  0  0  0  0  0  0  0  0
   61.3980   33.8270   49.1590 C   0  0  0  0  0  0  0  0  0  0  0  0
   58.6180   31.8270   50.7750 C   0  0  0  0  0  0  0  0  0  0  0  0
   55.9222   30.9943   53.1039 H   0  0  0  0  0  0  0  0  0  0  0  0
   56.1180   31.9807   51.6155 H   0  0  0  0  0  0  0  0  0  0  0  0
   55.0130   30.5645   51.6155 H   0  0  0  0  0  0  0  0  0  0  0  0
   58.1767   28.5753   49.8116 H   0  0  0  0  0  0  0  0  0  0  0  0
   61.3573   27.8078   45.3143 H   0  0  0  0  0  0  0  0  0  0  0  0
   59.7649   27.4115   46.0824 H   0  0  0  0  0  0  0  0  0  0  0  0
   59.7659   29.8714   44.4211 H   0  0  0  0  0  0  0  0  0  0  0  0
   60.0758   28.3277   43.5221 H   0  0  0  0  0  0  0  0  0  0  0  0
   57.3412   24.2546   42.7218 H   0  0  0  0  0  0  0  0  0  0  0  0
   56.4680   23.4210   44.9051 H   0  0  0  0  0  0  0  0  0  0  0  0
   56.4410   24.9240   46.8971 H   0  0  0  0  0  0  0  0  0  0  0  0
   57.9600   30.5917   46.8532 H   0  0  0  0  0  0  0  0  0  0  0  0
   58.9465   32.7438   47.6416 H   0  0  0  0  0  0  0  0  0  0  0  0
   58.6696   34.3420   43.6304 H   0  0  0  0  0  0  0  0  0  0  0  0
   57.6835   32.1898   42.8377 H   0  0  0  0  0  0  0  0  0  0  0  0
   61.0079   31.4987   48.3548 H   0  0  0  0  0  0  0  0  0  0  0  0
   62.2198   34.0907   49.8410 H   0  0  0  0  0  0  0  0  0  0  0  0
   61.7046   32.9821   48.5248 H   0  0  0  0  0  0  0  0  0  0  0  0
   61.1558   34.6925   48.5248 H   0  0  0  0  0  0  0  0  0  0  0  0
   58.2135   32.5696   51.4785 H   0  0  0  0  0  0  0  0  0  0  0  0
  1  2  1  0
  2  3  1  0
  3  4  2  0
  4  5  1  0
  5  6  1  0
  6  7  1  0
  7  8  2  0
  7  9  1  0
  9 10  1  0
 10 11  1  0
 11 12  1  0
 12 13  2  0
 13 14  1  0
 13 15  1  0
 15 16  2  0
 16 17  1  0
 17 18  2  0
 18 19  1  0
 11 20  1  0
 20 21  2  0
 20 22  2  0
 20 23  1  0
 23 24  2  0
 24 25  1  0
 25 26  2  0
 26 27  1  0
 26 28  1  0
 28 29  2  0
  5 30  2  0
 30 31  1  0
 31 32  1  0
 32 33  1  0
 31 34  2  0
 34  3  1  0
 18 12  1  0
 29 23  1  0
  1 35  1  0
  1 36  1  0
  1 37  1  0
  4 38  1  0
  9 39  1  0
  9 40  1  0
 10 41  1  0
 10 42  1  0
 15 43  1  0
 16 44  1  0
 17 45  1  0
 24 46  1  0
 25 47  1  0
 28 48  1  0
 29 49  1  0
 30 50  1  0
 33 51  1  0
 33 52  1  0
 33 53  1  0
 34 54  1  0
M  CHG  1   6  -1
M  END
>  <UniqueID>  (37) 
33

>  <SMILES>  (37) 
COc1cc([N-]C(=O)CCN(c2c(F)cccc2F)S(=O)(=O)c2ccc(Br)cc2)cc(OC)c1

>  <Energy>  (37) 
59.34791694795818

>  <Genealogy>  (37) 
COc1cc([N-]C(=O)CCN(c2c(F)cccc2F)S(=O)(=O)c2ccc(Br)cc2)cc(OC)c1 (protonated)
COc1cc([N-]C(=O)CCN(c2c(F)cccc2F)S(=O)(=O)c2ccc(Br)cc2)cc(OC)c1 (3D coordinates assigned)
COc1cc([N-]C(=O)CCN(c2c(F)cccc2F)S(=O)(=O)c2ccc(Br)cc2)cc(OC)c1 (optimized conformer: 59.34791694795818 kcal/mol)

>  <smiles>  (37) 
COc1cc(NC(=O)CCN(c2c(F)cccc2F)S(=O)(=O)c2ccc(Br)cc2)cc(OC)c1

>  <score_type>  (37) 
oracle

>  <origin>  (37) 
adg

>  <m_score__min__energy>  (37) 
-10.49

>  <m_primary>  (37) 
energy

$$$$
37:0
     RDKit          3D

 49 52  0  0  0  0  0  0  0  0999 V2000
   60.0380   29.3410   50.9330 C   0  0  0  0  0  0  0  0  0  0  0  0
   59.4040   29.9720   49.6870 C   0  0  0  0  0  0  0  0  0  0  0  0
   59.1650   31.4770   49.9120 C   0  0  0  0  0  0  0  0  0  0  0  0
   58.5460   32.1080   48.6620 C   0  0  0  0  0  0  0  0  0  0  0  0
   59.3020   31.7540   47.4510 N   0  0  0  0  0  0  0  0  0  0  0  0
   58.7970   32.1500   46.1630 C   0  0  0  0  0  0  0  0  0  0  0  0
   58.9020   33.4920   45.7260 C   0  0  0  0  0  0  0  0  0  0  0  0
   59.7390   34.7390   46.6720 S   0  0  0  0  0  0  0  0  0  0  0  0
   59.9360   35.9580   45.8160 O   0  0  0  0  0  0  0  0  0  0  0  0
   58.9060   35.1350   47.8580 O   0  0  0  0  0  0  0  0  0  0  0  0
   61.2790   34.1430   47.2770 C   0  0  0  0  0  0  0  0  0  0  0  0
   62.3030   33.8290   46.3730 C   0  0  0  0  0  0  0  0  0  0  0  0
   63.5380   33.3690   46.8420 C   0  0  0  0  0  0  0  0  0  0  0  0
   63.7540   33.2190   48.2140 C   0  0  0  0  0  0  0  0  0  0  0  0
   62.7320   33.5200   49.1190 C   0  0  0  0  0  0  0  0  0  0  0  0
   61.4950   33.9780   48.6540 C   0  0  0  0  0  0  0  0  0  0  0  0
   58.3450   33.8500   44.4920 C   0  0  0  0  0  0  0  0  0  0  0  0
   57.7240   32.9280   43.7120 N   0  0  0  0  0  0  0  0  0  0  0  0
   57.6350   31.6210   44.0830 C   0  0  0  0  0  0  0  0  0  0  0  0
   57.0080   30.6920   43.2370 C   0  0  0  0  0  0  0  0  0  0  0  0
   56.9320   29.3470   43.6010 C   0  0  0  0  0  0  0  0  0  0  0  0
   57.4820   28.9160   44.8090 C   0  0  0  0  0  0  0  0  0  0  0  0
   57.3970   27.2210   45.2550 Cl  0  0  0  0  0  0  0  0  0  0  0  0
   58.1060   29.8310   45.6620 C   0  0  0  0  0  0  0  0  0  0  0  0
   58.1800   31.1960   45.3180 C   0  0  0  0  0  0  0  0  0  0  0  0
   60.5070   30.9210   47.5430 C   0  0  0  0  0  0  0  0  0  0  0  0
   60.2520   29.6820   48.4150 C   0  0  0  0  0  0  0  0  0  0  0  0
   59.5924   29.7845   51.8357 H   0  0  0  0  0  0  0  0  0  0  0  0
   59.8545   28.2564   50.9285 H   0  0  0  0  0  0  0  0  0  0  0  0
   61.1217   29.5296   50.9285 H   0  0  0  0  0  0  0  0  0  0  0  0
   58.4216   29.5081   49.5146 H   0  0  0  0  0  0  0  0  0  0  0  0
   58.4821   31.6129   50.7635 H   0  0  0  0  0  0  0  0  0  0  0  0
   60.1282   31.9656   50.1206 H   0  0  0  0  0  0  0  0  0  0  0  0
   57.5114   31.7499   48.5554 H   0  0  0  0  0  0  0  0  0  0  0  0
   58.5709   33.2016   48.7780 H   0  0  0  0  0  0  0  0  0  0  0  0
   62.1351   33.9446   45.2920 H   0  0  0  0  0  0  0  0  0  0  0  0
   64.3400   33.1251   46.1297 H   0  0  0  0  0  0  0  0  0  0  0  0
   64.7280   32.8642   48.5821 H   0  0  0  0  0  0  0  0  0  0  0  0
   62.9010   33.3964   50.1989 H   0  0  0  0  0  0  0  0  0  0  0  0
   60.6908   34.2091   49.3680 H   0  0  0  0  0  0  0  0  0  0  0  0
   58.4115   34.8932   44.1496 H   0  0  0  0  0  0  0  0  0  0  0  0
   57.3230   33.2430   42.8000 H   0  0  0  0  0  0  0  0  0  0  0  0
   56.5747   31.0261   42.2828 H   0  0  0  0  0  0  0  0  0  0  0  0
   56.4376   28.6251   42.9344 H   0  0  0  0  0  0  0  0  0  0  0  0
   58.5429   29.4829   46.6096 H   0  0  0  0  0  0  0  0  0  0  0  0
   60.7986   30.5968   46.5331 H   0  0  0  0  0  0  0  0  0  0  0  0
   61.3105   31.5150   48.0029 H   0  0  0  0  0  0  0  0  0  0  0  0
   59.7213   28.9339   47.8077 H   0  0  0  0  0  0  0  0  0  0  0  0
   61.2340   29.3255   48.7595 H   0  0  0  0  0  0  0  0  0  0  0  0
  1  2  1  0
  2  3  1  0
  3  4  1  0
  4  5  1  0
  5  6  1  0
  6  7  1  0
  7  8  1  0
  8  9  2  0
  8 10  2  0
  8 11  1  0
 11 12  2  0
 12 13  1  0
 13 14  2  0
 14 15  1  0
 15 16  2  0
  7 17  2  0
 17 18  1  0
 18 19  2  0
 19 20  1  0
 20 21  2  0
 21 22  1  0
 22 23  1  0
 22 24  2  0
 24 25  1  0
  5 26  1  0
 26 27  1  0
 27  2  1  0
 25  6  2  0
 16 11  1  0
 25 19  1  0
  1 28  1  0
  1 29  1  0
  1 30  1  0
  2 31  1  0
  3 32  1  0
  3 33  1  0
  4 34  1  0
  4 35  1  0
 12 36  1  0
 13 37  1  0
 14 38  1  0
 15 39  1  0
 16 40  1  0
 17 41  1  0
 18 42  1  0
 20 43  1  0
 21 44  1  0
 24 45  1  0
 26 46  1  0
 26 47  1  0
 27 48  1  0
 27 49  1  0
M  CHG  1  18   1
M  END
>  <UniqueID>  (38) 
34

>  <SMILES>  (38) 
CC1CCN(c2c(S(=O)(=O)c3ccccc3)c[nH+]c3ccc(Cl)cc23)CC1

>  <Energy>  (38) 
62.264428710729135

>  <Genealogy>  (38) 
CC1CCN(c2c(S(=O)(=O)c3ccccc3)c[nH+]c3ccc(Cl)cc23)CC1 (protonated)
CC1CCN(c2c(S(=O)(=O)c3ccccc3)c[nH+]c3ccc(Cl)cc23)CC1 (3D coordinates assigned)
CC1CCN(c2c(S(=O)(=O)c3ccccc3)c[nH+]c3ccc(Cl)cc23)CC1 (nonaromatic ring conformer: 62.264428710729135 kcal/mol)

>  <smiles>  (38) 
CC1CCN(c2c(S(=O)(=O)c3ccccc3)cnc3ccc(Cl)cc23)CC1

>  <score_type>  (38) 
oracle

>  <origin>  (38) 
adg

>  <m_score__min__energy>  (38) 
-7.9199999999999999

>  <m_primary>  (38) 
energy

$$$$
38:0
     RDKit          3D

 28 30  0  0  0  0  0  0  0  0999 V2000
   55.3630   29.7240   51.7140 O   0  0  0  0  0  0  0  0  0  0  0  0
   54.4110   29.7040   52.5430 C   0  0  0  0  0  0  0  0  0  0  0  0
   54.4320   28.8050   53.6270 C   0  0  0  0  0  0  0  0  0  0  0  0
   55.5720   27.8830   53.8600 C   0  0  0  0  0  0  0  0  0  0  0  0
   56.8900   28.3170   53.6370 C   0  0  0  0  0  0  0  0  0  0  0  0
   57.9650   27.4470   53.8480 C   0  0  0  0  0  0  0  0  0  0  0  0
   57.7350   26.1380   54.2790 C   0  0  0  0  0  0  0  0  0  0  0  0
   56.4250   25.6920   54.4970 C   0  0  0  0  0  0  0  0  0  0  0  0
   56.1820   24.3860   54.9190 O   0  0  0  0  0  0  0  0  0  0  0  0
   55.3490   26.5610   54.2870 C   0  0  0  0  0  0  0  0  0  0  0  0
   53.3320   28.7930   54.5000 C   0  0  0  0  0  0  0  0  0  0  0  0
   52.3040   29.6140   54.3150 O   0  0  0  0  0  0  0  0  0  0  0  0
   52.2500   30.4810   53.3110 C   0  0  0  0  0  0  0  0  0  0  0  0
   51.1360   31.3180   53.1770 C   0  0  0  0  0  0  0  0  0  0  0  0
   51.0670   32.2350   52.1240 C   0  0  0  0  0  0  0  0  0  0  0  0
   49.9590   33.0630   51.9970 O   0  0  0  0  0  0  0  0  0  0  0  0
   52.1120   32.3180   51.1980 C   0  0  0  0  0  0  0  0  0  0  0  0
   53.2300   31.4870   51.3210 C   0  0  0  0  0  0  0  0  0  0  0  0
   53.3090   30.5620   52.3790 C   0  0  0  0  0  0  0  0  0  0  0  0
   57.0772   29.3456   53.2950 H   0  0  0  0  0  0  0  0  0  0  0  0
   58.9941   27.7944   53.6741 H   0  0  0  0  0  0  0  0  0  0  0  0
   58.5827   25.4575   54.4472 H   0  0  0  0  0  0  0  0  0  0  0  0
   56.3640   24.0950   55.8720 H   0  0  0  0  0  0  0  0  0  0  0  0
   54.3211   26.2082   54.4569 H   0  0  0  0  0  0  0  0  0  0  0  0
   53.3214   28.0938   55.3491 H   0  0  0  0  0  0  0  0  0  0  0  0
   50.3119   31.2540   53.9028 H   0  0  0  0  0  0  0  0  0  0  0  0
   52.0542   33.0397   50.3699 H   0  0  0  0  0  0  0  0  0  0  0  0
   54.0489   31.5563   50.5898 H   0  0  0  0  0  0  0  0  0  0  0  0
  1  2  2  0
  2  3  1  0
  3  4  1  0
  4  5  2  0
  5  6  1  0
  6  7  2  0
  7  8  1  0
  8  9  1  0
  8 10  2  0
  3 11  2  0
 11 12  1  0
 12 13  1  0
 13 14  2  0
 14 15  1  0
 15 16  1  0
 15 17  2  0
 17 18  1  0
 18 19  2  0
 19  2  1  0
 10  4  1  0
 19 13  1  0
  5 20  1  0
  6 21  1  0
  7 22  1  0
  9 23  1  0
 10 24  1  0
 11 25  1  0
 14 26  1  0
 17 27  1  0
 18 28  1  0
M  CHG  1  16  -1
M  END
>  <UniqueID>  (39) 
35

>  <SMILES>  (39) 
O=c1c(-c2cccc(O)c2)coc2cc([O-])ccc12

>  <Energy>  (39) 
42.905977750140785

>  <Genealogy>  (39) 
O=c1c(-c2cccc(O)c2)coc2cc([O-])ccc12 (protonated)
O=c1c(-c2cccc(O)c2)coc2cc([O-])ccc12 (3D coordinates assigned)
O=c1c(-c2cccc(O)c2)coc2cc([O-])ccc12 (optimized conformer: 42.905977750140785 kcal/mol)

>  <smiles>  (39) 
O=c1c(-c2cccc(O)c2)coc2cc(O)ccc12

>  <score_type>  (39) 
oracle

>  <origin>  (39) 
adg

>  <m_score__min__energy>  (39) 
-8.9199999999999999

>  <m_primary>  (39) 
energy

$$$$
39:0
     RDKit          3D

 59 62  0  0  1  0  0  0  0  0999 V2000
   54.5710   24.8600   45.6230 C   0  0  0  0  0  0  0  0  0  0  0  0
   54.8880   26.2150   45.9770 O   0  0  0  0  0  0  0  0  0  0  0  0
   56.2480   26.5480   46.1130 C   0  0  0  0  0  0  0  0  0  0  0  0
   57.0080   25.8700   47.0480 C   0  0  0  0  0  0  0  0  0  0  0  0
   58.3550   26.1480   47.2370 C   0  0  0  0  0  0  0  0  0  0  0  0
   58.9350   27.1430   46.4470 C   0  0  0  0  0  0  0  0  0  0  0  0
   60.3880   27.4120   46.6860 C   0  0  0  0  0  0  0  0  0  0  0  0
   60.5830   28.7250   47.4070 C   0  0  0  0  0  0  0  0  0  0  0  0
   59.3590   29.0720   48.1010 N   0  0  0  0  0  0  0  0  0  0  0  0
   59.0210   30.3140   48.0960 C   0  0  0  0  0  0  0  0  0  0  0  0
   58.9510   31.0290   49.2550 N   0  0  0  0  0  0  0  0  0  0  0  0
   58.6050   32.3280   49.2780 C   0  0  0  0  0  0  0  0  0  0  0  0
   58.3090   32.9750   48.1410 N   0  0  0  0  0  0  0  0  0  0  0  0
   58.3520   32.3490   46.9540 C   0  0  0  0  0  0  0  0  0  0  0  0
   58.7090   31.0190   46.9480 C   0  0  0  0  0  0  0  0  0  0  0  0
   58.6770   30.6290   45.6660 N   0  0  0  0  0  0  0  0  0  0  0  0
   58.3090   31.7030   44.9240 C   0  0  0  0  0  0  0  0  0  0  0  0
   58.1030   32.7720   45.6910 N   0  0  0  0  0  0  0  0  0  0  0  0
   57.7250   34.1320   45.3970 C   0  0  0  0  0  0  0  0  0  0  0  0
   58.9290   34.9610   45.1330 C   0  0  0  0  0  0  0  0  0  0  0  0
   59.7490   35.3020   46.3010 C   0  0  0  0  0  0  0  0  0  0  0  0
   60.5670   34.3320   46.8430 N   0  0  0  0  0  0  0  0  0  0  0  0
   61.7660   33.8420   46.3910 C   0  0  0  0  0  0  0  0  0  0  0  0
   62.4410   33.1160   47.5400 C   0  0  0  0  0  0  0  0  0  0  0  0
   61.9070   31.9880   48.1010 C   0  0  0  0  0  0  0  0  0  0  0  0
   62.6320   31.4180   49.1470 C   0  0  0  0  0  0  0  0  0  0  0  0
   63.8040   31.9460   49.5930 C   0  0  0  0  0  0  0  0  0  0  0  0
   64.3540   33.0990   49.0220 C   0  0  0  0  0  0  0  0  0  0  0  0
   63.6410   33.6820   47.9730 C   0  0  0  0  0  0  0  0  0  0  0  0
   58.1980   27.8340   45.5050 C   0  0  0  0  0  0  0  0  0  0  0  0
   56.8440   27.5250   45.3460 C   0  0  0  0  0  0  0  0  0  0  0  0
   54.4318   24.2650   46.5377 H   0  0  0  0  0  0  0  0  0  0  0  0
   53.6446   24.8431   45.0301 H   0  0  0  0  0  0  0  0  0  0  0  0
   55.3937   24.4339   45.0301 H   0  0  0  0  0  0  0  0  0  0  0  0
   56.5323   25.0888   47.6590 H   0  0  0  0  0  0  0  0  0  0  0  0
   58.9471   25.6015   47.9858 H   0  0  0  0  0  0  0  0  0  0  0  0
   60.8086   26.5999   47.2972 H   0  0  0  0  0  0  0  0  0  0  0  0
   60.8994   27.4663   45.7136 H   0  0  0  0  0  0  0  0  0  0  0  0
   61.4033   28.6279   48.1334 H   0  0  0  0  0  0  0  0  0  0  0  0
   60.8330   29.5126   46.6809 H   0  0  0  0  0  0  0  0  0  0  0  0
   59.1680   30.5950   50.1820 H   0  0  0  0  0  0  0  0  0  0  0  0
   58.5643   32.8647   50.2373 H   0  0  0  0  0  0  0  0  0  0  0  0
   58.1954   31.6924   43.8299 H   0  0  0  0  0  0  0  0  0  0  0  0
   57.0758   34.1434   44.5091 H   0  0  0  0  0  0  0  0  0  0  0  0
   57.1897   34.5477   46.2634 H   0  0  0  0  0  0  0  0  0  0  0  0
   59.5661   34.4115   44.4244 H   0  0  0  0  0  0  0  0  0  0  0  0
   58.5486   35.9195   44.7502 H   0  0  0  0  0  0  0  0  0  0  0  0
   60.3945   36.1434   46.0087 H   0  0  0  0  0  0  0  0  0  0  0  0
   59.0134   35.5040   47.0936 H   0  0  0  0  0  0  0  0  0  0  0  0
   60.2020   33.9290   47.7500 H   0  0  0  0  0  0  0  0  0  0  0  0
   61.5936   33.1439   45.5585 H   0  0  0  0  0  0  0  0  0  0  0  0
   62.4031   34.6639   46.0323 H   0  0  0  0  0  0  0  0  0  0  0  0
   60.9596   31.5554   47.7470 H   0  0  0  0  0  0  0  0  0  0  0  0
   62.2425   30.5090   49.6287 H   0  0  0  0  0  0  0  0  0  0  0  0
   64.3323   31.4542   50.4231 H   0  0  0  0  0  0  0  0  0  0  0  0
   65.3020   33.5252   49.3822 H   0  0  0  0  0  0  0  0  0  0  0  0
   64.0261   34.5902   47.4862 H   0  0  0  0  0  0  0  0  0  0  0  0
   58.6690   28.6149   44.8899 H   0  0  0  0  0  0  0  0  0  0  0  0
   56.2469   28.0687   44.5991 H   0  0  0  0  0  0  0  0  0  0  0  0
  1  2  1  0
  2  3  1  0
  3  4  2  0
  4  5  1  0
  5  6  2  0
  6  7  1  0
  7  8  1  0
  8  9  1  0
  9 10  2  0
 10 11  1  0
 11 12  1  0
 12 13  2  0
 13 14  1  0
 14 15  2  0
 15 16  1  0
 16 17  2  0
 17 18  1  0
 18 19  1  0
 19 20  1  0
 20 21  1  0
 21 22  1  0
 22 23  1  0
 23 24  1  0
 24 25  2  0
 25 26  1  0
 26 27  2  0
 27 28  1  0
 28 29  2  0
  6 30  1  0
 30 31  2  0
 31  3  1  0
 15 10  1  0
 29 24  1  0
 18 14  1  0
  1 32  1  0
  1 33  1  0
  1 34  1  0
  4 35  1  0
  5 36  1  0
  7 37  1  0
  7 38  1  0
  8 39  1  0
  8 40  1  0
 11 41  1  0
 12 42  1  0
 17 43  1  0
 19 44  1  0
 19 45  1  0
 20 46  1  0
 20 47  1  0
 21 48  1  0
 21 49  1  0
 22 50  1  0
 23 51  1  0
 23 52  1  0
 25 53  1  0
 26 54  1  0
 27 55  1  0
 28 56  1  0
 29 57  1  0
 30 58  1  0
 31 59  1  0
M  END
>  <smiles>  (40) 
COc1ccc(CCN=c2[nH]cnc3c2ncn3CCCNCc2ccccc2)cc1

>  <score_type>  (40) 
oracle

>  <origin>  (40) 
adg

>  <m_score__min__energy>  (40) 
-9.6300000000000008

>  <m_primary>  (40) 
energy

$$$$
40:0
     RDKit          3D

 47 49  0  0  0  0  0  0  0  0999 V2000
   59.2930   26.2550   46.1680 C   0  0  0  0  0  0  0  0  0  0  0  0
   57.7950   26.0830   45.8550 C   0  0  0  0  0  0  0  0  0  0  0  0
   57.0850   25.5080   47.0980 C   0  0  0  0  0  0  0  0  0  0  0  0
   57.6210   25.0970   44.6830 C   0  0  0  0  0  0  0  0  0  0  0  0
   57.2070   27.4330   45.4810 C   0  0  0  0  0  0  0  0  0  0  0  0
   57.9160   28.5380   45.0450 C   0  0  0  0  0  0  0  0  0  0  0  0
   56.9550   29.5170   44.8940 C   0  0  0  0  0  0  0  0  0  0  0  0
   57.1980   30.8920   44.4120 C   0  0  0  0  0  0  0  0  0  0  0  0
   57.3110   31.0820   43.1690 O   0  0  0  0  0  0  0  0  0  0  0  0
   57.3120   32.0130   45.3150 N   0  0  0  0  0  0  0  0  0  0  0  0
   57.0210   33.3730   44.8400 C   0  0  0  0  0  0  0  0  0  0  0  0
   58.2900   34.2250   44.9160 C   0  0  0  0  0  0  0  0  0  0  0  0
   59.0050   34.0100   46.1830 N   0  0  0  0  0  0  0  0  0  0  0  0
   60.1910   34.7810   46.4520 C   0  0  0  0  0  0  0  0  0  0  0  0
   60.2370   35.9890   46.0940 O   0  0  0  0  0  0  0  0  0  0  0  0
   61.3700   34.1790   47.1170 C   0  0  0  0  0  0  0  0  0  0  0  0
   62.5180   33.8400   46.3840 C   0  0  0  0  0  0  0  0  0  0  0  0
   63.6230   33.2850   47.0320 C   0  0  0  0  0  0  0  0  0  0  0  0
   63.5770   33.0830   48.4110 C   0  0  0  0  0  0  0  0  0  0  0  0
   62.4670   33.4300   49.1140 N   0  0  0  0  0  0  0  0  0  0  0  0
   61.3770   33.9720   48.5070 C   0  0  0  0  0  0  0  0  0  0  0  0
   58.3980   33.1780   47.2330 C   0  0  0  0  0  0  0  0  0  0  0  0
   57.9220   31.8410   46.6450 C   0  0  0  0  0  0  0  0  0  0  0  0
   55.7480   29.0190   45.2210 N   0  0  0  0  0  0  0  0  0  0  0  0
   55.9010   27.7560   45.5860 N   0  0  0  0  0  0  0  0  0  0  0  0
   59.4403   26.2719   47.2580 H   0  0  0  0  0  0  0  0  0  0  0  0
   59.8568   25.4157   45.7348 H   0  0  0  0  0  0  0  0  0  0  0  0
   59.6519   27.2003   45.7348 H   0  0  0  0  0  0  0  0  0  0  0  0
   57.5656   25.8972   48.0077 H   0  0  0  0  0  0  0  0  0  0  0  0
   56.0263   25.8063   47.0863 H   0  0  0  0  0  0  0  0  0  0  0  0
   57.1568   24.4104   47.0863 H   0  0  0  0  0  0  0  0  0  0  0  0
   57.4426   24.0859   45.0779 H   0  0  0  0  0  0  0  0  0  0  0  0
   56.7636   25.4068   44.0674 H   0  0  0  0  0  0  0  0  0  0  0  0
   58.5326   25.0946   44.0674 H   0  0  0  0  0  0  0  0  0  0  0  0
   58.9975   28.6180   44.8609 H   0  0  0  0  0  0  0  0  0  0  0  0
   56.6707   33.3299   43.7982 H   0  0  0  0  0  0  0  0  0  0  0  0
   56.2408   33.8220   45.4722 H   0  0  0  0  0  0  0  0  0  0  0  0
   58.9529   33.9552   44.0806 H   0  0  0  0  0  0  0  0  0  0  0  0
   58.0000   35.2844   44.8574 H   0  0  0  0  0  0  0  0  0  0  0  0
   62.5470   34.0118   45.2979 H   0  0  0  0  0  0  0  0  0  0  0  0
   64.5215   33.0096   46.4602 H   0  0  0  0  0  0  0  0  0  0  0  0
   64.4405   32.6421   48.9305 H   0  0  0  0  0  0  0  0  0  0  0  0
   60.4975   34.2494   49.1066 H   0  0  0  0  0  0  0  0  0  0  0  0
   59.1432   32.9842   48.0186 H   0  0  0  0  0  0  0  0  0  0  0  0
   57.5338   33.7106   47.6567 H   0  0  0  0  0  0  0  0  0  0  0  0
   58.7846   31.1642   46.5560 H   0  0  0  0  0  0  0  0  0  0  0  0
   57.1593   31.4239   47.3190 H   0  0  0  0  0  0  0  0  0  0  0  0
  1  2  1  0
  2  3  1  0
  2  4  1  0
  2  5  1  0
  5  6  2  0
  6  7  1  0
  7  8  1  0
  8  9  2  0
  8 10  1  0
 10 11  1  0
 11 12  1  0
 12 13  1  0
 13 14  1  0
 14 15  2  0
 14 16  1  0
 16 17  2  0
 17 18  1  0
 18 19  2  0
 19 20  1  0
 20 21  2  0
 13 22  1  0
 22 23  1  0
  7 24  2  0
 24 25  1  0
 25  5  1  0
 23 10  1  0
 21 16  1  0
  1 26  1  0
  1 27  1  0
  1 28  1  0
  3 29  1  0
  3 30  1  0
  3 31  1  0
  4 32  1  0
  4 33  1  0
  4 34  1  0
  6 35  1  0
 11 36  1  0
 11 37  1  0
 12 38  1  0
 12 39  1  0
 17 40  1  0
 18 41  1  0
 19 42  1  0
 21 43  1  0
 22 44  1  0
 22 45  1  0
 23 46  1  0
 23 47  1  0
M  CHG  1  25  -1
M  END
>  <UniqueID>  (41) 
36

>  <SMILES>  (41) 
CC(C)(C)c1cc(C(=O)N2CCN(C(=O)c3cccnc3)CC2)n[n-]1

>  <Energy>  (41) 
81.93517968999433

>  <Genealogy>  (41) 
CC(C)(C)c1cc(C(=O)N2CCN(C(=O)c3cccnc3)CC2)n[n-]1 (protonated)
CC(C)(C)c1cc(C(=O)N2CCN(C(=O)c3cccnc3)CC2)n[n-]1 (3D coordinates assigned)
CC(C)(C)c1cc(C(=O)N2CCN(C(=O)c3cccnc3)CC2)n[n-]1 (nonaromatic ring conformer: 81.93517968999433 kcal/mol)

>  <smiles>  (41) 
CC(C)(C)c1cc(C(=O)N2CCN(C(=O)c3cccnc3)CC2)n[nH]1

>  <score_type>  (41) 
oracle

>  <origin>  (41) 
adg

>  <m_score__min__energy>  (41) 
-10.52

>  <m_primary>  (41) 
energy

$$$$
41:0
     RDKit          3D

 55 57  0  0  0  0  0  0  0  0999 V2000
   57.7860   33.1140   47.1010 C   0  0  0  0  0  0  0  0  0  0  0  0
   57.8300   33.8630   45.7710 C   0  0  0  0  0  0  0  0  0  0  0  0
   59.1640   34.6030   45.5970 C   0  0  0  0  0  0  0  0  0  0  0  0
   60.1200   34.3980   46.7850 C   0  0  0  0  0  0  0  0  0  0  0  0
   61.5080   33.8630   46.3730 C   0  0  0  0  0  0  0  0  0  0  0  0
   61.9010   32.6040   47.1660 C   0  0  0  0  0  0  0  0  0  0  0  0
   62.8320   32.9140   48.3530 C   0  0  0  0  0  0  0  0  0  0  0  0
   62.1620   33.6990   49.4930 C   0  0  0  0  0  0  0  0  0  0  0  0
   61.0190   32.9370   50.1160 C   0  0  0  0  0  0  0  0  0  0  0  0
   59.7200   33.4650   50.1050 C   0  0  0  0  0  0  0  0  0  0  0  0
   58.6580   32.7440   50.6580 C   0  0  0  0  0  0  0  0  0  0  0  0
   58.8760   31.4770   51.2290 C   0  0  0  0  0  0  0  0  0  0  0  0
   57.7690   30.6900   51.8170 C   0  0  0  0  0  0  0  0  0  0  0  0
   57.8740   29.5980   52.6620 C   0  0  0  0  0  0  0  0  0  0  0  0
   56.5820   29.2080   52.9420 C   0  0  0  0  0  0  0  0  0  0  0  0
   55.7600   30.0850   52.2540 C   0  0  0  0  0  0  0  0  0  0  0  0
   54.2780   30.0910   52.2270 C   0  0  0  0  0  0  0  0  0  0  0  0
   53.5750   28.9740   52.7070 C   0  0  0  0  0  0  0  0  0  0  0  0
   52.1790   28.9550   52.6900 C   0  0  0  0  0  0  0  0  0  0  0  0
   51.4670   30.0490   52.1940 C   0  0  0  0  0  0  0  0  0  0  0  0
   52.1460   31.1780   51.7090 C   0  0  0  0  0  0  0  0  0  0  0  0
   51.3870   32.3350   51.1860 C   0  0  0  0  0  0  0  0  0  0  0  0
   51.3780   32.5920   49.9530 O   0  0  0  0  0  0  0  0  0  0  0  0
   50.6730   33.1570   52.0500 O   0  0  0  0  0  0  0  0  0  0  0  0
   53.5540   31.1920   51.7290 C   0  0  0  0  0  0  0  0  0  0  0  0
   56.4990   30.9510   51.5970 O   0  0  0  0  0  0  0  0  0  0  0  0
   60.1800   30.9500   51.2350 C   0  0  0  0  0  0  0  0  0  0  0  0
   61.2400   31.6730   50.6830 C   0  0  0  0  0  0  0  0  0  0  0  0
   57.8284   33.8359   47.9299 H   0  0  0  0  0  0  0  0  0  0  0  0
   56.8523   32.5360   47.1656 H   0  0  0  0  0  0  0  0  0  0  0  0
   58.6455   32.4306   47.1656 H   0  0  0  0  0  0  0  0  0  0  0  0
   57.7090   33.1424   44.9487 H   0  0  0  0  0  0  0  0  0  0  0  0
   57.0161   34.6029   45.7597 H   0  0  0  0  0  0  0  0  0  0  0  0
   59.6540   34.2338   44.6840 H   0  0  0  0  0  0  0  0  0  0  0  0
   58.9401   35.6782   45.5343 H   0  0  0  0  0  0  0  0  0  0  0  0
   60.2560   35.3640   47.2932 H   0  0  0  0  0  0  0  0  0  0  0  0
   59.6635   33.6422   47.4410 H   0  0  0  0  0  0  0  0  0  0  0  0
   61.4892   33.6158   45.3013 H   0  0  0  0  0  0  0  0  0  0  0  0
   62.2506   34.6452   46.5888 H   0  0  0  0  0  0  0  0  0  0  0  0
   60.9856   32.1311   47.5512 H   0  0  0  0  0  0  0  0  0  0  0  0
   62.4468   31.9379   46.4816 H   0  0  0  0  0  0  0  0  0  0  0  0
   63.2000   31.9609   48.7606 H   0  0  0  0  0  0  0  0  0  0  0  0
   63.6391   33.5514   47.9628 H   0  0  0  0  0  0  0  0  0  0  0  0
   62.9134   33.9071   50.2689 H   0  0  0  0  0  0  0  0  0  0  0  0
   61.7557   34.6290   49.0687 H   0  0  0  0  0  0  0  0  0  0  0  0
   59.5356   34.4531   49.6582 H   0  0  0  0  0  0  0  0  0  0  0  0
   57.6441   33.1705   50.6466 H   0  0  0  0  0  0  0  0  0  0  0  0
   58.8002   29.1358   53.0341 H   0  0  0  0  0  0  0  0  0  0  0  0
   56.2676   28.3703   53.5819 H   0  0  0  0  0  0  0  0  0  0  0  0
   54.1282   28.1079   53.0992 H   0  0  0  0  0  0  0  0  0  0  0  0
   51.6382   28.0751   53.0687 H   0  0  0  0  0  0  0  0  0  0  0  0
   50.3673   30.0261   52.1832 H   0  0  0  0  0  0  0  0  0  0  0  0
   54.0945   32.0725   51.3515 H   0  0  0  0  0  0  0  0  0  0  0  0
   60.3666   29.9606   51.6779 H   0  0  0  0  0  0  0  0  0  0  0  0
   62.2547   31.2485   50.6929 H   0  0  0  0  0  0  0  0  0  0  0  0
  1  2  1  0
  2  3  1  0
  3  4  1  0
  4  5  1  0
  5  6  1  0
  6  7  1  0
  7  8  1  0
  8  9  1  0
  9 10  2  0
 10 11  1  0
 11 12  2  0
 12 13  1  0
 13 14  2  0
 14 15  1  0
 15 16  2  0
 16 17  1  0
 17 18  2  0
 18 19  1  0
 19 20  2  0
 20 21  1  0
 21 22  1  0
 22 23  2  0
 22 24  1  0
 21 25  2  0
 16 26  1  0
 12 27  1  0
 27 28  2  0
 28  9  1  0
 26 13  1  0
 25 17  1  0
  1 29  1  0
  1 30  1  0
  1 31  1  0
  2 32  1  0
  2 33  1  0
  3 34  1  0
  3 35  1  0
  4 36  1  0
  4 37  1  0
  5 38  1  0
  5 39  1  0
  6 40  1  0
  6 41  1  0
  7 42  1  0
  7 43  1  0
  8 44  1  0
  8 45  1  0
 10 46  1  0
 11 47  1  0
 14 48  1  0
 15 49  1  0
 18 50  1  0
 19 51  1  0
 20 52  1  0
 25 53  1  0
 27 54  1  0
 28 55  1  0
M  CHG  1  24  -1
M  END
>  <UniqueID>  (42) 
37

>  <SMILES>  (42) 
CCCCCCCCc1ccc(-c2ccc(-c3cccc(C(=O)[O-])c3)o2)cc1

>  <Energy>  (42) 
74.6169080656598

>  <Genealogy>  (42) 
CCCCCCCCc1ccc(-c2ccc(-c3cccc(C(=O)[O-])c3)o2)cc1 (protonated)
CCCCCCCCc1ccc(-c2ccc(-c3cccc(C(=O)[O-])c3)o2)cc1 (3D coordinates assigned)
CCCCCCCCc1ccc(-c2ccc(-c3cccc(C(=O)[O-])c3)o2)cc1 (optimized conformer: 74.6169080656598 kcal/mol)

>  <smiles>  (42) 
CCCCCCCCc1ccc(-c2ccc(-c3cccc(C(=O)O)c3)o2)cc1

>  <score_type>  (42) 
oracle

>  <origin>  (42) 
adg

>  <m_score__min__energy>  (42) 
-13.06

>  <m_primary>  (42) 
energy

$$$$
42:0
     RDKit          3D

 30 33  0  0  0  0  0  0  0  0999 V2000
   57.8100   33.6020   45.7570 C   0  0  0  0  0  0  0  0  0  0  0  0
   59.0730   33.2980   46.3140 C   0  0  0  0  0  0  0  0  0  0  0  0
   59.5450   31.9710   46.3290 C   0  0  0  0  0  0  0  0  0  0  0  0
   58.7250   30.9890   45.7770 C   0  0  0  0  0  0  0  0  0  0  0  0
   58.9670   29.6740   45.6840 N   0  0  0  0  0  0  0  0  0  0  0  0
   57.8460   29.2060   45.0710 C   0  0  0  0  0  0  0  0  0  0  0  0
   57.6460   27.7770   44.7450 C   0  0  0  0  0  0  0  0  0  0  0  0
   57.1350   26.8900   45.7080 C   0  0  0  0  0  0  0  0  0  0  0  0
   56.9460   25.5400   45.4020 C   0  0  0  0  0  0  0  0  0  0  0  0
   57.2630   25.0460   44.1230 C   0  0  0  0  0  0  0  0  0  0  0  0
   57.0690   23.6170   43.7810 C   0  0  0  0  0  0  0  0  0  0  0  0
   56.0360   23.0480   43.0580 C   0  0  0  0  0  0  0  0  0  0  0  0
   56.2680   21.7240   42.9930 N   0  0  0  0  0  0  0  0  0  0  0  0
   57.3960   21.5110   43.6520 N   0  0  0  0  0  0  0  0  0  0  0  0
   57.9080   22.6280   44.1420 N   0  0  0  0  0  0  0  0  0  0  0  0
   57.7740   25.9340   43.1620 C   0  0  0  0  0  0  0  0  0  0  0  0
   57.9630   27.2830   43.4680 C   0  0  0  0  0  0  0  0  0  0  0  0
   56.9250   30.1660   44.7820 N   0  0  0  0  0  0  0  0  0  0  0  0
   57.5090   31.2820   45.2410 C   0  0  0  0  0  0  0  0  0  0  0  0
   57.0090   32.5820   45.2100 C   0  0  0  0  0  0  0  0  0  0  0  0
   57.4510   34.6417   45.7510 H   0  0  0  0  0  0  0  0  0  0  0  0
   59.6912   34.1028   46.7384 H   0  0  0  0  0  0  0  0  0  0  0  0
   60.5249   31.7192   46.7606 H   0  0  0  0  0  0  0  0  0  0  0  0
   56.8816   27.2620   46.7117 H   0  0  0  0  0  0  0  0  0  0  0  0
   56.5463   24.8579   46.1668 H   0  0  0  0  0  0  0  0  0  0  0  0
   55.1808   23.5807   42.6166 H   0  0  0  0  0  0  0  0  0  0  0  0
   57.8300   20.5690   43.7720 H   0  0  0  0  0  0  0  0  0  0  0  0
   58.0278   25.5627   42.1581 H   0  0  0  0  0  0  0  0  0  0  0  0
   58.3633   27.9649   42.7033 H   0  0  0  0  0  0  0  0  0  0  0  0
   56.0237   32.8033   44.7738 H   0  0  0  0  0  0  0  0  0  0  0  0
  1  2  2  0
  2  3  1  0
  3  4  2  0
  4  5  1  0
  5  6  1  0
  6  7  1  0
  7  8  2  0
  8  9  1  0
  9 10  2  0
 10 11  1  0
 11 12  2  0
 12 13  1  0
 13 14  1  0
 14 15  2  0
 10 16  1  0
 16 17  2  0
  6 18  2  0
 18 19  1  0
 19 20  2  0
 20  1  1  0
 19  4  1  0
 17  7  1  0
 15 11  1  0
  1 21  1  0
  2 22  1  0
  3 23  1  0
  8 24  1  0
  9 25  1  0
 12 26  1  0
 14 27  1  0
 16 28  1  0
 17 29  1  0
 20 30  1  0
M  CHG  3   5  -1  13  -1  14   1
M  END
>  <UniqueID>  (43) 
38

>  <SMILES>  (43) 
c1ccc2[n-]c(-c3ccc(-c4c[n-][nH+]n4)cc3)nc2c1

>  <Energy>  (43) 
105.31370735660721

>  <Genealogy>  (43) 
c1ccc2[n-]c(-c3ccc(-c4c[n-][nH+]n4)cc3)nc2c1 (protonated)
c1ccc2[n-]c(-c3ccc(-c4c[n-][nH+]n4)cc3)nc2c1 (3D coordinates assigned)
c1ccc2[n-]c(-c3ccc(-c4c[n-][nH+]n4)cc3)nc2c1 (optimized conformer: 105.31370735660721 kcal/mol)

>  <smiles>  (43) 
c1ccc2[nH]c(-c3ccc(-c4c[nH]nn4)cc3)nc2c1

>  <score_type>  (43) 
oracle

>  <origin>  (43) 
adg

>  <m_score__min__energy>  (43) 
-9.2300000000000004

>  <m_primary>  (43) 
energy

$$$$
43:0
     RDKit          3D

 26 27  0  0  0  0  0  0  0  0999 V2000
   55.5190   30.2040   53.8380 O   0  0  0  0  0  0  0  0  0  0  0  0
   54.9480   30.2430   52.7150 C   0  0  0  0  0  0  0  0  0  0  0  0
   53.6230   29.5660   52.5410 C   0  0  0  0  0  0  0  0  0  0  0  0
   52.7090   30.4260   51.7220 C   0  0  0  0  0  0  0  0  0  0  0  0
   52.2870   30.0160   50.4510 C   0  0  0  0  0  0  0  0  0  0  0  0
   51.4080   30.8380   49.7450 C   0  0  0  0  0  0  0  0  0  0  0  0
   51.0120   30.5040   48.5980 O   0  0  0  0  0  0  0  0  0  0  0  0
   50.9750   32.0020   50.2970 N   0  0  0  0  0  0  0  0  0  0  0  0
   51.3850   32.3820   51.5350 C   0  0  0  0  0  0  0  0  0  0  0  0
   50.9710   33.4600   52.0320 O   0  0  0  0  0  0  0  0  0  0  0  0
   52.2410   31.5950   52.2390 N   0  0  0  0  0  0  0  0  0  0  0  0
   55.5110   31.0030   51.6330 N   0  0  0  0  0  0  0  0  0  0  0  0
   56.8380   31.5560   51.6400 C   0  0  0  0  0  0  0  0  0  0  0  0
   57.8770   30.9860   50.8850 C   0  0  0  0  0  0  0  0  0  0  0  0
   59.1450   31.5730   50.9040 C   0  0  0  0  0  0  0  0  0  0  0  0
   59.3660   32.6970   51.6360 N   0  0  0  0  0  0  0  0  0  0  0  0
   58.3760   33.2820   52.3610 C   0  0  0  0  0  0  0  0  0  0  0  0
   58.6180   34.3240   53.0240 O   0  0  0  0  0  0  0  0  0  0  0  0
   57.0930   32.7260   52.3690 C   0  0  0  0  0  0  0  0  0  0  0  0
   53.7708   28.6029   52.0305 H   0  0  0  0  0  0  0  0  0  0  0  0
   53.1709   29.3999   53.5299 H   0  0  0  0  0  0  0  0  0  0  0  0
   52.6404   29.0679   50.0194 H   0  0  0  0  0  0  0  0  0  0  0  0
   54.8850   31.2400   50.8300 H   0  0  0  0  0  0  0  0  0  0  0  0
   57.6935   30.0838   50.2831 H   0  0  0  0  0  0  0  0  0  0  0  0
   59.9661   31.1246   50.3254 H   0  0  0  0  0  0  0  0  0  0  0  0
   56.2872   33.2046   52.9449 H   0  0  0  0  0  0  0  0  0  0  0  0
  1  2  2  0
  2  3  1  0
  3  4  1  0
  4  5  2  0
  5  6  1  0
  6  7  2  0
  6  8  1  0
  8  9  1  0
  9 10  2  0
  9 11  1  0
  2 12  1  0
 12 13  1  0
 13 14  1  0
 14 15  2  0
 15 16  1  0
 16 17  1  0
 17 18  2  0
 17 19  1  0
 11  4  1  0
 19 13  2  0
  3 20  1  0
  3 21  1  0
  5 22  1  0
 12 23  1  0
 14 24  1  0
 15 25  1  0
 19 26  1  0
M  CHG  3   8  -1  11  -1  16  -1
M  END
>  <UniqueID>  (44) 
39

>  <SMILES>  (44) 
O=C(Cc1cc(=O)[n-]c(=O)[n-]1)Nc1cc[n-]c(=O)c1

>  <Energy>  (44) 
29.874100608774043

>  <Genealogy>  (44) 
O=C(Cc1cc(=O)[n-]c(=O)[n-]1)Nc1cc[n-]c(=O)c1 (protonated)
O=C(Cc1cc(=O)[n-]c(=O)[n-]1)Nc1cc[n-]c(=O)c1 (3D coordinates assigned)
O=C(Cc1cc(=O)[n-]c(=O)[n-]1)Nc1cc[n-]c(=O)c1 (optimized conformer: 29.874100608774043 kcal/mol)

>  <smiles>  (44) 
O=C(Cc1cc(=O)[nH]c(=O)[nH]1)Nc1cc[nH]c(=O)c1

>  <score_type>  (44) 
oracle

>  <origin>  (44) 
adg

>  <m_score__min__energy>  (44) 
-12.25

>  <m_primary>  (44) 
energy

$$$$
44:0
     RDKit          3D

 42 44  0  0  0  0  0  0  0  0999 V2000
   58.0980   32.3190   42.3580 C   0  0  0  0  0  0  0  0  0  0  0  0
   57.6200   31.4470   43.4770 C   0  0  0  0  0  0  0  0  0  0  0  0
   57.2130   30.1800   43.2910 N   0  0  0  0  0  0  0  0  0  0  0  0
   56.8670   29.7440   44.5130 C   0  0  0  0  0  0  0  0  0  0  0  0
   56.4380   28.5820   44.7350 O   0  0  0  0  0  0  0  0  0  0  0  0
   57.0240   30.6650   45.4830 N   0  0  0  0  0  0  0  0  0  0  0  0
   57.4890   31.7550   44.8330 C   0  0  0  0  0  0  0  0  0  0  0  0
   57.8590   33.0180   45.5850 C   0  0  2  0  0  0  0  0  0  0  0  0
   57.4050   34.3250   44.9030 C   0  0  0  0  0  0  0  0  0  0  0  0
   59.2920   33.0080   45.9740 N   0  0  0  0  0  0  0  0  0  0  0  0
   59.6550   31.8980   46.8960 C   0  0  0  0  0  0  0  0  0  0  0  0
   60.2960   32.3740   48.2060 C   0  0  0  0  0  0  0  0  0  0  0  0
   61.4150   33.2840   47.9210 N   0  0  0  0  0  0  0  0  0  0  0  0
   62.5570   33.3470   48.8040 C   0  0  0  0  0  0  0  0  0  0  0  0
   62.5050   34.1120   49.9860 C   0  0  0  0  0  0  0  0  0  0  0  0
   63.6090   34.1700   50.8420 C   0  0  0  0  0  0  0  0  0  0  0  0
   64.7740   33.4670   50.5320 C   0  0  0  0  0  0  0  0  0  0  0  0
   65.8440   33.5250   51.3650 F   0  0  0  0  0  0  0  0  0  0  0  0
   64.8380   32.7030   49.3650 C   0  0  0  0  0  0  0  0  0  0  0  0
   63.7380   32.6410   48.5050 C   0  0  0  0  0  0  0  0  0  0  0  0
   61.3130   34.2030   46.7800 C   0  0  0  0  0  0  0  0  0  0  0  0
   59.8580   34.3310   46.3210 C   0  0  0  0  0  0  0  0  0  0  0  0
   58.5877   33.2124   42.7728 H   0  0  0  0  0  0  0  0  0  0  0  0
   58.8163   31.7610   41.7395 H   0  0  0  0  0  0  0  0  0  0  0  0
   57.2412   32.6244   41.7395 H   0  0  0  0  0  0  0  0  0  0  0  0
   57.1790   29.6450   42.3940 H   0  0  0  0  0  0  0  0  0  0  0  0
   57.2721   33.0079   46.5153 H   0  0  0  0  0  0  0  0  0  0  0  0
   57.1466   35.0688   45.6711 H   0  0  0  0  0  0  0  0  0  0  0  0
   58.2207   34.7138   44.2758 H   0  0  0  0  0  0  0  0  0  0  0  0
   56.5239   34.1244   44.2758 H   0  0  0  0  0  0  0  0  0  0  0  0
   58.7417   31.3354   47.1398 H   0  0  0  0  0  0  0  0  0  0  0  0
   60.4015   31.2784   46.3775 H   0  0  0  0  0  0  0  0  0  0  0  0
   59.5424   32.9021   48.8087 H   0  0  0  0  0  0  0  0  0  0  0  0
   60.6741   31.5015   48.7590 H   0  0  0  0  0  0  0  0  0  0  0  0
   61.5894   34.6675   50.2372 H   0  0  0  0  0  0  0  0  0  0  0  0
   63.5592   34.7711   51.7619 H   0  0  0  0  0  0  0  0  0  0  0  0
   65.7564   32.1486   49.1219 H   0  0  0  0  0  0  0  0  0  0  0  0
   63.7953   32.0363   47.5879 H   0  0  0  0  0  0  0  0  0  0  0  0
   61.6865   35.1936   47.0789 H   0  0  0  0  0  0  0  0  0  0  0  0
   61.9139   33.8053   45.9489 H   0  0  0  0  0  0  0  0  0  0  0  0
   59.2627   34.7751   47.1324 H   0  0  0  0  0  0  0  0  0  0  0  0
   59.8281   34.9702   45.4262 H   0  0  0  0  0  0  0  0  0  0  0  0
  1  2  1  0
  2  3  1  0
  3  4  1  0
  4  5  2  0
  4  6  1  0
  6  7  1  0
  7  8  1  0
  8  9  1  0
  8 10  1  0
 10 11  1  0
 11 12  1  0
 12 13  1  0
 13 14  1  0
 14 15  2  0
 15 16  1  0
 16 17  2  0
 17 18  1  0
 17 19  1  0
 19 20  2  0
 13 21  1  0
 21 22  1  0
  7  2  2  0
 22 10  1  0
 20 14  1  0
  1 23  1  0
  1 24  1  0
  1 25  1  0
  3 26  1  0
  8 27  1  1
  9 28  1  0
  9 29  1  0
  9 30  1  0
 11 31  1  0
 11 32  1  0
 12 33  1  0
 12 34  1  0
 15 35  1  0
 16 36  1  0
 19 37  1  0
 20 38  1  0
 21 39  1  0
 21 40  1  0
 22 41  1  0
 22 42  1  0
M  CHG  1   6  -1
M  END
>  <UniqueID>  (45) 
40

>  <SMILES>  (45) 
Cc1[nH]c(=O)[n-]c1[C@H](C)N1CCN(c2ccc(F)cc2)CC1

>  <Energy>  (45) 
87.62289630682814

>  <Genealogy>  (45) 
Cc1[nH]c(=O)[n-]c1C(C)N1CCN(c2ccc(F)cc2)CC1 (protonated)
Cc1[nH]c(=O)[n-]c1[C@H](C)N1CCN(c2ccc(F)cc2)CC1 (chirality)
Cc1[nH]c(=O)[n-]c1[C@H](C)N1CCN(c2ccc(F)cc2)CC1 (3D coordinates assigned)
Cc1[nH]c(=O)[n-]c1[C@H](C)N1CCN(c2ccc(F)cc2)CC1 (nonaromatic ring conformer: 87.62289630682814 kcal/mol)

>  <smiles>  (45) 
Cc1[nH]c(=O)[nH]c1C(C)N1CCN(c2ccc(F)cc2)CC1

>  <score_type>  (45) 
oracle

>  <origin>  (45) 
adg

>  <m_score__min__energy>  (45) 
-8.8000000000000007

>  <m_primary>  (45) 
energy

$$$$
45:0
     RDKit          3D

 35 36  0  0  0  0  0  0  0  0999 V2000
   56.5270   20.5460   45.7340 C   0  0  0  0  0  0  0  0  0  0  0  0
   56.3290   21.6990   44.7970 C   0  0  0  0  0  0  0  0  0  0  0  0
   56.0040   21.4490   43.6050 O   0  0  0  0  0  0  0  0  0  0  0  0
   56.5000   23.1140   45.2250 C   0  0  0  0  0  0  0  0  0  0  0  0
   55.3690   23.9520   45.2640 C   0  0  0  0  0  0  0  0  0  0  0  0
   55.4790   25.2920   45.6480 C   0  0  0  0  0  0  0  0  0  0  0  0
   54.3470   26.0990   45.6130 O   0  0  0  0  0  0  0  0  0  0  0  0
   56.7260   25.8150   46.0320 C   0  0  0  0  0  0  0  0  0  0  0  0
   56.8760   27.1860   46.4330 N   0  0  0  0  0  0  0  0  0  0  0  0
   57.6050   28.1800   45.6370 C   0  0  2  0  0  0  0  0  0  0  0  0
   58.9030   28.5720   46.3940 C   0  0  0  0  0  0  0  0  0  0  0  0
   59.9200   29.3500   45.5440 C   0  0  0  0  0  0  0  0  0  0  0  0
   59.2520   30.1810   44.4340 C   0  0  0  0  0  0  0  0  0  0  0  0
   58.3010   31.2720   44.9500 C   0  0  0  0  0  0  0  0  0  0  0  0
   57.0270   30.7060   45.3680 N   0  0  0  0  0  0  0  0  0  0  0  0
   56.6620   29.3220   45.2810 C   0  0  0  0  0  0  0  0  0  0  0  0
   55.5200   29.0440   44.8270 O   0  0  0  0  0  0  0  0  0  0  0  0
   57.8570   24.9920   45.9810 C   0  0  0  0  0  0  0  0  0  0  0  0
   57.7530   23.6520   45.5970 C   0  0  0  0  0  0  0  0  0  0  0  0
   58.9000   22.8670   45.6170 O   0  0  0  0  0  0  0  0  0  0  0  0
   56.4657   20.9029   46.7727 H   0  0  0  0  0  0  0  0  0  0  0  0
   55.7451   19.7924   45.5585 H   0  0  0  0  0  0  0  0  0  0  0  0
   57.5155   20.0965   45.5585 H   0  0  0  0  0  0  0  0  0  0  0  0
   54.3844   23.5464   44.9883 H   0  0  0  0  0  0  0  0  0  0  0  0
   56.2820   27.5360   47.2200 H   0  0  0  0  0  0  0  0  0  0  0  0
   57.9456   27.7850   44.6685 H   0  0  0  0  0  0  0  0  0  0  0  0
   58.6242   29.1968   47.2553 H   0  0  0  0  0  0  0  0  0  0  0  0
   59.3922   27.6318   46.6886 H   0  0  0  0  0  0  0  0  0  0  0  0
   60.4828   30.0287   46.2018 H   0  0  0  0  0  0  0  0  0  0  0  0
   60.5794   28.6154   45.0587 H   0  0  0  0  0  0  0  0  0  0  0  0
   60.0428   30.6646   43.8417 H   0  0  0  0  0  0  0  0  0  0  0  0
   58.6415   29.4840   43.8412 H   0  0  0  0  0  0  0  0  0  0  0  0
   58.7675   31.7779   45.8081 H   0  0  0  0  0  0  0  0  0  0  0  0
   58.1139   31.9851   44.1336 H   0  0  0  0  0  0  0  0  0  0  0  0
   58.8411   25.4054   46.2467 H   0  0  0  0  0  0  0  0  0  0  0  0
  1  2  1  0
  2  3  2  0
  2  4  1  0
  4  5  2  0
  5  6  1  0
  6  7  1  0
  6  8  2  0
  8  9  1  0
  9 10  1  0
 10 11  1  0
 11 12  1  0
 12 13  1  0
 13 14  1  0
 14 15  1  0
 15 16  1  0
 16 17  2  0
  8 18  1  0
 18 19  2  0
 19 20  1  0
 19  4  1  0
 16 10  1  0
  1 21  1  0
  1 22  1  0
  1 23  1  0
  5 24  1  0
  9 25  1  0
 10 26  1  6
 11 27  1  0
 11 28  1  0
 12 29  1  0
 12 30  1  0
 13 31  1  0
 13 32  1  0
 14 33  1  0
 14 34  1  0
 18 35  1  0
M  CHG  3   7  -1  15  -1  20  -1
M  END
>  <UniqueID>  (46) 
41

>  <SMILES>  (46) 
CC(=O)c1cc([O-])c(N[C@@H]2CCCC[N-]C2=O)cc1[O-]

>  <Energy>  (46) 
46.87525873779012

>  <Genealogy>  (46) 
CC(=O)c1cc([O-])c(NC2CCCC[N-]C2=O)cc1[O-] (protonated)
CC(=O)c1cc([O-])c(N[C@@H]2CCCC[N-]C2=O)cc1[O-] (chirality)
CC(=O)c1cc([O-])c(N[C@@H]2CCCC[N-]C2=O)cc1[O-] (3D coordinates assigned)
CC(=O)c1cc([O-])c(N[C@@H]2CCCC[N-]C2=O)cc1[O-] (nonaromatic ring conformer: 46.87525873779012 kcal/mol)

>  <smiles>  (46) 
CC(=O)c1cc(O)c(NC2CCCCNC2=O)cc1O

>  <score_type>  (46) 
oracle

>  <origin>  (46) 
adg

>  <m_score__min__energy>  (46) 
-11.859999999999999

>  <m_primary>  (46) 
energy

$$$$
46:0
     RDKit          3D

 28 29  0  0  0  0  0  0  0  0999 V2000
   56.7948   35.1039   44.6305 H   0  0  0  0  0  0  0  0  0  0  0  0
   57.3810   34.2470   44.9940 C   0  0  0  0  0  0  0  0  0  0  0  0
   57.6980   33.2330   44.1470 N   0  0  0  0  0  0  0  0  0  0  0  0
   58.4240   32.1580   44.5570 C   0  0  0  0  0  0  0  0  0  0  0  0
   58.6576   31.3508   43.8471 H   0  0  0  0  0  0  0  0  0  0  0  0
   58.8760   32.0760   45.8840 C   0  0  0  0  0  0  0  0  0  0  0  0
   59.6680   30.8850   46.3580 C   0  0  0  0  0  0  0  0  0  0  0  0
   59.3805   30.6509   47.3936 H   0  0  0  0  0  0  0  0  0  0  0  0
   60.7387   31.1310   46.3016 H   0  0  0  0  0  0  0  0  0  0  0  0
   59.4130   29.7170   45.5150 N   0  0  0  0  0  0  0  0  0  0  0  0
   58.8770   28.5810   45.8760 C   0  0  0  0  0  0  0  0  0  0  0  0
   57.4980   28.3730   45.6650 C   0  0  0  0  0  0  0  0  0  0  0  0
   56.6910   29.4090   45.0540 C   0  0  0  0  0  0  0  0  0  0  0  0
   56.0470   30.2370   44.5660 N   0  0  0  0  0  0  0  0  0  0  0  0
   56.9140   27.1500   46.0580 C   0  0  0  0  0  0  0  0  0  0  0  0
   55.5160   26.8880   45.8680 N   0  0  0  0  0  0  0  0  0  0  0  0
   54.7780   27.4660   46.3270 H   0  0  0  0  0  0  0  0  0  0  0  0
   55.2030   26.1020   45.2560 H   0  0  0  0  0  0  0  0  0  0  0  0
   57.7170   26.1700   46.6480 C   0  0  0  0  0  0  0  0  0  0  0  0
   57.2771   25.2115   46.9607 H   0  0  0  0  0  0  0  0  0  0  0  0
   59.0750   26.4100   46.8390 C   0  0  0  0  0  0  0  0  0  0  0  0
   59.7058   25.6377   47.3035 H   0  0  0  0  0  0  0  0  0  0  0  0
   59.6270   27.5910   46.4560 N   0  0  0  0  0  0  0  0  0  0  0  0
   60.6500   27.7070   46.6170 H   0  0  0  0  0  0  0  0  0  0  0  0
   58.5450   33.1100   46.7720 C   0  0  0  0  0  0  0  0  0  0  0  0
   58.8736   33.0602   47.8206 H   0  0  0  0  0  0  0  0  0  0  0  0
   57.7990   34.2020   46.3260 C   0  0  0  0  0  0  0  0  0  0  0  0
   57.5428   35.0190   47.0165 H   0  0  0  0  0  0  0  0  0  0  0  0
  1  2  1  0
  2  3  2  0
  3  4  1  0
  4  5  1  0
  4  6  2  0
  6  7  1  0
  7  8  1  0
  7  9  1  0
  7 10  1  0
 10 11  2  0
 11 12  1  0
 12 13  1  0
 13 14  3  0
 12 15  2  0
 15 16  1  0
 16 17  1  0
 16 18  1  0
 15 19  1  0
 19 20  1  0
 19 21  2  0
 21 22  1  0
 21 23  1  0
 23 24  1  0
  6 25  1  0
 25 26  1  0
 25 27  2  0
 27 28  1  0
 27  2  1  0
 23 11  1  0
M  END
>  <UniqueID>  (47) 
42

>  <SMILES>  (47) 
N#Cc1c(N)cc[nH]/c1=N\Cc1cccnc1

>  <Energy>  (47) 
32.000991080521835

>  <Genealogy>  (47) 
N#Cc1c(N)cc[nH]/c1=N\Cc1cccnc1 (cis-trans isomerization)
N#Cc1c(N)cc[nH]/c1=N\Cc1cccnc1 (3D coordinates assigned)
N#Cc1c(N)cc[nH]/c1=N\Cc1cccnc1 (optimized conformer: 32.000991080521835 kcal/mol)

>  <smiles>  (47) 
N#Cc1c(N)cc[nH]c1=NCc1cccnc1

>  <score_type>  (47) 
oracle

>  <origin>  (47) 
adg

>  <m_score__min__energy>  (47) 
-5.9100000000000001

>  <m_primary>  (47) 
energy

$$$$
47:0
     RDKit          3D

 43 45  0  0  0  0  0  0  0  0999 V2000
   56.9640   20.1680   48.2090 C   0  0  0  0  0  0  0  0  0  0  0  0
   57.3830   21.4740   47.8290 O   0  0  0  0  0  0  0  0  0  0  0  0
   57.0040   22.1130   46.6390 C   0  0  0  0  0  0  0  0  0  0  0  0
   57.4340   21.6670   45.3750 C   0  0  0  0  0  0  0  0  0  0  0  0
   57.0300   22.3390   44.2200 C   0  0  0  0  0  0  0  0  0  0  0  0
   56.1970   23.4570   44.3100 C   0  0  0  0  0  0  0  0  0  0  0  0
   55.7560   23.9180   45.5640 C   0  0  0  0  0  0  0  0  0  0  0  0
   54.8730   25.1050   45.6600 C   0  0  0  0  0  0  0  0  0  0  0  0
   53.6500   25.0030   45.3720 O   0  0  0  0  0  0  0  0  0  0  0  0
   55.4000   26.3540   46.1310 N   0  0  0  0  0  0  0  0  0  0  0  0
   56.5250   27.0660   45.5940 C   0  0  0  0  0  0  0  0  0  0  0  0
   57.7900   26.4700   45.4610 C   0  0  0  0  0  0  0  0  0  0  0  0
   58.8640   27.2070   44.9610 C   0  0  0  0  0  0  0  0  0  0  0  0
   58.6920   28.5450   44.5970 C   0  0  0  0  0  0  0  0  0  0  0  0
   57.4360   29.1630   44.7350 C   0  0  0  0  0  0  0  0  0  0  0  0
   57.2420   30.5880   44.3740 C   0  0  0  0  0  0  0  0  0  0  0  0
   56.2160   31.1960   44.7870 O   0  0  0  0  0  0  0  0  0  0  0  0
   58.1930   31.2820   43.5490 N   0  0  0  0  0  0  0  0  0  0  0  0
   58.1380   32.7270   43.3430 C   0  0  0  0  0  0  0  0  0  0  0  0
   58.3750   33.4380   44.6380 C   0  0  0  0  0  0  0  0  0  0  0  0
   59.2900   34.4480   44.8500 C   0  0  0  0  0  0  0  0  0  0  0  0
   59.1390   34.8110   46.1720 C   0  0  0  0  0  0  0  0  0  0  0  0
   58.1420   34.0030   46.6790 C   0  0  0  0  0  0  0  0  0  0  0  0
   57.7040   33.1950   45.7400 O   0  0  0  0  0  0  0  0  0  0  0  0
   56.3630   28.4160   45.2540 C   0  0  0  0  0  0  0  0  0  0  0  0
   56.1700   23.2350   46.7230 C   0  0  0  0  0  0  0  0  0  0  0  0
   56.9406   20.0952   49.3063 H   0  0  0  0  0  0  0  0  0  0  0  0
   55.9585   19.9741   47.8072 H   0  0  0  0  0  0  0  0  0  0  0  0
   57.6690   19.4253   47.8072 H   0  0  0  0  0  0  0  0  0  0  0  0
   58.0897   20.7872   45.2972 H   0  0  0  0  0  0  0  0  0  0  0  0
   57.3690   21.9867   43.2346 H   0  0  0  0  0  0  0  0  0  0  0  0
   55.8839   23.9802   43.3945 H   0  0  0  0  0  0  0  0  0  0  0  0
   57.9343   25.4190   45.7519 H   0  0  0  0  0  0  0  0  0  0  0  0
   59.8505   26.7326   44.8529 H   0  0  0  0  0  0  0  0  0  0  0  0
   59.5432   29.1180   44.2005 H   0  0  0  0  0  0  0  0  0  0  0  0
   58.9170   30.7420   43.0260 H   0  0  0  0  0  0  0  0  0  0  0  0
   58.9119   33.0214   42.6189 H   0  0  0  0  0  0  0  0  0  0  0  0
   57.1441   32.9993   42.9583 H   0  0  0  0  0  0  0  0  0  0  0  0
   59.9924   34.8743   44.1186 H   0  0  0  0  0  0  0  0  0  0  0  0
   59.6999   35.5875   46.7128 H   0  0  0  0  0  0  0  0  0  0  0  0
   57.7698   34.0311   47.7137 H   0  0  0  0  0  0  0  0  0  0  0  0
   55.3841   28.8976   45.3948 H   0  0  0  0  0  0  0  0  0  0  0  0
   55.8336   23.5876   47.7091 H   0  0  0  0  0  0  0  0  0  0  0  0
  1  2  1  0
  2  3  1  0
  3  4  2  0
  4  5  1  0
  5  6  2  0
  6  7  1  0
  7  8  1  0
  8  9  2  0
  8 10  1  0
 10 11  1  0
 11 12  2  0
 12 13  1  0
 13 14  2  0
 14 15  1  0
 15 16  1  0
 16 17  2  0
 16 18  1  0
 18 19  1  0
 19 20  1  0
 20 21  2  0
 21 22  1  0
 22 23  2  0
 23 24  1  0
 15 25  2  0
  7 26  2  0
 26  3  1  0
 25 11  1  0
 24 20  1  0
  1 27  1  0
  1 28  1  0
  1 29  1  0
  4 30  1  0
  5 31  1  0
  6 32  1  0
 12 33  1  0
 13 34  1  0
 14 35  1  0
 18 36  1  0
 19 37  1  0
 19 38  1  0
 21 39  1  0
 22 40  1  0
 23 41  1  0
 25 42  1  0
 26 43  1  0
M  CHG  1  10  -1
M  END
>  <UniqueID>  (48) 
43

>  <SMILES>  (48) 
COc1cccc(C(=O)[N-]c2cccc(C(=O)NCc3ccco3)c2)c1

>  <Energy>  (48) 
74.47727910734574

>  <Genealogy>  (48) 
COc1cccc(C(=O)[N-]c2cccc(C(=O)NCc3ccco3)c2)c1 (protonated)
COc1cccc(C(=O)[N-]c2cccc(C(=O)NCc3ccco3)c2)c1 (3D coordinates assigned)
COc1cccc(C(=O)[N-]c2cccc(C(=O)NCc3ccco3)c2)c1 (optimized conformer: 74.47727910734574 kcal/mol)

>  <smiles>  (48) 
COc1cccc(C(=O)Nc2cccc(C(=O)NCc3ccco3)c2)c1

>  <score_type>  (48) 
oracle

>  <origin>  (48) 
adg

>  <m_score__min__energy>  (48) 
-10.69

>  <m_primary>  (48) 
energy

$$$$
48:0
     RDKit          3D

 46 49  0  0  0  0  0  0  0  0999 V2000
   60.8440   26.7500   46.9090 C   0  0  0  0  0  0  0  0  0  0  0  0
   59.3960   26.7520   46.5320 C   0  0  0  0  0  0  0  0  0  0  0  0
   58.6600   25.6130   46.6400 N   0  0  0  0  0  0  0  0  0  0  0  0
   57.3570   25.5640   46.3280 N   0  0  0  0  0  0  0  0  0  0  0  0
   56.6480   24.2980   46.5350 C   0  0  0  0  0  0  0  0  0  0  0  0
   56.7060   23.4640   45.2830 C   0  0  0  0  0  0  0  0  0  0  0  0
   57.5100   22.3120   45.2420 C   0  0  0  0  0  0  0  0  0  0  0  0
   57.5370   21.5120   44.0960 C   0  0  0  0  0  0  0  0  0  0  0  0
   56.7550   21.8500   42.9880 C   0  0  0  0  0  0  0  0  0  0  0  0
   55.9450   22.9890   43.0250 C   0  0  0  0  0  0  0  0  0  0  0  0
   55.9170   23.7920   44.1690 C   0  0  0  0  0  0  0  0  0  0  0  0
   56.6940   26.6880   45.8910 C   0  0  0  0  0  0  0  0  0  0  0  0
   55.4610   26.6400   45.6290 O   0  0  0  0  0  0  0  0  0  0  0  0
   57.4080   27.8900   45.7590 C   0  0  0  0  0  0  0  0  0  0  0  0
   56.9300   29.1530   45.3330 C   0  0  0  0  0  0  0  0  0  0  0  0
   55.5330   29.3950   44.8300 C   0  0  0  0  0  0  0  0  0  0  0  0
   57.9260   30.1450   45.3960 C   0  0  0  0  0  0  0  0  0  0  0  0
   57.7800   31.5890   45.1380 C   0  0  0  0  0  0  0  0  0  0  0  0
   56.6480   32.0390   44.8190 O   0  0  0  0  0  0  0  0  0  0  0  0
   58.8820   32.5020   45.2370 N   0  0  0  0  0  0  0  0  0  0  0  0
   59.5220   32.9340   46.4480 C   0  0  0  0  0  0  0  0  0  0  0  0
   58.7350   33.1610   47.5840 C   0  0  0  0  0  0  0  0  0  0  0  0
   59.3270   33.5660   48.7840 C   0  0  0  0  0  0  0  0  0  0  0  0
   60.7090   33.7610   48.8520 C   0  0  0  0  0  0  0  0  0  0  0  0
   61.5000   33.5650   47.7160 C   0  0  0  0  0  0  0  0  0  0  0  0
   63.2340   33.8190   47.7980 Cl  0  0  0  0  0  0  0  0  0  0  0  0
   60.9080   33.1660   46.5130 C   0  0  0  0  0  0  0  0  0  0  0  0
   59.3770   29.4470   45.9010 S   0  0  0  0  0  0  0  0  0  0  0  0
   58.7500   27.9010   46.0900 C   0  0  0  0  0  0  0  0  0  0  0  0
   60.9375   26.7499   48.0050 H   0  0  0  0  0  0  0  0  0  0  0  0
   61.3283   25.8512   46.4996 H   0  0  0  0  0  0  0  0  0  0  0  0
   61.3307   27.6475   46.4996 H   0  0  0  0  0  0  0  0  0  0  0  0
   57.1202   23.7471   47.3617 H   0  0  0  0  0  0  0  0  0  0  0  0
   55.5965   24.5091   46.7795 H   0  0  0  0  0  0  0  0  0  0  0  0
   58.1205   22.0388   46.1153 H   0  0  0  0  0  0  0  0  0  0  0  0
   58.1742   20.6158   44.0662 H   0  0  0  0  0  0  0  0  0  0  0  0
   56.7768   21.2198   42.0867 H   0  0  0  0  0  0  0  0  0  0  0  0
   55.3290   23.2536   42.1529 H   0  0  0  0  0  0  0  0  0  0  0  0
   55.2743   24.6843   44.1964 H   0  0  0  0  0  0  0  0  0  0  0  0
   54.8508   29.5132   45.6848 H   0  0  0  0  0  0  0  0  0  0  0  0
   55.5166   30.3094   44.2187 H   0  0  0  0  0  0  0  0  0  0  0  0
   55.2100   28.5394   44.2187 H   0  0  0  0  0  0  0  0  0  0  0  0
   57.6453   33.0199   47.5318 H   0  0  0  0  0  0  0  0  0  0  0  0
   58.7043   33.7313   49.6755 H   0  0  0  0  0  0  0  0  0  0  0  0
   61.1748   34.0689   49.7998 H   0  0  0  0  0  0  0  0  0  0  0  0
   61.5285   33.0332   45.6145 H   0  0  0  0  0  0  0  0  0  0  0  0
  1  2  1  0
  2  3  2  0
  3  4  1  0
  4  5  1  0
  5  6  1  0
  6  7  2  0
  7  8  1  0
  8  9  2  0
  9 10  1  0
 10 11  2  0
  4 12  1  0
 12 13  2  0
 12 14  1  0
 14 15  1  0
 15 16  1  0
 15 17  2  0
 17 18  1  0
 18 19  2  0
 18 20  1  0
 20 21  1  0
 21 22  2  0
 22 23  1  0
 23 24  2  0
 24 25  1  0
 25 26  1  0
 25 27  2  0
 17 28  1  0
 28 29  1  0
 29  2  1  0
 11  6  1  0
 29 14  2  0
 27 21  1  0
  1 30  1  0
  1 31  1  0
  1 32  1  0
  5 33  1  0
  5 34  1  0
  7 35  1  0
  8 36  1  0
  9 37  1  0
 10 38  1  0
 11 39  1  0
 16 40  1  0
 16 41  1  0
 16 42  1  0
 22 43  1  0
 23 44  1  0
 24 45  1  0
 27 46  1  0
M  CHG  1  20  -1
M  END
>  <UniqueID>  (49) 
44

>  <SMILES>  (49) 
Cc1nn(Cc2ccccc2)c(=O)c2c(C)c(C(=O)[N-]c3cccc(Cl)c3)sc12

>  <Energy>  (49) 
89.669102669238

>  <Genealogy>  (49) 
Cc1nn(Cc2ccccc2)c(=O)c2c(C)c(C(=O)[N-]c3cccc(Cl)c3)sc12 (protonated)
Cc1nn(Cc2ccccc2)c(=O)c2c(C)c(C(=O)[N-]c3cccc(Cl)c3)sc12 (3D coordinates assigned)
Cc1nn(Cc2ccccc2)c(=O)c2c(C)c(C(=O)[N-]c3cccc(Cl)c3)sc12 (optimized conformer: 89.669102669238 kcal/mol)

>  <smiles>  (49) 
Cc1nn(Cc2ccccc2)c(=O)c2c(C)c(C(=O)Nc3cccc(Cl)c3)sc12

>  <score_type>  (49) 
oracle

>  <origin>  (49) 
adg

>  <m_score__min__energy>  (49) 
-10.75

>  <m_primary>  (49) 
energy

$$$$
49:0
     RDKit          3D

 50 51  0  0  0  0  0  0  0  0999 V2000
   56.1970   23.0420   48.0280 C   0  0  0  0  0  0  0  0  0  0  0  0
   56.3100   23.8000   46.7120 C   0  0  0  0  0  0  0  0  0  0  0  0
   56.0600   25.1910   46.9090 O   0  0  0  0  0  0  0  0  0  0  0  0
   56.3460   26.1700   45.9490 C   0  0  0  0  0  0  0  0  0  0  0  0
   55.5210   27.0930   45.7090 O   0  0  0  0  0  0  0  0  0  0  0  0
   57.6220   26.0900   45.1530 C   0  0  1  0  0  0  0  0  0  0  0  0
   57.5230   26.9010   43.9330 N   0  0  0  0  0  0  0  0  0  0  0  0
   58.8050   26.5400   46.0330 C   0  0  0  0  0  0  0  0  0  0  0  0
   58.9840   28.0320   46.0060 C   0  0  0  0  0  0  0  0  0  0  0  0
   60.1170   28.6260   46.5800 C   0  0  0  0  0  0  0  0  0  0  0  0
   60.2770   30.0150   46.5140 C   0  0  0  0  0  0  0  0  0  0  0  0
   61.4710   30.6670   47.1520 C   0  0  0  0  0  0  0  0  0  0  0  0
   61.5050   32.0760   46.7910 N   0  0  0  0  0  0  0  0  0  0  0  0
   62.5710   32.6910   46.7640 N   0  0  0  0  0  0  0  0  0  0  0  0
   63.6350   33.3060   46.7390 N   0  0  0  0  0  0  0  0  0  0  0  0
   59.2880   30.7930   45.8950 C   0  0  0  0  0  0  0  0  0  0  0  0
   58.1690   30.1660   45.3230 C   0  0  0  0  0  0  0  0  0  0  0  0
   57.1190   30.9520   44.6540 C   0  0  0  0  0  0  0  0  0  0  0  0
   55.9660   30.4570   44.5060 O   0  0  0  0  0  0  0  0  0  0  0  0
   57.4010   32.2400   44.1810 O   0  0  0  0  0  0  0  0  0  0  0  0
   57.0110   33.4280   44.8660 C   0  0  0  0  0  0  0  0  0  0  0  0
   58.0640   33.8280   45.8650 C   0  0  0  0  0  0  0  0  0  0  0  0
   59.1600   34.6180   45.4770 C   0  0  0  0  0  0  0  0  0  0  0  0
   60.1260   34.9910   46.4160 C   0  0  0  0  0  0  0  0  0  0  0  0
   60.0040   34.5830   47.7470 C   0  0  0  0  0  0  0  0  0  0  0  0
   58.9160   33.7990   48.1420 C   0  0  0  0  0  0  0  0  0  0  0  0
   57.9500   33.4210   47.2040 C   0  0  0  0  0  0  0  0  0  0  0  0
   58.0510   28.8120   45.3920 N   0  0  0  0  0  0  0  0  0  0  0  0
   56.3019   23.7459   48.8668 H   0  0  0  0  0  0  0  0  0  0  0  0
   55.2154   22.5487   48.0839 H   0  0  0  0  0  0  0  0  0  0  0  0
   56.9920   22.2839   48.0839 H   0  0  0  0  0  0  0  0  0  0  0  0
   57.3238   23.6692   46.3057 H   0  0  0  0  0  0  0  0  0  0  0  0
   55.5633   23.4022   46.0091 H   0  0  0  0  0  0  0  0  0  0  0  0
   57.7928   25.0489   44.8415 H   0  0  0  0  0  0  0  0  0  0  0  0
   57.2760   26.3070   43.1080 H   0  0  0  0  0  0  0  0  0  0  0  0
   58.4360   27.3800   43.7530 H   0  0  0  0  0  0  0  0  0  0  0  0
   56.7930   27.6400   44.0520 H   0  0  0  0  0  0  0  0  0  0  0  0
   58.6189   26.2223   47.0696 H   0  0  0  0  0  0  0  0  0  0  0  0
   59.7214   26.0782   45.6367 H   0  0  0  0  0  0  0  0  0  0  0  0
   60.8752   28.0045   47.0789 H   0  0  0  0  0  0  0  0  0  0  0  0
   61.4009   30.5703   48.2455 H   0  0  0  0  0  0  0  0  0  0  0  0
   62.3895   30.1757   46.7985 H   0  0  0  0  0  0  0  0  0  0  0  0
   59.3881   31.8878   45.8577 H   0  0  0  0  0  0  0  0  0  0  0  0
   56.8771   34.2399   44.1360 H   0  0  0  0  0  0  0  0  0  0  0  0
   56.0674   33.2390   45.3988 H   0  0  0  0  0  0  0  0  0  0  0  0
   59.2578   34.9438   44.4309 H   0  0  0  0  0  0  0  0  0  0  0  0
   60.9835   35.6066   46.1068 H   0  0  0  0  0  0  0  0  0  0  0  0
   60.7646   34.8790   48.4845 H   0  0  0  0  0  0  0  0  0  0  0  0
   58.8198   33.4796   49.1902 H   0  0  0  0  0  0  0  0  0  0  0  0
   57.0965   32.8016   47.5168 H   0  0  0  0  0  0  0  0  0  0  0  0
  1  2  1  0
  2  3  1  0
  3  4  1  0
  4  5  2  0
  4  6  1  0
  6  7  1  0
  6  8  1  0
  8  9  1  0
  9 10  2  0
 10 11  1  0
 11 12  1  0
 12 13  1  0
 13 14  2  0
 14 15  2  0
 11 16  2  0
 16 17  1  0
 17 18  1  0
 18 19  2  0
 18 20  1  0
 20 21  1  0
 21 22  1  0
 22 23  2  0
 23 24  1  0
 24 25  2  0
 25 26  1  0
 26 27  2  0
 17 28  2  0
 28  9  1  0
 27 22  1  0
  1 29  1  0
  1 30  1  0
  1 31  1  0
  2 32  1  0
  2 33  1  0
  6 34  1  6
  7 35  1  0
  7 36  1  0
  7 37  1  0
  8 38  1  0
  8 39  1  0
 10 40  1  0
 12 41  1  0
 12 42  1  0
 16 43  1  0
 21 44  1  0
 21 45  1  0
 23 46  1  0
 24 47  1  0
 25 48  1  0
 26 49  1  0
 27 50  1  0
M  CHG  3   7   1  14   1  15  -1
M  END
>  <UniqueID>  (50) 
45

>  <SMILES>  (50) 
CCOC(=O)[C@@H]([NH3+])Cc1cc(CN=[N+]=[N-])cc(C(=O)OCc2ccccc2)n1

>  <Energy>  (50) 
37.845213299963206

>  <Genealogy>  (50) 
CCOC(=O)C([NH3+])Cc1cc(CN=[N+]=[N-])cc(C(=O)OCc2ccccc2)n1 (protonated)
CCOC(=O)[C@@H]([NH3+])Cc1cc(CN=[N+]=[N-])cc(C(=O)OCc2ccccc2)n1 (chirality)
CCOC(=O)[C@@H]([NH3+])Cc1cc(CN=[N+]=[N-])cc(C(=O)OCc2ccccc2)n1 (3D coordinates assigned)
CCOC(=O)[C@@H]([NH3+])Cc1cc(CN=[N+]=[N-])cc(C(=O)OCc2ccccc2)n1 (optimized conformer: 37.845213299963206 kcal/mol)

>  <smiles>  (50) 
CCOC(=O)C(N)Cc1cc(CN=[N+]=[N-])cc(C(=O)OCc2ccccc2)n1

>  <score_type>  (50) 
oracle

>  <origin>  (50) 
adg

>  <m_score__min__energy>  (50) 
-6.6900000000000004

>  <m_primary>  (50) 
energy

$$$$
50:0
     RDKit          3D

 50 52  0  0  0  0  0  0  0  0999 V2000
   59.4340   27.1530   46.9790 C   0  0  0  0  0  0  0  0  0  0  0  0
   59.1740   28.6400   47.0060 C   0  0  0  0  0  0  0  0  0  0  0  0
   59.7700   29.3950   48.0240 C   0  0  0  0  0  0  0  0  0  0  0  0
   59.5590   30.7650   48.0880 C   0  0  0  0  0  0  0  0  0  0  0  0
   58.7590   31.4000   47.1440 C   0  0  0  0  0  0  0  0  0  0  0  0
   58.5840   32.8210   47.2710 N   0  0  0  0  0  0  0  0  0  0  0  0
   59.6350   34.0740   46.6860 S   0  0  0  0  0  0  0  0  0  0  0  0
   59.6710   34.0260   45.1830 O   0  0  0  0  0  0  0  0  0  0  0  0
   59.1270   35.4100   47.1540 O   0  0  0  0  0  0  0  0  0  0  0  0
   61.2730   33.8300   47.3010 C   0  0  0  0  0  0  0  0  0  0  0  0
   62.3480   33.7490   46.4000 C   0  0  0  0  0  0  0  0  0  0  0  0
   63.6510   33.5540   46.8660 C   0  0  0  0  0  0  0  0  0  0  0  0
   63.8940   33.4350   48.2350 C   0  0  0  0  0  0  0  0  0  0  0  0
   62.8360   33.5100   49.1420 C   0  0  0  0  0  0  0  0  0  0  0  0
   61.5260   33.7070   48.6870 C   0  0  0  0  0  0  0  0  0  0  0  0
   60.1270   33.7940   49.9970 Br  0  0  0  0  0  0  0  0  0  0  0  0
   58.1490   30.6200   46.1360 C   0  0  0  0  0  0  0  0  0  0  0  0
   57.3670   31.1660   45.3120 O   0  0  0  0  0  0  0  0  0  0  0  0
   58.3850   29.2630   46.0590 N   0  0  0  0  0  0  0  0  0  0  0  0
   57.7390   28.4780   44.9840 C   0  0  0  0  0  0  0  0  0  0  0  0
   56.2740   28.3210   45.2530 C   0  0  0  0  0  0  0  0  0  0  0  0
   55.4780   29.2580   44.9720 O   0  0  0  0  0  0  0  0  0  0  0  0
   55.7840   27.0960   45.8080 N   0  0  0  0  0  0  0  0  0  0  0  0
   56.5530   25.8570   45.8290 C   0  0  0  0  0  0  0  0  0  0  0  0
   55.6350   24.6680   46.1230 C   0  0  0  0  0  0  0  0  0  0  0  0
   55.8610   23.5640   45.1240 C   0  0  0  0  0  0  0  0  0  0  0  0
   56.1020   22.2530   45.5590 C   0  0  0  0  0  0  0  0  0  0  0  0
   56.3430   21.2500   44.6170 C   0  0  0  0  0  0  0  0  0  0  0  0
   56.3530   21.5480   43.2900 N   0  0  0  0  0  0  0  0  0  0  0  0
   56.1330   22.8130   42.8420 C   0  0  0  0  0  0  0  0  0  0  0  0
   55.8890   23.8460   43.7510 C   0  0  0  0  0  0  0  0  0  0  0  0
   59.5003   26.7736   48.0094 H   0  0  0  0  0  0  0  0  0  0  0  0
   58.6108   26.6463   46.4540 H   0  0  0  0  0  0  0  0  0  0  0  0
   60.3803   26.9557   46.4540 H   0  0  0  0  0  0  0  0  0  0  0  0
   60.4060   28.9014   48.7736 H   0  0  0  0  0  0  0  0  0  0  0  0
   60.0277   31.3529   48.8909 H   0  0  0  0  0  0  0  0  0  0  0  0
   62.1626   33.8398   45.3195 H   0  0  0  0  0  0  0  0  0  0  0  0
   64.4862   33.4942   46.1527 H   0  0  0  0  0  0  0  0  0  0  0  0
   64.9205   33.2819   48.5996 H   0  0  0  0  0  0  0  0  0  0  0  0
   63.0319   33.4139   50.2201 H   0  0  0  0  0  0  0  0  0  0  0  0
   57.8766   28.9977   44.0243 H   0  0  0  0  0  0  0  0  0  0  0  0
   58.2014   27.4806   44.9466 H   0  0  0  0  0  0  0  0  0  0  0  0
   57.0335   25.7113   44.8503 H   0  0  0  0  0  0  0  0  0  0  0  0
   57.3172   25.9230   46.6174 H   0  0  0  0  0  0  0  0  0  0  0  0
   55.8463   24.2895   47.1340 H   0  0  0  0  0  0  0  0  0  0  0  0
   54.5892   25.0015   46.0523 H   0  0  0  0  0  0  0  0  0  0  0  0
   56.1013   22.0162   46.6332 H   0  0  0  0  0  0  0  0  0  0  0  0
   56.5250   20.2172   44.9491 H   0  0  0  0  0  0  0  0  0  0  0  0
   56.1471   23.0235   41.7624 H   0  0  0  0  0  0  0  0  0  0  0  0
   55.7203   24.8720   43.3921 H   0  0  0  0  0  0  0  0  0  0  0  0
  1  2  1  0
  2  3  2  0
  3  4  1  0
  4  5  2  0
  5  6  1  0
  6  7  1  0
  7  8  2  0
  7  9  2  0
  7 10  1  0
 10 11  2  0
 11 12  1  0
 12 13  2  0
 13 14  1  0
 14 15  2  0
 15 16  1  0
  5 17  1  0
 17 18  2  0
 17 19  1  0
 19 20  1  0
 20 21  1  0
 21 22  2  0
 21 23  1  0
 23 24  1  0
 24 25  1  0
 25 26  1  0
 26 27  2  0
 27 28  1  0
 28 29  2  0
 29 30  1  0
 30 31  2  0
 19  2  1  0
 31 26  1  0
 15 10  1  0
  1 32  1  0
  1 33  1  0
  1 34  1  0
  3 35  1  0
  4 36  1  0
 11 37  1  0
 12 38  1  0
 13 39  1  0
 14 40  1  0
 20 41  1  0
 20 42  1  0
 24 43  1  0
 24 44  1  0
 25 45  1  0
 25 46  1  0
 27 47  1  0
 28 48  1  0
 30 49  1  0
 31 50  1  0
M  CHG  2   6  -1  23  -1
M  END
>  <UniqueID>  (51) 
46

>  <SMILES>  (51) 
Cc1ccc([N-]S(=O)(=O)c2ccccc2Br)c(=O)n1CC(=O)[N-]CCc1ccncc1

>  <Energy>  (51) 
61.880323252733156

>  <Genealogy>  (51) 
Cc1ccc([N-]S(=O)(=O)c2ccccc2Br)c(=O)n1CC(=O)[N-]CCc1ccncc1 (protonated)
Cc1ccc([N-]S(=O)(=O)c2ccccc2Br)c(=O)n1CC(=O)[N-]CCc1ccncc1 (3D coordinates assigned)
Cc1ccc([N-]S(=O)(=O)c2ccccc2Br)c(=O)n1CC(=O)[N-]CCc1ccncc1 (optimized conformer: 61.880323252733156 kcal/mol)

>  <smiles>  (51) 
Cc1ccc(NS(=O)(=O)c2ccccc2Br)c(=O)n1CC(=O)NCCc1ccncc1

>  <score_type>  (51) 
oracle

>  <origin>  (51) 
adg

>  <m_score__min__energy>  (51) 
-13.32

>  <m_primary>  (51) 
energy

$$$$
51:0
     RDKit          3D

 61 64  0  0  0  0  0  0  0  0999 V2000
   59.8890   33.8480   49.5550 C   0  0  0  0  0  0  0  0  0  0  0  0
   61.2220   33.5410   48.9250 C   0  0  0  0  0  0  0  0  0  0  0  0
   62.3220   33.2830   49.7600 C   0  0  0  0  0  0  0  0  0  0  0  0
   63.5720   32.9830   49.2150 C   0  0  0  0  0  0  0  0  0  0  0  0
   63.7410   32.9440   47.8310 C   0  0  0  0  0  0  0  0  0  0  0  0
   62.6640   33.2190   46.9850 C   0  0  0  0  0  0  0  0  0  0  0  0
   61.4050   33.5350   47.5200 C   0  0  0  0  0  0  0  0  0  0  0  0
   60.3020   33.8450   46.5920 C   0  0  0  0  0  0  0  0  0  0  0  0
   59.9780   35.0920   46.1050 C   0  0  0  0  0  0  0  0  0  0  0  0
   58.8990   34.9880   45.3070 N   0  0  0  0  0  0  0  0  0  0  0  0
   58.5190   33.7180   45.2900 N   0  0  0  0  0  0  0  0  0  0  0  0
   57.3830   33.2560   44.4960 C   0  0  0  0  0  0  0  0  0  0  0  0
   59.3630   32.9790   46.0550 C   0  0  0  0  0  0  0  0  0  0  0  0
   59.2210   31.5100   46.4130 C   0  0  1  0  0  0  0  0  0  0  0  0
   58.5170   30.7000   45.2890 C   0  0  0  0  0  0  0  0  0  0  0  0
   59.1740   29.3360   45.0160 C   0  0  0  0  0  0  0  0  0  0  0  0
   59.5430   28.6040   46.3170 C   0  0  0  0  0  0  0  0  0  0  0  0
   60.2710   29.4730   47.2620 N   0  0  0  0  0  0  0  0  0  0  0  0
   60.4960   29.0410   48.6250 C   0  0  0  0  0  0  0  0  0  0  0  0
   61.0920   27.9530   48.8540 O   0  0  0  0  0  0  0  0  0  0  0  0
   60.0880   29.8580   49.7790 C   0  0  0  0  0  0  0  0  0  0  0  0
   60.9180   30.3950   50.7550 C   0  0  0  0  0  0  0  0  0  0  0  0
   60.2740   31.1290   51.7020 N   0  0  0  0  0  0  0  0  0  0  0  0
   58.9350   31.2140   51.4920 C   0  0  0  0  0  0  0  0  0  0  0  0
   57.9370   31.9170   52.4040 C   0  0  0  0  0  0  0  0  0  0  0  0
   58.1660   31.4640   53.8590 C   0  0  0  0  0  0  0  0  0  0  0  0
   58.1560   33.4380   52.3000 C   0  0  0  0  0  0  0  0  0  0  0  0
   56.4780   31.5940   52.0150 C   0  0  0  0  0  0  0  0  0  0  0  0
   58.5140   30.3540   50.1010 S   0  0  0  0  0  0  0  0  0  0  0  0
   60.5430   30.8650   46.8650 C   0  0  0  0  0  0  0  0  0  0  0  0
   59.9872   33.8254   50.6504 H   0  0  0  0  0  0  0  0  0  0  0  0
   59.5546   34.8467   49.2374 H   0  0  0  0  0  0  0  0  0  0  0  0
   59.1515   33.0962   49.2374 H   0  0  0  0  0  0  0  0  0  0  0  0
   62.1974   33.3176   50.8524 H   0  0  0  0  0  0  0  0  0  0  0  0
   64.4250   32.7770   49.8783 H   0  0  0  0  0  0  0  0  0  0  0  0
   64.7244   32.6962   47.4049 H   0  0  0  0  0  0  0  0  0  0  0  0
   62.8030   33.1878   45.8943 H   0  0  0  0  0  0  0  0  0  0  0  0
   60.5155   36.0245   46.3321 H   0  0  0  0  0  0  0  0  0  0  0  0
   56.5758   32.9277   45.1673 H   0  0  0  0  0  0  0  0  0  0  0  0
   57.0206   34.0782   43.8614 H   0  0  0  0  0  0  0  0  0  0  0  0
   57.6973   32.4142   43.8614 H   0  0  0  0  0  0  0  0  0  0  0  0
   58.5608   31.4744   47.2921 H   0  0  0  0  0  0  0  0  0  0  0  0
   57.4710   30.5304   45.5842 H   0  0  0  0  0  0  0  0  0  0  0  0
   58.5974   31.2902   44.3642 H   0  0  0  0  0  0  0  0  0  0  0  0
   58.4718   28.7116   44.4440 H   0  0  0  0  0  0  0  0  0  0  0  0
   60.1009   29.5123   44.4505 H   0  0  0  0  0  0  0  0  0  0  0  0
   58.6190   28.2528   46.7995 H   0  0  0  0  0  0  0  0  0  0  0  0
   60.2037   27.7645   46.0548 H   0  0  0  0  0  0  0  0  0  0  0  0
   62.0069   30.2394   50.7615 H   0  0  0  0  0  0  0  0  0  0  0  0
   60.7850   31.5740   52.4920 H   0  0  0  0  0  0  0  0  0  0  0  0
   57.7787   32.2301   54.5468 H   0  0  0  0  0  0  0  0  0  0  0  0
   57.6398   30.5141   54.0344 H   0  0  0  0  0  0  0  0  0  0  0  0
   59.2429   31.3245   54.0344 H   0  0  0  0  0  0  0  0  0  0  0  0
   58.2181   33.8694   53.3100 H   0  0  0  0  0  0  0  0  0  0  0  0
   59.0921   33.6374   51.7579 H   0  0  0  0  0  0  0  0  0  0  0  0
   57.3142   33.8934   51.7579 H   0  0  0  0  0  0  0  0  0  0  0  0
   55.8765   31.4608   52.9263 H   0  0  0  0  0  0  0  0  0  0  0  0
   56.0650   32.4224   51.4208 H   0  0  0  0  0  0  0  0  0  0  0  0
   56.4532   30.6686   51.4208 H   0  0  0  0  0  0  0  0  0  0  0  0
   60.9541   31.4214   47.7202 H   0  0  0  0  0  0  0  0  0  0  0  0
   61.2739   30.8870   46.0432 H   0  0  0  0  0  0  0  0  0  0  0  0
  1  2  1  0
  2  3  2  0
  3  4  1  0
  4  5  2  0
  5  6  1  0
  6  7  2  0
  7  8  1  0
  8  9  1  0
  9 10  2  0
 10 11  1  0
 11 12  1  0
 11 13  1  0
 13 14  1  0
 14 15  1  0
 15 16  1  0
 16 17  1  0
 17 18  1  0
 18 19  1  0
 19 20  2  0
 19 21  1  0
 21 22  2  0
 22 23  1  0
 23 24  2  0
 24 25  1  0
 25 26  1  0
 25 27  1  0
 25 28  1  0
 24 29  1  0
 18 30  1  0
  7  2  1  0
 13  8  2  0
 30 14  1  0
 29 21  1  0
  1 31  1  0
  1 32  1  0
  1 33  1  0
  3 34  1  0
  4 35  1  0
  5 36  1  0
  6 37  1  0
  9 38  1  0
 12 39  1  0
 12 40  1  0
 12 41  1  0
 14 42  1  1
 15 43  1  0
 15 44  1  0
 16 45  1  0
 16 46  1  0
 17 47  1  0
 17 48  1  0
 22 49  1  0
 23 50  1  0
 26 51  1  0
 26 52  1  0
 26 53  1  0
 27 54  1  0
 27 55  1  0
 27 56  1  0
 28 57  1  0
 28 58  1  0
 28 59  1  0
 30 60  1  0
 30 61  1  0
M  CHG  1  23   1
M  END
>  <UniqueID>  (52) 
47

>  <SMILES>  (52) 
Cc1ccccc1-c1cnn(C)c1[C@H]1CCCN(C(=O)c2c[nH+]c(C(C)(C)C)s2)C1

>  <Energy>  (52) 
135.08159894305945

>  <Genealogy>  (52) 
Cc1ccccc1-c1cnn(C)c1C1CCCN(C(=O)c2c[nH+]c(C(C)(C)C)s2)C1 (protonated)
Cc1ccccc1-c1cnn(C)c1[C@H]1CCCN(C(=O)c2c[nH+]c(C(C)(C)C)s2)C1 (chirality)
Cc1ccccc1-c1cnn(C)c1[C@H]1CCCN(C(=O)c2c[nH+]c(C(C)(C)C)s2)C1 (3D coordinates assigned)
Cc1ccccc1-c1cnn(C)c1[C@H]1CCCN(C(=O)c2c[nH+]c(C(C)(C)C)s2)C1 (nonaromatic ring conformer: 135.08159894305945 kcal/mol)

>  <smiles>  (52) 
Cc1ccccc1-c1cnn(C)c1C1CCCN(C(=O)c2cnc(C(C)(C)C)s2)C1

>  <score_type>  (52) 
oracle

>  <origin>  (52) 
adg

>  <m_score__min__energy>  (52) 
-7.9699999999999998

>  <m_primary>  (52) 
energy

$$$$
52:0
     RDKit          3D

 39 40  0  0  0  0  0  0  0  0999 V2000
   65.0290   32.7760   50.3590 C   0  0  0  0  0  0  0  0  0  0  0  0
   64.8340   33.0210   48.9710 O   0  0  0  0  0  0  0  0  0  0  0  0
   63.5870   33.2690   48.3790 C   0  0  0  0  0  0  0  0  0  0  0  0
   63.4530   33.6530   47.0310 C   0  0  0  0  0  0  0  0  0  0  0  0
   62.1860   33.8900   46.4890 C   0  0  0  0  0  0  0  0  0  0  0  0
   61.0410   33.7500   47.2820 C   0  0  0  0  0  0  0  0  0  0  0  0
   59.4510   34.0540   46.5860 S   0  0  0  0  0  0  0  0  0  0  0  0
   59.5950   34.7530   45.2620 O   0  0  0  0  0  0  0  0  0  0  0  0
   58.6850   34.9390   47.5300 O   0  0  0  0  0  0  0  0  0  0  0  0
   58.6050   32.5400   46.3560 N   0  0  0  0  0  0  0  0  0  0  0  0
   59.5530   31.4770   45.9230 C   0  0  0  0  0  0  0  0  0  0  0  0
   58.9970   30.0360   45.9810 C   0  0  0  0  0  0  0  0  0  0  0  0
   57.4540   29.9550   46.0280 C   0  0  0  0  0  0  0  0  0  0  0  0
   56.8440   30.4040   44.7580 N   0  0  0  0  0  0  0  0  0  0  0  0
   57.0770   29.4160   43.6940 C   0  0  0  0  0  0  0  0  0  0  0  0
   57.3370   31.7310   44.3290 C   0  0  0  0  0  0  0  0  0  0  0  0
   57.4420   32.7620   45.4700 C   0  0  0  0  0  0  0  0  0  0  0  0
   61.1710   33.3640   48.6220 C   0  0  0  0  0  0  0  0  0  0  0  0
   62.4360   33.1270   49.1650 C   0  0  0  0  0  0  0  0  0  0  0  0
   64.4492   33.5044   50.9449 H   0  0  0  0  0  0  0  0  0  0  0  0
   64.6915   31.7578   50.6026 H   0  0  0  0  0  0  0  0  0  0  0  0
   66.0970   32.8764   50.6026 H   0  0  0  0  0  0  0  0  0  0  0  0
   64.3482   33.7670   46.4020 H   0  0  0  0  0  0  0  0  0  0  0  0
   62.0886   34.1878   45.4346 H   0  0  0  0  0  0  0  0  0  0  0  0
   59.8478   31.6865   44.8841 H   0  0  0  0  0  0  0  0  0  0  0  0
   60.3926   31.5091   46.6329 H   0  0  0  0  0  0  0  0  0  0  0  0
   59.3440   29.4959   45.0878 H   0  0  0  0  0  0  0  0  0  0  0  0
   59.3661   29.5916   46.9171 H   0  0  0  0  0  0  0  0  0  0  0  0
   57.1573   28.9128   46.2172 H   0  0  0  0  0  0  0  0  0  0  0  0
   57.1001   30.6176   46.8316 H   0  0  0  0  0  0  0  0  0  0  0  0
   57.3073   28.4393   44.1446 H   0  0  0  0  0  0  0  0  0  0  0  0
   56.1748   29.3287   43.0708 H   0  0  0  0  0  0  0  0  0  0  0  0
   57.9231   29.7410   43.0708 H   0  0  0  0  0  0  0  0  0  0  0  0
   58.3359   31.6021   43.8868 H   0  0  0  0  0  0  0  0  0  0  0  0
   56.6026   32.1256   43.6114 H   0  0  0  0  0  0  0  0  0  0  0  0
   57.5275   33.7652   45.0269 H   0  0  0  0  0  0  0  0  0  0  0  0
   56.5380   32.6564   46.0877 H   0  0  0  0  0  0  0  0  0  0  0  0
   60.2745   33.2471   49.2486 H   0  0  0  0  0  0  0  0  0  0  0  0
   62.5293   32.8262   50.2190 H   0  0  0  0  0  0  0  0  0  0  0  0
  1  2  1  0
  2  3  1  0
  3  4  2  0
  4  5  1  0
  5  6  2  0
  6  7  1  0
  7  8  2  0
  7  9  2  0
  7 10  1  0
 10 11  1  0
 11 12  1  0
 12 13  1  0
 13 14  1  0
 14 15  1  0
 14 16  1  0
 16 17  1  0
  6 18  1  0
 18 19  2  0
 19  3  1  0
 17 10  1  0
  1 20  1  0
  1 21  1  0
  1 22  1  0
  4 23  1  0
  5 24  1  0
 11 25  1  0
 11 26  1  0
 12 27  1  0
 12 28  1  0
 13 29  1  0
 13 30  1  0
 15 31  1  0
 15 32  1  0
 15 33  1  0
 16 34  1  0
 16 35  1  0
 17 36  1  0
 17 37  1  0
 18 38  1  0
 19 39  1  0
M  END
>  <UniqueID>  (53) 
48

>  <SMILES>  (53) 
COc1ccc(S(=O)(=O)N2CCCN(C)CC2)cc1

>  <Energy>  (53) 
51.80276145703304

>  <Genealogy>  (53) 
COc1ccc(S(=O)(=O)N2CCCN(C)CC2)cc1 (3D coordinates assigned)
COc1ccc(S(=O)(=O)N2CCCN(C)CC2)cc1 (nonaromatic ring conformer: 51.80276145703304 kcal/mol)

>  <smiles>  (53) 
COc1ccc(S(=O)(=O)N2CCCN(C)CC2)cc1

>  <score_type>  (53) 
oracle

>  <origin>  (53) 
adg

>  <m_score__min__energy>  (53) 
-4.8399999999999999

>  <m_primary>  (53) 
energy

$$$$
53:0
     RDKit          3D

 38 40  0  0  0  0  0  0  0  0999 V2000
   55.8830   23.9020   47.2080 C   0  0  0  0  0  0  0  0  0  0  0  0
   55.7030   25.2210   46.7010 O   0  0  0  0  0  0  0  0  0  0  0  0
   56.5510   25.8320   45.7650 C   0  0  0  0  0  0  0  0  0  0  0  0
   56.9190   25.2070   44.5590 C   0  0  0  0  0  0  0  0  0  0  0  0
   57.7700   25.8590   43.6590 C   0  0  0  0  0  0  0  0  0  0  0  0
   58.2560   27.1340   43.9530 C   0  0  0  0  0  0  0  0  0  0  0  0
   57.8930   27.7680   45.1490 C   0  0  0  0  0  0  0  0  0  0  0  0
   58.3960   29.0820   45.4520 N   0  0  0  0  0  0  0  0  0  0  0  0
   59.6620   29.2440   45.9660 C   0  0  0  0  0  0  0  0  0  0  0  0
   60.5520   28.0550   46.2360 C   0  0  0  0  0  0  0  0  0  0  0  0
   60.1370   30.4960   46.2270 N   0  0  0  0  0  0  0  0  0  0  0  0
   59.3750   31.6020   46.0090 C   0  0  0  0  0  0  0  0  0  0  0  0
   59.8830   32.8810   46.2910 C   0  0  0  0  0  0  0  0  0  0  0  0
   59.1030   34.0230   46.0580 C   0  0  0  0  0  0  0  0  0  0  0  0
   59.6350   35.3830   46.4000 C   0  0  0  0  0  0  0  0  0  0  0  0
   57.7970   33.8790   45.5680 C   0  0  0  0  0  0  0  0  0  0  0  0
   57.2850   32.6110   45.2830 C   0  0  0  0  0  0  0  0  0  0  0  0
   58.0700   31.4640   45.4990 C   0  0  0  0  0  0  0  0  0  0  0  0
   57.5970   30.1720   45.2230 C   0  0  0  0  0  0  0  0  0  0  0  0
   56.4340   30.0160   44.7540 O   0  0  0  0  0  0  0  0  0  0  0  0
   57.0450   27.1100   46.0520 C   0  0  0  0  0  0  0  0  0  0  0  0
   55.8794   23.9282   48.3077 H   0  0  0  0  0  0  0  0  0  0  0  0
   55.0644   23.2582   46.8539 H   0  0  0  0  0  0  0  0  0  0  0  0
   56.8442   23.5011   46.8539 H   0  0  0  0  0  0  0  0  0  0  0  0
   56.5367   24.2030   44.3229 H   0  0  0  0  0  0  0  0  0  0  0  0
   58.0563   25.3657   42.7184 H   0  0  0  0  0  0  0  0  0  0  0  0
   58.9258   27.6426   43.2440 H   0  0  0  0  0  0  0  0  0  0  0  0
   60.6570   27.9147   47.3219 H   0  0  0  0  0  0  0  0  0  0  0  0
   60.1047   27.1537   45.7914 H   0  0  0  0  0  0  0  0  0  0  0  0
   61.5428   28.2302   45.7914 H   0  0  0  0  0  0  0  0  0  0  0  0
   61.1050   30.6090   46.6060 H   0  0  0  0  0  0  0  0  0  0  0  0
   60.8996   32.9875   46.6974 H   0  0  0  0  0  0  0  0  0  0  0  0
   59.6789   35.4952   47.4934 H   0  0  0  0  0  0  0  0  0  0  0  0
   60.6446   35.4984   45.9787 H   0  0  0  0  0  0  0  0  0  0  0  0
   58.9717   36.1528   45.9787 H   0  0  0  0  0  0  0  0  0  0  0  0
   57.1721   34.7698   45.4071 H   0  0  0  0  0  0  0  0  0  0  0  0
   56.2635   32.5090   44.8879 H   0  0  0  0  0  0  0  0  0  0  0  0
   56.7654   27.6030   46.9948 H   0  0  0  0  0  0  0  0  0  0  0  0
  1  2  1  0
  2  3  1  0
  3  4  2  0
  4  5  1  0
  5  6  2  0
  6  7  1  0
  7  8  1  0
  8  9  1  0
  9 10  1  0
  9 11  2  0
 11 12  1  0
 12 13  2  0
 13 14  1  0
 14 15  1  0
 14 16  2  0
 16 17  1  0
 17 18  2  0
 18 19  1  0
 19 20  2  0
  7 21  2  0
 21  3  1  0
 19  8  1  0
 18 12  1  0
  1 22  1  0
  1 23  1  0
  1 24  1  0
  4 25  1  0
  5 26  1  0
  6 27  1  0
 10 28  1  0
 10 29  1  0
 10 30  1  0
 11 31  1  0
 13 32  1  0
 15 33  1  0
 15 34  1  0
 15 35  1  0
 16 36  1  0
 17 37  1  0
 21 38  1  0
M  CHG  1  11   1
M  END
>  <UniqueID>  (54) 
49

>  <SMILES>  (54) 
COc1cccc(-n2c(C)[nH+]c3cc(C)ccc3c2=O)c1

>  <Energy>  (54) 
53.30229366611253

>  <Genealogy>  (54) 
COc1cccc(-n2c(C)[nH+]c3cc(C)ccc3c2=O)c1 (protonated)
COc1cccc(-n2c(C)[nH+]c3cc(C)ccc3c2=O)c1 (3D coordinates assigned)
COc1cccc(-n2c(C)[nH+]c3cc(C)ccc3c2=O)c1 (optimized conformer: 53.30229366611253 kcal/mol)

>  <smiles>  (54) 
COc1cccc(-n2c(C)nc3cc(C)ccc3c2=O)c1

>  <score_type>  (54) 
oracle

>  <origin>  (54) 
adg

>  <m_score__min__energy>  (54) 
-6.1699999999999999

>  <m_primary>  (54) 
energy

$$$$
54:0
     RDKit          3D

 39 41  0  0  0  0  0  0  0  0999 V2000
   58.3512   26.2213   43.8100 H   0  0  0  0  0  0  0  0  0  0  0  0
   57.7120   25.6620   44.5090 C   0  0  0  0  0  0  0  0  0  0  0  0
   57.1850   26.3390   45.5530 C   0  0  0  0  0  0  0  0  0  0  0  0
   55.9850   25.8130   46.2490 C   0  0  0  0  0  0  0  0  0  0  0  0
   56.0850   24.8900   47.1020 O   0  0  0  0  0  0  0  0  0  0  0  0
   54.7290   26.3370   45.9680 O   0  0  0  0  0  0  0  0  0  0  0  0
   57.8110   27.5780   46.0780 C   0  0  0  0  0  0  0  0  0  0  0  0
   57.9170   28.7220   45.2700 C   0  0  0  0  0  0  0  0  0  0  0  0
   57.5441   28.6978   44.2354 H   0  0  0  0  0  0  0  0  0  0  0  0
   58.4940   29.8910   45.7740 C   0  0  0  0  0  0  0  0  0  0  0  0
   58.5756   30.7807   45.1323 H   0  0  0  0  0  0  0  0  0  0  0  0
   58.9680   29.9370   47.0880 C   0  0  0  0  0  0  0  0  0  0  0  0
   59.5460   31.1270   47.5560 O   0  0  0  0  0  0  0  0  0  0  0  0
   59.4180   32.3840   46.9480 C   0  0  0  0  0  0  0  0  0  0  0  0
   58.1400   32.8400   46.6060 C   0  0  0  0  0  0  0  0  0  0  0  0
   57.2626   32.2071   46.8049 H   0  0  0  0  0  0  0  0  0  0  0  0
   57.9710   34.0950   46.0130 C   0  0  0  0  0  0  0  0  0  0  0  0
   56.9639   34.4418   45.7383 H   0  0  0  0  0  0  0  0  0  0  0  0
   59.0800   34.9090   45.7690 C   0  0  0  0  0  0  0  0  0  0  0  0
   58.9468   35.8932   45.2962 H   0  0  0  0  0  0  0  0  0  0  0  0
   60.3590   34.4720   46.1260 C   0  0  0  0  0  0  0  0  0  0  0  0
   61.2312   35.1160   45.9403 H   0  0  0  0  0  0  0  0  0  0  0  0
   60.5310   33.2170   46.7190 C   0  0  0  0  0  0  0  0  0  0  0  0
   61.5375   32.8796   47.0072 H   0  0  0  0  0  0  0  0  0  0  0  0
   58.8940   28.7820   47.8880 C   0  0  0  0  0  0  0  0  0  0  0  0
   59.2915   28.8001   48.9135 H   0  0  0  0  0  0  0  0  0  0  0  0
   58.3180   27.6120   47.3860 C   0  0  0  0  0  0  0  0  0  0  0  0
   58.2618   26.7140   48.0188 H   0  0  0  0  0  0  0  0  0  0  0  0
   57.4930   24.2230   44.2360 C   0  0  0  0  0  0  0  0  0  0  0  0
   58.2730   23.2280   44.8550 C   0  0  0  0  0  0  0  0  0  0  0  0
   59.0570   23.5133   45.5719 H   0  0  0  0  0  0  0  0  0  0  0  0
   58.0550   21.8790   44.5620 C   0  0  0  0  0  0  0  0  0  0  0  0
   58.6567   21.1047   45.0604 H   0  0  0  0  0  0  0  0  0  0  0  0
   57.0740   21.5120   43.6370 C   0  0  0  0  0  0  0  0  0  0  0  0
   56.8986   20.4493   43.4136 H   0  0  0  0  0  0  0  0  0  0  0  0
   56.3160   22.4950   42.9960 C   0  0  0  0  0  0  0  0  0  0  0  0
   55.5491   22.2059   42.2623 H   0  0  0  0  0  0  0  0  0  0  0  0
   56.5310   23.8460   43.2860 C   0  0  0  0  0  0  0  0  0  0  0  0
   55.9431   24.6173   42.7669 H   0  0  0  0  0  0  0  0  0  0  0  0
  1  2  1  0
  2  3  2  0
  3  4  1  0
  4  5  2  0
  4  6  1  0
  3  7  1  0
  7  8  2  0
  8  9  1  0
  8 10  1  0
 10 11  1  0
 10 12  2  0
 12 13  1  0
 13 14  1  0
 14 15  2  0
 15 16  1  0
 15 17  1  0
 17 18  1  0
 17 19  2  0
 19 20  1  0
 19 21  1  0
 21 22  1  0
 21 23  2  0
 23 24  1  0
 12 25  1  0
 25 26  1  0
 25 27  2  0
 27 28  1  0
  2 29  1  0
 29 30  2  0
 30 31  1  0
 30 32  1  0
 32 33  1  0
 32 34  2  0
 34 35  1  0
 34 36  1  0
 36 37  1  0
 36 38  2  0
 38 39  1  0
 27  7  1  0
 38 29  1  0
 23 14  1  0
M  CHG  1   6  -1
M  END
>  <UniqueID>  (55) 
50

>  <SMILES>  (55) 
O=C([O-])/C(=C/c1ccccc1)c1ccc(Oc2ccccc2)cc1

>  <Energy>  (55) 
59.9970952801221

>  <Genealogy>  (55) 
O=C([O-])C(=Cc1ccccc1)c1ccc(Oc2ccccc2)cc1 (protonated)
O=C([O-])/C(=C/c1ccccc1)c1ccc(Oc2ccccc2)cc1 (cis-trans isomerization)
O=C([O-])/C(=C/c1ccccc1)c1ccc(Oc2ccccc2)cc1 (3D coordinates assigned)
O=C([O-])/C(=C/c1ccccc1)c1ccc(Oc2ccccc2)cc1 (optimized conformer: 59.9970952801221 kcal/mol)

>  <smiles>  (55) 
O=C(O)C(=Cc1ccccc1)c1ccc(Oc2ccccc2)cc1

>  <score_type>  (55) 
oracle

>  <origin>  (55) 
adg

>  <m_score__min__energy>  (55) 
-11.35

>  <m_primary>  (55) 
energy

$$$$
55:0
     RDKit          3D

 58 62  0  0  0  0  0  0  0  0999 V2000
   59.7680   29.7350   49.8880 C   0  0  0  0  0  0  0  0  0  0  0  0
   59.6890   29.5290   48.4120 C   0  0  0  0  0  0  0  0  0  0  0  0
   59.1480   28.4810   47.8360 O   0  0  0  0  0  0  0  0  0  0  0  0
   59.2570   28.6500   46.5350 C   0  0  0  0  0  0  0  0  0  0  0  0
   58.7570   27.6900   45.5250 C   0  0  0  0  0  0  0  0  0  0  0  0
   58.9410   28.0060   44.1690 C   0  0  0  0  0  0  0  0  0  0  0  0
   58.4410   27.1750   43.1670 C   0  0  0  0  0  0  0  0  0  0  0  0
   57.7530   26.0110   43.4970 C   0  0  0  0  0  0  0  0  0  0  0  0
   57.5710   25.6560   44.8390 C   0  0  0  0  0  0  0  0  0  0  0  0
   56.8960   24.4670   45.1600 C   0  0  0  0  0  0  0  0  0  0  0  0
   56.7370   24.0870   46.4930 C   0  0  0  0  0  0  0  0  0  0  0  0
   57.2570   24.8800   47.5150 C   0  0  0  0  0  0  0  0  0  0  0  0
   57.9290   26.0670   47.2140 C   0  0  0  0  0  0  0  0  0  0  0  0
   58.0810   26.4880   45.8730 C   0  0  0  0  0  0  0  0  0  0  0  0
   59.8590   29.8190   46.2300 N   0  0  0  0  0  0  0  0  0  0  0  0
   60.1380   30.3800   47.4190 C   0  0  0  0  0  0  0  0  0  0  0  0
   60.8550   31.6880   47.5870 C   0  0  0  0  0  0  0  0  0  0  0  0
   59.9540   32.6850   48.2040 N   0  0  0  0  0  0  0  0  0  0  0  0
   58.5260   32.2800   48.1610 C   0  0  0  0  0  0  0  0  0  0  0  0
   57.7740   32.8210   46.9280 C   0  0  0  0  0  0  0  0  0  0  0  0
   58.7230   33.0840   45.8370 N   0  0  0  0  0  0  0  0  0  0  0  0
   58.0800   33.2750   44.5170 C   0  0  0  0  0  0  0  0  0  0  0  0
   57.3780   32.0410   43.9890 C   0  0  0  0  0  0  0  0  0  0  0  0
   57.4410   31.7150   42.6230 C   0  0  0  0  0  0  0  0  0  0  0  0
   56.7950   30.5740   42.1380 C   0  0  0  0  0  0  0  0  0  0  0  0
   56.0890   29.7430   43.0130 C   0  0  0  0  0  0  0  0  0  0  0  0
   56.0320   30.0490   44.3760 C   0  0  0  0  0  0  0  0  0  0  0  0
   55.3360   29.2190   45.2440 O   0  0  0  0  0  0  0  0  0  0  0  0
   56.6770   31.1900   44.8640 C   0  0  0  0  0  0  0  0  0  0  0  0
   59.6750   34.1570   46.1880 C   0  0  0  0  0  0  0  0  0  0  0  0
   60.1560   34.0390   47.6510 C   0  0  0  0  0  0  0  0  0  0  0  0
   59.4201   28.8279   50.4040 H   0  0  0  0  0  0  0  0  0  0  0  0
   60.8096   29.9429   50.1740 H   0  0  0  0  0  0  0  0  0  0  0  0
   59.1325   30.5861   50.1740 H   0  0  0  0  0  0  0  0  0  0  0  0
   59.4865   28.9207   43.8938 H   0  0  0  0  0  0  0  0  0  0  0  0
   58.5911   27.4408   42.1102 H   0  0  0  0  0  0  0  0  0  0  0  0
   57.3508   25.3677   42.7005 H   0  0  0  0  0  0  0  0  0  0  0  0
   56.4912   23.8329   44.3575 H   0  0  0  0  0  0  0  0  0  0  0  0
   56.1998   23.1590   46.7383 H   0  0  0  0  0  0  0  0  0  0  0  0
   57.1375   24.5694   48.5635 H   0  0  0  0  0  0  0  0  0  0  0  0
   58.3438   26.6798   48.0279 H   0  0  0  0  0  0  0  0  0  0  0  0
   60.0810   30.1990   45.2820 H   0  0  0  0  0  0  0  0  0  0  0  0
   61.7328   31.5414   48.2335 H   0  0  0  0  0  0  0  0  0  0  0  0
   61.1744   32.0532   46.5998 H   0  0  0  0  0  0  0  0  0  0  0  0
   58.4753   31.1813   48.1463 H   0  0  0  0  0  0  0  0  0  0  0  0
   58.0401   32.7062   49.0511 H   0  0  0  0  0  0  0  0  0  0  0  0
   57.0347   32.0769   46.5965 H   0  0  0  0  0  0  0  0  0  0  0  0
   57.2645   33.7579   47.1977 H   0  0  0  0  0  0  0  0  0  0  0  0
   57.3387   34.0827   44.6070 H   0  0  0  0  0  0  0  0  0  0  0  0
   58.8826   33.5141   43.8038 H   0  0  0  0  0  0  0  0  0  0  0  0
   58.0018   32.3614   41.9318 H   0  0  0  0  0  0  0  0  0  0  0  0
   56.8422   30.3297   41.0665 H   0  0  0  0  0  0  0  0  0  0  0  0
   55.5780   28.8478   42.6288 H   0  0  0  0  0  0  0  0  0  0  0  0
   56.6362   31.4238   45.9381 H   0  0  0  0  0  0  0  0  0  0  0  0
   60.5466   34.0926   45.5200 H   0  0  0  0  0  0  0  0  0  0  0  0
   59.1605   35.1225   46.0734 H   0  0  0  0  0  0  0  0  0  0  0  0
   61.2285   34.2800   47.6905 H   0  0  0  0  0  0  0  0  0  0  0  0
   59.5621   34.7397   48.2562 H   0  0  0  0  0  0  0  0  0  0  0  0
  1  2  1  0
  2  3  1  0
  3  4  1  0
  4  5  1  0
  5  6  2  0
  6  7  1  0
  7  8  2  0
  8  9  1  0
  9 10  2  0
 10 11  1  0
 11 12  2  0
 12 13  1  0
 13 14  2  0
  4 15  2  0
 15 16  1  0
 16 17  1  0
 17 18  1  0
 18 19  1  0
 19 20  1  0
 20 21  1  0
 21 22  1  0
 22 23  1  0
 23 24  2  0
 24 25  1  0
 25 26  2  0
 26 27  1  0
 27 28  1  0
 27 29  2  0
 21 30  1  0
 30 31  1  0
 16  2  2  0
 31 18  1  0
 14  5  1  0
 29 23  1  0
 14  9  1  0
  1 32  1  0
  1 33  1  0
  1 34  1  0
  6 35  1  0
  7 36  1  0
  8 37  1  0
 10 38  1  0
 11 39  1  0
 12 40  1  0
 13 41  1  0
 15 42  1  0
 17 43  1  0
 17 44  1  0
 19 45  1  0
 19 46  1  0
 20 47  1  0
 20 48  1  0
 22 49  1  0
 22 50  1  0
 24 51  1  0
 25 52  1  0
 26 53  1  0
 29 54  1  0
 30 55  1  0
 30 56  1  0
 31 57  1  0
 31 58  1  0
M  CHG  2  15   1  28  -1
M  END
>  <UniqueID>  (56) 
51

>  <SMILES>  (56) 
Cc1oc(-c2cccc3ccccc23)[nH+]c1CN1CCN(Cc2cccc([O-])c2)CC1

>  <Energy>  (56) 
115.62358616514143

>  <Genealogy>  (56) 
Cc1oc(-c2cccc3ccccc23)[nH+]c1CN1CCN(Cc2cccc([O-])c2)CC1 (protonated)
Cc1oc(-c2cccc3ccccc23)[nH+]c1CN1CCN(Cc2cccc([O-])c2)CC1 (3D coordinates assigned)
Cc1oc(-c2cccc3ccccc23)[nH+]c1CN1CCN(Cc2cccc([O-])c2)CC1 (nonaromatic ring conformer: 115.62358616514143 kcal/mol)

>  <smiles>  (56) 
Cc1oc(-c2cccc3ccccc23)nc1CN1CCN(Cc2cccc(O)c2)CC1

>  <score_type>  (56) 
oracle

>  <origin>  (56) 
adg

>  <m_score__min__energy>  (56) 
-12.65

>  <m_primary>  (56) 
energy

$$$$
56:0
     RDKit          3D

 24 25  0  0  0  0  0  0  0  0999 V2000
   57.0370   21.7950   46.2680 C   0  0  0  0  0  0  0  0  0  0  0  0
   57.5270   22.9020   47.0180 O   0  0  0  0  0  0  0  0  0  0  0  0
   57.4590   24.2380   46.5960 C   0  0  0  0  0  0  0  0  0  0  0  0
   56.2000   24.8370   46.4960 C   0  0  0  0  0  0  0  0  0  0  0  0
   56.0650   26.1660   46.0830 C   0  0  0  0  0  0  0  0  0  0  0  0
   54.7900   26.7140   46.0010 O   0  0  0  0  0  0  0  0  0  0  0  0
   57.2130   26.9240   45.7590 C   0  0  0  0  0  0  0  0  0  0  0  0
   57.1580   28.2680   45.3340 C   0  0  0  0  0  0  0  0  0  0  0  0
   56.0590   28.8760   45.2200 O   0  0  0  0  0  0  0  0  0  0  0  0
   58.3410   28.9420   45.0340 C   0  0  0  0  0  0  0  0  0  0  0  0
   59.5610   28.2700   45.1600 C   0  0  0  0  0  0  0  0  0  0  0  0
   60.8430   28.9730   44.8440 C   0  0  0  0  0  0  0  0  0  0  0  0
   59.5890   27.0040   45.5620 O   0  0  0  0  0  0  0  0  0  0  0  0
   58.4880   26.3180   45.8600 C   0  0  0  0  0  0  0  0  0  0  0  0
   58.6050   24.9870   46.2750 C   0  0  0  0  0  0  0  0  0  0  0  0
   56.6898   21.0105   46.9565 H   0  0  0  0  0  0  0  0  0  0  0  0
   56.2001   22.1232   45.6341 H   0  0  0  0  0  0  0  0  0  0  0  0
   57.8427   21.3962   45.6341 H   0  0  0  0  0  0  0  0  0  0  0  0
   55.3015   24.2538   46.7461 H   0  0  0  0  0  0  0  0  0  0  0  0
   58.3151   29.9904   44.7020 H   0  0  0  0  0  0  0  0  0  0  0  0
   61.3493   29.2507   45.7802 H   0  0  0  0  0  0  0  0  0  0  0  0
   61.4930   28.3051   44.2597 H   0  0  0  0  0  0  0  0  0  0  0  0
   60.6294   29.8802   44.2597 H   0  0  0  0  0  0  0  0  0  0  0  0
   59.5997   24.5235   46.3507 H   0  0  0  0  0  0  0  0  0  0  0  0
  1  2  1  0
  2  3  1  0
  3  4  2  0
  4  5  1  0
  5  6  1  0
  5  7  2  0
  7  8  1  0
  8  9  2  0
  8 10  1  0
 10 11  2  0
 11 12  1  0
 11 13  1  0
 13 14  1  0
 14 15  2  0
 15  3  1  0
 14  7  1  0
  1 16  1  0
  1 17  1  0
  1 18  1  0
  4 19  1  0
 10 20  1  0
 12 21  1  0
 12 22  1  0
 12 23  1  0
 15 24  1  0
M  CHG  1   6  -1
M  END
>  <UniqueID>  (57) 
52

>  <SMILES>  (57) 
COc1cc([O-])c2c(=O)cc(C)oc2c1

>  <Energy>  (57) 
29.308092617394294

>  <Genealogy>  (57) 
COc1cc([O-])c2c(=O)cc(C)oc2c1 (protonated)
COc1cc([O-])c2c(=O)cc(C)oc2c1 (3D coordinates assigned)
COc1cc([O-])c2c(=O)cc(C)oc2c1 (optimized conformer: 29.308092617394294 kcal/mol)

>  <smiles>  (57) 
COc1cc(O)c2c(=O)cc(C)oc2c1

>  <score_type>  (57) 
oracle

>  <origin>  (57) 
adg

>  <m_score__min__energy>  (57) 
-9.4900000000000002

>  <m_primary>  (57) 
energy

$$$$
57:0
     RDKit          3D

 25 26  0  0  0  0  0  0  0  0999 V2000
   55.1470   27.4660   45.9960 H   0  0  0  0  0  0  0  0  0  0  0  0
   55.0860   26.4240   45.9740 N   0  0  0  0  0  0  0  0  0  0  0  0
   56.1330   25.6160   46.5090 C   0  0  0  0  0  0  0  0  0  0  0  0
   55.8260   24.5640   47.1350 O   0  0  0  0  0  0  0  0  0  0  0  0
   57.5680   25.9810   46.3260 C   0  0  0  0  0  0  0  0  0  0  0  0
   58.5440   24.9750   46.4640 C   0  0  0  0  0  0  0  0  0  0  0  0
   58.2346   23.9473   46.7052 H   0  0  0  0  0  0  0  0  0  0  0  0
   59.8620   25.2580   46.3030 N   0  0  0  0  0  0  0  0  0  0  0  0
   60.2920   26.5100   46.0120 C   0  0  0  0  0  0  0  0  0  0  0  0
   61.3676   26.7057   45.8900 H   0  0  0  0  0  0  0  0  0  0  0  0
   59.3770   27.5490   45.8670 C   0  0  0  0  0  0  0  0  0  0  0  0
   59.7309   28.5659   45.6417 H   0  0  0  0  0  0  0  0  0  0  0  0
   57.9950   27.2980   46.0090 C   0  0  0  0  0  0  0  0  0  0  0  0
   57.1140   28.2590   45.9090 N   0  0  0  0  0  0  0  0  0  0  0  0
   57.1710   29.4290   45.0800 C   0  0  0  0  0  0  0  0  0  0  0  0
   57.8770   30.5760   45.4850 C   0  0  0  0  0  0  0  0  0  0  0  0
   58.3579   30.6035   46.4739 H   0  0  0  0  0  0  0  0  0  0  0  0
   57.9690   31.6810   44.6340 C   0  0  0  0  0  0  0  0  0  0  0  0
   58.5063   32.5833   44.9615 H   0  0  0  0  0  0  0  0  0  0  0  0
   57.3790   31.6410   43.3670 C   0  0  0  0  0  0  0  0  0  0  0  0
   57.4453   32.5141   42.7012 H   0  0  0  0  0  0  0  0  0  0  0  0
   56.7050   30.4910   42.9470 C   0  0  0  0  0  0  0  0  0  0  0  0
   56.2464   30.4571   41.9478 H   0  0  0  0  0  0  0  0  0  0  0  0
   56.6130   29.3830   43.7960 C   0  0  0  0  0  0  0  0  0  0  0  0
   56.1004   28.4719   43.4539 H   0  0  0  0  0  0  0  0  0  0  0  0
  1  2  1  0
  2  3  1  0
  3  4  2  0
  3  5  1  0
  5  6  2  0
  6  7  1  0
  6  8  1  0
  8  9  1  0
  9 10  1  0
  9 11  2  0
 11 12  1  0
 11 13  1  0
 13 14  2  0
 14 15  1  0
 15 16  2  0
 16 17  1  0
 16 18  1  0
 18 19  1  0
 18 20  2  0
 20 21  1  0
 20 22  1  0
 22 23  1  0
 22 24  2  0
 24 25  1  0
 13  5  1  0
 24 15  1  0
M  CHG  2   2  -1   8  -1
M  END
>  <UniqueID>  (58) 
53

>  <SMILES>  (58) 
[NH-]C(=O)c1c[n-]cc/c1=N\c1ccccc1

>  <Energy>  (58) 
39.816523210987064

>  <Genealogy>  (58) 
[NH-]C(=O)c1c[n-]ccc1=Nc1ccccc1 (protonated)
[NH-]C(=O)c1c[n-]cc/c1=N\c1ccccc1 (cis-trans isomerization)
[NH-]C(=O)c1c[n-]cc/c1=N\c1ccccc1 (3D coordinates assigned)
[NH-]C(=O)c1c[n-]cc/c1=N\c1ccccc1 (optimized conformer: 39.816523210987064 kcal/mol)

>  <smiles>  (58) 
NC(=O)c1c[nH]ccc1=Nc1ccccc1

>  <score_type>  (58) 
oracle

>  <origin>  (58) 
adg

>  <m_score__min__energy>  (58) 
-10.49

>  <m_primary>  (58) 
energy

$$$$
58:0
     RDKit          3D

 30 31  0  0  0  0  0  0  0  0999 V2000
   60.8137   29.8630   44.9558 H   0  0  0  0  0  0  0  0  0  0  0  0
   60.1130   29.9620   45.7980 C   0  0  0  0  0  0  0  0  0  0  0  0
   60.3800   30.8090   46.7440 N   0  0  0  0  0  0  0  0  0  0  0  0
   59.9370   32.1750   46.7670 C   0  0  0  0  0  0  0  0  0  0  0  0
   58.5570   32.4200   46.7570 C   0  0  0  0  0  0  0  0  0  0  0  0
   57.8539   31.5745   46.7292 H   0  0  0  0  0  0  0  0  0  0  0  0
   58.0660   33.7270   46.7820 C   0  0  0  0  0  0  0  0  0  0  0  0
   56.9811   33.9069   46.7575 H   0  0  0  0  0  0  0  0  0  0  0  0
   58.9500   34.8050   46.8380 C   0  0  0  0  0  0  0  0  0  0  0  0
   58.5616   35.8341   46.8451 H   0  0  0  0  0  0  0  0  0  0  0  0
   60.3270   34.5790   46.8850 C   0  0  0  0  0  0  0  0  0  0  0  0
   61.0197   35.4316   46.9419 H   0  0  0  0  0  0  0  0  0  0  0  0
   60.8320   33.2700   46.8600 C   0  0  0  0  0  0  0  0  0  0  0  0
   62.2550   33.0810   47.0060 C   0  0  0  0  0  0  0  0  0  0  0  0
   63.3970   32.9310   47.1220 N   0  0  0  0  0  0  0  0  0  0  0  0
   58.8920   29.1250   45.8200 C   0  0  0  0  0  0  0  0  0  0  0  0
   58.8800   28.0180   46.6860 C   0  0  0  0  0  0  0  0  0  0  0  0
   59.7568   27.8151   47.3185 H   0  0  0  0  0  0  0  0  0  0  0  0
   57.7710   27.1720   46.7550 C   0  0  0  0  0  0  0  0  0  0  0  0
   57.7841   26.3061   47.4333 H   0  0  0  0  0  0  0  0  0  0  0  0
   56.6390   27.4220   45.9620 C   0  0  0  0  0  0  0  0  0  0  0  0
   55.5010   26.6020   45.9930 O   0  0  0  0  0  0  0  0  0  0  0  0
   55.5010   25.2160   45.6630 C   0  0  0  0  0  0  0  0  0  0  0  0
   56.5381   24.8593   45.5781 H   0  0  0  0  0  0  0  0  0  0  0  0
   54.9825   24.6513   46.4518 H   0  0  0  0  0  0  0  0  0  0  0  0
   54.9825   25.0673   44.7043 H   0  0  0  0  0  0  0  0  0  0  0  0
   56.6360   28.5300   45.1090 C   0  0  0  0  0  0  0  0  0  0  0  0
   55.7504   28.7323   44.4887 H   0  0  0  0  0  0  0  0  0  0  0  0
   57.7420   29.3870   45.0310 C   0  0  0  0  0  0  0  0  0  0  0  0
   57.5630   30.9130   43.8780 Br  0  0  0  0  0  0  0  0  0  0  0  0
  1  2  1  0
  2  3  2  0
  3  4  1  0
  4  5  2  0
  5  6  1  0
  5  7  1  0
  7  8  1  0
  7  9  2  0
  9 10  1  0
  9 11  1  0
 11 12  1  0
 11 13  2  0
 13 14  1  0
 14 15  3  0
  2 16  1  0
 16 17  2  0
 17 18  1  0
 17 19  1  0
 19 20  1  0
 19 21  2  0
 21 22  1  0
 22 23  1  0
 23 24  1  0
 23 25  1  0
 23 26  1  0
 21 27  1  0
 27 28  1  0
 27 29  2  0
 29 30  1  0
 13  4  1  0
 29 16  1  0
M  END
>  <UniqueID>  (59) 
54

>  <SMILES>  (59) 
COc1ccc(/C=N/c2ccccc2C#N)c(Br)c1

>  <Energy>  (59) 
39.98103928686315

>  <Genealogy>  (59) 
COc1ccc(/C=N/c2ccccc2C#N)c(Br)c1 (cis-trans isomerization)
COc1ccc(/C=N/c2ccccc2C#N)c(Br)c1 (3D coordinates assigned)
COc1ccc(/C=N/c2ccccc2C#N)c(Br)c1 (optimized conformer: 39.98103928686315 kcal/mol)

>  <smiles>  (59) 
COc1ccc(C=Nc2ccccc2C#N)c(Br)c1

>  <score_type>  (59) 
oracle

>  <origin>  (59) 
adg

>  <m_score__min__energy>  (59) 
-7.0599999999999996

>  <m_primary>  (59) 
energy

$$$$
59:0
     RDKit          3D

 39 41  0  0  0  0  0  0  0  0999 V2000
   59.4110   33.6540   47.6370 C   0  0  0  0  0  0  0  0  0  0  0  0
   60.7740   33.0140   47.5860 C   0  0  0  0  0  0  0  0  0  0  0  0
   61.8860   33.7490   48.0250 C   0  0  0  0  0  0  0  0  0  0  0  0
   63.1580   33.1840   47.9720 C   0  0  0  0  0  0  0  0  0  0  0  0
   63.3220   31.9210   47.5060 N   0  0  0  0  0  0  0  0  0  0  0  0
   62.2710   31.1710   47.0820 C   0  0  0  0  0  0  0  0  0  0  0  0
   60.9640   31.6900   47.1140 C   0  0  0  0  0  0  0  0  0  0  0  0
   59.8270   30.8380   46.6830 C   0  0  0  0  0  0  0  0  0  0  0  0
   58.7030   31.3950   46.0550 C   0  0  0  0  0  0  0  0  0  0  0  0
   57.6550   30.5630   45.6630 C   0  0  0  0  0  0  0  0  0  0  0  0
   56.6470   31.0700   45.1010 O   0  0  0  0  0  0  0  0  0  0  0  0
   57.7420   29.1770   45.9020 C   0  0  0  0  0  0  0  0  0  0  0  0
   56.7280   28.2620   45.5380 C   0  0  0  0  0  0  0  0  0  0  0  0
   55.5630   28.6860   44.9060 O   0  0  0  0  0  0  0  0  0  0  0  0
   56.8850   26.9010   45.8150 C   0  0  0  0  0  0  0  0  0  0  0  0
   58.0330   26.4210   46.4520 C   0  0  0  0  0  0  0  0  0  0  0  0
   58.1210   25.0420   46.7050 O   0  0  0  0  0  0  0  0  0  0  0  0
   58.9450   24.1170   45.9950 C   0  0  0  0  0  0  0  0  0  0  0  0
   58.1200   23.2210   45.0590 C   0  0  0  0  0  0  0  0  0  0  0  0
   57.3650   24.0160   43.9850 C   0  0  0  0  0  0  0  0  0  0  0  0
   55.9630   22.9630   43.1530 Br  0  0  0  0  0  0  0  0  0  0  0  0
   59.0480   27.3260   46.8090 C   0  0  0  0  0  0  0  0  0  0  0  0
   58.9080   28.6920   46.5410 C   0  0  0  0  0  0  0  0  0  0  0  0
   59.8800   29.5260   46.8940 O   0  0  0  0  0  0  0  0  0  0  0  0
   59.1111   33.7948   48.6859 H   0  0  0  0  0  0  0  0  0  0  0  0
   59.4451   34.6302   47.1312 H   0  0  0  0  0  0  0  0  0  0  0  0
   58.6817   33.0042   47.1312 H   0  0  0  0  0  0  0  0  0  0  0  0
   61.7531   34.7706   48.4107 H   0  0  0  0  0  0  0  0  0  0  0  0
   64.0307   33.7630   48.3085 H   0  0  0  0  0  0  0  0  0  0  0  0
   62.4437   30.1500   46.7109 H   0  0  0  0  0  0  0  0  0  0  0  0
   58.6489   32.4786   45.8734 H   0  0  0  0  0  0  0  0  0  0  0  0
   56.0917   26.1956   45.5268 H   0  0  0  0  0  0  0  0  0  0  0  0
   59.6771   24.6789   45.3964 H   0  0  0  0  0  0  0  0  0  0  0  0
   59.4479   23.4721   46.7307 H   0  0  0  0  0  0  0  0  0  0  0  0
   58.7996   22.5144   44.5601 H   0  0  0  0  0  0  0  0  0  0  0  0
   57.3703   22.7020   45.6742 H   0  0  0  0  0  0  0  0  0  0  0  0
   56.9130   24.9035   44.4520 H   0  0  0  0  0  0  0  0  0  0  0  0
   58.0852   24.3010   43.2039 H   0  0  0  0  0  0  0  0  0  0  0  0
   59.9591   26.9572   47.3028 H   0  0  0  0  0  0  0  0  0  0  0  0
  1  2  1  0
  2  3  2  0
  3  4  1  0
  4  5  2  0
  5  6  1  0
  6  7  2  0
  7  8  1  0
  8  9  2  0
  9 10  1  0
 10 11  2  0
 10 12  1  0
 12 13  2  0
 13 14  1  0
 13 15  1  0
 15 16  2  0
 16 17  1  0
 17 18  1  0
 18 19  1  0
 19 20  1  0
 20 21  1  0
 16 22  1  0
 22 23  2  0
 23 24  1  0
  7  2  1  0
 24  8  1  0
 23 12  1  0
  1 25  1  0
  1 26  1  0
  1 27  1  0
  3 28  1  0
  4 29  1  0
  6 30  1  0
  9 31  1  0
 15 32  1  0
 18 33  1  0
 18 34  1  0
 19 35  1  0
 19 36  1  0
 20 37  1  0
 20 38  1  0
 22 39  1  0
M  CHG  1  14  -1
M  END
>  <UniqueID>  (60) 
55

>  <SMILES>  (60) 
Cc1ccncc1-c1cc(=O)c2c([O-])cc(OCCCBr)cc2o1

>  <Energy>  (60) 
51.204409254606404

>  <Genealogy>  (60) 
Cc1ccncc1-c1cc(=O)c2c([O-])cc(OCCCBr)cc2o1 (protonated)
Cc1ccncc1-c1cc(=O)c2c([O-])cc(OCCCBr)cc2o1 (3D coordinates assigned)
Cc1ccncc1-c1cc(=O)c2c([O-])cc(OCCCBr)cc2o1 (optimized conformer: 51.204409254606404 kcal/mol)

>  <smiles>  (60) 
Cc1ccncc1-c1cc(=O)c2c(O)cc(OCCCBr)cc2o1

>  <score_type>  (60) 
oracle

>  <origin>  (60) 
adg

>  <m_score__min__energy>  (60) 
-10.16

>  <m_primary>  (60) 
energy

$$$$
60:0
     RDKit          3D

 29 30  0  0  0  0  0  0  0  0999 V2000
   59.8346   36.4140   45.8959 H   0  0  0  0  0  0  0  0  0  0  0  0
   59.5600   35.3620   46.0630 C   0  0  0  0  0  0  0  0  0  0  0  0
   58.9050   34.6440   45.0590 C   0  0  0  0  0  0  0  0  0  0  0  0
   58.6647   35.1309   44.1023 H   0  0  0  0  0  0  0  0  0  0  0  0
   58.5550   33.3070   45.2700 C   0  0  0  0  0  0  0  0  0  0  0  0
   58.0457   32.7401   44.4768 H   0  0  0  0  0  0  0  0  0  0  0  0
   58.8530   32.6890   46.4920 C   0  0  0  0  0  0  0  0  0  0  0  0
   58.3940   30.9720   46.7670 S   0  0  0  0  0  0  0  0  0  0  0  0
   58.0200   30.6230   45.0130 C   0  0  0  0  0  0  0  0  0  0  0  0
   58.9526   30.3664   44.4891 H   0  0  0  0  0  0  0  0  0  0  0  0
   57.5636   31.5175   44.5639 H   0  0  0  0  0  0  0  0  0  0  0  0
   57.0600   29.4820   44.8940 C   0  0  0  0  0  0  0  0  0  0  0  0
   55.8220   29.7160   44.8670 O   0  0  0  0  0  0  0  0  0  0  0  0
   57.5680   28.1410   44.8370 N   0  0  0  0  0  0  0  0  0  0  0  0
   57.0450   27.0750   45.3750 C   0  0  0  0  0  0  0  0  0  0  0  0
   57.6270   25.8250   45.5230 C   0  0  0  0  0  0  0  0  0  0  0  0
   58.6212   25.4890   45.1935 H   0  0  0  0  0  0  0  0  0  0  0  0
   56.6500   25.1040   46.1870 C   0  0  0  0  0  0  0  0  0  0  0  0
   56.7560   23.6820   46.6240 C   0  0  0  0  0  0  0  0  0  0  0  0
   56.7595   23.6354   47.7230 H   0  0  0  0  0  0  0  0  0  0  0  0
   55.8977   23.1141   46.2357 H   0  0  0  0  0  0  0  0  0  0  0  0
   57.6890   23.2476   46.2357 H   0  0  0  0  0  0  0  0  0  0  0  0
   55.6080   25.8760   46.4030 O   0  0  0  0  0  0  0  0  0  0  0  0
   55.8190   27.0650   45.9260 N   0  0  0  0  0  0  0  0  0  0  0  0
   55.1450   27.8610   45.9790 H   0  0  0  0  0  0  0  0  0  0  0  0
   59.5150   33.4080   47.4940 C   0  0  0  0  0  0  0  0  0  0  0  0
   59.7586   32.9216   48.4501 H   0  0  0  0  0  0  0  0  0  0  0  0
   59.8670   34.7450   47.2800 C   0  0  0  0  0  0  0  0  0  0  0  0
   60.3850   35.3107   48.0685 H   0  0  0  0  0  0  0  0  0  0  0  0
  1  2  1  0
  2  3  2  0
  3  4  1  0
  3  5  1  0
  5  6  1  0
  5  7  2  0
  7  8  1  0
  8  9  1  0
  9 10  1  0
  9 11  1  0
  9 12  1  0
 12 13  2  0
 12 14  1  0
 14 15  2  0
 15 16  1  0
 16 17  1  0
 16 18  2  0
 18 19  1  0
 19 20  1  0
 19 21  1  0
 19 22  1  0
 18 23  1  0
 23 24  1  0
 24 25  1  0
  7 26  1  0
 26 27  1  0
 26 28  2  0
 28 29  1  0
 28  2  1  0
 24 15  1  0
M  END
>  <UniqueID>  (61) 
56

>  <SMILES>  (61) 
Cc1c/c(=N\C(=O)CSc2ccccc2)[nH]o1

>  <Energy>  (61) 
58.126157860382314

>  <Genealogy>  (61) 
Cc1c/c(=N\C(=O)CSc2ccccc2)[nH]o1 (cis-trans isomerization)
Cc1c/c(=N\C(=O)CSc2ccccc2)[nH]o1 (3D coordinates assigned)
Cc1c/c(=N\C(=O)CSc2ccccc2)[nH]o1 (optimized conformer: 58.126157860382314 kcal/mol)

>  <smiles>  (61) 
Cc1cc(=NC(=O)CSc2ccccc2)[nH]o1

>  <score_type>  (61) 
oracle

>  <origin>  (61) 
adg

>  <m_score__min__energy>  (61) 
-7.79

>  <m_primary>  (61) 
energy

$$$$
61:0
     RDKit          3D

 40 43  0  0  0  0  0  0  0  0999 V2000
   56.5760   33.5540   45.1470 O   0  0  0  0  0  0  0  0  0  0  0  0
   57.6660   32.9270   45.0380 C   0  0  0  0  0  0  0  0  0  0  0  0
   57.8100   31.8890   43.9530 C   0  0  0  0  0  0  0  0  0  0  0  0
   57.3450   30.5390   44.4160 C   0  0  0  0  0  0  0  0  0  0  0  0
   56.0710   30.0020   44.2520 C   0  0  0  0  0  0  0  0  0  0  0  0
   55.9860   28.7960   44.8570 N   0  0  0  0  0  0  0  0  0  0  0  0
   57.1900   28.5730   45.4130 C   0  0  0  0  0  0  0  0  0  0  0  0
   57.5820   27.4650   46.1640 C   0  0  0  0  0  0  0  0  0  0  0  0
   58.8930   27.4470   46.6730 C   0  0  0  0  0  0  0  0  0  0  0  0
   59.7720   28.5250   46.4260 C   0  0  0  0  0  0  0  0  0  0  0  0
   59.3480   29.6310   45.6670 C   0  0  0  0  0  0  0  0  0  0  0  0
   58.0450   29.6180   45.1700 C   0  0  0  0  0  0  0  0  0  0  0  0
   58.7280   33.1830   45.9830 N   0  0  0  0  0  0  0  0  0  0  0  0
   59.8280   34.1000   45.6330 C   0  0  0  0  0  0  0  0  0  0  0  0
   61.1150   33.7440   46.3780 C   0  0  0  0  0  0  0  0  0  0  0  0
   60.8470   33.6570   47.8500 C   0  0  0  0  0  0  0  0  0  0  0  0
   61.8050   34.0920   48.7800 C   0  0  0  0  0  0  0  0  0  0  0  0
   61.5590   33.9720   50.1490 C   0  0  0  0  0  0  0  0  0  0  0  0
   60.3650   33.4030   50.5980 C   0  0  0  0  0  0  0  0  0  0  0  0
   59.4140   32.9530   49.6780 C   0  0  0  0  0  0  0  0  0  0  0  0
   59.6450   33.0860   48.2980 C   0  0  0  0  0  0  0  0  0  0  0  0
   58.6400   32.5450   47.3110 C   0  0  0  0  0  0  0  0  0  0  0  0
   57.2091   32.1950   43.0839 H   0  0  0  0  0  0  0  0  0  0  0  0
   58.8747   31.8141   43.6870 H   0  0  0  0  0  0  0  0  0  0  0  0
   55.2495   30.4901   43.7071 H   0  0  0  0  0  0  0  0  0  0  0  0
   55.1480   28.1740   44.8960 H   0  0  0  0  0  0  0  0  0  0  0  0
   56.8883   26.6323   46.3521 H   0  0  0  0  0  0  0  0  0  0  0  0
   59.2363   26.5876   47.2676 H   0  0  0  0  0  0  0  0  0  0  0  0
   60.7949   28.4994   46.8299 H   0  0  0  0  0  0  0  0  0  0  0  0
   60.0220   30.4782   45.4720 H   0  0  0  0  0  0  0  0  0  0  0  0
   60.0133   34.0386   44.5505 H   0  0  0  0  0  0  0  0  0  0  0  0
   59.5325   35.1190   45.9234 H   0  0  0  0  0  0  0  0  0  0  0  0
   61.4883   32.7741   46.0176 H   0  0  0  0  0  0  0  0  0  0  0  0
   61.8674   34.5249   46.1932 H   0  0  0  0  0  0  0  0  0  0  0  0
   62.7517   34.5284   48.4289 H   0  0  0  0  0  0  0  0  0  0  0  0
   62.3061   34.3259   50.8747 H   0  0  0  0  0  0  0  0  0  0  0  0
   60.1730   33.3090   51.6770 H   0  0  0  0  0  0  0  0  0  0  0  0
   58.4810   32.4929   50.0354 H   0  0  0  0  0  0  0  0  0  0  0  0
   58.8129   31.4652   47.1923 H   0  0  0  0  0  0  0  0  0  0  0  0
   57.6388   32.7614   47.7120 H   0  0  0  0  0  0  0  0  0  0  0  0
  1  2  2  0
  2  3  1  0
  3  4  1  0
  4  5  2  0
  5  6  1  0
  6  7  1  0
  7  8  2  0
  8  9  1  0
  9 10  2  0
 10 11  1  0
 11 12  2  0
  2 13  1  0
 13 14  1  0
 14 15  1  0
 15 16  1  0
 16 17  2  0
 17 18  1  0
 18 19  2  0
 19 20  1  0
 20 21  2  0
 21 22  1  0
 12  4  1  0
 22 13  1  0
 12  7  1  0
 21 16  1  0
  3 23  1  0
  3 24  1  0
  5 25  1  0
  6 26  1  0
  8 27  1  0
  9 28  1  0
 10 29  1  0
 11 30  1  0
 14 31  1  0
 14 32  1  0
 15 33  1  0
 15 34  1  0
 17 35  1  0
 18 36  1  0
 19 37  1  0
 20 38  1  0
 22 39  1  0
 22 40  1  0
M  END
>  <UniqueID>  (62) 
57

>  <SMILES>  (62) 
O=C(Cc1c[nH]c2ccccc12)N1CCc2ccccc2C1

>  <Energy>  (62) 
78.85817518835343

>  <Genealogy>  (62) 
O=C(Cc1c[nH]c2ccccc12)N1CCc2ccccc2C1 (3D coordinates assigned)
O=C(Cc1c[nH]c2ccccc12)N1CCc2ccccc2C1 (nonaromatic ring conformer: 78.85817518835343 kcal/mol)

>  <smiles>  (62) 
O=C(Cc1c[nH]c2ccccc12)N1CCc2ccccc2C1

>  <score_type>  (62) 
oracle

>  <origin>  (62) 
adg

>  <m_score__min__energy>  (62) 
-8.8200000000000003

>  <m_primary>  (62) 
energy

$$$$
62:0
     RDKit          3D

 35 37  0  0  0  0  0  0  0  0999 V2000
   55.7490   28.4560   44.1440 H   0  0  0  0  0  0  0  0  0  0  0  0
   55.5440   29.4340   44.4490 N   0  0  0  0  0  0  0  0  0  0  0  0
   56.3450   30.4100   44.1750 C   0  0  0  0  0  0  0  0  0  0  0  0
   56.5490   30.7740   42.8840 N   0  0  0  0  0  0  0  0  0  0  0  0
   57.3940   31.7950   42.5890 C   0  0  0  0  0  0  0  0  0  0  0  0
   57.6370   32.1770   41.1670 C   0  0  0  0  0  0  0  0  0  0  0  0
   58.2271   33.1047   41.1322 H   0  0  0  0  0  0  0  0  0  0  0  0
   58.1893   31.3719   40.6603 H   0  0  0  0  0  0  0  0  0  0  0  0
   56.6737   32.3360   40.6603 H   0  0  0  0  0  0  0  0  0  0  0  0
   58.0490   32.4400   43.5880 N   0  0  0  0  0  0  0  0  0  0  0  0
   57.8300   32.0960   44.8830 C   0  0  0  0  0  0  0  0  0  0  0  0
   58.5370   32.8030   45.9690 C   0  0  0  0  0  0  0  0  0  0  0  0
   58.8270   34.1620   45.7640 C   0  0  0  0  0  0  0  0  0  0  0  0
   58.6929   34.6030   44.7652 H   0  0  0  0  0  0  0  0  0  0  0  0
   59.2830   34.9570   46.8140 C   0  0  0  0  0  0  0  0  0  0  0  0
   59.5175   36.0187   46.6471 H   0  0  0  0  0  0  0  0  0  0  0  0
   59.4380   34.3920   48.0750 C   0  0  0  0  0  0  0  0  0  0  0  0
   59.7529   35.0182   48.9227 H   0  0  0  0  0  0  0  0  0  0  0  0
   59.2010   33.0680   48.2610 N   0  0  0  0  0  0  0  0  0  0  0  0
   58.7970   32.2410   47.2580 C   0  0  0  0  0  0  0  0  0  0  0  0
   58.6980   30.9680   47.5430 N   0  0  0  0  0  0  0  0  0  0  0  0
   59.0350   29.8270   46.7410 C   0  0  0  0  0  0  0  0  0  0  0  0
   60.2300   29.7830   46.0080 C   0  0  0  0  0  0  0  0  0  0  0  0
   60.9218   30.6379   46.0333 H   0  0  0  0  0  0  0  0  0  0  0  0
   60.5340   28.6860   45.2670 N   0  0  0  0  0  0  0  0  0  0  0  0
   59.7190   27.5980   45.2300 C   0  0  0  0  0  0  0  0  0  0  0  0
   59.9830   26.7357   44.6001 H   0  0  0  0  0  0  0  0  0  0  0  0
   58.5430   27.5730   45.9930 C   0  0  0  0  0  0  0  0  0  0  0  0
   57.6230   26.3910   45.9330 C   0  0  0  0  0  0  0  0  0  0  0  0
   57.3725   26.0691   46.9546 H   0  0  0  0  0  0  0  0  0  0  0  0
   56.7020   26.6699   45.4002 H   0  0  0  0  0  0  0  0  0  0  0  0
   58.1195   25.5666   45.4002 H   0  0  0  0  0  0  0  0  0  0  0  0
   58.2080   28.7000   46.7550 C   0  0  0  0  0  0  0  0  0  0  0  0
   57.2928   28.6980   47.3652 H   0  0  0  0  0  0  0  0  0  0  0  0
   56.9890   31.0690   45.1730 N   0  0  0  0  0  0  0  0  0  0  0  0
  1  2  1  0
  2  3  2  0
  3  4  1  0
  4  5  2  0
  5  6  1  0
  6  7  1  0
  6  8  1  0
  6  9  1  0
  5 10  1  0
 10 11  2  0
 11 12  1  0
 12 13  2  0
 13 14  1  0
 13 15  1  0
 15 16  1  0
 15 17  2  0
 17 18  1  0
 17 19  1  0
 19 20  1  0
 20 21  2  0
 21 22  1  0
 22 23  2  0
 23 24  1  0
 23 25  1  0
 25 26  2  0
 26 27  1  0
 26 28  1  0
 28 29  1  0
 29 30  1  0
 29 31  1  0
 29 32  1  0
 28 33  2  0
 33 34  1  0
 11 35  1  0
 35  3  1  0
 20 12  1  0
 33 22  1  0
M  CHG  2  19  -1  35  -1
M  END
>  <UniqueID>  (63) 
58

>  <SMILES>  (63) 
[H]/N=c1/nc(C)nc(-c2ccc[n-]/c2=N/c2cncc(C)c2)[n-]1

>  <Energy>  (63) 
56.02112629044147

>  <Genealogy>  (63) 
Cc1cncc(N=c2[n-]cccc2-c2nc(C)nc(=N)[n-]2)c1 (protonated)
[H]/N=c1/nc(C)nc(-c2ccc[n-]/c2=N/c2cncc(C)c2)[n-]1 (cis-trans isomerization)
[H]/N=c1/nc(C)nc(-c2ccc[n-]/c2=N/c2cncc(C)c2)[n-]1 (3D coordinates assigned)
[H]/N=c1/nc(C)nc(-c2ccc[n-]/c2=N/c2cncc(C)c2)[n-]1 (optimized conformer: 56.02112629044147 kcal/mol)

>  <smiles>  (63) 
Cc1cncc(N=c2[nH]cccc2-c2nc(C)nc(=N)[nH]2)c1

>  <score_type>  (63) 
oracle

>  <origin>  (63) 
adg

>  <m_score__min__energy>  (63) 
-10.35

>  <m_primary>  (63) 
energy

$$$$
63:0
     RDKit          3D

 37 39  0  0  1  0  0  0  0  0999 V2000
   58.3750   24.1760   46.0530 F   0  0  0  0  0  0  0  0  0  0  0  0
   57.5260   25.0630   46.6870 C   0  0  0  0  0  0  0  0  0  0  0  0
   56.2570   24.8140   46.2020 F   0  0  0  0  0  0  0  0  0  0  0  0
   57.5910   24.8130   48.0290 F   0  0  0  0  0  0  0  0  0  0  0  0
   57.9550   26.4560   46.3540 C   0  0  0  0  0  0  0  0  0  0  0  0
   59.3130   26.7480   46.4770 C   0  0  0  0  0  0  0  0  0  0  0  0
   59.7850   28.0220   46.1850 C   0  0  0  0  0  0  0  0  0  0  0  0
   60.3860   33.8280   45.7190 C   0  0  0  0  0  0  0  0  0  0  0  0
   57.5170   28.6830   45.6500 C   0  0  0  0  0  0  0  0  0  0  0  0
   58.2520   33.8980   44.6480 N   0  0  0  0  0  0  0  0  0  0  0  0
   57.8570   32.8080   44.0910 C   0  0  0  0  0  0  0  0  0  0  0  0
   57.0010   30.4610   43.0470 C   0  0  0  0  0  0  0  0  0  0  0  0
   57.4210   31.5060   42.2570 C   0  0  0  0  0  0  0  0  0  0  0  0
   57.8500   32.6790   42.7610 N   0  0  0  0  0  0  0  0  0  0  0  0
   57.0320   30.6580   44.4130 C   0  0  0  0  0  0  0  0  0  0  0  0
   56.6570   29.7340   45.2190 N   0  0  0  0  0  0  0  0  0  0  0  0
   59.0210   33.9180   45.8420 C   0  0  0  0  0  0  0  0  0  0  0  0
   58.4870   34.0190   47.0990 C   0  0  0  0  0  0  0  0  0  0  0  0
   59.3080   34.0320   48.2320 C   0  0  0  0  0  0  0  0  0  0  0  0
   60.6800   33.9410   48.0940 C   0  0  0  0  0  0  0  0  0  0  0  0
   61.2070   33.8400   46.8210 C   0  0  0  0  0  0  0  0  0  0  0  0
   62.9470   33.7240   46.6360 Cl  0  0  0  0  0  0  0  0  0  0  0  0
   58.8700   28.9710   45.7750 C   0  0  0  0  0  0  0  0  0  0  0  0
   57.4560   31.8170   44.9110 N   0  0  0  0  0  0  0  0  0  0  0  0
   57.0440   27.4220   45.9390 C   0  0  0  0  0  0  0  0  0  0  0  0
   60.0136   25.9666   46.8066 H   0  0  0  0  0  0  0  0  0  0  0  0
   60.8535   28.2665   46.2776 H   0  0  0  0  0  0  0  0  0  0  0  0
   60.8317   33.7445   44.7168 H   0  0  0  0  0  0  0  0  0  0  0  0
   56.6563   29.5121   42.6103 H   0  0  0  0  0  0  0  0  0  0  0  0
   57.4058   31.3778   41.1646 H   0  0  0  0  0  0  0  0  0  0  0  0
   58.1710   33.4800   42.1720 H   0  0  0  0  0  0  0  0  0  0  0  0
   57.3960   34.0910   47.2198 H   0  0  0  0  0  0  0  0  0  0  0  0
   58.8608   34.1147   49.2336 H   0  0  0  0  0  0  0  0  0  0  0  0
   61.3366   33.9488   48.9765 H   0  0  0  0  0  0  0  0  0  0  0  0
   59.2232   29.9860   45.5402 H   0  0  0  0  0  0  0  0  0  0  0  0
   57.4750   31.9550   45.9640 H   0  0  0  0  0  0  0  0  0  0  0  0
   55.9740   27.1850   45.8441 H   0  0  0  0  0  0  0  0  0  0  0  0
  1  2  1  0
  2  3  1  0
  2  4  1  0
  2  5  1  0
  5  6  2  0
  6  7  1  0
  7  8  2  0
  8  9  1  0
  9 10  1  0
 10 11  2  0
 11 12  1  0
 12 13  2  0
 13 14  1  0
 14 15  1  0
 15 16  2  0
 16 17  1  0
 17 18  2  0
 18 19  1  0
 19 20  2  0
 20 21  1  0
 21 22  1  0
 21 23  2  0
 15 24  1  0
  9 25  2  0
 25  5  1  0
 24 11  1  0
 23 17  1  0
  6 26  1  0
  7 27  1  0
  8 28  1  0
 12 29  1  0
 13 30  1  0
 14 31  1  0
 18 32  1  0
 19 33  1  0
 20 34  1  0
 23 35  1  0
 24 36  1  0
 25 37  1  0
M  END
>  <smiles>  (64) 
FC(F)(F)c1cccc(N=c2cc[nH]c(=Nc3cccc(Cl)c3)[nH]2)c1

>  <score_type>  (64) 
oracle

>  <origin>  (64) 
adg

>  <m_score__min__energy>  (64) 
-8.0700000000000003

>  <m_primary>  (64) 
energy

$$$$
64:0
     RDKit          3D

 40 42  0  0  0  0  0  0  0  0999 V2000
   56.3040   30.7900   44.5200 O   0  0  0  0  0  0  0  0  0  0  0  0
   57.4960   30.8880   44.9230 C   0  0  0  0  0  0  0  0  0  0  0  0
   58.0900   32.1650   45.1110 N   0  0  0  0  0  0  0  0  0  0  0  0
   57.3480   33.3850   44.8460 C   0  0  0  0  0  0  0  0  0  0  0  0
   58.2590   34.5930   44.8730 C   0  0  0  0  0  0  0  0  0  0  0  0
   59.0970   34.5650   46.1020 C   0  0  0  0  0  0  0  0  0  0  0  0
   58.8360   35.1790   47.2640 N   0  0  0  0  0  0  0  0  0  0  0  0
   59.7950   34.9450   48.1530 N   0  0  0  0  0  0  0  0  0  0  0  0
   60.7060   34.1540   47.5500 C   0  0  0  0  0  0  0  0  0  0  0  0
   61.9220   33.6700   48.2030 C   0  0  0  0  0  0  0  0  0  0  0  0
   62.9860   33.3280   47.4010 C   0  0  0  0  0  0  0  0  0  0  0  0
   64.1530   32.8650   48.0180 C   0  0  0  0  0  0  0  0  0  0  0  0
   64.2200   32.7590   49.4010 C   0  0  0  0  0  0  0  0  0  0  0  0
   65.6940   32.1740   50.1760 Cl  0  0  0  0  0  0  0  0  0  0  0  0
   63.1390   33.1060   50.1990 C   0  0  0  0  0  0  0  0  0  0  0  0
   61.9820   33.5670   49.5780 C   0  0  0  0  0  0  0  0  0  0  0  0
   60.2800   33.9190   46.2890 N   0  0  0  0  0  0  0  0  0  0  0  0
   58.2020   29.6380   45.1760 C   0  0  0  0  0  0  0  0  0  0  0  0
   58.9460   29.5220   46.3170 C   0  0  0  0  0  0  0  0  0  0  0  0
   59.6450   28.3480   46.6140 C   0  0  0  0  0  0  0  0  0  0  0  0
   59.5930   27.2700   45.7430 C   0  0  0  0  0  0  0  0  0  0  0  0
   60.3090   26.0810   46.0560 N   0  0  0  0  0  0  0  0  0  0  0  0
   61.5210   26.1820   46.3600 O   0  0  0  0  0  0  0  0  0  0  0  0
   59.6870   24.8360   46.0280 O   0  0  0  0  0  0  0  0  0  0  0  0
   58.8450   27.3850   44.5920 C   0  0  0  0  0  0  0  0  0  0  0  0
   58.1630   28.5570   44.3220 C   0  0  0  0  0  0  0  0  0  0  0  0
   59.0660   32.2430   45.4410 H   0  0  0  0  0  0  0  0  0  0  0  0
   56.8780   33.3115   43.8542 H   0  0  0  0  0  0  0  0  0  0  0  0
   56.5837   33.5061   45.6278 H   0  0  0  0  0  0  0  0  0  0  0  0
   58.9102   34.5791   43.9866 H   0  0  0  0  0  0  0  0  0  0  0  0
   57.6487   35.5082   44.8704 H   0  0  0  0  0  0  0  0  0  0  0  0
   59.7850   35.3310   49.1230 H   0  0  0  0  0  0  0  0  0  0  0  0
   62.9211   33.4160   46.3065 H   0  0  0  0  0  0  0  0  0  0  0  0
   65.0217   32.5836   47.4047 H   0  0  0  0  0  0  0  0  0  0  0  0
   63.1952   33.0189   51.2941 H   0  0  0  0  0  0  0  0  0  0  0  0
   61.1106   33.8508   50.1863 H   0  0  0  0  0  0  0  0  0  0  0  0
   58.9958   30.3699   47.0160 H   0  0  0  0  0  0  0  0  0  0  0  0
   60.2364   28.2794   47.5389 H   0  0  0  0  0  0  0  0  0  0  0  0
   58.7902   26.5429   43.8864 H   0  0  0  0  0  0  0  0  0  0  0  0
   57.5713   28.6288   43.3975 H   0  0  0  0  0  0  0  0  0  0  0  0
  1  2  2  0
  2  3  1  0
  3  4  1  0
  4  5  1  0
  5  6  1  0
  6  7  2  0
  7  8  1  0
  8  9  1  0
  9 10  1  0
 10 11  2  0
 11 12  1  0
 12 13  2  0
 13 14  1  0
 13 15  1  0
 15 16  2  0
  9 17  2  0
  2 18  1  0
 18 19  2  0
 19 20  1  0
 20 21  2  0
 21 22  1  0
 22 23  2  0
 22 24  1  0
 21 25  1  0
 25 26  2  0
 17  6  1  0
 26 18  1  0
 16 10  1  0
  3 27  1  0
  4 28  1  0
  4 29  1  0
  5 30  1  0
  5 31  1  0
  8 32  1  0
 11 33  1  0
 12 34  1  0
 15 35  1  0
 16 36  1  0
 19 37  1  0
 20 38  1  0
 25 39  1  0
 26 40  1  0
M  CHG  2  22   1  24  -1
M  END
>  <smiles>  (65) 
O=C(NCCc1n[nH]c(-c2ccc(Cl)cc2)n1)c1ccc([N+](=O)[O-])cc1

>  <score_type>  (65) 
oracle

>  <origin>  (65) 
adg

>  <m_score__min__energy>  (65) 
-8.1600000000000001

>  <m_primary>  (65) 
energy

$$$$
65:0
     RDKit          3D

 43 44  0  0  0  0  0  0  0  0999 V2000
   57.4000   32.8380   44.7760 C   0  0  0  0  0  0  0  0  0  0  0  0
   56.6750   31.6420   44.5100 O   0  0  0  0  0  0  0  0  0  0  0  0
   57.1630   30.3500   44.7510 C   0  0  0  0  0  0  0  0  0  0  0  0
   58.5160   30.0930   44.4920 C   0  0  0  0  0  0  0  0  0  0  0  0
   59.0560   28.8220   44.7130 C   0  0  0  0  0  0  0  0  0  0  0  0
   58.2430   27.7900   45.1980 C   0  0  0  0  0  0  0  0  0  0  0  0
   58.7560   26.5090   45.4300 C   0  0  0  0  0  0  0  0  0  0  0  0
   57.9190   25.4900   45.9050 C   0  0  0  0  0  0  0  0  0  0  0  0
   58.4620   24.1390   46.1590 C   0  0  0  0  0  0  0  0  0  0  0  0
   59.6910   23.9320   45.9870 O   0  0  0  0  0  0  0  0  0  0  0  0
   57.6350   23.0550   46.6040 N   0  0  0  0  0  0  0  0  0  0  0  0
   57.4520   21.7720   45.9230 C   0  0  1  0  0  0  0  0  0  0  0  0
   57.0830   20.6970   46.9560 C   0  0  0  0  0  0  0  0  0  0  0  0
   57.3700   21.1360   48.2570 O   0  0  0  0  0  0  0  0  0  0  0  0
   56.4440   21.8840   44.7420 C   0  0  0  0  0  0  0  0  0  0  0  0
   56.0660   23.2670   44.3450 N   0  0  0  0  0  0  0  0  0  0  0  0
   56.6450   23.6580   43.0450 C   0  0  0  0  0  0  0  0  0  0  0  0
   54.5960   23.3680   44.2740 C   0  0  0  0  0  0  0  0  0  0  0  0
   56.5690   25.7890   46.1710 C   0  0  0  0  0  0  0  0  0  0  0  0
   55.7890   24.9020   46.6090 O   0  0  0  0  0  0  0  0  0  0  0  0
   56.0910   27.0420   45.9420 N   0  0  0  0  0  0  0  0  0  0  0  0
   56.8810   28.0390   45.4640 C   0  0  0  0  0  0  0  0  0  0  0  0
   56.3450   29.3130   45.2400 C   0  0  0  0  0  0  0  0  0  0  0  0
   57.4863   32.9803   45.8633 H   0  0  0  0  0  0  0  0  0  0  0  0
   58.4050   32.7633   44.3351 H   0  0  0  0  0  0  0  0  0  0  0  0
   56.8689   33.6945   44.3351 H   0  0  0  0  0  0  0  0  0  0  0  0
   59.1600   30.8993   44.1109 H   0  0  0  0  0  0  0  0  0  0  0  0
   60.1196   28.6329   44.5058 H   0  0  0  0  0  0  0  0  0  0  0  0
   59.8192   26.3011   45.2391 H   0  0  0  0  0  0  0  0  0  0  0  0
   58.3977   21.4641   45.4530 H   0  0  0  0  0  0  0  0  0  0  0  0
   56.0080   20.4767   46.8788 H   0  0  0  0  0  0  0  0  0  0  0  0
   57.6752   19.7931   46.7506 H   0  0  0  0  0  0  0  0  0  0  0  0
   57.7660   22.0430   48.1760 H   0  0  0  0  0  0  0  0  0  0  0  0
   56.8931   21.3920   43.8666 H   0  0  0  0  0  0  0  0  0  0  0  0
   55.5163   21.4091   45.0938 H   0  0  0  0  0  0  0  0  0  0  0  0
   56.3810   23.9500   45.0710 H   0  0  0  0  0  0  0  0  0  0  0  0
   57.5459   24.2664   43.2130 H   0  0  0  0  0  0  0  0  0  0  0  0
   56.9130   22.7552   42.4765 H   0  0  0  0  0  0  0  0  0  0  0  0
   55.9077   24.2438   42.4765 H   0  0  0  0  0  0  0  0  0  0  0  0
   54.1808   23.3965   45.2922 H   0  0  0  0  0  0  0  0  0  0  0  0
   54.3171   24.2874   43.7384 H   0  0  0  0  0  0  0  0  0  0  0  0
   54.1940   22.4954   43.7384 H   0  0  0  0  0  0  0  0  0  0  0  0
   55.2817   29.5045   45.4466 H   0  0  0  0  0  0  0  0  0  0  0  0
  1  2  1  0
  2  3  1  0
  3  4  2  0
  4  5  1  0
  5  6  2  0
  6  7  1  0
  7  8  2  0
  8  9  1  0
  9 10  2  0
  9 11  1  0
 11 12  1  0
 12 13  1  0
 13 14  1  0
 12 15  1  0
 15 16  1  0
 16 17  1  0
 16 18  1  0
  8 19  1  0
 19 20  2  0
 19 21  1  0
 21 22  1  0
 22 23  2  0
 23  3  1  0
 22  6  1  0
  1 24  1  0
  1 25  1  0
  1 26  1  0
  4 27  1  0
  5 28  1  0
  7 29  1  0
 12 30  1  6
 13 31  1  0
 13 32  1  0
 14 33  1  0
 15 34  1  0
 15 35  1  0
 16 36  1  0
 17 37  1  0
 17 38  1  0
 17 39  1  0
 18 40  1  0
 18 41  1  0
 18 42  1  0
 23 43  1  0
M  CHG  3  11  -1  16   1  21  -1
M  END
>  <UniqueID>  (66) 
59

>  <SMILES>  (66) 
COc1ccc2cc(C(=O)[N-][C@@H](CO)C[NH+](C)C)c(=O)[n-]c2c1

>  <Energy>  (66) 
51.81799356096651

>  <Genealogy>  (66) 
COc1ccc2cc(C(=O)[N-]C(CO)C[NH+](C)C)c(=O)[n-]c2c1 (protonated)
COc1ccc2cc(C(=O)[N-][C@@H](CO)C[NH+](C)C)c(=O)[n-]c2c1 (chirality)
COc1ccc2cc(C(=O)[N-][C@@H](CO)C[NH+](C)C)c(=O)[n-]c2c1 (3D coordinates assigned)
COc1ccc2cc(C(=O)[N-][C@@H](CO)C[NH+](C)C)c(=O)[n-]c2c1 (optimized conformer: 51.81799356096651 kcal/mol)

>  <smiles>  (66) 
COc1ccc2cc(C(=O)NC(CO)CN(C)C)c(=O)[nH]c2c1

>  <score_type>  (66) 
oracle

>  <origin>  (66) 
adg

>  <m_score__min__energy>  (66) 
-8.1500000000000004

>  <m_primary>  (66) 
energy

$$$$
66:0
     RDKit          3D

 39 41  0  0  0  0  0  0  0  0999 V2000
   58.4940   32.1250   49.6370 C   0  0  0  0  0  0  0  0  0  0  0  0
   59.3330   31.7670   48.4060 C   0  0  1  0  0  0  0  0  0  0  0  0
   58.9730   30.4350   47.9070 N   0  0  0  0  0  0  0  0  0  0  0  0
   59.9040   29.6150   47.1870 C   0  0  0  0  0  0  0  0  0  0  0  0
   61.0780   30.0220   46.9720 O   0  0  0  0  0  0  0  0  0  0  0  0
   59.5040   28.2470   46.7280 C   0  0  0  0  0  0  0  0  0  0  0  0
   58.2230   28.3230   45.9530 C   0  0  0  0  0  0  0  0  0  0  0  0
   57.1030   27.5180   46.1350 C   0  0  0  0  0  0  0  0  0  0  0  0
   56.0970   27.9180   45.3220 N   0  0  0  0  0  0  0  0  0  0  0  0
   56.5700   28.9760   44.6390 C   0  0  0  0  0  0  0  0  0  0  0  0
   55.8890   29.7410   43.6930 C   0  0  0  0  0  0  0  0  0  0  0  0
   56.5730   30.8230   43.1080 C   0  0  0  0  0  0  0  0  0  0  0  0
   57.9050   31.1130   43.4780 C   0  0  0  0  0  0  0  0  0  0  0  0
   58.5660   30.3240   44.4380 C   0  0  0  0  0  0  0  0  0  0  0  0
   57.8630   29.2570   45.0000 C   0  0  0  0  0  0  0  0  0  0  0  0
   59.1440   32.8070   47.3230 C   0  0  0  0  0  0  0  0  0  0  0  0
   57.9470   32.8660   46.5850 C   0  0  0  0  0  0  0  0  0  0  0  0
   57.7750   33.8400   45.5960 C   0  0  0  0  0  0  0  0  0  0  0  0
   58.7900   34.7650   45.3410 C   0  0  0  0  0  0  0  0  0  0  0  0
   59.9780   34.7200   46.0740 C   0  0  0  0  0  0  0  0  0  0  0  0
   60.1550   33.7480   47.0630 C   0  0  0  0  0  0  0  0  0  0  0  0
   59.0596   31.8837   50.5490 H   0  0  0  0  0  0  0  0  0  0  0  0
   58.2625   33.2003   49.6229 H   0  0  0  0  0  0  0  0  0  0  0  0
   57.5575   31.5481   49.6229 H   0  0  0  0  0  0  0  0  0  0  0  0
   60.3936   31.7519   48.6975 H   0  0  0  0  0  0  0  0  0  0  0  0
   58.0110   30.0640   48.0780 H   0  0  0  0  0  0  0  0  0  0  0  0
   60.2948   27.8321   46.0857 H   0  0  0  0  0  0  0  0  0  0  0  0
   59.3588   27.5989   47.6049 H   0  0  0  0  0  0  0  0  0  0  0  0
   57.0433   26.6756   46.8398 H   0  0  0  0  0  0  0  0  0  0  0  0
   55.1450   27.4980   45.2550 H   0  0  0  0  0  0  0  0  0  0  0  0
   54.8513   29.5066   43.4131 H   0  0  0  0  0  0  0  0  0  0  0  0
   56.0666   31.4474   42.3572 H   0  0  0  0  0  0  0  0  0  0  0  0
   58.4291   31.9609   43.0129 H   0  0  0  0  0  0  0  0  0  0  0  0
   59.6025   30.5411   44.7356 H   0  0  0  0  0  0  0  0  0  0  0  0
   57.1431   32.1428   46.7869 H   0  0  0  0  0  0  0  0  0  0  0  0
   56.8395   33.8775   45.0185 H   0  0  0  0  0  0  0  0  0  0  0  0
   58.6536   35.5297   44.5621 H   0  0  0  0  0  0  0  0  0  0  0  0
   60.7755   35.4504   45.8728 H   0  0  0  0  0  0  0  0  0  0  0  0
   61.0906   33.7195   47.6408 H   0  0  0  0  0  0  0  0  0  0  0  0
  1  2  1  0
  2  3  1  0
  3  4  1  0
  4  5  2  0
  4  6  1  0
  6  7  1  0
  7  8  2  0
  8  9  1  0
  9 10  1  0
 10 11  2  0
 11 12  1  0
 12 13  2  0
 13 14  1  0
 14 15  2  0
  2 16  1  0
 16 17  2  0
 17 18  1  0
 18 19  2  0
 19 20  1  0
 20 21  2  0
 15  7  1  0
 21 16  1  0
 15 10  1  0
  1 22  1  0
  1 23  1  0
  1 24  1  0
  2 25  1  1
  3 26  1  0
  6 27  1  0
  6 28  1  0
  8 29  1  0
  9 30  1  0
 11 31  1  0
 12 32  1  0
 13 33  1  0
 14 34  1  0
 17 35  1  0
 18 36  1  0
 19 37  1  0
 20 38  1  0
 21 39  1  0
M  END
>  <UniqueID>  (67) 
60

>  <SMILES>  (67) 
C[C@@H](NC(=O)Cc1c[nH]c2ccccc12)c1ccccc1

>  <Energy>  (67) 
67.56430589282026

>  <Genealogy>  (67) 
C[C@@H](NC(=O)Cc1c[nH]c2ccccc12)c1ccccc1 (chirality)
C[C@@H](NC(=O)Cc1c[nH]c2ccccc12)c1ccccc1 (3D coordinates assigned)
C[C@@H](NC(=O)Cc1c[nH]c2ccccc12)c1ccccc1 (optimized conformer: 67.56430589282026 kcal/mol)

>  <smiles>  (67) 
CC(NC(=O)Cc1c[nH]c2ccccc12)c1ccccc1

>  <score_type>  (67) 
oracle

>  <origin>  (67) 
adg

>  <m_score__min__energy>  (67) 
-8.4100000000000001

>  <m_primary>  (67) 
energy

$$$$
67:0
     RDKit          3D

 16 16  0  0  0  0  0  0  0  0999 V2000
   57.8457   23.2844   44.7886 H   0  0  0  0  0  0  0  0  0  0  0  0
   57.4340   24.3040   44.8200 C   0  0  0  0  0  0  0  0  0  0  0  0
   57.3823   24.9049   43.9001 H   0  0  0  0  0  0  0  0  0  0  0  0
   56.9980   24.8110   45.9720 C   0  0  0  0  0  0  0  0  0  0  0  0
   57.0588   24.1932   46.8801 H   0  0  0  0  0  0  0  0  0  0  0  0
   56.4350   26.1750   46.0740 C   0  0  0  0  0  0  0  0  0  0  0  0
   55.1900   26.3470   45.9890 O   0  0  0  0  0  0  0  0  0  0  0  0
   57.2830   27.3280   46.1700 N   0  0  0  0  0  0  0  0  0  0  0  0
   57.1300   28.4600   45.5480 C   0  0  0  0  0  0  0  0  0  0  0  0
   58.2470   29.7240   45.4670 S   0  0  0  0  0  0  0  0  0  0  0  0
   57.2160   30.7220   44.5860 C   0  0  0  0  0  0  0  0  0  0  0  0
   57.4485   31.7360   44.2284 H   0  0  0  0  0  0  0  0  0  0  0  0
   56.0190   30.0410   44.3890 C   0  0  0  0  0  0  0  0  0  0  0  0
   55.1723   30.4776   43.8390 H   0  0  0  0  0  0  0  0  0  0  0  0
   55.9770   28.7940   44.9290 N   0  0  0  0  0  0  0  0  0  0  0  0
   55.1410   28.1690   44.8710 H   0  0  0  0  0  0  0  0  0  0  0  0
  1  2  1  0
  2  3  1  0
  2  4  2  0
  4  5  1  0
  4  6  1  0
  6  7  2  0
  6  8  1  0
  8  9  2  0
  9 10  1  0
 10 11  1  0
 11 12  1  0
 11 13  2  0
 13 14  1  0
 13 15  1  0
 15 16  1  0
 15  9  1  0
M  END
>  <UniqueID>  (68) 
61

>  <SMILES>  (68) 
C=CC(=O)/N=c1/[nH]ccs1

>  <Energy>  (68) 
48.963967615884805

>  <Genealogy>  (68) 
C=CC(=O)/N=c1/[nH]ccs1 (cis-trans isomerization)
C=CC(=O)/N=c1/[nH]ccs1 (3D coordinates assigned)
C=CC(=O)/N=c1/[nH]ccs1 (optimized conformer: 48.963967615884805 kcal/mol)

>  <smiles>  (68) 
C=CC(=O)N=c1[nH]ccs1

>  <score_type>  (68) 
oracle

>  <origin>  (68) 
adg

>  <m_score__min__energy>  (68) 
-4.6799999999999997

>  <m_primary>  (68) 
energy

$$$$
68:0
     RDKit          3D

 57 61  0  0  0  0  0  0  0  0999 V2000
   57.9350   22.8230   44.8650 C   0  0  0  0  0  0  0  0  0  0  0  0
   57.4540   22.8530   46.2790 C   0  0  0  0  0  0  0  0  0  0  0  0
   57.3580   21.7820   47.0320 O   0  0  0  0  0  0  0  0  0  0  0  0
   56.9520   22.0820   48.2330 N   0  0  0  0  0  0  0  0  0  0  0  0
   56.7680   23.4150   48.2700 C   0  0  0  0  0  0  0  0  0  0  0  0
   57.0600   23.9480   47.0310 C   0  0  0  0  0  0  0  0  0  0  0  0
   57.0090   25.3800   46.6720 C   0  0  0  0  0  0  0  0  0  0  0  0
   55.8940   25.8880   46.3810 O   0  0  0  0  0  0  0  0  0  0  0  0
   58.2030   26.1830   46.6420 N   0  0  0  0  0  0  0  0  0  0  0  0
   58.2130   27.5920   46.3650 C   0  0  0  0  0  0  0  0  0  0  0  0
   57.7540   28.1020   45.1420 C   0  0  0  0  0  0  0  0  0  0  0  0
   57.8010   29.4740   44.8840 C   0  0  0  0  0  0  0  0  0  0  0  0
   58.3180   30.3660   45.8450 C   0  0  0  0  0  0  0  0  0  0  0  0
   58.3640   31.7550   45.6280 O   0  0  0  0  0  0  0  0  0  0  0  0
   57.8550   32.4370   44.4830 C   0  0  0  0  0  0  0  0  0  0  0  0
   57.1550   33.7360   44.8970 C   0  0  0  0  0  0  0  0  0  0  0  0
   58.0640   34.5910   45.6840 N   0  0  0  0  0  0  0  0  0  0  0  0
   58.1430   34.1890   47.0970 C   0  0  0  0  0  0  0  0  0  0  0  0
   59.5510   34.5100   47.5840 C   0  0  0  0  0  0  0  0  0  0  0  0
   60.3400   34.8840   46.3410 C   0  0  0  0  0  0  0  0  0  0  0  0
   59.4360   34.5170   45.1810 C   0  0  0  0  0  0  0  0  0  0  0  0
   58.8040   29.8530   47.0650 C   0  0  0  0  0  0  0  0  0  0  0  0
   59.3840   30.7540   48.0850 C   0  0  0  0  0  0  0  0  0  0  0  0
   58.6680   31.1810   49.2060 C   0  0  0  0  0  0  0  0  0  0  0  0
   59.6320   32.2280   50.1170 S   0  0  0  0  0  0  0  0  0  0  0  0
   60.9630   32.1400   49.1010 C   0  0  0  0  0  0  0  0  0  0  0  0
   62.1940   32.7740   49.2460 C   0  0  0  0  0  0  0  0  0  0  0  0
   63.1810   32.5380   48.2780 C   0  0  0  0  0  0  0  0  0  0  0  0
   62.9230   31.6740   47.1970 C   0  0  0  0  0  0  0  0  0  0  0  0
   61.6730   31.0430   47.0720 C   0  0  0  0  0  0  0  0  0  0  0  0
   60.6840   31.2960   48.0350 C   0  0  0  0  0  0  0  0  0  0  0  0
   58.7600   28.4710   47.3080 C   0  0  0  0  0  0  0  0  0  0  0  0
   59.0328   22.7545   44.8525 H   0  0  0  0  0  0  0  0  0  0  0  0
   57.5073   21.9498   44.3507 H   0  0  0  0  0  0  0  0  0  0  0  0
   57.6191   23.7426   44.3507 H   0  0  0  0  0  0  0  0  0  0  0  0
   56.4373   23.9885   49.1485 H   0  0  0  0  0  0  0  0  0  0  0  0
   59.1130   25.7440   46.8970 H   0  0  0  0  0  0  0  0  0  0  0  0
   57.3540   27.4166   44.3803 H   0  0  0  0  0  0  0  0  0  0  0  0
   57.4315   29.8614   43.9231 H   0  0  0  0  0  0  0  0  0  0  0  0
   58.6872   32.6751   43.8042 H   0  0  0  0  0  0  0  0  0  0  0  0
   57.1262   31.7866   43.9772 H   0  0  0  0  0  0  0  0  0  0  0  0
   56.8395   34.2796   43.9942 H   0  0  0  0  0  0  0  0  0  0  0  0
   56.2814   33.4847   45.5165 H   0  0  0  0  0  0  0  0  0  0  0  0
   57.4037   34.7485   47.6890 H   0  0  0  0  0  0  0  0  0  0  0  0
   57.9288   33.1158   47.2081 H   0  0  0  0  0  0  0  0  0  0  0  0
   59.5294   35.3513   48.2923 H   0  0  0  0  0  0  0  0  0  0  0  0
   60.0031   33.6566   48.1106 H   0  0  0  0  0  0  0  0  0  0  0  0
   60.5620   35.9613   46.3330 H   0  0  0  0  0  0  0  0  0  0  0  0
   61.3081   34.3639   46.2926 H   0  0  0  0  0  0  0  0  0  0  0  0
   59.5754   35.2259   44.3515 H   0  0  0  0  0  0  0  0  0  0  0  0
   59.6663   33.5111   44.8000 H   0  0  0  0  0  0  0  0  0  0  0  0
   57.6392   30.8828   49.4561 H   0  0  0  0  0  0  0  0  0  0  0  0
   62.3874   33.4427   50.0977 H   0  0  0  0  0  0  0  0  0  0  0  0
   64.1610   33.0302   48.3638 H   0  0  0  0  0  0  0  0  0  0  0  0
   63.7048   31.4914   46.4450 H   0  0  0  0  0  0  0  0  0  0  0  0
   61.4731   30.3613   46.2321 H   0  0  0  0  0  0  0  0  0  0  0  0
   59.1607   28.0732   48.2520 H   0  0  0  0  0  0  0  0  0  0  0  0
  1  2  1  0
  2  3  1  0
  3  4  1  0
  4  5  2  0
  5  6  1  0
  6  7  1  0
  7  8  2  0
  7  9  1  0
  9 10  1  0
 10 11  2  0
 11 12  1  0
 12 13  2  0
 13 14  1  0
 14 15  1  0
 15 16  1  0
 16 17  1  0
 17 18  1  0
 18 19  1  0
 19 20  1  0
 20 21  1  0
 13 22  1  0
 22 23  1  0
 23 24  2  0
 24 25  1  0
 25 26  1  0
 26 27  2  0
 27 28  1  0
 28 29  2  0
 29 30  1  0
 30 31  2  0
 22 32  2  0
  6  2  2  0
 32 10  1  0
 21 17  1  0
 31 23  1  0
 31 26  1  0
  1 33  1  0
  1 34  1  0
  1 35  1  0
  5 36  1  0
  9 37  1  0
 11 38  1  0
 12 39  1  0
 15 40  1  0
 15 41  1  0
 16 42  1  0
 16 43  1  0
 18 44  1  0
 18 45  1  0
 19 46  1  0
 19 47  1  0
 20 48  1  0
 20 49  1  0
 21 50  1  0
 21 51  1  0
 24 52  1  0
 27 53  1  0
 28 54  1  0
 29 55  1  0
 30 56  1  0
 32 57  1  0
M  END
>  <UniqueID>  (69) 
62

>  <SMILES>  (69) 
Cc1oncc1C(=O)Nc1ccc(OCCN2CCCC2)c(-c2csc3ccccc23)c1

>  <Energy>  (69) 
135.99227594350748

>  <Genealogy>  (69) 
Cc1oncc1C(=O)Nc1ccc(OCCN2CCCC2)c(-c2csc3ccccc23)c1 (3D coordinates assigned)
Cc1oncc1C(=O)Nc1ccc(OCCN2CCCC2)c(-c2csc3ccccc23)c1 (nonaromatic ring conformer: 135.99227594350748 kcal/mol)

>  <smiles>  (69) 
Cc1oncc1C(=O)Nc1ccc(OCCN2CCCC2)c(-c2csc3ccccc23)c1

>  <score_type>  (69) 
oracle

>  <origin>  (69) 
adg

>  <m_score__min__energy>  (69) 
-9.8699999999999992

>  <m_primary>  (69) 
energy

$$$$
69:0
     RDKit          3D

 43 45  0  0  0  0  0  0  0  0999 V2000
   57.5290   29.1240   46.4030 O   0  0  0  0  0  0  0  0  0  0  0  0
   57.7050   29.7790   45.3390 C   0  0  0  0  0  0  0  0  0  0  0  0
   58.4180   29.1940   44.2430 N   0  0  0  0  0  0  0  0  0  0  0  0
   58.9800   27.8390   44.3030 C   0  0  0  0  0  0  0  0  0  0  0  0
   57.8530   26.7780   44.2120 C   0  0  0  0  0  0  0  0  0  0  0  0
   57.3460   26.3700   45.6000 C   0  0  0  0  0  0  0  0  0  0  0  0
   58.4650   25.7360   46.4500 C   0  0  0  0  0  0  0  0  0  0  0  0
   59.8750   26.2410   46.0840 C   0  0  0  0  0  0  0  0  0  0  0  0
   59.8430   27.6890   45.5820 C   0  0  0  0  0  0  0  0  0  0  0  0
   57.1620   31.0620   45.1900 O   0  0  0  0  0  0  0  0  0  0  0  0
   57.8540   32.2640   45.3990 C   0  0  0  0  0  0  0  0  0  0  0  0
   57.4100   33.4110   44.7320 C   0  0  0  0  0  0  0  0  0  0  0  0
   58.0680   34.6290   44.9050 C   0  0  0  0  0  0  0  0  0  0  0  0
   59.1870   34.7100   45.7360 C   0  0  0  0  0  0  0  0  0  0  0  0
   59.6670   33.5660   46.3980 C   0  0  0  0  0  0  0  0  0  0  0  0
   60.8680   33.6490   47.2660 C   0  0  0  0  0  0  0  0  0  0  0  0
   62.1580   33.5040   46.7200 C   0  0  0  0  0  0  0  0  0  0  0  0
   63.2880   33.5830   47.5410 C   0  0  0  0  0  0  0  0  0  0  0  0
   63.1450   33.8060   48.9120 C   0  0  0  0  0  0  0  0  0  0  0  0
   61.8710   33.9530   49.4660 C   0  0  0  0  0  0  0  0  0  0  0  0
   61.7320   34.1650   50.7980 F   0  0  0  0  0  0  0  0  0  0  0  0
   60.7380   33.8760   48.6500 C   0  0  0  0  0  0  0  0  0  0  0  0
   58.9950   32.3420   46.2190 C   0  0  0  0  0  0  0  0  0  0  0  0
   58.5370   29.7690   43.3790 H   0  0  0  0  0  0  0  0  0  0  0  0
   59.6389   27.6699   43.4385 H   0  0  0  0  0  0  0  0  0  0  0  0
   57.0151   27.1964   43.6350 H   0  0  0  0  0  0  0  0  0  0  0  0
   58.2625   25.8837   43.7196 H   0  0  0  0  0  0  0  0  0  0  0  0
   56.9668   27.2632   46.1182 H   0  0  0  0  0  0  0  0  0  0  0  0
   56.5489   25.6233   45.4690 H   0  0  0  0  0  0  0  0  0  0  0  0
   58.2745   25.9707   47.5076 H   0  0  0  0  0  0  0  0  0  0  0  0
   58.4474   24.6538   46.2537 H   0  0  0  0  0  0  0  0  0  0  0  0
   60.5164   26.1865   46.9760 H   0  0  0  0  0  0  0  0  0  0  0  0
   60.2693   25.6057   45.2772 H   0  0  0  0  0  0  0  0  0  0  0  0
   59.4231   28.3298   46.3714 H   0  0  0  0  0  0  0  0  0  0  0  0
   60.8727   27.9868   45.3350 H   0  0  0  0  0  0  0  0  0  0  0  0
   56.5361   33.3520   44.0666 H   0  0  0  0  0  0  0  0  0  0  0  0
   57.7043   35.5277   44.3854 H   0  0  0  0  0  0  0  0  0  0  0  0
   59.6965   35.6751   45.8738 H   0  0  0  0  0  0  0  0  0  0  0  0
   62.2779   33.3275   45.6409 H   0  0  0  0  0  0  0  0  0  0  0  0
   64.2916   33.4692   47.1054 H   0  0  0  0  0  0  0  0  0  0  0  0
   64.0351   33.8659   49.5555 H   0  0  0  0  0  0  0  0  0  0  0  0
   59.7377   33.9936   49.0923 H   0  0  0  0  0  0  0  0  0  0  0  0
   59.3653   31.4381   46.7248 H   0  0  0  0  0  0  0  0  0  0  0  0
  1  2  2  0
  2  3  1  0
  3  4  1  0
  4  5  1  0
  5  6  1  0
  6  7  1  0
  7  8  1  0
  8  9  1  0
  2 10  1  0
 10 11  1  0
 11 12  2  0
 12 13  1  0
 13 14  2  0
 14 15  1  0
 15 16  1  0
 16 17  2  0
 17 18  1  0
 18 19  2  0
 19 20  1  0
 20 21  1  0
 20 22  2  0
 15 23  2  0
  9  4  1  0
 23 11  1  0
 22 16  1  0
  3 24  1  0
  4 25  1  0
  5 26  1  0
  5 27  1  0
  6 28  1  0
  6 29  1  0
  7 30  1  0
  7 31  1  0
  8 32  1  0
  8 33  1  0
  9 34  1  0
  9 35  1  0
 12 36  1  0
 13 37  1  0
 14 38  1  0
 17 39  1  0
 18 40  1  0
 19 41  1  0
 22 42  1  0
 23 43  1  0
M  END
>  <UniqueID>  (70) 
63

>  <SMILES>  (70) 
O=C(NC1CCCCC1)Oc1cccc(-c2cccc(F)c2)c1

>  <Energy>  (70) 
54.09619125221908

>  <Genealogy>  (70) 
O=C(NC1CCCCC1)Oc1cccc(-c2cccc(F)c2)c1 (3D coordinates assigned)
O=C(NC1CCCCC1)Oc1cccc(-c2cccc(F)c2)c1 (nonaromatic ring conformer: 54.09619125221908 kcal/mol)

>  <smiles>  (70) 
O=C(NC1CCCCC1)Oc1cccc(-c2cccc(F)c2)c1

>  <score_type>  (70) 
oracle

>  <origin>  (70) 
adg

>  <m_score__min__energy>  (70) 
-8.4700000000000006

>  <m_primary>  (70) 
energy

$$$$
70:0
     RDKit          3D

 27 28  0  0  0  0  0  0  0  0999 V2000
   55.3120   29.5440   55.6870 C   0  0  0  0  0  0  0  0  0  0  0  0
   55.0610   28.8030   54.4970 O   0  0  0  0  0  0  0  0  0  0  0  0
   54.2470   29.2440   53.4420 C   0  0  0  0  0  0  0  0  0  0  0  0
   52.9780   28.6880   53.1960 C   0  0  0  0  0  0  0  0  0  0  0  0
   52.1960   29.1520   52.1370 C   0  0  0  0  0  0  0  0  0  0  0  0
   52.6640   30.1780   51.3040 C   0  0  0  0  0  0  0  0  0  0  0  0
   51.8550   30.6560   50.2120 N   0  0  0  0  0  0  0  0  0  0  0  0
   51.1340   31.7900   50.1540 C   0  0  0  0  0  0  0  0  0  0  0  0
   51.0200   32.7150   51.1860 O   0  0  0  0  0  0  0  0  0  0  0  0
   50.5050   31.8730   48.9340 C   0  0  0  0  0  0  0  0  0  0  0  0
   50.8260   30.7850   48.2010 N   0  0  0  0  0  0  0  0  0  0  0  0
   51.6430   30.0760   49.0100 C   0  0  0  0  0  0  0  0  0  0  0  0
   52.1710   28.9880   48.6560 O   0  0  0  0  0  0  0  0  0  0  0  0
   53.9300   30.7330   51.5480 C   0  0  0  0  0  0  0  0  0  0  0  0
   54.7250   30.2710   52.6140 C   0  0  0  0  0  0  0  0  0  0  0  0
   55.9970   30.8030   52.8820 O   0  0  0  0  0  0  0  0  0  0  0  0
   57.2010   30.3680   52.2580 C   0  0  0  0  0  0  0  0  0  0  0  0
   55.0986   28.9140   56.5631 H   0  0  0  0  0  0  0  0  0  0  0  0
   56.3663   29.8570   55.7085 H   0  0  0  0  0  0  0  0  0  0  0  0
   54.6650   30.4333   55.7085 H   0  0  0  0  0  0  0  0  0  0  0  0
   52.5998   27.8824   53.8425 H   0  0  0  0  0  0  0  0  0  0  0  0
   51.2055   28.7095   51.9547 H   0  0  0  0  0  0  0  0  0  0  0  0
   49.8473   32.6923   48.6081 H   0  0  0  0  0  0  0  0  0  0  0  0
   54.3051   31.5380   50.8990 H   0  0  0  0  0  0  0  0  0  0  0  0
   57.9384   30.1016   53.0296 H   0  0  0  0  0  0  0  0  0  0  0  0
   56.9921   29.4885   51.6312 H   0  0  0  0  0  0  0  0  0  0  0  0
   57.6025   31.1779   51.6312 H   0  0  0  0  0  0  0  0  0  0  0  0
  1  2  1  0
  2  3  1  0
  3  4  2  0
  4  5  1  0
  5  6  2  0
  6  7  1  0
  7  8  1  0
  8  9  1  0
  8 10  2  0
 10 11  1  0
 11 12  1  0
 12 13  2  0
  6 14  1  0
 14 15  2  0
 15 16  1  0
 16 17  1  0
 15  3  1  0
 12  7  1  0
  1 18  1  0
  1 19  1  0
  1 20  1  0
  4 21  1  0
  5 22  1  0
 10 23  1  0
 14 24  1  0
 17 25  1  0
 17 26  1  0
 17 27  1  0
M  CHG  2   9  -1  11  -1
M  END
>  <UniqueID>  (71) 
64

>  <SMILES>  (71) 
COc1ccc(-n2c([O-])c[n-]c2=O)cc1OC

>  <Energy>  (71) 
63.824481376983826

>  <Genealogy>  (71) 
COc1ccc(-n2c([O-])c[n-]c2=O)cc1OC (protonated)
COc1ccc(-n2c([O-])c[n-]c2=O)cc1OC (3D coordinates assigned)
COc1ccc(-n2c([O-])c[n-]c2=O)cc1OC (optimized conformer: 63.824481376983826 kcal/mol)

>  <smiles>  (71) 
COc1ccc(-n2c(O)c[nH]c2=O)cc1OC

>  <score_type>  (71) 
oracle

>  <origin>  (71) 
adg

>  <m_score__min__energy>  (71) 
-11.73

>  <m_primary>  (71) 
energy

$$$$
71:0
     RDKit          3D

 36 38  0  0  0  0  0  0  0  0999 V2000
   59.6550   35.4840   46.7310 C   0  0  0  0  0  0  0  0  0  0  0  0
   58.9840   34.3300   46.0460 C   0  0  0  0  0  0  0  0  0  0  0  0
   58.9860   34.2530   44.6460 C   0  0  0  0  0  0  0  0  0  0  0  0
   58.3790   33.1720   43.9980 C   0  0  0  0  0  0  0  0  0  0  0  0
   57.7730   32.1530   44.7450 C   0  0  0  0  0  0  0  0  0  0  0  0
   57.0050   30.7950   43.9270 S   0  0  0  0  0  0  0  0  0  0  0  0
   56.6740   31.2070   42.5200 O   0  0  0  0  0  0  0  0  0  0  0  0
   55.7380   30.4000   44.6320 O   0  0  0  0  0  0  0  0  0  0  0  0
   58.0800   29.4330   43.8840 N   0  0  0  0  0  0  0  0  0  0  0  0
   58.3270   28.5680   45.0060 C   0  0  0  0  0  0  0  0  0  0  0  0
   58.8770   29.0470   46.2100 C   0  0  0  0  0  0  0  0  0  0  0  0
   59.1110   28.1750   47.2760 C   0  0  0  0  0  0  0  0  0  0  0  0
   58.7990   26.8180   47.1590 C   0  0  0  0  0  0  0  0  0  0  0  0
   59.0390   25.9630   48.2280 O   0  0  0  0  0  0  0  0  0  0  0  0
   58.2480   26.3300   45.9660 C   0  0  0  0  0  0  0  0  0  0  0  0
   57.8460   24.5890   45.7890 S   0  0  0  0  0  0  0  0  0  0  0  0
   56.0860   24.9120   45.7670 C   0  0  0  0  0  0  0  0  0  0  0  0
   55.1630   23.9850   45.4520 N   0  0  0  0  0  0  0  0  0  0  0  0
   54.0190   24.6890   45.5670 C   0  0  0  0  0  0  0  0  0  0  0  0
   54.2390   25.9660   45.9300 N   0  0  0  0  0  0  0  0  0  0  0  0
   55.5460   26.1080   46.0580 N   0  0  0  0  0  0  0  0  0  0  0  0
   58.0090   27.2050   44.9000 C   0  0  0  0  0  0  0  0  0  0  0  0
   57.7740   32.2250   46.1440 C   0  0  0  0  0  0  0  0  0  0  0  0
   58.3800   33.3060   46.7920 C   0  0  0  0  0  0  0  0  0  0  0  0
   59.5810   35.3567   47.8211 H   0  0  0  0  0  0  0  0  0  0  0  0
   60.7144   35.5192   46.4371 H   0  0  0  0  0  0  0  0  0  0  0  0
   59.1615   36.4221   46.4371 H   0  0  0  0  0  0  0  0  0  0  0  0
   59.4670   35.0461   44.0546 H   0  0  0  0  0  0  0  0  0  0  0  0
   58.3774   33.1217   42.8992 H   0  0  0  0  0  0  0  0  0  0  0  0
   58.6330   29.2970   43.0100 H   0  0  0  0  0  0  0  0  0  0  0  0
   59.1239   30.1141   46.3120 H   0  0  0  0  0  0  0  0  0  0  0  0
   59.5430   28.5585   48.2121 H   0  0  0  0  0  0  0  0  0  0  0  0
   53.0194   24.2675   45.3848 H   0  0  0  0  0  0  0  0  0  0  0  0
   57.5671   26.8203   43.9690 H   0  0  0  0  0  0  0  0  0  0  0  0
   57.2968   31.4290   46.7345 H   0  0  0  0  0  0  0  0  0  0  0  0
   58.3833   33.3539   47.8909 H   0  0  0  0  0  0  0  0  0  0  0  0
  1  2  1  0
  2  3  2  0
  3  4  1  0
  4  5  2  0
  5  6  1  0
  6  7  2  0
  6  8  2  0
  6  9  1  0
  9 10  1  0
 10 11  2  0
 11 12  1  0
 12 13  2  0
 13 14  1  0
 13 15  1  0
 15 16  1  0
 16 17  1  0
 17 18  1  0
 18 19  2  0
 19 20  1  0
 20 21  1  0
 15 22  2  0
  5 23  1  0
 23 24  2  0
 24  2  1  0
 22 10  1  0
 21 17  2  0
  1 25  1  0
  1 26  1  0
  1 27  1  0
  3 28  1  0
  4 29  1  0
  9 30  1  0
 11 31  1  0
 12 32  1  0
 19 33  1  0
 22 34  1  0
 23 35  1  0
 24 36  1  0
M  CHG  2  14  -1  20  -1
M  END
>  <UniqueID>  (72) 
65

>  <SMILES>  (72) 
Cc1ccc(S(=O)(=O)Nc2ccc([O-])c(Sc3nc[n-]n3)c2)cc1

>  <Energy>  (72) 
68.43881404330124

>  <Genealogy>  (72) 
Cc1ccc(S(=O)(=O)Nc2ccc([O-])c(Sc3nc[n-]n3)c2)cc1 (protonated)
Cc1ccc(S(=O)(=O)Nc2ccc([O-])c(Sc3nc[n-]n3)c2)cc1 (3D coordinates assigned)
Cc1ccc(S(=O)(=O)Nc2ccc([O-])c(Sc3nc[n-]n3)c2)cc1 (optimized conformer: 68.43881404330124 kcal/mol)

>  <smiles>  (72) 
Cc1ccc(S(=O)(=O)Nc2ccc(O)c(Sc3nc[nH]n3)c2)cc1

>  <score_type>  (72) 
oracle

>  <origin>  (72) 
adg

>  <m_score__min__energy>  (72) 
-12.74

>  <m_primary>  (72) 
energy

$$$$
72:0
     RDKit          3D

 35 37  0  0  0  0  0  0  0  0999 V2000
   58.6310   27.8470   44.3410 O   0  0  0  0  0  0  0  0  0  0  0  0
   58.7510   28.2270   45.5380 C   0  0  0  0  0  0  0  0  0  0  0  0
   59.0260   29.5750   45.7950 C   0  0  0  0  0  0  0  0  0  0  0  0
   59.1530   30.0200   47.1200 C   0  0  0  0  0  0  0  0  0  0  0  0
   59.4330   31.3560   47.4500 O   0  0  0  0  0  0  0  0  0  0  0  0
   60.3690   32.1940   46.7720 C   0  0  0  0  0  0  0  0  0  0  0  0
   61.6380   32.3290   47.5710 C   0  0  0  0  0  0  0  0  0  0  0  0
   62.6650   33.1800   47.1340 C   0  0  0  0  0  0  0  0  0  0  0  0
   63.8300   33.2950   47.8930 C   0  0  0  0  0  0  0  0  0  0  0  0
   63.9600   32.5730   49.0800 C   0  0  0  0  0  0  0  0  0  0  0  0
   65.5480   32.7200   50.1300 Br  0  0  0  0  0  0  0  0  0  0  0  0
   62.9140   31.7450   49.4930 C   0  0  0  0  0  0  0  0  0  0  0  0
   61.7830   31.6430   48.7420 N   0  0  0  0  0  0  0  0  0  0  0  0
   58.9900   29.1030   48.1570 C   0  0  0  0  0  0  0  0  0  0  0  0
   58.7170   27.7650   47.8680 C   0  0  0  0  0  0  0  0  0  0  0  0
   58.6130   27.3360   46.5730 N   0  0  0  0  0  0  0  0  0  0  0  0
   58.2960   25.9230   46.3180 C   0  0  0  0  0  0  0  0  0  0  0  0
   56.8200   25.7530   46.1310 C   0  0  0  0  0  0  0  0  0  0  0  0
   56.1860   24.6200   45.6710 C   0  0  0  0  0  0  0  0  0  0  0  0
   54.8580   24.9830   45.6080 C   0  0  0  0  0  0  0  0  0  0  0  0
   54.7250   26.2660   45.9980 N   0  0  0  0  0  0  0  0  0  0  0  0
   55.9210   26.7390   46.3110 N   0  0  0  0  0  0  0  0  0  0  0  0
   59.1422   30.2832   44.9614 H   0  0  0  0  0  0  0  0  0  0  0  0
   60.6044   31.7534   45.7920 H   0  0  0  0  0  0  0  0  0  0  0  0
   59.9233   33.1915   46.6446 H   0  0  0  0  0  0  0  0  0  0  0  0
   62.5523   33.7515   46.2009 H   0  0  0  0  0  0  0  0  0  0  0  0
   64.6443   33.9534   47.5564 H   0  0  0  0  0  0  0  0  0  0  0  0
   63.0042   31.1732   50.4284 H   0  0  0  0  0  0  0  0  0  0  0  0
   61.0140   31.0200   49.0790 H   0  0  0  0  0  0  0  0  0  0  0  0
   59.0765   29.4336   49.2026 H   0  0  0  0  0  0  0  0  0  0  0  0
   58.5839   27.0472   48.6909 H   0  0  0  0  0  0  0  0  0  0  0  0
   58.8186   25.5911   45.4088 H   0  0  0  0  0  0  0  0  0  0  0  0
   58.6220   25.3197   47.1781 H   0  0  0  0  0  0  0  0  0  0  0  0
   56.6357   23.6497   45.4135 H   0  0  0  0  0  0  0  0  0  0  0  0
   54.0345   24.3273   45.2889 H   0  0  0  0  0  0  0  0  0  0  0  0
  1  2  2  0
  2  3  1  0
  3  4  2  0
  4  5  1  0
  5  6  1  0
  6  7  1  0
  7  8  2  0
  8  9  1  0
  9 10  2  0
 10 11  1  0
 10 12  1  0
 12 13  2  0
  4 14  1  0
 14 15  2  0
 15 16  1  0
 16 17  1  0
 17 18  1  0
 18 19  1  0
 19 20  2  0
 20 21  1  0
 21 22  1  0
 16  2  1  0
 22 18  2  0
 13  7  1  0
  3 23  1  0
  6 24  1  0
  6 25  1  0
  8 26  1  0
  9 27  1  0
 12 28  1  0
 13 29  1  0
 14 30  1  0
 15 31  1  0
 17 32  1  0
 17 33  1  0
 19 34  1  0
 20 35  1  0
M  CHG  2  13   1  21  -1
M  END
>  <UniqueID>  (73) 
66

>  <SMILES>  (73) 
O=c1cc(OCc2ccc(Br)c[nH+]2)ccn1Cc1cc[n-]n1

>  <Energy>  (73) 
67.11225793458674

>  <Genealogy>  (73) 
O=c1cc(OCc2ccc(Br)c[nH+]2)ccn1Cc1cc[n-]n1 (protonated)
O=c1cc(OCc2ccc(Br)c[nH+]2)ccn1Cc1cc[n-]n1 (3D coordinates assigned)
O=c1cc(OCc2ccc(Br)c[nH+]2)ccn1Cc1cc[n-]n1 (optimized conformer: 67.11225793458674 kcal/mol)

>  <smiles>  (73) 
O=c1cc(OCc2ccc(Br)cn2)ccn1Cc1cc[nH]n1

>  <score_type>  (73) 
oracle

>  <origin>  (73) 
adg

>  <m_score__min__energy>  (73) 
-8.25

>  <m_primary>  (73) 
energy

$$$$
73:0
     RDKit          3D

 44 47  0  0  0  0  0  0  0  0999 V2000
   60.0253   25.4402   47.8780 H   0  0  0  0  0  0  0  0  0  0  0  0
   59.2860   26.0100   47.2960 C   0  0  0  0  0  0  0  0  0  0  0  0
   59.6650   27.1890   46.6470 C   0  0  0  0  0  0  0  0  0  0  0  0
   60.7005   27.5515   46.7261 H   0  0  0  0  0  0  0  0  0  0  0  0
   58.7280   27.9080   45.8970 C   0  0  0  0  0  0  0  0  0  0  0  0
   59.0267   28.8438   45.4020 H   0  0  0  0  0  0  0  0  0  0  0  0
   57.4110   27.4440   45.7720 C   0  0  0  0  0  0  0  0  0  0  0  0
   56.4730   28.2290   45.0190 N   0  0  0  0  0  0  0  0  0  0  0  0
   56.6820   29.4080   44.5110 C   0  0  0  0  0  0  0  0  0  0  0  0
   56.6500   30.5600   45.2460 N   0  0  0  0  0  0  0  0  0  0  0  0
   56.8670   31.4740   44.2930 C   0  0  0  0  0  0  0  0  0  0  0  0
   57.5220   32.6820   44.3220 C   0  0  0  0  0  0  0  0  0  0  0  0
   57.8770   33.4780   45.5520 C   0  0  0  0  0  0  0  0  0  0  0  0
   56.9540   33.9219   45.9533 H   0  0  0  0  0  0  0  0  0  0  0  0
   58.4670   32.5490   46.6340 C   0  0  0  0  0  0  0  0  0  0  0  0
   59.1516   31.8309   46.1591 H   0  0  0  0  0  0  0  0  0  0  0  0
   57.6424   32.0181   47.1322 H   0  0  0  0  0  0  0  0  0  0  0  0
   59.2370   33.3600   47.6840 C   0  0  0  0  0  0  0  0  0  0  0  0
   59.6480   32.6650   48.4310 H   0  0  0  0  0  0  0  0  0  0  0  0
   58.5293   34.0736   48.1311 H   0  0  0  0  0  0  0  0  0  0  0  0
   60.3550   34.1480   47.1060 N   0  0  0  0  0  0  0  0  0  0  0  0
   61.9070   33.4440   47.5000 S   0  0  0  0  0  0  0  0  0  0  0  0
   62.9220   33.8580   46.4700 O   0  0  0  0  0  0  0  0  0  0  0  0
   62.3500   33.9500   48.8440 O   0  0  0  0  0  0  0  0  0  0  0  0
   61.8320   31.6620   47.5520 C   0  0  0  0  0  0  0  0  0  0  0  0
   61.8179   31.3260   48.5993 H   0  0  0  0  0  0  0  0  0  0  0  0
   60.9186   31.3185   47.0444 H   0  0  0  0  0  0  0  0  0  0  0  0
   62.7133   31.2429   47.0444 H   0  0  0  0  0  0  0  0  0  0  0  0
   60.2580   34.3920   45.6500 C   0  0  0  0  0  0  0  0  0  0  0  0
   60.6246   33.5047   45.1131 H   0  0  0  0  0  0  0  0  0  0  0  0
   60.8666   35.2750   45.4054 H   0  0  0  0  0  0  0  0  0  0  0  0
   58.8110   34.6700   45.2250 C   0  0  0  0  0  0  0  0  0  0  0  0
   58.7873   34.8541   44.1408 H   0  0  0  0  0  0  0  0  0  0  0  0
   58.4532   35.5481   45.7826 H   0  0  0  0  0  0  0  0  0  0  0  0
   58.1170   32.7620   43.0510 C   0  0  0  0  0  0  0  0  0  0  0  0
   58.7214   33.6103   42.6972 H   0  0  0  0  0  0  0  0  0  0  0  0
   57.8450   31.6500   42.3180 N   0  0  0  0  0  0  0  0  0  0  0  0
   58.2970   31.3610   41.4220 H   0  0  0  0  0  0  0  0  0  0  0  0
   57.0660   30.9060   43.1150 C   0  0  0  0  0  0  0  0  0  0  0  0
   56.9950   29.5710   43.1920 N   0  0  0  0  0  0  0  0  0  0  0  0
   57.0290   26.2720   46.4550 C   0  0  0  0  0  0  0  0  0  0  0  0
   55.9887   25.9190   46.3982 H   0  0  0  0  0  0  0  0  0  0  0  0
   57.9680   25.5560   47.2050 C   0  0  0  0  0  0  0  0  0  0  0  0
   57.6680   24.6337   47.7241 H   0  0  0  0  0  0  0  0  0  0  0  0
  1  2  1  0
  2  3  2  0
  3  4  1  0
  3  5  1  0
  5  6  1  0
  5  7  2  0
  7  8  1  0
  8  9  2  0
  9 10  1  0
 10 11  1  0
 11 12  1  0
 12 13  1  0
 13 14  1  0
 13 15  1  0
 15 16  1  0
 15 17  1  0
 15 18  1  0
 18 19  1  0
 18 20  1  0
 18 21  1  0
 21 22  1  0
 22 23  2  0
 22 24  2  0
 22 25  1  0
 25 26  1  0
 25 27  1  0
 25 28  1  0
 21 29  1  0
 29 30  1  0
 29 31  1  0
 29 32  1  0
 32 33  1  0
 32 34  1  0
 12 35  2  0
 35 36  1  0
 35 37  1  0
 37 38  1  0
 37 39  1  0
 39 40  1  0
  7 41  1  0
 41 42  1  0
 41 43  2  0
 43 44  1  0
 43  2  1  0
 40  9  1  0
 39 11  2  0
 32 13  1  0
M  CHG  2  10  -1  40  -1
M  END
>  <UniqueID>  (74) 
67

>  <SMILES>  (74) 
CS(=O)(=O)N1CCC(c2c[nH]c3[n-]/c(=N/c4ccccc4)[n-]c23)CC1

>  <Energy>  (74) 
139.33060368988578

>  <Genealogy>  (74) 
CS(=O)(=O)N1CCC(c2c[nH]c3[n-]c(=Nc4ccccc4)[n-]c23)CC1 (protonated)
CS(=O)(=O)N1CCC(c2c[nH]c3[n-]/c(=N/c4ccccc4)[n-]c23)CC1 (cis-trans isomerization)
CS(=O)(=O)N1CCC(c2c[nH]c3[n-]/c(=N/c4ccccc4)[n-]c23)CC1 (3D coordinates assigned)
CS(=O)(=O)N1CCC(c2c[nH]c3[n-]/c(=N/c4ccccc4)[n-]c23)CC1 (nonaromatic ring conformer: 139.33060368988578 kcal/mol)

>  <smiles>  (74) 
CS(=O)(=O)N1CCC(c2c[nH]c3[nH]c(=Nc4ccccc4)[nH]c23)CC1

>  <score_type>  (74) 
oracle

>  <origin>  (74) 
adg

>  <m_score__min__energy>  (74) 
-11.59

>  <m_primary>  (74) 
energy

$$$$
74:0
     RDKit          3D

 52 55  0  0  0  0  0  0  0  0999 V2000
   59.9718   36.3074   45.4663 H   0  0  0  0  0  0  0  0  0  0  0  0
   59.6000   35.3150   45.7610 C   0  0  0  0  0  0  0  0  0  0  0  0
   59.9430   34.7930   46.9680 N   0  0  0  0  0  0  0  0  0  0  0  0
   59.5150   33.5660   47.3800 C   0  0  0  0  0  0  0  0  0  0  0  0
   59.9320   33.0830   48.7180 C   0  0  0  0  0  0  0  0  0  0  0  0
   59.9600   31.7420   48.9500 N   0  0  0  0  0  0  0  0  0  0  0  0
   60.3180   31.2290   50.1560 C   0  0  0  0  0  0  0  0  0  0  0  0
   60.3520   29.9370   50.3100 N   0  0  0  0  0  0  0  0  0  0  0  0
   60.0030   28.9410   49.3350 C   0  0  0  0  0  0  0  0  0  0  0  0
   58.8850   29.1600   48.5210 C   0  0  0  0  0  0  0  0  0  0  0  0
   58.3123   30.0938   48.6210 H   0  0  0  0  0  0  0  0  0  0  0  0
   58.4900   28.2020   47.5820 C   0  0  0  0  0  0  0  0  0  0  0  0
   57.6175   28.3939   46.9403 H   0  0  0  0  0  0  0  0  0  0  0  0
   59.2000   26.9950   47.4520 C   0  0  0  0  0  0  0  0  0  0  0  0
   58.7860   25.9700   46.4640 C   0  0  0  0  0  0  0  0  0  0  0  0
   59.5190   24.9620   46.2700 O   0  0  0  0  0  0  0  0  0  0  0  0
   57.5850   26.1360   45.6900 N   0  0  0  0  0  0  0  0  0  0  0  0
   57.2550   27.1080   45.4980 H   0  0  0  0  0  0  0  0  0  0  0  0
   56.9020   25.0520   45.0340 C   0  0  0  0  0  0  0  0  0  0  0  0
   57.5660   24.3280   44.0300 C   0  0  0  0  0  0  0  0  0  0  0  0
   58.6029   24.5836   43.7665 H   0  0  0  0  0  0  0  0  0  0  0  0
   56.9170   23.2850   43.3640 C   0  0  0  0  0  0  0  0  0  0  0  0
   57.4480   22.7160   42.5867 H   0  0  0  0  0  0  0  0  0  0  0  0
   55.5950   22.9630   43.6830 C   0  0  0  0  0  0  0  0  0  0  0  0
   55.0891   22.1366   43.1622 H   0  0  0  0  0  0  0  0  0  0  0  0
   54.9150   23.6920   44.6650 C   0  0  0  0  0  0  0  0  0  0  0  0
   53.5460   23.3730   44.9810 C   0  0  0  0  0  0  0  0  0  0  0  0
   52.4470   23.1160   45.2350 N   0  0  0  0  0  0  0  0  0  0  0  0
   55.5640   24.7380   45.3350 C   0  0  0  0  0  0  0  0  0  0  0  0
   55.0247   25.3162   46.0998 H   0  0  0  0  0  0  0  0  0  0  0  0
   60.2970   26.7590   48.3000 C   0  0  0  0  0  0  0  0  0  0  0  0
   60.8490   25.8104   48.2259 H   0  0  0  0  0  0  0  0  0  0  0  0
   60.6920   27.7190   49.2360 C   0  0  0  0  0  0  0  0  0  0  0  0
   61.5465   27.5176   49.8988 H   0  0  0  0  0  0  0  0  0  0  0  0
   60.6710   32.0720   51.1640 N   0  0  0  0  0  0  0  0  0  0  0  0
   60.6510   33.4180   50.9920 C   0  0  0  0  0  0  0  0  0  0  0  0
   60.9329   34.0829   51.8217 H   0  0  0  0  0  0  0  0  0  0  0  0
   60.2730   33.9580   49.7630 C   0  0  0  0  0  0  0  0  0  0  0  0
   60.2424   35.0475   49.6147 H   0  0  0  0  0  0  0  0  0  0  0  0
   58.6710   32.8190   46.5370 C   0  0  0  0  0  0  0  0  0  0  0  0
   58.2973   31.8363   46.8605 H   0  0  0  0  0  0  0  0  0  0  0  0
   58.3080   33.3320   45.2830 C   0  0  0  0  0  0  0  0  0  0  0  0
   57.3890   32.5490   44.3840 C   0  0  0  0  0  0  0  0  0  0  0  0
   57.9192   32.2998   43.4530 H   0  0  0  0  0  0  0  0  0  0  0  0
   56.5016   33.1603   44.1632 H   0  0  0  0  0  0  0  0  0  0  0  0
   56.9750   31.3540   45.0180 O   0  0  0  0  0  0  0  0  0  0  0  0
   57.3870   30.2340   44.2650 C   0  0  0  0  0  0  0  0  0  0  0  0
   57.6851   29.4236   44.9464 H   0  0  0  0  0  0  0  0  0  0  0  0
   56.5556   29.8926   43.6308 H   0  0  0  0  0  0  0  0  0  0  0  0
   58.2414   30.5127   43.6308 H   0  0  0  0  0  0  0  0  0  0  0  0
   58.7780   34.5950   44.8960 C   0  0  0  0  0  0  0  0  0  0  0  0
   58.5002   35.0142   43.9177 H   0  0  0  0  0  0  0  0  0  0  0  0
  1  2  1  0
  2  3  2  0
  3  4  1  0
  4  5  1  0
  5  6  2  0
  6  7  1  0
  7  8  2  0
  8  9  1  0
  9 10  2  0
 10 11  1  0
 10 12  1  0
 12 13  1  0
 12 14  2  0
 14 15  1  0
 15 16  2  0
 15 17  1  0
 17 18  1  0
 17 19  1  0
 19 20  2  0
 20 21  1  0
 20 22  1  0
 22 23  1  0
 22 24  2  0
 24 25  1  0
 24 26  1  0
 26 27  1  0
 27 28  3  0
 26 29  2  0
 29 30  1  0
 14 31  1  0
 31 32  1  0
 31 33  2  0
 33 34  1  0
  7 35  1  0
 35 36  1  0
 36 37  1  0
 36 38  2  0
 38 39  1  0
  4 40  2  0
 40 41  1  0
 40 42  1  0
 42 43  1  0
 43 44  1  0
 43 45  1  0
 43 46  1  0
 46 47  1  0
 47 48  1  0
 47 49  1  0
 47 50  1  0
 42 51  2  0
 51 52  1  0
 51  2  1  0
 38  5  1  0
 33  9  1  0
 29 19  1  0
M  CHG  1  35  -1
M  END
>  <UniqueID>  (75) 
68

>  <SMILES>  (75) 
COCc1ccnc(-c2cc[n-]/c(=N\c3ccc(C(=O)Nc4cccc(C#N)c4)cc3)n2)c1

>  <Energy>  (75) 
74.05352691741831

>  <Genealogy>  (75) 
COCc1ccnc(-c2cc[n-]c(=Nc3ccc(C(=O)Nc4cccc(C#N)c4)cc3)n2)c1 (protonated)
COCc1ccnc(-c2cc[n-]/c(=N\c3ccc(C(=O)Nc4cccc(C#N)c4)cc3)n2)c1 (cis-trans isomerization)
COCc1ccnc(-c2cc[n-]/c(=N\c3ccc(C(=O)Nc4cccc(C#N)c4)cc3)n2)c1 (3D coordinates assigned)
COCc1ccnc(-c2cc[n-]/c(=N\c3ccc(C(=O)Nc4cccc(C#N)c4)cc3)n2)c1 (optimized conformer: 74.05352691741831 kcal/mol)

>  <smiles>  (75) 
COCc1ccnc(-c2cc[nH]c(=Nc3ccc(C(=O)Nc4cccc(C#N)c4)cc3)n2)c1

>  <score_type>  (75) 
oracle

>  <origin>  (75) 
adg

>  <m_score__min__energy>  (75) 
-9.9700000000000006

>  <m_primary>  (75) 
energy

$$$$
75:0
     RDKit          3D

 56 60  0  0  0  0  0  0  0  0999 V2000
   51.7760   23.9620   44.0980 C   0  0  0  0  0  0  0  0  0  0  0  0
   53.1710   23.7610   44.6140 C   0  0  0  0  0  0  0  0  0  0  0  0
   53.3960   23.6650   45.9960 C   0  0  0  0  0  0  0  0  0  0  0  0
   54.6960   23.5050   46.4890 C   0  0  0  0  0  0  0  0  0  0  0  0
   55.7840   23.4400   45.6040 C   0  0  0  0  0  0  0  0  0  0  0  0
   57.4270   23.2310   46.2030 S   0  0  0  0  0  0  0  0  0  0  0  0
   58.4340   23.4280   45.1050 O   0  0  0  0  0  0  0  0  0  0  0  0
   57.5730   21.8350   46.7370 O   0  0  0  0  0  0  0  0  0  0  0  0
   57.7360   24.3610   47.4810 N   0  0  0  0  0  0  0  0  0  0  0  0
   58.0550   25.7480   47.3100 C   0  0  0  0  0  0  0  0  0  0  0  0
   57.1900   26.5460   46.5550 C   0  0  0  0  0  0  0  0  0  0  0  0
   57.4580   27.9050   46.3650 C   0  0  0  0  0  0  0  0  0  0  0  0
   58.6010   28.4930   46.9360 C   0  0  0  0  0  0  0  0  0  0  0  0
   58.8880   29.9350   46.7400 C   0  0  0  0  0  0  0  0  0  0  0  0
   60.0170   30.4850   47.2640 N   0  0  0  0  0  0  0  0  0  0  0  0
   60.3190   31.8010   47.1050 C   0  0  0  0  0  0  0  0  0  0  0  0
   61.5020   32.3180   47.7340 N   0  0  0  0  0  0  0  0  0  0  0  0
   62.8280   31.8550   47.3100 C   0  0  0  0  0  0  0  0  0  0  0  0
   63.7750   33.0510   47.0410 C   0  0  0  0  0  0  0  0  0  0  0  0
   63.2900   34.2960   47.5190 O   0  0  0  0  0  0  0  0  0  0  0  0
   62.7280   34.1520   48.8070 C   0  0  0  0  0  0  0  0  0  0  0  0
   61.3880   33.4250   48.6880 C   0  0  0  0  0  0  0  0  0  0  0  0
   59.4550   32.6210   46.3550 C   0  0  0  0  0  0  0  0  0  0  0  0
   59.7270   33.9770   46.0900 C   0  0  0  0  0  0  0  0  0  0  0  0
   58.8280   34.7380   45.3350 C   0  0  0  0  0  0  0  0  0  0  0  0
   57.6590   34.1580   44.8360 C   0  0  0  0  0  0  0  0  0  0  0  0
   57.3870   32.8090   45.0800 C   0  0  0  0  0  0  0  0  0  0  0  0
   58.2810   32.0370   45.8300 C   0  0  0  0  0  0  0  0  0  0  0  0
   58.0290   30.7180   46.0360 N   0  0  0  0  0  0  0  0  0  0  0  0
   59.4680   27.6880   47.6980 C   0  0  0  0  0  0  0  0  0  0  0  0
   59.2000   26.3290   47.8830 C   0  0  0  0  0  0  0  0  0  0  0  0
   55.5590   23.5450   44.2250 C   0  0  0  0  0  0  0  0  0  0  0  0
   54.2610   23.7100   43.7320 C   0  0  0  0  0  0  0  0  0  0  0  0
   51.0823   24.0620   44.9458 H   0  0  0  0  0  0  0  0  0  0  0  0
   51.7397   24.8746   43.4850 H   0  0  0  0  0  0  0  0  0  0  0  0
   51.4836   23.0967   43.4850 H   0  0  0  0  0  0  0  0  0  0  0  0
   52.5475   23.7157   46.6942 H   0  0  0  0  0  0  0  0  0  0  0  0
   54.8659   23.4299   47.5732 H   0  0  0  0  0  0  0  0  0  0  0  0
   56.2900   26.1003   46.1062 H   0  0  0  0  0  0  0  0  0  0  0  0
   56.7701   28.5186   45.7648 H   0  0  0  0  0  0  0  0  0  0  0  0
   63.2595   31.2259   48.1025 H   0  0  0  0  0  0  0  0  0  0  0  0
   62.7168   31.2803   46.3787 H   0  0  0  0  0  0  0  0  0  0  0  0
   64.7383   32.8451   47.5305 H   0  0  0  0  0  0  0  0  0  0  0  0
   63.8635   33.1446   45.9486 H   0  0  0  0  0  0  0  0  0  0  0  0
   63.4091   33.5678   49.4432 H   0  0  0  0  0  0  0  0  0  0  0  0
   62.5737   35.1435   49.2577 H   0  0  0  0  0  0  0  0  0  0  0  0
   61.0995   33.0290   49.6729 H   0  0  0  0  0  0  0  0  0  0  0  0
   60.6239   34.1316   48.3320 H   0  0  0  0  0  0  0  0  0  0  0  0
   60.6474   34.4385   46.4771 H   0  0  0  0  0  0  0  0  0  0  0  0
   59.0425   35.7979   45.1333 H   0  0  0  0  0  0  0  0  0  0  0  0
   56.9519   34.7638   44.2504 H   0  0  0  0  0  0  0  0  0  0  0  0
   56.4684   32.3534   44.6817 H   0  0  0  0  0  0  0  0  0  0  0  0
   60.3655   28.1329   48.1525 H   0  0  0  0  0  0  0  0  0  0  0  0
   59.8876   25.7113   48.4793 H   0  0  0  0  0  0  0  0  0  0  0  0
   56.4077   23.4974   43.5268 H   0  0  0  0  0  0  0  0  0  0  0  0
   54.0938   23.8002   42.6485 H   0  0  0  0  0  0  0  0  0  0  0  0
  1  2  1  0
  2  3  2  0
  3  4  1  0
  4  5  2  0
  5  6  1  0
  6  7  2  0
  6  8  2  0
  6  9  1  0
  9 10  1  0
 10 11  2  0
 11 12  1  0
 12 13  2  0
 13 14  1  0
 14 15  2  0
 15 16  1  0
 16 17  1  0
 17 18  1  0
 18 19  1  0
 19 20  1  0
 20 21  1  0
 21 22  1  0
 16 23  2  0
 23 24  1  0
 24 25  2  0
 25 26  1  0
 26 27  2  0
 27 28  1  0
 28 29  2  0
 13 30  1  0
 30 31  2  0
  5 32  1  0
 32 33  2  0
 33  2  1  0
 31 10  1  0
 29 14  1  0
 22 17  1  0
 28 23  1  0
  1 34  1  0
  1 35  1  0
  1 36  1  0
  3 37  1  0
  4 38  1  0
 11 39  1  0
 12 40  1  0
 18 41  1  0
 18 42  1  0
 19 43  1  0
 19 44  1  0
 21 45  1  0
 21 46  1  0
 22 47  1  0
 22 48  1  0
 24 49  1  0
 25 50  1  0
 26 51  1  0
 27 52  1  0
 30 53  1  0
 31 54  1  0
 32 55  1  0
 33 56  1  0
M  CHG  1   9  -1
M  END
>  <UniqueID>  (76) 
69

>  <SMILES>  (76) 
Cc1ccc(S(=O)(=O)[N-]c2ccc(-c3nc(N4CCOCC4)c4ccccc4n3)cc2)cc1

>  <Energy>  (76) 
82.0327513307177

>  <Genealogy>  (76) 
Cc1ccc(S(=O)(=O)[N-]c2ccc(-c3nc(N4CCOCC4)c4ccccc4n3)cc2)cc1 (protonated)
Cc1ccc(S(=O)(=O)[N-]c2ccc(-c3nc(N4CCOCC4)c4ccccc4n3)cc2)cc1 (3D coordinates assigned)
Cc1ccc(S(=O)(=O)[N-]c2ccc(-c3nc(N4CCOCC4)c4ccccc4n3)cc2)cc1 (nonaromatic ring conformer: 82.0327513307177 kcal/mol)

>  <smiles>  (76) 
Cc1ccc(S(=O)(=O)Nc2ccc(-c3nc(N4CCOCC4)c4ccccc4n3)cc2)cc1

>  <score_type>  (76) 
oracle

>  <origin>  (76) 
adg

>  <m_score__min__energy>  (76) 
-10.369999999999999

>  <m_primary>  (76) 
energy

$$$$
76:0
     RDKit          3D

 34 36  0  0  0  0  0  0  0  0999 V2000
   57.9060   25.4020   46.5830 C   0  0  0  0  0  0  0  0  0  0  0  0
   57.8500   26.6060   47.3420 O   0  0  0  0  0  0  0  0  0  0  0  0
   57.9850   27.8960   46.8040 C   0  0  0  0  0  0  0  0  0  0  0  0
   59.0790   28.7230   47.1200 C   0  0  0  0  0  0  0  0  0  0  0  0
   59.1930   30.0090   46.5690 C   0  0  0  0  0  0  0  0  0  0  0  0
   60.3600   30.8540   46.9260 C   0  0  0  0  0  0  0  0  0  0  0  0
   61.4300   30.4960   47.7540 C   0  0  0  0  0  0  0  0  0  0  0  0
   62.2390   31.6070   47.7690 C   0  0  0  0  0  0  0  0  0  0  0  0
   63.4470   31.8480   48.4200 C   0  0  0  0  0  0  0  0  0  0  0  0
   64.0470   33.1080   48.2380 C   0  0  0  0  0  0  0  0  0  0  0  0
   63.4320   34.0840   47.4210 C   0  0  0  0  0  0  0  0  0  0  0  0
   62.2100   33.8070   46.7790 C   0  0  0  0  0  0  0  0  0  0  0  0
   61.6420   32.5510   46.9780 C   0  0  0  0  0  0  0  0  0  0  0  0
   60.5210   32.0900   46.4810 O   0  0  0  0  0  0  0  0  0  0  0  0
   58.1960   30.4670   45.6930 C   0  0  0  0  0  0  0  0  0  0  0  0
   57.0970   29.6520   45.3660 C   0  0  0  0  0  0  0  0  0  0  0  0
   56.0830   30.0780   44.4920 O   0  0  0  0  0  0  0  0  0  0  0  0
   56.1870   30.0800   43.0720 C   0  0  0  0  0  0  0  0  0  0  0  0
   56.9960   28.3700   45.9240 C   0  0  0  0  0  0  0  0  0  0  0  0
   55.8990   27.5740   45.5900 O   0  0  0  0  0  0  0  0  0  0  0  0
   57.9461   24.5400   47.2652 H   0  0  0  0  0  0  0  0  0  0  0  0
   57.0104   25.3263   45.9488 H   0  0  0  0  0  0  0  0  0  0  0  0
   58.8048   25.4098   45.9488 H   0  0  0  0  0  0  0  0  0  0  0  0
   59.8552   28.3567   47.8080 H   0  0  0  0  0  0  0  0  0  0  0  0
   61.5880   29.5404   48.2755 H   0  0  0  0  0  0  0  0  0  0  0  0
   63.9153   31.0806   49.0538 H   0  0  0  0  0  0  0  0  0  0  0  0
   65.0016   33.3350   48.7352 H   0  0  0  0  0  0  0  0  0  0  0  0
   63.9107   35.0651   47.2861 H   0  0  0  0  0  0  0  0  0  0  0  0
   61.7201   34.5576   46.1414 H   0  0  0  0  0  0  0  0  0  0  0  0
   58.2751   31.4741   45.2576 H   0  0  0  0  0  0  0  0  0  0  0  0
   57.2479   30.1004   42.7821 H   0  0  0  0  0  0  0  0  0  0  0  0
   55.7140   29.1726   42.6684 H   0  0  0  0  0  0  0  0  0  0  0  0
   55.6794   30.9685   42.6684 H   0  0  0  0  0  0  0  0  0  0  0  0
   55.1450   27.9080   45.0020 H   0  0  0  0  0  0  0  0  0  0  0  0
  1  2  1  0
  2  3  1  0
  3  4  2  0
  4  5  1  0
  5  6  1  0
  6  7  2  0
  7  8  1  0
  8  9  2  0
  9 10  1  0
 10 11  2  0
 11 12  1  0
 12 13  2  0
 13 14  1  0
  5 15  2  0
 15 16  1  0
 16 17  1  0
 17 18  1  0
 16 19  2  0
 19 20  1  0
 19  3  1  0
 14  6  1  0
 13  8  1  0
  1 21  1  0
  1 22  1  0
  1 23  1  0
  4 24  1  0
  7 25  1  0
  9 26  1  0
 10 27  1  0
 11 28  1  0
 12 29  1  0
 15 30  1  0
 18 31  1  0
 18 32  1  0
 18 33  1  0
 20 34  1  0
M  END
>  <UniqueID>  (77) 
70

>  <SMILES>  (77) 
COc1cc(-c2cc3ccccc3o2)cc(OC)c1O

>  <Energy>  (77) 
70.6227525210858

>  <Genealogy>  (77) 
COc1cc(-c2cc3ccccc3o2)cc(OC)c1O (3D coordinates assigned)
COc1cc(-c2cc3ccccc3o2)cc(OC)c1O (optimized conformer: 70.6227525210858 kcal/mol)

>  <smiles>  (77) 
COc1cc(-c2cc3ccccc3o2)cc(OC)c1O

>  <score_type>  (77) 
oracle

>  <origin>  (77) 
adg

>  <m_score__min__energy>  (77) 
-6.71

>  <m_primary>  (77) 
energy

$$$$
77:0
     RDKit          3D

 41 44  0  0  0  0  0  0  0  0999 V2000
   56.3690   19.3610   43.4040 H   0  0  0  0  0  0  0  0  0  0  0  0
   55.8930   20.2910   43.3680 N   0  0  0  0  0  0  0  0  0  0  0  0
   56.4500   21.3720   43.8140 C   0  0  0  0  0  0  0  0  0  0  0  0
   55.7010   22.4920   43.9840 N   0  0  0  0  0  0  0  0  0  0  0  0
   56.2490   23.6460   44.4460 C   0  0  0  0  0  0  0  0  0  0  0  0
   55.6229   24.5410   44.5766 H   0  0  0  0  0  0  0  0  0  0  0  0
   57.6170   23.6920   44.7560 C   0  0  0  0  0  0  0  0  0  0  0  0
   58.2370   24.9340   45.2780 C   0  0  0  0  0  0  0  0  0  0  0  0
   57.5340   26.1460   45.2060 C   0  0  0  0  0  0  0  0  0  0  0  0
   56.5264   26.1661   44.7653 H   0  0  0  0  0  0  0  0  0  0  0  0
   58.1020   27.3280   45.6890 C   0  0  0  0  0  0  0  0  0  0  0  0
   57.5397   28.2710   45.6217 H   0  0  0  0  0  0  0  0  0  0  0  0
   59.3860   27.3210   46.2600 C   0  0  0  0  0  0  0  0  0  0  0  0
   59.9910   28.5770   46.7730 C   0  0  0  0  0  0  0  0  0  0  0  0
   60.3780   28.7030   48.1160 C   0  0  0  0  0  0  0  0  0  0  0  0
   60.2335   27.8614   48.8095 H   0  0  0  0  0  0  0  0  0  0  0  0
   60.9300   29.8600   48.5620 N   0  0  0  0  0  0  0  0  0  0  0  0
   61.1200   30.9190   47.7310 C   0  0  0  0  0  0  0  0  0  0  0  0
   61.7040   32.1370   48.2210 N   0  0  0  0  0  0  0  0  0  0  0  0
   62.9750   32.6570   47.8710 C   0  0  0  0  0  0  0  0  0  0  0  0
   63.7610   32.0910   47.0660 O   0  0  0  0  0  0  0  0  0  0  0  0
   63.2840   33.9320   48.5480 C   0  0  0  0  0  0  0  0  0  0  0  0
   63.4365   34.7388   47.8160 H   0  0  0  0  0  0  0  0  0  0  0  0
   64.2090   33.8883   49.1417 H   0  0  0  0  0  0  0  0  0  0  0  0
   62.0360   34.1960   49.4040 C   0  0  0  0  0  0  0  0  0  0  0  0
   61.5688   35.1456   49.1040 H   0  0  0  0  0  0  0  0  0  0  0  0
   62.3041   34.2667   50.4685 H   0  0  0  0  0  0  0  0  0  0  0  0
   61.0560   33.0290   49.1670 C   0  0  0  0  0  0  0  0  0  0  0  0
   60.1103   33.4048   48.7495 H   0  0  0  0  0  0  0  0  0  0  0  0
   60.8183   32.5098   50.1072 H   0  0  0  0  0  0  0  0  0  0  0  0
   60.7510   30.8200   46.4270 N   0  0  0  0  0  0  0  0  0  0  0  0
   60.1980   29.6810   45.9340 C   0  0  0  0  0  0  0  0  0  0  0  0
   59.9118   29.6249   44.8734 H   0  0  0  0  0  0  0  0  0  0  0  0
   60.0870   26.1060   46.3390 C   0  0  0  0  0  0  0  0  0  0  0  0
   61.0921   26.0861   46.7856 H   0  0  0  0  0  0  0  0  0  0  0  0
   59.5210   24.9210   45.8560 C   0  0  0  0  0  0  0  0  0  0  0  0
   60.2120   23.7620   45.9940 F   0  0  0  0  0  0  0  0  0  0  0  0
   58.3660   22.5610   44.5920 N   0  0  0  0  0  0  0  0  0  0  0  0
   59.3890   22.5720   44.8080 H   0  0  0  0  0  0  0  0  0  0  0  0
   57.8150   21.4090   44.1270 C   0  0  0  0  0  0  0  0  0  0  0  0
   58.4370   20.5111   43.9972 H   0  0  0  0  0  0  0  0  0  0  0  0
  1  2  1  0
  2  3  2  0
  3  4  1  0
  4  5  1  0
  5  6  1  0
  5  7  2  0
  7  8  1  0
  8  9  2  0
  9 10  1  0
  9 11  1  0
 11 12  1  0
 11 13  2  0
 13 14  1  0
 14 15  2  0
 15 16  1  0
 15 17  1  0
 17 18  2  0
 18 19  1  0
 19 20  1  0
 20 21  2  0
 20 22  1  0
 22 23  1  0
 22 24  1  0
 22 25  1  0
 25 26  1  0
 25 27  1  0
 25 28  1  0
 28 29  1  0
 28 30  1  0
 18 31  1  0
 31 32  2  0
 32 33  1  0
 13 34  1  0
 34 35  1  0
 34 36  2  0
 36 37  1  0
  7 38  1  0
 38 39  1  0
 38 40  2  0
 40 41  1  0
 40  3  1  0
 36  8  1  0
 32 14  1  0
 28 19  1  0
M  CHG  2   4  -1  38   1
M  END
>  <UniqueID>  (78) 
71

>  <SMILES>  (78) 
[H]/N=c1\c[nH+]c(-c2ccc(-c3cnc(N4CCCC4=O)nc3)cc2F)c[n-]1

>  <Energy>  (78) 
65.31350181168301

>  <Genealogy>  (78) 
N=c1c[nH+]c(-c2ccc(-c3cnc(N4CCCC4=O)nc3)cc2F)c[n-]1 (protonated)
[H]/N=c1\c[nH+]c(-c2ccc(-c3cnc(N4CCCC4=O)nc3)cc2F)c[n-]1 (cis-trans isomerization)
[H]/N=c1\c[nH+]c(-c2ccc(-c3cnc(N4CCCC4=O)nc3)cc2F)c[n-]1 (3D coordinates assigned)
[H]/N=c1\c[nH+]c(-c2ccc(-c3cnc(N4CCCC4=O)nc3)cc2F)c[n-]1 (nonaromatic ring conformer: 65.31350181168301 kcal/mol)

>  <smiles>  (78) 
N=c1cnc(-c2ccc(-c3cnc(N4CCCC4=O)nc3)cc2F)c[nH]1

>  <score_type>  (78) 
oracle

>  <origin>  (78) 
adg

>  <m_score__min__energy>  (78) 
-7.5599999999999996

>  <m_primary>  (78) 
energy

$$$$
78:0
     RDKit          3D

 30 32  0  0  0  0  0  0  0  0999 V2000
   60.9781   27.4301   46.5186 H   0  0  0  0  0  0  0  0  0  0  0  0
   60.0930   27.8820   46.0470 C   0  0  0  0  0  0  0  0  0  0  0  0
   60.2390   28.9760   45.1890 C   0  0  0  0  0  0  0  0  0  0  0  0
   61.2397   29.3849   44.9857 H   0  0  0  0  0  0  0  0  0  0  0  0
   59.1150   29.5510   44.5890 C   0  0  0  0  0  0  0  0  0  0  0  0
   59.2335   30.4132   43.9163 H   0  0  0  0  0  0  0  0  0  0  0  0
   57.8360   29.0320   44.8420 C   0  0  0  0  0  0  0  0  0  0  0  0
   56.4180   29.7480   44.0770 S   0  0  0  0  0  0  0  0  0  0  0  0
   56.5590   29.6230   42.5860 O   0  0  0  0  0  0  0  0  0  0  0  0
   55.1610   29.0390   44.5030 O   0  0  0  0  0  0  0  0  0  0  0  0
   56.2960   31.4300   44.4970 N   0  0  0  0  0  0  0  0  0  0  0  0
   57.2530   32.1880   44.9480 C   0  0  0  0  0  0  0  0  0  0  0  0
   57.5500   32.1390   46.2750 N   0  0  0  0  0  0  0  0  0  0  0  0
   58.5310   32.9060   46.8170 C   0  0  0  0  0  0  0  0  0  0  0  0
   58.8180   32.8380   48.1860 C   0  0  0  0  0  0  0  0  0  0  0  0
   58.2477   32.1583   48.8362 H   0  0  0  0  0  0  0  0  0  0  0  0
   59.8320   33.6370   48.7240 C   0  0  0  0  0  0  0  0  0  0  0  0
   60.0583   33.5857   49.7993 H   0  0  0  0  0  0  0  0  0  0  0  0
   60.5600   34.5020   47.8980 C   0  0  0  0  0  0  0  0  0  0  0  0
   61.3570   35.1277   48.3262 H   0  0  0  0  0  0  0  0  0  0  0  0
   60.2770   34.5730   46.5300 C   0  0  0  0  0  0  0  0  0  0  0  0
   60.8497   35.2540   45.8833 H   0  0  0  0  0  0  0  0  0  0  0  0
   59.2640   33.7760   45.9860 C   0  0  0  0  0  0  0  0  0  0  0  0
   58.9730   33.8290   44.6610 N   0  0  0  0  0  0  0  0  0  0  0  0
   57.9920   33.0610   44.1210 C   0  0  0  0  0  0  0  0  0  0  0  0
   57.7743   33.1189   43.0443 H   0  0  0  0  0  0  0  0  0  0  0  0
   57.6940   27.9350   45.7080 C   0  0  0  0  0  0  0  0  0  0  0  0
   56.4670   27.4190   45.9750 F   0  0  0  0  0  0  0  0  0  0  0  0
   58.8210   27.3630   46.3050 C   0  0  0  0  0  0  0  0  0  0  0  0
   58.7066   26.5019   46.9798 H   0  0  0  0  0  0  0  0  0  0  0  0
  1  2  1  0
  2  3  2  0
  3  4  1  0
  3  5  1  0
  5  6  1  0
  5  7  2  0
  7  8  1  0
  8  9  2  0
  8 10  2  0
  8 11  1  0
 11 12  2  0
 12 13  1  0
 13 14  1  0
 14 15  2  0
 15 16  1  0
 15 17  1  0
 17 18  1  0
 17 19  2  0
 19 20  1  0
 19 21  1  0
 21 22  1  0
 21 23  2  0
 23 24  1  0
 24 25  2  0
 25 26  1  0
  7 27  1  0
 27 28  1  0
 27 29  2  0
 29 30  1  0
 29  2  1  0
 25 12  1  0
 23 14  1  0
M  CHG  1  13  -1
M  END
>  <UniqueID>  (79) 
72

>  <SMILES>  (79) 
O=S(=O)(/N=c1\cnc2ccccc2[n-]1)c1ccccc1F

>  <Energy>  (79) 
42.71336844172615

>  <Genealogy>  (79) 
O=S(=O)(N=c1cnc2ccccc2[n-]1)c1ccccc1F (protonated)
O=S(=O)(/N=c1\cnc2ccccc2[n-]1)c1ccccc1F (cis-trans isomerization)
O=S(=O)(/N=c1\cnc2ccccc2[n-]1)c1ccccc1F (3D coordinates assigned)
O=S(=O)(/N=c1\cnc2ccccc2[n-]1)c1ccccc1F (optimized conformer: 42.71336844172615 kcal/mol)

>  <smiles>  (79) 
O=S(=O)(N=c1cnc2ccccc2[nH]1)c1ccccc1F

>  <score_type>  (79) 
oracle

>  <origin>  (79) 
adg

>  <m_score__min__energy>  (79) 
-9.3499999999999996

>  <m_primary>  (79) 
energy

$$$$
79:0
     RDKit          3D

 30 31  0  0  0  0  0  0  0  0999 V2000
   54.2842   21.8733   46.0444 H   0  0  0  0  0  0  0  0  0  0  0  0
   54.7880   22.8370   46.2100 C   0  0  0  0  0  0  0  0  0  0  0  0
   56.1890   23.0800   47.1110 S   0  0  0  0  0  0  0  0  0  0  0  0
   56.2020   24.7350   46.8310 C   0  0  0  0  0  0  0  0  0  0  0  0
   57.1100   25.5360   47.3060 N   0  0  0  0  0  0  0  0  0  0  0  0
   57.5560   26.7610   46.7030 C   0  0  0  0  0  0  0  0  0  0  0  0
   58.5500   27.3840   47.1680 O   0  0  0  0  0  0  0  0  0  0  0  0
   56.8820   27.2430   45.5330 N   0  0  0  0  0  0  0  0  0  0  0  0
   56.2540   26.5730   45.0310 H   0  0  0  0  0  0  0  0  0  0  0  0
   57.1010   28.5370   44.9470 C   0  0  0  0  0  0  0  0  0  0  0  0
   58.4160   28.9840   44.7400 C   0  0  0  0  0  0  0  0  0  0  0  0
   59.2624   28.3499   45.0424 H   0  0  0  0  0  0  0  0  0  0  0  0
   58.6570   30.2300   44.1520 C   0  0  0  0  0  0  0  0  0  0  0  0
   59.6902   30.5776   44.0050 H   0  0  0  0  0  0  0  0  0  0  0  0
   57.5860   31.0340   43.7510 C   0  0  0  0  0  0  0  0  0  0  0  0
   57.8890   32.5950   43.0100 Cl  0  0  0  0  0  0  0  0  0  0  0  0
   56.2730   30.5880   43.9320 C   0  0  0  0  0  0  0  0  0  0  0  0
   55.4300   31.2177   43.6112 H   0  0  0  0  0  0  0  0  0  0  0  0
   56.0300   29.3430   44.5200 C   0  0  0  0  0  0  0  0  0  0  0  0
   54.9956   28.9918   44.6494 H   0  0  0  0  0  0  0  0  0  0  0  0
   55.1620   25.1270   46.0620 N   0  0  0  0  0  0  0  0  0  0  0  0
   54.3790   24.0720   45.7110 C   0  0  0  0  0  0  0  0  0  0  0  0
   53.1400   24.2480   44.8860 C   0  0  0  0  0  0  0  0  0  0  0  0
   53.4235   24.5497   43.8669 H   0  0  0  0  0  0  0  0  0  0  0  0
   52.5109   25.0222   45.3495 H   0  0  0  0  0  0  0  0  0  0  0  0
   52.4090   23.0400   44.8270 O   0  0  0  0  0  0  0  0  0  0  0  0
   51.0260   23.3000   44.9320 C   0  0  0  0  0  0  0  0  0  0  0  0
   50.7425   23.3533   45.9935 H   0  0  0  0  0  0  0  0  0  0  0  0
   50.7947   24.2574   44.4422 H   0  0  0  0  0  0  0  0  0  0  0  0
   50.4628   22.4920   44.4422 H   0  0  0  0  0  0  0  0  0  0  0  0
  1  2  1  0
  2  3  1  0
  3  4  1  0
  4  5  2  0
  5  6  1  0
  6  7  2  0
  6  8  1  0
  8  9  1  0
  8 10  1  0
 10 11  2  0
 11 12  1  0
 11 13  1  0
 13 14  1  0
 13 15  2  0
 15 16  1  0
 15 17  1  0
 17 18  1  0
 17 19  2  0
 19 20  1  0
  4 21  1  0
 21 22  1  0
 22 23  1  0
 23 24  1  0
 23 25  1  0
 23 26  1  0
 26 27  1  0
 27 28  1  0
 27 29  1  0
 27 30  1  0
 22  2  2  0
 19 10  1  0
M  CHG  1  21  -1
M  END
>  <UniqueID>  (80) 
73

>  <SMILES>  (80) 
COCc1cs/c(=N/C(=O)Nc2ccc(Cl)cc2)[n-]1

>  <Energy>  (80) 
65.82917472464564

>  <Genealogy>  (80) 
COCc1csc(=NC(=O)Nc2ccc(Cl)cc2)[n-]1 (protonated)
COCc1cs/c(=N/C(=O)Nc2ccc(Cl)cc2)[n-]1 (cis-trans isomerization)
COCc1cs/c(=N/C(=O)Nc2ccc(Cl)cc2)[n-]1 (3D coordinates assigned)
COCc1cs/c(=N/C(=O)Nc2ccc(Cl)cc2)[n-]1 (optimized conformer: 65.82917472464564 kcal/mol)

>  <smiles>  (80) 
COCc1csc(=NC(=O)Nc2ccc(Cl)cc2)[nH]1

>  <score_type>  (80) 
oracle

>  <origin>  (80) 
adg

>  <m_score__min__energy>  (80) 
-8.3800000000000008

>  <m_primary>  (80) 
energy

$$$$
80:0
     RDKit          3D

 43 45  0  0  0  0  0  0  0  0999 V2000
   58.5560   31.5350   49.0940 C   0  0  0  0  0  0  0  0  0  0  0  0
   58.5650   30.3700   48.2770 O   0  0  0  0  0  0  0  0  0  0  0  0
   59.2810   29.1980   48.5670 C   0  0  0  0  0  0  0  0  0  0  0  0
   59.8350   28.9590   49.8400 C   0  0  0  0  0  0  0  0  0  0  0  0
   60.5710   27.7970   50.0830 C   0  0  0  0  0  0  0  0  0  0  0  0
   60.7660   26.8650   49.0630 C   0  0  0  0  0  0  0  0  0  0  0  0
   60.2190   27.0880   47.8000 C   0  0  0  0  0  0  0  0  0  0  0  0
   59.4630   28.2430   47.5460 C   0  0  0  0  0  0  0  0  0  0  0  0
   58.9000   28.4550   46.2350 N   0  0  0  0  0  0  0  0  0  0  0  0
   59.5500   29.4220   45.3400 C   0  0  0  0  0  0  0  0  0  0  0  0
   58.8170   30.7350   45.3700 C   0  0  0  0  0  0  0  0  0  0  0  0
   59.3610   31.8470   46.0300 C   0  0  0  0  0  0  0  0  0  0  0  0
   58.6890   33.0700   46.0070 C   0  0  0  0  0  0  0  0  0  0  0  0
   57.4790   33.1730   45.3180 C   0  0  0  0  0  0  0  0  0  0  0  0
   56.9650   32.0900   44.6780 N   0  0  0  0  0  0  0  0  0  0  0  0
   57.6010   30.8880   44.6870 C   0  0  0  0  0  0  0  0  0  0  0  0
   57.6000   27.9180   45.9030 C   0  0  0  0  0  0  0  0  0  0  0  0
   56.6150   28.6930   45.7640 O   0  0  0  0  0  0  0  0  0  0  0  0
   57.3820   26.4630   45.7500 C   0  0  0  0  0  0  0  0  0  0  0  0
   58.4890   25.6150   45.5870 C   0  0  0  0  0  0  0  0  0  0  0  0
   58.3050   24.2400   45.4100 C   0  0  0  0  0  0  0  0  0  0  0  0
   57.0180   23.6970   45.4050 C   0  0  0  0  0  0  0  0  0  0  0  0
   56.8500   22.3270   45.2220 O   0  0  0  0  0  0  0  0  0  0  0  0
   55.9100   24.5340   45.5890 C   0  0  0  0  0  0  0  0  0  0  0  0
   56.0870   25.9100   45.7710 C   0  0  0  0  0  0  0  0  0  0  0  0
   54.9750   26.7140   45.9960 O   0  0  0  0  0  0  0  0  0  0  0  0
   58.5583   31.2398   50.1536 H   0  0  0  0  0  0  0  0  0  0  0  0
   59.4495   32.1399   48.8800 H   0  0  0  0  0  0  0  0  0  0  0  0
   57.6533   32.1260   48.8800 H   0  0  0  0  0  0  0  0  0  0  0  0
   59.6871   29.6916   50.6471 H   0  0  0  0  0  0  0  0  0  0  0  0
   60.9978   27.6162   51.0806 H   0  0  0  0  0  0  0  0  0  0  0  0
   61.3516   25.9539   49.2554 H   0  0  0  0  0  0  0  0  0  0  0  0
   60.3811   26.3537   46.9971 H   0  0  0  0  0  0  0  0  0  0  0  0
   60.5884   29.5785   45.6674 H   0  0  0  0  0  0  0  0  0  0  0  0
   59.5342   29.0266   44.3137 H   0  0  0  0  0  0  0  0  0  0  0  0
   60.3173   31.7550   46.5657 H   0  0  0  0  0  0  0  0  0  0  0  0
   59.1085   33.9441   46.5266 H   0  0  0  0  0  0  0  0  0  0  0  0
   56.9410   34.1321   45.2932 H   0  0  0  0  0  0  0  0  0  0  0  0
   57.1599   30.0315   44.1562 H   0  0  0  0  0  0  0  0  0  0  0  0
   59.5060   26.0341   45.5986 H   0  0  0  0  0  0  0  0  0  0  0  0
   59.1771   23.5835   45.2742 H   0  0  0  0  0  0  0  0  0  0  0  0
   57.5540   21.7640   44.7590 H   0  0  0  0  0  0  0  0  0  0  0  0
   54.8960   24.1076   45.5904 H   0  0  0  0  0  0  0  0  0  0  0  0
  1  2  1  0
  2  3  1  0
  3  4  2  0
  4  5  1  0
  5  6  2  0
  6  7  1  0
  7  8  2  0
  8  9  1  0
  9 10  1  0
 10 11  1  0
 11 12  2  0
 12 13  1  0
 13 14  2  0
 14 15  1  0
 15 16  2  0
  9 17  1  0
 17 18  2  0
 17 19  1  0
 19 20  2  0
 20 21  1  0
 21 22  2  0
 22 23  1  0
 22 24  1  0
 24 25  2  0
 25 26  1  0
  8  3  1  0
 16 11  1  0
 25 19  1  0
  1 27  1  0
  1 28  1  0
  1 29  1  0
  4 30  1  0
  5 31  1  0
  6 32  1  0
  7 33  1  0
 10 34  1  0
 10 35  1  0
 12 36  1  0
 13 37  1  0
 14 38  1  0
 16 39  1  0
 20 40  1  0
 21 41  1  0
 23 42  1  0
 24 43  1  0
M  CHG  1  26  -1
M  END
>  <UniqueID>  (81) 
74

>  <SMILES>  (81) 
COc1ccccc1N(Cc1cccnc1)C(=O)c1ccc(O)cc1[O-]

>  <Energy>  (81) 
54.32078528140909

>  <Genealogy>  (81) 
COc1ccccc1N(Cc1cccnc1)C(=O)c1ccc(O)cc1[O-] (protonated)
COc1ccccc1N(Cc1cccnc1)C(=O)c1ccc(O)cc1[O-] (3D coordinates assigned)
COc1ccccc1N(Cc1cccnc1)C(=O)c1ccc(O)cc1[O-] (optimized conformer: 54.32078528140909 kcal/mol)

>  <smiles>  (81) 
COc1ccccc1N(Cc1cccnc1)C(=O)c1ccc(O)cc1O

>  <score_type>  (81) 
oracle

>  <origin>  (81) 
adg

>  <m_score__min__energy>  (81) 
-11.109999999999999

>  <m_primary>  (81) 
energy

$$$$
81:0
     RDKit          3D

 24 25  0  0  0  0  0  0  0  0999 V2000
   59.0888   34.9269   46.2151 H   0  0  0  0  0  0  0  0  0  0  0  0
   58.5960   34.1380   45.6280 C   0  0  0  0  0  0  0  0  0  0  0  0
   57.4080   33.0880   46.1930 S   0  0  0  0  0  0  0  0  0  0  0  0
   57.2450   32.2170   44.7600 C   0  0  0  0  0  0  0  0  0  0  0  0
   56.2350   31.2330   44.4830 N   0  0  0  0  0  0  0  0  0  0  0  0
   56.2190   30.0340   44.9250 N   0  0  0  0  0  0  0  0  0  0  0  0
   57.3630   29.1760   45.0600 C   0  0  0  0  0  0  0  0  0  0  0  0
   58.1720   29.2220   46.2080 C   0  0  0  0  0  0  0  0  0  0  0  0
   57.9093   29.8946   47.0378 H   0  0  0  0  0  0  0  0  0  0  0  0
   59.3100   28.4150   46.2980 C   0  0  0  0  0  0  0  0  0  0  0  0
   59.9301   28.4389   47.2063 H   0  0  0  0  0  0  0  0  0  0  0  0
   59.6610   27.5770   45.2340 C   0  0  0  0  0  0  0  0  0  0  0  0
   60.5514   26.9355   45.3089 H   0  0  0  0  0  0  0  0  0  0  0  0
   58.8790   27.5560   44.0760 C   0  0  0  0  0  0  0  0  0  0  0  0
   59.1598   26.9043   43.2355 H   0  0  0  0  0  0  0  0  0  0  0  0
   57.7390   28.3630   43.9840 C   0  0  0  0  0  0  0  0  0  0  0  0
   57.1367   28.3584   43.0635 H   0  0  0  0  0  0  0  0  0  0  0  0
   58.0880   32.7690   43.8030 C   0  0  0  0  0  0  0  0  0  0  0  0
   58.1260   32.3230   42.3730 C   0  0  0  0  0  0  0  0  0  0  0  0
   58.2193   31.2277   42.3329 H   0  0  0  0  0  0  0  0  0  0  0  0
   57.1984   32.6307   41.8682 H   0  0  0  0  0  0  0  0  0  0  0  0
   58.9882   32.7832   41.8682 H   0  0  0  0  0  0  0  0  0  0  0  0
   58.8490   33.8400   44.2950 C   0  0  0  0  0  0  0  0  0  0  0  0
   59.5775   34.3918   43.6828 H   0  0  0  0  0  0  0  0  0  0  0  0
  1  2  1  0
  2  3  1  0
  3  4  1  0
  4  5  1  0
  5  6  2  0
  6  7  1  0
  7  8  2  0
  8  9  1  0
  8 10  1  0
 10 11  1  0
 10 12  2  0
 12 13  1  0
 12 14  1  0
 14 15  1  0
 14 16  2  0
 16 17  1  0
  4 18  2  0
 18 19  1  0
 19 20  1  0
 19 21  1  0
 19 22  1  0
 18 23  1  0
 23 24  1  0
 23  2  2  0
 16  7  1  0
M  END
>  <UniqueID>  (82) 
75

>  <SMILES>  (82) 
Cc1ccsc1/N=N\c1ccccc1

>  <Energy>  (82) 
62.196048150077885

>  <Genealogy>  (82) 
Cc1ccsc1/N=N\c1ccccc1 (cis-trans isomerization)
Cc1ccsc1/N=N\c1ccccc1 (3D coordinates assigned)
Cc1ccsc1/N=N\c1ccccc1 (optimized conformer: 62.196048150077885 kcal/mol)

>  <smiles>  (82) 
Cc1ccsc1N=Nc1ccccc1

>  <score_type>  (82) 
oracle

>  <origin>  (82) 
adg

>  <m_score__min__energy>  (82) 
-6.3499999999999996

>  <m_primary>  (82) 
energy

$$$$
82:0
     RDKit          3D

 35 37  0  0  0  0  0  0  0  0999 V2000
   55.6386   24.2819   47.9620 H   0  0  0  0  0  0  0  0  0  0  0  0
   56.4180   24.5460   47.2320 C   0  0  0  0  0  0  0  0  0  0  0  0
   56.4170   25.8110   46.6410 C   0  0  0  0  0  0  0  0  0  0  0  0
   55.6363   26.5389   46.9068 H   0  0  0  0  0  0  0  0  0  0  0  0
   57.4080   26.1580   45.7090 C   0  0  0  0  0  0  0  0  0  0  0  0
   57.4000   27.4970   45.0890 C   0  0  0  0  0  0  0  0  0  0  0  0
   58.0160   27.8070   43.9290 N   0  0  0  0  0  0  0  0  0  0  0  0
   57.7810   29.0920   43.7080 N   0  0  0  0  0  0  0  0  0  0  0  0
   57.0270   29.5090   44.7400 C   0  0  0  0  0  0  0  0  0  0  0  0
   56.6170   30.7360   44.8680 N   0  0  0  0  0  0  0  0  0  0  0  0
   57.4090   31.8600   45.2870 C   0  0  0  0  0  0  0  0  0  0  0  0
   58.1470   31.8580   46.4880 C   0  0  0  0  0  0  0  0  0  0  0  0
   58.1430   30.9658   47.1313 H   0  0  0  0  0  0  0  0  0  0  0  0
   58.8830   32.9830   46.8650 C   0  0  0  0  0  0  0  0  0  0  0  0
   59.4754   32.9639   47.7917 H   0  0  0  0  0  0  0  0  0  0  0  0
   58.8710   34.1380   46.0680 C   0  0  0  0  0  0  0  0  0  0  0  0
   59.6920   35.3320   46.4550 C   0  0  0  0  0  0  0  0  0  0  0  0
   59.7411   35.4034   47.5516 H   0  0  0  0  0  0  0  0  0  0  0  0
   60.7086   35.2253   46.0486 H   0  0  0  0  0  0  0  0  0  0  0  0
   59.2285   36.2430   46.0486 H   0  0  0  0  0  0  0  0  0  0  0  0
   58.1290   34.1450   44.8790 C   0  0  0  0  0  0  0  0  0  0  0  0
   58.1266   35.0406   44.2404 H   0  0  0  0  0  0  0  0  0  0  0  0
   57.3920   33.0190   44.5010 C   0  0  0  0  0  0  0  0  0  0  0  0
   56.7936   33.0434   43.5783 H   0  0  0  0  0  0  0  0  0  0  0  0
   56.7920   28.5440   45.5950 O   0  0  0  0  0  0  0  0  0  0  0  0
   58.3990   25.2190   45.3770 C   0  0  0  0  0  0  0  0  0  0  0  0
   59.1789   25.4836   44.6478 H   0  0  0  0  0  0  0  0  0  0  0  0
   58.4020   23.9400   45.9710 C   0  0  0  0  0  0  0  0  0  0  0  0
   59.3740   22.9740   45.6670 O   0  0  0  0  0  0  0  0  0  0  0  0
   59.2600   22.0170   44.6190 C   0  0  0  0  0  0  0  0  0  0  0  0
   59.1403   21.0125   45.0511 H   0  0  0  0  0  0  0  0  0  0  0  0
   58.3839   22.2558   43.9981 H   0  0  0  0  0  0  0  0  0  0  0  0
   60.1676   22.0433   43.9981 H   0  0  0  0  0  0  0  0  0  0  0  0
   57.4050   23.6140   46.9000 C   0  0  0  0  0  0  0  0  0  0  0  0
   57.3920   22.3590   47.4960 O   0  0  0  0  0  0  0  0  0  0  0  0
  1  2  1  0
  2  3  2  0
  3  4  1  0
  3  5  1  0
  5  6  1  0
  6  7  2  0
  7  8  1  0
  8  9  1  0
  9 10  2  0
 10 11  1  0
 11 12  2  0
 12 13  1  0
 12 14  1  0
 14 15  1  0
 14 16  2  0
 16 17  1  0
 17 18  1  0
 17 19  1  0
 17 20  1  0
 16 21  1  0
 21 22  1  0
 21 23  2  0
 23 24  1  0
  9 25  1  0
  5 26  2  0
 26 27  1  0
 26 28  1  0
 28 29  1  0
 29 30  1  0
 30 31  1  0
 30 32  1  0
 30 33  1  0
 28 34  2  0
 34 35  1  0
 34  2  1  0
 25  6  1  0
 23 11  1  0
M  CHG  2   8  -1  35  -1
M  END
>  <UniqueID>  (83) 
76

>  <SMILES>  (83) 
COc1cc(-c2n[n-]/c(=N/c3ccc(C)cc3)o2)ccc1[O-]

>  <Energy>  (83) 
76.47276559928615

>  <Genealogy>  (83) 
COc1cc(-c2n[n-]c(=Nc3ccc(C)cc3)o2)ccc1[O-] (protonated)
COc1cc(-c2n[n-]/c(=N/c3ccc(C)cc3)o2)ccc1[O-] (cis-trans isomerization)
COc1cc(-c2n[n-]/c(=N/c3ccc(C)cc3)o2)ccc1[O-] (3D coordinates assigned)
COc1cc(-c2n[n-]/c(=N/c3ccc(C)cc3)o2)ccc1[O-] (optimized conformer: 76.47276559928615 kcal/mol)

>  <smiles>  (83) 
COc1cc(-c2n[nH]c(=Nc3ccc(C)cc3)o2)ccc1O

>  <score_type>  (83) 
oracle

>  <origin>  (83) 
adg

>  <m_score__min__energy>  (83) 
-10.960000000000001

>  <m_primary>  (83) 
energy

$$$$
83:0
     RDKit          3D

 32 34  0  0  0  0  0  0  0  0999 V2000
   56.9270   33.1720   45.2510 C   0  0  0  0  0  0  0  0  0  0  0  0
   58.1410   33.6900   45.9520 C   0  0  0  0  0  0  0  0  0  0  0  0
   58.3470   34.9600   46.2120 O   0  0  0  0  0  0  0  0  0  0  0  0
   59.4740   35.1240   46.8380 N   0  0  0  0  0  0  0  0  0  0  0  0
   60.0460   33.9150   47.0020 C   0  0  0  0  0  0  0  0  0  0  0  0
   61.3850   33.7050   47.5960 C   0  0  0  0  0  0  0  0  0  0  0  0
   62.4960   33.5410   46.7500 C   0  0  0  0  0  0  0  0  0  0  0  0
   63.7720   33.3480   47.2860 C   0  0  0  0  0  0  0  0  0  0  0  0
   63.9530   33.3220   48.6700 C   0  0  0  0  0  0  0  0  0  0  0  0
   62.8570   33.4830   49.5200 C   0  0  0  0  0  0  0  0  0  0  0  0
   61.5730   33.6760   48.9950 C   0  0  0  0  0  0  0  0  0  0  0  0
   60.2230   33.8020   50.1180 Cl  0  0  0  0  0  0  0  0  0  0  0  0
   59.2210   32.9580   46.4270 C   0  0  0  0  0  0  0  0  0  0  0  0
   59.4160   31.4920   46.3900 C   0  0  0  0  0  0  0  0  0  0  0  0
   60.0720   30.8310   47.4400 C   0  0  0  0  0  0  0  0  0  0  0  0
   60.2440   29.4440   47.4040 C   0  0  0  0  0  0  0  0  0  0  0  0
   59.7590   28.7040   46.3200 C   0  0  0  0  0  0  0  0  0  0  0  0
   59.9720   26.9640   46.2780 Cl  0  0  0  0  0  0  0  0  0  0  0  0
   59.1020   29.3540   45.2710 C   0  0  0  0  0  0  0  0  0  0  0  0
   58.9310   30.7420   45.3040 C   0  0  0  0  0  0  0  0  0  0  0  0
   56.1817   32.8540   45.9949 H   0  0  0  0  0  0  0  0  0  0  0  0
   56.5004   33.9665   44.6210 H   0  0  0  0  0  0  0  0  0  0  0  0
   57.2053   32.3143   44.6210 H   0  0  0  0  0  0  0  0  0  0  0  0
   59.8660   36.0480   47.1230 H   0  0  0  0  0  0  0  0  0  0  0  0
   62.3598   33.5648   45.6587 H   0  0  0  0  0  0  0  0  0  0  0  0
   64.6349   33.2164   46.6166 H   0  0  0  0  0  0  0  0  0  0  0  0
   64.9586   33.1747   49.0907 H   0  0  0  0  0  0  0  0  0  0  0  0
   63.0031   33.4581   50.6100 H   0  0  0  0  0  0  0  0  0  0  0  0
   60.4529   31.4074   48.2960 H   0  0  0  0  0  0  0  0  0  0  0  0
   60.7616   28.9335   48.2295 H   0  0  0  0  0  0  0  0  0  0  0  0
   58.7191   28.7734   44.4188 H   0  0  0  0  0  0  0  0  0  0  0  0
   58.4144   31.2494   44.4760 H   0  0  0  0  0  0  0  0  0  0  0  0
  1  2  1  0
  2  3  1  0
  3  4  1  0
  4  5  2  0
  5  6  1  0
  6  7  2  0
  7  8  1  0
  8  9  2  0
  9 10  1  0
 10 11  2  0
 11 12  1  0
  5 13  1  0
 13 14  1  0
 14 15  2  0
 15 16  1  0
 16 17  2  0
 17 18  1  0
 17 19  1  0
 19 20  2  0
 13  2  2  0
 20 14  1  0
 11  6  1  0
  1 21  1  0
  1 22  1  0
  1 23  1  0
  4 24  1  0
  7 25  1  0
  8 26  1  0
  9 27  1  0
 10 28  1  0
 15 29  1  0
 16 30  1  0
 19 31  1  0
 20 32  1  0
M  CHG  1   4   1
M  END
>  <UniqueID>  (84) 
77

>  <SMILES>  (84) 
Cc1o[nH+]c(-c2ccccc2Cl)c1-c1ccc(Cl)cc1

>  <Energy>  (84) 
75.07909788687725

>  <Genealogy>  (84) 
Cc1o[nH+]c(-c2ccccc2Cl)c1-c1ccc(Cl)cc1 (protonated)
Cc1o[nH+]c(-c2ccccc2Cl)c1-c1ccc(Cl)cc1 (3D coordinates assigned)
Cc1o[nH+]c(-c2ccccc2Cl)c1-c1ccc(Cl)cc1 (optimized conformer: 75.07909788687725 kcal/mol)

>  <smiles>  (84) 
Cc1onc(-c2ccccc2Cl)c1-c1ccc(Cl)cc1

>  <score_type>  (84) 
oracle

>  <origin>  (84) 
adg

>  <m_score__min__energy>  (84) 
-6.1600000000000001

>  <m_primary>  (84) 
energy

$$$$
84:0
     RDKit          3D

 17 18  0  0  0  0  0  0  0  0999 V2000
   55.5130   23.4680   47.4320 H   0  0  0  0  0  0  0  0  0  0  0  0
   55.2000   24.1700   46.7230 N   0  0  0  0  0  0  0  0  0  0  0  0
   55.9700   25.1370   46.3420 C   0  0  0  0  0  0  0  0  0  0  0  0
   55.4280   26.3500   46.0060 N   0  0  0  0  0  0  0  0  0  0  0  0
   56.2500   27.3530   45.6080 C   0  0  0  0  0  0  0  0  0  0  0  0
   57.6040   27.1960   45.5320 C   0  0  0  0  0  0  0  0  0  0  0  0
   58.2090   25.9880   45.8620 C   0  0  0  0  0  0  0  0  0  0  0  0
   59.2997   25.8590   45.8016 H   0  0  0  0  0  0  0  0  0  0  0  0
   57.3700   24.9380   46.2760 C   0  0  0  0  0  0  0  0  0  0  0  0
   57.8011   23.9633   46.5482 H   0  0  0  0  0  0  0  0  0  0  0  0
   58.1120   28.4020   45.0990 C   0  0  0  0  0  0  0  0  0  0  0  0
   59.4920   28.7330   44.8650 C   0  0  0  0  0  0  0  0  0  0  0  0
   60.6030   28.9980   44.6770 N   0  0  0  0  0  0  0  0  0  0  0  0
   57.0160   29.2430   44.9330 C   0  0  0  0  0  0  0  0  0  0  0  0
   57.0711   30.2881   44.5943 H   0  0  0  0  0  0  0  0  0  0  0  0
   55.8720   28.5910   45.2480 N   0  0  0  0  0  0  0  0  0  0  0  0
   54.9000   28.9730   45.2170 H   0  0  0  0  0  0  0  0  0  0  0  0
  1  2  1  0
  2  3  2  0
  3  4  1  0
  4  5  1  0
  5  6  2  0
  6  7  1  0
  7  8  1  0
  7  9  2  0
  9 10  1  0
  6 11  1  0
 11 12  1  0
 12 13  3  0
 11 14  2  0
 14 15  1  0
 14 16  1  0
 16 17  1  0
  9  3  1  0
 16  5  1  0
M  CHG  1   4  -1
M  END
>  <UniqueID>  (85) 
78

>  <SMILES>  (85) 
[H]/N=c1/ccc2c(C#N)c[nH]c2[n-]1

>  <Energy>  (85) 
52.31203540114973

>  <Genealogy>  (85) 
N#Cc1c[nH]c2[n-]c(=N)ccc12 (protonated)
[H]/N=c1/ccc2c(C#N)c[nH]c2[n-]1 (cis-trans isomerization)
[H]/N=c1/ccc2c(C#N)c[nH]c2[n-]1 (3D coordinates assigned)
[H]/N=c1/ccc2c(C#N)c[nH]c2[n-]1 (optimized conformer: 52.31203540114973 kcal/mol)

>  <smiles>  (85) 
N#Cc1c[nH]c2[nH]c(=N)ccc12

>  <score_type>  (85) 
oracle

>  <origin>  (85) 
adg

>  <m_score__min__energy>  (85) 
-6.8300000000000001

>  <m_primary>  (85) 
energy

$$$$
85:0
     RDKit          3D

 49 51  0  0  0  0  0  0  0  0999 V2000
   56.7490   24.2720   46.7910 C   0  0  0  0  0  0  0  0  0  0  0  0
   57.3380   25.5420   46.2470 C   0  0  0  0  0  0  0  0  0  0  0  0
   57.8270   26.5190   47.1170 C   0  0  0  0  0  0  0  0  0  0  0  0
   58.4190   27.6940   46.6260 C   0  0  0  0  0  0  0  0  0  0  0  0
   58.9070   28.7190   47.6200 C   0  0  0  0  0  0  0  0  0  0  0  0
   58.5160   27.9000   45.2210 C   0  0  0  0  0  0  0  0  0  0  0  0
   59.1640   29.1570   44.6580 C   0  0  0  0  0  0  0  0  0  0  0  0
   58.2590   30.3010   44.7510 N   0  0  0  0  0  0  0  0  0  0  0  0
   58.5870   31.5850   44.9840 C   0  0  0  0  0  0  0  0  0  0  0  0
   57.3980   32.2740   45.0550 C   0  0  0  0  0  0  0  0  0  0  0  0
   57.2300   33.7490   45.2540 C   0  0  0  0  0  0  0  0  0  0  0  0
   58.5310   34.4070   45.2970 N   0  0  0  0  0  0  0  0  0  0  0  0
   59.2530   34.6660   46.5060 C   0  0  0  0  0  0  0  0  0  0  0  0
   59.0100   35.7090   47.1710 O   0  0  0  0  0  0  0  0  0  0  0  0
   60.2900   33.7300   46.9840 C   0  0  0  0  0  0  0  0  0  0  0  0
   61.9170   33.8360   46.5550 S   0  0  0  0  0  0  0  0  0  0  0  0
   62.3690   32.4980   47.4620 C   0  0  0  0  0  0  0  0  0  0  0  0
   63.7460   31.9270   47.5130 C   0  0  0  0  0  0  0  0  0  0  0  0
   61.3010   31.9460   48.0770 N   0  0  0  0  0  0  0  0  0  0  0  0
   60.1420   32.6220   47.8340 C   0  0  0  0  0  0  0  0  0  0  0  0
   58.8420   32.1830   48.4400 C   0  0  0  0  0  0  0  0  0  0  0  0
   56.3870   31.4010   44.8700 N   0  0  0  0  0  0  0  0  0  0  0  0
   56.9400   30.2090   44.7000 N   0  0  0  0  0  0  0  0  0  0  0  0
   58.0450   26.8870   44.3410 C   0  0  0  0  0  0  0  0  0  0  0  0
   58.1370   27.0340   42.8430 C   0  0  0  0  0  0  0  0  0  0  0  0
   57.4640   25.7220   44.8680 C   0  0  0  0  0  0  0  0  0  0  0  0
   56.7633   24.3027   47.8905 H   0  0  0  0  0  0  0  0  0  0  0  0
   55.7114   24.1694   46.4405 H   0  0  0  0  0  0  0  0  0  0  0  0
   57.3410   23.4137   46.4405 H   0  0  0  0  0  0  0  0  0  0  0  0
   57.7472   26.3658   48.2034 H   0  0  0  0  0  0  0  0  0  0  0  0
   58.7319   28.3512   48.6418 H   0  0  0  0  0  0  0  0  0  0  0  0
   59.9834   28.8904   47.4714 H   0  0  0  0  0  0  0  0  0  0  0  0
   58.3615   29.6626   47.4714 H   0  0  0  0  0  0  0  0  0  0  0  0
   60.0793   29.3755   45.2275 H   0  0  0  0  0  0  0  0  0  0  0  0
   59.4011   28.9837   43.5979 H   0  0  0  0  0  0  0  0  0  0  0  0
   59.5998   31.9996   45.0951 H   0  0  0  0  0  0  0  0  0  0  0  0
   56.6419   34.1625   44.4215 H   0  0  0  0  0  0  0  0  0  0  0  0
   56.7097   33.9238   46.2073 H   0  0  0  0  0  0  0  0  0  0  0  0
   64.0517   31.8002   48.5620 H   0  0  0  0  0  0  0  0  0  0  0  0
   63.7569   30.9502   47.0073 H   0  0  0  0  0  0  0  0  0  0  0  0
   64.4449   32.6095   47.0073 H   0  0  0  0  0  0  0  0  0  0  0  0
   61.3610   31.0940   48.6760 H   0  0  0  0  0  0  0  0  0  0  0  0
   58.9212   32.2097   49.5368 H   0  0  0  0  0  0  0  0  0  0  0  0
   58.0384   32.8596   48.1138 H   0  0  0  0  0  0  0  0  0  0  0  0
   58.6131   31.1577   48.1138 H   0  0  0  0  0  0  0  0  0  0  0  0
   58.7059   27.9430   42.5980 H   0  0  0  0  0  0  0  0  0  0  0  0
   58.6474   26.1566   42.4191 H   0  0  0  0  0  0  0  0  0  0  0  0
   57.1248   27.1096   42.4191 H   0  0  0  0  0  0  0  0  0  0  0  0
   57.1028   24.9397   44.1843 H   0  0  0  0  0  0  0  0  0  0  0  0
  1  2  1  0
  2  3  2  0
  3  4  1  0
  4  5  1  0
  4  6  2  0
  6  7  1  0
  7  8  1  0
  8  9  1  0
  9 10  2  0
 10 11  1  0
 11 12  1  0
 12 13  1  0
 13 14  2  0
 13 15  1  0
 15 16  1  0
 16 17  1  0
 17 18  1  0
 17 19  2  0
 19 20  1  0
 20 21  1  0
 10 22  1  0
 22 23  2  0
  6 24  1  0
 24 25  1  0
 24 26  2  0
 26  2  1  0
 23  8  1  0
 20 15  2  0
  1 27  1  0
  1 28  1  0
  1 29  1  0
  3 30  1  0
  5 31  1  0
  5 32  1  0
  5 33  1  0
  7 34  1  0
  7 35  1  0
  9 36  1  0
 11 37  1  0
 11 38  1  0
 18 39  1  0
 18 40  1  0
 18 41  1  0
 19 42  1  0
 21 43  1  0
 21 44  1  0
 21 45  1  0
 25 46  1  0
 25 47  1  0
 25 48  1  0
 26 49  1  0
M  CHG  2  12  -1  19   1
M  END
>  <UniqueID>  (86) 
79

>  <SMILES>  (86) 
Cc1cc(C)c(Cn2cc(C[N-]C(=O)c3sc(C)[nH+]c3C)nn2)c(C)c1

>  <Energy>  (86) 
111.79431247177102

>  <Genealogy>  (86) 
Cc1cc(C)c(Cn2cc(C[N-]C(=O)c3sc(C)[nH+]c3C)nn2)c(C)c1 (protonated)
Cc1cc(C)c(Cn2cc(C[N-]C(=O)c3sc(C)[nH+]c3C)nn2)c(C)c1 (3D coordinates assigned)
Cc1cc(C)c(Cn2cc(C[N-]C(=O)c3sc(C)[nH+]c3C)nn2)c(C)c1 (optimized conformer: 111.79431247177102 kcal/mol)

>  <smiles>  (86) 
Cc1cc(C)c(Cn2cc(CNC(=O)c3sc(C)nc3C)nn2)c(C)c1

>  <score_type>  (86) 
oracle

>  <origin>  (86) 
adg

>  <m_score__min__energy>  (86) 
-10.17

>  <m_primary>  (86) 
energy

$$$$
86:0
     RDKit          3D

 35 36  0  0  0  0  0  0  0  0999 V2000
   60.4950   33.8530   49.8700 C   0  0  0  0  0  0  0  0  0  0  0  0
   60.6910   34.0810   48.4790 O   0  0  0  0  0  0  0  0  0  0  0  0
   59.8510   33.5900   47.4660 C   0  0  0  0  0  0  0  0  0  0  0  0
   58.8360   34.3770   46.8910 C   0  0  0  0  0  0  0  0  0  0  0  0
   58.0200   33.8540   45.8840 C   0  0  0  0  0  0  0  0  0  0  0  0
   58.2000   32.5370   45.4310 C   0  0  0  0  0  0  0  0  0  0  0  0
   57.3320   31.9830   44.3660 C   0  0  0  0  0  0  0  0  0  0  0  0
   57.5200   32.3110   43.1610 O   0  0  0  0  0  0  0  0  0  0  0  0
   56.2740   31.0740   44.6960 N   0  0  0  0  0  0  0  0  0  0  0  0
   56.2120   29.6970   44.2150 C   0  0  1  0  0  0  0  0  0  0  0  0
   56.2820   29.6880   42.6890 C   0  0  0  0  0  0  0  0  0  0  0  0
   57.3430   28.8780   44.8010 C   0  0  0  0  0  0  0  0  0  0  0  0
   57.0770   27.9070   45.7810 C   0  0  0  0  0  0  0  0  0  0  0  0
   58.1150   27.1370   46.3150 C   0  0  0  0  0  0  0  0  0  0  0  0
   59.4280   27.3240   45.8690 C   0  0  0  0  0  0  0  0  0  0  0  0
   60.7280   26.3580   46.5390 Cl  0  0  0  0  0  0  0  0  0  0  0  0
   59.7000   28.2810   44.8850 C   0  0  0  0  0  0  0  0  0  0  0  0
   58.6650   29.0520   44.3500 C   0  0  0  0  0  0  0  0  0  0  0  0
   59.2150   31.7530   46.0070 C   0  0  0  0  0  0  0  0  0  0  0  0
   60.0330   32.2750   47.0150 C   0  0  0  0  0  0  0  0  0  0  0  0
   61.2900   31.2620   47.7080 Cl  0  0  0  0  0  0  0  0  0  0  0  0
   61.1053   34.5629   50.4475 H   0  0  0  0  0  0  0  0  0  0  0  0
   59.4330   33.9954   50.1188 H   0  0  0  0  0  0  0  0  0  0  0  0
   60.7952   32.8244   50.1188 H   0  0  0  0  0  0  0  0  0  0  0  0
   58.6838   35.4103   47.2362 H   0  0  0  0  0  0  0  0  0  0  0  0
   57.2300   34.4793   45.4425 H   0  0  0  0  0  0  0  0  0  0  0  0
   55.2617   29.2458   44.5365 H   0  0  0  0  0  0  0  0  0  0  0  0
   57.3263   29.5537   42.3706 H   0  0  0  0  0  0  0  0  0  0  0  0
   55.6705   28.8611   42.2988 H   0  0  0  0  0  0  0  0  0  0  0  0
   55.8996   30.6427   42.2988 H   0  0  0  0  0  0  0  0  0  0  0  0
   56.0456   27.7515   46.1304 H   0  0  0  0  0  0  0  0  0  0  0  0
   57.8990   26.3834   47.0866 H   0  0  0  0  0  0  0  0  0  0  0  0
   60.7315   28.4266   44.5318 H   0  0  0  0  0  0  0  0  0  0  0  0
   58.8843   29.7987   43.5725 H   0  0  0  0  0  0  0  0  0  0  0  0
   59.3674   30.7197   45.6620 H   0  0  0  0  0  0  0  0  0  0  0  0
  1  2  1  0
  2  3  1  0
  3  4  2  0
  4  5  1  0
  5  6  2  0
  6  7  1  0
  7  8  2  0
  7  9  1  0
  9 10  1  0
 10 11  1  0
 10 12  1  0
 12 13  2  0
 13 14  1  0
 14 15  2  0
 15 16  1  0
 15 17  1  0
 17 18  2  0
  6 19  1  0
 19 20  2  0
 20 21  1  0
 20  3  1  0
 18 12  1  0
  1 22  1  0
  1 23  1  0
  1 24  1  0
  4 25  1  0
  5 26  1  0
 10 27  1  6
 11 28  1  0
 11 29  1  0
 11 30  1  0
 13 31  1  0
 14 32  1  0
 17 33  1  0
 18 34  1  0
 19 35  1  0
M  CHG  1   9  -1
M  END
>  <UniqueID>  (87) 
80

>  <SMILES>  (87) 
COc1ccc(C(=O)[N-][C@@H](C)c2ccc(Cl)cc2)cc1Cl

>  <Energy>  (87) 
31.58904850305602

>  <Genealogy>  (87) 
COc1ccc(C(=O)[N-]C(C)c2ccc(Cl)cc2)cc1Cl (protonated)
COc1ccc(C(=O)[N-][C@@H](C)c2ccc(Cl)cc2)cc1Cl (chirality)
COc1ccc(C(=O)[N-][C@@H](C)c2ccc(Cl)cc2)cc1Cl (3D coordinates assigned)
COc1ccc(C(=O)[N-][C@@H](C)c2ccc(Cl)cc2)cc1Cl (optimized conformer: 31.58904850305602 kcal/mol)

>  <smiles>  (87) 
COc1ccc(C(=O)NC(C)c2ccc(Cl)cc2)cc1Cl

>  <score_type>  (87) 
oracle

>  <origin>  (87) 
adg

>  <m_score__min__energy>  (87) 
-8.9700000000000006

>  <m_primary>  (87) 
energy

$$$$
87:0
     RDKit          3D

 35 37  0  0  0  0  0  0  0  0999 V2000
   55.9950   29.8770   43.0250 O   0  0  0  0  0  0  0  0  0  0  0  0
   56.0310   30.0950   44.2650 C   0  0  0  0  0  0  0  0  0  0  0  0
   56.2370   31.4210   44.7660 N   0  0  0  0  0  0  0  0  0  0  0  0
   57.4210   31.9210   45.4060 C   0  0  0  0  0  0  0  0  0  0  0  0
   57.5750   33.2790   45.7360 C   0  0  0  0  0  0  0  0  0  0  0  0
   58.7350   33.7210   46.3800 C   0  0  0  0  0  0  0  0  0  0  0  0
   59.7550   32.8140   46.7190 C   0  0  0  0  0  0  0  0  0  0  0  0
   60.9880   33.2830   47.4040 C   0  0  0  0  0  0  0  0  0  0  0  0
   62.2380   33.1990   46.7670 C   0  0  0  0  0  0  0  0  0  0  0  0
   63.3830   33.6460   47.4290 C   0  0  0  0  0  0  0  0  0  0  0  0
   63.2900   34.1580   48.6850 N   0  0  0  0  0  0  0  0  0  0  0  0
   62.0970   34.2520   49.3270 C   0  0  0  0  0  0  0  0  0  0  0  0
   60.9260   33.8180   48.7020 C   0  0  0  0  0  0  0  0  0  0  0  0
   59.5840   31.4530   46.4080 C   0  0  0  0  0  0  0  0  0  0  0  0
   58.4230   31.0130   45.7650 C   0  0  0  0  0  0  0  0  0  0  0  0
   55.8670   29.0220   45.2000 N   0  0  0  0  0  0  0  0  0  0  0  0
   56.6430   27.8160   45.2660 C   0  0  0  0  0  0  0  0  0  0  0  0
   57.9880   27.7730   44.8510 C   0  0  0  0  0  0  0  0  0  0  0  0
   58.7180   26.5850   44.9510 C   0  0  0  0  0  0  0  0  0  0  0  0
   58.1210   25.4360   45.4780 C   0  0  0  0  0  0  0  0  0  0  0  0
   59.1210   23.8160   45.6170 Br  0  0  0  0  0  0  0  0  0  0  0  0
   56.7940   25.4790   45.9140 C   0  0  0  0  0  0  0  0  0  0  0  0
   56.0600   26.6660   45.8160 C   0  0  0  0  0  0  0  0  0  0  0  0
   54.7740   26.6940   46.2470 F   0  0  0  0  0  0  0  0  0  0  0  0
   56.7797   33.9968   45.4866 H   0  0  0  0  0  0  0  0  0  0  0  0
   58.8507   34.7874   46.6236 H   0  0  0  0  0  0  0  0  0  0  0  0
   62.3138   32.7830   45.7515 H   0  0  0  0  0  0  0  0  0  0  0  0
   64.3629   33.5838   46.9331 H   0  0  0  0  0  0  0  0  0  0  0  0
   62.0529   34.6715   50.3429 H   0  0  0  0  0  0  0  0  0  0  0  0
   59.9602   33.8945   49.2230 H   0  0  0  0  0  0  0  0  0  0  0  0
   60.3693   30.7296   46.6725 H   0  0  0  0  0  0  0  0  0  0  0  0
   58.2964   29.9438   45.5395 H   0  0  0  0  0  0  0  0  0  0  0  0
   58.4659   28.6775   44.4467 H   0  0  0  0  0  0  0  0  0  0  0  0
   59.7647   26.5542   44.6142 H   0  0  0  0  0  0  0  0  0  0  0  0
   56.3254   24.5774   46.3353 H   0  0  0  0  0  0  0  0  0  0  0  0
  1  2  2  0
  2  3  1  0
  3  4  1  0
  4  5  2  0
  5  6  1  0
  6  7  2  0
  7  8  1  0
  8  9  2  0
  9 10  1  0
 10 11  2  0
 11 12  1  0
 12 13  2  0
  7 14  1  0
 14 15  2  0
  2 16  1  0
 16 17  1  0
 17 18  2  0
 18 19  1  0
 19 20  2  0
 20 21  1  0
 20 22  1  0
 22 23  2  0
 23 24  1  0
 15  4  1  0
 23 17  1  0
 13  8  1  0
  5 25  1  0
  6 26  1  0
  9 27  1  0
 10 28  1  0
 12 29  1  0
 13 30  1  0
 14 31  1  0
 15 32  1  0
 18 33  1  0
 19 34  1  0
 22 35  1  0
M  CHG  2   3  -1  16  -1
M  END
>  <UniqueID>  (88) 
81

>  <SMILES>  (88) 
O=C([N-]c1ccc(-c2ccncc2)cc1)[N-]c1ccc(Br)cc1F

>  <Energy>  (88) 
51.2609562261669

>  <Genealogy>  (88) 
O=C([N-]c1ccc(-c2ccncc2)cc1)[N-]c1ccc(Br)cc1F (protonated)
O=C([N-]c1ccc(-c2ccncc2)cc1)[N-]c1ccc(Br)cc1F (3D coordinates assigned)
O=C([N-]c1ccc(-c2ccncc2)cc1)[N-]c1ccc(Br)cc1F (optimized conformer: 51.2609562261669 kcal/mol)

>  <smiles>  (88) 
O=C(Nc1ccc(-c2ccncc2)cc1)Nc1ccc(Br)cc1F

>  <score_type>  (88) 
oracle

>  <origin>  (88) 
adg

>  <m_score__min__energy>  (88) 
-11.06

>  <m_primary>  (88) 
energy

$$$$
88:0
     RDKit          3D

 45 49  0  0  0  0  0  0  0  0999 V2000
   55.5040   29.7260   43.2460 C   0  0  0  0  0  0  0  0  0  0  0  0
   56.5270   29.7760   44.3340 C   0  0  0  0  0  0  0  0  0  0  0  0
   57.1270   28.6790   44.8550 N   0  0  0  0  0  0  0  0  0  0  0  0
   58.0170   29.1680   45.7580 C   0  0  0  0  0  0  0  0  0  0  0  0
   58.9600   28.3100   46.4940 C   0  0  0  0  0  0  0  0  0  0  0  0
   59.8710   27.5090   45.7900 C   0  0  0  0  0  0  0  0  0  0  0  0
   60.7750   26.6960   46.4820 C   0  0  0  0  0  0  0  0  0  0  0  0
   60.7840   26.6910   47.8790 C   0  0  0  0  0  0  0  0  0  0  0  0
   59.8970   27.5070   48.5880 C   0  0  0  0  0  0  0  0  0  0  0  0
   58.9930   28.3210   47.8990 C   0  0  0  0  0  0  0  0  0  0  0  0
   57.9290   30.5560   45.7700 C   0  0  0  0  0  0  0  0  0  0  0  0
   58.5650   31.5540   46.5190 C   0  0  0  0  0  0  0  0  0  0  0  0
   59.4490   31.2550   47.6100 N   0  0  0  0  0  0  0  0  0  0  0  0
   59.0870   31.6660   48.9670 C   0  0  0  0  0  0  0  0  0  0  0  0
   59.7440   33.0130   49.2720 C   0  0  0  0  0  0  0  0  0  0  0  0
   61.1950   33.0530   48.8430 C   0  0  0  0  0  0  0  0  0  0  0  0
   62.0230   34.0720   49.3410 C   0  0  0  0  0  0  0  0  0  0  0  0
   63.3510   34.1740   48.9200 C   0  0  0  0  0  0  0  0  0  0  0  0
   63.8630   33.2660   47.9910 C   0  0  0  0  0  0  0  0  0  0  0  0
   63.0480   32.2570   47.4760 C   0  0  0  0  0  0  0  0  0  0  0  0
   61.7080   32.1500   47.8800 C   0  0  0  0  0  0  0  0  0  0  0  0
   60.8690   31.0120   47.3520 C   0  0  0  0  0  0  0  0  0  0  0  0
   58.2500   32.8500   46.2310 N   0  0  0  0  0  0  0  0  0  0  0  0
   57.3370   33.1650   45.2640 C   0  0  0  0  0  0  0  0  0  0  0  0
   56.7020   32.1700   44.5820 N   0  0  0  0  0  0  0  0  0  0  0  0
   57.0160   30.9080   44.8640 N   0  0  0  0  0  0  0  0  0  0  0  0
   54.4987   29.6769   43.6899 H   0  0  0  0  0  0  0  0  0  0  0  0
   55.5862   30.6292   42.6236 H   0  0  0  0  0  0  0  0  0  0  0  0
   55.6739   28.8351   42.6236 H   0  0  0  0  0  0  0  0  0  0  0  0
   59.8747   27.5201   44.6901 H   0  0  0  0  0  0  0  0  0  0  0  0
   61.4794   26.0601   45.9257 H   0  0  0  0  0  0  0  0  0  0  0  0
   61.4894   26.0446   48.4217 H   0  0  0  0  0  0  0  0  0  0  0  0
   59.9105   27.5084   49.6879 H   0  0  0  0  0  0  0  0  0  0  0  0
   58.3053   28.9722   48.4584 H   0  0  0  0  0  0  0  0  0  0  0  0
   57.9940   31.7632   49.0435 H   0  0  0  0  0  0  0  0  0  0  0  0
   59.4341   30.9117   49.6885 H   0  0  0  0  0  0  0  0  0  0  0  0
   59.1953   33.8033   48.7388 H   0  0  0  0  0  0  0  0  0  0  0  0
   59.7100   33.1659   50.3608 H   0  0  0  0  0  0  0  0  0  0  0  0
   61.6231   34.7947   50.0675 H   0  0  0  0  0  0  0  0  0  0  0  0
   63.9945   34.9710   49.3210 H   0  0  0  0  0  0  0  0  0  0  0  0
   64.9104   33.3461   47.6646 H   0  0  0  0  0  0  0  0  0  0  0  0
   63.4583   31.5409   46.7488 H   0  0  0  0  0  0  0  0  0  0  0  0
   61.0284   30.9184   46.2676 H   0  0  0  0  0  0  0  0  0  0  0  0
   61.1682   30.0847   47.8625 H   0  0  0  0  0  0  0  0  0  0  0  0
   57.1152   34.2182   45.0367 H   0  0  0  0  0  0  0  0  0  0  0  0
  1  2  1  0
  2  3  2  0
  3  4  1  0
  4  5  1  0
  5  6  2  0
  6  7  1  0
  7  8  2  0
  8  9  1  0
  9 10  2  0
  4 11  2  0
 11 12  1  0
 12 13  1  0
 13 14  1  0
 14 15  1  0
 15 16  1  0
 16 17  2  0
 17 18  1  0
 18 19  2  0
 19 20  1  0
 20 21  2  0
 21 22  1  0
 12 23  2  0
 23 24  1  0
 24 25  2  0
 25 26  1  0
 26  2  1  0
 10  5  1  0
 26 11  1  0
 22 13  1  0
 21 16  1  0
  1 27  1  0
  1 28  1  0
  1 29  1  0
  6 30  1  0
  7 31  1  0
  8 32  1  0
  9 33  1  0
 10 34  1  0
 14 35  1  0
 14 36  1  0
 15 37  1  0
 15 38  1  0
 17 39  1  0
 18 40  1  0
 19 41  1  0
 20 42  1  0
 22 43  1  0
 22 44  1  0
 24 45  1  0
M  END
>  <UniqueID>  (89) 
82

>  <SMILES>  (89) 
Cc1nc(-c2ccccc2)c2c(N3CCc4ccccc4C3)ncnn12

>  <Energy>  (89) 
100.5850244688715

>  <Genealogy>  (89) 
Cc1nc(-c2ccccc2)c2c(N3CCc4ccccc4C3)ncnn12 (3D coordinates assigned)
Cc1nc(-c2ccccc2)c2c(N3CCc4ccccc4C3)ncnn12 (nonaromatic ring conformer: 100.5850244688715 kcal/mol)

>  <smiles>  (89) 
Cc1nc(-c2ccccc2)c2c(N3CCc4ccccc4C3)ncnn12

>  <score_type>  (89) 
oracle

>  <origin>  (89) 
adg

>  <m_score__min__energy>  (89) 
-7.9400000000000004

>  <m_primary>  (89) 
energy

$$$$
89:0
     RDKit          3D

 34 36  0  0  0  0  0  0  0  0999 V2000
   55.1661   30.8236   43.8916 H   0  0  0  0  0  0  0  0  0  0  0  0
   55.9130   30.1310   44.3070 C   0  0  0  0  0  0  0  0  0  0  0  0
   55.5140   28.9630   44.8710 N   0  0  0  0  0  0  0  0  0  0  0  0
   56.4140   28.0860   45.3930 C   0  0  0  0  0  0  0  0  0  0  0  0
   56.0310   26.9760   45.9550 N   0  0  0  0  0  0  0  0  0  0  0  0
   56.2360   25.6420   45.4610 C   0  0  0  0  0  0  0  0  0  0  0  0
   55.2430   24.6470   45.5590 C   0  0  0  0  0  0  0  0  0  0  0  0
   54.2859   24.8750   46.0509 H   0  0  0  0  0  0  0  0  0  0  0  0
   55.4690   23.3720   45.0340 C   0  0  0  0  0  0  0  0  0  0  0  0
   54.6960   22.5949   45.1271 H   0  0  0  0  0  0  0  0  0  0  0  0
   56.6770   23.0820   44.3900 C   0  0  0  0  0  0  0  0  0  0  0  0
   56.9570   21.4820   43.7290 Cl  0  0  0  0  0  0  0  0  0  0  0  0
   57.6540   24.0740   44.2620 C   0  0  0  0  0  0  0  0  0  0  0  0
   58.6006   23.8499   43.7484 H   0  0  0  0  0  0  0  0  0  0  0  0
   57.4290   25.3500   44.7860 C   0  0  0  0  0  0  0  0  0  0  0  0
   58.1943   26.1312   44.6677 H   0  0  0  0  0  0  0  0  0  0  0  0
   57.7370   28.3930   45.3710 N   0  0  0  0  0  0  0  0  0  0  0  0
   58.1880   29.5490   44.8180 C   0  0  0  0  0  0  0  0  0  0  0  0
   59.4220   29.7940   44.8200 O   0  0  0  0  0  0  0  0  0  0  0  0
   57.2740   30.4560   44.2530 C   0  0  0  0  0  0  0  0  0  0  0  0
   57.7170   31.7710   43.6610 C   0  0  0  0  0  0  0  0  0  0  0  0
   58.5766   31.5983   42.9967 H   0  0  0  0  0  0  0  0  0  0  0  0
   56.8818   32.2061   43.0926 H   0  0  0  0  0  0  0  0  0  0  0  0
   58.1170   32.7280   44.7510 C   0  0  0  0  0  0  0  0  0  0  0  0
   58.9030   33.8550   44.4550 C   0  0  0  0  0  0  0  0  0  0  0  0
   59.2073   34.0532   43.4167 H   0  0  0  0  0  0  0  0  0  0  0  0
   59.3000   34.7260   45.4760 C   0  0  0  0  0  0  0  0  0  0  0  0
   59.9098   35.6101   45.2383 H   0  0  0  0  0  0  0  0  0  0  0  0
   58.9220   34.4730   46.7970 C   0  0  0  0  0  0  0  0  0  0  0  0
   59.3100   35.3170   47.7860 F   0  0  0  0  0  0  0  0  0  0  0  0
   58.1490   33.3490   47.1010 C   0  0  0  0  0  0  0  0  0  0  0  0
   57.8542   33.1503   48.1420 H   0  0  0  0  0  0  0  0  0  0  0  0
   57.7500   32.4770   46.0840 C   0  0  0  0  0  0  0  0  0  0  0  0
   57.1462   31.5906   46.3282 H   0  0  0  0  0  0  0  0  0  0  0  0
  1  2  1  0
  2  3  1  0
  3  4  1  0
  4  5  2  0
  5  6  1  0
  6  7  2  0
  7  8  1  0
  7  9  1  0
  9 10  1  0
  9 11  2  0
 11 12  1  0
 11 13  1  0
 13 14  1  0
 13 15  2  0
 15 16  1  0
  4 17  1  0
 17 18  1  0
 18 19  2  0
 18 20  1  0
 20 21  1  0
 21 22  1  0
 21 23  1  0
 21 24  1  0
 24 25  2  0
 25 26  1  0
 25 27  1  0
 27 28  1  0
 27 29  2  0
 29 30  1  0
 29 31  1  0
 31 32  1  0
 31 33  2  0
 33 34  1  0
 20  2  2  0
 33 24  1  0
 15  6  1  0
M  CHG  2   3  -1  17  -1
M  END
>  <UniqueID>  (90) 
83

>  <SMILES>  (90) 
O=c1[n-]/c(=N/c2ccc(Cl)cc2)[n-]cc1Cc1ccc(F)cc1

>  <Energy>  (90) 
43.900821151041825

>  <Genealogy>  (90) 
O=c1[n-]c(=Nc2ccc(Cl)cc2)[n-]cc1Cc1ccc(F)cc1 (protonated)
O=c1[n-]/c(=N/c2ccc(Cl)cc2)[n-]cc1Cc1ccc(F)cc1 (cis-trans isomerization)
O=c1[n-]/c(=N/c2ccc(Cl)cc2)[n-]cc1Cc1ccc(F)cc1 (3D coordinates assigned)
O=c1[n-]/c(=N/c2ccc(Cl)cc2)[n-]cc1Cc1ccc(F)cc1 (optimized conformer: 43.900821151041825 kcal/mol)

>  <smiles>  (90) 
O=c1[nH]c(=Nc2ccc(Cl)cc2)[nH]cc1Cc1ccc(F)cc1

>  <score_type>  (90) 
oracle

>  <origin>  (90) 
adg

>  <m_score__min__energy>  (90) 
-11.380000000000001

>  <m_primary>  (90) 
energy

$$$$
90:0
     RDKit          3D

 31 32  0  0  0  0  0  0  0  0999 V2000
   59.2960   35.2620   47.1210 C   0  0  0  0  0  0  0  0  0  0  0  0
   60.4190   34.6070   46.3150 C   0  0  0  0  0  0  0  0  0  0  0  0
   60.4130   33.1300   46.4870 N   0  0  0  0  0  0  0  0  0  0  0  0
   61.4790   32.4970   47.1170 C   0  0  0  0  0  0  0  0  0  0  0  0
   62.6710   33.2600   47.6950 C   0  0  0  0  0  0  0  0  0  0  0  0
   63.3620   33.9630   46.7210 F   0  0  0  0  0  0  0  0  0  0  0  0
   62.2530   34.1800   48.6360 F   0  0  0  0  0  0  0  0  0  0  0  0
   63.5550   32.3680   48.2750 F   0  0  0  0  0  0  0  0  0  0  0  0
   61.4550   31.1050   47.2980 C   0  0  0  0  0  0  0  0  0  0  0  0
   60.3980   30.3450   46.8290 C   0  0  0  0  0  0  0  0  0  0  0  0
   60.4160   29.0950   47.0070 O   0  0  0  0  0  0  0  0  0  0  0  0
   59.3340   30.9660   46.1690 C   0  0  0  0  0  0  0  0  0  0  0  0
   58.2560   30.1990   45.6810 C   0  0  0  0  0  0  0  0  0  0  0  0
   57.1830   30.8100   45.0160 C   0  0  0  0  0  0  0  0  0  0  0  0
   56.0910   30.0830   44.5150 O   0  0  0  0  0  0  0  0  0  0  0  0
   55.9240   29.7170   43.1490 C   0  0  0  0  0  0  0  0  0  0  0  0
   57.1920   32.1890   44.8410 C   0  0  0  0  0  0  0  0  0  0  0  0
   58.2500   32.9640   45.3180 C   0  0  0  0  0  0  0  0  0  0  0  0
   59.3500   32.3770   45.9970 C   0  0  0  0  0  0  0  0  0  0  0  0
   59.4989   35.1437   48.1956 H   0  0  0  0  0  0  0  0  0  0  0  0
   59.2433   36.3325   46.8735 H   0  0  0  0  0  0  0  0  0  0  0  0
   58.3383   34.7809   46.8735 H   0  0  0  0  0  0  0  0  0  0  0  0
   60.2820   34.8448   45.2498 H   0  0  0  0  0  0  0  0  0  0  0  0
   61.3815   34.9962   46.6784 H   0  0  0  0  0  0  0  0  0  0  0  0
   62.2881   30.6116   47.8200 H   0  0  0  0  0  0  0  0  0  0  0  0
   58.2567   29.1083   45.8236 H   0  0  0  0  0  0  0  0  0  0  0  0
   55.4680   28.7177   43.0903 H   0  0  0  0  0  0  0  0  0  0  0  0
   55.2704   30.4481   42.6508 H   0  0  0  0  0  0  0  0  0  0  0  0
   56.9046   29.7025   42.6508 H   0  0  0  0  0  0  0  0  0  0  0  0
   56.3544   32.6756   44.3198 H   0  0  0  0  0  0  0  0  0  0  0  0
   58.2313   34.0531   45.1646 H   0  0  0  0  0  0  0  0  0  0  0  0
  1  2  1  0
  2  3  1  0
  3  4  1  0
  4  5  1  0
  5  6  1  0
  5  7  1  0
  5  8  1  0
  4  9  2  0
  9 10  1  0
 10 11  2  0
 10 12  1  0
 12 13  2  0
 13 14  1  0
 14 15  1  0
 15 16  1  0
 14 17  2  0
 17 18  1  0
 18 19  2  0
 19  3  1  0
 19 12  1  0
  1 20  1  0
  1 21  1  0
  1 22  1  0
  2 23  1  0
  2 24  1  0
  9 25  1  0
 13 26  1  0
 16 27  1  0
 16 28  1  0
 16 29  1  0
 17 30  1  0
 18 31  1  0
M  END
>  <UniqueID>  (91) 
84

>  <SMILES>  (91) 
CCn1c(C(F)(F)F)cc(=O)c2cc(OC)ccc21

>  <Energy>  (91) 
46.18512169357294

>  <Genealogy>  (91) 
CCn1c(C(F)(F)F)cc(=O)c2cc(OC)ccc21 (3D coordinates assigned)
CCn1c(C(F)(F)F)cc(=O)c2cc(OC)ccc21 (optimized conformer: 46.18512169357294 kcal/mol)

>  <smiles>  (91) 
CCn1c(C(F)(F)F)cc(=O)c2cc(OC)ccc21

>  <score_type>  (91) 
oracle

>  <origin>  (91) 
adg

>  <m_score__min__energy>  (91) 
-5.3899999999999997

>  <m_primary>  (91) 
energy

$$$$
