0:0
     RDKit          3D

 68 72  0  0  0  0  0  0  0  0999 V2000
   57.9277   27.4791   46.1340 H   0  0  0  0  0  0  0  0  0  0  0  0
   57.5340   27.0540   45.1990 C   0  0  0  0  0  0  0  0  0  0  0  0
   57.6650   27.7410   44.1010 N   0  0  0  0  0  0  0  0  0  0  0  0
   57.8580   29.1920   44.0020 C   0  0  1  0  0  0  0  0  0  0  0  0
   57.8929   29.4670   42.9375 H   0  0  0  0  0  0  0  0  0  0  0  0
   56.7000   29.9290   44.6290 C   0  0  0  0  0  0  0  0  0  0  0  0
   56.8050   31.1620   44.8550 O   0  0  0  0  0  0  0  0  0  0  0  0
   55.4990   29.2470   44.9890 N   0  0  0  0  0  0  0  0  0  0  0  0
   55.3850   28.2270   44.8060 H   0  0  0  0  0  0  0  0  0  0  0  0
   54.6980   29.7710   45.4080 H   0  0  0  0  0  0  0  0  0  0  0  0
   59.1970   29.6060   44.6400 C   0  0  0  0  0  0  0  0  0  0  0  0
   59.9063   28.7725   44.5298 H   0  0  0  0  0  0  0  0  0  0  0  0
   59.5328   30.5152   44.1199 H   0  0  0  0  0  0  0  0  0  0  0  0
   59.0910   29.9510   46.1070 C   0  0  0  0  0  0  0  0  0  0  0  0
   59.0120   31.2890   46.5210 C   0  0  0  0  0  0  0  0  0  0  0  0
   59.0407   32.0958   45.7738 H   0  0  0  0  0  0  0  0  0  0  0  0
   58.8970   31.6020   47.8790 C   0  0  0  0  0  0  0  0  0  0  0  0
   58.8234   32.6535   48.1936 H   0  0  0  0  0  0  0  0  0  0  0  0
   58.8750   30.5830   48.8420 C   0  0  0  0  0  0  0  0  0  0  0  0
   58.7210   30.9100   50.2380 N   0  0  0  0  0  0  0  0  0  0  0  0
   59.1340   29.9480   51.2650 C   0  0  0  0  0  0  0  0  0  0  0  0
   58.3505   29.8702   52.0332 H   0  0  0  0  0  0  0  0  0  0  0  0
   59.2907   28.9606   50.8063 H   0  0  0  0  0  0  0  0  0  0  0  0
   60.4380   30.4310   51.9090 C   0  0  0  0  0  0  0  0  0  0  0  0
   60.4876   30.0594   52.9431 H   0  0  0  0  0  0  0  0  0  0  0  0
   61.2834   30.0457   51.3200 H   0  0  0  0  0  0  0  0  0  0  0  0
   60.5070   31.9020   51.9220 N   0  0  0  0  0  0  0  0  0  0  0  0
   61.7890   32.5410   52.0530 C   0  0  0  0  0  0  0  0  0  0  0  0
   62.6360   32.0770   52.8620 O   0  0  0  0  0  0  0  0  0  0  0  0
   62.1250   33.7620   51.2460 C   0  0  0  0  0  0  0  0  0  0  0  0
   61.2866   34.4718   51.3022 H   0  0  0  0  0  0  0  0  0  0  0  0
   63.0405   34.2120   51.6575 H   0  0  0  0  0  0  0  0  0  0  0  0
   62.3720   33.4080   49.8090 C   0  0  0  0  0  0  0  0  0  0  0  0
   63.4690   32.7170   49.3010 C   0  0  0  0  0  0  0  0  0  0  0  0
   64.2830   32.2965   49.9098 H   0  0  0  0  0  0  0  0  0  0  0  0
   63.3920   32.6360   47.9520 N   0  0  0  0  0  0  0  0  0  0  0  0
   64.0830   32.1820   47.3150 H   0  0  0  0  0  0  0  0  0  0  0  0
   62.2580   33.2660   47.6040 C   0  0  0  0  0  0  0  0  0  0  0  0
   61.7640   33.4710   46.3170 C   0  0  0  0  0  0  0  0  0  0  0  0
   62.2960   33.0820   45.4363 H   0  0  0  0  0  0  0  0  0  0  0  0
   60.5620   34.1920   46.1800 C   0  0  0  0  0  0  0  0  0  0  0  0
   60.1499   34.3819   45.1779 H   0  0  0  0  0  0  0  0  0  0  0  0
   59.8820   34.6730   47.3210 C   0  0  0  0  0  0  0  0  0  0  0  0
   58.9394   35.2275   47.2027 H   0  0  0  0  0  0  0  0  0  0  0  0
   60.4030   34.4470   48.6060 C   0  0  0  0  0  0  0  0  0  0  0  0
   59.8785   34.8097   49.5023 H   0  0  0  0  0  0  0  0  0  0  0  0
   61.6050   33.7490   48.7100 C   0  0  0  0  0  0  0  0  0  0  0  0
   59.2660   32.6870   51.8820 C   0  0  0  0  0  0  0  0  0  0  0  0
   58.6937   32.5064   52.8039 H   0  0  0  0  0  0  0  0  0  0  0  0
   59.5226   33.7533   51.7972 H   0  0  0  0  0  0  0  0  0  0  0  0
   58.4100   32.2830   50.6670 C   0  0  0  0  0  0  0  0  0  0  0  0
   57.3462   32.3426   50.9403 H   0  0  0  0  0  0  0  0  0  0  0  0
   58.6327   32.9693   49.8367 H   0  0  0  0  0  0  0  0  0  0  0  0
   58.9610   29.2460   48.4240 C   0  0  0  0  0  0  0  0  0  0  0  0
   58.9519   28.4393   49.1718 H   0  0  0  0  0  0  0  0  0  0  0  0
   59.0580   28.9310   47.0680 C   0  0  0  0  0  0  0  0  0  0  0  0
   59.1087   27.8786   46.7521 H   0  0  0  0  0  0  0  0  0  0  0  0
   56.8810   25.7300   45.2470 C   0  0  0  0  0  0  0  0  0  0  0  0
   57.6300   24.5910   44.9160 C   0  0  0  0  0  0  0  0  0  0  0  0
   58.6967   24.6894   44.6661 H   0  0  0  0  0  0  0  0  0  0  0  0
   57.0250   23.3330   44.9030 C   0  0  0  0  0  0  0  0  0  0  0  0
   57.6109   22.4445   44.6250 H   0  0  0  0  0  0  0  0  0  0  0  0
   55.6750   23.2010   45.2430 C   0  0  0  0  0  0  0  0  0  0  0  0
   55.1980   22.2100   45.2240 H   0  0  0  0  0  0  0  0  0  0  0  0
   54.9310   24.3270   45.6070 C   0  0  0  0  0  0  0  0  0  0  0  0
   53.8715   24.2188   45.8824 H   0  0  0  0  0  0  0  0  0  0  0  0
   55.5300   25.5910   45.6220 C   0  0  0  0  0  0  0  0  0  0  0  0
   54.7840   26.6950   46.0240 O   0  0  0  0  0  0  0  0  0  0  0  0
  1  2  1  0
  2  3  2  0
  3  4  1  0
  4  5  1  6
  4  6  1  0
  6  7  2  0
  6  8  1  0
  8  9  1  0
  8 10  1  0
  4 11  1  0
 11 12  1  0
 11 13  1  0
 11 14  1  0
 14 15  2  0
 15 16  1  0
 15 17  1  0
 17 18  1  0
 17 19  2  0
 19 20  1  0
 20 21  1  0
 21 22  1  0
 21 23  1  0
 21 24  1  0
 24 25  1  0
 24 26  1  0
 24 27  1  0
 27 28  1  0
 28 29  2  0
 28 30  1  0
 30 31  1  0
 30 32  1  0
 30 33  1  0
 33 34  2  0
 34 35  1  0
 34 36  1  0
 36 37  1  0
 36 38  1  0
 38 39  2  0
 39 40  1  0
 39 41  1  0
 41 42  1  0
 41 43  2  0
 43 44  1  0
 43 45  1  0
 45 46  1  0
 45 47  2  0
 27 48  1  0
 48 49  1  0
 48 50  1  0
 48 51  1  0
 51 52  1  0
 51 53  1  0
 19 54  1  0
 54 55  1  0
 54 56  2  0
 56 57  1  0
  2 58  1  0
 58 59  2  0
 59 60  1  0
 59 61  1  0
 61 62  1  0
 61 63  2  0
 63 64  1  0
 63 65  1  0
 65 66  1  0
 65 67  2  0
 67 68  1  0
 56 14  1  0
 67 58  1  0
 51 20  1  0
 47 33  1  0
 47 38  1  0
M  CHG  1  68  -1
M  END
>  <UniqueID>  (1) 
1

>  <SMILES>  (1) 
NC(=O)[C@@H](Cc1ccc(N2CCN(C(=O)Cc3c[nH]c4ccccc34)CC2)cc1)/N=C\c1ccccc1[O-]

>  <Energy>  (1) 
117.92239369247056

>  <Genealogy>  (1) 
NC(=O)C(Cc1ccc(N2CCN(C(=O)Cc3c[nH]c4ccccc34)CC2)cc1)N=Cc1ccccc1[O-] (protonated)
NC(=O)[C@@H](Cc1ccc(N2CCN(C(=O)Cc3c[nH]c4ccccc34)CC2)cc1)N=Cc1ccccc1[O-] (chirality)
NC(=O)[C@@H](Cc1ccc(N2CCN(C(=O)Cc3c[nH]c4ccccc34)CC2)cc1)/N=C\c1ccccc1[O-] (cis-trans isomerization)
NC(=O)[C@@H](Cc1ccc(N2CCN(C(=O)Cc3c[nH]c4ccccc34)CC2)cc1)/N=C\c1ccccc1[O-] (3D coordinates assigned)
NC(=O)[C@@H](Cc1ccc(N2CCN(C(=O)Cc3c[nH]c4ccccc34)CC2)cc1)/N=C\c1ccccc1[O-] (nonaromatic ring conformer: 117.92239369247056 kcal/mol)

>  <smiles>  (1) 
NC(=O)C(Cc1ccc(N2CCN(C(=O)Cc3c[nH]c4ccccc34)CC2)cc1)N=Cc1ccccc1O

>  <score_type>  (1) 
oracle

>  <origin>  (1) 
adg

>  <m_score__min__energy>  (1) 
-14.720000000000001

>  <m_primary>  (1) 
energy

$$$$
1:0
     RDKit          3D

 37 39  0  0  0  0  0  0  0  0999 V2000
   55.5140   28.9530   44.8820 N   0  0  0  0  0  0  0  0  0  0  0  0
   56.5400   29.7160   44.2500 C   0  0  0  0  0  0  0  0  0  0  0  0
   56.9290   29.3840   43.0980 O   0  0  0  0  0  0  0  0  0  0  0  0
   57.1630   30.8620   44.9590 C   0  0  0  0  0  0  0  0  0  0  0  0
   56.6560   32.1540   44.7370 C   0  0  0  0  0  0  0  0  0  0  0  0
   57.1460   33.2170   45.4230 N   0  0  0  0  0  0  0  0  0  0  0  0
   58.1370   33.0900   46.3460 C   0  0  0  0  0  0  0  0  0  0  0  0
   58.5990   34.1250   46.9840 N   0  0  0  0  0  0  0  0  0  0  0  0
   59.8980   34.7130   46.8110 C   0  0  0  0  0  0  0  0  0  0  0  0
   60.0200   35.6740   46.0050 O   0  0  0  0  0  0  0  0  0  0  0  0
   61.1030   34.1890   47.4990 C   0  0  0  0  0  0  0  0  0  0  0  0
   62.1650   33.6520   46.7520 C   0  0  0  0  0  0  0  0  0  0  0  0
   63.2990   33.1470   47.3960 C   0  0  0  0  0  0  0  0  0  0  0  0
   63.3790   33.1630   48.7910 C   0  0  0  0  0  0  0  0  0  0  0  0
   64.8020   32.5300   49.5980 Cl  0  0  0  0  0  0  0  0  0  0  0  0
   62.3190   33.6800   49.5440 C   0  0  0  0  0  0  0  0  0  0  0  0
   61.1840   34.1850   48.9030 C   0  0  0  0  0  0  0  0  0  0  0  0
   58.6950   31.8320   46.5860 C   0  0  0  0  0  0  0  0  0  0  0  0
   58.2230   30.7080   45.8910 C   0  0  0  0  0  0  0  0  0  0  0  0
   58.9010   29.4100   46.1190 C   0  0  0  0  0  0  0  0  0  0  0  0
   58.4910   28.5740   47.1710 C   0  0  0  0  0  0  0  0  0  0  0  0
   59.1440   27.3590   47.4000 C   0  0  0  0  0  0  0  0  0  0  0  0
   60.2150   26.9750   46.5880 C   0  0  0  0  0  0  0  0  0  0  0  0
   60.6370   27.8090   45.5480 C   0  0  0  0  0  0  0  0  0  0  0  0
   59.9870   29.0240   45.3160 C   0  0  0  0  0  0  0  0  0  0  0  0
   54.5980   29.3870   45.1320 H   0  0  0  0  0  0  0  0  0  0  0  0
   55.8538   32.3048   43.9996 H   0  0  0  0  0  0  0  0  0  0  0  0
   62.1041   33.6287   45.6539 H   0  0  0  0  0  0  0  0  0  0  0  0
   64.1297   32.7364   46.8032 H   0  0  0  0  0  0  0  0  0  0  0  0
   62.3789   33.6891   50.6423 H   0  0  0  0  0  0  0  0  0  0  0  0
   60.3496   34.5815   49.5001 H   0  0  0  0  0  0  0  0  0  0  0  0
   59.5059   31.7223   47.3211 H   0  0  0  0  0  0  0  0  0  0  0  0
   57.6534   28.8763   47.8168 H   0  0  0  0  0  0  0  0  0  0  0  0
   58.8144   26.7044   48.2203 H   0  0  0  0  0  0  0  0  0  0  0  0
   60.7256   26.0173   46.7670 H   0  0  0  0  0  0  0  0  0  0  0  0
   61.4821   27.5081   44.9114 H   0  0  0  0  0  0  0  0  0  0  0  0
   60.3270   29.6806   44.5016 H   0  0  0  0  0  0  0  0  0  0  0  0
  1  2  1  0
  2  3  2  0
  2  4  1  0
  4  5  2  0
  5  6  1  0
  6  7  1  0
  7  8  2  3
  8  9  1  0
  9 10  2  0
  9 11  1  0
 11 12  2  0
 12 13  1  0
 13 14  2  0
 14 15  1  0
 14 16  1  0
 16 17  2  0
  7 18  1  0
 18 19  2  0
 19 20  1  0
 20 21  2  0
 21 22  1  0
 22 23  2  0
 23 24  1  0
 24 25  2  0
 19  4  1  0
 25 20  1  0
 17 11  1  0
  1 26  1  0
  5 27  1  0
 12 28  1  0
 13 29  1  0
 16 30  1  0
 17 31  1  0
 18 32  1  0
 21 33  1  0
 22 34  1  0
 23 35  1  0
 24 36  1  0
 25 37  1  0
M  CHG  2   1  -1   6  -1
M  END
>  <UniqueID>  (2) 
2

>  <SMILES>  (2) 
[NH-]C(=O)c1c[n-]c(=NC(=O)c2ccc(Cl)cc2)cc1-c1ccccc1

>  <Energy>  (2) 
58.90884446396307

>  <Genealogy>  (2) 
[NH-]C(=O)c1c[n-]c(=NC(=O)c2ccc(Cl)cc2)cc1-c1ccccc1 (protonated)
[NH-]C(=O)c1c[n-]c(=NC(=O)c2ccc(Cl)cc2)cc1-c1ccccc1 (3D coordinates assigned)
[NH-]C(=O)c1c[n-]c(=NC(=O)c2ccc(Cl)cc2)cc1-c1ccccc1 (optimized conformer: 58.90884446396307 kcal/mol)

>  <smiles>  (2) 
NC(=O)c1c[nH]c(=NC(=O)c2ccc(Cl)cc2)cc1-c1ccccc1

>  <score_type>  (2) 
oracle

>  <origin>  (2) 
adg

>  <m_score__min__energy>  (2) 
-13.08

>  <m_primary>  (2) 
energy

$$$$
2:0
     RDKit          3D

 27 28  0  0  0  0  0  0  0  0999 V2000
   57.6638   30.5812   43.0544 H   0  0  0  0  0  0  0  0  0  0  0  0
   57.5250   30.4290   44.1350 C   0  0  0  0  0  0  0  0  0  0  0  0
   57.0680   31.4010   44.8680 N   0  0  0  0  0  0  0  0  0  0  0  0
   57.8490   32.3290   45.6430 C   0  0  0  0  0  0  0  0  0  0  0  0
   58.4620   31.8590   46.8120 C   0  0  0  0  0  0  0  0  0  0  0  0
   58.3422   30.8055   47.1048 H   0  0  0  0  0  0  0  0  0  0  0  0
   59.2250   32.7180   47.6100 C   0  0  0  0  0  0  0  0  0  0  0  0
   59.7090   32.3364   48.5211 H   0  0  0  0  0  0  0  0  0  0  0  0
   59.3730   34.0600   47.2510 C   0  0  0  0  0  0  0  0  0  0  0  0
   60.1310   34.9130   48.0440 O   0  0  0  0  0  0  0  0  0  0  0  0
   58.7530   34.5450   46.0950 C   0  0  0  0  0  0  0  0  0  0  0  0
   58.8657   35.6027   45.8149 H   0  0  0  0  0  0  0  0  0  0  0  0
   57.9900   33.6890   45.2940 C   0  0  0  0  0  0  0  0  0  0  0  0
   57.4986   34.0770   44.3896 H   0  0  0  0  0  0  0  0  0  0  0  0
   57.8610   29.1180   44.7400 C   0  0  0  0  0  0  0  0  0  0  0  0
   59.1980   28.6880   44.8120 C   0  0  0  0  0  0  0  0  0  0  0  0
   59.9994   29.3280   44.4143 H   0  0  0  0  0  0  0  0  0  0  0  0
   59.5150   27.4580   45.3830 C   0  0  0  0  0  0  0  0  0  0  0  0
   60.5643   27.1317   45.4340 H   0  0  0  0  0  0  0  0  0  0  0  0
   58.5080   26.6390   45.8900 C   0  0  0  0  0  0  0  0  0  0  0  0
   58.7703   25.6702   46.3400 H   0  0  0  0  0  0  0  0  0  0  0  0
   57.1590   27.0370   45.8330 C   0  0  0  0  0  0  0  0  0  0  0  0
   56.1340   26.1670   46.3620 N   0  0  0  0  0  0  0  0  0  0  0  0
   56.4290   25.2630   47.1710 O   0  0  0  0  0  0  0  0  0  0  0  0
   54.8220   26.2870   45.9670 O   0  0  0  0  0  0  0  0  0  0  0  0
   56.8410   28.2900   45.2570 C   0  0  0  0  0  0  0  0  0  0  0  0
   55.5190   28.7210   45.2020 O   0  0  0  0  0  0  0  0  0  0  0  0
  1  2  1  0
  2  3  2  0
  3  4  1  0
  4  5  2  0
  5  6  1  0
  5  7  1  0
  7  8  1  0
  7  9  2  0
  9 10  1  0
  9 11  1  0
 11 12  1  0
 11 13  2  0
 13 14  1  0
  2 15  1  0
 15 16  2  0
 16 17  1  0
 16 18  1  0
 18 19  1  0
 18 20  2  0
 20 21  1  0
 20 22  1  0
 22 23  1  0
 23 24  2  0
 23 25  1  0
 22 26  2  0
 26 27  1  0
 13  4  1  0
 26 15  1  0
M  CHG  4  10  -1  23   1  25  -1  27  -1
M  END
>  <UniqueID>  (3) 
3

>  <SMILES>  (3) 
O=[N+]([O-])c1cccc(/C=N/c2ccc([O-])cc2)c1[O-]

>  <Energy>  (3) 
35.134411854315665

>  <Genealogy>  (3) 
O=[N+]([O-])c1cccc(C=Nc2ccc([O-])cc2)c1[O-] (protonated)
O=[N+]([O-])c1cccc(/C=N/c2ccc([O-])cc2)c1[O-] (cis-trans isomerization)
O=[N+]([O-])c1cccc(/C=N/c2ccc([O-])cc2)c1[O-] (3D coordinates assigned)
O=[N+]([O-])c1cccc(/C=N/c2ccc([O-])cc2)c1[O-] (optimized conformer: 35.134411854315665 kcal/mol)

>  <smiles>  (3) 
O=[N+]([O-])c1cccc(C=Nc2ccc(O)cc2)c1O

>  <score_type>  (3) 
oracle

>  <origin>  (3) 
adg

>  <m_score__min__energy>  (3) 
-12.539999999999999

>  <m_primary>  (3) 
energy

$$$$
3:0
     RDKit          3D

 60 63  0  0  0  0  0  0  0  0999 V2000
   56.8248   30.0067   41.9174 H   0  0  0  0  0  0  0  0  0  0  0  0
   56.8760   30.4780   42.9100 C   0  0  0  0  0  0  0  0  0  0  0  0
   56.1510   29.8520   44.0370 C   0  0  0  0  0  0  0  0  0  0  0  0
   55.1250   30.4040   44.5160 O   0  0  0  0  0  0  0  0  0  0  0  0
   56.6620   28.6730   44.6770 N   0  0  0  0  0  0  0  0  0  0  0  0
   57.8860   28.4460   45.0670 C   0  0  0  0  0  0  0  0  0  0  0  0
   58.0970   28.1190   46.3710 N   0  0  0  0  0  0  0  0  0  0  0  0
   59.3350   27.8490   46.8680 C   0  0  0  0  0  0  0  0  0  0  0  0
   59.5020   27.5160   48.3160 C   0  0  0  0  0  0  0  0  0  0  0  0
   59.0927   28.3321   48.9295 H   0  0  0  0  0  0  0  0  0  0  0  0
   58.9652   26.5828   48.5419 H   0  0  0  0  0  0  0  0  0  0  0  0
   60.5709   27.3881   48.5419 H   0  0  0  0  0  0  0  0  0  0  0  0
   60.4490   27.9050   46.0220 C   0  0  0  0  0  0  0  0  0  0  0  0
   61.4566   27.7051   46.4153 H   0  0  0  0  0  0  0  0  0  0  0  0
   60.2670   28.2170   44.6750 C   0  0  0  0  0  0  0  0  0  0  0  0
   61.1328   28.2535   43.9974 H   0  0  0  0  0  0  0  0  0  0  0  0
   58.9870   28.4830   44.1860 C   0  0  0  0  0  0  0  0  0  0  0  0
   58.8380   28.7196   43.1221 H   0  0  0  0  0  0  0  0  0  0  0  0
   57.5930   31.6000   43.0580 C   0  0  0  0  0  0  0  0  0  0  0  0
   57.9783   32.0912   42.1523 H   0  0  0  0  0  0  0  0  0  0  0  0
   57.8980   32.2190   44.3710 C   0  0  0  0  0  0  0  0  0  0  0  0
   57.7450   33.6080   44.5110 C   0  0  0  0  0  0  0  0  0  0  0  0
   57.4053   34.2078   43.6538 H   0  0  0  0  0  0  0  0  0  0  0  0
   58.0200   34.2350   45.7280 C   0  0  0  0  0  0  0  0  0  0  0  0
   57.9086   35.3254   45.8205 H   0  0  0  0  0  0  0  0  0  0  0  0
   58.4360   33.4820   46.8280 C   0  0  0  0  0  0  0  0  0  0  0  0
   58.6666   33.9830   47.7797 H   0  0  0  0  0  0  0  0  0  0  0  0
   58.5610   32.0860   46.7230 C   0  0  0  0  0  0  0  0  0  0  0  0
   58.9980   31.2910   47.8390 N   0  0  0  0  0  0  0  0  0  0  0  0
   59.4560   30.3720   47.6370 H   0  0  0  0  0  0  0  0  0  0  0  0
   58.7270   31.6170   49.2120 C   0  0  0  0  0  0  0  0  0  0  0  0
   57.8360   32.4650   49.4950 O   0  0  0  0  0  0  0  0  0  0  0  0
   59.4850   30.9530   50.3000 C   0  0  0  0  0  0  0  0  0  0  0  0
   58.8670   30.7950   51.5540 C   0  0  0  0  0  0  0  0  0  0  0  0
   57.8616   31.2090   51.7207 H   0  0  0  0  0  0  0  0  0  0  0  0
   59.5150   30.1190   52.5890 C   0  0  0  0  0  0  0  0  0  0  0  0
   59.0190   30.0019   53.5638 H   0  0  0  0  0  0  0  0  0  0  0  0
   60.7900   29.5920   52.3890 C   0  0  0  0  0  0  0  0  0  0  0  0
   61.2959   29.0539   53.2042 H   0  0  0  0  0  0  0  0  0  0  0  0
   61.4250   29.7460   51.1570 C   0  0  0  0  0  0  0  0  0  0  0  0
   62.4340   29.3337   51.0088 H   0  0  0  0  0  0  0  0  0  0  0  0
   60.7880   30.4230   50.1030 C   0  0  0  0  0  0  0  0  0  0  0  0
   61.5400   30.6310   48.8440 C   0  0  0  0  0  0  0  0  0  0  0  0
   61.5100   29.7290   47.9640 O   0  0  0  0  0  0  0  0  0  0  0  0
   62.2870   31.8420   48.6030 N   0  0  0  0  0  0  0  0  0  0  0  0
   62.4090   32.3670   47.2380 C   0  0  0  0  0  0  0  0  0  0  0  0
   62.3694   31.5328   46.5220 H   0  0  0  0  0  0  0  0  0  0  0  0
   61.5810   33.0647   47.0442 H   0  0  0  0  0  0  0  0  0  0  0  0
   63.7390   33.1090   47.0790 C   0  0  0  0  0  0  0  0  0  0  0  0
   64.5644   32.3834   47.1260 H   0  0  0  0  0  0  0  0  0  0  0  0
   63.7391   33.6276   46.1089 H   0  0  0  0  0  0  0  0  0  0  0  0
   63.9060   34.0680   48.1050 O   0  0  0  0  0  0  0  0  0  0  0  0
   64.0210   33.4130   49.3540 C   0  0  0  0  0  0  0  0  0  0  0  0
   64.8329   32.6728   49.2999 H   0  0  0  0  0  0  0  0  0  0  0  0
   64.2392   34.1637   50.1278 H   0  0  0  0  0  0  0  0  0  0  0  0
   62.7140   32.7000   49.7150 C   0  0  0  0  0  0  0  0  0  0  0  0
   62.8713   32.0828   50.6118 H   0  0  0  0  0  0  0  0  0  0  0  0
   61.9349   33.4513   49.9114 H   0  0  0  0  0  0  0  0  0  0  0  0
   58.3050   31.4630   45.4910 C   0  0  0  0  0  0  0  0  0  0  0  0
   58.4230   30.3733   45.3978 H   0  0  0  0  0  0  0  0  0  0  0  0
  1  2  1  0
  2  3  1  0
  3  4  2  0
  3  5  1  0
  5  6  2  0
  6  7  1  0
  7  8  1  0
  8  9  1  0
  9 10  1  0
  9 11  1  0
  9 12  1  0
  8 13  2  0
 13 14  1  0
 13 15  1  0
 15 16  1  0
 15 17  2  0
 17 18  1  0
  2 19  2  0
 19 20  1  0
 19 21  1  0
 21 22  2  0
 22 23  1  0
 22 24  1  0
 24 25  1  0
 24 26  2  0
 26 27  1  0
 26 28  1  0
 28 29  1  0
 29 30  1  0
 29 31  1  0
 31 32  2  0
 31 33  1  0
 33 34  2  0
 34 35  1  0
 34 36  1  0
 36 37  1  0
 36 38  2  0
 38 39  1  0
 38 40  1  0
 40 41  1  0
 40 42  2  0
 42 43  1  0
 43 44  2  0
 43 45  1  0
 45 46  1  0
 46 47  1  0
 46 48  1  0
 46 49  1  0
 49 50  1  0
 49 51  1  0
 49 52  1  0
 52 53  1  0
 53 54  1  0
 53 55  1  0
 53 56  1  0
 56 57  1  0
 56 58  1  0
 28 59  2  0
 59 60  1  0
 17  6  1  0
 59 21  1  0
 42 33  1  0
 56 45  1  0
M  CHG  1   7  -1
M  END
>  <UniqueID>  (4) 
4

>  <SMILES>  (4) 
Cc1ccc/c(=N\C(=O)/C=C/c2cccc(NC(=O)c3ccccc3C(=O)N3CCOCC3)c2)[n-]1

>  <Energy>  (4) 
89.3937730426208

>  <Genealogy>  (4) 
Cc1cccc(=NC(=O)C=Cc2cccc(NC(=O)c3ccccc3C(=O)N3CCOCC3)c2)[n-]1 (protonated)
Cc1ccc/c(=N\C(=O)/C=C/c2cccc(NC(=O)c3ccccc3C(=O)N3CCOCC3)c2)[n-]1 (cis-trans isomerization)
Cc1ccc/c(=N\C(=O)/C=C/c2cccc(NC(=O)c3ccccc3C(=O)N3CCOCC3)c2)[n-]1 (3D coordinates assigned)
Cc1ccc/c(=N\C(=O)/C=C/c2cccc(NC(=O)c3ccccc3C(=O)N3CCOCC3)c2)[n-]1 (nonaromatic ring conformer: 89.3937730426208 kcal/mol)

>  <smiles>  (4) 
Cc1cccc(=NC(=O)C=Cc2cccc(NC(=O)c3ccccc3C(=O)N3CCOCC3)c2)[nH]1

>  <score_type>  (4) 
oracle

>  <origin>  (4) 
adg

>  <m_score__min__energy>  (4) 
-12.17

>  <m_primary>  (4) 
energy

$$$$
4:0
     RDKit          3D

 58 62  0  0  0  0  0  0  0  0999 V2000
   55.6600   28.5090   45.2320 O   0  0  0  0  0  0  0  0  0  0  0  0
   56.4620   29.3140   44.6840 C   0  0  0  0  0  0  0  0  0  0  0  0
   57.7860   28.8250   44.1930 C   0  0  0  0  0  0  0  0  0  0  0  0
   58.2580   27.7290   45.0430 N   0  0  0  0  0  0  0  0  0  0  0  0
   58.0790   26.3970   44.8470 C   0  0  0  0  0  0  0  0  0  0  0  0
   57.4530   25.7600   43.7700 C   0  0  0  0  0  0  0  0  0  0  0  0
   57.3700   24.3560   43.7890 C   0  0  0  0  0  0  0  0  0  0  0  0
   57.9000   23.6180   44.8690 C   0  0  0  0  0  0  0  0  0  0  0  0
   58.5170   24.2760   45.9470 C   0  0  0  0  0  0  0  0  0  0  0  0
   58.5900   25.6670   45.9030 C   0  0  0  0  0  0  0  0  0  0  0  0
   59.0940   26.5810   46.7990 C   0  0  0  0  0  0  0  0  0  0  0  0
   59.6980   26.4160   48.0450 C   0  0  0  0  0  0  0  0  0  0  0  0
   60.0820   27.5730   48.7450 C   0  0  0  0  0  0  0  0  0  0  0  0
   59.8500   28.8530   48.1950 C   0  0  0  0  0  0  0  0  0  0  0  0
   59.2340   28.9920   46.9370 C   0  0  0  0  0  0  0  0  0  0  0  0
   58.8690   27.8290   46.2510 C   0  0  0  0  0  0  0  0  0  0  0  0
   56.0930   30.6800   44.4750 N   0  0  0  0  0  0  0  0  0  0  0  0
   57.0390   31.7240   44.1030 C   0  0  0  0  0  0  0  0  0  0  0  0
   57.8160   32.1820   45.3070 C   0  0  0  0  0  0  0  0  0  0  0  0
   57.2730   33.1250   46.1930 C   0  0  0  0  0  0  0  0  0  0  0  0
   57.9910   33.5260   47.3230 C   0  0  0  0  0  0  0  0  0  0  0  0
   59.2580   32.9870   47.5830 C   0  0  0  0  0  0  0  0  0  0  0  0
   60.1330   33.4810   49.0320 S   0  0  0  0  0  0  0  0  0  0  0  0
   59.5420   32.7700   50.2180 O   0  0  0  0  0  0  0  0  0  0  0  0
   59.9910   34.9650   49.2380 O   0  0  0  0  0  0  0  0  0  0  0  0
   61.8210   33.0620   48.8730 N   0  0  0  0  0  0  0  0  0  0  0  0
   62.3430   33.5270   47.5730 C   0  0  0  0  0  0  0  0  0  0  0  0
   63.8840   33.4510   47.5260 C   0  0  0  0  0  0  0  0  0  0  0  0
   64.3900   32.6840   48.6000 O   0  0  0  0  0  0  0  0  0  0  0  0
   64.1000   33.3310   49.8260 C   0  0  0  0  0  0  0  0  0  0  0  0
   62.5950   33.6450   49.9830 C   0  0  0  0  0  0  0  0  0  0  0  0
   59.8010   32.0440   46.7020 C   0  0  0  0  0  0  0  0  0  0  0  0
   59.0860   31.6450   45.5690 C   0  0  0  0  0  0  0  0  0  0  0  0
   57.6816   28.4657   43.1586 H   0  0  0  0  0  0  0  0  0  0  0  0
   58.5129   29.6499   44.2279 H   0  0  0  0  0  0  0  0  0  0  0  0
   57.0378   26.3403   42.9328 H   0  0  0  0  0  0  0  0  0  0  0  0
   56.8871   23.8278   42.9536 H   0  0  0  0  0  0  0  0  0  0  0  0
   57.8297   22.5202   44.8671 H   0  0  0  0  0  0  0  0  0  0  0  0
   58.9285   23.7118   46.7969 H   0  0  0  0  0  0  0  0  0  0  0  0
   59.8683   25.4141   48.4660 H   0  0  0  0  0  0  0  0  0  0  0  0
   60.5666   27.4808   49.7282 H   0  0  0  0  0  0  0  0  0  0  0  0
   60.1536   29.7498   48.7550 H   0  0  0  0  0  0  0  0  0  0  0  0
   59.0452   29.9863   46.5060 H   0  0  0  0  0  0  0  0  0  0  0  0
   57.7370   31.3290   43.3502 H   0  0  0  0  0  0  0  0  0  0  0  0
   56.4826   32.5790   43.6914 H   0  0  0  0  0  0  0  0  0  0  0  0
   56.2777   33.5505   45.9973 H   0  0  0  0  0  0  0  0  0  0  0  0
   57.5597   34.2679   48.0112 H   0  0  0  0  0  0  0  0  0  0  0  0
   61.8920   32.0180   48.9190 H   0  0  0  0  0  0  0  0  0  0  0  0
   61.9288   32.8946   46.7740 H   0  0  0  0  0  0  0  0  0  0  0  0
   62.0434   34.5763   47.4346 H   0  0  0  0  0  0  0  0  0  0  0  0
   64.1918   32.9871   46.5773 H   0  0  0  0  0  0  0  0  0  0  0  0
   64.2861   34.4717   47.6065 H   0  0  0  0  0  0  0  0  0  0  0  0
   64.4130   32.6773   50.6534 H   0  0  0  0  0  0  0  0  0  0  0  0
   64.6457   34.2860   49.8393 H   0  0  0  0  0  0  0  0  0  0  0  0
   62.2358   33.2238   50.9336 H   0  0  0  0  0  0  0  0  0  0  0  0
   62.4593   34.7366   49.9727 H   0  0  0  0  0  0  0  0  0  0  0  0
   60.7941   31.6154   46.9022 H   0  0  0  0  0  0  0  0  0  0  0  0
   59.5209   30.9065   44.8794 H   0  0  0  0  0  0  0  0  0  0  0  0
  1  2  2  0
  2  3  1  0
  3  4  1  0
  4  5  1  0
  5  6  2  0
  6  7  1  0
  7  8  2  0
  8  9  1  0
  9 10  2  0
 10 11  1  0
 11 12  2  0
 12 13  1  0
 13 14  2  0
 14 15  1  0
 15 16  2  0
  2 17  1  0
 17 18  1  0
 18 19  1  0
 19 20  2  0
 20 21  1  0
 21 22  2  0
 22 23  1  0
 23 24  2  0
 23 25  2  0
 23 26  1  0
 26 27  1  0
 27 28  1  0
 28 29  1  0
 29 30  1  0
 30 31  1  0
 22 32  1  0
 32 33  2  0
 16  4  1  0
 33 19  1  0
 10  5  1  0
 16 11  1  0
 31 26  1  0
  3 34  1  0
  3 35  1  0
  6 36  1  0
  7 37  1  0
  8 38  1  0
  9 39  1  0
 12 40  1  0
 13 41  1  0
 14 42  1  0
 15 43  1  0
 18 44  1  0
 18 45  1  0
 20 46  1  0
 21 47  1  0
 26 48  1  0
 27 49  1  0
 27 50  1  0
 28 51  1  0
 28 52  1  0
 30 53  1  0
 30 54  1  0
 31 55  1  0
 31 56  1  0
 32 57  1  0
 33 58  1  0
M  CHG  2  17  -1  26   1
M  END
>  <UniqueID>  (5) 
5

>  <SMILES>  (5) 
O=C(Cn1c2ccccc2c2ccccc21)[N-]Cc1ccc(S(=O)(=O)[NH+]2CCOCC2)cc1

>  <Energy>  (5) 
107.83263930938358

>  <Genealogy>  (5) 
O=C(Cn1c2ccccc2c2ccccc21)[N-]Cc1ccc(S(=O)(=O)[NH+]2CCOCC2)cc1 (protonated)
O=C(Cn1c2ccccc2c2ccccc21)[N-]Cc1ccc(S(=O)(=O)[NH+]2CCOCC2)cc1 (3D coordinates assigned)
O=C(Cn1c2ccccc2c2ccccc21)[N-]Cc1ccc(S(=O)(=O)[NH+]2CCOCC2)cc1 (nonaromatic ring conformer: 107.83263930938358 kcal/mol)

>  <smiles>  (5) 
O=C(Cn1c2ccccc2c2ccccc21)NCc1ccc(S(=O)(=O)N2CCOCC2)cc1

>  <score_type>  (5) 
oracle

>  <origin>  (5) 
adg

>  <m_score__min__energy>  (5) 
-10.32

>  <m_primary>  (5) 
energy

$$$$
5:0
     RDKit          3D

 45 47  0  0  0  0  0  0  0  0999 V2000
   57.7420   21.1210   46.3300 C   0  0  0  0  0  0  0  0  0  0  0  0
   57.2860   21.7480   45.0490 C   0  0  0  0  0  0  0  0  0  0  0  0
   57.3250   21.0770   43.8640 N   0  0  0  0  0  0  0  0  0  0  0  0
   56.8700   21.8120   42.8260 C   0  0  0  0  0  0  0  0  0  0  0  0
   56.4050   23.3430   43.3410 S   0  0  0  0  0  0  0  0  0  0  0  0
   56.7900   23.0490   44.9540 C   0  0  0  0  0  0  0  0  0  0  0  0
   56.6740   24.0280   46.0480 C   0  0  0  0  0  0  0  0  0  0  0  0
   55.5350   24.4600   46.3650 O   0  0  0  0  0  0  0  0  0  0  0  0
   57.8220   24.5160   46.7540 N   0  0  0  0  0  0  0  0  0  0  0  0
   58.9520   25.2080   46.1400 C   0  0  0  0  0  0  0  0  0  0  0  0
   58.5480   26.6010   45.7320 C   0  0  0  0  0  0  0  0  0  0  0  0
   58.4250   27.6070   46.7030 C   0  0  0  0  0  0  0  0  0  0  0  0
   57.9850   28.8850   46.3420 C   0  0  0  0  0  0  0  0  0  0  0  0
   57.6490   29.1660   45.0110 C   0  0  0  0  0  0  0  0  0  0  0  0
   57.0390   30.7620   44.5640 S   0  0  0  0  0  0  0  0  0  0  0  0
   55.5390   30.7150   44.4850 O   0  0  0  0  0  0  0  0  0  0  0  0
   57.5650   31.1300   43.2040 O   0  0  0  0  0  0  0  0  0  0  0  0
   57.5110   31.9780   45.7290 N   0  0  0  0  0  0  0  0  0  0  0  0
   57.0110   33.3240   45.3600 C   0  0  0  0  0  0  0  0  0  0  0  0
   58.1310   34.2600   44.8810 C   0  0  0  0  0  0  0  0  0  0  0  0
   59.1780   34.4180   45.9060 N   0  0  0  0  0  0  0  0  0  0  0  0
   59.4520   33.1910   46.6800 C   0  0  0  0  0  0  0  0  0  0  0  0
   58.9680   31.9220   45.9660 C   0  0  0  0  0  0  0  0  0  0  0  0
   57.7820   28.1650   44.0390 C   0  0  0  0  0  0  0  0  0  0  0  0
   58.2340   26.8920   44.3960 C   0  0  0  0  0  0  0  0  0  0  0  0
   57.3318   21.6850   47.1807 H   0  0  0  0  0  0  0  0  0  0  0  0
   57.3882   20.0804   46.3752 H   0  0  0  0  0  0  0  0  0  0  0  0
   58.8410   21.1370   46.3752 H   0  0  0  0  0  0  0  0  0  0  0  0
   57.6670   20.0960   43.7600 H   0  0  0  0  0  0  0  0  0  0  0  0
   56.8118   21.4573   41.7864 H   0  0  0  0  0  0  0  0  0  0  0  0
   59.7790   25.2663   46.8629 H   0  0  0  0  0  0  0  0  0  0  0  0
   59.2729   24.6508   45.2475 H   0  0  0  0  0  0  0  0  0  0  0  0
   58.6755   27.3897   47.7518 H   0  0  0  0  0  0  0  0  0  0  0  0
   57.9025   29.6722   47.1059 H   0  0  0  0  0  0  0  0  0  0  0  0
   56.2725   33.2161   44.5519 H   0  0  0  0  0  0  0  0  0  0  0  0
   56.5651   33.7719   46.2603 H   0  0  0  0  0  0  0  0  0  0  0  0
   58.5828   33.8399   43.9703 H   0  0  0  0  0  0  0  0  0  0  0  0
   57.6924   35.2486   44.6803 H   0  0  0  0  0  0  0  0  0  0  0  0
   60.0570   34.7190   45.4240 H   0  0  0  0  0  0  0  0  0  0  0  0
   60.5371   33.1118   46.8421 H   0  0  0  0  0  0  0  0  0  0  0  0
   58.9040   33.2677   47.6307 H   0  0  0  0  0  0  0  0  0  0  0  0
   59.4874   31.8308   45.0006 H   0  0  0  0  0  0  0  0  0  0  0  0
   59.1889   31.0526   46.6027 H   0  0  0  0  0  0  0  0  0  0  0  0
   57.5295   28.3825   42.9907 H   0  0  0  0  0  0  0  0  0  0  0  0
   58.3442   26.1143   43.6259 H   0  0  0  0  0  0  0  0  0  0  0  0
  1  2  1  0
  2  3  1  0
  3  4  2  0
  4  5  1  0
  5  6  1  0
  6  7  1  0
  7  8  2  0
  7  9  1  0
  9 10  1  0
 10 11  1  0
 11 12  2  0
 12 13  1  0
 13 14  2  0
 14 15  1  0
 15 16  2  0
 15 17  2  0
 15 18  1  0
 18 19  1  0
 19 20  1  0
 20 21  1  0
 21 22  1  0
 22 23  1  0
 14 24  1  0
 24 25  2  0
  6  2  2  0
 25 11  1  0
 23 18  1  0
  1 26  1  0
  1 27  1  0
  1 28  1  0
  3 29  1  0
  4 30  1  0
 10 31  1  0
 10 32  1  0
 12 33  1  0
 13 34  1  0
 19 35  1  0
 19 36  1  0
 20 37  1  0
 20 38  1  0
 21 39  1  0
 22 40  1  0
 22 41  1  0
 23 42  1  0
 23 43  1  0
 24 44  1  0
 25 45  1  0
M  CHG  2   3   1   9  -1
M  END
>  <UniqueID>  (6) 
6

>  <SMILES>  (6) 
Cc1[nH+]csc1C(=O)[N-]Cc1ccc(S(=O)(=O)N2CCNCC2)cc1

>  <Energy>  (6) 
81.6052151101385

>  <Genealogy>  (6) 
Cc1[nH+]csc1C(=O)[N-]Cc1ccc(S(=O)(=O)N2CCNCC2)cc1 (protonated)
Cc1[nH+]csc1C(=O)[N-]Cc1ccc(S(=O)(=O)N2CCNCC2)cc1 (3D coordinates assigned)
Cc1[nH+]csc1C(=O)[N-]Cc1ccc(S(=O)(=O)N2CCNCC2)cc1 (nonaromatic ring conformer: 81.6052151101385 kcal/mol)

>  <smiles>  (6) 
Cc1ncsc1C(=O)NCc1ccc(S(=O)(=O)N2CCNCC2)cc1

>  <score_type>  (6) 
oracle

>  <origin>  (6) 
adg

>  <m_score__min__energy>  (6) 
-9.3499999999999996

>  <m_primary>  (6) 
energy

$$$$
6:0
     RDKit          3D

 45 47  0  0  0  0  0  0  0  0999 V2000
   55.1490   28.9580   44.7810 O   0  0  0  0  0  0  0  0  0  0  0  0
   56.3420   29.6410   44.9880 C   0  0  0  0  0  0  0  0  0  0  0  0
   56.5080   30.9280   44.4710 C   0  0  0  0  0  0  0  0  0  0  0  0
   57.7030   31.6180   44.6810 C   0  0  0  0  0  0  0  0  0  0  0  0
   58.7440   31.0290   45.4210 C   0  0  0  0  0  0  0  0  0  0  0  0
   59.9530   31.7100   45.6310 O   0  0  0  0  0  0  0  0  0  0  0  0
   60.5470   31.9540   46.8790 C   0  0  0  0  0  0  0  0  0  0  0  0
   61.7090   31.2770   47.2910 C   0  0  0  0  0  0  0  0  0  0  0  0
   62.2920   31.5630   48.5260 C   0  0  0  0  0  0  0  0  0  0  0  0
   61.7400   32.5490   49.3610 C   0  0  0  0  0  0  0  0  0  0  0  0
   62.3110   32.8440   50.6470 N   0  0  0  0  0  0  0  0  0  0  0  0
   63.7070   33.1090   50.8750 C   0  0  0  0  0  0  0  0  0  0  0  0
   64.7030   32.2360   50.4040 C   0  0  0  0  0  0  0  0  0  0  0  0
   66.0540   32.5280   50.6120 C   0  0  0  0  0  0  0  0  0  0  0  0
   66.4250   33.7040   51.2790 C   0  0  0  0  0  0  0  0  0  0  0  0
   67.7680   34.0050   51.4940 O   0  0  0  0  0  0  0  0  0  0  0  0
   65.4390   34.5870   51.7290 C   0  0  0  0  0  0  0  0  0  0  0  0
   64.0870   34.2950   51.5210 C   0  0  0  0  0  0  0  0  0  0  0  0
   60.5790   33.2180   48.9530 C   0  0  0  0  0  0  0  0  0  0  0  0
   59.9920   32.9340   47.7150 C   0  0  0  0  0  0  0  0  0  0  0  0
   58.5540   33.8140   47.2210 Cl  0  0  0  0  0  0  0  0  0  0  0  0
   58.5860   29.7200   45.9240 C   0  0  0  0  0  0  0  0  0  0  0  0
   59.6780   29.0540   46.7310 C   0  0  0  0  0  0  0  0  0  0  0  0
   59.1320   28.3840   48.0030 C   0  0  0  0  0  0  0  0  0  0  0  0
   59.7120   28.9570   49.3030 C   0  0  0  0  0  0  0  0  0  0  0  0
   58.7230   30.3040   49.9260 S   0  0  0  0  0  0  0  0  0  0  0  0
   57.3760   29.0400   45.7100 C   0  0  0  0  0  0  0  0  0  0  0  0
   55.6957   31.3984   43.8975 H   0  0  0  0  0  0  0  0  0  0  0  0
   57.8314   32.6283   44.2653 H   0  0  0  0  0  0  0  0  0  0  0  0
   62.1608   30.5177   46.6358 H   0  0  0  0  0  0  0  0  0  0  0  0
   63.1889   31.0134   48.8477 H   0  0  0  0  0  0  0  0  0  0  0  0
   61.6690   32.8720   51.4710 H   0  0  0  0  0  0  0  0  0  0  0  0
   64.4177   31.3182   49.8689 H   0  0  0  0  0  0  0  0  0  0  0  0
   66.8275   31.8338   50.2517 H   0  0  0  0  0  0  0  0  0  0  0  0
   68.1480   34.0930   52.4300 H   0  0  0  0  0  0  0  0  0  0  0  0
   65.7270   35.5133   52.2477 H   0  0  0  0  0  0  0  0  0  0  0  0
   63.3165   35.0000   51.8663 H   0  0  0  0  0  0  0  0  0  0  0  0
   60.1248   33.9731   49.6115 H   0  0  0  0  0  0  0  0  0  0  0  0
   60.1630   28.2885   46.1074 H   0  0  0  0  0  0  0  0  0  0  0  0
   60.3933   29.8311   47.0384 H   0  0  0  0  0  0  0  0  0  0  0  0
   58.0401   28.5156   48.0228 H   0  0  0  0  0  0  0  0  0  0  0  0
   59.4279   27.3254   47.9596 H   0  0  0  0  0  0  0  0  0  0  0  0
   59.7468   28.1598   50.0601 H   0  0  0  0  0  0  0  0  0  0  0  0
   60.7206   29.3408   49.0898 H   0  0  0  0  0  0  0  0  0  0  0  0
   57.2413   28.0259   46.1142 H   0  0  0  0  0  0  0  0  0  0  0  0
  1  2  1  0
  2  3  2  0
  3  4  1  0
  4  5  2  0
  5  6  1  0
  6  7  1  0
  7  8  2  0
  8  9  1  0
  9 10  2  0
 10 11  1  0
 11 12  1  0
 12 13  2  0
 13 14  1  0
 14 15  2  0
 15 16  1  0
 15 17  1  0
 17 18  2  0
 10 19  1  0
 19 20  2  0
 20 21  1  0
  5 22  1  0
 22 23  1  0
 23 24  1  0
 24 25  1  0
 25 26  1  0
 22 27  2  0
 27  2  1  0
 20  7  1  0
 18 12  1  0
  3 28  1  0
  4 29  1  0
  8 30  1  0
  9 31  1  0
 11 32  1  0
 13 33  1  0
 14 34  1  0
 16 35  1  0
 17 36  1  0
 18 37  1  0
 19 38  1  0
 23 39  1  0
 23 40  1  0
 24 41  1  0
 24 42  1  0
 25 43  1  0
 25 44  1  0
 27 45  1  0
M  CHG  2   1  -1  26  -1
M  END
>  <UniqueID>  (7) 
7

>  <SMILES>  (7) 
[O-]c1ccc(Oc2ccc(Nc3ccc(O)cc3)cc2Cl)c(CCC[S-])c1

>  <Energy>  (7) 
54.13882100698513

>  <Genealogy>  (7) 
[O-]c1ccc(Oc2ccc(Nc3ccc(O)cc3)cc2Cl)c(CCC[S-])c1 (protonated)
[O-]c1ccc(Oc2ccc(Nc3ccc(O)cc3)cc2Cl)c(CCC[S-])c1 (3D coordinates assigned)
[O-]c1ccc(Oc2ccc(Nc3ccc(O)cc3)cc2Cl)c(CCC[S-])c1 (optimized conformer: 54.13882100698513 kcal/mol)

>  <smiles>  (7) 
Oc1ccc(Nc2ccc(Oc3ccc(O)cc3CCCS)c(Cl)c2)cc1

>  <score_type>  (7) 
oracle

>  <origin>  (7) 
adg

>  <m_score__min__energy>  (7) 
-10.539999999999999

>  <m_primary>  (7) 
energy

$$$$
7:0
     RDKit          3D

 47 49  0  0  0  0  0  0  0  0999 V2000
   59.7160   29.9560   45.6220 C   0  0  0  0  0  0  0  0  0  0  0  0
   59.0930   30.9820   46.3880 O   0  0  0  0  0  0  0  0  0  0  0  0
   59.1880   32.3540   46.1060 C   0  0  0  0  0  0  0  0  0  0  0  0
   58.2720   33.0090   45.2580 C   0  0  0  0  0  0  0  0  0  0  0  0
   58.4040   34.3750   44.9970 C   0  0  0  0  0  0  0  0  0  0  0  0
   59.4470   35.1020   45.5760 C   0  0  0  0  0  0  0  0  0  0  0  0
   60.3590   34.4640   46.4180 C   0  0  0  0  0  0  0  0  0  0  0  0
   60.2310   33.0960   46.6900 C   0  0  0  0  0  0  0  0  0  0  0  0
   61.4130   32.3040   47.7850 S   0  0  0  0  0  0  0  0  0  0  0  0
   60.1330   31.7080   48.8920 C   0  0  0  0  0  0  0  0  0  0  0  0
   60.1140   30.3640   49.2820 C   0  0  0  0  0  0  0  0  0  0  0  0
   59.1210   29.8980   50.1490 C   0  0  0  0  0  0  0  0  0  0  0  0
   58.1370   30.7770   50.6380 C   0  0  0  0  0  0  0  0  0  0  0  0
   57.0860   30.3180   51.5030 N   0  0  0  0  0  0  0  0  0  0  0  0
   56.4200   31.1460   52.4690 C   0  0  0  0  0  0  0  0  0  0  0  0
   56.5360   32.4000   52.4290 O   0  0  0  0  0  0  0  0  0  0  0  0
   55.5810   30.5190   53.5400 C   0  0  0  0  0  0  0  0  0  0  0  0
   54.2380   30.2370   53.0210 N   0  0  0  0  0  0  0  0  0  0  0  0
   53.7220   28.9760   53.1260 C   0  0  0  0  0  0  0  0  0  0  0  0
   52.4340   28.6970   52.6710 C   0  0  0  0  0  0  0  0  0  0  0  0
   51.6690   29.7160   52.1090 C   0  0  0  0  0  0  0  0  0  0  0  0
   52.1900   31.0160   52.0100 C   0  0  0  0  0  0  0  0  0  0  0  0
   51.3870   32.1130   51.4220 C   0  0  0  0  0  0  0  0  0  0  0  0
   51.0120   32.0800   50.0460 N   0  0  0  0  0  0  0  0  0  0  0  0
   51.0280   33.0900   52.1330 O   0  0  0  0  0  0  0  0  0  0  0  0
   53.4920   31.2520   52.4850 C   0  0  0  0  0  0  0  0  0  0  0  0
   58.1460   32.1160   50.2180 C   0  0  0  0  0  0  0  0  0  0  0  0
   59.1430   32.5810   49.3540 C   0  0  0  0  0  0  0  0  0  0  0  0
   60.1660   29.2149   46.2990 H   0  0  0  0  0  0  0  0  0  0  0  0
   58.9639   29.4641   44.9876 H   0  0  0  0  0  0  0  0  0  0  0  0
   60.4993   30.3964   44.9876 H   0  0  0  0  0  0  0  0  0  0  0  0
   57.4489   32.4415   44.7993 H   0  0  0  0  0  0  0  0  0  0  0  0
   57.6853   34.8792   44.3343 H   0  0  0  0  0  0  0  0  0  0  0  0
   59.5494   36.1773   45.3682 H   0  0  0  0  0  0  0  0  0  0  0  0
   61.1816   35.0378   46.8698 H   0  0  0  0  0  0  0  0  0  0  0  0
   60.8822   29.6726   48.9055 H   0  0  0  0  0  0  0  0  0  0  0  0
   59.1089   28.8401   50.4500 H   0  0  0  0  0  0  0  0  0  0  0  0
   56.7400   29.3390   51.3790 H   0  0  0  0  0  0  0  0  0  0  0  0
   56.0501   29.5796   53.8677 H   0  0  0  0  0  0  0  0  0  0  0  0
   55.5025   31.2118   54.3908 H   0  0  0  0  0  0  0  0  0  0  0  0
   54.3280   28.1743   53.5733 H   0  0  0  0  0  0  0  0  0  0  0  0
   52.0250   27.6794   52.7553 H   0  0  0  0  0  0  0  0  0  0  0  0
   50.6544   29.5019   51.7419 H   0  0  0  0  0  0  0  0  0  0  0  0
   50.0430   32.3260   49.7460 H   0  0  0  0  0  0  0  0  0  0  0  0
   53.9166   32.2650   52.4252 H   0  0  0  0  0  0  0  0  0  0  0  0
   57.3639   32.8045   50.5705 H   0  0  0  0  0  0  0  0  0  0  0  0
   59.1483   33.6345   49.0376 H   0  0  0  0  0  0  0  0  0  0  0  0
  1  2  1  0
  2  3  1  0
  3  4  2  0
  4  5  1  0
  5  6  2  0
  6  7  1  0
  7  8  2  0
  8  9  1  0
  9 10  1  0
 10 11  2  0
 11 12  1  0
 12 13  2  0
 13 14  1  0
 14 15  1  0
 15 16  2  0
 15 17  1  0
 17 18  1  0
 18 19  2  0
 19 20  1  0
 20 21  2  0
 21 22  1  0
 22 23  1  0
 23 24  1  0
 23 25  2  0
 22 26  2  0
 13 27  1  0
 27 28  2  0
  8  3  1  0
 28 10  1  0
 26 18  1  0
  1 29  1  0
  1 30  1  0
  1 31  1  0
  4 32  1  0
  5 33  1  0
  6 34  1  0
  7 35  1  0
 11 36  1  0
 12 37  1  0
 14 38  1  0
 17 39  1  0
 17 40  1  0
 19 41  1  0
 20 42  1  0
 21 43  1  0
 24 44  1  0
 26 45  1  0
 27 46  1  0
 28 47  1  0
M  CHG  2  18   1  24  -1
M  END
>  <UniqueID>  (8) 
8

>  <SMILES>  (8) 
COc1ccccc1Sc1ccc(NC(=O)C[n+]2cccc(C([NH-])=O)c2)cc1

>  <Energy>  (8) 
46.78808806416212

>  <Genealogy>  (8) 
COc1ccccc1Sc1ccc(NC(=O)C[n+]2cccc(C([NH-])=O)c2)cc1 (protonated)
COc1ccccc1Sc1ccc(NC(=O)C[n+]2cccc(C([NH-])=O)c2)cc1 (3D coordinates assigned)
COc1ccccc1Sc1ccc(NC(=O)C[n+]2cccc(C([NH-])=O)c2)cc1 (optimized conformer: 46.78808806416212 kcal/mol)

>  <smiles>  (8) 
COc1ccccc1Sc1ccc(NC(=O)C[n+]2cccc(C(N)=O)c2)cc1

>  <score_type>  (8) 
oracle

>  <origin>  (8) 
adg

>  <m_score__min__energy>  (8) 
-10.960000000000001

>  <m_primary>  (8) 
energy

$$$$
8:0
     RDKit          3D

 67 70  0  0  0  0  0  0  0  0999 V2000
   57.9880   24.7690   45.2930 C   0  0  0  0  0  0  0  0  0  0  0  0
   59.0320   25.8030   45.5850 C   0  0  0  0  0  0  0  0  0  0  0  0
   60.0280   25.4630   46.2800 O   0  0  0  0  0  0  0  0  0  0  0  0
   58.9360   27.1540   45.0800 N   0  0  0  0  0  0  0  0  0  0  0  0
   59.8200   28.1780   45.6590 C   0  0  0  0  0  0  0  0  0  0  0  0
   59.4410   29.5840   45.1750 C   0  0  0  0  0  0  0  0  0  0  0  0
   57.9750   29.6880   45.0740 N   0  0  0  0  0  0  0  0  0  0  0  0
   57.5330   31.0720   45.0330 C   0  0  0  0  0  0  0  0  0  0  0  0
   56.4290   31.3290   44.4730 O   0  0  0  0  0  0  0  0  0  0  0  0
   58.2980   32.2210   45.5890 C   0  0  0  0  0  0  0  0  0  0  0  0
   58.6460   33.2770   44.7300 C   0  0  0  0  0  0  0  0  0  0  0  0
   59.3010   34.4120   45.2220 C   0  0  0  0  0  0  0  0  0  0  0  0
   59.6060   34.5080   46.5800 C   0  0  0  0  0  0  0  0  0  0  0  0
   59.2670   33.4640   47.4540 C   0  0  0  0  0  0  0  0  0  0  0  0
   59.6530   33.5840   49.1760 S   0  0  0  0  0  0  0  0  0  0  0  0
   58.8350   32.5800   49.9410 O   0  0  0  0  0  0  0  0  0  0  0  0
   59.2780   34.9590   49.6620 O   0  0  0  0  0  0  0  0  0  0  0  0
   61.3460   33.2780   49.4960 N   0  0  0  0  0  0  0  0  0  0  0  0
   61.9190   32.3380   48.5020 C   0  0  0  0  0  0  0  0  0  0  0  0
   63.4410   32.5150   48.3040 C   0  0  0  0  0  0  0  0  0  0  0  0
   64.0660   33.0420   49.5240 N   0  0  0  0  0  0  0  0  0  0  0  0
   65.0980   32.2860   50.1830 C   0  0  0  0  0  0  0  0  0  0  0  0
   66.4160   32.7610   50.1350 C   0  0  0  0  0  0  0  0  0  0  0  0
   67.4490   32.0510   50.7410 C   0  0  0  0  0  0  0  0  0  0  0  0
   67.1860   30.8410   51.3800 C   0  0  0  0  0  0  0  0  0  0  0  0
   65.8780   30.3250   51.4250 C   0  0  0  0  0  0  0  0  0  0  0  0
   65.6450   29.0060   52.1160 C   0  0  0  0  0  0  0  0  0  0  0  0
   64.8080   31.0730   50.8630 C   0  0  0  0  0  0  0  0  0  0  0  0
   63.3830   30.5880   50.9840 C   0  0  0  0  0  0  0  0  0  0  0  0
   63.4860   34.2240   50.1800 C   0  0  0  0  0  0  0  0  0  0  0  0
   62.1040   34.5330   49.6010 C   0  0  0  0  0  0  0  0  0  0  0  0
   58.6180   32.3240   46.9550 C   0  0  0  0  0  0  0  0  0  0  0  0
   57.4420   28.8520   43.9750 C   0  0  0  0  0  0  0  0  0  0  0  0
   58.1350   27.4700   43.8810 C   0  0  0  0  0  0  0  0  0  0  0  0
   57.5889   24.3737   46.2387 H   0  0  0  0  0  0  0  0  0  0  0  0
   57.1723   25.2252   44.7129 H   0  0  0  0  0  0  0  0  0  0  0  0
   58.4363   23.9489   44.7129 H   0  0  0  0  0  0  0  0  0  0  0  0
   59.7382   28.1429   46.7554 H   0  0  0  0  0  0  0  0  0  0  0  0
   60.8506   27.9674   45.3373 H   0  0  0  0  0  0  0  0  0  0  0  0
   59.8135   30.3314   45.8910 H   0  0  0  0  0  0  0  0  0  0  0  0
   59.8912   29.7667   44.1881 H   0  0  0  0  0  0  0  0  0  0  0  0
   57.5680   29.2940   45.9590 H   0  0  0  0  0  0  0  0  0  0  0  0
   58.4011   33.2111   43.6596 H   0  0  0  0  0  0  0  0  0  0  0  0
   59.5753   35.2284   44.5378 H   0  0  0  0  0  0  0  0  0  0  0  0
   60.1134   35.4042   46.9664 H   0  0  0  0  0  0  0  0  0  0  0  0
   61.7280   31.3097   48.8426 H   0  0  0  0  0  0  0  0  0  0  0  0
   61.4369   32.5495   47.5362 H   0  0  0  0  0  0  0  0  0  0  0  0
   63.8892   31.5403   48.0609 H   0  0  0  0  0  0  0  0  0  0  0  0
   63.6101   33.2283   47.4839 H   0  0  0  0  0  0  0  0  0  0  0  0
   66.6363   33.7041   49.6134 H   0  0  0  0  0  0  0  0  0  0  0  0
   68.4752   32.4462   50.7153 H   0  0  0  0  0  0  0  0  0  0  0  0
   68.0083   30.2844   51.8534 H   0  0  0  0  0  0  0  0  0  0  0  0
   65.6710   29.1533   53.2058 H   0  0  0  0  0  0  0  0  0  0  0  0
   64.6625   28.6072   51.8233 H   0  0  0  0  0  0  0  0  0  0  0  0
   66.4314   28.2948   51.8233 H   0  0  0  0  0  0  0  0  0  0  0  0
   63.1157   30.4970   52.0471 H   0  0  0  0  0  0  0  0  0  0  0  0
   62.7083   31.3071   50.4965 H   0  0  0  0  0  0  0  0  0  0  0  0
   63.2871   29.6066   50.4965 H   0  0  0  0  0  0  0  0  0  0  0  0
   63.3916   34.0298   51.2586 H   0  0  0  0  0  0  0  0  0  0  0  0
   64.1457   35.0870   50.0068 H   0  0  0  0  0  0  0  0  0  0  0  0
   61.5728   35.2320   50.2638 H   0  0  0  0  0  0  0  0  0  0  0  0
   62.2081   34.9924   48.6070 H   0  0  0  0  0  0  0  0  0  0  0  0
   58.3570   31.5029   47.6388 H   0  0  0  0  0  0  0  0  0  0  0  0
   56.3663   28.6949   44.1430 H   0  0  0  0  0  0  0  0  0  0  0  0
   57.6346   29.3836   43.0315 H   0  0  0  0  0  0  0  0  0  0  0  0
   57.3627   26.6962   43.7592 H   0  0  0  0  0  0  0  0  0  0  0  0
   58.8199   27.4985   43.0207 H   0  0  0  0  0  0  0  0  0  0  0  0
  1  2  1  0
  2  3  2  0
  2  4  1  0
  4  5  1  0
  5  6  1  0
  6  7  1  0
  7  8  1  0
  8  9  2  0
  8 10  1  0
 10 11  2  0
 11 12  1  0
 12 13  2  0
 13 14  1  0
 14 15  1  0
 15 16  2  0
 15 17  2  0
 15 18  1  0
 18 19  1  0
 19 20  1  0
 20 21  1  0
 21 22  1  0
 22 23  2  0
 23 24  1  0
 24 25  2  0
 25 26  1  0
 26 27  1  0
 26 28  2  0
 28 29  1  0
 21 30  1  0
 30 31  1  0
 14 32  2  0
  7 33  1  0
 33 34  1  0
 34  4  1  0
 32 10  1  0
 31 18  1  0
 28 22  1  0
  1 35  1  0
  1 36  1  0
  1 37  1  0
  5 38  1  0
  5 39  1  0
  6 40  1  0
  6 41  1  0
  7 42  1  0
 11 43  1  0
 12 44  1  0
 13 45  1  0
 19 46  1  0
 19 47  1  0
 20 48  1  0
 20 49  1  0
 23 50  1  0
 24 51  1  0
 25 52  1  0
 27 53  1  0
 27 54  1  0
 27 55  1  0
 29 56  1  0
 29 57  1  0
 29 58  1  0
 30 59  1  0
 30 60  1  0
 31 61  1  0
 31 62  1  0
 32 63  1  0
 33 64  1  0
 33 65  1  0
 34 66  1  0
 34 67  1  0
M  CHG  1   7   1
M  END
>  <UniqueID>  (9) 
9

>  <SMILES>  (9) 
CC(=O)N1CC[NH+](C(=O)c2cccc(S(=O)(=O)N3CCN(c4cccc(C)c4C)CC3)c2)CC1

>  <Energy>  (9) 
97.02238054575642

>  <Genealogy>  (9) 
CC(=O)N1CC[NH+](C(=O)c2cccc(S(=O)(=O)N3CCN(c4cccc(C)c4C)CC3)c2)CC1 (protonated)
CC(=O)N1CC[NH+](C(=O)c2cccc(S(=O)(=O)N3CCN(c4cccc(C)c4C)CC3)c2)CC1 (3D coordinates assigned)
CC(=O)N1CC[NH+](C(=O)c2cccc(S(=O)(=O)N3CCN(c4cccc(C)c4C)CC3)c2)CC1 (nonaromatic ring conformer: 97.02238054575642 kcal/mol)

>  <smiles>  (9) 
CC(=O)N1CCN(C(=O)c2cccc(S(=O)(=O)N3CCN(c4cccc(C)c4C)CC3)c2)CC1

>  <score_type>  (9) 
oracle

>  <origin>  (9) 
adg

>  <m_score__min__energy>  (9) 
-8.1099999999999994

>  <m_primary>  (9) 
energy

$$$$
9:0
     RDKit          3D

 49 50  0  0  0  0  0  0  0  0999 V2000
   57.4370   29.7550   50.6750 H   0  0  0  0  0  0  0  0  0  0  0  0
   57.0610   29.7650   51.5940 O   0  0  0  0  0  0  0  0  0  0  0  0
   58.1050   30.1340   52.4540 C   0  0  0  0  0  0  0  0  0  0  0  0
   58.6945   29.2416   52.7109 H   0  0  0  0  0  0  0  0  0  0  0  0
   57.6753   30.5802   53.3630 H   0  0  0  0  0  0  0  0  0  0  0  0
   59.0140   31.1600   51.7840 C   0  0  0  0  0  0  0  0  0  0  0  0
   59.9382   30.6665   51.4489 H   0  0  0  0  0  0  0  0  0  0  0  0
   59.2604   31.9544   52.5039 H   0  0  0  0  0  0  0  0  0  0  0  0
   58.3470   31.7300   50.6610 O   0  0  0  0  0  0  0  0  0  0  0  0
   58.5620   31.4160   49.3060 C   0  0  0  0  0  0  0  0  0  0  0  0
   59.0290   30.1540   48.8560 C   0  0  0  0  0  0  0  0  0  0  0  0
   59.3020   29.1290   49.7750 O   0  0  0  0  0  0  0  0  0  0  0  0
   60.3420   28.1650   49.6350 C   0  0  0  0  0  0  0  0  0  0  0  0
   60.6843   27.8477   50.6310 H   0  0  0  0  0  0  0  0  0  0  0  0
   59.9617   27.2929   49.0829 H   0  0  0  0  0  0  0  0  0  0  0  0
   61.1828   28.6103   49.0829 H   0  0  0  0  0  0  0  0  0  0  0  0
   59.2110   29.9600   47.4740 C   0  0  0  0  0  0  0  0  0  0  0  0
   59.5757   28.9905   47.1037 H   0  0  0  0  0  0  0  0  0  0  0  0
   58.9330   30.9870   46.5670 C   0  0  0  0  0  0  0  0  0  0  0  0
   59.0920   30.7760   45.0880 C   0  0  0  0  0  0  0  0  0  0  0  0
   59.4886   29.7661   44.9072 H   0  0  0  0  0  0  0  0  0  0  0  0
   59.7862   31.5327   44.6936 H   0  0  0  0  0  0  0  0  0  0  0  0
   57.7960   30.9170   44.4040 N   0  0  0  0  0  0  0  0  0  0  0  0
   56.7540   29.9310   44.5790 C   0  0  0  0  0  0  0  0  0  0  0  0
   55.5460   30.2770   44.4960 O   0  0  0  0  0  0  0  0  0  0  0  0
   57.0500   28.5060   44.8330 C   0  0  0  0  0  0  0  0  0  0  0  0
   57.0277   27.8210   43.9726 H   0  0  0  0  0  0  0  0  0  0  0  0
   57.3440   27.9840   46.0340 C   0  0  0  0  0  0  0  0  0  0  0  0
   57.7276   28.6660   46.8071 H   0  0  0  0  0  0  0  0  0  0  0  0
   57.1890   26.5560   46.3930 C   0  0  0  0  0  0  0  0  0  0  0  0
   55.9160   25.9670   46.3860 C   0  0  0  0  0  0  0  0  0  0  0  0
   54.7960   26.7040   46.0190 O   0  0  0  0  0  0  0  0  0  0  0  0
   55.7700   24.6600   46.7250 N   0  0  0  0  0  0  0  0  0  0  0  0
   56.8390   23.9080   47.0900 C   0  0  0  0  0  0  0  0  0  0  0  0
   56.6810   22.6970   47.3960 O   0  0  0  0  0  0  0  0  0  0  0  0
   58.0770   24.4630   47.1360 N   0  0  0  0  0  0  0  0  0  0  0  0
   58.2760   25.7650   46.8090 C   0  0  0  0  0  0  0  0  0  0  0  0
   59.4330   26.2550   46.9040 O   0  0  0  0  0  0  0  0  0  0  0  0
   57.5810   32.0500   43.4910 C   0  0  0  0  0  0  0  0  0  0  0  0
   56.5087   32.1196   43.2558 H   0  0  0  0  0  0  0  0  0  0  0  0
   58.1740   31.8742   42.5813 H   0  0  0  0  0  0  0  0  0  0  0  0
   58.0390   33.3710   44.1100 C   0  0  0  0  0  0  0  0  0  0  0  0
   58.0113   33.2911   45.2067 H   0  0  0  0  0  0  0  0  0  0  0  0
   59.0662   33.5919   43.7843 H   0  0  0  0  0  0  0  0  0  0  0  0
   57.3690   34.1803   43.7843 H   0  0  0  0  0  0  0  0  0  0  0  0
   58.4670   32.2090   47.0580 C   0  0  0  0  0  0  0  0  0  0  0  0
   58.2340   33.0260   46.3593 H   0  0  0  0  0  0  0  0  0  0  0  0
   58.3000   32.3940   48.3930 N   0  0  0  0  0  0  0  0  0  0  0  0
   57.9560   33.3230   48.7280 H   0  0  0  0  0  0  0  0  0  0  0  0
  1  2  1  0
  2  3  1  0
  3  4  1  0
  3  5  1  0
  3  6  1  0
  6  7  1  0
  6  8  1  0
  6  9  1  0
  9 10  1  0
 10 11  2  0
 11 12  1  0
 12 13  1  0
 13 14  1  0
 13 15  1  0
 13 16  1  0
 11 17  1  0
 17 18  1  0
 17 19  2  0
 19 20  1  0
 20 21  1  0
 20 22  1  0
 20 23  1  0
 23 24  1  0
 24 25  2  0
 24 26  1  0
 26 27  1  0
 26 28  2  0
 28 29  1  0
 28 30  1  0
 30 31  2  0
 31 32  1  0
 31 33  1  0
 33 34  1  0
 34 35  2  0
 34 36  1  0
 36 37  1  0
 37 38  2  0
 23 39  1  0
 39 40  1  0
 39 41  1  0
 39 42  1  0
 42 43  1  0
 42 44  1  0
 42 45  1  0
 19 46  1  0
 46 47  1  0
 46 48  2  0
 48 49  1  0
 48 10  1  0
 37 30  1  0
M  CHG  4  32  -1  33  -1  36  -1  48   1
M  END
>  <UniqueID>  (10) 
10

>  <SMILES>  (10) 
CCN(Cc1c[nH+]c(OCCO)c(OC)c1)C(=O)/C=C\c1c([O-])[n-]c(=O)[n-]c1=O

>  <Energy>  (10) 
56.76851787207762

>  <Genealogy>  (10) 
CCN(Cc1c[nH+]c(OCCO)c(OC)c1)C(=O)C=Cc1c([O-])[n-]c(=O)[n-]c1=O (protonated)
CCN(Cc1c[nH+]c(OCCO)c(OC)c1)C(=O)/C=C\c1c([O-])[n-]c(=O)[n-]c1=O (cis-trans isomerization)
CCN(Cc1c[nH+]c(OCCO)c(OC)c1)C(=O)/C=C\c1c([O-])[n-]c(=O)[n-]c1=O (3D coordinates assigned)
CCN(Cc1c[nH+]c(OCCO)c(OC)c1)C(=O)/C=C\c1c([O-])[n-]c(=O)[n-]c1=O (optimized conformer: 56.76851787207762 kcal/mol)

>  <smiles>  (10) 
CCN(Cc1cnc(OCCO)c(OC)c1)C(=O)C=Cc1c(O)[nH]c(=O)[nH]c1=O

>  <score_type>  (10) 
oracle

>  <origin>  (10) 
adg

>  <m_score__min__energy>  (10) 
-12.359999999999999

>  <m_primary>  (10) 
energy

$$$$
10:0
     RDKit          3D

 49 52  0  0  0  0  0  0  0  0999 V2000
   58.1807   25.9626   42.9480 H   0  0  0  0  0  0  0  0  0  0  0  0
   58.1340   27.0600   42.8880 C   0  0  0  0  0  0  0  0  0  0  0  0
   58.1580   27.5587   41.9079 H   0  0  0  0  0  0  0  0  0  0  0  0
   58.0480   27.7880   44.0070 C   0  0  0  0  0  0  0  0  0  0  0  0
   58.0120   27.3200   45.3250 C   0  0  0  0  0  0  0  0  0  0  0  0
   58.0640   26.0310   45.7260 C   0  0  0  0  0  0  0  0  0  0  0  0
   59.0605   25.6009   45.9046 H   0  0  0  0  0  0  0  0  0  0  0  0
   56.8980   25.1470   45.9460 C   0  0  0  0  0  0  0  0  0  0  0  0
   56.9350   23.8100   46.0970 N   0  0  0  0  0  0  0  0  0  0  0  0
   55.6420   23.4770   46.2990 C   0  0  0  0  0  0  0  0  0  0  0  0
   55.2680   22.2910   46.4820 O   0  0  0  0  0  0  0  0  0  0  0  0
   54.7830   24.5190   46.2930 N   0  0  0  0  0  0  0  0  0  0  0  0
   55.5930   25.5660   46.0710 C   0  0  0  0  0  0  0  0  0  0  0  0
   55.1490   26.8790   45.9860 O   0  0  0  0  0  0  0  0  0  0  0  0
   57.9300   28.4560   46.1250 C   0  0  0  0  0  0  0  0  0  0  0  0
   57.8870   28.4833   47.2238 H   0  0  0  0  0  0  0  0  0  0  0  0
   57.9130   29.5440   45.2710 C   0  0  0  0  0  0  0  0  0  0  0  0
   57.8550   30.9580   45.7080 C   0  0  0  0  0  0  0  0  0  0  0  0
   57.2330   31.7870   44.9870 O   0  0  0  0  0  0  0  0  0  0  0  0
   58.4300   31.3840   46.9710 N   0  0  1  0  0  0  0  0  0  0  0  0
   57.8240   31.0150   47.7390 H   0  0  0  0  0  0  0  0  0  0  0  0
   59.7700   30.7730   47.1970 C   0  0  0  0  0  0  0  0  0  0  0  0
   59.8160   29.8214   46.6472 H   0  0  0  0  0  0  0  0  0  0  0  0
   59.8832   30.6337   48.2823 H   0  0  0  0  0  0  0  0  0  0  0  0
   60.9380   31.6630   46.7300 C   0  0  0  0  0  0  0  0  0  0  0  0
   60.9039   31.7404   45.6333 H   0  0  0  0  0  0  0  0  0  0  0  0
   61.8704   31.1943   47.0779 H   0  0  0  0  0  0  0  0  0  0  0  0
   60.8830   33.0920   47.3290 C   0  0  2  0  0  0  0  0  0  0  0  0
   61.0270   33.7837   46.4859 H   0  0  0  0  0  0  0  0  0  0  0  0
   61.9680   33.3220   48.2910 N   0  0  0  0  0  0  0  0  0  0  0  0
   63.3540   33.0910   48.0930 C   0  0  0  0  0  0  0  0  0  0  0  0
   63.8350   32.6280   47.0260 O   0  0  0  0  0  0  0  0  0  0  0  0
   64.1760   33.4560   49.2620 C   0  0  0  0  0  0  0  0  0  0  0  0
   64.8802   34.2630   49.0111 H   0  0  0  0  0  0  0  0  0  0  0  0
   64.7947   32.6233   49.6279 H   0  0  0  0  0  0  0  0  0  0  0  0
   63.1410   33.9310   50.2930 C   0  0  0  0  0  0  0  0  0  0  0  0
   63.3652   34.9625   50.6026 H   0  0  0  0  0  0  0  0  0  0  0  0
   63.1637   33.2917   51.1878 H   0  0  0  0  0  0  0  0  0  0  0  0
   61.7560   33.8730   49.6190 C   0  0  0  0  0  0  0  0  0  0  0  0
   61.3252   34.8826   49.5475 H   0  0  0  0  0  0  0  0  0  0  0  0
   61.0557   33.2548   50.1998 H   0  0  0  0  0  0  0  0  0  0  0  0
   59.5150   33.4190   47.9510 C   0  0  0  0  0  0  0  0  0  0  0  0
   59.4056   34.5096   48.0443 H   0  0  0  0  0  0  0  0  0  0  0  0
   59.4447   32.9576   48.9471 H   0  0  0  0  0  0  0  0  0  0  0  0
   58.4030   32.8690   47.0530 C   0  0  0  0  0  0  0  0  0  0  0  0
   58.5279   33.2820   46.0412 H   0  0  0  0  0  0  0  0  0  0  0  0
   57.4381   33.1656   47.4901 H   0  0  0  0  0  0  0  0  0  0  0  0
   57.9880   29.1350   43.9890 N   0  0  0  0  0  0  0  0  0  0  0  0
   58.0160   29.7360   43.1360 H   0  0  0  0  0  0  0  0  0  0  0  0
  1  2  1  0
  2  3  1  0
  2  4  2  0
  4  5  1  0
  5  6  2  0
  6  7  1  0
  6  8  1  0
  8  9  1  0
  9 10  1  0
 10 11  2  0
 10 12  1  0
 12 13  1  0
 13 14  1  0
  5 15  1  0
 15 16  1  0
 15 17  2  0
 17 18  1  0
 18 19  2  0
 18 20  1  0
 20 21  1  6
 20 22  1  0
 22 23  1  0
 22 24  1  0
 22 25  1  0
 25 26  1  0
 25 27  1  0
 25 28  1  0
 28 29  1  1
 28 30  1  0
 30 31  1  0
 31 32  2  0
 31 33  1  0
 33 34  1  0
 33 35  1  0
 33 36  1  0
 36 37  1  0
 36 38  1  0
 36 39  1  0
 39 40  1  0
 39 41  1  0
 28 42  1  0
 42 43  1  0
 42 44  1  0
 42 45  1  0
 45 46  1  0
 45 47  1  0
 17 48  1  0
 48 49  1  0
 48  4  1  0
 13  8  2  0
 45 20  1  0
 39 30  1  0
M  CHG  4   9  -1  12  -1  14  -1  20   1
M  END
>  <UniqueID>  (11) 
11

>  <SMILES>  (11) 
C=c1[nH]c(C(=O)[NH+]2CCC(N3CCCC3=O)CC2)c/c1=C\c1[n-]c(=O)[n-]c1[O-]

>  <Energy>  (11) 
127.81479717213558

>  <Genealogy>  (11) 
C=c1[nH]c(C(=O)[NH+]2CCC(N3CCCC3=O)CC2)cc1=Cc1[n-]c(=O)[n-]c1[O-] (protonated)
C=c1[nH]c(C(=O)[NH+]2CCC(N3CCCC3=O)CC2)c/c1=C\c1[n-]c(=O)[n-]c1[O-] (cis-trans isomerization)
C=c1[nH]c(C(=O)[NH+]2CCC(N3CCCC3=O)CC2)c/c1=C\c1[n-]c(=O)[n-]c1[O-] (3D coordinates assigned)
C=c1[nH]c(C(=O)[NH+]2CCC(N3CCCC3=O)CC2)c/c1=C\c1[n-]c(=O)[n-]c1[O-] (nonaromatic ring conformer: 127.81479717213558 kcal/mol)

>  <smiles>  (11) 
C=c1[nH]c(C(=O)N2CCC(N3CCCC3=O)CC2)cc1=Cc1[nH]c(=O)[nH]c1O

>  <score_type>  (11) 
oracle

>  <origin>  (11) 
adg

>  <m_score__min__energy>  (11) 
-16.34

>  <m_primary>  (11) 
energy

$$$$
11:0
     RDKit          3D

 55 58  0  0  0  0  0  0  0  0999 V2000
   59.8280   27.4060   47.7490 O   0  0  0  0  0  0  0  0  0  0  0  0
   58.8570   27.9910   47.1970 C   0  0  0  0  0  0  0  0  0  0  0  0
   57.6710   27.1930   46.7650 C   0  0  0  0  0  0  0  0  0  0  0  0
   57.6960   26.9980   44.9550 S   0  0  0  0  0  0  0  0  0  0  0  0
   57.3780   28.7330   44.6570 C   0  0  0  0  0  0  0  0  0  0  0  0
   56.3600   29.4180   45.2090 N   0  0  0  0  0  0  0  0  0  0  0  0
   56.4610   30.6570   44.7550 N   0  0  0  0  0  0  0  0  0  0  0  0
   57.5340   30.6740   43.9410 C   0  0  0  0  0  0  0  0  0  0  0  0
   58.0250   31.8910   43.2250 C   0  0  0  0  0  0  0  0  0  0  0  0
   57.6720   33.0990   43.9680 N   0  0  0  0  0  0  0  0  0  0  0  0
   58.1980   33.4390   45.2670 C   0  0  0  0  0  0  0  0  0  0  0  0
   57.7050   32.8510   46.4480 C   0  0  0  0  0  0  0  0  0  0  0  0
   58.2400   33.2040   47.6910 C   0  0  0  0  0  0  0  0  0  0  0  0
   59.2720   34.1440   47.7710 C   0  0  0  0  0  0  0  0  0  0  0  0
   59.9430   34.5830   49.3310 Cl  0  0  0  0  0  0  0  0  0  0  0  0
   59.7690   34.7330   46.6040 C   0  0  0  0  0  0  0  0  0  0  0  0
   59.2360   34.3820   45.3600 C   0  0  0  0  0  0  0  0  0  0  0  0
   58.1050   29.4960   43.8790 O   0  0  0  0  0  0  0  0  0  0  0  0
   58.9190   29.3970   46.9060 N   0  0  0  0  0  0  0  0  0  0  0  0
   59.9220   30.2840   47.4310 C   0  0  0  0  0  0  0  0  0  0  0  0
   60.0700   30.4080   48.8210 C   0  0  0  0  0  0  0  0  0  0  0  0
   61.0500   31.2490   49.3570 C   0  0  0  0  0  0  0  0  0  0  0  0
   61.9020   31.9700   48.5090 C   0  0  0  0  0  0  0  0  0  0  0  0
   63.1570   33.0080   49.1780 S   0  0  0  0  0  0  0  0  0  0  0  0
   63.4880   34.0850   48.1840 O   0  0  0  0  0  0  0  0  0  0  0  0
   62.6590   33.6590   50.4410 O   0  0  0  0  0  0  0  0  0  0  0  0
   64.5820   32.0520   49.5000 N   0  0  0  0  0  0  0  0  0  0  0  0
   64.4110   31.2240   50.6930 C   0  0  0  0  0  0  0  0  0  0  0  0
   65.8010   30.9960   51.2680 C   0  0  0  0  0  0  0  0  0  0  0  0
   66.6760   32.0750   50.6450 C   0  0  0  0  0  0  0  0  0  0  0  0
   65.7390   32.9010   49.7800 C   0  0  0  0  0  0  0  0  0  0  0  0
   61.7800   31.8250   47.1220 C   0  0  0  0  0  0  0  0  0  0  0  0
   60.7990   30.9850   46.5850 C   0  0  0  0  0  0  0  0  0  0  0  0
   57.7031   26.2018   47.2409 H   0  0  0  0  0  0  0  0  0  0  0  0
   56.7499   27.7144   47.0645 H   0  0  0  0  0  0  0  0  0  0  0  0
   59.1189   31.8349   43.1238 H   0  0  0  0  0  0  0  0  0  0  0  0
   57.5541   31.9338   42.2318 H   0  0  0  0  0  0  0  0  0  0  0  0
   57.0020   33.7600   43.5120 H   0  0  0  0  0  0  0  0  0  0  0  0
   56.8943   32.1096   46.3924 H   0  0  0  0  0  0  0  0  0  0  0  0
   57.8478   32.7408   48.6084 H   0  0  0  0  0  0  0  0  0  0  0  0
   60.5803   35.4734   46.6649 H   0  0  0  0  0  0  0  0  0  0  0  0
   59.6326   34.8480   44.4459 H   0  0  0  0  0  0  0  0  0  0  0  0
   58.2510   29.7750   46.1970 H   0  0  0  0  0  0  0  0  0  0  0  0
   59.4105   29.8397   49.4934 H   0  0  0  0  0  0  0  0  0  0  0  0
   61.1527   31.3452   50.4480 H   0  0  0  0  0  0  0  0  0  0  0  0
   63.7772   31.7428   51.4272 H   0  0  0  0  0  0  0  0  0  0  0  0
   63.9227   30.2697   50.4464 H   0  0  0  0  0  0  0  0  0  0  0  0
   65.7861   31.0969   52.3633 H   0  0  0  0  0  0  0  0  0  0  0  0
   66.1757   29.9858   51.0463 H   0  0  0  0  0  0  0  0  0  0  0  0
   67.1310   32.7010   51.4267 H   0  0  0  0  0  0  0  0  0  0  0  0
   67.5026   31.6456   50.0599 H   0  0  0  0  0  0  0  0  0  0  0  0
   65.4246   33.8077   50.3177 H   0  0  0  0  0  0  0  0  0  0  0  0
   66.2325   33.2226   48.8510 H   0  0  0  0  0  0  0  0  0  0  0  0
   62.4582   32.3737   46.4519 H   0  0  0  0  0  0  0  0  0  0  0  0
   60.7132   30.8722   45.4942 H   0  0  0  0  0  0  0  0  0  0  0  0
  1  2  2  0
  2  3  1  0
  3  4  1  0
  4  5  1  0
  5  6  2  0
  6  7  1  0
  7  8  2  0
  8  9  1  0
  9 10  1  0
 10 11  1  0
 11 12  2  0
 12 13  1  0
 13 14  2  0
 14 15  1  0
 14 16  1  0
 16 17  2  0
  8 18  1  0
  2 19  1  0
 19 20  1  0
 20 21  2  0
 21 22  1  0
 22 23  2  0
 23 24  1  0
 24 25  2  0
 24 26  2  0
 24 27  1  0
 27 28  1  0
 28 29  1  0
 29 30  1  0
 30 31  1  0
 23 32  1  0
 32 33  2  0
 18  5  1  0
 33 20  1  0
 17 11  1  0
 31 27  1  0
  3 34  1  0
  3 35  1  0
  9 36  1  0
  9 37  1  0
 10 38  1  0
 12 39  1  0
 13 40  1  0
 16 41  1  0
 17 42  1  0
 19 43  1  0
 21 44  1  0
 22 45  1  0
 28 46  1  0
 28 47  1  0
 29 48  1  0
 29 49  1  0
 30 50  1  0
 30 51  1  0
 31 52  1  0
 31 53  1  0
 32 54  1  0
 33 55  1  0
M  END
>  <UniqueID>  (12) 
12

>  <SMILES>  (12) 
O=C(CSc1nnc(CNc2ccc(Cl)cc2)o1)Nc1ccc(S(=O)(=O)N2CCCC2)cc1

>  <Energy>  (12) 
89.6493729502606

>  <Genealogy>  (12) 
O=C(CSc1nnc(CNc2ccc(Cl)cc2)o1)Nc1ccc(S(=O)(=O)N2CCCC2)cc1 (3D coordinates assigned)
O=C(CSc1nnc(CNc2ccc(Cl)cc2)o1)Nc1ccc(S(=O)(=O)N2CCCC2)cc1 (nonaromatic ring conformer: 89.6493729502606 kcal/mol)

>  <smiles>  (12) 
O=C(CSc1nnc(CNc2ccc(Cl)cc2)o1)Nc1ccc(S(=O)(=O)N2CCCC2)cc1

>  <score_type>  (12) 
oracle

>  <origin>  (12) 
adg

>  <m_score__min__energy>  (12) 
-9.1300000000000008

>  <m_primary>  (12) 
energy

$$$$
12:0
     RDKit          3D

 48 51  0  0  0  0  0  0  0  0999 V2000
   59.6547   27.3101   49.0005 H   0  0  0  0  0  0  0  0  0  0  0  0
   59.2670   27.2670   47.9720 C   0  0  0  0  0  0  0  0  0  0  0  0
   59.2512   26.3100   47.4299 H   0  0  0  0  0  0  0  0  0  0  0  0
   58.8120   28.3850   47.3770 C   0  0  0  0  0  0  0  0  0  0  0  0
   58.2960   28.3690   46.0300 C   0  0  0  0  0  0  0  0  0  0  0  0
   57.7730   27.2790   45.4140 C   0  0  0  0  0  0  0  0  0  0  0  0
   57.7647   27.2813   44.3140 H   0  0  0  0  0  0  0  0  0  0  0  0
   57.2140   26.0900   46.0880 C   0  0  0  0  0  0  0  0  0  0  0  0
   57.9420   25.1030   46.6430 N   0  0  0  0  0  0  0  0  0  0  0  0
   57.0090   24.3120   47.2170 C   0  0  0  0  0  0  0  0  0  0  0  0
   57.3040   23.2590   47.8390 O   0  0  0  0  0  0  0  0  0  0  0  0
   55.7380   24.7460   47.0810 N   0  0  0  0  0  0  0  0  0  0  0  0
   55.8870   25.8760   46.3730 C   0  0  0  0  0  0  0  0  0  0  0  0
   54.8320   26.6990   45.9980 O   0  0  0  0  0  0  0  0  0  0  0  0
   58.3070   29.5770   45.2840 C   0  0  0  0  0  0  0  0  0  0  0  0
   58.0525   29.5491   44.2142 H   0  0  0  0  0  0  0  0  0  0  0  0
   58.6330   30.8000   45.8750 C   0  0  0  0  0  0  0  0  0  0  0  0
   58.6421   31.7267   45.2824 H   0  0  0  0  0  0  0  0  0  0  0  0
   58.9460   30.8190   47.2310 C   0  0  0  0  0  0  0  0  0  0  0  0
   59.0170   29.6560   47.9760 C   0  0  0  0  0  0  0  0  0  0  0  0
   59.3510   30.0550   49.2770 C   0  0  0  0  0  0  0  0  0  0  0  0
   59.4820   29.2350   50.5240 C   0  0  0  0  0  0  0  0  0  0  0  0
   59.3779   29.8867   51.4040 H   0  0  0  0  0  0  0  0  0  0  0  0
   58.6952   28.4664   50.5418 H   0  0  0  0  0  0  0  0  0  0  0  0
   60.4690   28.7498   50.5418 H   0  0  0  0  0  0  0  0  0  0  0  0
   59.4890   31.4340   49.2210 C   0  0  0  0  0  0  0  0  0  0  0  0
   59.8400   32.2430   50.2960 O   0  0  0  0  0  0  0  0  0  0  0  0
   59.2360   31.9040   47.9830 N   0  0  0  0  0  0  0  0  0  0  0  0
   59.3600   33.3010   47.5520 C   0  0  0  0  0  0  0  0  0  0  0  0
   58.4353   33.6049   47.0396 H   0  0  0  0  0  0  0  0  0  0  0  0
   59.5289   33.9321   48.4370 H   0  0  0  0  0  0  0  0  0  0  0  0
   60.5430   33.4650   46.5950 C   0  0  0  0  0  0  0  0  0  0  0  0
   60.9047   32.4711   46.2928 H   0  0  0  0  0  0  0  0  0  0  0  0
   60.2112   34.0319   45.7127 H   0  0  0  0  0  0  0  0  0  0  0  0
   61.6440   34.2050   47.2540 N   0  0  0  0  0  0  0  0  0  0  0  0
   62.9670   33.8370   46.7150 C   0  0  0  0  0  0  0  0  0  0  0  0
   62.9306   33.8846   45.6166 H   0  0  0  0  0  0  0  0  0  0  0  0
   63.7095   34.5432   47.1150 H   0  0  0  0  0  0  0  0  0  0  0  0
   63.3800   32.4080   47.1420 C   0  0  0  0  0  0  0  0  0  0  0  0
   63.2580   31.7359   46.2798 H   0  0  0  0  0  0  0  0  0  0  0  0
   64.4251   32.4562   47.4817 H   0  0  0  0  0  0  0  0  0  0  0  0
   62.6080   31.9050   48.2190 O   0  0  0  0  0  0  0  0  0  0  0  0
   62.4810   32.8870   49.2250 C   0  0  0  0  0  0  0  0  0  0  0  0
   62.0059   32.4382   50.1098 H   0  0  0  0  0  0  0  0  0  0  0  0
   63.4825   33.2641   49.4796 H   0  0  0  0  0  0  0  0  0  0  0  0
   61.6180   34.0660   48.7300 C   0  0  0  0  0  0  0  0  0  0  0  0
   60.5787   33.9023   49.0511 H   0  0  0  0  0  0  0  0  0  0  0  0
   62.0325   34.9892   49.1611 H   0  0  0  0  0  0  0  0  0  0  0  0
  1  2  1  0
  2  3  1  0
  2  4  2  0
  4  5  1  0
  5  6  2  0
  6  7  1  0
  6  8  1  0
  8  9  1  0
  9 10  1  0
 10 11  2  0
 10 12  1  0
 12 13  1  0
 13 14  1  0
  5 15  1  0
 15 16  1  0
 15 17  2  0
 17 18  1  0
 17 19  1  0
 19 20  2  0
 20 21  1  0
 21 22  1  0
 22 23  1  0
 22 24  1  0
 22 25  1  0
 21 26  2  0
 26 27  1  0
 26 28  1  0
 28 29  1  0
 29 30  1  0
 29 31  1  0
 29 32  1  0
 32 33  1  0
 32 34  1  0
 32 35  1  0
 35 36  1  0
 36 37  1  0
 36 38  1  0
 36 39  1  0
 39 40  1  0
 39 41  1  0
 39 42  1  0
 42 43  1  0
 43 44  1  0
 43 45  1  0
 43 46  1  0
 46 47  1  0
 46 48  1  0
 20  4  1  0
 46 35  1  0
 13  8  2  0
 28 19  1  0
M  CHG  4   9  -1  12  -1  14  -1  27  -1
M  END
>  <UniqueID>  (13) 
13

>  <SMILES>  (13) 
C=c1/c(=C\c2[n-]c(=O)[n-]c2[O-])ccc2c1c(C)c([O-])n2CCN1CCOCC1

>  <Energy>  (13) 
148.15574522390347

>  <Genealogy>  (13) 
C=c1c(=Cc2[n-]c(=O)[n-]c2[O-])ccc2c1c(C)c([O-])n2CCN1CCOCC1 (protonated)
C=c1/c(=C\c2[n-]c(=O)[n-]c2[O-])ccc2c1c(C)c([O-])n2CCN1CCOCC1 (cis-trans isomerization)
C=c1/c(=C\c2[n-]c(=O)[n-]c2[O-])ccc2c1c(C)c([O-])n2CCN1CCOCC1 (3D coordinates assigned)
C=c1/c(=C\c2[n-]c(=O)[n-]c2[O-])ccc2c1c(C)c([O-])n2CCN1CCOCC1 (nonaromatic ring conformer: 148.15574522390347 kcal/mol)

>  <smiles>  (13) 
C=c1c(=Cc2[nH]c(=O)[nH]c2O)ccc2c1c(C)c(O)n2CCN1CCOCC1

>  <score_type>  (13) 
oracle

>  <origin>  (13) 
adg

>  <m_score__min__energy>  (13) 
-16.850000000000001

>  <m_primary>  (13) 
energy

$$$$
13:0
     RDKit          3D

 47 48  0  0  0  0  0  0  0  0999 V2000
   59.4914   25.2799   46.5827 H   0  0  0  0  0  0  0  0  0  0  0  0
   58.4180   25.4290   46.3940 C   0  0  0  0  0  0  0  0  0  0  0  0
   58.0570   26.0820   45.2740 C   0  0  0  0  0  0  0  0  0  0  0  0
   58.1450   27.5520   45.1560 C   0  0  0  0  0  0  0  0  0  0  0  0
   59.1730   28.1370   45.5920 O   0  0  0  0  0  0  0  0  0  0  0  0
   57.0890   28.2970   44.5290 N   0  0  0  0  0  0  0  0  0  0  0  0
   56.2760   27.7690   44.1400 H   0  0  0  0  0  0  0  0  0  0  0  0
   57.0540   29.7310   44.4620 C   0  0  0  0  0  0  0  0  0  0  0  0
   55.6300   30.4690   44.1150 S   0  0  0  0  0  0  0  0  0  0  0  0
   58.2750   30.4870   44.4140 N   0  0  0  0  0  0  0  0  0  0  0  0
   59.0840   30.0660   43.9030 H   0  0  0  0  0  0  0  0  0  0  0  0
   58.4270   31.8060   44.9650 C   0  0  0  0  0  0  0  0  0  0  0  0
   57.9070   32.9370   44.3090 C   0  0  0  0  0  0  0  0  0  0  0  0
   57.3860   32.8213   43.3471 H   0  0  0  0  0  0  0  0  0  0  0  0
   58.0500   34.2070   44.8750 C   0  0  0  0  0  0  0  0  0  0  0  0
   57.6502   35.0885   44.3524 H   0  0  0  0  0  0  0  0  0  0  0  0
   58.6990   34.3600   46.1020 C   0  0  0  0  0  0  0  0  0  0  0  0
   58.8158   35.3623   46.5398 H   0  0  0  0  0  0  0  0  0  0  0  0
   59.2020   33.2390   46.7770 C   0  0  0  0  0  0  0  0  0  0  0  0
   60.0310   33.4170   48.3220 S   0  0  0  0  0  0  0  0  0  0  0  0
   60.5290   34.8280   48.4690 O   0  0  0  0  0  0  0  0  0  0  0  0
   59.0450   33.1410   49.4240 O   0  0  0  0  0  0  0  0  0  0  0  0
   61.3600   32.2770   48.4000 N   0  0  0  0  0  0  0  0  0  0  0  0
   60.9250   31.3360   48.5490 H   0  0  0  0  0  0  0  0  0  0  0  0
   62.1210   32.2320   47.1270 C   0  0  0  0  0  0  0  0  0  0  0  0
   62.4049   31.1889   46.9237 H   0  0  0  0  0  0  0  0  0  0  0  0
   61.4716   32.6388   46.3378 H   0  0  0  0  0  0  0  0  0  0  0  0
   63.3980   33.0910   47.1660 C   0  0  0  0  0  0  0  0  0  0  0  0
   64.2302   32.4853   47.5540 H   0  0  0  0  0  0  0  0  0  0  0  0
   63.6251   33.4381   46.1472 H   0  0  0  0  0  0  0  0  0  0  0  0
   63.2120   34.2130   48.0000 O   0  0  0  0  0  0  0  0  0  0  0  0
   63.1090   33.8060   49.3530 C   0  0  0  0  0  0  0  0  0  0  0  0
   64.1203   33.5924   49.7293 H   0  0  0  0  0  0  0  0  0  0  0  0
   62.6225   34.6274   49.8995 H   0  0  0  0  0  0  0  0  0  0  0  0
   62.2350   32.5460   49.5590 C   0  0  0  0  0  0  0  0  0  0  0  0
   62.8943   31.6792   49.7135 H   0  0  0  0  0  0  0  0  0  0  0  0
   61.5915   32.7213   50.4338 H   0  0  0  0  0  0  0  0  0  0  0  0
   59.0600   31.9660   46.2080 C   0  0  0  0  0  0  0  0  0  0  0  0
   59.4478   31.0847   46.7398 H   0  0  0  0  0  0  0  0  0  0  0  0
   57.7000   25.2900   44.0490 C   0  0  0  0  0  0  0  0  0  0  0  0
   57.2652   24.3254   44.3498 H   0  0  0  0  0  0  0  0  0  0  0  0
   56.9678   25.8513   43.4499 H   0  0  0  0  0  0  0  0  0  0  0  0
   58.6055   25.1132   43.4499 H   0  0  0  0  0  0  0  0  0  0  0  0
   57.4430   24.8920   47.4010 C   0  0  0  0  0  0  0  0  0  0  0  0
   57.8143   25.0965   48.4161 H   0  0  0  0  0  0  0  0  0  0  0  0
   56.4668   25.3797   47.2625 H   0  0  0  0  0  0  0  0  0  0  0  0
   57.3334   23.8063   47.2625 H   0  0  0  0  0  0  0  0  0  0  0  0
  1  2  1  0
  2  3  2  0
  3  4  1  0
  4  5  2  0
  4  6  1  0
  6  7  1  0
  6  8  1  0
  8  9  2  0
  8 10  1  0
 10 11  1  0
 10 12  1  0
 12 13  2  0
 13 14  1  0
 13 15  1  0
 15 16  1  0
 15 17  2  0
 17 18  1  0
 17 19  1  0
 19 20  1  0
 20 21  2  0
 20 22  2  0
 20 23  1  0
 23 24  1  0
 23 25  1  0
 25 26  1  0
 25 27  1  0
 25 28  1  0
 28 29  1  0
 28 30  1  0
 28 31  1  0
 31 32  1  0
 32 33  1  0
 32 34  1  0
 32 35  1  0
 35 36  1  0
 35 37  1  0
 19 38  2  0
 38 39  1  0
  3 40  1  0
 40 41  1  0
 40 42  1  0
 40 43  1  0
  2 44  1  0
 44 45  1  0
 44 46  1  0
 44 47  1  0
 38 12  1  0
 35 23  1  0
M  CHG  1  23   1
M  END
>  <UniqueID>  (14) 
14

>  <SMILES>  (14) 
C/C=C(/C)C(=O)NC(=S)Nc1cccc(S(=O)(=O)[NH+]2CCOCC2)c1

>  <Energy>  (14) 
64.72772199256951

>  <Genealogy>  (14) 
CC=C(C)C(=O)NC(=S)Nc1cccc(S(=O)(=O)[NH+]2CCOCC2)c1 (protonated)
C/C=C(/C)C(=O)NC(=S)Nc1cccc(S(=O)(=O)[NH+]2CCOCC2)c1 (cis-trans isomerization)
C/C=C(/C)C(=O)NC(=S)Nc1cccc(S(=O)(=O)[NH+]2CCOCC2)c1 (3D coordinates assigned)
C/C=C(/C)C(=O)NC(=S)Nc1cccc(S(=O)(=O)[NH+]2CCOCC2)c1 (nonaromatic ring conformer: 64.72772199256951 kcal/mol)

>  <smiles>  (14) 
CC=C(C)C(=O)NC(=S)Nc1cccc(S(=O)(=O)N2CCOCC2)c1

>  <score_type>  (14) 
oracle

>  <origin>  (14) 
adg

>  <m_score__min__energy>  (14) 
-7.0199999999999996

>  <m_primary>  (14) 
energy

$$$$
14:0
     RDKit          3D

 64 68  0  0  0  0  0  0  0  0999 V2000
   59.7830   29.1880   46.1690 C   0  0  0  0  0  0  0  0  0  0  0  0
   58.5590   29.1850   45.6130 C   0  0  0  0  0  0  0  0  0  0  0  0
   57.8070   28.0560   45.2600 C   0  0  0  0  0  0  0  0  0  0  0  0
   58.1610   26.7630   45.4310 C   0  0  0  0  0  0  0  0  0  0  0  0
   57.4130   25.7600   46.2210 C   0  0  0  0  0  0  0  0  0  0  0  0
   57.9320   24.6650   46.8060 N   0  0  0  0  0  0  0  0  0  0  0  0
   56.8580   24.0620   47.3590 C   0  0  0  0  0  0  0  0  0  0  0  0
   56.9440   22.9880   48.0090 O   0  0  0  0  0  0  0  0  0  0  0  0
   55.6850   24.6990   47.1580 N   0  0  0  0  0  0  0  0  0  0  0  0
   56.0540   25.7680   46.4340 C   0  0  0  0  0  0  0  0  0  0  0  0
   55.1650   26.7320   45.9750 O   0  0  0  0  0  0  0  0  0  0  0  0
   56.6420   28.5390   44.6740 C   0  0  0  0  0  0  0  0  0  0  0  0
   56.7230   29.9170   44.7030 C   0  0  0  0  0  0  0  0  0  0  0  0
   55.6790   30.8410   44.1500 C   0  0  0  0  0  0  0  0  0  0  0  0
   57.8840   30.3110   45.2700 N   0  0  0  0  0  0  0  0  0  0  0  0
   58.3100   31.6740   45.4470 C   0  0  0  0  0  0  0  0  0  0  0  0
   58.1690   32.6020   44.4060 C   0  0  0  0  0  0  0  0  0  0  0  0
   58.5910   33.9210   44.5820 C   0  0  0  0  0  0  0  0  0  0  0  0
   59.1720   34.3190   45.7900 C   0  0  0  0  0  0  0  0  0  0  0  0
   59.3410   33.3960   46.8370 C   0  0  0  0  0  0  0  0  0  0  0  0
   59.9870   33.8210   48.1070 C   0  0  0  0  0  0  0  0  0  0  0  0
   59.3450   34.5730   48.8950 O   0  0  0  0  0  0  0  0  0  0  0  0
   61.3120   33.3580   48.4730 N   0  0  2  0  0  0  0  0  0  0  0  0
   61.7060   33.9000   49.8050 C   0  0  0  0  0  0  0  0  0  0  0  0
   63.1750   34.3640   49.8960 C   0  0  0  0  0  0  0  0  0  0  0  0
   64.1610   33.4510   49.1390 C   0  0  1  0  0  0  0  0  0  0  0  0
   64.5810   32.2590   49.9910 C   0  0  0  0  0  0  0  0  0  0  0  0
   65.9270   32.1220   50.3770 C   0  0  0  0  0  0  0  0  0  0  0  0
   66.3280   31.0630   51.1950 C   0  0  0  0  0  0  0  0  0  0  0  0
   65.3940   30.1270   51.6430 C   0  0  0  0  0  0  0  0  0  0  0  0
   64.0470   30.2450   51.2710 C   0  0  0  0  0  0  0  0  0  0  0  0
   63.0280   29.2570   51.7610 C   0  0  0  0  0  0  0  0  0  0  0  0
   63.6450   31.3150   50.4580 C   0  0  0  0  0  0  0  0  0  0  0  0
   63.6520   33.0470   47.7280 C   0  0  0  0  0  0  0  0  0  0  0  0
   62.2840   33.6640   47.4020 C   0  0  0  0  0  0  0  0  0  0  0  0
   58.8890   32.0750   46.6580 C   0  0  0  0  0  0  0  0  0  0  0  0
   60.2782   30.1418   46.4036 H   0  0  0  0  0  0  0  0  0  0  0  0
   60.2893   28.2366   46.3894 H   0  0  0  0  0  0  0  0  0  0  0  0
   59.0861   26.4268   44.9400 H   0  0  0  0  0  0  0  0  0  0  0  0
   55.8153   27.9389   44.2660 H   0  0  0  0  0  0  0  0  0  0  0  0
   55.1374   31.3203   44.9788 H   0  0  0  0  0  0  0  0  0  0  0  0
   56.1622   31.6127   43.5328 H   0  0  0  0  0  0  0  0  0  0  0  0
   54.9717   30.2676   43.5328 H   0  0  0  0  0  0  0  0  0  0  0  0
   57.7252   32.2905   43.4489 H   0  0  0  0  0  0  0  0  0  0  0  0
   58.4660   34.6498   43.7676 H   0  0  0  0  0  0  0  0  0  0  0  0
   59.4989   35.3610   45.9220 H   0  0  0  0  0  0  0  0  0  0  0  0
   61.2780   32.3150   48.5320 H   0  0  0  0  0  0  0  0  0  0  0  0
   61.0590   34.7603   50.0313 H   0  0  0  0  0  0  0  0  0  0  0  0
   61.5921   33.0762   50.5250 H   0  0  0  0  0  0  0  0  0  0  0  0
   63.2460   35.3774   49.4740 H   0  0  0  0  0  0  0  0  0  0  0  0
   63.4574   34.3314   50.9586 H   0  0  0  0  0  0  0  0  0  0  0  0
   65.0696   34.0426   48.9531 H   0  0  0  0  0  0  0  0  0  0  0  0
   66.6704   32.8555   50.0315 H   0  0  0  0  0  0  0  0  0  0  0  0
   67.3840   30.9662   51.4874 H   0  0  0  0  0  0  0  0  0  0  0  0
   65.7150   29.2961   52.2884 H   0  0  0  0  0  0  0  0  0  0  0  0
   63.0221   29.2513   52.8610 H   0  0  0  0  0  0  0  0  0  0  0  0
   62.0325   29.5428   51.3905 H   0  0  0  0  0  0  0  0  0  0  0  0
   63.2829   28.2531   51.3905 H   0  0  0  0  0  0  0  0  0  0  0  0
   62.5854   31.4185   50.1814 H   0  0  0  0  0  0  0  0  0  0  0  0
   64.3812   33.3876   46.9782 H   0  0  0  0  0  0  0  0  0  0  0  0
   63.5396   31.9529   47.7118 H   0  0  0  0  0  0  0  0  0  0  0  0
   62.3910   34.7550   47.3106 H   0  0  0  0  0  0  0  0  0  0  0  0
   61.9176   33.2394   46.4557 H   0  0  0  0  0  0  0  0  0  0  0  0
   58.9916   31.3493   47.4783 H   0  0  0  0  0  0  0  0  0  0  0  0
  1  2  2  0
  2  3  1  0
  3  4  2  3
  4  5  1  0
  5  6  1  0
  6  7  1  0
  7  8  2  0
  7  9  1  0
  9 10  1  0
 10 11  1  0
  3 12  1  0
 12 13  2  0
 13 14  1  0
 13 15  1  0
 15 16  1  0
 16 17  2  0
 17 18  1  0
 18 19  2  0
 19 20  1  0
 20 21  1  0
 21 22  2  0
 21 23  1  0
 23 24  1  0
 24 25  1  0
 25 26  1  0
 26 27  1  0
 27 28  2  0
 28 29  1  0
 29 30  2  0
 30 31  1  0
 31 32  1  0
 31 33  2  0
 26 34  1  0
 34 35  1  0
 20 36  2  0
 15  2  1  0
 36 16  1  0
 10  5  2  0
 35 23  1  0
 33 27  1  0
  1 37  1  0
  1 38  1  0
  4 39  1  0
 12 40  1  0
 14 41  1  0
 14 42  1  0
 14 43  1  0
 17 44  1  0
 18 45  1  0
 19 46  1  0
 23 47  1  1
 24 48  1  0
 24 49  1  0
 25 50  1  0
 25 51  1  0
 26 52  1  6
 28 53  1  0
 29 54  1  0
 30 55  1  0
 32 56  1  0
 32 57  1  0
 32 58  1  0
 33 59  1  0
 34 60  1  0
 34 61  1  0
 35 62  1  0
 35 63  1  0
 36 64  1  0
M  CHG  4   6  -1   9  -1  11  -1  23   1
M  END
>  <UniqueID>  (15) 
15

>  <SMILES>  (15) 
C=c1c(=Cc2[n-]c(=O)[n-]c2[O-])cc(C)n1-c1cccc(C(=O)[NH+]2CCC(c3cccc(C)c3)CC2)c1

>  <Energy>  (15) 
150.0551149011193

>  <Genealogy>  (15) 
C=c1c(=Cc2[n-]c(=O)[n-]c2[O-])cc(C)n1-c1cccc(C(=O)[NH+]2CCC(c3cccc(C)c3)CC2)c1 (protonated)
C=c1c(=Cc2[n-]c(=O)[n-]c2[O-])cc(C)n1-c1cccc(C(=O)[NH+]2CCC(c3cccc(C)c3)CC2)c1 (3D coordinates assigned)
C=c1c(=Cc2[n-]c(=O)[n-]c2[O-])cc(C)n1-c1cccc(C(=O)[NH+]2CCC(c3cccc(C)c3)CC2)c1 (nonaromatic ring conformer: 150.0551149011193 kcal/mol)

>  <smiles>  (15) 
C=c1c(=Cc2[nH]c(=O)[nH]c2O)cc(C)n1-c1cccc(C(=O)N2CCC(c3cccc(C)c3)CC2)c1

>  <score_type>  (15) 
oracle

>  <origin>  (15) 
adg

>  <m_score__min__energy>  (15) 
-18.239999999999998

>  <m_primary>  (15) 
energy

$$$$
15:0
     RDKit          3D

 45 48  0  0  0  0  0  0  0  0999 V2000
   55.6650   25.2350   46.4310 O   0  0  0  0  0  0  0  0  0  0  0  0
   56.2630   26.0230   45.6500 C   0  0  0  0  0  0  0  0  0  0  0  0
   57.3460   25.4870   44.7480 C   0  0  0  0  0  0  0  0  0  0  0  0
   57.0120   24.1050   44.2810 C   0  0  0  0  0  0  0  0  0  0  0  0
   55.9200   23.7470   43.5290 C   0  0  0  0  0  0  0  0  0  0  0  0
   55.9320   22.4150   43.3510 N   0  0  0  0  0  0  0  0  0  0  0  0
   57.0370   22.0050   44.0110 C   0  0  0  0  0  0  0  0  0  0  0  0
   57.7210   23.0090   44.5990 N   0  0  0  0  0  0  0  0  0  0  0  0
   55.8710   27.4030   45.6280 N   0  0  0  0  0  0  0  0  0  0  0  0
   56.6880   28.5070   45.2170 C   0  0  0  0  0  0  0  0  0  0  0  0
   56.2520   29.3240   44.1680 C   0  0  0  0  0  0  0  0  0  0  0  0
   57.0340   30.4020   43.7440 C   0  0  0  0  0  0  0  0  0  0  0  0
   58.2550   30.6720   44.3660 C   0  0  0  0  0  0  0  0  0  0  0  0
   58.7020   29.8690   45.4280 C   0  0  0  0  0  0  0  0  0  0  0  0
   60.0220   30.1580   46.1000 C   0  0  0  0  0  0  0  0  0  0  0  0
   59.9910   31.4780   46.8330 C   0  0  0  0  0  0  0  0  0  0  0  0
   58.7830   32.0660   47.0330 N   0  0  0  0  0  0  0  0  0  0  0  0
   58.6530   33.2100   47.6990 N   0  0  0  0  0  0  0  0  0  0  0  0
   59.7230   33.8580   48.2150 C   0  0  0  0  0  0  0  0  0  0  0  0
   59.5480   34.9330   48.8490 O   0  0  0  0  0  0  0  0  0  0  0  0
   61.0120   33.3270   48.0400 C   0  0  0  0  0  0  0  0  0  0  0  0
   61.1520   32.0900   47.3640 C   0  0  0  0  0  0  0  0  0  0  0  0
   62.5270   31.4940   47.1120 C   0  0  0  0  0  0  0  0  0  0  0  0
   63.6080   32.0600   48.0360 C   0  0  0  0  0  0  0  0  0  0  0  0
   63.5340   33.5820   48.0680 C   0  0  0  0  0  0  0  0  0  0  0  0
   62.1990   34.0300   48.6660 C   0  0  0  0  0  0  0  0  0  0  0  0
   57.8900   28.8140   45.8770 C   0  0  0  0  0  0  0  0  0  0  0  0
   57.4482   26.1481   43.8747 H   0  0  0  0  0  0  0  0  0  0  0  0
   58.2894   25.4504   45.3125 H   0  0  0  0  0  0  0  0  0  0  0  0
   55.1595   24.4379   43.1364 H   0  0  0  0  0  0  0  0  0  0  0  0
   57.3499   20.9518   44.0642 H   0  0  0  0  0  0  0  0  0  0  0  0
   55.2905   29.1171   43.6754 H   0  0  0  0  0  0  0  0  0  0  0  0
   56.6867   31.0398   42.9178 H   0  0  0  0  0  0  0  0  0  0  0  0
   58.8693   31.5174   44.0226 H   0  0  0  0  0  0  0  0  0  0  0  0
   60.2408   29.3547   46.8189 H   0  0  0  0  0  0  0  0  0  0  0  0
   60.8004   30.2113   45.3246 H   0  0  0  0  0  0  0  0  0  0  0  0
   62.4701   30.4063   47.2657 H   0  0  0  0  0  0  0  0  0  0  0  0
   62.8108   31.7512   46.0809 H   0  0  0  0  0  0  0  0  0  0  0  0
   63.4577   31.6681   49.0528 H   0  0  0  0  0  0  0  0  0  0  0  0
   64.5957   31.7581   47.6575 H   0  0  0  0  0  0  0  0  0  0  0  0
   64.3579   33.9736   48.6827 H   0  0  0  0  0  0  0  0  0  0  0  0
   63.6170   33.9686   47.0415 H   0  0  0  0  0  0  0  0  0  0  0  0
   62.2067   33.8145   49.7447 H   0  0  0  0  0  0  0  0  0  0  0  0
   62.0904   35.1063   48.4666 H   0  0  0  0  0  0  0  0  0  0  0  0
   58.1977   28.2234   46.7525 H   0  0  0  0  0  0  0  0  0  0  0  0
  1  2  2  0
  2  3  1  0
  3  4  1  0
  4  5  2  0
  5  6  1  0
  6  7  1  0
  7  8  2  0
  2  9  1  0
  9 10  1  0
 10 11  2  0
 11 12  1  0
 12 13  2  0
 13 14  1  0
 14 15  1  0
 15 16  1  0
 16 17  2  0
 17 18  1  0
 18 19  1  0
 19 20  2  0
 19 21  1  0
 21 22  2  0
 22 23  1  0
 23 24  1  0
 24 25  1  0
 25 26  1  0
 14 27  2  0
  8  4  1  0
 27 10  1  0
 22 16  1  0
 26 21  1  0
  3 28  1  0
  3 29  1  0
  5 30  1  0
  7 31  1  0
 11 32  1  0
 12 33  1  0
 13 34  1  0
 15 35  1  0
 15 36  1  0
 23 37  1  0
 23 38  1  0
 24 39  1  0
 24 40  1  0
 25 41  1  0
 25 42  1  0
 26 43  1  0
 26 44  1  0
 27 45  1  0
M  CHG  3   6  -1   9  -1  18  -1
M  END
>  <UniqueID>  (16) 
16

>  <SMILES>  (16) 
O=C(Cc1c[n-]cn1)[N-]c1cccc(Cc2n[n-]c(=O)c3c2CCCC3)c1

>  <Energy>  (16) 
80.21571736543372

>  <Genealogy>  (16) 
O=C(Cc1c[n-]cn1)[N-]c1cccc(Cc2n[n-]c(=O)c3c2CCCC3)c1 (protonated)
O=C(Cc1c[n-]cn1)[N-]c1cccc(Cc2n[n-]c(=O)c3c2CCCC3)c1 (3D coordinates assigned)
O=C(Cc1c[n-]cn1)[N-]c1cccc(Cc2n[n-]c(=O)c3c2CCCC3)c1 (nonaromatic ring conformer: 80.21571736543372 kcal/mol)

>  <smiles>  (16) 
O=C(Cc1c[nH]cn1)Nc1cccc(Cc2n[nH]c(=O)c3c2CCCC3)c1

>  <score_type>  (16) 
oracle

>  <origin>  (16) 
adg

>  <m_score__min__energy>  (16) 
-13.56

>  <m_primary>  (16) 
energy

$$$$
16:0
     RDKit          3D

 38 41  0  0  0  0  0  0  0  0999 V2000
   62.1330   33.8410   46.7570 C   0  0  0  0  0  0  0  0  0  0  0  0
   60.6880   33.6580   46.8410 N   0  0  0  0  0  0  0  0  0  0  0  0
   59.9380   34.0620   47.9930 C   0  0  0  0  0  0  0  0  0  0  0  0
   60.3860   34.9070   48.8130 O   0  0  0  0  0  0  0  0  0  0  0  0
   58.6230   33.3650   48.2170 C   0  0  1  0  0  0  0  0  0  0  0  0
   57.7830   33.4290   46.9040 C   0  0  0  0  0  0  0  0  0  0  0  0
   58.6400   33.1950   45.6100 C   0  0  2  0  0  0  0  0  0  0  0  0
   57.9590   32.3160   44.5680 C   0  0  0  0  0  0  0  0  0  0  0  0
   57.3240   31.1050   44.9180 C   0  0  0  0  0  0  0  0  0  0  0  0
   56.7290   30.3080   43.9370 C   0  0  0  0  0  0  0  0  0  0  0  0
   56.7660   30.6990   42.5980 C   0  0  0  0  0  0  0  0  0  0  0  0
   57.4030   31.8870   42.2350 C   0  0  0  0  0  0  0  0  0  0  0  0
   58.0000   32.6900   43.2120 C   0  0  0  0  0  0  0  0  0  0  0  0
   60.0180   32.7020   46.0040 C   0  0  0  0  0  0  0  0  0  0  0  0
   60.0800   31.4560   46.3770 N   0  0  0  0  0  0  0  0  0  0  0  0
   59.6700   31.0520   47.7070 C   0  0  0  0  0  0  0  0  0  0  0  0
   59.9250   29.7320   48.1090 C   0  0  0  0  0  0  0  0  0  0  0  0
   59.4970   29.2700   49.3540 C   0  0  0  0  0  0  0  0  0  0  0  0
   58.7960   30.1150   50.2120 C   0  0  0  0  0  0  0  0  0  0  0  0
   58.5170   31.4280   49.8320 C   0  0  0  0  0  0  0  0  0  0  0  0
   58.9370   31.9180   48.5840 C   0  0  0  0  0  0  0  0  0  0  0  0
   62.5554   33.8945   47.7713 H   0  0  0  0  0  0  0  0  0  0  0  0
   62.5794   32.9922   46.2182 H   0  0  0  0  0  0  0  0  0  0  0  0
   62.3537   34.7743   46.2182 H   0  0  0  0  0  0  0  0  0  0  0  0
   58.0429   33.8415   49.0210 H   0  0  0  0  0  0  0  0  0  0  0  0
   57.0019   32.6559   46.9506 H   0  0  0  0  0  0  0  0  0  0  0  0
   57.3585   34.4415   46.8364 H   0  0  0  0  0  0  0  0  0  0  0  0
   58.7474   34.1615   45.0959 H   0  0  0  0  0  0  0  0  0  0  0  0
   57.2974   30.7866   45.9706 H   0  0  0  0  0  0  0  0  0  0  0  0
   56.2300   29.3697   44.2209 H   0  0  0  0  0  0  0  0  0  0  0  0
   56.2932   30.0711   41.8284 H   0  0  0  0  0  0  0  0  0  0  0  0
   57.4354   32.1920   41.1786 H   0  0  0  0  0  0  0  0  0  0  0  0
   58.5058   33.6216   42.9181 H   0  0  0  0  0  0  0  0  0  0  0  0
   60.0030   30.7250   45.6350 H   0  0  0  0  0  0  0  0  0  0  0  0
   60.4686   29.0537   47.4349 H   0  0  0  0  0  0  0  0  0  0  0  0
   59.7136   28.2356   49.6591 H   0  0  0  0  0  0  0  0  0  0  0  0
   58.4614   29.7454   51.1925 H   0  0  0  0  0  0  0  0  0  0  0  0
   57.9624   32.0865   50.5166 H   0  0  0  0  0  0  0  0  0  0  0  0
  1  2  1  0
  2  3  1  0
  3  4  2  0
  3  5  1  0
  5  6  1  0
  6  7  1  0
  7  8  1  0
  8  9  2  0
  9 10  1  0
 10 11  2  0
 11 12  1  0
 12 13  2  0
  7 14  1  0
 14 15  2  0
 15 16  1  0
 16 17  2  0
 17 18  1  0
 18 19  2  0
 19 20  1  0
 20 21  2  0
 14  2  1  0
 21 16  1  0
 21  5  1  0
 13  8  1  0
  1 22  1  0
  1 23  1  0
  1 24  1  0
  5 25  1  1
  6 26  1  0
  6 27  1  0
  7 28  1  6
  9 29  1  0
 10 30  1  0
 11 31  1  0
 12 32  1  0
 13 33  1  0
 15 34  1  0
 17 35  1  0
 18 36  1  0
 19 37  1  0
 20 38  1  0
M  CHG  1  15   1
M  END
>  <UniqueID>  (17) 
17

>  <SMILES>  (17) 
CN1C(=O)C2CC(c3ccccc3)C1=[NH+]c1ccccc12

>  <Energy>  (17) 
99.40686145357535

>  <Genealogy>  (17) 
CN1C(=O)C2CC(c3ccccc3)C1=[NH+]c1ccccc12 (protonated)
CN1C(=O)C2CC(c3ccccc3)C1=[NH+]c1ccccc12 (3D coordinates assigned)
CN1C(=O)C2CC(c3ccccc3)C1=[NH+]c1ccccc12 (nonaromatic ring conformer: 99.40686145357535 kcal/mol)

>  <smiles>  (17) 
CN1C(=O)C2CC(c3ccccc3)C1=Nc1ccccc12

>  <score_type>  (17) 
oracle

>  <origin>  (17) 
adg

>  <m_score__min__energy>  (17) 
-5.7800000000000002

>  <m_primary>  (17) 
energy

$$$$
17:0
     RDKit          3D

 29 31  0  0  0  0  0  0  0  0999 V2000
   55.2210   26.1070   46.3330 O   0  0  0  0  0  0  0  0  0  0  0  0
   56.5580   26.4680   46.1530 C   0  0  0  0  0  0  0  0  0  0  0  0
   56.8840   27.6840   45.5290 C   0  0  0  0  0  0  0  0  0  0  0  0
   55.9060   28.5320   45.1230 F   0  0  0  0  0  0  0  0  0  0  0  0
   58.2200   28.0250   45.3080 C   0  0  0  0  0  0  0  0  0  0  0  0
   59.2390   27.1560   45.7030 C   0  0  0  0  0  0  0  0  0  0  0  0
   58.9250   25.9480   46.3310 C   0  0  0  0  0  0  0  0  0  0  0  0
   57.5880   25.6030   46.5810 C   0  0  0  0  0  0  0  0  0  0  0  0
   57.2910   24.3230   47.2540 C   0  0  0  0  0  0  0  0  0  0  0  0
   57.2830   24.1900   48.5940 N   0  0  0  0  0  0  0  0  0  0  0  0
   57.0420   22.8780   48.7840 C   0  0  0  0  0  0  0  0  0  0  0  0
   56.9420   22.2030   50.2670 S   0  0  0  0  0  0  0  0  0  0  0  0
   56.8890   22.1700   47.6480 N   0  0  0  0  0  0  0  0  0  0  0  0
   57.0380   23.0880   46.6730 C   0  0  0  0  0  0  0  0  0  0  0  0
   56.8720   22.7660   45.2380 C   0  0  0  0  0  0  0  0  0  0  0  0
   57.5660   21.6940   44.6470 C   0  0  0  0  0  0  0  0  0  0  0  0
   57.4000   21.4110   43.2870 C   0  0  0  0  0  0  0  0  0  0  0  0
   56.5550   22.2000   42.5050 C   0  0  0  0  0  0  0  0  0  0  0  0
   55.8780   23.2800   43.0790 C   0  0  0  0  0  0  0  0  0  0  0  0
   56.0410   23.5670   44.4380 C   0  0  0  0  0  0  0  0  0  0  0  0
   54.9560   25.2210   46.7460 H   0  0  0  0  0  0  0  0  0  0  0  0
   58.4700   28.9796   44.8220 H   0  0  0  0  0  0  0  0  0  0  0  0
   60.2903   27.4227   45.5196 H   0  0  0  0  0  0  0  0  0  0  0  0
   59.7313   25.2628   46.6315 H   0  0  0  0  0  0  0  0  0  0  0  0
   58.2417   21.0761   45.2567 H   0  0  0  0  0  0  0  0  0  0  0  0
   57.9366   20.5648   42.8330 H   0  0  0  0  0  0  0  0  0  0  0  0
   56.4218   21.9720   41.4372 H   0  0  0  0  0  0  0  0  0  0  0  0
   55.2163   23.9048   42.4611 H   0  0  0  0  0  0  0  0  0  0  0  0
   55.5154   24.4249   44.8827 H   0  0  0  0  0  0  0  0  0  0  0  0
  1  2  1  0
  2  3  2  0
  3  4  1  0
  3  5  1  0
  5  6  2  0
  6  7  1  0
  7  8  2  0
  8  9  1  0
  9 10  1  0
 10 11  1  0
 11 12  2  0
 11 13  1  0
 13 14  1  0
 14 15  1  0
 15 16  2  0
 16 17  1  0
 17 18  2  0
 18 19  1  0
 19 20  2  0
  8  2  1  0
 14  9  2  0
 20 15  1  0
  1 21  1  0
  5 22  1  0
  6 23  1  0
  7 24  1  0
 16 25  1  0
 17 26  1  0
 18 27  1  0
 19 28  1  0
 20 29  1  0
M  CHG  2  10  -1  13  -1
M  END
>  <UniqueID>  (18) 
18

>  <SMILES>  (18) 
Oc1c(F)cccc1-c1[n-]c(=S)[n-]c1-c1ccccc1

>  <Energy>  (18) 
68.85647189229283

>  <Genealogy>  (18) 
Oc1c(F)cccc1-c1[n-]c(=S)[n-]c1-c1ccccc1 (protonated)
Oc1c(F)cccc1-c1[n-]c(=S)[n-]c1-c1ccccc1 (3D coordinates assigned)
Oc1c(F)cccc1-c1[n-]c(=S)[n-]c1-c1ccccc1 (optimized conformer: 68.85647189229283 kcal/mol)

>  <smiles>  (18) 
Oc1c(F)cccc1-c1[nH]c(=S)[nH]c1-c1ccccc1

>  <score_type>  (18) 
oracle

>  <origin>  (18) 
adg

>  <m_score__min__energy>  (18) 
-9.5999999999999996

>  <m_primary>  (18) 
energy

$$$$
18:0
     RDKit          3D

 37 40  0  0  0  0  0  0  0  0999 V2000
   55.4710   29.6370   44.8250 O   0  0  0  0  0  0  0  0  0  0  0  0
   56.7300   29.6480   44.8680 C   0  0  0  0  0  0  0  0  0  0  0  0
   57.4430   28.4910   44.4050 N   0  0  0  0  0  0  0  0  0  0  0  0
   58.3470   27.6860   45.1760 C   0  0  0  0  0  0  0  0  0  0  0  0
   59.6950   28.0700   45.2130 C   0  0  0  0  0  0  0  0  0  0  0  0
   60.6040   27.3930   46.0290 C   0  0  0  0  0  0  0  0  0  0  0  0
   60.1760   26.3200   46.8100 C   0  0  0  0  0  0  0  0  0  0  0  0
   58.8460   25.9010   46.7560 C   0  0  0  0  0  0  0  0  0  0  0  0
   57.9220   26.5540   45.9200 C   0  0  0  0  0  0  0  0  0  0  0  0
   56.5520   26.0030   45.8250 C   0  0  0  0  0  0  0  0  0  0  0  0
   56.2060   24.6960   45.5420 C   0  0  0  0  0  0  0  0  0  0  0  0
   54.8310   24.6880   45.6190 C   0  0  0  0  0  0  0  0  0  0  0  0
   54.3910   25.9180   45.9430 N   0  0  0  0  0  0  0  0  0  0  0  0
   55.4380   26.7180   46.0760 N   0  0  0  0  0  0  0  0  0  0  0  0
   57.4110   30.8520   45.3820 C   0  0  0  0  0  0  0  0  0  0  0  0
   58.5560   30.8980   46.1530 C   0  0  0  0  0  0  0  0  0  0  0  0
   58.7740   32.2480   46.3540 C   0  0  0  0  0  0  0  0  0  0  0  0
   59.8720   32.8670   47.1340 C   0  0  0  0  0  0  0  0  0  0  0  0
   59.6040   33.7180   48.2260 C   0  0  0  0  0  0  0  0  0  0  0  0
   60.6540   34.2960   48.9470 C   0  0  0  0  0  0  0  0  0  0  0  0
   61.9780   34.0360   48.5880 C   0  0  0  0  0  0  0  0  0  0  0  0
   62.2570   33.1990   47.5070 C   0  0  0  0  0  0  0  0  0  0  0  0
   61.2120   32.6170   46.7820 C   0  0  0  0  0  0  0  0  0  0  0  0
   57.8170   32.9530   45.7170 N   0  0  0  0  0  0  0  0  0  0  0  0
   56.9920   32.1050   45.1220 N   0  0  0  0  0  0  0  0  0  0  0  0
   60.0395   28.9116   44.5941 H   0  0  0  0  0  0  0  0  0  0  0  0
   61.6581   27.7064   46.0556 H   0  0  0  0  0  0  0  0  0  0  0  0
   60.8881   25.8029   47.4699 H   0  0  0  0  0  0  0  0  0  0  0  0
   58.5169   25.0519   47.3731 H   0  0  0  0  0  0  0  0  0  0  0  0
   56.8751   23.8547   45.3087 H   0  0  0  0  0  0  0  0  0  0  0  0
   54.1907   23.8111   45.4428 H   0  0  0  0  0  0  0  0  0  0  0  0
   59.1567   30.0538   46.5224 H   0  0  0  0  0  0  0  0  0  0  0  0
   58.5630   33.9285   48.5125 H   0  0  0  0  0  0  0  0  0  0  0  0
   60.4361   34.9570   49.7989 H   0  0  0  0  0  0  0  0  0  0  0  0
   62.8016   34.4912   49.1577 H   0  0  0  0  0  0  0  0  0  0  0  0
   63.3006   32.9965   47.2245 H   0  0  0  0  0  0  0  0  0  0  0  0
   61.4389   31.9589   45.9303 H   0  0  0  0  0  0  0  0  0  0  0  0
  1  2  2  0
  2  3  1  0
  3  4  1  0
  4  5  2  0
  5  6  1  0
  6  7  2  0
  7  8  1  0
  8  9  2  0
  9 10  1  0
 10 11  1  0
 11 12  2  0
 12 13  1  0
 13 14  1  0
  2 15  1  0
 15 16  1  0
 16 17  2  0
 17 18  1  0
 18 19  2  0
 19 20  1  0
 20 21  2  0
 21 22  1  0
 22 23  2  0
 17 24  1  0
 24 25  1  0
  9  4  1  0
 14 10  2  0
 25 15  2  0
 23 18  1  0
  5 26  1  0
  6 27  1  0
  7 28  1  0
  8 29  1  0
 11 30  1  0
 12 31  1  0
 16 32  1  0
 19 33  1  0
 20 34  1  0
 21 35  1  0
 22 36  1  0
 23 37  1  0
M  CHG  3   3  -1  13  -1  24  -1
M  END
>  <UniqueID>  (19) 
19

>  <SMILES>  (19) 
O=C([N-]c1ccccc1-c1cc[n-]n1)c1cc(-c2ccccc2)[n-]n1

>  <Energy>  (19) 
112.41764378303385

>  <Genealogy>  (19) 
O=C([N-]c1ccccc1-c1cc[n-]n1)c1cc(-c2ccccc2)[n-]n1 (protonated)
O=C([N-]c1ccccc1-c1cc[n-]n1)c1cc(-c2ccccc2)[n-]n1 (3D coordinates assigned)
O=C([N-]c1ccccc1-c1cc[n-]n1)c1cc(-c2ccccc2)[n-]n1 (optimized conformer: 112.41764378303385 kcal/mol)

>  <smiles>  (19) 
O=C(Nc1ccccc1-c1cc[nH]n1)c1cc(-c2ccccc2)[nH]n1

>  <score_type>  (19) 
oracle

>  <origin>  (19) 
adg

>  <m_score__min__energy>  (19) 
-13.710000000000001

>  <m_primary>  (19) 
energy

$$$$
19:0
     RDKit          3D

 45 47  0  0  0  0  0  0  0  0999 V2000
   54.3290   29.9010   54.7310 O   0  0  0  0  0  0  0  0  0  0  0  0
   54.6820   30.0000   53.5250 C   0  0  0  0  0  0  0  0  0  0  0  0
   53.6940   29.8330   52.4990 N   0  0  0  0  0  0  0  0  0  0  0  0
   52.7330   30.6560   52.1850 C   0  0  0  0  0  0  0  0  0  0  0  0
   52.4790   31.0640   50.8590 C   0  0  0  0  0  0  0  0  0  0  0  0
   51.4370   31.9600   50.6010 C   0  0  0  0  0  0  0  0  0  0  0  0
   50.6830   32.4430   51.6220 N   0  0  0  0  0  0  0  0  0  0  0  0
   50.9150   32.0810   52.9110 C   0  0  0  0  0  0  0  0  0  0  0  0
   51.9460   31.1890   53.2150 C   0  0  0  0  0  0  0  0  0  0  0  0
   56.1500   30.1230   53.1840 C   0  0  2  0  0  0  0  0  0  0  0  0
   56.9110   30.8070   54.3410 C   0  0  0  0  0  0  0  0  0  0  0  0
   58.1610   31.5230   53.8210 C   0  0  0  0  0  0  0  0  0  0  0  0
   57.7900   32.6380   52.9160 N   0  0  1  0  0  0  0  0  0  0  0  0
   58.9570   33.1320   52.2020 C   0  0  0  0  0  0  0  0  0  0  0  0
   59.4150   34.2290   52.4890 O   0  0  0  0  0  0  0  0  0  0  0  0
   59.6560   32.3200   51.1320 C   0  0  0  0  0  0  0  0  0  0  0  0
   59.4130   32.9070   49.7660 C   0  0  0  0  0  0  0  0  0  0  0  0
   60.0730   34.0840   49.3740 C   0  0  0  0  0  0  0  0  0  0  0  0
   59.8330   34.6400   48.1140 C   0  0  0  0  0  0  0  0  0  0  0  0
   58.9330   34.0270   47.2360 C   0  0  0  0  0  0  0  0  0  0  0  0
   58.2720   32.8580   47.6200 C   0  0  0  0  0  0  0  0  0  0  0  0
   58.5090   32.2980   48.8780 C   0  0  0  0  0  0  0  0  0  0  0  0
   56.6520   32.3450   51.9980 C   0  0  0  0  0  0  0  0  0  0  0  0
   56.3640   30.8420   51.8280 C   0  0  0  0  0  0  0  0  0  0  0  0
   53.0964   30.6800   50.0335 H   0  0  0  0  0  0  0  0  0  0  0  0
   51.2274   32.2746   49.5680 H   0  0  0  0  0  0  0  0  0  0  0  0
   50.2892   32.4915   53.7172 H   0  0  0  0  0  0  0  0  0  0  0  0
   52.1397   30.9056   54.2601 H   0  0  0  0  0  0  0  0  0  0  0  0
   56.5664   29.1122   53.0621 H   0  0  0  0  0  0  0  0  0  0  0  0
   56.2493   31.5413   54.8237 H   0  0  0  0  0  0  0  0  0  0  0  0
   57.2202   30.0374   55.0635 H   0  0  0  0  0  0  0  0  0  0  0  0
   58.7282   31.9240   54.6739 H   0  0  0  0  0  0  0  0  0  0  0  0
   58.7732   30.8017   53.2599 H   0  0  0  0  0  0  0  0  0  0  0  0
   57.4660   33.4160   53.5420 H   0  0  0  0  0  0  0  0  0  0  0  0
   60.7373   32.3135   51.3339 H   0  0  0  0  0  0  0  0  0  0  0  0
   59.2551   31.2958   51.1504 H   0  0  0  0  0  0  0  0  0  0  0  0
   60.7813   34.5698   50.0613 H   0  0  0  0  0  0  0  0  0  0  0  0
   60.3529   35.5613   47.8124 H   0  0  0  0  0  0  0  0  0  0  0  0
   58.7461   34.4650   46.2444 H   0  0  0  0  0  0  0  0  0  0  0  0
   57.5630   32.3769   46.9302 H   0  0  0  0  0  0  0  0  0  0  0  0
   57.9861   31.3769   49.1748 H   0  0  0  0  0  0  0  0  0  0  0  0
   55.7490   32.8283   52.3993 H   0  0  0  0  0  0  0  0  0  0  0  0
   56.9308   32.7326   51.0070 H   0  0  0  0  0  0  0  0  0  0  0  0
   55.4561   30.7233   51.2184 H   0  0  0  0  0  0  0  0  0  0  0  0
   57.2392   30.3863   51.3419 H   0  0  0  0  0  0  0  0  0  0  0  0
  1  2  2  0
  2  3  1  0
  3  4  2  3
  4  5  1  0
  5  6  2  0
  6  7  1  0
  7  8  1  0
  8  9  2  0
  2 10  1  0
 10 11  1  0
 11 12  1  0
 12 13  1  0
 13 14  1  0
 14 15  2  0
 14 16  1  0
 16 17  1  0
 17 18  2  0
 18 19  1  0
 19 20  2  0
 20 21  1  0
 21 22  2  0
 13 23  1  0
 23 24  1  0
  9  4  1  0
 24 10  1  0
 22 17  1  0
  5 25  1  0
  6 26  1  0
  8 27  1  0
  9 28  1  0
 10 29  1  6
 11 30  1  0
 11 31  1  0
 12 32  1  0
 12 33  1  0
 13 34  1  1
 16 35  1  0
 16 36  1  0
 18 37  1  0
 19 38  1  0
 20 39  1  0
 21 40  1  0
 22 41  1  0
 23 42  1  0
 23 43  1  0
 24 44  1  0
 24 45  1  0
M  CHG  2   7  -1  13   1
M  END
>  <UniqueID>  (20) 
20

>  <SMILES>  (20) 
O=C(N=c1cc[n-]cc1)C1CC[NH+](C(=O)Cc2ccccc2)CC1

>  <Energy>  (20) 
65.33133406872142

>  <Genealogy>  (20) 
O=C(N=c1cc[n-]cc1)C1CC[NH+](C(=O)Cc2ccccc2)CC1 (protonated)
O=C(N=c1cc[n-]cc1)C1CC[NH+](C(=O)Cc2ccccc2)CC1 (3D coordinates assigned)
O=C(N=c1cc[n-]cc1)C1CC[NH+](C(=O)Cc2ccccc2)CC1 (nonaromatic ring conformer: 65.33133406872142 kcal/mol)

>  <smiles>  (20) 
O=C(N=c1cc[nH]cc1)C1CCN(C(=O)Cc2ccccc2)CC1

>  <score_type>  (20) 
oracle

>  <origin>  (20) 
adg

>  <m_score__min__energy>  (20) 
-8.3100000000000005

>  <m_primary>  (20) 
energy

$$$$
20:0
     RDKit          3D

 51 54  0  0  0  0  0  0  0  0999 V2000
   57.3100   30.7540   44.0820 C   0  0  0  0  0  0  0  0  0  0  0  0
   57.9550   30.7140   45.2580 C   0  0  0  0  0  0  0  0  0  0  0  0
   58.5620   29.5990   45.8580 C   0  0  0  0  0  0  0  0  0  0  0  0
   58.5190   28.2890   45.5400 C   0  0  0  0  0  0  0  0  0  0  0  0
   57.4160   27.3660   45.8460 C   0  0  0  0  0  0  0  0  0  0  0  0
   57.5660   26.2400   46.5660 N   0  0  0  0  0  0  0  0  0  0  0  0
   56.3010   25.7880   46.7060 C   0  0  0  0  0  0  0  0  0  0  0  0
   56.0250   24.7260   47.3200 O   0  0  0  0  0  0  0  0  0  0  0  0
   55.3530   26.5720   46.1470 N   0  0  0  0  0  0  0  0  0  0  0  0
   56.0740   27.5750   45.6210 C   0  0  0  0  0  0  0  0  0  0  0  0
   55.5140   28.6690   44.9730 O   0  0  0  0  0  0  0  0  0  0  0  0
   59.2760   30.0810   46.9410 C   0  0  0  0  0  0  0  0  0  0  0  0
   59.0520   31.4410   46.9950 C   0  0  0  0  0  0  0  0  0  0  0  0
   59.6340   32.3300   48.0170 C   0  0  0  0  0  0  0  0  0  0  0  0
   58.8950   32.7590   48.9430 O   0  0  0  0  0  0  0  0  0  0  0  0
   61.0330   32.6700   48.0010 N   0  0  0  0  0  0  0  0  0  0  0  0
   61.4770   33.9960   48.4540 C   0  0  0  0  0  0  0  0  0  0  0  0
   62.5990   33.8480   49.4880 C   0  0  0  0  0  0  0  0  0  0  0  0
   63.6050   32.8620   49.0570 N   0  0  0  0  0  0  0  0  0  0  0  0
   64.6180   32.4320   49.9840 C   0  0  0  0  0  0  0  0  0  0  0  0
   64.8210   31.1980   50.1490 O   0  0  0  0  0  0  0  0  0  0  0  0
   65.4210   33.4070   50.7520 C   0  0  0  0  0  0  0  0  0  0  0  0
   66.8110   33.4920   50.5540 C   0  0  0  0  0  0  0  0  0  0  0  0
   67.5710   34.4240   51.2680 C   0  0  0  0  0  0  0  0  0  0  0  0
   66.9510   35.2840   52.1770 C   0  0  0  0  0  0  0  0  0  0  0  0
   65.5690   35.2200   52.3680 C   0  0  0  0  0  0  0  0  0  0  0  0
   64.8050   34.2900   51.6560 C   0  0  0  0  0  0  0  0  0  0  0  0
   63.4550   32.1790   47.7660 C   0  0  0  0  0  0  0  0  0  0  0  0
   62.0240   31.6500   47.6210 C   0  0  0  0  0  0  0  0  0  0  0  0
   58.2260   31.8250   45.9930 N   0  0  0  0  0  0  0  0  0  0  0  0
   57.7120   33.1780   45.7520 C   0  0  0  0  0  0  0  0  0  0  0  0
   56.8768   31.6997   43.7242 H   0  0  0  0  0  0  0  0  0  0  0  0
   57.2145   29.8411   43.4758 H   0  0  0  0  0  0  0  0  0  0  0  0
   59.3857   27.8744   45.0044 H   0  0  0  0  0  0  0  0  0  0  0  0
   59.9023   29.4923   47.6274 H   0  0  0  0  0  0  0  0  0  0  0  0
   61.8490   34.5697   47.5923 H   0  0  0  0  0  0  0  0  0  0  0  0
   60.6285   34.5231   48.9147 H   0  0  0  0  0  0  0  0  0  0  0  0
   63.0899   34.8229   49.6245 H   0  0  0  0  0  0  0  0  0  0  0  0
   62.1546   33.4973   50.4311 H   0  0  0  0  0  0  0  0  0  0  0  0
   67.3029   32.8218   49.8337 H   0  0  0  0  0  0  0  0  0  0  0  0
   68.6586   34.4797   51.1134 H   0  0  0  0  0  0  0  0  0  0  0  0
   67.5512   36.0119   52.7426 H   0  0  0  0  0  0  0  0  0  0  0  0
   65.0808   35.9021   53.0795 H   0  0  0  0  0  0  0  0  0  0  0  0
   63.7158   34.2491   51.8041 H   0  0  0  0  0  0  0  0  0  0  0  0
   63.6666   32.8874   46.9515 H   0  0  0  0  0  0  0  0  0  0  0  0
   64.1602   31.3362   47.7172 H   0  0  0  0  0  0  0  0  0  0  0  0
   61.8545   31.3590   46.5738 H   0  0  0  0  0  0  0  0  0  0  0  0
   61.9051   30.7855   48.2907 H   0  0  0  0  0  0  0  0  0  0  0  0
   57.5231   33.6753   46.7148 H   0  0  0  0  0  0  0  0  0  0  0  0
   58.4534   33.7555   45.1803 H   0  0  0  0  0  0  0  0  0  0  0  0
   56.7742   33.1175   45.1803 H   0  0  0  0  0  0  0  0  0  0  0  0
  1  2  2  0
  2  3  1  0
  3  4  2  3
  4  5  1  0
  5  6  1  0
  6  7  1  0
  7  8  2  0
  7  9  1  0
  9 10  1  0
 10 11  1  0
  3 12  1  0
 12 13  2  0
 13 14  1  0
 14 15  2  0
 14 16  1  0
 16 17  1  0
 17 18  1  0
 18 19  1  0
 19 20  1  0
 20 21  2  0
 20 22  1  0
 22 23  2  0
 23 24  1  0
 24 25  2  0
 25 26  1  0
 26 27  2  0
 19 28  1  0
 28 29  1  0
 13 30  1  0
 30 31  1  0
 30  2  1  0
 10  5  2  0
 29 16  1  0
 27 22  1  0
  1 32  1  0
  1 33  1  0
  4 34  1  0
 12 35  1  0
 17 36  1  0
 17 37  1  0
 18 38  1  0
 18 39  1  0
 23 40  1  0
 24 41  1  0
 25 42  1  0
 26 43  1  0
 27 44  1  0
 28 45  1  0
 28 46  1  0
 29 47  1  0
 29 48  1  0
 31 49  1  0
 31 50  1  0
 31 51  1  0
M  CHG  3   6  -1   9  -1  11  -1
M  END
>  <UniqueID>  (21) 
21

>  <SMILES>  (21) 
C=c1c(=Cc2[n-]c(=O)[n-]c2[O-])cc(C(=O)N2CCN(C(=O)c3ccccc3)CC2)n1C

>  <Energy>  (21) 
136.7238545182671

>  <Genealogy>  (21) 
C=c1c(=Cc2[n-]c(=O)[n-]c2[O-])cc(C(=O)N2CCN(C(=O)c3ccccc3)CC2)n1C (protonated)
C=c1c(=Cc2[n-]c(=O)[n-]c2[O-])cc(C(=O)N2CCN(C(=O)c3ccccc3)CC2)n1C (3D coordinates assigned)
C=c1c(=Cc2[n-]c(=O)[n-]c2[O-])cc(C(=O)N2CCN(C(=O)c3ccccc3)CC2)n1C (nonaromatic ring conformer: 136.7238545182671 kcal/mol)

>  <smiles>  (21) 
C=c1c(=Cc2[nH]c(=O)[nH]c2O)cc(C(=O)N2CCN(C(=O)c3ccccc3)CC2)n1C

>  <score_type>  (21) 
oracle

>  <origin>  (21) 
adg

>  <m_score__min__energy>  (21) 
-17.66

>  <m_primary>  (21) 
energy

$$$$
21:0
     RDKit          3D

 47 49  0  0  0  0  0  0  0  0999 V2000
   63.6920   32.8260   46.7690 C   0  0  0  0  0  0  0  0  0  0  0  0
   63.5730   32.8360   48.2980 C   0  0  0  0  0  0  0  0  0  0  0  0
   62.7340   31.6390   48.7650 C   0  0  0  0  0  0  0  0  0  0  0  0
   62.9670   34.1710   48.7740 C   0  0  0  0  0  0  0  0  0  0  0  0
   61.9270   33.9640   49.8400 C   0  0  0  0  0  0  0  0  0  0  0  0
   62.2300   33.8320   51.1480 N   0  0  0  0  0  0  0  0  0  0  0  0
   61.0910   33.6460   51.8000 N   0  0  0  0  0  0  0  0  0  0  0  0
   60.1180   33.6670   50.8740 C   0  0  0  0  0  0  0  0  0  0  0  0
   58.8950   33.5310   51.1480 O   0  0  0  0  0  0  0  0  0  0  0  0
   60.5970   33.8560   49.6310 N   0  0  0  0  0  0  0  0  0  0  0  0
   59.8400   33.9560   48.3790 C   0  0  0  0  0  0  0  0  0  0  0  0
   59.5900   32.5900   47.7940 C   0  0  0  0  0  0  0  0  0  0  0  0
   58.8390   31.6410   48.5060 C   0  0  0  0  0  0  0  0  0  0  0  0
   58.6040   30.3750   47.9650 C   0  0  0  0  0  0  0  0  0  0  0  0
   59.1370   30.0340   46.7140 C   0  0  0  0  0  0  0  0  0  0  0  0
   58.8840   28.7010   46.1350 C   0  0  0  0  0  0  0  0  0  0  0  0
   59.6690   27.6230   46.5780 C   0  0  0  0  0  0  0  0  0  0  0  0
   59.4890   26.3460   46.0410 C   0  0  0  0  0  0  0  0  0  0  0  0
   58.5190   26.1330   45.0610 C   0  0  0  0  0  0  0  0  0  0  0  0
   57.7220   27.1910   44.6200 C   0  0  0  0  0  0  0  0  0  0  0  0
   57.8850   28.4810   45.1530 C   0  0  0  0  0  0  0  0  0  0  0  0
   56.8180   29.7790   44.5920 S   0  0  0  0  0  0  0  0  0  0  0  0
   55.1640   29.3470   44.8530 N   0  0  0  0  0  0  0  0  0  0  0  0
   57.0160   30.0060   43.1190 O   0  0  0  0  0  0  0  0  0  0  0  0
   57.1400   31.0510   45.3250 O   0  0  0  0  0  0  0  0  0  0  0  0
   59.8850   30.9790   46.0010 C   0  0  0  0  0  0  0  0  0  0  0  0
   60.1200   32.2460   46.5400 C   0  0  0  0  0  0  0  0  0  0  0  0
   64.7508   32.7370   46.4842 H   0  0  0  0  0  0  0  0  0  0  0  0
   63.1301   31.9719   46.3631 H   0  0  0  0  0  0  0  0  0  0  0  0
   63.2805   33.7619   46.3631 H   0  0  0  0  0  0  0  0  0  0  0  0
   64.5744   32.7437   48.7438 H   0  0  0  0  0  0  0  0  0  0  0  0
   62.7147   31.6114   49.8645 H   0  0  0  0  0  0  0  0  0  0  0  0
   61.7075   31.7393   48.3826 H   0  0  0  0  0  0  0  0  0  0  0  0
   63.1784   30.7083   48.3826 H   0  0  0  0  0  0  0  0  0  0  0  0
   63.7713   34.8026   49.1792 H   0  0  0  0  0  0  0  0  0  0  0  0
   62.4819   34.6526   47.9122 H   0  0  0  0  0  0  0  0  0  0  0  0
   58.8750   34.4447   48.5791 H   0  0  0  0  0  0  0  0  0  0  0  0
   60.4260   34.5460   47.6589 H   0  0  0  0  0  0  0  0  0  0  0  0
   58.4332   31.8962   49.4960 H   0  0  0  0  0  0  0  0  0  0  0  0
   57.9994   29.6439   48.5217 H   0  0  0  0  0  0  0  0  0  0  0  0
   60.4315   27.7860   47.3539 H   0  0  0  0  0  0  0  0  0  0  0  0
   60.1115   25.5091   46.3905 H   0  0  0  0  0  0  0  0  0  0  0  0
   58.3818   25.1284   44.6345 H   0  0  0  0  0  0  0  0  0  0  0  0
   56.9590   27.0131   43.8478 H   0  0  0  0  0  0  0  0  0  0  0  0
   55.1420   28.6430   45.6250 H   0  0  0  0  0  0  0  0  0  0  0  0
   60.2898   30.7221   45.0110 H   0  0  0  0  0  0  0  0  0  0  0  0
   60.7223   32.9767   45.9803 H   0  0  0  0  0  0  0  0  0  0  0  0
  1  2  1  0
  2  3  1  0
  2  4  1  0
  4  5  1  0
  5  6  2  0
  6  7  1  0
  7  8  1  0
  8  9  2  0
  8 10  1  0
 10 11  1  0
 11 12  1  0
 12 13  2  0
 13 14  1  0
 14 15  2  0
 15 16  1  0
 16 17  2  0
 17 18  1  0
 18 19  2  0
 19 20  1  0
 20 21  2  0
 21 22  1  0
 22 23  1  0
 22 24  2  0
 22 25  2  0
 15 26  1  0
 26 27  2  0
 10  5  1  0
 27 12  1  0
 21 16  1  0
  1 28  1  0
  1 29  1  0
  1 30  1  0
  2 31  1  0
  3 32  1  0
  3 33  1  0
  3 34  1  0
  4 35  1  0
  4 36  1  0
 11 37  1  0
 11 38  1  0
 13 39  1  0
 14 40  1  0
 17 41  1  0
 18 42  1  0
 19 43  1  0
 20 44  1  0
 23 45  1  0
 26 46  1  0
 27 47  1  0
M  CHG  2   7  -1  23  -1
M  END
>  <UniqueID>  (22) 
22

>  <SMILES>  (22) 
CC(C)Cc1n[n-]c(=O)n1Cc1ccc(-c2ccccc2S([NH-])(=O)=O)cc1

>  <Energy>  (22) 
85.73992821567364

>  <Genealogy>  (22) 
CC(C)Cc1n[n-]c(=O)n1Cc1ccc(-c2ccccc2S([NH-])(=O)=O)cc1 (protonated)
CC(C)Cc1n[n-]c(=O)n1Cc1ccc(-c2ccccc2S([NH-])(=O)=O)cc1 (3D coordinates assigned)
CC(C)Cc1n[n-]c(=O)n1Cc1ccc(-c2ccccc2S([NH-])(=O)=O)cc1 (optimized conformer: 85.73992821567364 kcal/mol)

>  <smiles>  (22) 
CC(C)Cc1n[nH]c(=O)n1Cc1ccc(-c2ccccc2S(N)(=O)=O)cc1

>  <score_type>  (22) 
oracle

>  <origin>  (22) 
adg

>  <m_score__min__energy>  (22) 
-12.44

>  <m_primary>  (22) 
energy

$$$$
22:0
     RDKit          3D

 56 59  0  0  0  0  0  0  0  0999 V2000
   59.8110   26.5710   46.5870 C   0  0  0  0  0  0  0  0  0  0  0  0
   58.9900   27.4690   46.0240 C   0  0  0  0  0  0  0  0  0  0  0  0
   57.9550   27.2170   45.1090 C   0  0  0  0  0  0  0  0  0  0  0  0
   57.3940   26.0620   44.7010 C   0  0  0  0  0  0  0  0  0  0  0  0
   56.8270   25.0260   45.5800 C   0  0  0  0  0  0  0  0  0  0  0  0
   57.5210   23.9950   46.0960 N   0  0  0  0  0  0  0  0  0  0  0  0
   56.6410   23.4170   46.9390 C   0  0  0  0  0  0  0  0  0  0  0  0
   56.9220   22.3930   47.6130 O   0  0  0  0  0  0  0  0  0  0  0  0
   55.4420   24.0330   47.0160 N   0  0  0  0  0  0  0  0  0  0  0  0
   55.5820   25.0570   46.1590 C   0  0  0  0  0  0  0  0  0  0  0  0
   54.5970   26.0080   45.9140 O   0  0  0  0  0  0  0  0  0  0  0  0
   57.5280   28.4550   44.6590 C   0  0  0  0  0  0  0  0  0  0  0  0
   58.2570   29.4060   45.3420 C   0  0  0  0  0  0  0  0  0  0  0  0
   58.0820   30.8860   45.1950 C   0  0  0  0  0  0  0  0  0  0  0  0
   59.1330   28.8100   46.1810 N   0  0  0  0  0  0  0  0  0  0  0  0
   60.0860   29.4980   47.0090 C   0  0  0  0  0  0  0  0  0  0  0  0
   60.9770   30.4190   46.4390 C   0  0  0  0  0  0  0  0  0  0  0  0
   61.9150   31.0770   47.2390 C   0  0  0  0  0  0  0  0  0  0  0  0
   61.9720   30.8240   48.6200 C   0  0  0  0  0  0  0  0  0  0  0  0
   63.0030   31.5120   49.4770 C   0  0  0  0  0  0  0  0  0  0  0  0
   63.9120   32.4240   48.6440 C   0  0  0  0  0  0  0  0  0  0  0  0
   63.3500   33.7650   48.5190 N   0  0  0  0  0  0  0  0  0  0  0  0
   62.5520   34.3920   49.5280 C   0  0  0  0  0  0  0  0  0  0  0  0
   63.0050   35.3640   50.1910 O   0  0  0  0  0  0  0  0  0  0  0  0
   61.1870   33.8610   49.8270 C   0  0  0  0  0  0  0  0  0  0  0  0
   60.3390   33.8920   48.5880 C   0  0  0  0  0  0  0  0  0  0  0  0
   59.0700   33.2880   48.5810 C   0  0  0  0  0  0  0  0  0  0  0  0
   58.2690   33.3430   47.4360 C   0  0  0  0  0  0  0  0  0  0  0  0
   58.7230   34.0090   46.2930 C   0  0  0  0  0  0  0  0  0  0  0  0
   57.7170   34.0770   44.8570 Cl  0  0  0  0  0  0  0  0  0  0  0  0
   59.9800   34.6250   46.2970 C   0  0  0  0  0  0  0  0  0  0  0  0
   60.7830   34.5720   47.4410 C   0  0  0  0  0  0  0  0  0  0  0  0
   61.0900   29.8890   49.1830 C   0  0  0  0  0  0  0  0  0  0  0  0
   60.1530   29.2310   48.3830 C   0  0  0  0  0  0  0  0  0  0  0  0
   60.5864   26.9018   47.2936 H   0  0  0  0  0  0  0  0  0  0  0  0
   59.7092   25.5034   46.3423 H   0  0  0  0  0  0  0  0  0  0  0  0
   57.3564   25.8771   43.6173 H   0  0  0  0  0  0  0  0  0  0  0  0
   53.7020   25.9590   46.3840 H   0  0  0  0  0  0  0  0  0  0  0  0
   56.7541   28.6441   43.9005 H   0  0  0  0  0  0  0  0  0  0  0  0
   58.0272   31.3495   46.1911 H   0  0  0  0  0  0  0  0  0  0  0  0
   58.9371   31.3033   44.6430 H   0  0  0  0  0  0  0  0  0  0  0  0
   57.1532   31.0924   44.6430 H   0  0  0  0  0  0  0  0  0  0  0  0
   60.9373   30.6240   45.3590 H   0  0  0  0  0  0  0  0  0  0  0  0
   62.6123   31.7967   46.7853 H   0  0  0  0  0  0  0  0  0  0  0  0
   62.4884   32.1186   50.2368 H   0  0  0  0  0  0  0  0  0  0  0  0
   63.6290   30.7401   49.9485 H   0  0  0  0  0  0  0  0  0  0  0  0
   64.8952   32.4921   49.1325 H   0  0  0  0  0  0  0  0  0  0  0  0
   64.0058   31.9926   47.6365 H   0  0  0  0  0  0  0  0  0  0  0  0
   61.2702   32.8243   50.1852 H   0  0  0  0  0  0  0  0  0  0  0  0
   60.7182   34.4874   50.6002 H   0  0  0  0  0  0  0  0  0  0  0  0
   58.7052   32.7697   49.4801 H   0  0  0  0  0  0  0  0  0  0  0  0
   57.2800   32.8615   47.4343 H   0  0  0  0  0  0  0  0  0  0  0  0
   60.3367   35.1514   45.3994 H   0  0  0  0  0  0  0  0  0  0  0  0
   61.7665   35.0648   47.4430 H   0  0  0  0  0  0  0  0  0  0  0  0
   61.1368   29.6730   50.2606 H   0  0  0  0  0  0  0  0  0  0  0  0
   59.4650   28.5003   48.8333 H   0  0  0  0  0  0  0  0  0  0  0  0
  1  2  2  0
  2  3  1  0
  3  4  2  3
  4  5  1  0
  5  6  1  0
  6  7  1  0
  7  8  2  0
  7  9  1  0
  9 10  1  0
 10 11  1  0
  3 12  1  0
 12 13  2  0
 13 14  1  0
 13 15  1  0
 15 16  1  0
 16 17  2  0
 17 18  1  0
 18 19  2  0
 19 20  1  0
 20 21  1  0
 21 22  1  0
 22 23  1  0
 23 24  2  0
 23 25  1  0
 25 26  1  0
 26 27  2  0
 27 28  1  0
 28 29  2  0
 29 30  1  0
 29 31  1  0
 31 32  2  0
 19 33  1  0
 33 34  2  0
 15  2  1  0
 34 16  1  0
 10  5  2  0
 32 26  1  0
  1 35  1  0
  1 36  1  0
  4 37  1  0
 11 38  1  0
 12 39  1  0
 14 40  1  0
 14 41  1  0
 14 42  1  0
 17 43  1  0
 18 44  1  0
 20 45  1  0
 20 46  1  0
 21 47  1  0
 21 48  1  0
 25 49  1  0
 25 50  1  0
 27 51  1  0
 28 52  1  0
 31 53  1  0
 32 54  1  0
 33 55  1  0
 34 56  1  0
M  CHG  3   6  -1   9  -1  22  -1
M  END
>  <UniqueID>  (23) 
23

>  <SMILES>  (23) 
C=c1c(=Cc2[n-]c(=O)[n-]c2O)cc(C)n1-c1ccc(CC[N-]C(=O)Cc2ccc(Cl)cc2)cc1

>  <Energy>  (23) 
127.48805072065925

>  <Genealogy>  (23) 
C=c1c(=Cc2[n-]c(=O)[n-]c2O)cc(C)n1-c1ccc(CC[N-]C(=O)Cc2ccc(Cl)cc2)cc1 (protonated)
C=c1c(=Cc2[n-]c(=O)[n-]c2O)cc(C)n1-c1ccc(CC[N-]C(=O)Cc2ccc(Cl)cc2)cc1 (3D coordinates assigned)
C=c1c(=Cc2[n-]c(=O)[n-]c2O)cc(C)n1-c1ccc(CC[N-]C(=O)Cc2ccc(Cl)cc2)cc1 (optimized conformer: 127.48805072065925 kcal/mol)

>  <smiles>  (23) 
C=c1c(=Cc2[nH]c(=O)[nH]c2O)cc(C)n1-c1ccc(CCNC(=O)Cc2ccc(Cl)cc2)cc1

>  <score_type>  (23) 
oracle

>  <origin>  (23) 
adg

>  <m_score__min__energy>  (23) 
-14.33

>  <m_primary>  (23) 
energy

$$$$
23:0
     RDKit          3D

 68 72  0  0  0  0  0  0  0  0999 V2000
   59.2890   23.1660   45.9640 H   0  0  0  0  0  0  0  0  0  0  0  0
   59.9170   23.9800   45.8460 N   0  0  0  0  0  0  0  0  0  0  0  0
   59.6870   25.1490   46.3580 C   0  0  0  0  0  0  0  0  0  0  0  0
   60.7250   26.0010   46.5580 N   0  0  0  0  0  0  0  0  0  0  0  0
   60.5300   27.2550   47.0400 C   0  0  0  0  0  0  0  0  0  0  0  0
   61.3843   27.9297   47.1979 H   0  0  0  0  0  0  0  0  0  0  0  0
   59.2230   27.6810   47.3350 C   0  0  0  0  0  0  0  0  0  0  0  0
   58.9340   29.0740   47.7030 C   0  0  0  0  0  0  0  0  0  0  0  0
   59.1560   29.5080   48.9710 N   0  0  0  0  0  0  0  0  0  0  0  0
   59.0660   30.8260   49.3000 C   0  0  0  0  0  0  0  0  0  0  0  0
   59.4320   31.2660   50.6330 N   0  0  0  0  0  0  0  0  0  0  0  0
   60.8210   31.0550   51.0900 C   0  0  0  0  0  0  0  0  0  0  0  0
   60.9956   29.9721   51.1722 H   0  0  0  0  0  0  0  0  0  0  0  0
   61.4731   31.5388   50.3479 H   0  0  0  0  0  0  0  0  0  0  0  0
   61.1470   31.7000   52.4490 C   0  0  0  0  0  0  0  0  0  0  0  0
   61.0096   30.9467   53.2387 H   0  0  0  0  0  0  0  0  0  0  0  0
   62.1861   32.0586   52.4074 H   0  0  0  0  0  0  0  0  0  0  0  0
   60.3220   32.8100   52.7340 O   0  0  0  0  0  0  0  0  0  0  0  0
   58.9900   32.3680   52.8270 C   0  0  0  0  0  0  0  0  0  0  0  0
   58.9478   31.4683   53.4585 H   0  0  0  0  0  0  0  0  0  0  0  0
   58.3751   33.1645   53.2715 H   0  0  0  0  0  0  0  0  0  0  0  0
   58.4510   32.0350   51.4330 C   0  0  2  0  0  0  0  0  0  0  0  0
   58.2706   32.9747   50.8905 H   0  0  0  0  0  0  0  0  0  0  0  0
   57.1250   31.2620   51.5770 C   0  0  0  0  0  0  0  0  0  0  0  0
   56.8933   31.1269   52.6438 H   0  0  0  0  0  0  0  0  0  0  0  0
   56.3154   31.8297   51.0950 H   0  0  0  0  0  0  0  0  0  0  0  0
   57.2201   30.2778   51.0950 H   0  0  0  0  0  0  0  0  0  0  0  0
   58.7080   31.7470   48.2980 C   0  0  0  0  0  0  0  0  0  0  0  0
   58.5971   32.8138   48.5422 H   0  0  0  0  0  0  0  0  0  0  0  0
   58.4930   31.2980   46.9850 C   0  0  0  0  0  0  0  0  0  0  0  0
   58.2650   32.2860   45.8410 C   0  0  0  0  0  0  0  0  0  0  0  0
   57.8390   31.3680   44.3280 S   0  0  0  0  0  0  0  0  0  0  0  0
   58.8350   30.2570   44.1150 O   0  0  0  0  0  0  0  0  0  0  0  0
   56.4660   30.7670   44.4860 O   0  0  0  0  0  0  0  0  0  0  0  0
   57.8250   32.3840   42.8660 C   0  0  0  0  0  0  0  0  0  0  0  0
   57.8104   33.4448   43.1568 H   0  0  0  0  0  0  0  0  0  0  0  0
   58.7260   32.1798   42.2690 H   0  0  0  0  0  0  0  0  0  0  0  0
   56.9299   32.1551   42.2690 H   0  0  0  0  0  0  0  0  0  0  0  0
   59.5900   33.0800   45.5990 C   0  0  0  0  0  0  0  0  0  0  0  0
   60.3028   32.8296   46.3985 H   0  0  0  0  0  0  0  0  0  0  0  0
   59.9763   32.7935   44.6097 H   0  0  0  0  0  0  0  0  0  0  0  0
   59.3710   34.5930   45.5930 C   0  0  0  0  0  0  0  0  0  0  0  0
   59.1873   34.9426   46.6197 H   0  0  0  0  0  0  0  0  0  0  0  0
   60.2646   35.0949   45.1936 H   0  0  0  0  0  0  0  0  0  0  0  0
   58.2600   34.8940   44.7880 O   0  0  0  0  0  0  0  0  0  0  0  0
   57.0640   34.5860   45.4740 C   0  0  0  0  0  0  0  0  0  0  0  0
   56.8797   35.3781   46.2147 H   0  0  0  0  0  0  0  0  0  0  0  0
   56.2755   34.5173   44.7101 H   0  0  0  0  0  0  0  0  0  0  0  0
   57.0770   33.2250   46.2150 C   0  0  0  0  0  0  0  0  0  0  0  0
   57.1261   33.4245   47.2956 H   0  0  0  0  0  0  0  0  0  0  0  0
   56.1600   32.6990   45.9110 H   0  0  0  0  0  0  0  0  0  0  0  0
   58.6180   29.9660   46.7370 N   0  0  0  0  0  0  0  0  0  0  0  0
   58.1830   26.8230   47.1380 N   0  0  0  0  0  0  0  0  0  0  0  0
   58.3780   25.5690   46.6600 C   0  0  0  0  0  0  0  0  0  0  0  0
   57.2430   24.7980   46.2560 N   0  0  0  0  0  0  0  0  0  0  0  0
   56.7540   23.7320   47.1300 C   0  0  0  0  0  0  0  0  0  0  0  0
   57.1083   22.7615   46.7524 H   0  0  0  0  0  0  0  0  0  0  0  0
   57.1341   23.9004   48.1484 H   0  0  0  0  0  0  0  0  0  0  0  0
   55.2060   23.7340   47.1620 C   0  0  0  0  0  0  0  0  0  0  0  0
   54.8557   22.6941   47.0846 H   0  0  0  0  0  0  0  0  0  0  0  0
   54.9046   24.2092   48.1072 H   0  0  0  0  0  0  0  0  0  0  0  0
   54.6140   24.4860   46.1120 O   0  0  0  0  0  0  0  0  0  0  0  0
   55.2890   24.2400   44.8960 C   0  0  0  0  0  0  0  0  0  0  0  0
   55.4522   23.1589   44.7748 H   0  0  0  0  0  0  0  0  0  0  0  0
   54.6872   24.6063   44.0512 H   0  0  0  0  0  0  0  0  0  0  0  0
   56.6420   24.9670   44.9310 C   0  0  0  0  0  0  0  0  0  0  0  0
   57.3089   24.5409   44.1670 H   0  0  0  0  0  0  0  0  0  0  0  0
   56.4929   26.0373   44.7256 H   0  0  0  0  0  0  0  0  0  0  0  0
  1  2  1  0
  2  3  2  0
  3  4  1  0
  4  5  1  0
  5  6  1  0
  5  7  2  0
  7  8  1  0
  8  9  2  0
  9 10  1  0
 10 11  1  0
 11 12  1  0
 12 13  1  0
 12 14  1  0
 12 15  1  0
 15 16  1  0
 15 17  1  0
 15 18  1  0
 18 19  1  0
 19 20  1  0
 19 21  1  0
 19 22  1  0
 22 23  1  6
 22 24  1  0
 24 25  1  0
 24 26  1  0
 24 27  1  0
 10 28  2  0
 28 29  1  0
 28 30  1  0
 30 31  1  0
 31 32  1  0
 32 33  2  0
 32 34  2  0
 32 35  1  0
 35 36  1  0
 35 37  1  0
 35 38  1  0
 31 39  1  0
 39 40  1  0
 39 41  1  0
 39 42  1  0
 42 43  1  0
 42 44  1  0
 42 45  1  0
 45 46  1  0
 46 47  1  0
 46 48  1  0
 46 49  1  0
 49 50  1  0
 49 51  1  0
 30 52  2  0
  7 53  1  0
 53 54  2  0
 54 55  1  0
 55 56  1  0
 56 57  1  0
 56 58  1  0
 56 59  1  0
 59 60  1  0
 59 61  1  0
 59 62  1  0
 62 63  1  0
 63 64  1  0
 63 65  1  0
 63 66  1  0
 66 67  1  0
 66 68  1  0
 54  3  1  0
 66 55  1  0
 52  8  1  0
 22 11  1  0
 49 31  1  0
M  CHG  1   4  -1
M  END
>  <UniqueID>  (24) 
24

>  <SMILES>  (24) 
[H]/N=c1/[n-]cc(-c2nc(N3CCOC[C@@H]3C)cc(C3(S(C)(=O)=O)CCOCC3)n2)nc1N1CCOCC1

>  <Energy>  (24) 
105.79933094498728

>  <Genealogy>  (24) 
CC1COCCN1c1cc(C2(S(C)(=O)=O)CCOCC2)nc(-c2c[n-]c(=N)c(N3CCOCC3)n2)n1 (protonated)
C[C@H]1COCCN1c1cc(C2(S(C)(=O)=O)CCOCC2)nc(-c2c[n-]c(=N)c(N3CCOCC3)n2)n1 (chirality)
[H]/N=c1/[n-]cc(-c2nc(N3CCOC[C@@H]3C)cc(C3(S(C)(=O)=O)CCOCC3)n2)nc1N1CCOCC1 (cis-trans isomerization)
[H]/N=c1/[n-]cc(-c2nc(N3CCOC[C@@H]3C)cc(C3(S(C)(=O)=O)CCOCC3)n2)nc1N1CCOCC1 (3D coordinates assigned)
[H]/N=c1/[n-]cc(-c2nc(N3CCOC[C@@H]3C)cc(C3(S(C)(=O)=O)CCOCC3)n2)nc1N1CCOCC1 (nonaromatic ring conformer: 105.79933094498728 kcal/mol)

>  <smiles>  (24) 
CC1COCCN1c1cc(C2(S(C)(=O)=O)CCOCC2)nc(-c2c[nH]c(=N)c(N3CCOCC3)n2)n1

>  <score_type>  (24) 
oracle

>  <origin>  (24) 
adg

>  <m_score__min__energy>  (24) 
-9.9000000000000004

>  <m_primary>  (24) 
energy

$$$$
24:0
     RDKit          3D

 48 50  0  0  0  0  0  0  0  0999 V2000
   58.6870   30.7260   47.6200 H   0  0  0  0  0  0  0  0  0  0  0  0
   58.6410   31.6860   47.9320 O   0  0  0  0  0  0  0  0  0  0  0  0
   58.8980   32.7840   47.1070 C   0  0  0  0  0  0  0  0  0  0  0  0
   58.1490   32.9300   45.9200 C   0  0  0  0  0  0  0  0  0  0  0  0
   57.1850   31.9480   45.5150 N   0  0  0  0  0  0  0  0  0  0  0  0
   57.4590   30.5620   45.2660 C   0  0  0  0  0  0  0  0  0  0  0  0
   58.6050   30.1140   45.5290 O   0  0  0  0  0  0  0  0  0  0  0  0
   56.4220   29.6420   44.7640 C   0  0  0  0  0  0  0  0  0  0  0  0
   55.2250   30.0280   44.6870 O   0  0  0  0  0  0  0  0  0  0  0  0
   56.7610   28.2710   44.5100 N   0  0  0  0  0  0  0  0  0  0  0  0
   57.1160   27.3340   45.3480 C   0  0  0  0  0  0  0  0  0  0  0  0
   58.4440   27.0530   45.4490 N   0  0  0  0  0  0  0  0  0  0  0  0
   58.9340   26.1060   46.2930 C   0  0  0  0  0  0  0  0  0  0  0  0
   60.0168   25.9179   46.3403 H   0  0  0  0  0  0  0  0  0  0  0  0
   58.0630   25.3740   47.0980 C   0  0  0  0  0  0  0  0  0  0  0  0
   58.4528   24.6194   47.7970 H   0  0  0  0  0  0  0  0  0  0  0  0
   56.6940   25.6090   47.0070 C   0  0  0  0  0  0  0  0  0  0  0  0
   55.9969   25.0334   47.6337 H   0  0  0  0  0  0  0  0  0  0  0  0
   56.2010   26.5730   46.1230 C   0  0  0  0  0  0  0  0  0  0  0  0
   54.8230   26.7090   46.0030 O   0  0  0  0  0  0  0  0  0  0  0  0
   58.2910   34.0840   45.1450 C   0  0  0  0  0  0  0  0  0  0  0  0
   57.6724   34.2178   44.2453 H   0  0  0  0  0  0  0  0  0  0  0  0
   59.2120   35.0670   45.5050 C   0  0  0  0  0  0  0  0  0  0  0  0
   59.3195   35.9711   44.8877 H   0  0  0  0  0  0  0  0  0  0  0  0
   59.9970   34.9060   46.6460 C   0  0  0  0  0  0  0  0  0  0  0  0
   60.7293   35.6806   46.9178 H   0  0  0  0  0  0  0  0  0  0  0  0
   59.8610   33.7640   47.4510 C   0  0  0  0  0  0  0  0  0  0  0  0
   60.8890   33.5970   48.8840 S   0  0  0  0  0  0  0  0  0  0  0  0
   61.3490   34.9670   49.3000 O   0  0  0  0  0  0  0  0  0  0  0  0
   60.0900   32.9790   49.9980 O   0  0  0  0  0  0  0  0  0  0  0  0
   62.2750   32.5850   48.5210 N   0  0  0  0  0  0  0  0  0  0  0  0
   62.2110   32.0250   47.1500 C   0  0  0  0  0  0  0  0  0  0  0  0
   63.2189   32.0628   46.7109 H   0  0  0  0  0  0  0  0  0  0  0  0
   61.4876   32.6318   46.5857 H   0  0  0  0  0  0  0  0  0  0  0  0
   61.7140   30.5690   47.1050 C   0  0  0  0  0  0  0  0  0  0  0  0
   62.5700   29.8876   47.2190 H   0  0  0  0  0  0  0  0  0  0  0  0
   61.2184   30.3849   46.1404 H   0  0  0  0  0  0  0  0  0  0  0  0
   60.7550   30.3340   48.1950 N   0  0  0  0  0  0  0  0  0  0  0  0
   60.1100   29.0210   48.0440 C   0  0  0  0  0  0  0  0  0  0  0  0
   59.9022   28.5981   49.0380 H   0  0  0  0  0  0  0  0  0  0  0  0
   59.1665   29.1374   47.4905 H   0  0  0  0  0  0  0  0  0  0  0  0
   60.7788   28.3454   47.4905 H   0  0  0  0  0  0  0  0  0  0  0  0
   61.4120   30.4440   49.5150 C   0  0  0  0  0  0  0  0  0  0  0  0
   61.8869   29.4810   49.7540 H   0  0  0  0  0  0  0  0  0  0  0  0
   60.6392   30.7078   50.2520 H   0  0  0  0  0  0  0  0  0  0  0  0
   62.4900   31.5500   49.5490 C   0  0  0  0  0  0  0  0  0  0  0  0
   63.4741   31.0876   49.3826 H   0  0  0  0  0  0  0  0  0  0  0  0
   62.4324   32.0405   50.5319 H   0  0  0  0  0  0  0  0  0  0  0  0
  1  2  1  0
  2  3  1  0
  3  4  2  0
  4  5  1  0
  5  6  1  0
  6  7  2  0
  6  8  1  0
  8  9  2  0
  8 10  1  0
 10 11  2  0
 11 12  1  0
 12 13  1  0
 13 14  1  0
 13 15  2  0
 15 16  1  0
 15 17  1  0
 17 18  1  0
 17 19  2  0
 19 20  1  0
  4 21  1  0
 21 22  1  0
 21 23  2  0
 23 24  1  0
 23 25  1  0
 25 26  1  0
 25 27  2  0
 27 28  1  0
 28 29  2  0
 28 30  2  0
 28 31  1  0
 31 32  1  0
 32 33  1  0
 32 34  1  0
 32 35  1  0
 35 36  1  0
 35 37  1  0
 35 38  1  0
 38 39  1  0
 39 40  1  0
 39 41  1  0
 39 42  1  0
 38 43  1  0
 43 44  1  0
 43 45  1  0
 43 46  1  0
 46 47  1  0
 46 48  1  0
 27  3  1  0
 46 31  1  0
 19 11  1  0
M  CHG  3   5  -1  12  -1  20  -1
M  END
>  <UniqueID>  (25) 
25

>  <SMILES>  (25) 
CN1CCN(S(=O)(=O)c2cccc([N-]C(=O)C(=O)/N=c3/[n-]cccc3[O-])c2O)CC1

>  <Energy>  (25) 
79.18999041885779

>  <Genealogy>  (25) 
CN1CCN(S(=O)(=O)c2cccc([N-]C(=O)C(=O)N=c3[n-]cccc3[O-])c2O)CC1 (protonated)
CN1CCN(S(=O)(=O)c2cccc([N-]C(=O)C(=O)/N=c3/[n-]cccc3[O-])c2O)CC1 (cis-trans isomerization)
CN1CCN(S(=O)(=O)c2cccc([N-]C(=O)C(=O)/N=c3/[n-]cccc3[O-])c2O)CC1 (3D coordinates assigned)
CN1CCN(S(=O)(=O)c2cccc([N-]C(=O)C(=O)/N=c3/[n-]cccc3[O-])c2O)CC1 (nonaromatic ring conformer: 79.18999041885779 kcal/mol)

>  <smiles>  (25) 
CN1CCN(S(=O)(=O)c2cccc(NC(=O)C(=O)N=c3[nH]cccc3O)c2O)CC1

>  <score_type>  (25) 
oracle

>  <origin>  (25) 
adg

>  <m_score__min__energy>  (25) 
-14.94

>  <m_primary>  (25) 
energy

$$$$
25:0
     RDKit          3D

 58 61  0  0  0  0  0  0  0  0999 V2000
   57.6070   33.0660   43.3060 O   0  0  0  0  0  0  0  0  0  0  0  0
   57.6910   32.6290   44.4840 C   0  0  0  0  0  0  0  0  0  0  0  0
   56.8350   31.5460   44.8680 N   0  0  0  0  0  0  0  0  0  0  0  0
   57.1500   30.1540   44.7320 C   0  0  0  0  0  0  0  0  0  0  0  0
   58.3280   29.7380   44.0920 C   0  0  0  0  0  0  0  0  0  0  0  0
   58.6290   28.3750   44.0000 C   0  0  0  0  0  0  0  0  0  0  0  0
   57.7740   27.4270   44.5690 C   0  0  0  0  0  0  0  0  0  0  0  0
   56.6150   27.8360   45.2400 C   0  0  0  0  0  0  0  0  0  0  0  0
   55.7880   26.8540   45.8710 N   0  0  0  0  0  0  0  0  0  0  0  0
   56.2710   25.2020   46.0760 S   0  0  0  0  0  0  0  0  0  0  0  0
   55.7480   24.7070   47.3940 O   0  0  0  0  0  0  0  0  0  0  0  0
   57.7710   25.0890   46.0770 O   0  0  0  0  0  0  0  0  0  0  0  0
   55.5780   24.2590   44.7880 N   0  0  0  0  0  0  0  0  0  0  0  0
   56.6110   23.5440   44.0320 C   0  0  0  0  0  0  0  0  0  0  0  0
   55.9820   22.7050   42.9280 C   0  0  0  0  0  0  0  0  0  0  0  0
   56.8750   21.4790   42.7590 C   0  0  0  0  0  0  0  0  0  0  0  0
   57.8370   21.4580   43.9450 C   0  0  0  0  0  0  0  0  0  0  0  0
   57.3720   22.5480   44.8990 C   0  0  0  0  0  0  0  0  0  0  0  0
   56.2830   29.1990   45.2770 C   0  0  0  0  0  0  0  0  0  0  0  0
   58.6190   33.2860   45.4440 C   0  0  0  0  0  0  0  0  0  0  0  0
   58.5460   34.6710   45.6630 C   0  0  0  0  0  0  0  0  0  0  0  0
   59.4030   35.2890   46.5790 C   0  0  0  0  0  0  0  0  0  0  0  0
   60.3480   34.5330   47.2780 C   0  0  0  0  0  0  0  0  0  0  0  0
   60.4290   33.1520   47.0790 C   0  0  0  0  0  0  0  0  0  0  0  0
   61.6730   32.2130   47.9000 S   0  0  0  0  0  0  0  0  0  0  0  0
   61.3230   32.1110   49.3580 O   0  0  0  0  0  0  0  0  0  0  0  0
   63.0030   32.9050   47.7890 O   0  0  0  0  0  0  0  0  0  0  0  0
   61.7910   30.6120   47.2420 N   0  0  0  0  0  0  0  0  0  0  0  0
   60.8010   29.5910   47.4100 C   0  0  0  0  0  0  0  0  0  0  0  0
   59.8380   29.7410   48.4150 C   0  0  0  0  0  0  0  0  0  0  0  0
   58.8780   28.7460   48.6300 C   0  0  0  0  0  0  0  0  0  0  0  0
   58.8620   27.6020   47.8210 C   0  0  0  0  0  0  0  0  0  0  0  0
   57.9230   26.5950   48.0390 O   0  0  0  0  0  0  0  0  0  0  0  0
   59.7970   27.4680   46.7900 C   0  0  0  0  0  0  0  0  0  0  0  0
   60.7670   28.4540   46.5860 C   0  0  0  0  0  0  0  0  0  0  0  0
   59.5510   32.5320   46.1820 C   0  0  0  0  0  0  0  0  0  0  0  0
   59.0140   30.4833   43.6631 H   0  0  0  0  0  0  0  0  0  0  0  0
   59.5409   28.0485   43.4785 H   0  0  0  0  0  0  0  0  0  0  0  0
   58.0123   26.3561   44.4894 H   0  0  0  0  0  0  0  0  0  0  0  0
   57.2827   24.3227   43.6416 H   0  0  0  0  0  0  0  0  0  0  0  0
   54.9652   22.3988   43.2150 H   0  0  0  0  0  0  0  0  0  0  0  0
   55.9028   23.2739   41.9899 H   0  0  0  0  0  0  0  0  0  0  0  0
   56.2635   20.5646   42.7528 H   0  0  0  0  0  0  0  0  0  0  0  0
   57.4263   21.5239   41.8082 H   0  0  0  0  0  0  0  0  0  0  0  0
   57.8044   20.4779   44.4432 H   0  0  0  0  0  0  0  0  0  0  0  0
   58.8734   21.6307   43.6192 H   0  0  0  0  0  0  0  0  0  0  0  0
   56.7122   22.1275   45.6722 H   0  0  0  0  0  0  0  0  0  0  0  0
   58.2154   23.0213   45.4231 H   0  0  0  0  0  0  0  0  0  0  0  0
   55.3363   29.5190   45.7367 H   0  0  0  0  0  0  0  0  0  0  0  0
   57.8101   35.2737   45.1106 H   0  0  0  0  0  0  0  0  0  0  0  0
   59.3331   36.3734   46.7499 H   0  0  0  0  0  0  0  0  0  0  0  0
   61.0297   35.0261   47.9866 H   0  0  0  0  0  0  0  0  0  0  0  0
   59.8360   30.6466   49.0394 H   0  0  0  0  0  0  0  0  0  0  0  0
   58.1361   28.8618   49.4338 H   0  0  0  0  0  0  0  0  0  0  0  0
   57.0900   26.5130   47.4690 H   0  0  0  0  0  0  0  0  0  0  0  0
   59.7693   26.5833   46.1369 H   0  0  0  0  0  0  0  0  0  0  0  0
   61.5051   28.3391   45.7785 H   0  0  0  0  0  0  0  0  0  0  0  0
   59.5899   31.4404   46.0520 H   0  0  0  0  0  0  0  0  0  0  0  0
  1  2  2  0
  2  3  1  0
  3  4  1  0
  4  5  2  0
  5  6  1  0
  6  7  2  0
  7  8  1  0
  8  9  1  0
  9 10  1  0
 10 11  2  0
 10 12  2  0
 10 13  1  0
 13 14  1  0
 14 15  1  0
 15 16  1  0
 16 17  1  0
 17 18  1  0
  8 19  2  0
  2 20  1  0
 20 21  2  0
 21 22  1  0
 22 23  2  0
 23 24  1  0
 24 25  1  0
 25 26  2  0
 25 27  2  0
 25 28  1  0
 28 29  1  0
 29 30  2  0
 30 31  1  0
 31 32  2  0
 32 33  1  0
 32 34  1  0
 34 35  2  0
 24 36  2  0
 19  4  1  0
 36 20  1  0
 18 14  1  0
 35 29  1  0
  5 37  1  0
  6 38  1  0
  7 39  1  0
 14 40  1  0
 15 41  1  0
 15 42  1  0
 16 43  1  0
 16 44  1  0
 17 45  1  0
 17 46  1  0
 18 47  1  0
 18 48  1  0
 19 49  1  0
 21 50  1  0
 22 51  1  0
 23 52  1  0
 30 53  1  0
 31 54  1  0
 33 55  1  0
 34 56  1  0
 35 57  1  0
 36 58  1  0
M  CHG  4   3  -1   9  -1  13  -1  28  -1
M  END
>  <UniqueID>  (26) 
26

>  <SMILES>  (26) 
O=C([N-]c1cccc([N-]S(=O)(=O)[N-]C2CCCC2)c1)c1cccc(S(=O)(=O)[N-]c2ccc(O)cc2)c1

>  <Energy>  (26) 
73.87901438111695

>  <Genealogy>  (26) 
O=C([N-]c1cccc([N-]S(=O)(=O)[N-]C2CCCC2)c1)c1cccc(S(=O)(=O)[N-]c2ccc(O)cc2)c1 (protonated)
O=C([N-]c1cccc([N-]S(=O)(=O)[N-]C2CCCC2)c1)c1cccc(S(=O)(=O)[N-]c2ccc(O)cc2)c1 (3D coordinates assigned)
O=C([N-]c1cccc([N-]S(=O)(=O)[N-]C2CCCC2)c1)c1cccc(S(=O)(=O)[N-]c2ccc(O)cc2)c1 (nonaromatic ring conformer: 73.87901438111695 kcal/mol)

>  <smiles>  (26) 
O=C(Nc1cccc(NS(=O)(=O)NC2CCCC2)c1)c1cccc(S(=O)(=O)Nc2ccc(O)cc2)c1

>  <score_type>  (26) 
oracle

>  <origin>  (26) 
adg

>  <m_score__min__energy>  (26) 
-15.77

>  <m_primary>  (26) 
energy

$$$$
26:0
     RDKit          3D

 50 53  0  0  0  0  0  0  0  0999 V2000
   60.2500   27.9630   49.0570 C   0  0  0  0  0  0  0  0  0  0  0  0
   59.5790   28.8810   48.3390 C   0  0  0  0  0  0  0  0  0  0  0  0
   58.9970   28.6730   47.0810 C   0  0  0  0  0  0  0  0  0  0  0  0
   58.7230   27.5360   46.4130 C   0  0  0  0  0  0  0  0  0  0  0  0
   57.4370   26.8190   46.4390 C   0  0  0  0  0  0  0  0  0  0  0  0
   57.3040   25.5500   46.8600 N   0  0  0  0  0  0  0  0  0  0  0  0
   56.0220   25.2510   46.5550 C   0  0  0  0  0  0  0  0  0  0  0  0
   55.5070   24.1330   46.8210 O   0  0  0  0  0  0  0  0  0  0  0  0
   55.3380   26.2380   45.9430 N   0  0  0  0  0  0  0  0  0  0  0  0
   56.2510   27.2200   45.8620 C   0  0  0  0  0  0  0  0  0  0  0  0
   56.0190   28.4420   45.2380 O   0  0  0  0  0  0  0  0  0  0  0  0
   58.6620   29.9220   46.5980 C   0  0  0  0  0  0  0  0  0  0  0  0
   58.9400   30.8300   47.5980 C   0  0  0  0  0  0  0  0  0  0  0  0
   58.6340   32.2710   47.4830 C   0  0  0  0  0  0  0  0  0  0  0  0
   59.2620   33.1130   48.1750 O   0  0  0  0  0  0  0  0  0  0  0  0
   57.6140   32.7000   46.5670 N   0  0  0  0  0  0  0  0  0  0  0  0
   57.5430   32.3810   45.3080 C   0  0  0  0  0  0  0  0  0  0  0  0
   56.8960   31.2910   44.8320 N   0  0  0  0  0  0  0  0  0  0  0  0
   57.0100   31.1940   43.4810 C   0  0  0  0  0  0  0  0  0  0  0  0
   57.7500   32.2130   42.8870 C   0  0  0  0  0  0  0  0  0  0  0  0
   58.0720   32.3320   41.4350 C   0  0  0  0  0  0  0  0  0  0  0  0
   58.2980   33.2590   44.0870 S   0  0  0  0  0  0  0  0  0  0  0  0
   59.4990   30.2020   48.6680 N   0  0  0  0  0  0  0  0  0  0  0  0
   59.9550   30.8460   49.9150 C   0  0  0  0  0  0  0  0  0  0  0  0
   61.3370   31.4370   49.7500 C   0  0  0  0  0  0  0  0  0  0  0  0
   62.0090   32.0060   50.8450 C   0  0  0  0  0  0  0  0  0  0  0  0
   63.2940   32.5320   50.6960 C   0  0  0  0  0  0  0  0  0  0  0  0
   63.9330   32.4990   49.4440 C   0  0  0  0  0  0  0  0  0  0  0  0
   65.2180   33.0260   49.2380 O   0  0  0  0  0  0  0  0  0  0  0  0
   66.3280   32.7960   50.0980 C   0  0  0  0  0  0  0  0  0  0  0  0
   63.2680   31.9240   48.3550 C   0  0  0  0  0  0  0  0  0  0  0  0
   61.9880   31.3870   48.5050 C   0  0  0  0  0  0  0  0  0  0  0  0
   60.6693   28.2310   50.0380 H   0  0  0  0  0  0  0  0  0  0  0  0
   60.3796   26.9441   48.6633 H   0  0  0  0  0  0  0  0  0  0  0  0
   59.5269   27.1072   45.7966 H   0  0  0  0  0  0  0  0  0  0  0  0
   56.5560   29.2630   45.4910 H   0  0  0  0  0  0  0  0  0  0  0  0
   58.2510   30.1499   45.6035 H   0  0  0  0  0  0  0  0  0  0  0  0
   56.5543   30.3763   42.9034 H   0  0  0  0  0  0  0  0  0  0  0  0
   59.0978   32.7111   41.3168 H   0  0  0  0  0  0  0  0  0  0  0  0
   57.9891   31.3439   40.9589 H   0  0  0  0  0  0  0  0  0  0  0  0
   57.3664   33.0288   40.9589 H   0  0  0  0  0  0  0  0  0  0  0  0
   59.2513   31.6478   50.1831 H   0  0  0  0  0  0  0  0  0  0  0  0
   59.9938   30.0839   50.7073 H   0  0  0  0  0  0  0  0  0  0  0  0
   61.5182   32.0374   51.8289 H   0  0  0  0  0  0  0  0  0  0  0  0
   63.8085   32.9741   51.5619 H   0  0  0  0  0  0  0  0  0  0  0  0
   66.0003   32.8639   51.1458 H   0  0  0  0  0  0  0  0  0  0  0  0
   66.7387   31.7937   49.9065 H   0  0  0  0  0  0  0  0  0  0  0  0
   67.1032   33.5526   49.9065 H   0  0  0  0  0  0  0  0  0  0  0  0
   63.7588   31.8949   47.3710 H   0  0  0  0  0  0  0  0  0  0  0  0
   61.4859   30.9220   47.6438 H   0  0  0  0  0  0  0  0  0  0  0  0
  1  2  2  0
  2  3  1  0
  3  4  2  3
  4  5  1  0
  5  6  1  0
  6  7  1  0
  7  8  2  0
  7  9  1  0
  9 10  1  0
 10 11  1  0
  3 12  1  0
 12 13  2  0
 13 14  1  0
 14 15  2  0
 14 16  1  0
 16 17  2  3
 17 18  1  0
 18 19  1  0
 19 20  2  0
 20 21  1  0
 20 22  1  0
 13 23  1  0
 23 24  1  0
 24 25  1  0
 25 26  2  0
 26 27  1  0
 27 28  2  0
 28 29  1  0
 29 30  1  0
 28 31  1  0
 31 32  2  0
 23  2  1  0
 32 25  1  0
 10  5  2  0
 22 17  1  0
  1 33  1  0
  1 34  1  0
  4 35  1  0
 11 36  1  0
 12 37  1  0
 19 38  1  0
 21 39  1  0
 21 40  1  0
 21 41  1  0
 24 42  1  0
 24 43  1  0
 26 44  1  0
 27 45  1  0
 30 46  1  0
 30 47  1  0
 30 48  1  0
 31 49  1  0
 32 50  1  0
M  CHG  3   6  -1   9  -1  18  -1
M  END
>  <UniqueID>  (27) 
27

>  <SMILES>  (27) 
C=c1c(=Cc2[n-]c(=O)[n-]c2O)cc(C(=O)N=c2[n-]cc(C)s2)n1Cc1ccc(OC)cc1

>  <Energy>  (27) 
157.74430480226673

>  <Genealogy>  (27) 
C=c1c(=Cc2[n-]c(=O)[n-]c2O)cc(C(=O)N=c2[n-]cc(C)s2)n1Cc1ccc(OC)cc1 (protonated)
C=c1c(=Cc2[n-]c(=O)[n-]c2O)cc(C(=O)N=c2[n-]cc(C)s2)n1Cc1ccc(OC)cc1 (3D coordinates assigned)
C=c1c(=Cc2[n-]c(=O)[n-]c2O)cc(C(=O)N=c2[n-]cc(C)s2)n1Cc1ccc(OC)cc1 (optimized conformer: 157.74430480226673 kcal/mol)

>  <smiles>  (27) 
C=c1c(=Cc2[nH]c(=O)[nH]c2O)cc(C(=O)N=c2[nH]cc(C)s2)n1Cc1ccc(OC)cc1

>  <score_type>  (27) 
oracle

>  <origin>  (27) 
adg

>  <m_score__min__energy>  (27) 
-14.35

>  <m_primary>  (27) 
energy

$$$$
27:0
     RDKit          3D

 57 60  0  0  0  0  0  0  0  0999 V2000
   60.1740   28.6420   45.0260 C   0  0  0  0  0  0  0  0  0  0  0  0
   58.9290   28.1630   45.0600 C   0  0  0  0  0  0  0  0  0  0  0  0
   57.9740   28.5650   46.1480 C   0  0  0  0  0  0  0  0  0  0  0  0
   56.9880   29.4660   45.6460 O   0  0  0  0  0  0  0  0  0  0  0  0
   57.1340   30.2900   44.5150 C   0  0  0  0  0  0  0  0  0  0  0  0
   56.5030   29.9970   43.2880 C   0  0  0  0  0  0  0  0  0  0  0  0
   56.6790   30.8350   42.1850 C   0  0  0  0  0  0  0  0  0  0  0  0
   57.4830   31.9710   42.2890 C   0  0  0  0  0  0  0  0  0  0  0  0
   58.1130   32.2730   43.4960 C   0  0  0  0  0  0  0  0  0  0  0  0
   57.9430   31.4420   44.6160 C   0  0  0  0  0  0  0  0  0  0  0  0
   58.6460   31.7730   45.9100 C   0  0  0  0  0  0  0  0  0  0  0  0
   58.3960   33.1790   46.3020 N   0  0  0  0  0  0  0  0  0  0  0  0
   58.3890   33.3780   47.7680 C   0  0  0  0  0  0  0  0  0  0  0  0
   59.7940   33.2310   48.3940 C   0  0  0  0  0  0  0  0  0  0  0  0
   60.8640   33.3830   47.3900 N   0  0  0  0  0  0  0  0  0  0  0  0
   62.4020   33.6500   48.1730 S   0  0  0  0  0  0  0  0  0  0  0  0
   63.4740   33.8030   47.1310 O   0  0  0  0  0  0  0  0  0  0  0  0
   62.3390   34.9240   48.9670 O   0  0  0  0  0  0  0  0  0  0  0  0
   62.8220   32.3180   49.2520 C   0  0  0  0  0  0  0  0  0  0  0  0
   61.8840   31.3000   49.5290 C   0  0  0  0  0  0  0  0  0  0  0  0
   62.2150   30.2460   50.3940 C   0  0  0  0  0  0  0  0  0  0  0  0
   63.4890   30.2250   50.9700 C   0  0  0  0  0  0  0  0  0  0  0  0
   64.3970   31.2080   50.7010 C   0  0  0  0  0  0  0  0  0  0  0  0
   64.0970   32.2690   49.8450 C   0  0  0  0  0  0  0  0  0  0  0  0
   65.6490   30.9570   51.4300 C   0  0  0  0  0  0  0  0  0  0  0  0
   65.3470   29.6430   52.1810 C   0  0  0  0  0  0  0  0  0  0  0  0
   63.9640   29.2240   51.8640 N   0  0  0  0  0  0  0  0  0  0  0  0
   60.5590   34.4800   46.4650 C   0  0  0  0  0  0  0  0  0  0  0  0
   59.3120   34.1320   45.6260 C   0  0  0  0  0  0  0  0  0  0  0  0
   60.8591   28.3363   44.2216 H   0  0  0  0  0  0  0  0  0  0  0  0
   60.5152   29.3426   45.8024 H   0  0  0  0  0  0  0  0  0  0  0  0
   58.5967   27.4629   44.2793 H   0  0  0  0  0  0  0  0  0  0  0  0
   57.4755   27.6666   46.5411 H   0  0  0  0  0  0  0  0  0  0  0  0
   58.5390   29.0681   46.9465 H   0  0  0  0  0  0  0  0  0  0  0  0
   55.8684   29.1029   43.1995 H   0  0  0  0  0  0  0  0  0  0  0  0
   56.1828   30.5992   41.2320 H   0  0  0  0  0  0  0  0  0  0  0  0
   57.6199   32.6288   41.4181 H   0  0  0  0  0  0  0  0  0  0  0  0
   58.7476   33.1683   43.5717 H   0  0  0  0  0  0  0  0  0  0  0  0
   58.2746   31.1066   46.7024 H   0  0  0  0  0  0  0  0  0  0  0  0
   59.7280   31.6346   45.7678 H   0  0  0  0  0  0  0  0  0  0  0  0
   58.0106   34.3879   47.9847 H   0  0  0  0  0  0  0  0  0  0  0  0
   57.7457   32.6011   48.2067 H   0  0  0  0  0  0  0  0  0  0  0  0
   59.9207   34.0024   49.1678 H   0  0  0  0  0  0  0  0  0  0  0  0
   59.8712   32.2211   48.8232 H   0  0  0  0  0  0  0  0  0  0  0  0
   60.8877   31.3333   49.0639 H   0  0  0  0  0  0  0  0  0  0  0  0
   61.4866   29.4518   50.6147 H   0  0  0  0  0  0  0  0  0  0  0  0
   64.8424   33.0511   49.6382 H   0  0  0  0  0  0  0  0  0  0  0  0
   66.4936   30.8323   50.7364 H   0  0  0  0  0  0  0  0  0  0  0  0
   65.9396   31.7832   52.0956 H   0  0  0  0  0  0  0  0  0  0  0  0
   66.0530   28.8627   51.8607 H   0  0  0  0  0  0  0  0  0  0  0  0
   65.4533   29.7973   53.2649 H   0  0  0  0  0  0  0  0  0  0  0  0
   63.9560   28.2920   51.3880 H   0  0  0  0  0  0  0  0  0  0  0  0
   63.3720   29.2130   52.7270 H   0  0  0  0  0  0  0  0  0  0  0  0
   60.3668   35.3981   47.0396 H   0  0  0  0  0  0  0  0  0  0  0  0
   61.4155   34.6333   45.7920 H   0  0  0  0  0  0  0  0  0  0  0  0
   58.7596   35.0607   45.4201 H   0  0  0  0  0  0  0  0  0  0  0  0
   59.6649   33.6462   44.7043 H   0  0  0  0  0  0  0  0  0  0  0  0
  1  2  2  0
  2  3  1  0
  3  4  1  0
  4  5  1  0
  5  6  2  0
  6  7  1  0
  7  8  2  0
  8  9  1  0
  9 10  2  0
 10 11  1  0
 11 12  1  0
 12 13  1  0
 13 14  1  0
 14 15  1  0
 15 16  1  0
 16 17  2  0
 16 18  2  0
 16 19  1  0
 19 20  2  0
 20 21  1  0
 21 22  2  0
 22 23  1  0
 23 24  2  0
 23 25  1  0
 25 26  1  0
 26 27  1  0
 15 28  1  0
 28 29  1  0
 10  5  1  0
 29 12  1  0
 24 19  1  0
 27 22  1  0
  1 30  1  0
  1 31  1  0
  2 32  1  0
  3 33  1  0
  3 34  1  0
  6 35  1  0
  7 36  1  0
  8 37  1  0
  9 38  1  0
 11 39  1  0
 11 40  1  0
 13 41  1  0
 13 42  1  0
 14 43  1  0
 14 44  1  0
 20 45  1  0
 21 46  1  0
 24 47  1  0
 25 48  1  0
 25 49  1  0
 26 50  1  0
 26 51  1  0
 27 52  1  0
 27 53  1  0
 28 54  1  0
 28 55  1  0
 29 56  1  0
 29 57  1  0
M  CHG  1  27   1
M  END
>  <UniqueID>  (28) 
28

>  <SMILES>  (28) 
C=CCOc1ccccc1CN1CCN(S(=O)(=O)c2ccc3c(c2)CC[NH2+]3)CC1

>  <Energy>  (28) 
75.47577187250938

>  <Genealogy>  (28) 
C=CCOc1ccccc1CN1CCN(S(=O)(=O)c2ccc3c(c2)CC[NH2+]3)CC1 (protonated)
C=CCOc1ccccc1CN1CCN(S(=O)(=O)c2ccc3c(c2)CC[NH2+]3)CC1 (3D coordinates assigned)
C=CCOc1ccccc1CN1CCN(S(=O)(=O)c2ccc3c(c2)CC[NH2+]3)CC1 (nonaromatic ring conformer: 75.47577187250938 kcal/mol)

>  <smiles>  (28) 
C=CCOc1ccccc1CN1CCN(S(=O)(=O)c2ccc3c(c2)CCN3)CC1

>  <score_type>  (28) 
oracle

>  <origin>  (28) 
adg

>  <m_score__min__energy>  (28) 
-7.5099999999999998

>  <m_primary>  (28) 
energy

$$$$
28:0
     RDKit          3D

 22 23  0  0  0  0  0  0  0  0999 V2000
   59.9490   28.4050   45.4670 C   0  0  0  0  0  0  0  0  0  0  0  0
   58.8140   29.1140   45.3540 C   0  0  0  0  0  0  0  0  0  0  0  0
   58.9090   30.4440   45.6220 N   0  0  0  0  0  0  0  0  0  0  0  0
   57.8540   31.2810   45.5140 C   0  0  0  0  0  0  0  0  0  0  0  0
   58.0340   32.8690   45.8430 S   0  0  0  0  0  0  0  0  0  0  0  0
   56.6490   30.8000   45.1390 N   0  0  0  0  0  0  0  0  0  0  0  0
   56.4620   29.4870   44.8610 C   0  0  0  0  0  0  0  0  0  0  0  0
   55.2960   29.1110   44.5650 O   0  0  0  0  0  0  0  0  0  0  0  0
   57.5500   28.5670   44.9450 C   0  0  0  0  0  0  0  0  0  0  0  0
   57.3920   27.2360   44.6860 C   0  0  0  0  0  0  0  0  0  0  0  0
   57.2540   26.1680   45.7020 C   0  0  0  0  0  0  0  0  0  0  0  0
   56.0220   25.9470   46.3330 C   0  0  0  0  0  0  0  0  0  0  0  0
   54.9010   26.6910   45.9790 O   0  0  0  0  0  0  0  0  0  0  0  0
   55.9140   24.9940   47.2940 N   0  0  0  0  0  0  0  0  0  0  0  0
   56.9880   24.2540   47.6710 C   0  0  0  0  0  0  0  0  0  0  0  0
   56.8640   23.3740   48.5610 O   0  0  0  0  0  0  0  0  0  0  0  0
   58.1980   24.4670   47.0910 N   0  0  0  0  0  0  0  0  0  0  0  0
   58.3570   25.4080   46.1270 C   0  0  0  0  0  0  0  0  0  0  0  0
   59.4980   25.5930   45.6240 O   0  0  0  0  0  0  0  0  0  0  0  0
   59.9445   27.3238   45.2648 H   0  0  0  0  0  0  0  0  0  0  0  0
   60.8831   28.9055   45.7617 H   0  0  0  0  0  0  0  0  0  0  0  0
   57.3648   26.9302   43.6297 H   0  0  0  0  0  0  0  0  0  0  0  0
  1  2  2  0
  2  3  1  0
  3  4  1  0
  4  5  2  0
  4  6  1  0
  6  7  1  0
  7  8  2  0
  7  9  1  0
  9 10  2  3
 10 11  1  0
 11 12  2  0
 12 13  1  0
 12 14  1  0
 14 15  1  0
 15 16  2  0
 15 17  1  0
 17 18  1  0
 18 19  2  0
  9  2  1  0
 18 11  1  0
  1 20  1  0
  1 21  1  0
 10 22  1  0
M  CHG  5   3  -1   6  -1  13  -1  14  -1  17  -1
M  END
>  <UniqueID>  (29) 
29

>  <SMILES>  (29) 
C=c1[n-]c(=S)[n-]c(=O)c1=Cc1c([O-])[n-]c(=O)[n-]c1=O

>  <Energy>  (29) 
46.86740395378435

>  <Genealogy>  (29) 
C=c1[n-]c(=S)[n-]c(=O)c1=Cc1c([O-])[n-]c(=O)[n-]c1=O (protonated)
C=c1[n-]c(=S)[n-]c(=O)c1=Cc1c([O-])[n-]c(=O)[n-]c1=O (3D coordinates assigned)
C=c1[n-]c(=S)[n-]c(=O)c1=Cc1c([O-])[n-]c(=O)[n-]c1=O (optimized conformer: 46.86740395378435 kcal/mol)

>  <smiles>  (29) 
C=c1[nH]c(=S)[nH]c(=O)c1=Cc1c(O)[nH]c(=O)[nH]c1=O

>  <score_type>  (29) 
oracle

>  <origin>  (29) 
adg

>  <m_score__min__energy>  (29) 
-16.510000000000002

>  <m_primary>  (29) 
energy

$$$$
29:0
     RDKit          3D

 59 63  0  0  0  0  0  0  0  0999 V2000
   55.6190   29.7210   45.9110 H   0  0  0  0  0  0  0  0  0  0  0  0
   55.7820   28.9800   45.2400 O   0  0  0  0  0  0  0  0  0  0  0  0
   56.2620   27.7320   45.6310 C   0  0  0  0  0  0  0  0  0  0  0  0
   55.4600   26.7170   45.9960 N   0  0  0  0  0  0  0  0  0  0  0  0
   56.3320   25.7100   46.2110 C   0  0  0  0  0  0  0  0  0  0  0  0
   55.9650   24.5600   46.5680 O   0  0  0  0  0  0  0  0  0  0  0  0
   57.6290   26.0270   46.0050 N   0  0  0  0  0  0  0  0  0  0  0  0
   57.5810   27.3250   45.6570 C   0  0  0  0  0  0  0  0  0  0  0  0
   58.7760   28.1060   45.2900 C   0  0  0  0  0  0  0  0  0  0  0  0
   59.3007   27.8476   44.3584 H   0  0  0  0  0  0  0  0  0  0  0  0
   59.2600   29.1190   46.0340 C   0  0  0  0  0  0  0  0  0  0  0  0
   60.2460   29.0190   47.0050 C   0  0  0  0  0  0  0  0  0  0  0  0
   60.7638   28.1029   47.3254 H   0  0  0  0  0  0  0  0  0  0  0  0
   60.4490   30.2930   47.4890 C   0  0  0  0  0  0  0  0  0  0  0  0
   61.3770   30.6280   48.5840 C   0  0  0  0  0  0  0  0  0  0  0  0
   61.3090   29.9560   49.6480 O   0  0  0  0  0  0  0  0  0  0  0  0
   62.3710   31.6710   48.4460 N   0  0  0  0  0  0  0  0  0  0  0  0
   62.7080   32.2010   47.1140 C   0  0  0  0  0  0  0  0  0  0  0  0
   63.3617   31.4840   46.5957 H   0  0  0  0  0  0  0  0  0  0  0  0
   61.7763   32.3493   46.5483 H   0  0  0  0  0  0  0  0  0  0  0  0
   63.4310   33.5470   47.2290 C   0  0  0  0  0  0  0  0  0  0  0  0
   63.8167   33.8340   46.2396 H   0  0  0  0  0  0  0  0  0  0  0  0
   62.7168   34.2985   47.5966 H   0  0  0  0  0  0  0  0  0  0  0  0
   64.5090   33.4660   48.1400 O   0  0  0  0  0  0  0  0  0  0  0  0
   64.0030   33.2370   49.4390 C   0  0  0  0  0  0  0  0  0  0  0  0
   64.8290   33.2928   50.1633 H   0  0  0  0  0  0  0  0  0  0  0  0
   63.2460   34.0028   49.6637 H   0  0  0  0  0  0  0  0  0  0  0  0
   63.3480   31.8560   49.5290 C   0  0  0  0  0  0  0  0  0  0  0  0
   64.1256   31.0820   49.4496 H   0  0  0  0  0  0  0  0  0  0  0  0
   62.8253   31.7754   50.4935 H   0  0  0  0  0  0  0  0  0  0  0  0
   59.6550   31.1860   46.8510 N   0  0  0  0  0  0  0  0  0  0  0  0
   59.5860   32.6240   47.1640 C   0  0  0  0  0  0  0  0  0  0  0  0
   60.5213   33.1099   46.8491 H   0  0  0  0  0  0  0  0  0  0  0  0
   58.7340   33.0681   46.6283 H   0  0  0  0  0  0  0  0  0  0  0  0
   59.3950   32.8240   48.6440 C   0  0  0  0  0  0  0  0  0  0  0  0
   58.4770   32.0320   49.3500 C   0  0  0  0  0  0  0  0  0  0  0  0
   57.8430   31.3146   48.8083 H   0  0  0  0  0  0  0  0  0  0  0  0
   58.3640   32.1500   50.7390 C   0  0  0  0  0  0  0  0  0  0  0  0
   57.6384   31.5271   51.2825 H   0  0  0  0  0  0  0  0  0  0  0  0
   59.1710   33.0590   51.4460 C   0  0  0  0  0  0  0  0  0  0  0  0
   59.0970   33.1420   52.9250 C   0  0  0  0  0  0  0  0  0  0  0  0
   58.7010   32.0220   53.6830 C   0  0  0  0  0  0  0  0  0  0  0  0
   58.4472   31.0798   53.1753 H   0  0  0  0  0  0  0  0  0  0  0  0
   58.6290   32.1020   55.0770 C   0  0  0  0  0  0  0  0  0  0  0  0
   58.3175   31.2241   55.6620 H   0  0  0  0  0  0  0  0  0  0  0  0
   58.9520   33.2950   55.7280 C   0  0  0  0  0  0  0  0  0  0  0  0
   58.8990   33.3537   56.8252 H   0  0  0  0  0  0  0  0  0  0  0  0
   59.3420   34.4130   54.9880 C   0  0  0  0  0  0  0  0  0  0  0  0
   59.5930   35.3522   55.5027 H   0  0  0  0  0  0  0  0  0  0  0  0
   59.4140   34.3400   53.5920 C   0  0  0  0  0  0  0  0  0  0  0  0
   59.7200   35.2239   53.0131 H   0  0  0  0  0  0  0  0  0  0  0  0
   60.0690   33.8710   50.7310 C   0  0  0  0  0  0  0  0  0  0  0  0
   60.6895   34.6032   51.2684 H   0  0  0  0  0  0  0  0  0  0  0  0
   60.1790   33.7550   49.3440 C   0  0  0  0  0  0  0  0  0  0  0  0
   60.8844   34.3971   48.7961 H   0  0  0  0  0  0  0  0  0  0  0  0
   58.9060   30.4720   45.9660 C   0  0  0  0  0  0  0  0  0  0  0  0
   57.9490   30.9930   45.1800 C   0  0  0  0  0  0  0  0  0  0  0  0
   57.7479   32.0743   45.2014 H   0  0  0  0  0  0  0  0  0  0  0  0
   57.3666   30.3383   44.5151 H   0  0  0  0  0  0  0  0  0  0  0  0
  1  2  1  0
  2  3  1  0
  3  4  1  0
  4  5  1  0
  5  6  2  0
  5  7  1  0
  7  8  1  0
  8  9  1  0
  9 10  1  0
  9 11  2  0
 11 12  1  0
 12 13  1  0
 12 14  2  0
 14 15  1  0
 15 16  2  0
 15 17  1  0
 17 18  1  0
 18 19  1  0
 18 20  1  0
 18 21  1  0
 21 22  1  0
 21 23  1  0
 21 24  1  0
 24 25  1  0
 25 26  1  0
 25 27  1  0
 25 28  1  0
 28 29  1  0
 28 30  1  0
 14 31  1  0
 31 32  1  0
 32 33  1  0
 32 34  1  0
 32 35  1  0
 35 36  2  0
 36 37  1  0
 36 38  1  0
 38 39  1  0
 38 40  2  0
 40 41  1  0
 41 42  2  0
 42 43  1  0
 42 44  1  0
 44 45  1  0
 44 46  2  0
 46 47  1  0
 46 48  1  0
 48 49  1  0
 48 50  2  0
 50 51  1  0
 40 52  1  0
 52 53  1  0
 52 54  2  0
 54 55  1  0
 31 56  1  0
 56 57  2  0
 57 58  1  0
 57 59  1  0
  8  3  2  0
 56 11  1  0
 28 17  1  0
 54 35  1  0
 50 41  1  0
M  CHG  2   4  -1   7  -1
M  END
>  <UniqueID>  (30) 
30

>  <SMILES>  (30) 
C=c1/c(=C/c2[n-]c(=O)[n-]c2O)cc(C(=O)N2CCOCC2)n1Cc1ccc(-c2ccccc2)cc1

>  <Energy>  (30) 
139.35716846192494

>  <Genealogy>  (30) 
C=c1c(=Cc2[n-]c(=O)[n-]c2O)cc(C(=O)N2CCOCC2)n1Cc1ccc(-c2ccccc2)cc1 (protonated)
C=c1/c(=C/c2[n-]c(=O)[n-]c2O)cc(C(=O)N2CCOCC2)n1Cc1ccc(-c2ccccc2)cc1 (cis-trans isomerization)
C=c1/c(=C/c2[n-]c(=O)[n-]c2O)cc(C(=O)N2CCOCC2)n1Cc1ccc(-c2ccccc2)cc1 (3D coordinates assigned)
C=c1/c(=C/c2[n-]c(=O)[n-]c2O)cc(C(=O)N2CCOCC2)n1Cc1ccc(-c2ccccc2)cc1 (nonaromatic ring conformer: 139.35716846192494 kcal/mol)

>  <smiles>  (30) 
C=c1c(=Cc2[nH]c(=O)[nH]c2O)cc(C(=O)N2CCOCC2)n1Cc1ccc(-c2ccccc2)cc1

>  <score_type>  (30) 
oracle

>  <origin>  (30) 
adg

>  <m_score__min__energy>  (30) 
-13.369999999999999

>  <m_primary>  (30) 
energy

$$$$
30:0
     RDKit          3D

 55 57  0  0  0  0  0  0  0  0999 V2000
   60.7790   29.3500   49.1820 O   0  0  0  0  0  0  0  0  0  0  0  0
   59.5580   29.5120   48.9130 C   0  0  0  0  0  0  0  0  0  0  0  0
   58.7770   28.4050   48.2650 C   0  0  0  0  0  0  0  0  0  0  0  0
   58.1230   28.8290   46.9430 C   0  0  0  0  0  0  0  0  0  0  0  0
   57.9420   27.6480   45.9780 C   0  0  0  0  0  0  0  0  0  0  0  0
   56.5280   27.4620   45.6690 N   0  0  0  0  0  0  0  0  0  0  0  0
   55.7850   26.2980   46.0430 C   0  0  0  0  0  0  0  0  0  0  0  0
   54.5280   26.3320   45.9890 O   0  0  0  0  0  0  0  0  0  0  0  0
   56.4680   25.1300   46.5220 N   0  0  0  0  0  0  0  0  0  0  0  0
   56.6830   23.8960   45.8200 C   0  0  0  0  0  0  0  0  0  0  0  0
   56.5440   22.6430   46.4490 C   0  0  0  0  0  0  0  0  0  0  0  0
   56.7610   21.4650   45.7300 C   0  0  0  0  0  0  0  0  0  0  0  0
   57.0990   21.5220   44.3760 C   0  0  0  0  0  0  0  0  0  0  0  0
   57.2070   22.7570   43.7340 C   0  0  0  0  0  0  0  0  0  0  0  0
   56.9950   23.9450   44.4500 C   0  0  0  0  0  0  0  0  0  0  0  0
   57.0960   25.1790   43.8070 O   0  0  0  0  0  0  0  0  0  0  0  0
   58.8910   30.7390   49.2360 N   0  0  0  0  0  0  0  0  0  0  0  0
   59.0540   32.0100   48.5890 C   0  0  0  0  0  0  0  0  0  0  0  0
   59.4650   33.1630   49.2870 C   0  0  0  0  0  0  0  0  0  0  0  0
   59.5800   34.3850   48.6210 C   0  0  0  0  0  0  0  0  0  0  0  0
   59.2610   34.4780   47.2660 C   0  0  0  0  0  0  0  0  0  0  0  0
   58.8130   33.3490   46.5670 C   0  0  0  0  0  0  0  0  0  0  0  0
   58.3360   33.4860   44.8710 S   0  0  0  0  0  0  0  0  0  0  0  0
   59.3440   34.3290   44.1380 O   0  0  0  0  0  0  0  0  0  0  0  0
   57.0030   34.1770   44.7880 O   0  0  0  0  0  0  0  0  0  0  0  0
   58.2170   31.9170   44.1080 N   0  0  0  0  0  0  0  0  0  0  0  0
   56.9710   31.2380   44.5130 C   0  0  0  0  0  0  0  0  0  0  0  0
   56.5810   30.1580   43.4890 C   0  0  0  0  0  0  0  0  0  0  0  0
   56.3540   30.6590   42.1770 O   0  0  0  0  0  0  0  0  0  0  0  0
   57.0240   31.8830   41.9080 C   0  0  0  0  0  0  0  0  0  0  0  0
   58.3740   32.0110   42.6400 C   0  0  0  0  0  0  0  0  0  0  0  0
   58.7180   32.1180   47.2330 C   0  0  0  0  0  0  0  0  0  0  0  0
   59.4585   27.5649   48.0657 H   0  0  0  0  0  0  0  0  0  0  0  0
   57.9696   28.1225   48.9566 H   0  0  0  0  0  0  0  0  0  0  0  0
   57.1359   29.2633   47.1598 H   0  0  0  0  0  0  0  0  0  0  0  0
   58.7860   29.5611   46.4588 H   0  0  0  0  0  0  0  0  0  0  0  0
   58.4935   27.8507   45.0481 H   0  0  0  0  0  0  0  0  0  0  0  0
   58.3290   26.7342   46.4525 H   0  0  0  0  0  0  0  0  0  0  0  0
   56.2633   22.5920   47.5113 H   0  0  0  0  0  0  0  0  0  0  0  0
   56.6655   20.4905   46.2313 H   0  0  0  0  0  0  0  0  0  0  0  0
   57.2802   20.5932   43.8151 H   0  0  0  0  0  0  0  0  0  0  0  0
   57.4590   22.7989   42.6641 H   0  0  0  0  0  0  0  0  0  0  0  0
   56.7000   26.0210   44.2100 H   0  0  0  0  0  0  0  0  0  0  0  0
   59.6961   33.1003   50.3606 H   0  0  0  0  0  0  0  0  0  0  0  0
   59.9230   35.2767   49.1662 H   0  0  0  0  0  0  0  0  0  0  0  0
   59.3615   35.4412   46.7443 H   0  0  0  0  0  0  0  0  0  0  0  0
   57.1200   30.7666   45.4956 H   0  0  0  0  0  0  0  0  0  0  0  0
   56.1636   31.9833   44.5649 H   0  0  0  0  0  0  0  0  0  0  0  0
   57.3933   29.4178   43.4408 H   0  0  0  0  0  0  0  0  0  0  0  0
   55.6308   29.7228   43.8321 H   0  0  0  0  0  0  0  0  0  0  0  0
   57.2058   31.9512   40.8253 H   0  0  0  0  0  0  0  0  0  0  0  0
   56.3775   32.6956   42.2710 H   0  0  0  0  0  0  0  0  0  0  0  0
   59.0401   31.2038   42.3012 H   0  0  0  0  0  0  0  0  0  0  0  0
   58.7967   32.9990   42.4051 H   0  0  0  0  0  0  0  0  0  0  0  0
   58.3760   31.2278   46.6847 H   0  0  0  0  0  0  0  0  0  0  0  0
  1  2  2  0
  2  3  1  0
  3  4  1  0
  4  5  1  0
  5  6  1  0
  6  7  1  0
  7  8  2  0
  7  9  1  0
  9 10  1  0
 10 11  2  0
 11 12  1  0
 12 13  2  0
 13 14  1  0
 14 15  2  0
 15 16  1  0
  2 17  1  0
 17 18  1  0
 18 19  2  0
 19 20  1  0
 20 21  2  0
 21 22  1  0
 22 23  1  0
 23 24  2  0
 23 25  2  0
 23 26  1  0
 26 27  1  0
 27 28  1  0
 28 29  1  0
 29 30  1  0
 30 31  1  0
 22 32  2  0
 15 10  1  0
 32 18  1  0
 31 26  1  0
  3 33  1  0
  3 34  1  0
  4 35  1  0
  4 36  1  0
  5 37  1  0
  5 38  1  0
 11 39  1  0
 12 40  1  0
 13 41  1  0
 14 42  1  0
 16 43  1  0
 19 44  1  0
 20 45  1  0
 21 46  1  0
 27 47  1  0
 27 48  1  0
 28 49  1  0
 28 50  1  0
 30 51  1  0
 30 52  1  0
 31 53  1  0
 31 54  1  0
 32 55  1  0
M  CHG  3   6  -1   9  -1  17  -1
M  END
>  <UniqueID>  (31) 
31

>  <SMILES>  (31) 
O=C(CCC[N-]C(=O)[N-]c1ccccc1O)[N-]c1cccc(S(=O)(=O)N2CCOCC2)c1

>  <Energy>  (31) 
68.10499299332915

>  <Genealogy>  (31) 
O=C(CCC[N-]C(=O)[N-]c1ccccc1O)[N-]c1cccc(S(=O)(=O)N2CCOCC2)c1 (protonated)
O=C(CCC[N-]C(=O)[N-]c1ccccc1O)[N-]c1cccc(S(=O)(=O)N2CCOCC2)c1 (3D coordinates assigned)
O=C(CCC[N-]C(=O)[N-]c1ccccc1O)[N-]c1cccc(S(=O)(=O)N2CCOCC2)c1 (nonaromatic ring conformer: 68.10499299332915 kcal/mol)

>  <smiles>  (31) 
O=C(CCCNC(=O)Nc1ccccc1O)Nc1cccc(S(=O)(=O)N2CCOCC2)c1

>  <score_type>  (31) 
oracle

>  <origin>  (31) 
adg

>  <m_score__min__energy>  (31) 
-14.75

>  <m_primary>  (31) 
energy

$$$$
31:0
     RDKit          3D

 48 51  0  0  0  0  0  0  0  0999 V2000
   56.0270   24.9210   47.3750 H   0  0  0  0  0  0  0  0  0  0  0  0
   56.9760   25.2750   47.3680 O   0  0  0  0  0  0  0  0  0  0  0  0
   57.3150   26.4320   46.6670 C   0  0  0  0  0  0  0  0  0  0  0  0
   58.6450   26.8790   46.6310 C   0  0  0  0  0  0  0  0  0  0  0  0
   59.4259   26.3173   47.1646 H   0  0  0  0  0  0  0  0  0  0  0  0
   58.9820   28.0350   45.9200 C   0  0  0  0  0  0  0  0  0  0  0  0
   60.0290   28.3699   45.8807 H   0  0  0  0  0  0  0  0  0  0  0  0
   57.9870   28.7680   45.2570 C   0  0  0  0  0  0  0  0  0  0  0  0
   58.3610   29.9710   44.4870 C   0  0  0  0  0  0  0  0  0  0  0  0
   59.4309   30.1378   44.2934 H   0  0  0  0  0  0  0  0  0  0  0  0
   57.4950   30.8770   44.0050 C   0  0  0  0  0  0  0  0  0  0  0  0
   56.4835   30.5225   43.7576 H   0  0  0  0  0  0  0  0  0  0  0  0
   57.7820   32.3080   43.7780 C   0  0  0  0  0  0  0  0  0  0  0  0
   58.1570   32.6670   42.6310 O   0  0  0  0  0  0  0  0  0  0  0  0
   57.6860   33.2580   44.8540 N   0  0  0  0  0  0  0  0  0  0  0  0
   58.2950   33.2240   46.0020 C   0  0  0  0  0  0  0  0  0  0  0  0
   57.6870   32.7550   47.1150 N   0  0  0  0  0  0  0  0  0  0  0  0
   58.5240   32.7830   48.1850 C   0  0  0  0  0  0  0  0  0  0  0  0
   58.1600   32.3530   49.4590 C   0  0  0  0  0  0  0  0  0  0  0  0
   57.1456   31.9733   49.6509 H   0  0  0  0  0  0  0  0  0  0  0  0
   59.1030   32.4110   50.4910 C   0  0  0  0  0  0  0  0  0  0  0  0
   58.8247   32.0765   51.5013 H   0  0  0  0  0  0  0  0  0  0  0  0
   60.4050   32.8930   50.2510 C   0  0  0  0  0  0  0  0  0  0  0  0
   61.2980   32.9250   51.2740 N   0  0  0  0  0  0  0  0  0  0  0  0
   62.5680   33.3740   51.1110 C   0  0  0  0  0  0  0  0  0  0  0  0
   63.5140   33.3540   52.2700 C   0  0  0  0  0  0  0  0  0  0  0  0
   62.9426   33.3661   53.2099 H   0  0  0  0  0  0  0  0  0  0  0  0
   64.1284   32.4427   52.2261 H   0  0  0  0  0  0  0  0  0  0  0  0
   64.1664   34.2386   52.2261 H   0  0  0  0  0  0  0  0  0  0  0  0
   63.0000   33.8070   49.8530 C   0  0  0  0  0  0  0  0  0  0  0  0
   64.0353   34.1534   49.7183 H   0  0  0  0  0  0  0  0  0  0  0  0
   62.1130   33.8010   48.7570 C   0  0  0  0  0  0  0  0  0  0  0  0
   62.4900   34.2080   47.5760 N   0  0  0  0  0  0  0  0  0  0  0  0
   63.5060   33.5980   46.7190 C   0  0  0  0  0  0  0  0  0  0  0  0
   63.1692   33.6272   45.6722 H   0  0  0  0  0  0  0  0  0  0  0  0
   64.4502   34.1543   46.8144 H   0  0  0  0  0  0  0  0  0  0  0  0
   63.7220   32.1500   47.1440 C   0  0  0  0  0  0  0  0  0  0  0  0
   64.4029   31.6602   46.4323 H   0  0  0  0  0  0  0  0  0  0  0  0
   64.1586   32.1336   48.1535 H   0  0  0  0  0  0  0  0  0  0  0  0
   62.4990   31.4630   47.1630 O   0  0  0  0  0  0  0  0  0  0  0  0
   61.7880   32.1550   47.1580 H   0  0  0  0  0  0  0  0  0  0  0  0
   60.7880   33.3370   48.9560 C   0  0  0  0  0  0  0  0  0  0  0  0
   59.8080   33.2680   47.9390 C   0  0  0  0  0  0  0  0  0  0  0  0
   59.8950   33.6870   46.3070 S   0  0  0  0  0  0  0  0  0  0  0  0
   56.6570   28.3130   45.2810 C   0  0  0  0  0  0  0  0  0  0  0  0
   55.8768   28.8713   44.7428 H   0  0  0  0  0  0  0  0  0  0  0  0
   56.3220   27.1510   45.9880 C   0  0  0  0  0  0  0  0  0  0  0  0
   55.0030   26.7090   46.0050 O   0  0  0  0  0  0  0  0  0  0  0  0
  1  2  1  0
  2  3  1  0
  3  4  2  0
  4  5  1  0
  4  6  1  0
  6  7  1  0
  6  8  2  0
  8  9  1  0
  9 10  1  0
  9 11  2  3
 11 12  1  0
 11 13  1  0
 13 14  2  0
 13 15  1  0
 15 16  2  0
 16 17  1  0
 17 18  1  0
 18 19  2  0
 19 20  1  0
 19 21  1  0
 21 22  1  0
 21 23  2  0
 23 24  1  0
 24 25  1  0
 25 26  1  0
 26 27  1  0
 26 28  1  0
 26 29  1  0
 25 30  2  0
 30 31  1  0
 30 32  1  0
 32 33  2  3
 33 34  1  0
 34 35  1  0
 34 36  1  0
 34 37  1  0
 37 38  1  0
 37 39  1  0
 37 40  1  0
 40 41  1  0
 32 42  1  0
 42 43  2  0
 43 44  1  0
  8 45  1  0
 45 46  1  0
 45 47  2  0
 47 48  1  0
 47  3  1  0
 44 16  1  0
 43 18  1  0
 42 23  1  0
M  CHG  3  17  -1  24  -1  48  -1
M  END
>  <UniqueID>  (32) 
32

>  <SMILES>  (32) 
Cc1cc(=NCCO)c2c(ccc3[n-]/c(=N/C(=O)C=Cc4ccc(O)c([O-])c4)sc32)[n-]1

>  <Energy>  (32) 
101.44095720920406

>  <Genealogy>  (32) 
Cc1cc(=NCCO)c2c(ccc3[n-]c(=NC(=O)C=Cc4ccc(O)c([O-])c4)sc32)[n-]1 (protonated)
Cc1cc(=NCCO)c2c(ccc3[n-]/c(=N/C(=O)C=Cc4ccc(O)c([O-])c4)sc32)[n-]1 (cis-trans isomerization)
Cc1cc(=NCCO)c2c(ccc3[n-]/c(=N/C(=O)C=Cc4ccc(O)c([O-])c4)sc32)[n-]1 (3D coordinates assigned)
Cc1cc(=NCCO)c2c(ccc3[n-]/c(=N/C(=O)C=Cc4ccc(O)c([O-])c4)sc32)[n-]1 (optimized conformer: 101.44095720920406 kcal/mol)

>  <smiles>  (32) 
Cc1cc(=NCCO)c2c(ccc3[nH]c(=NC(=O)C=Cc4ccc(O)c(O)c4)sc32)[nH]1

>  <score_type>  (32) 
oracle

>  <origin>  (32) 
adg

>  <m_score__min__energy>  (32) 
-14.109999999999999

>  <m_primary>  (32) 
energy

$$$$
32:0
     RDKit          3D

 46 48  0  0  0  0  0  0  0  0999 V2000
   57.0070   34.5020   44.9030 C   0  0  0  0  0  0  0  0  0  0  0  0
   57.9770   33.4740   45.4120 C   0  0  0  0  0  0  0  0  0  0  0  0
   57.8010   32.0920   45.4470 C   0  0  0  0  0  0  0  0  0  0  0  0
   56.6610   31.3130   45.0640 N   0  0  0  0  0  0  0  0  0  0  0  0
   56.6520   29.9000   44.8340 C   0  0  0  0  0  0  0  0  0  0  0  0
   55.6570   29.2090   45.1770 O   0  0  0  0  0  0  0  0  0  0  0  0
   57.7940   29.2350   44.1230 C   0  0  0  0  0  0  0  0  0  0  0  0
   58.4860   28.2670   44.9740 N   0  0  0  0  0  0  0  0  0  0  0  0
   57.8920   27.4500   45.9930 C   0  0  0  0  0  0  0  0  0  0  0  0
   57.7040   27.9490   47.1340 O   0  0  0  0  0  0  0  0  0  0  0  0
   57.4600   26.0600   45.7410 C   0  0  0  0  0  0  0  0  0  0  0  0
   58.4130   25.0520   45.5250 C   0  0  0  0  0  0  0  0  0  0  0  0
   58.0090   23.7330   45.3050 C   0  0  0  0  0  0  0  0  0  0  0  0
   56.6510   23.4070   45.3090 C   0  0  0  0  0  0  0  0  0  0  0  0
   55.6940   24.3990   45.5370 C   0  0  0  0  0  0  0  0  0  0  0  0
   56.0910   25.7250   45.7580 C   0  0  0  0  0  0  0  0  0  0  0  0
   55.1290   26.7130   45.9740 O   0  0  0  0  0  0  0  0  0  0  0  0
   58.8840   31.6170   46.1440 C   0  0  0  0  0  0  0  0  0  0  0  0
   59.0860   30.4130   46.4580 O   0  0  0  0  0  0  0  0  0  0  0  0
   59.7030   32.6380   46.4610 N   0  0  0  0  0  0  0  0  0  0  0  0
   60.9150   32.5280   47.2230 C   0  0  0  0  0  0  0  0  0  0  0  0
   62.0680   33.2180   46.8170 C   0  0  0  0  0  0  0  0  0  0  0  0
   63.2430   33.1280   47.5710 C   0  0  0  0  0  0  0  0  0  0  0  0
   63.2700   32.3570   48.7360 C   0  0  0  0  0  0  0  0  0  0  0  0
   62.1200   31.6760   49.1520 C   0  0  0  0  0  0  0  0  0  0  0  0
   60.9440   31.7650   48.4010 C   0  0  0  0  0  0  0  0  0  0  0  0
   59.1640   33.7670   46.0050 N   0  0  0  0  0  0  0  0  0  0  0  0
   59.6570   35.1160   46.2970 C   0  0  0  0  0  0  0  0  0  0  0  0
   56.5291   35.0085   45.7545 H   0  0  0  0  0  0  0  0  0  0  0  0
   57.5441   35.2415   44.2909 H   0  0  0  0  0  0  0  0  0  0  0  0
   56.2376   34.0087   44.2909 H   0  0  0  0  0  0  0  0  0  0  0  0
   57.4038   28.7126   43.2371 H   0  0  0  0  0  0  0  0  0  0  0  0
   58.5169   30.0149   43.8417 H   0  0  0  0  0  0  0  0  0  0  0  0
   59.4841   25.3023   45.5290 H   0  0  0  0  0  0  0  0  0  0  0  0
   58.7614   22.9502   45.1284 H   0  0  0  0  0  0  0  0  0  0  0  0
   56.3346   22.3684   45.1325 H   0  0  0  0  0  0  0  0  0  0  0  0
   54.6253   24.1385   45.5431 H   0  0  0  0  0  0  0  0  0  0  0  0
   55.1550   27.5970   45.4800 H   0  0  0  0  0  0  0  0  0  0  0  0
   62.0476   33.8309   45.9038 H   0  0  0  0  0  0  0  0  0  0  0  0
   64.1466   33.6648   47.2464 H   0  0  0  0  0  0  0  0  0  0  0  0
   64.1953   32.2852   49.3264 H   0  0  0  0  0  0  0  0  0  0  0  0
   62.1415   31.0706   50.0701 H   0  0  0  0  0  0  0  0  0  0  0  0
   60.0391   31.2357   48.7341 H   0  0  0  0  0  0  0  0  0  0  0  0
   59.7094   35.2594   47.3864 H   0  0  0  0  0  0  0  0  0  0  0  0
   60.6594   35.2422   45.8619 H   0  0  0  0  0  0  0  0  0  0  0  0
   58.9722   35.8588   45.8619 H   0  0  0  0  0  0  0  0  0  0  0  0
  1  2  1  0
  2  3  2  0
  3  4  1  0
  4  5  1  0
  5  6  2  0
  5  7  1  0
  7  8  1  0
  8  9  1  0
  9 10  2  0
  9 11  1  0
 11 12  2  0
 12 13  1  0
 13 14  2  0
 14 15  1  0
 15 16  2  0
 16 17  1  0
  3 18  1  0
 18 19  2  0
 18 20  1  0
 20 21  1  0
 21 22  2  0
 22 23  1  0
 23 24  2  0
 24 25  1  0
 25 26  2  0
 20 27  1  0
 27 28  1  0
 27  2  1  0
 16 11  1  0
 26 21  1  0
  1 29  1  0
  1 30  1  0
  1 31  1  0
  7 32  1  0
  7 33  1  0
 12 34  1  0
 13 35  1  0
 14 36  1  0
 15 37  1  0
 17 38  1  0
 22 39  1  0
 23 40  1  0
 24 41  1  0
 25 42  1  0
 26 43  1  0
 28 44  1  0
 28 45  1  0
 28 46  1  0
M  CHG  2   4  -1   8  -1
M  END
>  <UniqueID>  (33) 
33

>  <SMILES>  (33) 
Cc1c([N-]C(=O)C[N-]C(=O)c2ccccc2O)c(=O)n(-c2ccccc2)n1C

>  <Energy>  (33) 
95.31071580636504

>  <Genealogy>  (33) 
Cc1c([N-]C(=O)C[N-]C(=O)c2ccccc2O)c(=O)n(-c2ccccc2)n1C (protonated)
Cc1c([N-]C(=O)C[N-]C(=O)c2ccccc2O)c(=O)n(-c2ccccc2)n1C (3D coordinates assigned)
Cc1c([N-]C(=O)C[N-]C(=O)c2ccccc2O)c(=O)n(-c2ccccc2)n1C (optimized conformer: 95.31071580636504 kcal/mol)

>  <smiles>  (33) 
Cc1c(NC(=O)CNC(=O)c2ccccc2O)c(=O)n(-c2ccccc2)n1C

>  <score_type>  (33) 
oracle

>  <origin>  (33) 
adg

>  <m_score__min__energy>  (33) 
-12.779999999999999

>  <m_primary>  (33) 
energy

$$$$
33:0
     RDKit          3D

 51 54  0  0  0  0  0  0  0  0999 V2000
   59.8930   25.9270   46.4890 O   0  0  0  0  0  0  0  0  0  0  0  0
   59.0320   26.7100   46.0040 C   0  0  0  0  0  0  0  0  0  0  0  0
   58.0640   26.1870   44.9840 C   0  0  0  0  0  0  0  0  0  0  0  0
   58.1370   27.1510   43.4310 S   0  0  0  0  0  0  0  0  0  0  0  0
   57.5930   28.6910   44.1680 C   0  0  0  0  0  0  0  0  0  0  0  0
   56.4120   28.8470   44.7920 N   0  0  0  0  0  0  0  0  0  0  0  0
   56.3820   30.0970   45.2220 N   0  0  0  0  0  0  0  0  0  0  0  0
   57.5470   30.6650   44.8520 C   0  0  0  0  0  0  0  0  0  0  0  0
   57.9310   32.0550   45.1730 C   0  0  0  0  0  0  0  0  0  0  0  0
   57.7390   32.5630   46.4710 C   0  0  0  0  0  0  0  0  0  0  0  0
   58.0890   33.8830   46.7720 C   0  0  0  0  0  0  0  0  0  0  0  0
   58.6350   34.7050   45.7830 C   0  0  0  0  0  0  0  0  0  0  0  0
   58.8310   34.2100   44.4900 C   0  0  0  0  0  0  0  0  0  0  0  0
   58.4800   32.8910   44.1830 C   0  0  0  0  0  0  0  0  0  0  0  0
   58.3410   29.8090   44.1780 N   0  0  0  0  0  0  0  0  0  0  0  0
   58.9340   28.0690   46.4610 N   0  0  0  0  0  0  0  0  0  0  0  0
   59.5390   28.5240   47.6810 C   0  0  0  0  0  0  0  0  0  0  0  0
   60.0090   27.5810   48.6080 C   0  0  0  0  0  0  0  0  0  0  0  0
   60.6200   27.9980   49.7910 C   0  0  0  0  0  0  0  0  0  0  0  0
   60.7560   29.3620   50.0650 C   0  0  0  0  0  0  0  0  0  0  0  0
   60.2700   30.3150   49.1610 C   0  0  0  0  0  0  0  0  0  0  0  0
   60.4060   32.0250   49.5480 S   0  0  0  0  0  0  0  0  0  0  0  0
   60.7030   32.1900   51.0140 O   0  0  0  0  0  0  0  0  0  0  0  0
   59.0870   32.6890   49.2570 O   0  0  0  0  0  0  0  0  0  0  0  0
   61.6900   32.7000   48.5640 N   0  0  0  0  0  0  0  0  0  0  0  0
   61.1480   33.3770   47.3740 C   0  0  0  0  0  0  0  0  0  0  0  0
   62.2880   33.8530   46.4510 C   0  0  0  0  0  0  0  0  0  0  0  0
   63.5550   33.6570   47.0500 O   0  0  0  0  0  0  0  0  0  0  0  0
   63.7620   32.2750   47.2820 C   0  0  0  0  0  0  0  0  0  0  0  0
   62.6500   31.6620   48.1620 C   0  0  0  0  0  0  0  0  0  0  0  0
   59.6520   29.8940   47.9740 C   0  0  0  0  0  0  0  0  0  0  0  0
   58.3089   25.1373   44.7646 H   0  0  0  0  0  0  0  0  0  0  0  0
   57.0481   26.2751   45.3965 H   0  0  0  0  0  0  0  0  0  0  0  0
   57.3113   31.9184   47.2531 H   0  0  0  0  0  0  0  0  0  0  0  0
   57.9343   34.2745   47.7883 H   0  0  0  0  0  0  0  0  0  0  0  0
   58.9110   35.7427   46.0217 H   0  0  0  0  0  0  0  0  0  0  0  0
   59.2618   34.8587   43.7131 H   0  0  0  0  0  0  0  0  0  0  0  0
   58.6337   32.5060   43.1641 H   0  0  0  0  0  0  0  0  0  0  0  0
   58.1950   28.6720   46.0330 H   0  0  0  0  0  0  0  0  0  0  0  0
   59.8950   26.5067   48.4007 H   0  0  0  0  0  0  0  0  0  0  0  0
   60.9948   27.2531   50.5084 H   0  0  0  0  0  0  0  0  0  0  0  0
   61.2465   29.6881   50.9940 H   0  0  0  0  0  0  0  0  0  0  0  0
   60.5048   32.6762   46.8215 H   0  0  0  0  0  0  0  0  0  0  0  0
   60.5673   34.2528   47.6992 H   0  0  0  0  0  0  0  0  0  0  0  0
   62.2461   33.2860   45.5093 H   0  0  0  0  0  0  0  0  0  0  0  0
   62.1561   34.9292   46.2657 H   0  0  0  0  0  0  0  0  0  0  0  0
   63.7785   31.7513   46.3148 H   0  0  0  0  0  0  0  0  0  0  0  0
   64.7180   32.1596   47.8138 H   0  0  0  0  0  0  0  0  0  0  0  0
   62.1241   30.8820   47.5919 H   0  0  0  0  0  0  0  0  0  0  0  0
   63.1053   31.2260   49.0634 H   0  0  0  0  0  0  0  0  0  0  0  0
   59.2542   30.6393   47.2696 H   0  0  0  0  0  0  0  0  0  0  0  0
  1  2  2  0
  2  3  1  0
  3  4  1  0
  4  5  1  0
  5  6  2  0
  6  7  1  0
  7  8  1  0
  8  9  1  0
  9 10  2  0
 10 11  1  0
 11 12  2  0
 12 13  1  0
 13 14  2  0
  8 15  2  0
  2 16  1  0
 16 17  1  0
 17 18  2  0
 18 19  1  0
 19 20  2  0
 20 21  1  0
 21 22  1  0
 22 23  2  0
 22 24  2  0
 22 25  1  0
 25 26  1  0
 26 27  1  0
 27 28  1  0
 28 29  1  0
 29 30  1  0
 21 31  2  0
 15  5  1  0
 31 17  1  0
 14  9  1  0
 30 25  1  0
  3 32  1  0
  3 33  1  0
 10 34  1  0
 11 35  1  0
 12 36  1  0
 13 37  1  0
 14 38  1  0
 16 39  1  0
 18 40  1  0
 19 41  1  0
 20 42  1  0
 26 43  1  0
 26 44  1  0
 27 45  1  0
 27 46  1  0
 29 47  1  0
 29 48  1  0
 30 49  1  0
 30 50  1  0
 31 51  1  0
M  CHG  1   7  -1
M  END
>  <UniqueID>  (34) 
34

>  <SMILES>  (34) 
O=C(CSc1n[n-]c(-c2ccccc2)n1)Nc1cccc(S(=O)(=O)N2CCOCC2)c1

>  <Energy>  (34) 
94.4740740325344

>  <Genealogy>  (34) 
O=C(CSc1n[n-]c(-c2ccccc2)n1)Nc1cccc(S(=O)(=O)N2CCOCC2)c1 (protonated)
O=C(CSc1n[n-]c(-c2ccccc2)n1)Nc1cccc(S(=O)(=O)N2CCOCC2)c1 (3D coordinates assigned)
O=C(CSc1n[n-]c(-c2ccccc2)n1)Nc1cccc(S(=O)(=O)N2CCOCC2)c1 (nonaromatic ring conformer: 94.4740740325344 kcal/mol)

>  <smiles>  (34) 
O=C(CSc1n[nH]c(-c2ccccc2)n1)Nc1cccc(S(=O)(=O)N2CCOCC2)c1

>  <score_type>  (34) 
oracle

>  <origin>  (34) 
adg

>  <m_score__min__energy>  (34) 
-11.800000000000001

>  <m_primary>  (34) 
energy

$$$$
34:0
     RDKit          3D

 36 37  0  0  0  0  0  0  0  0999 V2000
   56.2646   33.7711   45.7109 H   0  0  0  0  0  0  0  0  0  0  0  0
   57.2540   33.4970   45.3160 C   0  0  0  0  0  0  0  0  0  0  0  0
   57.3510   32.2460   44.5320 C   0  0  0  0  0  0  0  0  0  0  0  0
   57.7730   32.2760   43.3450 O   0  0  0  0  0  0  0  0  0  0  0  0
   57.1320   30.9700   45.1490 N   0  0  0  0  0  0  0  0  0  0  0  0
   58.0150   30.0350   45.3870 C   0  0  0  0  0  0  0  0  0  0  0  0
   59.4750   30.3500   45.6570 C   0  0  0  0  0  0  0  0  0  0  0  0
   60.0308   30.2998   44.7090 H   0  0  0  0  0  0  0  0  0  0  0  0
   59.5307   31.3567   46.0968 H   0  0  0  0  0  0  0  0  0  0  0  0
   60.0990   29.3630   46.6500 C   0  0  0  0  0  0  0  0  0  0  0  0
   61.1874   29.5207   46.6739 H   0  0  0  0  0  0  0  0  0  0  0  0
   59.6542   29.5432   47.6398 H   0  0  0  0  0  0  0  0  0  0  0  0
   59.8160   27.9120   46.2550 C   0  0  0  0  0  0  0  0  0  0  0  0
   60.2443   27.7154   45.2611 H   0  0  0  0  0  0  0  0  0  0  0  0
   60.2715   27.2411   46.9983 H   0  0  0  0  0  0  0  0  0  0  0  0
   58.3070   27.6630   46.2140 C   0  0  0  0  0  0  0  0  0  0  0  0
   58.1240   26.6145   45.9363 H   0  0  0  0  0  0  0  0  0  0  0  0
   57.8916   27.8794   47.2093 H   0  0  0  0  0  0  0  0  0  0  0  0
   57.6180   28.5810   45.1890 C   0  0  1  0  0  0  0  0  0  0  0  0
   57.9575   28.3090   44.1787 H   0  0  0  0  0  0  0  0  0  0  0  0
   56.1250   28.3780   45.2500 C   0  0  0  0  0  0  0  0  0  0  0  0
   55.3390   29.2740   44.8410 O   0  0  0  0  0  0  0  0  0  0  0  0
   55.6070   27.1950   45.7630 O   0  0  0  0  0  0  0  0  0  0  0  0
   58.2760   34.3240   45.5840 C   0  0  0  0  0  0  0  0  0  0  0  0
   58.3379   35.2568   45.0043 H   0  0  0  0  0  0  0  0  0  0  0  0
   59.3260   34.0810   46.5970 C   0  0  0  0  0  0  0  0  0  0  0  0
   58.9660   33.9940   47.9490 C   0  0  0  0  0  0  0  0  0  0  0  0
   57.9083   34.0742   48.2401 H   0  0  0  0  0  0  0  0  0  0  0  0
   59.9440   33.8060   48.9280 C   0  0  0  0  0  0  0  0  0  0  0  0
   59.6509   33.7227   49.9849 H   0  0  0  0  0  0  0  0  0  0  0  0
   61.2950   33.7230   48.5720 C   0  0  0  0  0  0  0  0  0  0  0  0
   62.4960   33.4870   49.8330 Cl  0  0  0  0  0  0  0  0  0  0  0  0
   61.6680   33.8410   47.2230 C   0  0  0  0  0  0  0  0  0  0  0  0
   63.3550   33.7660   46.7340 Cl  0  0  0  0  0  0  0  0  0  0  0  0
   60.6870   34.0290   46.2430 C   0  0  0  0  0  0  0  0  0  0  0  0
   60.9817   34.1369   45.1887 H   0  0  0  0  0  0  0  0  0  0  0  0
  1  2  1  0
  2  3  1  0
  3  4  2  0
  3  5  1  0
  5  6  2  0
  6  7  1  0
  7  8  1  0
  7  9  1  0
  7 10  1  0
 10 11  1  0
 10 12  1  0
 10 13  1  0
 13 14  1  0
 13 15  1  0
 13 16  1  0
 16 17  1  0
 16 18  1  0
 16 19  1  0
 19 20  1  6
 19 21  1  0
 21 22  2  0
 21 23  1  0
  2 24  2  3
 24 25  1  0
 24 26  1  0
 26 27  2  0
 27 28  1  0
 27 29  1  0
 29 30  1  0
 29 31  2  0
 31 32  1  0
 31 33  1  0
 33 34  1  0
 33 35  2  0
 35 36  1  0
 19  6  1  0
 35 26  1  0
M  CHG  1  23  -1
M  END
>  <UniqueID>  (35) 
35

>  <SMILES>  (35) 
O=C(C=Cc1ccc(Cl)c(Cl)c1)/N=C1\CCCC[C@H]1C(=O)[O-]

>  <Energy>  (35) 
47.583766596891294

>  <Genealogy>  (35) 
O=C(C=Cc1ccc(Cl)c(Cl)c1)N=C1CCCCC1C(=O)[O-] (protonated)
O=C(C=Cc1ccc(Cl)c(Cl)c1)N=C1CCCC[C@H]1C(=O)[O-] (chirality)
O=C(C=Cc1ccc(Cl)c(Cl)c1)/N=C1\CCCC[C@H]1C(=O)[O-] (cis-trans isomerization)
O=C(C=Cc1ccc(Cl)c(Cl)c1)/N=C1\CCCC[C@H]1C(=O)[O-] (3D coordinates assigned)
O=C(C=Cc1ccc(Cl)c(Cl)c1)/N=C1\CCCC[C@H]1C(=O)[O-] (nonaromatic ring conformer: 47.583766596891294 kcal/mol)

>  <smiles>  (35) 
O=C(C=Cc1ccc(Cl)c(Cl)c1)N=C1CCCCC1C(=O)O

>  <score_type>  (35) 
oracle

>  <origin>  (35) 
adg

>  <m_score__min__energy>  (35) 
-12.18

>  <m_primary>  (35) 
energy

$$$$
35:0
     RDKit          3D

 56 59  0  0  0  0  0  0  0  0999 V2000
   61.2420   33.6170   49.9470 C   0  0  0  0  0  0  0  0  0  0  0  0
   60.1680   32.2210   50.2000 S   0  0  0  0  0  0  0  0  0  0  0  0
   60.8330   31.2880   51.1700 O   0  0  0  0  0  0  0  0  0  0  0  0
   58.8630   32.6870   50.7770 O   0  0  0  0  0  0  0  0  0  0  0  0
   59.8740   31.3960   48.6710 C   0  0  0  0  0  0  0  0  0  0  0  0
   58.8800   30.4120   48.5850 C   0  0  0  0  0  0  0  0  0  0  0  0
   58.6590   29.7430   47.3760 C   0  0  0  0  0  0  0  0  0  0  0  0
   59.4330   30.0430   46.2370 C   0  0  0  0  0  0  0  0  0  0  0  0
   59.1900   29.3200   44.9350 C   0  0  0  0  0  0  0  0  0  0  0  0
   57.8020   28.8330   44.8520 N   0  0  0  0  0  0  0  0  0  0  0  0
   56.7020   29.7180   44.5500 C   0  0  0  0  0  0  0  0  0  0  0  0
   55.5220   29.3630   44.8300 O   0  0  0  0  0  0  0  0  0  0  0  0
   56.9150   31.0750   43.9360 C   0  0  0  0  0  0  0  0  0  0  0  0
   56.6370   32.1140   44.8750 O   0  0  0  0  0  0  0  0  0  0  0  0
   57.5630   33.0610   45.3440 C   0  0  0  0  0  0  0  0  0  0  0  0
   57.6260   33.2950   46.7230 C   0  0  0  0  0  0  0  0  0  0  0  0
   58.5320   34.2260   47.2460 C   0  0  0  0  0  0  0  0  0  0  0  0
   59.3750   34.9380   46.3930 C   0  0  0  0  0  0  0  0  0  0  0  0
   59.3180   34.7150   45.0160 C   0  0  0  0  0  0  0  0  0  0  0  0
   58.4170   33.7810   44.4900 C   0  0  0  0  0  0  0  0  0  0  0  0
   57.5280   27.4390   45.0860 C   0  0  0  0  0  0  0  0  0  0  0  0
   57.7310   26.5900   44.1750 O   0  0  0  0  0  0  0  0  0  0  0  0
   57.0470   27.0080   46.3650 N   0  0  0  0  0  0  0  0  0  0  0  0
   57.6680   25.9370   47.1330 C   0  0  0  0  0  0  0  0  0  0  0  0
   56.8460   24.6910   47.0160 C   0  0  0  0  0  0  0  0  0  0  0  0
   57.3240   23.5090   47.5230 N   0  0  0  0  0  0  0  0  0  0  0  0
   56.5730   22.3700   47.4980 C   0  0  0  0  0  0  0  0  0  0  0  0
   57.0320   21.2920   47.9630 O   0  0  0  0  0  0  0  0  0  0  0  0
   55.2990   22.4370   46.9490 C   0  0  0  0  0  0  0  0  0  0  0  0
   54.1360   21.2400   46.7550 S   0  0  0  0  0  0  0  0  0  0  0  0
   52.9950   22.2650   46.0310 C   0  0  0  0  0  0  0  0  0  0  0  0
   53.5250   23.5540   45.9350 C   0  0  0  0  0  0  0  0  0  0  0  0
   54.8210   23.6310   46.4530 C   0  0  0  0  0  0  0  0  0  0  0  0
   55.5850   24.7530   46.4910 N   0  0  0  0  0  0  0  0  0  0  0  0
   60.4380   31.0200   46.3340 C   0  0  0  0  0  0  0  0  0  0  0  0
   60.6510   31.6950   47.5400 C   0  0  0  0  0  0  0  0  0  0  0  0
   61.5532   34.0215   50.9214 H   0  0  0  0  0  0  0  0  0  0  0  0
   62.1302   33.2986   49.3816 H   0  0  0  0  0  0  0  0  0  0  0  0
   60.7065   34.3939   49.3816 H   0  0  0  0  0  0  0  0  0  0  0  0
   58.2730   30.1653   49.4686 H   0  0  0  0  0  0  0  0  0  0  0  0
   57.8735   28.9754   47.3140 H   0  0  0  0  0  0  0  0  0  0  0  0
   59.3795   30.0101   44.0996 H   0  0  0  0  0  0  0  0  0  0  0  0
   59.8682   28.4555   44.8826 H   0  0  0  0  0  0  0  0  0  0  0  0
   57.9609   31.1597   43.6058 H   0  0  0  0  0  0  0  0  0  0  0  0
   56.2298   31.1834   43.0823 H   0  0  0  0  0  0  0  0  0  0  0  0
   56.9585   32.7431   47.4011 H   0  0  0  0  0  0  0  0  0  0  0  0
   58.5789   34.3961   48.3318 H   0  0  0  0  0  0  0  0  0  0  0  0
   60.0827   35.6731   46.8040 H   0  0  0  0  0  0  0  0  0  0  0  0
   59.9831   35.2749   44.3420 H   0  0  0  0  0  0  0  0  0  0  0  0
   58.3772   33.6098   43.4041 H   0  0  0  0  0  0  0  0  0  0  0  0
   58.6789   25.7462   46.7435 H   0  0  0  0  0  0  0  0  0  0  0  0
   57.7300   26.2350   48.1901 H   0  0  0  0  0  0  0  0  0  0  0  0
   51.9939   21.9621   45.6902 H   0  0  0  0  0  0  0  0  0  0  0  0
   52.9851   24.4091   45.5021 H   0  0  0  0  0  0  0  0  0  0  0  0
   61.0599   31.2549   45.4576 H   0  0  0  0  0  0  0  0  0  0  0  0
   61.4330   32.4660   47.6033 H   0  0  0  0  0  0  0  0  0  0  0  0
  1  2  1  0
  2  3  2  0
  2  4  2  0
  2  5  1  0
  5  6  2  0
  6  7  1  0
  7  8  2  0
  8  9  1  0
  9 10  1  0
 10 11  1  0
 11 12  2  0
 11 13  1  0
 13 14  1  0
 14 15  1  0
 15 16  2  0
 16 17  1  0
 17 18  2  0
 18 19  1  0
 19 20  2  0
 10 21  1  0
 21 22  2  0
 21 23  1  0
 23 24  1  0
 24 25  1  0
 25 26  2  0
 26 27  1  0
 27 28  2  0
 27 29  1  0
 29 30  1  0
 30 31  1  0
 31 32  2  0
 32 33  1  0
 33 34  1  0
  8 35  1  0
 35 36  2  0
 36  5  1  0
 20 15  1  0
 34 25  1  0
 33 29  2  0
  1 37  1  0
  1 38  1  0
  1 39  1  0
  6 40  1  0
  7 41  1  0
  9 42  1  0
  9 43  1  0
 13 44  1  0
 13 45  1  0
 16 46  1  0
 17 47  1  0
 18 48  1  0
 19 49  1  0
 20 50  1  0
 24 51  1  0
 24 52  1  0
 31 53  1  0
 32 54  1  0
 35 55  1  0
 36 56  1  0
M  CHG  2  23  -1  34  -1
M  END
>  <UniqueID>  (36) 
36

>  <SMILES>  (36) 
CS(=O)(=O)c1ccc(CN(C(=O)COc2ccccc2)C(=O)[N-]Cc2nc(=O)c3sccc3[n-]2)cc1

>  <Energy>  (36) 
88.51602808211373

>  <Genealogy>  (36) 
CS(=O)(=O)c1ccc(CN(C(=O)COc2ccccc2)C(=O)[N-]Cc2nc(=O)c3sccc3[n-]2)cc1 (protonated)
CS(=O)(=O)c1ccc(CN(C(=O)COc2ccccc2)C(=O)[N-]Cc2nc(=O)c3sccc3[n-]2)cc1 (3D coordinates assigned)
CS(=O)(=O)c1ccc(CN(C(=O)COc2ccccc2)C(=O)[N-]Cc2nc(=O)c3sccc3[n-]2)cc1 (optimized conformer: 88.51602808211373 kcal/mol)

>  <smiles>  (36) 
CS(=O)(=O)c1ccc(CN(C(=O)COc2ccccc2)C(=O)NCc2nc(=O)c3sccc3[nH]2)cc1

>  <score_type>  (36) 
oracle

>  <origin>  (36) 
adg

>  <m_score__min__energy>  (36) 
-12.050000000000001

>  <m_primary>  (36) 
energy

$$$$
36:0
     RDKit          3D

 72 76  0  0  0  0  0  0  0  0999 V2000
   61.8650   27.0030   52.0800 C   0  0  0  0  0  0  0  0  0  0  0  0
   61.7630   28.2110   51.1970 C   0  0  0  0  0  0  0  0  0  0  0  0
   62.6600   29.2770   51.3730 C   0  0  0  0  0  0  0  0  0  0  0  0
   62.5320   30.4380   50.6060 C   0  0  0  0  0  0  0  0  0  0  0  0
   61.5030   30.5490   49.6700 C   0  0  0  0  0  0  0  0  0  0  0  0
   60.6030   29.4880   49.4720 C   0  0  0  0  0  0  0  0  0  0  0  0
   59.5250   29.6460   48.5370 N   0  0  0  0  0  0  0  0  0  0  0  0
   59.7030   29.6690   47.1050 C   0  0  0  0  0  0  0  0  0  0  0  0
   60.8450   29.9190   46.6140 O   0  0  0  0  0  0  0  0  0  0  0  0
   58.5080   29.6580   46.2090 C   0  0  0  0  0  0  0  0  0  0  0  0
   58.8970   28.2260   46.1080 C   0  0  0  0  0  0  0  0  0  0  0  0
   57.9740   27.1680   46.1750 C   0  0  0  0  0  0  0  0  0  0  0  0
   58.3630   25.8460   46.4280 C   0  0  0  0  0  0  0  0  0  0  0  0
   57.4030   24.8330   46.4750 C   0  0  0  0  0  0  0  0  0  0  0  0
   56.0470   25.1310   46.2550 C   0  0  0  0  0  0  0  0  0  0  0  0
   55.0550   24.0950   46.2670 N   0  0  0  0  0  0  0  0  0  0  0  0
   54.7070   23.3150   45.1120 C   0  0  0  0  0  0  0  0  0  0  0  0
   53.5400   23.3890   44.6450 O   0  0  0  0  0  0  0  0  0  0  0  0
   55.7080   22.4560   44.4570 C   0  0  0  0  0  0  0  0  0  0  0  0
   55.8730   22.5350   43.2080 O   0  0  0  0  0  0  0  0  0  0  0  0
   56.4960   21.5370   45.2240 N   0  0  0  0  0  0  0  0  0  0  0  0
   55.9650   20.8050   46.3400 C   0  0  0  0  0  0  0  0  0  0  0  0
   54.5930   20.8710   46.6410 C   0  0  0  0  0  0  0  0  0  0  0  0
   54.0670   20.1910   47.7410 C   0  0  0  0  0  0  0  0  0  0  0  0
   52.3440   20.3070   48.1100 S   0  0  0  0  0  0  0  0  0  0  0  0
   51.5600   20.2360   46.8280 O   0  0  0  0  0  0  0  0  0  0  0  0
   51.9440   19.1390   48.9700 O   0  0  0  0  0  0  0  0  0  0  0  0
   51.9530   21.7890   48.9520 N   0  0  0  0  0  0  0  0  0  0  0  0
   53.1690   22.5330   49.3730 C   0  0  0  0  0  0  0  0  0  0  0  0
   53.4260   22.4730   50.8880 C   0  0  0  0  0  0  0  0  0  0  0  0
   52.2220   23.0090   51.6790 C   0  0  0  0  0  0  0  0  0  0  0  0
   50.8770   22.7090   50.9930 C   0  0  0  0  0  0  0  0  0  0  0  0
   50.9830   21.5190   50.0350 C   0  0  0  0  0  0  0  0  0  0  0  0
   54.9140   19.4180   48.5410 C   0  0  0  0  0  0  0  0  0  0  0  0
   56.2720   19.3150   48.2320 C   0  0  0  0  0  0  0  0  0  0  0  0
   56.8070   19.9910   47.1220 C   0  0  0  0  0  0  0  0  0  0  0  0
   58.2750   19.8890   46.8160 C   0  0  0  0  0  0  0  0  0  0  0  0
   55.6670   26.4500   45.9890 C   0  0  0  0  0  0  0  0  0  0  0  0
   56.6400   27.4640   45.9180 C   0  0  0  0  0  0  0  0  0  0  0  0
   56.3700   28.6970   45.4270 N   0  0  0  0  0  0  0  0  0  0  0  0
   55.1480   28.9600   44.8490 O   0  0  0  0  0  0  0  0  0  0  0  0
   57.3610   29.6380   45.3570 C   0  0  0  0  0  0  0  0  0  0  0  0
   57.1820   30.6480   44.6210 O   0  0  0  0  0  0  0  0  0  0  0  0
   60.7290   28.3220   50.2460 C   0  0  0  0  0  0  0  0  0  0  0  0
   61.8386   27.3161   53.1342 H   0  0  0  0  0  0  0  0  0  0  0  0
   61.0207   26.3279   51.8767 H   0  0  0  0  0  0  0  0  0  0  0  0
   62.8106   26.4790   51.8767 H   0  0  0  0  0  0  0  0  0  0  0  0
   63.4662   29.1978   52.1172 H   0  0  0  0  0  0  0  0  0  0  0  0
   63.2437   31.2659   50.7403 H   0  0  0  0  0  0  0  0  0  0  0  0
   61.3956   31.4732   49.0832 H   0  0  0  0  0  0  0  0  0  0  0  0
   58.5670   29.8320   48.9090 H   0  0  0  0  0  0  0  0  0  0  0  0
   59.9613   27.9825   45.9740 H   0  0  0  0  0  0  0  0  0  0  0  0
   59.4243   25.6061   46.5896 H   0  0  0  0  0  0  0  0  0  0  0  0
   57.7092   23.7976   46.6850 H   0  0  0  0  0  0  0  0  0  0  0  0
   53.9252   21.4664   46.0011 H   0  0  0  0  0  0  0  0  0  0  0  0
   54.0384   22.1028   48.8543 H   0  0  0  0  0  0  0  0  0  0  0  0
   53.0107   23.5897   49.1114 H   0  0  0  0  0  0  0  0  0  0  0  0
   53.6101   21.4284   51.1794 H   0  0  0  0  0  0  0  0  0  0  0  0
   54.3000   23.1002   51.1176 H   0  0  0  0  0  0  0  0  0  0  0  0
   52.2202   22.5428   52.6753 H   0  0  0  0  0  0  0  0  0  0  0  0
   52.3261   24.1023   51.7406 H   0  0  0  0  0  0  0  0  0  0  0  0
   50.1267   22.4801   51.7642 H   0  0  0  0  0  0  0  0  0  0  0  0
   50.5847   23.5943   50.4092 H   0  0  0  0  0  0  0  0  0  0  0  0
   51.3115   20.6331   50.5983 H   0  0  0  0  0  0  0  0  0  0  0  0
   49.9951   21.3468   49.5828 H   0  0  0  0  0  0  0  0  0  0  0  0
   54.5094   18.8893   49.4166 H   0  0  0  0  0  0  0  0  0  0  0  0
   56.9292   18.6989   48.8634 H   0  0  0  0  0  0  0  0  0  0  0  0
   58.8438   19.8495   47.7567 H   0  0  0  0  0  0  0  0  0  0  0  0
   58.4656   18.9754   46.2337 H   0  0  0  0  0  0  0  0  0  0  0  0
   58.5901   20.7674   46.2337 H   0  0  0  0  0  0  0  0  0  0  0  0
   54.6058   26.6954   45.8350 H   0  0  0  0  0  0  0  0  0  0  0  0
   60.0185   27.4935   50.1092 H   0  0  0  0  0  0  0  0  0  0  0  0
  1  2  1  0
  2  3  2  0
  3  4  1  0
  4  5  2  0
  5  6  1  0
  6  7  1  0
  7  8  1  0
  8  9  2  0
  8 10  1  0
 10 11  2  0
 11 12  1  0
 12 13  2  0
 13 14  1  0
 14 15  2  0
 15 16  1  0
 16 17  1  0
 17 18  2  0
 17 19  1  0
 19 20  2  0
 19 21  1  0
 21 22  1  0
 22 23  2  0
 23 24  1  0
 24 25  1  0
 25 26  2  0
 25 27  2  0
 25 28  1  0
 28 29  1  0
 29 30  1  0
 30 31  1  0
 31 32  1  0
 32 33  1  0
 24 34  2  0
 34 35  1  0
 35 36  2  0
 36 37  1  0
 15 38  1  0
 38 39  2  0
 39 40  1  0
 40 41  1  0
 40 42  1  0
 42 43  2  0
  6 44  2  0
 44  2  1  0
 42 10  1  0
 39 12  1  0
 36 22  1  0
 33 28  1  0
  1 45  1  0
  1 46  1  0
  1 47  1  0
  3 48  1  0
  4 49  1  0
  5 50  1  0
  7 51  1  0
 11 52  1  0
 13 53  1  0
 14 54  1  0
 23 55  1  0
 29 56  1  0
 29 57  1  0
 30 58  1  0
 30 59  1  0
 31 60  1  0
 31 61  1  0
 32 62  1  0
 32 63  1  0
 33 64  1  0
 33 65  1  0
 34 66  1  0
 35 67  1  0
 37 68  1  0
 37 69  1  0
 37 70  1  0
 38 71  1  0
 44 72  1  0
M  CHG  3  16  -1  21  -1  41  -1
M  END
>  <UniqueID>  (37) 
37

>  <SMILES>  (37) 
Cc1cccc(NC(=O)c2cc3ccc([N-]C(=O)C(=O)[N-]c4cc(S(=O)(=O)N5CCCCC5)ccc4C)cc3n([O-])c2=O)c1

>  <Energy>  (37) 
248.5658097347388

>  <Genealogy>  (37) 
Cc1cccc(NC(=O)c2cc3ccc([N-]C(=O)C(=O)[N-]c4cc(S(=O)(=O)N5CCCCC5)ccc4C)cc3n([O-])c2=O)c1 (protonated)
Cc1cccc(NC(=O)c2cc3ccc([N-]C(=O)C(=O)[N-]c4cc(S(=O)(=O)N5CCCCC5)ccc4C)cc3n([O-])c2=O)c1 (3D coordinates assigned)
Cc1cccc(NC(=O)c2cc3ccc([N-]C(=O)C(=O)[N-]c4cc(S(=O)(=O)N5CCCCC5)ccc4C)cc3n([O-])c2=O)c1 (nonaromatic ring conformer: 248.5658097347388 kcal/mol)

>  <smiles>  (37) 
Cc1cccc(NC(=O)c2cc3ccc(NC(=O)C(=O)Nc4cc(S(=O)(=O)N5CCCCC5)ccc4C)cc3n(O)c2=O)c1

>  <score_type>  (37) 
oracle

>  <origin>  (37) 
adg

>  <m_score__min__energy>  (37) 
-14.81

>  <m_primary>  (37) 
energy

$$$$
37:0
     RDKit          3D

 56 58  0  0  0  0  0  0  0  0999 V2000
   61.4222   31.0986   45.5382 H   0  0  0  0  0  0  0  0  0  0  0  0
   60.8890   30.6690   46.3990 C   0  0  0  0  0  0  0  0  0  0  0  0
   59.8690   29.7930   46.1950 N   0  0  0  0  0  0  0  0  0  0  0  0
   59.1720   29.2370   47.2220 C   0  0  0  0  0  0  0  0  0  0  0  0
   58.2250   28.3900   46.9390 N   0  0  0  0  0  0  0  0  0  0  0  0
   57.3350   28.4130   45.8120 C   0  0  0  0  0  0  0  0  0  0  0  0
   56.6550   29.4520   45.6010 O   0  0  0  0  0  0  0  0  0  0  0  0
   57.3880   27.3300   44.7620 C   0  0  0  0  0  0  0  0  0  0  0  0
   56.6584   27.5640   43.9727 H   0  0  0  0  0  0  0  0  0  0  0  0
   58.4111   27.2958   44.3593 H   0  0  0  0  0  0  0  0  0  0  0  0
   57.0660   25.9710   45.3370 C   0  0  0  0  0  0  0  0  0  0  0  0
   58.0300   24.9460   45.3070 C   0  0  0  0  0  0  0  0  0  0  0  0
   59.0099   25.1313   44.8428 H   0  0  0  0  0  0  0  0  0  0  0  0
   57.7510   23.6940   45.8630 C   0  0  0  0  0  0  0  0  0  0  0  0
   58.5093   22.8977   45.8317 H   0  0  0  0  0  0  0  0  0  0  0  0
   56.5110   23.4530   46.4580 C   0  0  0  0  0  0  0  0  0  0  0  0
   56.2948   22.4683   46.8980 H   0  0  0  0  0  0  0  0  0  0  0  0
   55.5450   24.4610   46.4950 C   0  0  0  0  0  0  0  0  0  0  0  0
   54.5673   24.2664   46.9600 H   0  0  0  0  0  0  0  0  0  0  0  0
   55.8170   25.7190   45.9420 C   0  0  0  0  0  0  0  0  0  0  0  0
   54.8420   26.7090   45.9970 O   0  0  0  0  0  0  0  0  0  0  0  0
   59.4810   29.6170   48.5420 C   0  0  0  0  0  0  0  0  0  0  0  0
   58.8957   29.2191   49.3841 H   0  0  0  0  0  0  0  0  0  0  0  0
   60.5350   30.5020   48.7750 C   0  0  0  0  0  0  0  0  0  0  0  0
   60.7934   30.7877   49.8053 H   0  0  0  0  0  0  0  0  0  0  0  0
   61.2640   31.0270   47.7020 C   0  0  0  0  0  0  0  0  0  0  0  0
   62.4160   31.9670   47.9470 C   0  0  0  0  0  0  0  0  0  0  0  0
   63.1652   31.8227   47.1546 H   0  0  0  0  0  0  0  0  0  0  0  0
   62.8322   31.7384   48.9392 H   0  0  0  0  0  0  0  0  0  0  0  0
   61.9760   33.4390   47.9490 C   0  0  0  0  0  0  0  0  0  0  0  0
   61.5997   33.6986   46.9485 H   0  0  0  0  0  0  0  0  0  0  0  0
   62.8475   34.0539   48.2180 H   0  0  0  0  0  0  0  0  0  0  0  0
   60.8900   33.7020   48.9610 C   0  0  0  0  0  0  0  0  0  0  0  0
   61.0070   33.2080   50.1130 O   0  0  0  0  0  0  0  0  0  0  0  0
   59.7300   34.4970   48.6730 N   0  0  0  0  0  0  0  0  0  0  0  0
   59.0450   34.6270   47.3870 C   0  0  1  0  0  0  0  0  0  0  0  0
   58.1301   35.2215   47.5266 H   0  0  0  0  0  0  0  0  0  0  0  0
   59.9440   35.3340   46.3690 C   0  0  0  0  0  0  0  0  0  0  0  0
   60.0901   36.3795   46.6781 H   0  0  0  0  0  0  0  0  0  0  0  0
   60.9130   34.8153   46.3259 H   0  0  0  0  0  0  0  0  0  0  0  0
   59.3000   35.3030   44.9810 C   0  0  0  0  0  0  0  0  0  0  0  0
   58.3493   35.8551   45.0185 H   0  0  0  0  0  0  0  0  0  0  0  0
   60.0018   35.7653   44.2712 H   0  0  0  0  0  0  0  0  0  0  0  0
   59.0430   33.9780   44.5420 O   0  0  0  0  0  0  0  0  0  0  0  0
   58.1640   33.2600   45.4050 C   0  0  0  0  0  0  0  0  0  0  0  0
   56.7200   33.8170   45.3420 C   0  0  0  0  0  0  0  0  0  0  0  0
   56.3388   33.9640   46.3633 H   0  0  0  0  0  0  0  0  0  0  0  0
   56.7211   34.7792   44.8090 H   0  0  0  0  0  0  0  0  0  0  0  0
   56.0746   33.1033   44.8090 H   0  0  0  0  0  0  0  0  0  0  0  0
   58.1220   31.8130   44.8830 C   0  0  0  0  0  0  0  0  0  0  0  0
   58.1018   31.1166   45.7342 H   0  0  0  0  0  0  0  0  0  0  0  0
   57.2193   31.6701   44.2708 H   0  0  0  0  0  0  0  0  0  0  0  0
   59.0149   31.6180   44.2708 H   0  0  0  0  0  0  0  0  0  0  0  0
   58.7010   33.2270   46.8640 C   0  0  0  0  0  0  0  0  0  0  0  0
   57.9319   32.7850   47.5145 H   0  0  0  0  0  0  0  0  0  0  0  0
   59.6237   32.6282   46.8705 H   0  0  0  0  0  0  0  0  0  0  0  0
  1  2  1  0
  2  3  1  0
  3  4  1  0
  4  5  2  0
  5  6  1  0
  6  7  2  0
  6  8  1  0
  8  9  1  0
  8 10  1  0
  8 11  1  0
 11 12  2  0
 12 13  1  0
 12 14  1  0
 14 15  1  0
 14 16  2  0
 16 17  1  0
 16 18  1  0
 18 19  1  0
 18 20  2  0
 20 21  1  0
  4 22  1  0
 22 23  1  0
 22 24  2  0
 24 25  1  0
 24 26  1  0
 26 27  1  0
 27 28  1  0
 27 29  1  0
 27 30  1  0
 30 31  1  0
 30 32  1  0
 30 33  1  0
 33 34  2  0
 33 35  1  0
 35 36  1  0
 36 37  1  1
 36 38  1  0
 38 39  1  0
 38 40  1  0
 38 41  1  0
 41 42  1  0
 41 43  1  0
 41 44  1  0
 44 45  1  0
 45 46  1  0
 46 47  1  0
 46 48  1  0
 46 49  1  0
 45 50  1  0
 50 51  1  0
 50 52  1  0
 50 53  1  0
 45 54  1  0
 54 55  1  0
 54 56  1  0
 26  2  2  0
 54 36  1  0
 20 11  1  0
M  CHG  3   3  -1  21  -1  35  -1
M  END
>  <UniqueID>  (38) 
38

>  <SMILES>  (38) 
CC1(C)C[C@@H]([N-]C(=O)CCc2cc/c(=N\C(=O)Cc3ccccc3[O-])[n-]c2)CCO1

>  <Energy>  (38) 
65.44488374086612

>  <Genealogy>  (38) 
CC1(C)CC([N-]C(=O)CCc2ccc(=NC(=O)Cc3ccccc3[O-])[n-]c2)CCO1 (protonated)
CC1(C)C[C@@H]([N-]C(=O)CCc2ccc(=NC(=O)Cc3ccccc3[O-])[n-]c2)CCO1 (chirality)
CC1(C)C[C@@H]([N-]C(=O)CCc2cc/c(=N\C(=O)Cc3ccccc3[O-])[n-]c2)CCO1 (cis-trans isomerization)
CC1(C)C[C@@H]([N-]C(=O)CCc2cc/c(=N\C(=O)Cc3ccccc3[O-])[n-]c2)CCO1 (3D coordinates assigned)
CC1(C)C[C@@H]([N-]C(=O)CCc2cc/c(=N\C(=O)Cc3ccccc3[O-])[n-]c2)CCO1 (nonaromatic ring conformer: 65.44488374086612 kcal/mol)

>  <smiles>  (38) 
CC1(C)CC(NC(=O)CCc2ccc(=NC(=O)Cc3ccccc3O)[nH]c2)CCO1

>  <score_type>  (38) 
oracle

>  <origin>  (38) 
adg

>  <m_score__min__energy>  (38) 
-15.01

>  <m_primary>  (38) 
energy

$$$$
38:0
     RDKit          3D

 55 58  0  0  0  0  0  0  0  0999 V2000
   59.7790   28.7280   44.4510 O   0  0  0  0  0  0  0  0  0  0  0  0
   58.5420   28.5510   44.5850 C   0  0  0  0  0  0  0  0  0  0  0  0
   57.9910   27.1480   44.5580 C   0  0  0  0  0  0  0  0  0  0  0  0
   57.8340   26.6150   45.9860 C   0  0  0  0  0  0  0  0  0  0  0  0
   56.9290   25.4650   46.0080 N   0  0  0  0  0  0  0  0  0  0  0  0
   55.5810   25.4900   46.0110 C   0  0  0  0  0  0  0  0  0  0  0  0
   54.8220   26.6530   45.9700 O   0  0  0  0  0  0  0  0  0  0  0  0
   55.0740   24.2060   46.0400 C   0  0  0  0  0  0  0  0  0  0  0  0
   56.1540   23.3620   46.0630 C   0  0  0  0  0  0  0  0  0  0  0  0
   57.2800   24.1620   46.0430 C   0  0  0  0  0  0  0  0  0  0  0  0
   58.5940   23.7050   46.0420 O   0  0  0  0  0  0  0  0  0  0  0  0
   56.0500   21.8720   45.9870 C   0  0  0  0  0  0  0  0  0  0  0  0
   54.6160   21.4060   46.1420 C   0  0  0  0  0  0  0  0  0  0  0  0
   53.5520   22.2360   46.1240 C   0  0  0  0  0  0  0  0  0  0  0  0
   53.6550   23.7430   45.9890 C   0  0  0  0  0  0  0  0  0  0  0  0
   57.7120   29.6720   44.9080 N   0  0  0  0  0  0  0  0  0  0  0  0
   58.1680   30.8400   45.5980 C   0  0  0  0  0  0  0  0  0  0  0  0
   58.5930   30.7630   46.9340 C   0  0  0  0  0  0  0  0  0  0  0  0
   59.0740   31.9010   47.5840 C   0  0  0  0  0  0  0  0  0  0  0  0
   59.1500   33.1250   46.9030 C   0  0  0  0  0  0  0  0  0  0  0  0
   59.9050   34.5230   47.6730 S   0  0  0  0  0  0  0  0  0  0  0  0
   59.3280   34.7040   49.0480 O   0  0  0  0  0  0  0  0  0  0  0  0
   59.6000   35.7550   46.8700 O   0  0  0  0  0  0  0  0  0  0  0  0
   61.6430   34.3320   47.7790 N   0  0  0  0  0  0  0  0  0  0  0  0
   62.1610   33.4230   46.7290 C   0  0  0  0  0  0  0  0  0  0  0  0
   62.3680   31.9830   47.2220 C   0  0  0  0  0  0  0  0  0  0  0  0
   63.2680   31.9030   48.4720 C   0  0  0  0  0  0  0  0  0  0  0  0
   63.3960   33.2530   49.1970 C   0  0  0  0  0  0  0  0  0  0  0  0
   62.0560   33.9980   49.1610 C   0  0  0  0  0  0  0  0  0  0  0  0
   58.6780   33.2110   45.5830 C   0  0  0  0  0  0  0  0  0  0  0  0
   58.1750   32.0760   44.9400 C   0  0  0  0  0  0  0  0  0  0  0  0
   57.0094   27.1524   44.0616 H   0  0  0  0  0  0  0  0  0  0  0  0
   58.6871   26.4989   44.0065 H   0  0  0  0  0  0  0  0  0  0  0  0
   58.8188   26.3079   46.3679 H   0  0  0  0  0  0  0  0  0  0  0  0
   57.4131   27.4107   46.6181 H   0  0  0  0  0  0  0  0  0  0  0  0
   56.4313   21.5365   45.0112 H   0  0  0  0  0  0  0  0  0  0  0  0
   56.6428   21.4426   46.8081 H   0  0  0  0  0  0  0  0  0  0  0  0
   54.4321   20.3299   46.2768 H   0  0  0  0  0  0  0  0  0  0  0  0
   52.5493   21.7925   46.2126 H   0  0  0  0  0  0  0  0  0  0  0  0
   53.2155   24.0457   45.0271 H   0  0  0  0  0  0  0  0  0  0  0  0
   53.1143   24.2006   46.8306 H   0  0  0  0  0  0  0  0  0  0  0  0
   58.5468   29.8035   47.4699 H   0  0  0  0  0  0  0  0  0  0  0  0
   59.3947   31.8376   48.6343 H   0  0  0  0  0  0  0  0  0  0  0  0
   61.4434   33.4072   45.8954 H   0  0  0  0  0  0  0  0  0  0  0  0
   63.1446   33.8071   46.4209 H   0  0  0  0  0  0  0  0  0  0  0  0
   61.3866   31.5509   47.4673 H   0  0  0  0  0  0  0  0  0  0  0  0
   62.8692   31.4260   46.4167 H   0  0  0  0  0  0  0  0  0  0  0  0
   62.8382   31.1684   49.1689 H   0  0  0  0  0  0  0  0  0  0  0  0
   64.2739   31.6072   48.1394 H   0  0  0  0  0  0  0  0  0  0  0  0
   63.6874   33.0782   50.2432 H   0  0  0  0  0  0  0  0  0  0  0  0
   64.1609   33.8620   48.6929 H   0  0  0  0  0  0  0  0  0  0  0  0
   61.2838   33.3619   49.6183 H   0  0  0  0  0  0  0  0  0  0  0  0
   62.1764   34.9399   49.7162 H   0  0  0  0  0  0  0  0  0  0  0  0
   58.7042   34.1747   45.0532 H   0  0  0  0  0  0  0  0  0  0  0  0
   57.7839   32.1541   43.9149 H   0  0  0  0  0  0  0  0  0  0  0  0
  1  2  2  0
  2  3  1  0
  3  4  1  0
  4  5  1  0
  5  6  1  0
  6  7  1  0
  6  8  2  0
  8  9  1  0
  9 10  2  0
 10 11  1  0
  9 12  1  0
 12 13  1  0
 13 14  2  0
 14 15  1  0
  2 16  1  0
 16 17  1  0
 17 18  2  0
 18 19  1  0
 19 20  2  0
 20 21  1  0
 21 22  2  0
 21 23  2  0
 21 24  1  0
 24 25  1  0
 25 26  1  0
 26 27  1  0
 27 28  1  0
 28 29  1  0
 20 30  1  0
 30 31  2  0
 10  5  1  0
 31 17  1  0
 15  8  1  0
 29 24  1  0
  3 32  1  0
  3 33  1  0
  4 34  1  0
  4 35  1  0
 12 36  1  0
 12 37  1  0
 13 38  1  0
 14 39  1  0
 15 40  1  0
 15 41  1  0
 18 42  1  0
 19 43  1  0
 25 44  1  0
 25 45  1  0
 26 46  1  0
 26 47  1  0
 27 48  1  0
 27 49  1  0
 28 50  1  0
 28 51  1  0
 29 52  1  0
 29 53  1  0
 30 54  1  0
 31 55  1  0
M  CHG  3   7  -1  11  -1  16  -1
M  END
>  <UniqueID>  (39) 
39

>  <SMILES>  (39) 
O=C(CCn1c([O-])c2c(c1[O-])CC=CC2)[N-]c1ccc(S(=O)(=O)N2CCCCC2)cc1

>  <Energy>  (39) 
95.31096660200458

>  <Genealogy>  (39) 
O=C(CCn1c([O-])c2c(c1[O-])CC=CC2)[N-]c1ccc(S(=O)(=O)N2CCCCC2)cc1 (protonated)
O=C(CCn1c([O-])c2c(c1[O-])CC=CC2)[N-]c1ccc(S(=O)(=O)N2CCCCC2)cc1 (3D coordinates assigned)
O=C(CCn1c([O-])c2c(c1[O-])CC=CC2)[N-]c1ccc(S(=O)(=O)N2CCCCC2)cc1 (nonaromatic ring conformer: 95.31096660200458 kcal/mol)

>  <smiles>  (39) 
O=C(CCn1c(O)c2c(c1O)CC=CC2)Nc1ccc(S(=O)(=O)N2CCCCC2)cc1

>  <score_type>  (39) 
oracle

>  <origin>  (39) 
adg

>  <m_score__min__energy>  (39) 
-16.390000000000001

>  <m_primary>  (39) 
energy

$$$$
39:0
     RDKit          3D

 46 48  0  0  0  0  0  0  0  0999 V2000
   55.6460   31.5070   45.2260 H   0  0  0  0  0  0  0  0  0  0  0  0
   56.3230   32.2120   44.9560 O   0  0  0  0  0  0  0  0  0  0  0  0
   57.6030   32.2720   45.5110 C   0  0  0  0  0  0  0  0  0  0  0  0
   58.3170   33.4720   45.4460 C   0  0  0  0  0  0  0  0  0  0  0  0
   57.8704   34.3508   44.9580 H   0  0  0  0  0  0  0  0  0  0  0  0
   59.5950   33.5570   45.9990 C   0  0  0  0  0  0  0  0  0  0  0  0
   60.1606   34.4992   45.9501 H   0  0  0  0  0  0  0  0  0  0  0  0
   60.1470   32.4350   46.6140 C   0  0  0  0  0  0  0  0  0  0  0  0
   61.1533   32.4888   47.0550 H   0  0  0  0  0  0  0  0  0  0  0  0
   59.4420   31.2740   46.6690 N   0  0  0  0  0  0  0  0  0  0  0  0
   58.1940   31.1540   46.1350 C   0  0  0  0  0  0  0  0  0  0  0  0
   57.5310   30.0320   46.2030 N   0  0  0  0  0  0  0  0  0  0  0  0
   56.7910   29.3450   45.1770 C   0  0  0  0  0  0  0  0  0  0  0  0
   55.6530   29.7940   44.8700 O   0  0  0  0  0  0  0  0  0  0  0  0
   57.3110   28.1160   44.4720 C   0  0  0  0  0  0  0  0  0  0  0  0
   56.6125   27.8415   43.6678 H   0  0  0  0  0  0  0  0  0  0  0  0
   58.3055   28.3453   44.0616 H   0  0  0  0  0  0  0  0  0  0  0  0
   57.4410   26.9880   45.3970 N   0  0  0  0  0  0  0  0  0  0  0  0
   56.4650   26.3870   46.0960 C   0  0  0  0  0  0  0  0  0  0  0  0
   55.1150   26.7110   46.0070 O   0  0  0  0  0  0  0  0  0  0  0  0
   57.0240   25.4290   46.9130 C   0  0  0  0  0  0  0  0  0  0  0  0
   56.2960   24.5280   47.8630 C   0  0  0  0  0  0  0  0  0  0  0  0
   56.8246   24.5127   48.8276 H   0  0  0  0  0  0  0  0  0  0  0  0
   55.2721   24.9045   48.0037 H   0  0  0  0  0  0  0  0  0  0  0  0
   56.2360   23.1410   47.3100 C   0  0  0  0  0  0  0  0  0  0  0  0
   55.1560   22.4930   47.3620 O   0  0  0  0  0  0  0  0  0  0  0  0
   57.3940   22.5800   46.6800 N   0  0  0  0  0  0  0  0  0  0  0  0
   57.5070   22.3360   45.2420 C   0  0  1  0  0  0  0  0  0  0  0  0
   58.5267   22.5793   44.9088 H   0  0  0  0  0  0  0  0  0  0  0  0
   57.2330   20.8380   44.9480 C   0  0  0  0  0  0  0  0  0  0  0  0
   56.6793   20.4091   45.7962 H   0  0  0  0  0  0  0  0  0  0  0  0
   58.2061   20.3456   44.8046 H   0  0  0  0  0  0  0  0  0  0  0  0
   56.4460   20.6310   43.7190 N   0  0  0  0  0  0  0  0  0  0  0  0
   56.5680   19.6340   43.4180 H   0  0  0  0  0  0  0  0  0  0  0  0
   56.9180   21.4980   42.6350 C   0  0  0  0  0  0  0  0  0  0  0  0
   56.4075   21.2201   41.7011 H   0  0  0  0  0  0  0  0  0  0  0  0
   58.0051   21.3706   42.5260 H   0  0  0  0  0  0  0  0  0  0  0  0
   56.6200   22.9740   42.9550 C   0  0  0  0  0  0  0  0  0  0  0  0
   55.6612   23.2495   42.4916 H   0  0  0  0  0  0  0  0  0  0  0  0
   57.4483   23.5779   42.5560 H   0  0  0  0  0  0  0  0  0  0  0  0
   56.5320   23.2390   44.4680 C   0  0  0  0  0  0  0  0  0  0  0  0
   55.5061   23.0372   44.8097 H   0  0  0  0  0  0  0  0  0  0  0  0
   56.8009   24.2888   44.6567 H   0  0  0  0  0  0  0  0  0  0  0  0
   58.3660   25.4260   46.7490 N   0  0  0  0  0  0  0  0  0  0  0  0
   58.5740   26.3900   45.8250 C   0  0  0  0  0  0  0  0  0  0  0  0
   59.7220   26.7040   45.4140 O   0  0  0  0  0  0  0  0  0  0  0  0
  1  2  1  0
  2  3  1  0
  3  4  2  0
  4  5  1  0
  4  6  1  0
  6  7  1  0
  6  8  2  0
  8  9  1  0
  8 10  1  0
 10 11  1  0
 11 12  2  0
 12 13  1  0
 13 14  2  0
 13 15  1  0
 15 16  1  0
 15 17  1  0
 15 18  1  0
 18 19  1  0
 19 20  1  0
 19 21  2  0
 21 22  1  0
 22 23  1  0
 22 24  1  0
 22 25  1  0
 25 26  2  0
 25 27  1  0
 27 28  1  0
 28 29  1  6
 28 30  1  0
 30 31  1  0
 30 32  1  0
 30 33  1  0
 33 34  1  0
 33 35  1  0
 35 36  1  0
 35 37  1  0
 35 38  1  0
 38 39  1  0
 38 40  1  0
 38 41  1  0
 41 42  1  0
 41 43  1  0
 21 44  1  0
 44 45  1  0
 45 46  2  0
 11  3  1  0
 45 18  1  0
 41 28  1  0
M  CHG  4  10  -1  20  -1  27  -1  44  -1
M  END
>  <UniqueID>  (40) 
40

>  <SMILES>  (40) 
O=C(Cn1c([O-])c(CC(=O)[N-][C@@H]2CCCNC2)[n-]c1=O)/N=c1\[n-]cccc1O

>  <Energy>  (40) 
84.6947954212581

>  <Genealogy>  (40) 
O=C(Cn1c([O-])c(CC(=O)[N-]C2CCCNC2)[n-]c1=O)N=c1[n-]cccc1O (protonated)
O=C(Cn1c([O-])c(CC(=O)[N-][C@@H]2CCCNC2)[n-]c1=O)N=c1[n-]cccc1O (chirality)
O=C(Cn1c([O-])c(CC(=O)[N-][C@@H]2CCCNC2)[n-]c1=O)/N=c1\[n-]cccc1O (cis-trans isomerization)
O=C(Cn1c([O-])c(CC(=O)[N-][C@@H]2CCCNC2)[n-]c1=O)/N=c1\[n-]cccc1O (3D coordinates assigned)
O=C(Cn1c([O-])c(CC(=O)[N-][C@@H]2CCCNC2)[n-]c1=O)/N=c1\[n-]cccc1O (nonaromatic ring conformer: 84.6947954212581 kcal/mol)

>  <smiles>  (40) 
O=C(Cn1c(O)c(CC(=O)NC2CCCNC2)[nH]c1=O)N=c1[nH]cccc1O

>  <score_type>  (40) 
oracle

>  <origin>  (40) 
adg

>  <m_score__min__energy>  (40) 
-16.32

>  <m_primary>  (40) 
energy

$$$$
40:0
     RDKit          3D

 46 48  0  0  0  0  0  0  0  0999 V2000
   55.6558   30.0150   55.5359 H   0  0  0  0  0  0  0  0  0  0  0  0
   54.8650   30.2000   54.7940 C   0  0  0  0  0  0  0  0  0  0  0  0
   53.8086   30.1809   55.0999 H   0  0  0  0  0  0  0  0  0  0  0  0
   55.1890   30.4490   53.5160 C   0  0  0  0  0  0  0  0  0  0  0  0
   54.3270   30.7060   52.4380 C   0  0  0  0  0  0  0  0  0  0  0  0
   53.0010   30.9340   52.4180 C   0  0  0  0  0  0  0  0  0  0  0  0
   52.5048   31.0807   53.3887 H   0  0  0  0  0  0  0  0  0  0  0  0
   52.1550   31.0050   51.2190 C   0  0  0  0  0  0  0  0  0  0  0  0
   52.2330   30.1300   50.2010 N   0  0  0  0  0  0  0  0  0  0  0  0
   51.3870   30.6450   49.2810 C   0  0  0  0  0  0  0  0  0  0  0  0
   51.1720   30.0900   48.1730 O   0  0  0  0  0  0  0  0  0  0  0  0
   50.7990   31.8070   49.6390 N   0  0  0  0  0  0  0  0  0  0  0  0
   51.3080   32.0290   50.8610 C   0  0  0  0  0  0  0  0  0  0  0  0
   51.0240   33.1570   51.6210 O   0  0  0  0  0  0  0  0  0  0  0  0
   55.0460   30.7080   51.2940 N   0  0  0  0  0  0  0  0  0  0  0  0
   56.3140   30.5000   51.6920 C   0  0  0  0  0  0  0  0  0  0  0  0
   57.2790   30.4390   50.8830 O   0  0  0  0  0  0  0  0  0  0  0  0
   56.4480   30.3540   53.0260 N   0  0  0  0  0  0  0  0  0  0  0  0
   57.6850   30.0090   53.7410 C   0  0  0  0  0  0  0  0  0  0  0  0
   57.4551   29.8399   54.8033 H   0  0  0  0  0  0  0  0  0  0  0  0
   58.1120   29.0970   53.2984 H   0  0  0  0  0  0  0  0  0  0  0  0
   58.6870   31.1280   53.6210 C   0  0  0  0  0  0  0  0  0  0  0  0
   59.1320   31.6270   54.6450 O   0  0  0  0  0  0  0  0  0  0  0  0
   59.1530   31.5700   52.3150 N   0  0  2  0  0  0  0  0  0  0  0  0
   58.3690   31.3780   51.6490 H   0  0  0  0  0  0  0  0  0  0  0  0
   60.2630   30.7340   51.7880 C   0  0  0  0  0  0  0  0  0  0  0  0
   61.0974   30.7845   52.5030 H   0  0  0  0  0  0  0  0  0  0  0  0
   59.8533   29.7205   51.6658 H   0  0  0  0  0  0  0  0  0  0  0  0
   60.7840   31.1460   50.4290 C   0  0  0  0  0  0  0  0  0  0  0  0
   62.1560   31.3770   50.2320 C   0  0  0  0  0  0  0  0  0  0  0  0
   62.8552   31.2708   51.0745 H   0  0  0  0  0  0  0  0  0  0  0  0
   62.6370   31.7410   48.9710 C   0  0  0  0  0  0  0  0  0  0  0  0
   63.7101   31.9355   48.8276 H   0  0  0  0  0  0  0  0  0  0  0  0
   61.7570   31.8580   47.8930 C   0  0  0  0  0  0  0  0  0  0  0  0
   62.1365   32.1495   46.9026 H   0  0  0  0  0  0  0  0  0  0  0  0
   60.3950   31.6050   48.0720 C   0  0  0  0  0  0  0  0  0  0  0  0
   59.7039   31.6916   47.2206 H   0  0  0  0  0  0  0  0  0  0  0  0
   59.9090   31.2420   49.3310 C   0  0  0  0  0  0  0  0  0  0  0  0
   58.8378   31.0304   49.4643 H   0  0  0  0  0  0  0  0  0  0  0  0
   59.3700   33.0390   52.1950 C   0  0  0  0  0  0  0  0  0  0  0  0
   60.1202   33.3310   52.9447 H   0  0  0  0  0  0  0  0  0  0  0  0
   59.6844   33.2089   51.1547 H   0  0  0  0  0  0  0  0  0  0  0  0
   58.1280   33.9220   52.4030 C   0  0  0  0  0  0  0  0  0  0  0  0
   57.9462   34.0512   53.4802 H   0  0  0  0  0  0  0  0  0  0  0  0
   58.2952   34.9051   51.9388 H   0  0  0  0  0  0  0  0  0  0  0  0
   57.2543   33.4411   51.9388 H   0  0  0  0  0  0  0  0  0  0  0  0
  1  2  1  0
  2  3  1  0
  2  4  2  0
  4  5  1  0
  5  6  2  0
  6  7  1  0
  6  8  1  0
  8  9  1  0
  9 10  1  0
 10 11  2  0
 10 12  1  0
 12 13  1  0
 13 14  1  0
  5 15  1  0
 15 16  1  0
 16 17  2  0
 16 18  1  0
 18 19  1  0
 19 20  1  0
 19 21  1  0
 19 22  1  0
 22 23  2  0
 22 24  1  0
 24 25  1  6
 24 26  1  0
 26 27  1  0
 26 28  1  0
 26 29  1  0
 29 30  2  0
 30 31  1  0
 30 32  1  0
 32 33  1  0
 32 34  2  0
 34 35  1  0
 34 36  1  0
 36 37  1  0
 36 38  2  0
 38 39  1  0
 24 40  1  0
 40 41  1  0
 40 42  1  0
 40 43  1  0
 43 44  1  0
 43 45  1  0
 43 46  1  0
 18  4  1  0
 38 29  1  0
 13  8  2  0
M  CHG  5   9  -1  12  -1  14  -1  15  -1  24   1
M  END
>  <UniqueID>  (41) 
41

>  <SMILES>  (41) 
C=c1/c(=C\c2[n-]c(=O)[n-]c2[O-])[n-]c(=O)n1CC(=O)[N@@H+](CC)Cc1ccccc1

>  <Energy>  (41) 
129.08469085569982

>  <Genealogy>  (41) 
C=c1c(=Cc2[n-]c(=O)[n-]c2[O-])[n-]c(=O)n1CC(=O)[NH+](CC)Cc1ccccc1 (protonated)
C=c1c(=Cc2[n-]c(=O)[n-]c2[O-])[n-]c(=O)n1CC(=O)[N@@H+](CC)Cc1ccccc1 (chirality)
C=c1/c(=C\c2[n-]c(=O)[n-]c2[O-])[n-]c(=O)n1CC(=O)[N@@H+](CC)Cc1ccccc1 (cis-trans isomerization)
C=c1/c(=C\c2[n-]c(=O)[n-]c2[O-])[n-]c(=O)n1CC(=O)[N@@H+](CC)Cc1ccccc1 (3D coordinates assigned)
C=c1/c(=C\c2[n-]c(=O)[n-]c2[O-])[n-]c(=O)n1CC(=O)[N@@H+](CC)Cc1ccccc1 (optimized conformer: 129.08469085569982 kcal/mol)

>  <smiles>  (41) 
C=c1c(=Cc2[nH]c(=O)[nH]c2O)[nH]c(=O)n1CC(=O)N(CC)Cc1ccccc1

>  <score_type>  (41) 
oracle

>  <origin>  (41) 
adg

>  <m_score__min__energy>  (41) 
-15.789999999999999

>  <m_primary>  (41) 
energy

$$$$
41:0
     RDKit          3D

 33 35  0  0  0  0  0  0  0  0999 V2000
   61.6835   28.8182   44.8548 H   0  0  0  0  0  0  0  0  0  0  0  0
   60.8930   28.7840   45.6190 C   0  0  0  0  0  0  0  0  0  0  0  0
   60.3680   27.5830   45.9060 C   0  0  0  0  0  0  0  0  0  0  0  0
   61.0689   26.7678   46.1387 H   0  0  0  0  0  0  0  0  0  0  0  0
   58.9240   27.2660   45.9350 C   0  0  0  0  0  0  0  0  0  0  0  0
   58.0180   28.1390   45.3150 C   0  0  0  0  0  0  0  0  0  0  0  0
   58.3886   29.0424   44.8085 H   0  0  0  0  0  0  0  0  0  0  0  0
   56.6480   27.8680   45.3370 C   0  0  0  0  0  0  0  0  0  0  0  0
   55.9462   28.5510   44.8360 H   0  0  0  0  0  0  0  0  0  0  0  0
   56.1650   26.7310   45.9940 C   0  0  0  0  0  0  0  0  0  0  0  0
   54.7990   26.4720   46.0000 O   0  0  0  0  0  0  0  0  0  0  0  0
   57.0600   25.8670   46.6440 C   0  0  0  0  0  0  0  0  0  0  0  0
   56.5780   24.6970   47.3330 C   0  0  0  0  0  0  0  0  0  0  0  0
   56.1910   23.7580   47.8870 N   0  0  0  0  0  0  0  0  0  0  0  0
   58.4330   26.1430   46.6250 C   0  0  0  0  0  0  0  0  0  0  0  0
   59.1317   25.4774   47.1530 H   0  0  0  0  0  0  0  0  0  0  0  0
   60.4990   30.0660   46.2430 C   0  0  0  0  0  0  0  0  0  0  0  0
   61.2130   30.6160   47.3030 C   0  0  0  0  0  0  0  0  0  0  0  0
   62.1227   30.1933   47.7545 H   0  0  0  0  0  0  0  0  0  0  0  0
   60.4490   32.0360   47.7760 S   0  0  0  0  0  0  0  0  0  0  0  0
   59.1830   31.9510   46.6720 C   0  0  0  0  0  0  0  0  0  0  0  0
   58.1230   32.9660   46.5210 C   0  0  0  0  0  0  0  0  0  0  0  0
   58.2330   34.0610   47.1330 O   0  0  0  0  0  0  0  0  0  0  0  0
   57.0020   32.7760   45.6440 N   0  0  0  0  0  0  0  0  0  0  0  0
   56.9860   32.0010   44.6010 C   0  0  0  0  0  0  0  0  0  0  0  0
   56.2520   30.8700   44.5160 N   0  0  0  0  0  0  0  0  0  0  0  0
   56.5150   30.4150   43.2800 C   0  0  0  0  0  0  0  0  0  0  0  0
   56.1003   29.4968   42.8384 H   0  0  0  0  0  0  0  0  0  0  0  0
   57.3840   31.2770   42.6530 C   0  0  0  0  0  0  0  0  0  0  0  0
   57.7724   31.1565   41.6309 H   0  0  0  0  0  0  0  0  0  0  0  0
   57.6850   32.2910   43.4850 N   0  0  0  0  0  0  0  0  0  0  0  0
   59.3520   30.8060   45.9000 C   0  0  0  0  0  0  0  0  0  0  0  0
   58.6577   30.5084   45.1004 H   0  0  0  0  0  0  0  0  0  0  0  0
  1  2  1  0
  2  3  2  0
  3  4  1  0
  3  5  1  0
  5  6  2  0
  6  7  1  0
  6  8  1  0
  8  9  1  0
  8 10  2  0
 10 11  1  0
 10 12  1  0
 12 13  1  0
 13 14  3  0
 12 15  2  0
 15 16  1  0
  2 17  1  0
 17 18  2  0
 18 19  1  0
 18 20  1  0
 20 21  1  0
 21 22  1  0
 22 23  2  0
 22 24  1  0
 24 25  2  3
 25 26  1  0
 26 27  1  0
 27 28  1  0
 27 29  2  0
 29 30  1  0
 29 31  1  0
 21 32  2  0
 32 33  1  0
 15  5  1  0
 32 17  1  0
 31 25  1  0
M  CHG  3  11  -1  26  -1  31  -1
M  END
>  <UniqueID>  (42) 
42

>  <SMILES>  (42) 
N#Cc1cc(/C=C\c2csc(C(=O)N=c3[n-]cc[n-]3)c2)ccc1[O-]

>  <Energy>  (42) 
102.47069770047308

>  <Genealogy>  (42) 
N#Cc1cc(C=Cc2csc(C(=O)N=c3[n-]cc[n-]3)c2)ccc1[O-] (protonated)
N#Cc1cc(/C=C\c2csc(C(=O)N=c3[n-]cc[n-]3)c2)ccc1[O-] (cis-trans isomerization)
N#Cc1cc(/C=C\c2csc(C(=O)N=c3[n-]cc[n-]3)c2)ccc1[O-] (3D coordinates assigned)
N#Cc1cc(/C=C\c2csc(C(=O)N=c3[n-]cc[n-]3)c2)ccc1[O-] (optimized conformer: 102.47069770047308 kcal/mol)

>  <smiles>  (42) 
N#Cc1cc(C=Cc2csc(C(=O)N=c3[nH]cc[nH]3)c2)ccc1O

>  <score_type>  (42) 
oracle

>  <origin>  (42) 
adg

>  <m_score__min__energy>  (42) 
-12.81

>  <m_primary>  (42) 
energy

$$$$
42:0
     RDKit          3D

 38 40  0  0  0  0  0  0  0  0999 V2000
   59.2870   35.1080   45.8250 O   0  0  0  0  0  0  0  0  0  0  0  0
   58.7290   33.9750   45.8380 C   0  0  0  0  0  0  0  0  0  0  0  0
   57.5040   33.8210   45.0320 C   0  0  0  0  0  0  0  0  0  0  0  0
   57.7720   32.5940   43.7290 S   0  0  0  0  0  0  0  0  0  0  0  0
   57.8710   30.9890   44.5480 C   0  0  0  0  0  0  0  0  0  0  0  0
   59.0570   30.6970   45.0870 N   0  0  0  0  0  0  0  0  0  0  0  0
   59.3170   29.5450   45.6970 C   0  0  0  0  0  0  0  0  0  0  0  0
   60.4660   29.4070   46.1560 O   0  0  0  0  0  0  0  0  0  0  0  0
   58.3440   28.6070   45.7880 C   0  0  0  0  0  0  0  0  0  0  0  0
   58.6030   27.4170   46.4140 C   0  0  0  0  0  0  0  0  0  0  0  0
   59.8250   26.9760   46.9860 C   0  0  0  0  0  0  0  0  0  0  0  0
   60.6110   26.0690   46.6190 O   0  0  0  0  0  0  0  0  0  0  0  0
   60.2900   27.6190   48.1700 O   0  0  0  0  0  0  0  0  0  0  0  0
   57.5140   26.5270   46.4510 C   0  0  0  0  0  0  0  0  0  0  0  0
   56.2980   26.8430   45.8960 C   0  0  0  0  0  0  0  0  0  0  0  0
   55.3520   26.0160   45.9510 O   0  0  0  0  0  0  0  0  0  0  0  0
   56.0770   28.0110   45.2860 N   0  0  0  0  0  0  0  0  0  0  0  0
   57.1030   28.9160   45.2230 C   0  0  0  0  0  0  0  0  0  0  0  0
   56.8900   30.1160   44.6090 N   0  0  0  0  0  0  0  0  0  0  0  0
   59.2930   32.9340   46.6110 N   0  0  0  0  0  0  0  0  0  0  0  0
   60.4710   33.2320   47.3490 C   0  0  0  0  0  0  0  0  0  0  0  0
   61.6550   32.7160   46.8530 C   0  0  0  0  0  0  0  0  0  0  0  0
   62.8610   32.9320   47.4820 C   0  0  0  0  0  0  0  0  0  0  0  0
   62.8700   33.6820   48.6300 C   0  0  0  0  0  0  0  0  0  0  0  0
   64.0700   33.8860   49.2290 F   0  0  0  0  0  0  0  0  0  0  0  0
   61.7020   34.2140   49.1550 C   0  0  0  0  0  0  0  0  0  0  0  0
   60.4990   33.9800   48.5000 C   0  0  0  0  0  0  0  0  0  0  0  0
   56.6800   33.4894   45.6810 H   0  0  0  0  0  0  0  0  0  0  0  0
   57.2501   34.7874   44.5719 H   0  0  0  0  0  0  0  0  0  0  0  0
   60.7670   28.5300   48.1030 H   0  0  0  0  0  0  0  0  0  0  0  0
   57.6401   25.5492   46.9388 H   0  0  0  0  0  0  0  0  0  0  0  0
   55.1440   28.1990   44.8890 H   0  0  0  0  0  0  0  0  0  0  0  0
   55.9650   30.3560   44.1850 H   0  0  0  0  0  0  0  0  0  0  0  0
   58.8540   31.9920   46.6290 H   0  0  0  0  0  0  0  0  0  0  0  0
   61.6325   32.1167   45.9309 H   0  0  0  0  0  0  0  0  0  0  0  0
   63.7930   32.5137   47.0740 H   0  0  0  0  0  0  0  0  0  0  0  0
   61.7274   34.8130   50.0773 H   0  0  0  0  0  0  0  0  0  0  0  0
   59.5649   34.3959   48.9055 H   0  0  0  0  0  0  0  0  0  0  0  0
  1  2  2  0
  2  3  1  0
  3  4  1  0
  4  5  1  0
  5  6  2  0
  6  7  1  0
  7  8  2  0
  7  9  1  0
  9 10  1  0
 10 11  1  0
 11 12  2  0
 11 13  1  0
 10 14  2  0
 14 15  1  0
 15 16  2  0
 15 17  1  0
 17 18  1  0
 18 19  1  0
  2 20  1  0
 20 21  1  0
 21 22  2  0
 22 23  1  0
 23 24  2  0
 24 25  1  0
 24 26  1  0
 26 27  2  0
 19  5  1  0
 27 21  1  0
 18  9  2  0
  3 28  1  0
  3 29  1  0
 13 30  1  0
 14 31  1  0
 17 32  1  0
 19 33  1  0
 20 34  1  0
 22 35  1  0
 23 36  1  0
 26 37  1  0
 27 38  1  0
M  END
>  <smiles>  (43) 
O=C(CSc1nc(=O)c2c(C(=O)O)cc(=O)[nH]c2[nH]1)Nc1ccc(F)cc1

>  <score_type>  (43) 
oracle

>  <origin>  (43) 
adg

>  <m_score__min__energy>  (43) 
-9.0500000000000007

>  <m_primary>  (43) 
energy

$$$$
43:0
     RDKit          3D

 39 42  0  0  0  0  0  0  0  0999 V2000
   54.2940   24.4500   47.1330 H   0  0  0  0  0  0  0  0  0  0  0  0
   55.2540   24.1270   47.1010 O   0  0  0  0  0  0  0  0  0  0  0  0
   56.3060   24.9710   46.7510 C   0  0  0  0  0  0  0  0  0  0  0  0
   57.6220   24.5390   46.9480 C   0  0  0  0  0  0  0  0  0  0  0  0
   57.8121   23.5438   47.3763 H   0  0  0  0  0  0  0  0  0  0  0  0
   58.6970   25.3640   46.6040 C   0  0  0  0  0  0  0  0  0  0  0  0
   59.7277   25.0202   46.7759 H   0  0  0  0  0  0  0  0  0  0  0  0
   58.4670   26.6320   46.0390 C   0  0  0  0  0  0  0  0  0  0  0  0
   59.5760   27.5460   45.6800 C   0  0  0  0  0  0  0  0  0  0  0  0
   60.3130   27.1985   44.9410 H   0  0  0  0  0  0  0  0  0  0  0  0
   59.7360   28.7690   46.2000 C   0  0  0  0  0  0  0  0  0  0  0  0
   60.8180   29.1910   47.0240 N   0  0  0  0  0  0  0  0  0  0  0  0
   60.6540   30.4610   47.2540 C   0  0  0  0  0  0  0  0  0  0  0  0
   61.5550   31.2000   48.1580 C   0  0  0  0  0  0  0  0  0  0  0  0
   63.0330   31.8900   47.7430 S   0  0  0  0  0  0  0  0  0  0  0  0
   63.3560   32.5690   49.2460 C   0  0  0  0  0  0  0  0  0  0  0  0
   64.2522   33.1483   49.5131 H   0  0  0  0  0  0  0  0  0  0  0  0
   62.2950   32.2720   50.0930 C   0  0  0  0  0  0  0  0  0  0  0  0
   62.2518   32.6014   51.1416 H   0  0  0  0  0  0  0  0  0  0  0  0
   61.2860   31.5140   49.4860 C   0  0  0  0  0  0  0  0  0  0  0  0
   60.3708   31.1980   50.0081 H   0  0  0  0  0  0  0  0  0  0  0  0
   59.4810   31.0310   46.6380 N   0  0  0  0  0  0  0  0  0  0  0  0
   59.2810   32.3990   46.2500 C   0  0  0  0  0  0  0  0  0  0  0  0
   60.3290   33.3300   46.3310 C   0  0  0  0  0  0  0  0  0  0  0  0
   61.3142   33.0149   46.7053 H   0  0  0  0  0  0  0  0  0  0  0  0
   60.1250   34.6550   45.9380 C   0  0  0  0  0  0  0  0  0  0  0  0
   60.9468   35.3826   46.0112 H   0  0  0  0  0  0  0  0  0  0  0  0
   58.8780   35.0570   45.4520 C   0  0  0  0  0  0  0  0  0  0  0  0
   58.7177   36.1015   45.1464 H   0  0  0  0  0  0  0  0  0  0  0  0
   57.8340   34.1320   45.3540 C   0  0  0  0  0  0  0  0  0  0  0  0
   56.5950   34.5310   44.8660 O   0  0  0  0  0  0  0  0  0  0  0  0
   58.0350   32.8050   45.7490 C   0  0  0  0  0  0  0  0  0  0  0  0
   57.2137   32.0779   45.6665 H   0  0  0  0  0  0  0  0  0  0  0  0
   58.9100   29.9270   45.9540 C   0  0  0  0  0  0  0  0  0  0  0  0
   57.8930   29.9850   45.2120 O   0  0  0  0  0  0  0  0  0  0  0  0
   57.1450   27.0720   45.8650 C   0  0  0  0  0  0  0  0  0  0  0  0
   56.9534   28.0742   45.4541 H   0  0  0  0  0  0  0  0  0  0  0  0
   56.0690   26.2460   46.2100 C   0  0  0  0  0  0  0  0  0  0  0  0
   54.7690   26.6970   46.0150 O   0  0  0  0  0  0  0  0  0  0  0  0
  1  2  1  0
  2  3  1  0
  3  4  2  0
  4  5  1  0
  4  6  1  0
  6  7  1  0
  6  8  2  0
  8  9  1  0
  9 10  1  0
  9 11  2  0
 11 12  1  0
 12 13  2  0
 13 14  1  0
 14 15  1  0
 15 16  1  0
 16 17  1  0
 16 18  2  0
 18 19  1  0
 18 20  1  0
 20 21  1  0
 13 22  1  0
 22 23  1  0
 23 24  2  0
 24 25  1  0
 24 26  1  0
 26 27  1  0
 26 28  2  0
 28 29  1  0
 28 30  1  0
 30 31  1  0
 30 32  2  0
 32 33  1  0
 22 34  1  0
 34 35  2  0
  8 36  1  0
 36 37  1  0
 36 38  2  0
 38 39  1  0
 38  3  1  0
 34 11  1  0
 20 14  2  0
 32 23  1  0
M  CHG  2  31  -1  39  -1
M  END
>  <UniqueID>  (44) 
43

>  <SMILES>  (44) 
O=C1/C(=C/c2ccc(O)c([O-])c2)N=C(c2cccs2)N1c1cccc([O-])c1

>  <Energy>  (44) 
109.37025014342608

>  <Genealogy>  (44) 
O=C1C(=Cc2ccc(O)c([O-])c2)N=C(c2cccs2)N1c1cccc([O-])c1 (protonated)
O=C1/C(=C/c2ccc(O)c([O-])c2)N=C(c2cccs2)N1c1cccc([O-])c1 (cis-trans isomerization)
O=C1/C(=C/c2ccc(O)c([O-])c2)N=C(c2cccs2)N1c1cccc([O-])c1 (3D coordinates assigned)
O=C1/C(=C/c2ccc(O)c([O-])c2)N=C(c2cccs2)N1c1cccc([O-])c1 (nonaromatic ring conformer: 109.37025014342608 kcal/mol)

>  <smiles>  (44) 
O=C1C(=Cc2ccc(O)c(O)c2)N=C(c2cccs2)N1c1cccc(O)c1

>  <score_type>  (44) 
oracle

>  <origin>  (44) 
adg

>  <m_score__min__energy>  (44) 
-13.140000000000001

>  <m_primary>  (44) 
energy

$$$$
44:0
     RDKit          3D

 56 59  0  0  1  0  0  0  0  0999 V2000
   66.6080   32.6390   50.1150 C   0  0  0  0  0  0  0  0  0  0  0  0
   65.1860   33.0830   49.9800 C   0  0  0  0  0  0  0  0  0  0  0  0
   64.3290   33.5630   50.9330 C   0  0  0  0  0  0  0  0  0  0  0  0
   63.1030   33.8490   50.3350 C   0  0  0  0  0  0  0  0  0  0  0  0
   63.2560   33.5260   49.0020 C   0  0  0  0  0  0  0  0  0  0  0  0
   62.2250   33.6550   47.9500 C   0  0  0  0  0  0  0  0  0  0  0  0
   62.5200   33.2330   46.8110 O   0  0  0  0  0  0  0  0  0  0  0  0
   60.9760   34.2430   48.2880 N   0  0  0  0  0  0  0  0  0  0  0  0
   60.0010   34.0770   47.4590 C   0  0  0  0  0  0  0  0  0  0  0  0
   59.5100   32.8860   46.9240 C   0  0  0  0  0  0  0  0  0  0  0  0
   58.4750   33.2610   46.1050 C   0  0  0  0  0  0  0  0  0  0  0  0
   57.6110   32.3810   45.2850 C   0  0  0  0  0  0  0  0  0  0  0  0
   56.3690   32.5810   45.2520 O   0  0  0  0  0  0  0  0  0  0  0  0
   58.1810   31.3250   44.5470 N   0  0  0  0  0  0  0  0  0  0  0  0
   57.4820   30.3980   43.7190 C   0  0  0  0  0  0  0  0  0  0  0  0
   57.6200   28.9790   44.1310 C   0  0  0  0  0  0  0  0  0  0  0  0
   57.4950   28.7020   45.4780 C   0  0  0  0  0  0  0  0  0  0  0  0
   57.6020   27.4420   45.9960 C   0  0  0  0  0  0  0  0  0  0  0  0
   57.8510   26.3860   45.1200 C   0  0  0  0  0  0  0  0  0  0  0  0
   57.9620   25.0420   45.7300 C   0  0  0  0  0  0  0  0  0  0  0  0
   56.9650   24.1050   45.2520 N   0  0  0  0  0  0  0  0  0  0  0  0
   57.3430   22.8450   44.6270 C   0  0  0  0  0  0  0  0  0  0  0  0
   56.3750   22.4050   43.6210 C   0  0  0  0  0  0  0  0  0  0  0  0
   56.6230   21.3140   43.0150 O   0  0  0  0  0  0  0  0  0  0  0  0
   55.2060   23.1590   43.3280 N   0  0  0  0  0  0  0  0  0  0  0  0
   54.6080   23.9480   44.3630 C   0  0  0  0  0  0  0  0  0  0  0  0
   55.5910   24.3990   45.3890 C   0  0  0  0  0  0  0  0  0  0  0  0
   55.1560   25.0430   46.3660 O   0  0  0  0  0  0  0  0  0  0  0  0
   57.9750   26.6600   43.7870 C   0  0  0  0  0  0  0  0  0  0  0  0
   57.8660   27.9470   43.2560 C   0  0  0  0  0  0  0  0  0  0  0  0
   58.3730   34.6010   46.1630 N   0  0  0  0  0  0  0  0  0  0  0  0
   59.2850   35.1050   46.9750 N   0  0  0  0  0  0  0  0  0  0  0  0
   64.5240   33.0640   48.8020 N   0  0  0  0  0  0  0  0  0  0  0  0
   66.8672   32.5581   51.1810 H   0  0  0  0  0  0  0  0  0  0  0  0
   66.7336   31.6589   49.6317 H   0  0  0  0  0  0  0  0  0  0  0  0
   67.2689   33.3735   49.6317 H   0  0  0  0  0  0  0  0  0  0  0  0
   64.5688   33.7007   51.9977 H   0  0  0  0  0  0  0  0  0  0  0  0
   62.2020   34.2486   50.8233 H   0  0  0  0  0  0  0  0  0  0  0  0
   59.8741   31.8661   47.1171 H   0  0  0  0  0  0  0  0  0  0  0  0
   59.2380   31.2230   44.6240 H   0  0  0  0  0  0  0  0  0  0  0  0
   56.4135   30.6587   43.7375 H   0  0  0  0  0  0  0  0  0  0  0  0
   57.9269   30.4772   42.7161 H   0  0  0  0  0  0  0  0  0  0  0  0
   57.2998   29.5363   46.1677 H   0  0  0  0  0  0  0  0  0  0  0  0
   57.4945   27.2653   47.0764 H   0  0  0  0  0  0  0  0  0  0  0  0
   58.9586   24.6369   45.5005 H   0  0  0  0  0  0  0  0  0  0  0  0
   57.7993   25.1634   46.8111 H   0  0  0  0  0  0  0  0  0  0  0  0
   58.3224   22.9716   44.1424 H   0  0  0  0  0  0  0  0  0  0  0  0
   57.3774   22.0784   45.4151 H   0  0  0  0  0  0  0  0  0  0  0  0
   54.8110   23.1200   42.3640 H   0  0  0  0  0  0  0  0  0  0  0  0
   54.1459   24.8353   43.9055 H   0  0  0  0  0  0  0  0  0  0  0  0
   53.8651   23.3166   44.8723 H   0  0  0  0  0  0  0  0  0  0  0  0
   58.1704   25.8252   43.0979 H   0  0  0  0  0  0  0  0  0  0  0  0
   57.9731   28.1288   42.1764 H   0  0  0  0  0  0  0  0  0  0  0  0
   57.6860   35.2280   45.6630 H   0  0  0  0  0  0  0  0  0  0  0  0
   59.4280   36.1160   47.2010 H   0  0  0  0  0  0  0  0  0  0  0  0
   64.8920   32.7550   47.8770 H   0  0  0  0  0  0  0  0  0  0  0  0
  1  2  1  0
  2  3  2  0
  3  4  1  0
  4  5  2  0
  5  6  1  0
  6  7  2  0
  6  8  1  0
  8  9  2  0
  9 10  1  0
 10 11  2  0
 11 12  1  0
 12 13  2  0
 12 14  1  0
 14 15  1  0
 15 16  1  0
 16 17  2  0
 17 18  1  0
 18 19  2  0
 19 20  1  0
 20 21  1  0
 21 22  1  0
 22 23  1  0
 23 24  2  0
 23 25  1  0
 25 26  1  0
 26 27  1  0
 27 28  2  0
 19 29  1  0
 29 30  2  0
 11 31  1  0
 31 32  1  0
  5 33  1  0
 33  2  1  0
 32  9  1  0
 30 16  1  0
 27 21  1  0
  1 34  1  0
  1 35  1  0
  1 36  1  0
  3 37  1  0
  4 38  1  0
 10 39  1  0
 14 40  1  0
 15 41  1  0
 15 42  1  0
 17 43  1  0
 18 44  1  0
 20 45  1  0
 20 46  1  0
 22 47  1  0
 22 48  1  0
 25 49  1  0
 26 50  1  0
 26 51  1  0
 29 52  1  0
 30 53  1  0
 31 54  1  0
 32 55  1  0
 33 56  1  0
M  END
>  <smiles>  (45) 
Cc1ccc(C(=O)N=c2cc(C(=O)NCc3ccc(CN4CC(=O)NCC4=O)cc3)[nH][nH]2)[nH]1

>  <score_type>  (45) 
oracle

>  <origin>  (45) 
adg

>  <m_score__min__energy>  (45) 
-9.5600000000000005

>  <m_primary>  (45) 
energy

$$$$
45:0
     RDKit          3D

 35 37  0  0  0  0  0  0  0  0999 V2000
   64.7960   33.3013   46.7669 H   0  0  0  0  0  0  0  0  0  0  0  0
   63.7510   33.2460   47.1060 C   0  0  0  0  0  0  0  0  0  0  0  0
   63.4240   32.4920   48.2320 C   0  0  0  0  0  0  0  0  0  0  0  0
   64.2128   31.9674   48.7911 H   0  0  0  0  0  0  0  0  0  0  0  0
   62.0940   32.4030   48.6500 C   0  0  0  0  0  0  0  0  0  0  0  0
   61.8438   31.8099   49.5420 H   0  0  0  0  0  0  0  0  0  0  0  0
   61.0690   33.0630   47.9440 C   0  0  0  0  0  0  0  0  0  0  0  0
   59.6310   32.8310   48.3830 C   0  0  0  0  0  0  0  0  0  0  0  0
   59.0271   33.7063   48.1015 H   0  0  0  0  0  0  0  0  0  0  0  0
   59.6259   32.6813   49.4728 H   0  0  0  0  0  0  0  0  0  0  0  0
   59.0420   31.6060   47.7400 C   0  0  0  0  0  0  0  0  0  0  0  0
   58.2880   31.7380   46.6100 N   0  0  0  0  0  0  0  0  0  0  0  0
   57.7750   30.6610   45.9580 C   0  0  0  0  0  0  0  0  0  0  0  0
   57.0980   30.8240   44.9090 O   0  0  0  0  0  0  0  0  0  0  0  0
   58.0150   29.3780   46.4650 C   0  0  0  0  0  0  0  0  0  0  0  0
   57.5210   28.2190   45.7870 N   0  0  0  0  0  0  0  0  0  0  0  0
   56.9980   27.2530   46.4420 N   0  0  0  0  0  0  0  0  0  0  0  0
   56.7450   25.9600   45.8640 C   0  0  0  0  0  0  0  0  0  0  0  0
   55.4070   25.5120   45.6220 C   0  0  0  0  0  0  0  0  0  0  0  0
   54.3500   26.3280   45.9950 O   0  0  0  0  0  0  0  0  0  0  0  0
   55.0930   24.3140   45.0350 N   0  0  0  0  0  0  0  0  0  0  0  0
   55.9820   23.3910   44.5950 C   0  0  0  0  0  0  0  0  0  0  0  0
   55.5890   22.3170   44.0710 O   0  0  0  0  0  0  0  0  0  0  0  0
   57.6220   23.7200   44.7410 S   0  0  0  0  0  0  0  0  0  0  0  0
   57.8620   25.2140   45.4660 C   0  0  0  0  0  0  0  0  0  0  0  0
   59.0330   25.6370   45.6580 O   0  0  0  0  0  0  0  0  0  0  0  0
   58.7730   29.2380   47.5870 N   0  0  0  0  0  0  0  0  0  0  0  0
   59.2900   30.3140   48.2370 C   0  0  0  0  0  0  0  0  0  0  0  0
   60.0630   30.1160   49.3720 O   0  0  0  0  0  0  0  0  0  0  0  0
   61.4120   33.8600   46.8170 C   0  0  0  0  0  0  0  0  0  0  0  0
   60.4270   34.5900   46.0730 N   0  0  0  0  0  0  0  0  0  0  0  0
   59.8610   35.5700   46.5950 O   0  0  0  0  0  0  0  0  0  0  0  0
   59.9170   34.0750   44.9080 O   0  0  0  0  0  0  0  0  0  0  0  0
   62.7550   33.9310   46.4080 C   0  0  0  0  0  0  0  0  0  0  0  0
   63.0241   34.5333   45.5278 H   0  0  0  0  0  0  0  0  0  0  0  0
  1  2  1  0
  2  3  2  0
  3  4  1  0
  3  5  1  0
  5  6  1  0
  5  7  2  0
  7  8  1  0
  8  9  1  0
  8 10  1  0
  8 11  1  0
 11 12  1  0
 12 13  1  0
 13 14  2  0
 13 15  1  0
 15 16  1  0
 16 17  2  0
 17 18  1  0
 18 19  2  0
 19 20  1  0
 19 21  1  0
 21 22  1  0
 22 23  2  0
 22 24  1  0
 24 25  1  0
 25 26  2  0
 15 27  2  0
 27 28  1  0
 28 29  1  0
  7 30  1  0
 30 31  1  0
 31 32  2  0
 31 33  1  0
 30 34  2  0
 34 35  1  0
 34  2  1  0
 28 11  2  0
 25 18  1  0
M  CHG  6  12  -1  20  -1  21  -1  29  -1  31   1  33  -1
M  END
>  <UniqueID>  (46) 
44

>  <SMILES>  (46) 
O=c1[n-]c([O-])c(/N=N/c2nc([O-])c(Cc3ccccc3[N+](=O)[O-])[n-]c2=O)c(=O)s1

>  <Energy>  (46) 
56.84853077420685

>  <Genealogy>  (46) 
O=c1[n-]c([O-])c(N=Nc2nc([O-])c(Cc3ccccc3[N+](=O)[O-])[n-]c2=O)c(=O)s1 (protonated)
O=c1[n-]c([O-])c(/N=N/c2nc([O-])c(Cc3ccccc3[N+](=O)[O-])[n-]c2=O)c(=O)s1 (cis-trans isomerization)
O=c1[n-]c([O-])c(/N=N/c2nc([O-])c(Cc3ccccc3[N+](=O)[O-])[n-]c2=O)c(=O)s1 (3D coordinates assigned)
O=c1[n-]c([O-])c(/N=N/c2nc([O-])c(Cc3ccccc3[N+](=O)[O-])[n-]c2=O)c(=O)s1 (optimized conformer: 56.84853077420685 kcal/mol)

>  <smiles>  (46) 
O=c1[nH]c(O)c(N=Nc2nc(O)c(Cc3ccccc3[N+](=O)[O-])[nH]c2=O)c(=O)s1

>  <score_type>  (46) 
oracle

>  <origin>  (46) 
adg

>  <m_score__min__energy>  (46) 
-17.550000000000001

>  <m_primary>  (46) 
energy

$$$$
46:0
     RDKit          3D

 63 67  0  0  0  0  0  0  0  0999 V2000
   55.9190   28.2580   53.2800 C   0  0  0  0  0  0  0  0  0  0  0  0
   55.8760   29.5780   53.0460 C   0  0  0  0  0  0  0  0  0  0  0  0
   54.7440   30.3590   52.7460 C   0  0  0  0  0  0  0  0  0  0  0  0
   53.4320   30.0550   52.7290 C   0  0  0  0  0  0  0  0  0  0  0  0
   52.3490   30.9260   52.2510 C   0  0  0  0  0  0  0  0  0  0  0  0
   51.8000   31.9300   52.9610 N   0  0  0  0  0  0  0  0  0  0  0  0
   50.9600   32.5110   52.0790 C   0  0  0  0  0  0  0  0  0  0  0  0
   50.2400   33.4980   52.3780 O   0  0  0  0  0  0  0  0  0  0  0  0
   50.9620   31.9610   50.8460 N   0  0  0  0  0  0  0  0  0  0  0  0
   51.8580   30.9680   50.9690 C   0  0  0  0  0  0  0  0  0  0  0  0
   52.2280   30.1190   49.9320 O   0  0  0  0  0  0  0  0  0  0  0  0
   55.2200   31.6210   52.4300 C   0  0  0  0  0  0  0  0  0  0  0  0
   56.5880   31.5880   52.5870 C   0  0  0  0  0  0  0  0  0  0  0  0
   57.5120   32.7350   52.3130 C   0  0  0  0  0  0  0  0  0  0  0  0
   56.9890   30.3510   52.9560 N   0  0  0  0  0  0  0  0  0  0  0  0
   58.3610   29.9230   53.0480 C   0  0  0  0  0  0  0  0  0  0  0  0
   58.8740   29.5230   54.2890 C   0  0  0  0  0  0  0  0  0  0  0  0
   60.2020   29.1080   54.4050 C   0  0  0  0  0  0  0  0  0  0  0  0
   61.0300   29.0900   53.2820 C   0  0  0  0  0  0  0  0  0  0  0  0
   60.5360   29.4960   52.0420 C   0  0  0  0  0  0  0  0  0  0  0  0
   59.2030   29.9160   51.9110 C   0  0  0  0  0  0  0  0  0  0  0  0
   58.7170   30.4020   50.5990 C   0  0  0  0  0  0  0  0  0  0  0  0
   57.7800   29.7720   50.0340 O   0  0  0  0  0  0  0  0  0  0  0  0
   59.2760   31.5720   49.9620 N   0  0  0  0  0  0  0  0  0  0  0  0
   58.5990   32.1190   48.7790 C   0  0  0  0  0  0  0  0  0  0  0  0
   58.9100   33.6150   48.6030 C   0  0  0  0  0  0  0  0  0  0  0  0
   60.3550   33.9210   48.7020 N   0  0  0  0  0  0  0  0  0  0  0  0
   61.1340   33.4800   47.5220 C   0  0  0  0  0  0  0  0  0  0  0  0
   60.2210   32.9620   46.4420 C   0  0  0  0  0  0  0  0  0  0  0  0
   59.5700   33.8560   45.5770 C   0  0  0  0  0  0  0  0  0  0  0  0
   58.7110   33.3800   44.5840 C   0  0  0  0  0  0  0  0  0  0  0  0
   58.4990   32.0060   44.4390 C   0  0  0  0  0  0  0  0  0  0  0  0
   57.4310   31.4060   43.1860 Cl  0  0  0  0  0  0  0  0  0  0  0  0
   59.1470   31.1080   45.2920 C   0  0  0  0  0  0  0  0  0  0  0  0
   60.0040   31.5840   46.2900 C   0  0  0  0  0  0  0  0  0  0  0  0
   60.9160   33.4150   49.9720 C   0  0  0  0  0  0  0  0  0  0  0  0
   60.6970   31.9060   50.1390 C   0  0  0  0  0  0  0  0  0  0  0  0
   56.8791   27.7702   53.5043 H   0  0  0  0  0  0  0  0  0  0  0  0
   54.9942   27.6633   53.2476 H   0  0  0  0  0  0  0  0  0  0  0  0
   53.1445   29.0631   53.1079 H   0  0  0  0  0  0  0  0  0  0  0  0
   52.5430   29.1750   50.1230 H   0  0  0  0  0  0  0  0  0  0  0  0
   54.6189   32.4861   52.1134 H   0  0  0  0  0  0  0  0  0  0  0  0
   57.8571   33.1634   53.2655 H   0  0  0  0  0  0  0  0  0  0  0  0
   58.3781   32.3784   51.7361 H   0  0  0  0  0  0  0  0  0  0  0  0
   56.9792   33.5053   51.7361 H   0  0  0  0  0  0  0  0  0  0  0  0
   58.2261   29.5360   55.1778 H   0  0  0  0  0  0  0  0  0  0  0  0
   60.5961   28.7948   55.3830 H   0  0  0  0  0  0  0  0  0  0  0  0
   62.0737   28.7552   53.3745 H   0  0  0  0  0  0  0  0  0  0  0  0
   61.1952   29.4869   51.1615 H   0  0  0  0  0  0  0  0  0  0  0  0
   58.9399   31.5741   47.8863 H   0  0  0  0  0  0  0  0  0  0  0  0
   57.5135   32.0021   48.9134 H   0  0  0  0  0  0  0  0  0  0  0  0
   58.5513   33.9335   47.6131 H   0  0  0  0  0  0  0  0  0  0  0  0
   58.4030   34.1544   49.4166 H   0  0  0  0  0  0  0  0  0  0  0  0
   61.7089   34.3321   47.1303 H   0  0  0  0  0  0  0  0  0  0  0  0
   61.8118   32.6700   47.8294 H   0  0  0  0  0  0  0  0  0  0  0  0
   59.7376   34.9381   45.6821 H   0  0  0  0  0  0  0  0  0  0  0  0
   58.2002   34.0878   43.9146 H   0  0  0  0  0  0  0  0  0  0  0  0
   58.9829   30.0262   45.1784 H   0  0  0  0  0  0  0  0  0  0  0  0
   60.5109   30.8737   46.9597 H   0  0  0  0  0  0  0  0  0  0  0  0
   61.9965   33.6206   49.9893 H   0  0  0  0  0  0  0  0  0  0  0  0
   60.3992   33.9257   50.7979 H   0  0  0  0  0  0  0  0  0  0  0  0
   61.2923   31.3678   49.3867 H   0  0  0  0  0  0  0  0  0  0  0  0
   61.0100   31.6097   51.1510 H   0  0  0  0  0  0  0  0  0  0  0  0
  1  2  2  0
  2  3  1  0
  3  4  2  3
  4  5  1  0
  5  6  1  0
  6  7  1  0
  7  8  2  0
  7  9  1  0
  9 10  1  0
 10 11  1  0
  3 12  1  0
 12 13  2  0
 13 14  1  0
 13 15  1  0
 15 16  1  0
 16 17  2  0
 17 18  1  0
 18 19  2  0
 19 20  1  0
 20 21  2  0
 21 22  1  0
 22 23  2  0
 22 24  1  0
 24 25  1  0
 25 26  1  0
 26 27  1  0
 27 28  1  0
 28 29  1  0
 29 30  2  0
 30 31  1  0
 31 32  2  0
 32 33  1  0
 32 34  1  0
 34 35  2  0
 27 36  1  0
 36 37  1  0
 15  2  1  0
 21 16  1  0
 37 24  1  0
 10  5  2  0
 35 29  1  0
  1 38  1  0
  1 39  1  0
  4 40  1  0
 11 41  1  0
 12 42  1  0
 14 43  1  0
 14 44  1  0
 14 45  1  0
 17 46  1  0
 18 47  1  0
 19 48  1  0
 20 49  1  0
 25 50  1  0
 25 51  1  0
 26 52  1  0
 26 53  1  0
 28 54  1  0
 28 55  1  0
 30 56  1  0
 31 57  1  0
 34 58  1  0
 35 59  1  0
 36 60  1  0
 36 61  1  0
 37 62  1  0
 37 63  1  0
M  CHG  2   6  -1   9  -1
M  END
>  <UniqueID>  (47) 
45

>  <SMILES>  (47) 
C=c1c(=Cc2[n-]c(=O)[n-]c2O)cc(C)n1-c1ccccc1C(=O)N1CCN(Cc2ccc(Cl)cc2)CC1

>  <Energy>  (47) 
150.6934759844308

>  <Genealogy>  (47) 
C=c1c(=Cc2[n-]c(=O)[n-]c2O)cc(C)n1-c1ccccc1C(=O)N1CCN(Cc2ccc(Cl)cc2)CC1 (protonated)
C=c1c(=Cc2[n-]c(=O)[n-]c2O)cc(C)n1-c1ccccc1C(=O)N1CCN(Cc2ccc(Cl)cc2)CC1 (3D coordinates assigned)
C=c1c(=Cc2[n-]c(=O)[n-]c2O)cc(C)n1-c1ccccc1C(=O)N1CCN(Cc2ccc(Cl)cc2)CC1 (nonaromatic ring conformer: 150.6934759844308 kcal/mol)

>  <smiles>  (47) 
C=c1c(=Cc2[nH]c(=O)[nH]c2O)cc(C)n1-c1ccccc1C(=O)N1CCN(Cc2ccc(Cl)cc2)CC1

>  <score_type>  (47) 
oracle

>  <origin>  (47) 
adg

>  <m_score__min__energy>  (47) 
-15.390000000000001

>  <m_primary>  (47) 
energy

$$$$
47:0
     RDKit          3D

 42 43  0  0  0  0  0  0  0  0999 V2000
   63.6300   32.7210   47.1420 C   0  0  0  0  0  0  0  0  0  0  0  0
   62.2260   32.4990   47.6930 C   0  0  0  0  0  0  0  0  0  0  0  0
   61.1900   33.1580   46.7760 C   0  0  0  0  0  0  0  0  0  0  0  0
   61.9890   31.0910   47.7760 O   0  0  0  0  0  0  0  0  0  0  0  0
   60.8570   30.4220   47.2900 C   0  0  0  0  0  0  0  0  0  0  0  0
   60.9270   29.8510   46.0140 C   0  0  0  0  0  0  0  0  0  0  0  0
   59.8400   29.1550   45.4850 C   0  0  0  0  0  0  0  0  0  0  0  0
   58.6570   29.0320   46.2230 C   0  0  0  0  0  0  0  0  0  0  0  0
   57.3210   28.0720   45.5990 S   0  0  0  0  0  0  0  0  0  0  0  0
   56.8830   27.0730   46.6320 O   0  0  0  0  0  0  0  0  0  0  0  0
   57.7400   27.3280   44.3610 O   0  0  0  0  0  0  0  0  0  0  0  0
   56.0080   29.1380   45.2420 N   0  0  0  0  0  0  0  0  0  0  0  0
   55.8190   29.6940   43.9400 C   0  0  0  0  0  0  0  0  0  0  0  0
   54.6740   29.7110   43.4120 O   0  0  0  0  0  0  0  0  0  0  0  0
   56.9960   30.1900   43.1680 C   0  0  0  0  0  0  0  0  0  0  0  0
   57.5110   31.4490   43.7890 C   0  0  0  0  0  0  0  0  0  0  0  0
   57.3900   31.8400   45.1120 C   0  0  0  0  0  0  0  0  0  0  0  0
   57.9460   33.0640   45.2450 N   0  0  0  0  0  0  0  0  0  0  0  0
   57.9730   33.8540   46.4670 C   0  0  0  0  0  0  0  0  0  0  0  0
   58.3960   33.4780   44.0700 N   0  0  0  0  0  0  0  0  0  0  0  0
   58.1420   32.5130   43.1700 C   0  0  0  0  0  0  0  0  0  0  0  0
   58.4220   32.6010   41.9440 O   0  0  0  0  0  0  0  0  0  0  0  0
   58.5760   29.6030   47.4970 C   0  0  0  0  0  0  0  0  0  0  0  0
   59.6680   30.2910   48.0310 C   0  0  0  0  0  0  0  0  0  0  0  0
   64.3379   32.8329   47.9765 H   0  0  0  0  0  0  0  0  0  0  0  0
   63.9228   31.8580   46.5260 H   0  0  0  0  0  0  0  0  0  0  0  0
   63.6423   33.6322   46.5260 H   0  0  0  0  0  0  0  0  0  0  0  0
   62.1383   32.9517   48.6917 H   0  0  0  0  0  0  0  0  0  0  0  0
   60.4185   33.6487   47.3875 H   0  0  0  0  0  0  0  0  0  0  0  0
   61.6860   33.9070   46.1411 H   0  0  0  0  0  0  0  0  0  0  0  0
   60.7219   32.3913   46.1411 H   0  0  0  0  0  0  0  0  0  0  0  0
   61.8487   29.9521   45.4222 H   0  0  0  0  0  0  0  0  0  0  0  0
   59.9127   28.7017   44.4854 H   0  0  0  0  0  0  0  0  0  0  0  0
   57.7880   29.4267   43.1780 H   0  0  0  0  0  0  0  0  0  0  0  0
   56.6922   30.3931   42.1305 H   0  0  0  0  0  0  0  0  0  0  0  0
   56.9215   31.2543   45.9166 H   0  0  0  0  0  0  0  0  0  0  0  0
   57.9501   33.1827   47.3381 H   0  0  0  0  0  0  0  0  0  0  0  0
   58.8923   34.4575   46.4932 H   0  0  0  0  0  0  0  0  0  0  0  0
   57.0971   34.5189   46.4932 H   0  0  0  0  0  0  0  0  0  0  0  0
   58.8360   34.4080   43.8850 H   0  0  0  0  0  0  0  0  0  0  0  0
   57.6485   29.5099   48.0810 H   0  0  0  0  0  0  0  0  0  0  0  0
   59.5981   30.7327   49.0360 H   0  0  0  0  0  0  0  0  0  0  0  0
  1  2  1  0
  2  3  1  0
  2  4  1  0
  4  5  1  0
  5  6  2  0
  6  7  1  0
  7  8  2  0
  8  9  1  0
  9 10  2  0
  9 11  2  0
  9 12  1  0
 12 13  1  0
 13 14  2  0
 13 15  1  0
 15 16  1  0
 16 17  2  0
 17 18  1  0
 18 19  1  0
 18 20  1  0
 20 21  1  0
 21 22  2  0
  8 23  1  0
 23 24  2  0
 24  5  1  0
 21 16  1  0
  1 25  1  0
  1 26  1  0
  1 27  1  0
  2 28  1  0
  3 29  1  0
  3 30  1  0
  3 31  1  0
  6 32  1  0
  7 33  1  0
 15 34  1  0
 15 35  1  0
 17 36  1  0
 19 37  1  0
 19 38  1  0
 19 39  1  0
 20 40  1  0
 23 41  1  0
 24 42  1  0
M  CHG  1  12  -1
M  END
>  <UniqueID>  (48) 
46

>  <SMILES>  (48) 
CC(C)Oc1ccc(S(=O)(=O)[N-]C(=O)Cc2cn(C)[nH]c2=O)cc1

>  <Energy>  (48) 
68.84752049928122

>  <Genealogy>  (48) 
CC(C)Oc1ccc(S(=O)(=O)[N-]C(=O)Cc2cn(C)[nH]c2=O)cc1 (protonated)
CC(C)Oc1ccc(S(=O)(=O)[N-]C(=O)Cc2cn(C)[nH]c2=O)cc1 (3D coordinates assigned)
CC(C)Oc1ccc(S(=O)(=O)[N-]C(=O)Cc2cn(C)[nH]c2=O)cc1 (optimized conformer: 68.84752049928122 kcal/mol)

>  <smiles>  (48) 
CC(C)Oc1ccc(S(=O)(=O)NC(=O)Cc2cn(C)[nH]c2=O)cc1

>  <score_type>  (48) 
oracle

>  <origin>  (48) 
adg

>  <m_score__min__energy>  (48) 
-9.4600000000000009

>  <m_primary>  (48) 
energy

$$$$
48:0
     RDKit          3D

 60 63  0  0  0  0  0  0  0  0999 V2000
   61.9090   32.7270   51.5160 C   0  0  0  0  0  0  0  0  0  0  0  0
   61.3250   32.9580   50.1950 N   0  0  0  0  0  0  0  0  0  0  0  0
   62.1570   32.9280   49.0220 C   0  0  0  0  0  0  0  0  0  0  0  0
   62.5090   31.7020   48.4380 C   0  0  0  0  0  0  0  0  0  0  0  0
   63.3170   31.6670   47.2970 C   0  0  0  0  0  0  0  0  0  0  0  0
   63.7820   32.8580   46.7330 C   0  0  0  0  0  0  0  0  0  0  0  0
   63.4390   34.0850   47.3080 C   0  0  0  0  0  0  0  0  0  0  0  0
   62.6250   34.1220   48.4460 C   0  0  0  0  0  0  0  0  0  0  0  0
   59.6080   33.1740   50.0430 S   0  0  0  0  0  0  0  0  0  0  0  0
   59.2750   34.6310   50.1980 O   0  0  0  0  0  0  0  0  0  0  0  0
   58.9010   32.4180   51.1350 O   0  0  0  0  0  0  0  0  0  0  0  0
   59.0520   32.6040   48.4720 C   0  0  0  0  0  0  0  0  0  0  0  0
   58.6960   33.5240   47.4800 C   0  0  0  0  0  0  0  0  0  0  0  0
   58.2380   33.0770   46.2400 C   0  0  0  0  0  0  0  0  0  0  0  0
   58.1290   31.7060   45.9770 C   0  0  0  0  0  0  0  0  0  0  0  0
   57.6350   31.2780   44.7020 N   0  0  0  0  0  0  0  0  0  0  0  0
   56.5650   30.3120   44.5510 C   0  0  0  0  0  0  0  0  0  0  0  0
   56.4110   30.1130   43.0480 C   0  0  0  0  0  0  0  0  0  0  0  0
   57.1540   31.2780   42.3900 C   0  0  0  0  0  0  0  0  0  0  0  0
   58.1250   31.8020   43.4390 C   0  0  0  0  0  0  0  0  0  0  0  0
   58.4990   30.7650   46.9640 C   0  0  0  0  0  0  0  0  0  0  0  0
   58.4850   29.3560   46.6570 N   0  0  0  0  0  0  0  0  0  0  0  0
   59.1950   28.7560   45.5640 C   0  0  0  0  0  0  0  0  0  0  0  0
   60.3120   29.2210   45.2130 O   0  0  0  0  0  0  0  0  0  0  0  0
   58.7010   27.5320   44.8970 C   0  0  0  0  0  0  0  0  0  0  0  0
   57.4190   27.1350   44.8420 C   0  0  0  0  0  0  0  0  0  0  0  0
   56.9240   25.8020   45.2430 C   0  0  0  0  0  0  0  0  0  0  0  0
   57.7270   24.6790   44.9990 C   0  0  0  0  0  0  0  0  0  0  0  0
   57.2870   23.4040   45.3650 C   0  0  0  0  0  0  0  0  0  0  0  0
   56.0370   23.2400   45.9680 C   0  0  0  0  0  0  0  0  0  0  0  0
   55.2190   24.3490   46.1950 C   0  0  0  0  0  0  0  0  0  0  0  0
   55.6470   25.6260   45.8150 C   0  0  0  0  0  0  0  0  0  0  0  0
   54.7910   26.7070   45.9900 O   0  0  0  0  0  0  0  0  0  0  0  0
   58.9680   31.2320   48.2070 C   0  0  0  0  0  0  0  0  0  0  0  0
   61.1844   33.0136   52.2924 H   0  0  0  0  0  0  0  0  0  0  0  0
   62.1605   31.6617   51.6245 H   0  0  0  0  0  0  0  0  0  0  0  0
   62.8212   33.3320   51.6245 H   0  0  0  0  0  0  0  0  0  0  0  0
   62.1471   30.7621   48.8804 H   0  0  0  0  0  0  0  0  0  0  0  0
   63.5865   30.7018   46.8435 H   0  0  0  0  0  0  0  0  0  0  0  0
   64.4183   32.8299   45.8361 H   0  0  0  0  0  0  0  0  0  0  0  0
   63.8089   35.0219   46.8660 H   0  0  0  0  0  0  0  0  0  0  0  0
   62.3503   35.0895   48.8916 H   0  0  0  0  0  0  0  0  0  0  0  0
   58.7774   34.6030   47.6781 H   0  0  0  0  0  0  0  0  0  0  0  0
   57.9609   33.8061   45.4644 H   0  0  0  0  0  0  0  0  0  0  0  0
   56.8309   29.3632   45.0399 H   0  0  0  0  0  0  0  0  0  0  0  0
   55.6307   30.6593   45.0162 H   0  0  0  0  0  0  0  0  0  0  0  0
   56.8554   29.1545   42.7418 H   0  0  0  0  0  0  0  0  0  0  0  0
   55.3521   30.0912   42.7508 H   0  0  0  0  0  0  0  0  0  0  0  0
   57.7019   30.9293   41.5022 H   0  0  0  0  0  0  0  0  0  0  0  0
   56.4588   32.0626   42.0566 H   0  0  0  0  0  0  0  0  0  0  0  0
   59.1435   31.4380   43.2388 H   0  0  0  0  0  0  0  0  0  0  0  0
   58.1772   32.9008   43.4406 H   0  0  0  0  0  0  0  0  0  0  0  0
   57.9210   28.7170   47.2630 H   0  0  0  0  0  0  0  0  0  0  0  0
   59.4473   26.8919   44.4037 H   0  0  0  0  0  0  0  0  0  0  0  0
   56.6797   27.8592   44.4692 H   0  0  0  0  0  0  0  0  0  0  0  0
   58.7082   24.8020   44.5171 H   0  0  0  0  0  0  0  0  0  0  0  0
   57.9256   22.5281   45.1781 H   0  0  0  0  0  0  0  0  0  0  0  0
   55.6971   22.2366   46.2641 H   0  0  0  0  0  0  0  0  0  0  0  0
   54.2370   24.2185   46.6731 H   0  0  0  0  0  0  0  0  0  0  0  0
   59.2720   30.5099   48.9791 H   0  0  0  0  0  0  0  0  0  0  0  0
  1  2  1  0
  2  3  1  0
  3  4  2  0
  4  5  1  0
  5  6  2  0
  6  7  1  0
  7  8  2  0
  2  9  1  0
  9 10  2  0
  9 11  2  0
  9 12  1  0
 12 13  2  0
 13 14  1  0
 14 15  2  0
 15 16  1  0
 16 17  1  0
 17 18  1  0
 18 19  1  0
 19 20  1  0
 15 21  1  0
 21 22  1  0
 22 23  1  0
 23 24  2  0
 23 25  1  0
 25 26  2  3
 26 27  1  0
 27 28  2  0
 28 29  1  0
 29 30  2  0
 30 31  1  0
 31 32  2  0
 32 33  1  0
 21 34  2  0
  8  3  1  0
 34 12  1  0
 20 16  1  0
 32 27  1  0
  1 35  1  0
  1 36  1  0
  1 37  1  0
  4 38  1  0
  5 39  1  0
  6 40  1  0
  7 41  1  0
  8 42  1  0
 13 43  1  0
 14 44  1  0
 17 45  1  0
 17 46  1  0
 18 47  1  0
 18 48  1  0
 19 49  1  0
 19 50  1  0
 20 51  1  0
 20 52  1  0
 22 53  1  0
 25 54  1  0
 26 55  1  0
 28 56  1  0
 29 57  1  0
 30 58  1  0
 31 59  1  0
 34 60  1  0
M  CHG  1  33  -1
M  END
>  <UniqueID>  (49) 
47

>  <SMILES>  (49) 
CN(c1ccccc1)S(=O)(=O)c1ccc(N2CCCC2)c(NC(=O)C=Cc2ccccc2[O-])c1

>  <Energy>  (49) 
82.7233106631116

>  <Genealogy>  (49) 
CN(c1ccccc1)S(=O)(=O)c1ccc(N2CCCC2)c(NC(=O)C=Cc2ccccc2[O-])c1 (protonated)
CN(c1ccccc1)S(=O)(=O)c1ccc(N2CCCC2)c(NC(=O)C=Cc2ccccc2[O-])c1 (3D coordinates assigned)
CN(c1ccccc1)S(=O)(=O)c1ccc(N2CCCC2)c(NC(=O)C=Cc2ccccc2[O-])c1 (nonaromatic ring conformer: 82.7233106631116 kcal/mol)

>  <smiles>  (49) 
CN(c1ccccc1)S(=O)(=O)c1ccc(N2CCCC2)c(NC(=O)C=Cc2ccccc2O)c1

>  <score_type>  (49) 
oracle

>  <origin>  (49) 
adg

>  <m_score__min__energy>  (49) 
-13.92

>  <m_primary>  (49) 
energy

$$$$
49:0
     RDKit          3D

 60 63  0  0  0  0  0  0  0  0999 V2000
   62.7030   33.2080   48.6730 O   0  0  0  0  0  0  0  0  0  0  0  0
   61.6850   32.5150   48.3970 C   0  0  0  0  0  0  0  0  0  0  0  0
   61.6490   31.7220   47.1230 C   0  0  0  0  0  0  0  0  0  0  0  0
   60.2580   31.5240   46.6470 N   0  0  0  0  0  0  0  0  0  0  0  0
   59.6880   30.2610   46.6950 C   0  0  0  0  0  0  0  0  0  0  0  0
   60.2520   29.1140   47.5290 C   0  0  0  0  0  0  0  0  0  0  0  0
   59.1430   28.2280   48.1250 C   0  0  0  0  0  0  0  0  0  0  0  0
   58.7300   27.1220   47.1860 C   0  0  0  0  0  0  0  0  0  0  0  0
   57.4110   27.0720   46.7040 C   0  0  0  0  0  0  0  0  0  0  0  0
   57.0040   26.0280   45.8690 C   0  0  0  0  0  0  0  0  0  0  0  0
   57.9070   25.0220   45.5160 C   0  0  0  0  0  0  0  0  0  0  0  0
   59.2190   25.0580   45.9950 C   0  0  0  0  0  0  0  0  0  0  0  0
   60.0880   24.0740   45.6560 F   0  0  0  0  0  0  0  0  0  0  0  0
   59.6340   26.1030   46.8280 C   0  0  0  0  0  0  0  0  0  0  0  0
   60.9070   26.1100   47.3010 F   0  0  0  0  0  0  0  0  0  0  0  0
   58.4770   30.0120   46.0370 C   0  0  0  0  0  0  0  0  0  0  0  0
   57.7990   31.0330   45.3940 C   0  0  0  0  0  0  0  0  0  0  0  0
   56.7140   30.7750   44.8030 O   0  0  0  0  0  0  0  0  0  0  0  0
   58.3090   32.3350   45.4330 C   0  0  0  0  0  0  0  0  0  0  0  0
   57.6020   33.3980   44.8350 C   0  0  0  0  0  0  0  0  0  0  0  0
   58.0850   34.7010   44.9130 C   0  0  0  0  0  0  0  0  0  0  0  0
   59.2670   34.9640   45.5950 C   0  0  0  0  0  0  0  0  0  0  0  0
   59.9870   33.9260   46.1880 C   0  0  0  0  0  0  0  0  0  0  0  0
   59.5430   32.5800   46.0980 C   0  0  0  0  0  0  0  0  0  0  0  0
   60.5770   32.4730   49.3040 N   0  0  0  0  0  0  0  0  0  0  0  0
   60.5730   33.2520   50.5420 C   0  0  0  0  0  0  0  0  0  0  0  0
   59.4270   32.8400   51.4840 C   0  0  0  0  0  0  0  0  0  0  0  0
   58.4980   31.8330   50.9250 N   0  0  0  0  0  0  0  0  0  0  0  0
   57.0740   31.9620   51.2950 C   0  0  0  0  0  0  0  0  0  0  0  0
   56.6370   30.9010   52.3170 C   0  0  0  0  0  0  0  0  0  0  0  0
   57.0200   29.6070   51.9010 O   0  0  0  0  0  0  0  0  0  0  0  0
   58.4290   29.5280   51.8770 C   0  0  0  0  0  0  0  0  0  0  0  0
   59.0010   30.4510   50.7950 C   0  0  0  0  0  0  0  0  0  0  0  0
   62.2183   32.2599   46.3506 H   0  0  0  0  0  0  0  0  0  0  0  0
   62.0918   30.7341   47.3179 H   0  0  0  0  0  0  0  0  0  0  0  0
   60.8954   28.4931   46.8882 H   0  0  0  0  0  0  0  0  0  0  0  0
   60.8201   29.5509   48.3635 H   0  0  0  0  0  0  0  0  0  0  0  0
   59.5116   27.7799   49.0595 H   0  0  0  0  0  0  0  0  0  0  0  0
   58.2635   28.8637   48.3051 H   0  0  0  0  0  0  0  0  0  0  0  0
   56.6953   27.8585   46.9854 H   0  0  0  0  0  0  0  0  0  0  0  0
   55.9720   25.9982   45.4894 H   0  0  0  0  0  0  0  0  0  0  0  0
   57.5844   24.2002   44.8598 H   0  0  0  0  0  0  0  0  0  0  0  0
   58.0602   28.9940   46.0312 H   0  0  0  0  0  0  0  0  0  0  0  0
   56.6610   33.1960   44.3024 H   0  0  0  0  0  0  0  0  0  0  0  0
   57.5313   35.5225   44.4349 H   0  0  0  0  0  0  0  0  0  0  0  0
   59.6375   35.9972   45.6679 H   0  0  0  0  0  0  0  0  0  0  0  0
   60.9141   34.1542   46.7343 H   0  0  0  0  0  0  0  0  0  0  0  0
   59.7350   31.9160   49.0360 H   0  0  0  0  0  0  0  0  0  0  0  0
   61.5308   33.0980   51.0607 H   0  0  0  0  0  0  0  0  0  0  0  0
   60.4278   34.3093   50.2755 H   0  0  0  0  0  0  0  0  0  0  0  0
   59.8701   32.4253   52.4014 H   0  0  0  0  0  0  0  0  0  0  0  0
   58.8308   33.7470   51.6626 H   0  0  0  0  0  0  0  0  0  0  0  0
   56.9106   32.9594   51.7291 H   0  0  0  0  0  0  0  0  0  0  0  0
   56.4757   31.8168   50.3835 H   0  0  0  0  0  0  0  0  0  0  0  0
   57.1076   31.1207   53.2867 H   0  0  0  0  0  0  0  0  0  0  0  0
   55.5408   30.9301   52.4041 H   0  0  0  0  0  0  0  0  0  0  0  0
   58.8251   29.8309   52.8575 H   0  0  0  0  0  0  0  0  0  0  0  0
   58.7231   28.4921   51.6523 H   0  0  0  0  0  0  0  0  0  0  0  0
   60.0976   30.4625   50.8813 H   0  0  0  0  0  0  0  0  0  0  0  0
   58.6832   30.0643   49.8155 H   0  0  0  0  0  0  0  0  0  0  0  0
  1  2  2  0
  2  3  1  0
  3  4  1  0
  4  5  1  0
  5  6  1  0
  6  7  1  0
  7  8  1  0
  8  9  2  0
  9 10  1  0
 10 11  2  0
 11 12  1  0
 12 13  1  0
 12 14  2  0
 14 15  1  0
  5 16  2  0
 16 17  1  0
 17 18  2  0
 17 19  1  0
 19 20  2  0
 20 21  1  0
 21 22  2  0
 22 23  1  0
 23 24  2  0
  2 25  1  0
 25 26  1  0
 26 27  1  0
 27 28  1  0
 28 29  1  0
 29 30  1  0
 30 31  1  0
 31 32  1  0
 32 33  1  0
 24  4  1  0
 33 28  1  0
 14  8  1  0
 24 19  1  0
  3 34  1  0
  3 35  1  0
  6 36  1  0
  6 37  1  0
  7 38  1  0
  7 39  1  0
  9 40  1  0
 10 41  1  0
 11 42  1  0
 16 43  1  0
 20 44  1  0
 21 45  1  0
 22 46  1  0
 23 47  1  0
 25 48  1  0
 26 49  1  0
 26 50  1  0
 27 51  1  0
 27 52  1  0
 29 53  1  0
 29 54  1  0
 30 55  1  0
 30 56  1  0
 32 57  1  0
 32 58  1  0
 33 59  1  0
 33 60  1  0
M  END
>  <UniqueID>  (50) 
48

>  <SMILES>  (50) 
O=C(Cn1c(CCc2cccc(F)c2F)cc(=O)c2ccccc21)NCCN1CCOCC1

>  <Energy>  (50) 
84.12063425193152

>  <Genealogy>  (50) 
O=C(Cn1c(CCc2cccc(F)c2F)cc(=O)c2ccccc21)NCCN1CCOCC1 (3D coordinates assigned)
O=C(Cn1c(CCc2cccc(F)c2F)cc(=O)c2ccccc21)NCCN1CCOCC1 (nonaromatic ring conformer: 84.12063425193152 kcal/mol)

>  <smiles>  (50) 
O=C(Cn1c(CCc2cccc(F)c2F)cc(=O)c2ccccc21)NCCN1CCOCC1

>  <score_type>  (50) 
oracle

>  <origin>  (50) 
adg

>  <m_score__min__energy>  (50) 
-8.5899999999999999

>  <m_primary>  (50) 
energy

$$$$
50:0
     RDKit          3D

 44 47  0  0  0  0  0  0  0  0999 V2000
   59.2066   35.4109   46.5905 H   0  0  0  0  0  0  0  0  0  0  0  0
   58.8020   34.4610   46.2110 C   0  0  0  0  0  0  0  0  0  0  0  0
   58.4400   34.3430   44.8670 C   0  0  0  0  0  0  0  0  0  0  0  0
   58.5624   35.1998   44.1881 H   0  0  0  0  0  0  0  0  0  0  0  0
   57.9220   33.1370   44.3830 C   0  0  0  0  0  0  0  0  0  0  0  0
   57.6314   33.0525   43.3254 H   0  0  0  0  0  0  0  0  0  0  0  0
   57.7700   32.0300   45.2410 C   0  0  0  0  0  0  0  0  0  0  0  0
   57.2450   30.7440   44.7250 C   0  0  0  0  0  0  0  0  0  0  0  0
   56.0120   30.4940   44.8140 O   0  0  0  0  0  0  0  0  0  0  0  0
   58.1430   29.8050   44.1060 N   0  0  0  0  0  0  0  0  0  0  0  0
   58.2360   28.5240   44.3270 C   0  0  0  0  0  0  0  0  0  0  0  0
   59.1570   27.7730   45.5440 S   0  0  0  0  0  0  0  0  0  0  0  0
   58.6590   26.2380   45.0720 C   0  0  0  0  0  0  0  0  0  0  0  0
   59.0020   25.0080   45.6250 C   0  0  0  0  0  0  0  0  0  0  0  0
   59.6840   24.9489   46.4861 H   0  0  0  0  0  0  0  0  0  0  0  0
   58.4550   23.8380   45.0560 C   0  0  0  0  0  0  0  0  0  0  0  0
   58.8010   22.5150   45.6260 C   0  0  0  0  0  0  0  0  0  0  0  0
   59.9730   22.0740   45.4920 O   0  0  0  0  0  0  0  0  0  0  0  0
   57.8530   21.7240   46.3540 N   0  0  0  0  0  0  0  0  0  0  0  0
   56.4540   22.0130   46.5080 C   0  0  0  0  0  0  0  0  0  0  0  0
   55.4690   21.2680   45.8210 C   0  0  0  0  0  0  0  0  0  0  0  0
   55.8810   19.8820   44.8160 Cl  0  0  0  0  0  0  0  0  0  0  0  0
   54.1170   21.5830   45.9860 C   0  0  0  0  0  0  0  0  0  0  0  0
   53.3523   21.0108   45.4403 H   0  0  0  0  0  0  0  0  0  0  0  0
   53.7310   22.6180   46.8380 C   0  0  0  0  0  0  0  0  0  0  0  0
   52.6654   22.8642   46.9555 H   0  0  0  0  0  0  0  0  0  0  0  0
   54.6960   23.3420   47.5420 C   0  0  0  0  0  0  0  0  0  0  0  0
   54.3866   24.1538   48.2167 H   0  0  0  0  0  0  0  0  0  0  0  0
   56.0590   23.0390   47.3930 C   0  0  0  0  0  0  0  0  0  0  0  0
   57.0890   23.8350   48.1480 C   0  0  0  0  0  0  0  0  0  0  0  0
   56.9283   23.7108   49.2291 H   0  0  0  0  0  0  0  0  0  0  0  0
   58.0950   23.4774   47.8834 H   0  0  0  0  0  0  0  0  0  0  0  0
   56.9966   24.8987   47.8834 H   0  0  0  0  0  0  0  0  0  0  0  0
   57.5580   23.9510   43.9640 C   0  0  0  0  0  0  0  0  0  0  0  0
   57.1092   23.0433   43.5343 H   0  0  0  0  0  0  0  0  0  0  0  0
   57.2350   25.2050   43.4240 C   0  0  0  0  0  0  0  0  0  0  0  0
   56.5487   25.2860   42.5682 H   0  0  0  0  0  0  0  0  0  0  0  0
   57.8000   26.3480   43.9920 C   0  0  0  0  0  0  0  0  0  0  0  0
   57.5650   27.6180   43.5760 N   0  0  0  0  0  0  0  0  0  0  0  0
   56.9380   27.8680   42.7780 H   0  0  0  0  0  0  0  0  0  0  0  0
   58.1380   32.1620   46.5940 C   0  0  0  0  0  0  0  0  0  0  0  0
   58.0220   31.3084   47.2780 H   0  0  0  0  0  0  0  0  0  0  0  0
   58.6500   33.3720   47.0730 C   0  0  0  0  0  0  0  0  0  0  0  0
   58.9339   33.4667   48.1315 H   0  0  0  0  0  0  0  0  0  0  0  0
  1  2  1  0
  2  3  2  0
  3  4  1  0
  3  5  1  0
  5  6  1  0
  5  7  2  0
  7  8  1  0
  8  9  2  0
  8 10  1  0
 10 11  2  0
 11 12  1  0
 12 13  1  0
 13 14  2  0
 14 15  1  0
 14 16  1  0
 16 17  1  0
 17 18  2  0
 17 19  1  0
 19 20  1  0
 20 21  2  0
 21 22  1  0
 21 23  1  0
 23 24  1  0
 23 25  2  0
 25 26  1  0
 25 27  1  0
 27 28  1  0
 27 29  2  0
 29 30  1  0
 30 31  1  0
 30 32  1  0
 30 33  1  0
 16 34  2  0
 34 35  1  0
 34 36  1  0
 36 37  1  0
 36 38  2  0
 38 39  1  0
 39 40  1  0
  7 41  1  0
 41 42  1  0
 41 43  2  0
 43 44  1  0
 43  2  1  0
 39 11  1  0
 38 13  1  0
 29 20  1  0
M  CHG  1  19  -1
M  END
>  <UniqueID>  (51) 
49

>  <SMILES>  (51) 
Cc1cccc(Cl)c1[N-]C(=O)c1ccc2[nH]/c(=N/C(=O)c3ccccc3)sc2c1

>  <Energy>  (51) 
97.8052060419262

>  <Genealogy>  (51) 
Cc1cccc(Cl)c1[N-]C(=O)c1ccc2[nH]c(=NC(=O)c3ccccc3)sc2c1 (protonated)
Cc1cccc(Cl)c1[N-]C(=O)c1ccc2[nH]/c(=N/C(=O)c3ccccc3)sc2c1 (cis-trans isomerization)
Cc1cccc(Cl)c1[N-]C(=O)c1ccc2[nH]/c(=N/C(=O)c3ccccc3)sc2c1 (3D coordinates assigned)
Cc1cccc(Cl)c1[N-]C(=O)c1ccc2[nH]/c(=N/C(=O)c3ccccc3)sc2c1 (optimized conformer: 97.8052060419262 kcal/mol)

>  <smiles>  (51) 
Cc1cccc(Cl)c1NC(=O)c1ccc2[nH]c(=NC(=O)c3ccccc3)sc2c1

>  <score_type>  (51) 
oracle

>  <origin>  (51) 
adg

>  <m_score__min__energy>  (51) 
-10.529999999999999

>  <m_primary>  (51) 
energy

$$$$
51:0
     RDKit          3D

 54 58  0  0  0  0  0  0  0  0999 V2000
   57.7080   33.4950   44.4740 C   0  0  0  0  0  0  0  0  0  0  0  0
   58.4160   32.5680   45.3500 N   0  0  0  0  0  0  0  0  0  0  0  0
   59.5040   32.8170   46.1230 C   0  0  0  0  0  0  0  0  0  0  0  0
   60.0730   33.9410   46.1780 O   0  0  0  0  0  0  0  0  0  0  0  0
   59.9080   31.7410   46.8460 N   0  0  0  0  0  0  0  0  0  0  0  0
   60.9770   31.6980   47.8480 C   0  0  0  0  0  0  0  0  0  0  0  0
   62.3420   31.5450   47.1700 C   0  0  0  0  0  0  0  0  0  0  0  0
   63.2640   32.6120   47.6250 N   0  0  0  0  0  0  0  0  0  0  0  0
   62.5880   33.9090   47.8240 C   0  0  0  0  0  0  0  0  0  0  0  0
   61.7980   33.9600   49.1500 C   0  0  0  0  0  0  0  0  0  0  0  0
   62.4820   33.2920   50.2870 N   0  0  0  0  0  0  0  0  0  0  0  0
   61.7690   32.0760   50.7400 C   0  0  0  0  0  0  0  0  0  0  0  0
   60.3740   32.4040   51.2020 C   0  0  0  0  0  0  0  0  0  0  0  0
   60.1490   33.4590   52.1030 C   0  0  0  0  0  0  0  0  0  0  0  0
   58.8480   33.7700   52.5120 C   0  0  0  0  0  0  0  0  0  0  0  0
   57.7660   33.0320   52.0260 C   0  0  0  0  0  0  0  0  0  0  0  0
   57.9810   31.9830   51.1280 C   0  0  0  0  0  0  0  0  0  0  0  0
   59.2800   31.6700   50.7140 C   0  0  0  0  0  0  0  0  0  0  0  0
   63.9180   33.0590   50.0280 C   0  0  0  0  0  0  0  0  0  0  0  0
   64.1480   32.2240   48.7530 C   0  0  0  0  0  0  0  0  0  0  0  0
   59.0200   30.7750   46.5280 C   0  0  0  0  0  0  0  0  0  0  0  0
   58.9310   29.4520   47.0140 C   0  0  0  0  0  0  0  0  0  0  0  0
   57.8750   28.6340   46.5410 C   0  0  0  0  0  0  0  0  0  0  0  0
   56.9720   29.1830   45.6130 C   0  0  0  0  0  0  0  0  0  0  0  0
   55.9060   28.5890   45.0510 N   0  0  0  0  0  0  0  0  0  0  0  0
   55.3350   29.4820   44.2460 N   0  0  0  0  0  0  0  0  0  0  0  0
   56.0300   30.6430   44.2920 C   0  0  0  0  0  0  0  0  0  0  0  0
   57.0810   30.4720   45.1600 C   0  0  0  0  0  0  0  0  0  0  0  0
   58.1180   31.2800   45.6190 C   0  0  0  0  0  0  0  0  0  0  0  0
   57.1520   34.2229   45.0831 H   0  0  0  0  0  0  0  0  0  0  0  0
   58.4328   34.0257   43.8392 H   0  0  0  0  0  0  0  0  0  0  0  0
   57.0053   32.9354   43.8392 H   0  0  0  0  0  0  0  0  0  0  0  0
   60.9648   32.6309   48.4306 H   0  0  0  0  0  0  0  0  0  0  0  0
   60.8098   30.8354   48.5098 H   0  0  0  0  0  0  0  0  0  0  0  0
   62.7672   30.5637   47.4274 H   0  0  0  0  0  0  0  0  0  0  0  0
   62.2117   31.6248   46.0807 H   0  0  0  0  0  0  0  0  0  0  0  0
   63.3465   34.7056   47.8331 H   0  0  0  0  0  0  0  0  0  0  0  0
   61.8722   34.0457   47.0000 H   0  0  0  0  0  0  0  0  0  0  0  0
   61.6357   35.0151   49.4156 H   0  0  0  0  0  0  0  0  0  0  0  0
   60.8569   33.4162   48.9809 H   0  0  0  0  0  0  0  0  0  0  0  0
   61.7121   31.3615   49.9056 H   0  0  0  0  0  0  0  0  0  0  0  0
   62.3230   31.6415   51.5851 H   0  0  0  0  0  0  0  0  0  0  0  0
   60.9987   34.0420   52.4878 H   0  0  0  0  0  0  0  0  0  0  0  0
   58.6767   34.5967   53.2172 H   0  0  0  0  0  0  0  0  0  0  0  0
   56.7438   33.2768   52.3505 H   0  0  0  0  0  0  0  0  0  0  0  0
   57.1279   31.4029   50.7463 H   0  0  0  0  0  0  0  0  0  0  0  0
   59.4455   30.8463   50.0039 H   0  0  0  0  0  0  0  0  0  0  0  0
   64.4198   34.0309   49.9111 H   0  0  0  0  0  0  0  0  0  0  0  0
   64.3297   32.4978   50.8798 H   0  0  0  0  0  0  0  0  0  0  0  0
   65.1936   32.3524   48.4363 H   0  0  0  0  0  0  0  0  0  0  0  0
   63.9140   31.1788   49.0035 H   0  0  0  0  0  0  0  0  0  0  0  0
   59.6619   29.0668   47.7403 H   0  0  0  0  0  0  0  0  0  0  0  0
   57.7644   27.5969   46.8905 H   0  0  0  0  0  0  0  0  0  0  0  0
   55.7947   31.5608   43.7332 H   0  0  0  0  0  0  0  0  0  0  0  0
  1  2  1  0
  2  3  1  0
  3  4  2  0
  3  5  1  0
  5  6  1  0
  6  7  1  0
  7  8  1  0
  8  9  1  0
  9 10  1  0
 10 11  1  0
 11 12  1  0
 12 13  1  0
 13 14  2  0
 14 15  1  0
 15 16  2  0
 16 17  1  0
 17 18  2  0
 11 19  1  0
 19 20  1  0
  5 21  1  0
 21 22  2  0
 22 23  1  0
 23 24  2  0
 24 25  1  0
 25 26  1  0
 26 27  2  0
 27 28  1  0
 28 29  2  0
 29  2  1  0
 20  8  1  0
 29 21  1  0
 18 13  1  0
 28 24  1  0
  1 30  1  0
  1 31  1  0
  1 32  1  0
  6 33  1  0
  6 34  1  0
  7 35  1  0
  7 36  1  0
  9 37  1  0
  9 38  1  0
 10 39  1  0
 10 40  1  0
 12 41  1  0
 12 42  1  0
 14 43  1  0
 15 44  1  0
 16 45  1  0
 17 46  1  0
 18 47  1  0
 19 48  1  0
 19 49  1  0
 20 50  1  0
 20 51  1  0
 22 52  1  0
 23 53  1  0
 27 54  1  0
M  CHG  1  25  -1
M  END
>  <UniqueID>  (52) 
50

>  <SMILES>  (52) 
Cn1c(=O)n(CCN2CCN(Cc3ccccc3)CC2)c2ccc3[n-]ncc3c21

>  <Energy>  (52) 
153.76453999101034

>  <Genealogy>  (52) 
Cn1c(=O)n(CCN2CCN(Cc3ccccc3)CC2)c2ccc3[n-]ncc3c21 (protonated)
Cn1c(=O)n(CCN2CCN(Cc3ccccc3)CC2)c2ccc3[n-]ncc3c21 (3D coordinates assigned)
Cn1c(=O)n(CCN2CCN(Cc3ccccc3)CC2)c2ccc3[n-]ncc3c21 (nonaromatic ring conformer: 153.76453999101034 kcal/mol)

>  <smiles>  (52) 
Cn1c(=O)n(CCN2CCN(Cc3ccccc3)CC2)c2ccc3[nH]ncc3c21

>  <score_type>  (52) 
oracle

>  <origin>  (52) 
adg

>  <m_score__min__energy>  (52) 
-10.33

>  <m_primary>  (52) 
energy

$$$$
52:0
     RDKit          3D

 64 68  0  0  0  0  0  0  0  0999 V2000
   59.7230   34.8360   45.9800 O   0  0  0  0  0  0  0  0  0  0  0  0
   59.9580   33.7840   46.6370 C   0  0  0  0  0  0  0  0  0  0  0  0
   59.0340   32.6840   46.5930 N   0  0  0  0  0  0  0  0  0  0  0  0
   59.1910   31.3930   47.2030 C   0  0  0  0  0  0  0  0  0  0  0  0
   58.8810   30.2580   46.4460 C   0  0  0  0  0  0  0  0  0  0  0  0
   58.9710   28.9830   47.0110 C   0  0  0  0  0  0  0  0  0  0  0  0
   59.3730   28.8300   48.3390 C   0  0  0  0  0  0  0  0  0  0  0  0
   59.7010   29.9530   49.1150 C   0  0  0  0  0  0  0  0  0  0  0  0
   60.1530   29.7940   50.5560 C   0  0  0  0  0  0  0  0  0  0  0  0
   59.1840   30.3310   51.5400 N   0  0  0  0  0  0  0  0  0  0  0  0
   58.9920   31.7940   51.4250 C   0  0  0  0  0  0  0  0  0  0  0  0
   58.1920   32.3650   52.6040 C   0  0  0  0  0  0  0  0  0  0  0  0
   56.6620   32.2950   52.4520 C   0  0  0  0  0  0  0  0  0  0  0  0
   56.0810   30.9430   52.6370 N   0  0  0  0  0  0  0  0  0  0  0  0
   55.1040   30.5770   51.5870 C   0  0  0  0  0  0  0  0  0  0  0  0
   53.6930   30.6520   52.1110 C   0  0  0  0  0  0  0  0  0  0  0  0
   53.2220   29.7020   53.0340 C   0  0  0  0  0  0  0  0  0  0  0  0
   51.9020   29.7580   53.4900 C   0  0  0  0  0  0  0  0  0  0  0  0
   51.0420   30.7580   53.0270 C   0  0  0  0  0  0  0  0  0  0  0  0
   51.5030   31.7070   52.1070 C   0  0  0  0  0  0  0  0  0  0  0  0
   50.6480   32.7020   51.6480 O   0  0  0  0  0  0  0  0  0  0  0  0
   52.8240   31.6540   51.6490 C   0  0  0  0  0  0  0  0  0  0  0  0
   57.0450   29.8400   52.8790 C   0  0  0  0  0  0  0  0  0  0  0  0
   57.9580   29.4930   51.6800 C   0  0  0  0  0  0  0  0  0  0  0  0
   59.5750   31.2360   48.5500 C   0  0  0  0  0  0  0  0  0  0  0  0
   61.1660   33.7080   47.4930 C   0  0  0  0  0  0  0  0  0  0  0  0
   61.1460   34.1920   48.8120 C   0  0  0  0  0  0  0  0  0  0  0  0
   62.2860   34.1150   49.6160 C   0  0  0  0  0  0  0  0  0  0  0  0
   63.4760   33.5460   49.1250 C   0  0  0  0  0  0  0  0  0  0  0  0
   64.6850   33.4510   49.9860 C   0  0  0  0  0  0  0  0  0  0  0  0
   64.8920   34.0320   51.2240 C   0  0  0  0  0  0  0  0  0  0  0  0
   66.1100   33.6860   51.6830 N   0  0  0  0  0  0  0  0  0  0  0  0
   66.6920   32.9090   50.7830 N   0  0  0  0  0  0  0  0  0  0  0  0
   65.8520   32.7490   49.7430 C   0  0  0  0  0  0  0  0  0  0  0  0
   63.4940   33.0640   47.8030 C   0  0  0  0  0  0  0  0  0  0  0  0
   62.3530   33.1420   46.9990 C   0  0  0  0  0  0  0  0  0  0  0  0
   58.5642   30.3700   45.3986 H   0  0  0  0  0  0  0  0  0  0  0  0
   58.7243   28.0972   46.4073 H   0  0  0  0  0  0  0  0  0  0  0  0
   59.4331   27.8240   48.7799 H   0  0  0  0  0  0  0  0  0  0  0  0
   60.2989   28.7229   50.7594 H   0  0  0  0  0  0  0  0  0  0  0  0
   61.0835   30.3696   50.6696 H   0  0  0  0  0  0  0  0  0  0  0  0
   59.9783   32.2802   51.3968 H   0  0  0  0  0  0  0  0  0  0  0  0
   58.4244   31.9901   50.5034 H   0  0  0  0  0  0  0  0  0  0  0  0
   58.4703   31.8035   53.5080 H   0  0  0  0  0  0  0  0  0  0  0  0
   58.4453   33.4342   52.6559 H   0  0  0  0  0  0  0  0  0  0  0  0
   56.2126   32.9660   53.1989 H   0  0  0  0  0  0  0  0  0  0  0  0
   56.4394   32.5891   51.4157 H   0  0  0  0  0  0  0  0  0  0  0  0
   55.2102   31.2704   50.7397 H   0  0  0  0  0  0  0  0  0  0  0  0
   55.3042   29.5437   51.2675 H   0  0  0  0  0  0  0  0  0  0  0  0
   53.8947   28.9118   53.3986 H   0  0  0  0  0  0  0  0  0  0  0  0
   51.5393   29.0139   54.2144 H   0  0  0  0  0  0  0  0  0  0  0  0
   50.0029   30.7992   53.3856 H   0  0  0  0  0  0  0  0  0  0  0  0
   53.1832   32.3997   50.9245 H   0  0  0  0  0  0  0  0  0  0  0  0
   57.6872   30.1278   53.7244 H   0  0  0  0  0  0  0  0  0  0  0  0
   56.4407   28.9419   53.0744 H   0  0  0  0  0  0  0  0  0  0  0  0
   58.2748   28.4451   51.7879 H   0  0  0  0  0  0  0  0  0  0  0  0
   57.3574   29.6854   50.7788 H   0  0  0  0  0  0  0  0  0  0  0  0
   59.7782   32.1247   49.1656 H   0  0  0  0  0  0  0  0  0  0  0  0
   60.2239   34.6358   49.2154 H   0  0  0  0  0  0  0  0  0  0  0  0
   62.2531   34.5035   50.6446 H   0  0  0  0  0  0  0  0  0  0  0  0
   64.1735   34.6765   51.7517 H   0  0  0  0  0  0  0  0  0  0  0  0
   66.0608   32.1537   48.8419 H   0  0  0  0  0  0  0  0  0  0  0  0
   64.4158   32.6211   47.3979 H   0  0  0  0  0  0  0  0  0  0  0  0
   62.3850   32.7563   45.9693 H   0  0  0  0  0  0  0  0  0  0  0  0
  1  2  2  0
  2  3  1  0
  3  4  1  0
  4  5  2  0
  5  6  1  0
  6  7  2  0
  7  8  1  0
  8  9  1  0
  9 10  1  0
 10 11  1  0
 11 12  1  0
 12 13  1  0
 13 14  1  0
 14 15  1  0
 15 16  1  0
 16 17  2  0
 17 18  1  0
 18 19  2  0
 19 20  1  0
 20 21  1  0
 20 22  2  0
 14 23  1  0
 23 24  1  0
  8 25  2  0
  2 26  1  0
 26 27  2  0
 27 28  1  0
 28 29  2  0
 29 30  1  0
 30 31  1  0
 31 32  2  0
 32 33  1  0
 33 34  1  0
 29 35  1  0
 35 36  2  0
 25  4  1  0
 36 26  1  0
 24 10  1  0
 34 30  2  0
 22 16  1  0
  5 37  1  0
  6 38  1  0
  7 39  1  0
  9 40  1  0
  9 41  1  0
 11 42  1  0
 11 43  1  0
 12 44  1  0
 12 45  1  0
 13 46  1  0
 13 47  1  0
 15 48  1  0
 15 49  1  0
 17 50  1  0
 18 51  1  0
 19 52  1  0
 22 53  1  0
 23 54  1  0
 23 55  1  0
 24 56  1  0
 24 57  1  0
 25 58  1  0
 27 59  1  0
 28 60  1  0
 31 61  1  0
 34 62  1  0
 35 63  1  0
 36 64  1  0
M  CHG  3   3  -1  21  -1  33  -1
M  END
>  <UniqueID>  (53) 
51

>  <SMILES>  (53) 
O=C([N-]c1cccc(CN2CCCN(Cc3cccc([O-])c3)CC2)c1)c1ccc(-c2cn[n-]c2)cc1

>  <Energy>  (53) 
129.92240471161233

>  <Genealogy>  (53) 
O=C([N-]c1cccc(CN2CCCN(Cc3cccc([O-])c3)CC2)c1)c1ccc(-c2cn[n-]c2)cc1 (protonated)
O=C([N-]c1cccc(CN2CCCN(Cc3cccc([O-])c3)CC2)c1)c1ccc(-c2cn[n-]c2)cc1 (3D coordinates assigned)
O=C([N-]c1cccc(CN2CCCN(Cc3cccc([O-])c3)CC2)c1)c1ccc(-c2cn[n-]c2)cc1 (nonaromatic ring conformer: 129.92240471161233 kcal/mol)

>  <smiles>  (53) 
O=C(Nc1cccc(CN2CCCN(Cc3cccc(O)c3)CC2)c1)c1ccc(-c2cn[nH]c2)cc1

>  <score_type>  (53) 
oracle

>  <origin>  (53) 
adg

>  <m_score__min__energy>  (53) 
-14.93

>  <m_primary>  (53) 
energy

$$$$
53:0
     RDKit          3D

 42 45  0  0  0  0  0  0  0  0999 V2000
   55.1430   27.5080   45.4170 H   0  0  0  0  0  0  0  0  0  0  0  0
   55.0470   26.6870   46.0020 O   0  0  0  0  0  0  0  0  0  0  0  0
   56.1630   25.9530   46.3950 C   0  0  0  0  0  0  0  0  0  0  0  0
   56.0190   24.6460   46.7390 N   0  0  0  0  0  0  0  0  0  0  0  0
   57.0890   23.8900   47.0920 C   0  0  0  0  0  0  0  0  0  0  0  0
   56.9300   22.6840   47.4100 O   0  0  0  0  0  0  0  0  0  0  0  0
   58.3330   24.4340   47.0940 N   0  0  0  0  0  0  0  0  0  0  0  0
   58.5320   25.7350   46.7600 C   0  0  0  0  0  0  0  0  0  0  0  0
   59.7010   26.2040   46.7700 O   0  0  0  0  0  0  0  0  0  0  0  0
   57.4370   26.5450   46.4190 C   0  0  0  0  0  0  0  0  0  0  0  0
   57.6440   27.9590   46.0300 C   0  0  0  0  0  0  0  0  0  0  0  0
   57.1340   28.3312   45.1292 H   0  0  0  0  0  0  0  0  0  0  0  0
   58.4230   28.8130   46.7200 C   0  0  0  0  0  0  0  0  0  0  0  0
   58.5370   28.8840   48.1030 C   0  0  0  0  0  0  0  0  0  0  0  0
   57.9918   28.2756   48.8397 H   0  0  0  0  0  0  0  0  0  0  0  0
   59.4680   29.8670   48.3720 C   0  0  0  0  0  0  0  0  0  0  0  0
   59.8970   30.2860   49.7440 C   0  0  0  0  0  0  0  0  0  0  0  0
   59.3222   29.7246   50.4953 H   0  0  0  0  0  0  0  0  0  0  0  0
   60.9695   30.0781   49.8723 H   0  0  0  0  0  0  0  0  0  0  0  0
   59.7144   31.3631   49.8723 H   0  0  0  0  0  0  0  0  0  0  0  0
   59.9340   30.4020   47.2220 N   0  0  0  0  0  0  0  0  0  0  0  0
   60.8940   31.4700   47.1230 C   0  0  0  0  0  0  0  0  0  0  0  0
   62.2350   31.2060   47.4410 C   0  0  0  0  0  0  0  0  0  0  0  0
   62.5407   30.1834   47.7070 H   0  0  0  0  0  0  0  0  0  0  0  0
   63.1840   32.2280   47.4230 C   0  0  0  0  0  0  0  0  0  0  0  0
   64.2331   32.0087   47.6707 H   0  0  0  0  0  0  0  0  0  0  0  0
   62.8030   33.5280   47.0910 C   0  0  0  0  0  0  0  0  0  0  0  0
   63.5508   34.3347   47.0844 H   0  0  0  0  0  0  0  0  0  0  0  0
   61.4740   33.8070   46.7670 C   0  0  0  0  0  0  0  0  0  0  0  0
   61.1806   34.8359   46.5114 H   0  0  0  0  0  0  0  0  0  0  0  0
   60.5060   32.7860   46.7640 C   0  0  0  0  0  0  0  0  0  0  0  0
   59.1140   33.1190   46.3800 C   0  0  0  0  0  0  0  0  0  0  0  0
   57.9850   33.1160   47.1740 C   0  0  0  0  0  0  0  0  0  0  0  0
   57.9604   32.8810   48.2483 H   0  0  0  0  0  0  0  0  0  0  0  0
   56.9190   33.4470   46.4220 N   0  0  0  0  0  0  0  0  0  0  0  0
   57.3250   33.6530   45.1780 N   0  0  0  0  0  0  0  0  0  0  0  0
   58.6550   33.4550   45.1230 C   0  0  0  0  0  0  0  0  0  0  0  0
   59.2768   33.5464   44.2202 H   0  0  0  0  0  0  0  0  0  0  0  0
   59.2990   29.7710   46.2020 C   0  0  0  0  0  0  0  0  0  0  0  0
   59.4810   30.0690   44.9070 C   0  0  0  0  0  0  0  0  0  0  0  0
   60.2029   30.8470   44.6178 H   0  0  0  0  0  0  0  0  0  0  0  0
   58.9084   29.5354   44.1341 H   0  0  0  0  0  0  0  0  0  0  0  0
  1  2  1  0
  2  3  1  0
  3  4  1  0
  4  5  1  0
  5  6  2  0
  5  7  1  0
  7  8  1  0
  8  9  2  0
  8 10  1  0
 10 11  1  0
 11 12  1  0
 11 13  2  0
 13 14  1  0
 14 15  1  0
 14 16  2  0
 16 17  1  0
 17 18  1  0
 17 19  1  0
 17 20  1  0
 16 21  1  0
 21 22  1  0
 22 23  2  0
 23 24  1  0
 23 25  1  0
 25 26  1  0
 25 27  2  0
 27 28  1  0
 27 29  1  0
 29 30  1  0
 29 31  2  0
 31 32  1  0
 32 33  1  0
 33 34  1  0
 33 35  2  0
 35 36  1  0
 36 37  1  0
 37 38  1  0
 21 39  1  0
 39 40  2  0
 40 41  1  0
 40 42  1  0
 10  3  2  0
 39 13  1  0
 31 22  1  0
 37 32  2  0
M  CHG  3   4  -1   7  -1  36  -1
M  END
>  <UniqueID>  (54) 
52

>  <SMILES>  (54) 
C=c1/c(=C/c2c(O)[n-]c(=O)[n-]c2=O)cc(C)n1-c1ccccc1-c1cn[n-]c1

>  <Energy>  (54) 
123.8549483512903

>  <Genealogy>  (54) 
C=c1c(=Cc2c(O)[n-]c(=O)[n-]c2=O)cc(C)n1-c1ccccc1-c1cn[n-]c1 (protonated)
C=c1/c(=C/c2c(O)[n-]c(=O)[n-]c2=O)cc(C)n1-c1ccccc1-c1cn[n-]c1 (cis-trans isomerization)
C=c1/c(=C/c2c(O)[n-]c(=O)[n-]c2=O)cc(C)n1-c1ccccc1-c1cn[n-]c1 (3D coordinates assigned)
C=c1/c(=C/c2c(O)[n-]c(=O)[n-]c2=O)cc(C)n1-c1ccccc1-c1cn[n-]c1 (optimized conformer: 123.8549483512903 kcal/mol)

>  <smiles>  (54) 
C=c1c(=Cc2c(O)[nH]c(=O)[nH]c2=O)cc(C)n1-c1ccccc1-c1cn[nH]c1

>  <score_type>  (54) 
oracle

>  <origin>  (54) 
adg

>  <m_score__min__energy>  (54) 
-14.470000000000001

>  <m_primary>  (54) 
energy

$$$$
54:0
     RDKit          3D

 35 37  0  0  0  0  0  0  0  0999 V2000
   56.6940   29.8250   42.7430 N   0  0  0  0  0  0  0  0  0  0  0  0
   56.5860   30.1710   44.1260 C   0  0  0  0  0  0  0  0  0  0  0  0
   55.4440   30.2370   44.6520 O   0  0  0  0  0  0  0  0  0  0  0  0
   57.7920   30.4690   44.9280 C   0  0  0  0  0  0  0  0  0  0  0  0
   58.1620   31.9750   45.5830 S   0  0  0  0  0  0  0  0  0  0  0  0
   59.5830   31.5240   46.3700 C   0  0  0  0  0  0  0  0  0  0  0  0
   60.4510   32.4270   47.1670 C   0  0  0  0  0  0  0  0  0  0  0  0
   59.8820   33.4400   47.9650 C   0  0  0  0  0  0  0  0  0  0  0  0
   60.6960   34.2910   48.7190 C   0  0  0  0  0  0  0  0  0  0  0  0
   62.0830   34.1440   48.6890 C   0  0  0  0  0  0  0  0  0  0  0  0
   62.6610   33.1420   47.9070 C   0  0  0  0  0  0  0  0  0  0  0  0
   61.8530   32.2870   47.1510 C   0  0  0  0  0  0  0  0  0  0  0  0
   59.7910   30.1680   46.1210 C   0  0  0  0  0  0  0  0  0  0  0  0
   58.7910   29.5760   45.3290 C   0  0  0  0  0  0  0  0  0  0  0  0
   58.8540   28.2090   44.8910 N   0  0  0  0  0  0  0  0  0  0  0  0
   58.0600   27.1520   45.4550 C   0  0  0  0  0  0  0  0  0  0  0  0
   58.6570   26.0460   46.0890 C   0  0  0  0  0  0  0  0  0  0  0  0
   57.8640   25.0400   46.6480 C   0  0  0  0  0  0  0  0  0  0  0  0
   56.4700   25.1330   46.5920 C   0  0  0  0  0  0  0  0  0  0  0  0
   55.8680   26.2380   45.9830 C   0  0  0  0  0  0  0  0  0  0  0  0
   54.4820   26.3340   45.9360 O   0  0  0  0  0  0  0  0  0  0  0  0
   56.6590   27.2460   45.4230 C   0  0  0  0  0  0  0  0  0  0  0  0
   57.6220   29.7410   42.2730 H   0  0  0  0  0  0  0  0  0  0  0  0
   55.8340   29.6340   42.1840 H   0  0  0  0  0  0  0  0  0  0  0  0
   58.7892   33.5620   47.9949 H   0  0  0  0  0  0  0  0  0  0  0  0
   60.2413   35.0787   49.3377 H   0  0  0  0  0  0  0  0  0  0  0  0
   62.7208   34.8169   49.2809 H   0  0  0  0  0  0  0  0  0  0  0  0
   63.7545   33.0249   47.8856 H   0  0  0  0  0  0  0  0  0  0  0  0
   62.3156   31.4988   46.5389 H   0  0  0  0  0  0  0  0  0  0  0  0
   60.6577   29.6123   46.5084 H   0  0  0  0  0  0  0  0  0  0  0  0
   59.5770   27.9560   44.1820 H   0  0  0  0  0  0  0  0  0  0  0  0
   59.7532   25.9731   46.1447 H   0  0  0  0  0  0  0  0  0  0  0  0
   58.3374   24.1735   47.1329 H   0  0  0  0  0  0  0  0  0  0  0  0
   55.8474   24.3372   47.0269 H   0  0  0  0  0  0  0  0  0  0  0  0
   56.1807   28.1186   44.9542 H   0  0  0  0  0  0  0  0  0  0  0  0
  1  2  1  0
  2  3  2  0
  2  4  1  0
  4  5  1  0
  5  6  1  0
  6  7  1  0
  7  8  2  0
  8  9  1  0
  9 10  2  0
 10 11  1  0
 11 12  2  0
  6 13  2  0
 13 14  1  0
 14 15  1  0
 15 16  1  0
 16 17  2  0
 17 18  1  0
 18 19  2  0
 19 20  1  0
 20 21  1  0
 20 22  2  0
 14  4  2  0
 22 16  1  0
 12  7  1  0
  1 23  1  0
  1 24  1  0
  8 25  1  0
  9 26  1  0
 10 27  1  0
 11 28  1  0
 12 29  1  0
 13 30  1  0
 15 31  1  0
 17 32  1  0
 18 33  1  0
 19 34  1  0
 22 35  1  0
M  CHG  1  21  -1
M  END
>  <UniqueID>  (55) 
53

>  <SMILES>  (55) 
NC(=O)c1sc(-c2ccccc2)cc1Nc1cccc([O-])c1

>  <Energy>  (55) 
70.89182337318158

>  <Genealogy>  (55) 
NC(=O)c1sc(-c2ccccc2)cc1Nc1cccc([O-])c1 (protonated)
NC(=O)c1sc(-c2ccccc2)cc1Nc1cccc([O-])c1 (3D coordinates assigned)
NC(=O)c1sc(-c2ccccc2)cc1Nc1cccc([O-])c1 (optimized conformer: 70.89182337318158 kcal/mol)

>  <smiles>  (55) 
NC(=O)c1sc(-c2ccccc2)cc1Nc1cccc(O)c1

>  <score_type>  (55) 
oracle

>  <origin>  (55) 
adg

>  <m_score__min__energy>  (55) 
-12.48

>  <m_primary>  (55) 
energy

$$$$
55:0
     RDKit          3D

 57 61  0  0  0  0  0  0  0  0999 V2000
   57.6710   32.3520   41.0260 C   0  0  0  0  0  0  0  0  0  0  0  0
   57.0900   32.0290   42.2860 O   0  0  0  0  0  0  0  0  0  0  0  0
   57.6990   32.2630   43.5320 C   0  0  0  0  0  0  0  0  0  0  0  0
   58.5150   33.3890   43.7500 C   0  0  0  0  0  0  0  0  0  0  0  0
   59.1440   33.5830   44.9800 C   0  0  0  0  0  0  0  0  0  0  0  0
   58.9600   32.6690   46.0230 C   0  0  0  0  0  0  0  0  0  0  0  0
   59.6460   32.8810   47.2680 N   0  0  0  0  0  0  0  0  0  0  0  0
   60.9020   32.2650   47.6100 C   0  0  0  0  0  0  0  0  0  0  0  0
   61.4790   31.5020   46.7890 O   0  0  0  0  0  0  0  0  0  0  0  0
   61.5360   32.5140   48.9240 C   0  0  0  0  0  0  0  0  0  0  0  0
   62.8250   32.0100   49.1750 C   0  0  0  0  0  0  0  0  0  0  0  0
   63.4460   32.2350   50.4070 C   0  0  0  0  0  0  0  0  0  0  0  0
   62.7840   32.9560   51.4030 C   0  0  0  0  0  0  0  0  0  0  0  0
   61.4960   33.4440   51.1740 C   0  0  0  0  0  0  0  0  0  0  0  0
   60.8670   33.2230   49.9430 C   0  0  0  0  0  0  0  0  0  0  0  0
   59.5890   33.6510   49.7760 F   0  0  0  0  0  0  0  0  0  0  0  0
   58.1630   31.5340   45.8090 C   0  0  0  0  0  0  0  0  0  0  0  0
   57.5110   31.3330   44.5800 C   0  0  0  0  0  0  0  0  0  0  0  0
   56.6640   30.1300   44.4110 C   0  0  0  0  0  0  0  0  0  0  0  0
   55.4390   30.1940   44.7060 O   0  0  0  0  0  0  0  0  0  0  0  0
   57.2250   28.8340   43.8870 C   0  0  0  0  0  0  0  0  0  0  0  0
   57.7030   28.0000   44.9890 N   0  0  0  0  0  0  0  0  0  0  0  0
   56.8960   27.2750   45.9020 C   0  0  0  0  0  0  0  0  0  0  0  0
   55.6780   27.0270   45.7050 O   0  0  0  0  0  0  0  0  0  0  0  0
   57.5850   26.8740   47.0820 N   0  0  0  0  0  0  0  0  0  0  0  0
   58.9480   27.4000   46.9760 C   0  0  2  0  0  0  0  0  0  0  0  0
   60.0100   26.2780   47.0710 C   0  0  0  0  0  0  0  0  0  0  0  0
   61.0350   26.7260   48.1320 C   0  0  0  0  0  0  0  0  0  0  0  0
   60.4240   27.9330   48.7440 C   0  0  0  0  0  0  0  0  0  0  0  0
   60.9230   28.6620   49.8250 C   0  0  0  0  0  0  0  0  0  0  0  0
   60.2150   29.7910   50.2640 C   0  0  0  0  0  0  0  0  0  0  0  0
   59.0270   30.1760   49.6160 C   0  0  0  0  0  0  0  0  0  0  0  0
   58.5450   29.4340   48.5270 C   0  0  0  0  0  0  0  0  0  0  0  0
   59.2660   28.3090   48.1060 C   0  0  0  0  0  0  0  0  0  0  0  0
   58.9540   28.1140   45.6530 C   0  0  0  0  0  0  0  0  0  0  0  0
   59.9340   28.7510   45.1840 O   0  0  0  0  0  0  0  0  0  0  0  0
   58.6222   32.8808   41.1856 H   0  0  0  0  0  0  0  0  0  0  0  0
   57.8561   31.4273   40.4597 H   0  0  0  0  0  0  0  0  0  0  0  0
   56.9833   32.9973   40.4597 H   0  0  0  0  0  0  0  0  0  0  0  0
   58.6580   34.1228   42.9431 H   0  0  0  0  0  0  0  0  0  0  0  0
   59.7893   34.4610   45.1308 H   0  0  0  0  0  0  0  0  0  0  0  0
   59.1600   33.4660   47.9850 H   0  0  0  0  0  0  0  0  0  0  0  0
   63.3479   31.4349   48.3966 H   0  0  0  0  0  0  0  0  0  0  0  0
   64.4572   31.8437   50.5921 H   0  0  0  0  0  0  0  0  0  0  0  0
   63.2776   33.1396   52.3687 H   0  0  0  0  0  0  0  0  0  0  0  0
   60.9737   34.0041   51.9636 H   0  0  0  0  0  0  0  0  0  0  0  0
   58.0470   30.7923   46.6130 H   0  0  0  0  0  0  0  0  0  0  0  0
   56.4384   28.2942   43.3393 H   0  0  0  0  0  0  0  0  0  0  0  0
   58.0688   29.0566   43.2174 H   0  0  0  0  0  0  0  0  0  0  0  0
   59.5368   25.3331   47.3764 H   0  0  0  0  0  0  0  0  0  0  0  0
   60.4955   26.1097   46.0984 H   0  0  0  0  0  0  0  0  0  0  0  0
   61.1843   25.9395   48.8864 H   0  0  0  0  0  0  0  0  0  0  0  0
   62.0261   26.9291   47.7002 H   0  0  0  0  0  0  0  0  0  0  0  0
   61.8547   28.3567   50.3237 H   0  0  0  0  0  0  0  0  0  0  0  0
   60.5896   30.3764   51.1167 H   0  0  0  0  0  0  0  0  0  0  0  0
   58.4745   31.0612   49.9641 H   0  0  0  0  0  0  0  0  0  0  0  0
   57.6184   29.7301   48.0135 H   0  0  0  0  0  0  0  0  0  0  0  0
  1  2  1  0
  2  3  1  0
  3  4  2  0
  4  5  1  0
  5  6  2  0
  6  7  1  0
  7  8  1  0
  8  9  2  0
  8 10  1  0
 10 11  2  0
 11 12  1  0
 12 13  2  0
 13 14  1  0
 14 15  2  0
 15 16  1  0
  6 17  1  0
 17 18  2  0
 18 19  1  0
 19 20  2  0
 19 21  1  0
 21 22  1  0
 22 23  1  0
 23 24  2  0
 23 25  1  0
 26 25  1  1
 26 27  1  0
 27 28  1  0
 28 29  1  0
 29 30  2  0
 30 31  1  0
 31 32  2  0
 32 33  1  0
 33 34  2  0
 26 35  1  0
 35 36  2  0
 18  3  1  0
 35 22  1  0
 15 10  1  0
 34 26  1  0
 34 29  1  0
  1 37  1  0
  1 38  1  0
  1 39  1  0
  4 40  1  0
  5 41  1  0
  7 42  1  0
 11 43  1  0
 12 44  1  0
 13 45  1  0
 14 46  1  0
 17 47  1  0
 21 48  1  0
 21 49  1  0
 27 50  1  0
 27 51  1  0
 28 52  1  0
 28 53  1  0
 30 54  1  0
 31 55  1  0
 32 56  1  0
 33 57  1  0
M  CHG  1  25  -1
M  END
>  <UniqueID>  (56) 
54

>  <SMILES>  (56) 
COc1ccc(NC(=O)c2ccccc2F)cc1C(=O)CN1C(=O)[N-][C@@]2(CCc3ccccc32)C1=O

>  <Energy>  (56) 
102.5679062933248

>  <Genealogy>  (56) 
COc1ccc(NC(=O)c2ccccc2F)cc1C(=O)CN1C(=O)[N-]C2(CCc3ccccc32)C1=O (protonated)
COc1ccc(NC(=O)c2ccccc2F)cc1C(=O)CN1C(=O)[N-][C@@]2(CCc3ccccc32)C1=O (chirality)
COc1ccc(NC(=O)c2ccccc2F)cc1C(=O)CN1C(=O)[N-][C@@]2(CCc3ccccc32)C1=O (3D coordinates assigned)
COc1ccc(NC(=O)c2ccccc2F)cc1C(=O)CN1C(=O)[N-][C@@]2(CCc3ccccc32)C1=O (nonaromatic ring conformer: 102.5679062933248 kcal/mol)

>  <smiles>  (56) 
COc1ccc(NC(=O)c2ccccc2F)cc1C(=O)CN1C(=O)NC2(CCc3ccccc32)C1=O

>  <score_type>  (56) 
oracle

>  <origin>  (56) 
adg

>  <m_score__min__energy>  (56) 
-10.949999999999999

>  <m_primary>  (56) 
energy

$$$$
56:0
     RDKit          3D

 62 64  0  0  0  0  0  0  0  0999 V2000
   56.6410   21.9660   42.6210 C   0  0  0  0  0  0  0  0  0  0  0  0
   57.6710   21.5080   43.3390 C   0  0  0  0  0  0  0  0  0  0  0  0
   57.7530   21.7240   44.8270 C   0  0  0  0  0  0  0  0  0  0  0  0
   56.9200   22.8720   45.2630 N   0  0  0  0  0  0  0  0  0  0  0  0
   55.5600   22.7310   45.4600 C   0  0  0  0  0  0  0  0  0  0  0  0
   54.9400   21.4670   45.5150 O   0  0  0  0  0  0  0  0  0  0  0  0
   54.9780   20.5520   46.6190 C   0  0  0  0  0  0  0  0  0  0  0  0
   55.5890   21.1650   47.8830 C   0  0  0  0  0  0  0  0  0  0  0  0
   54.7290   23.8690   45.5740 C   0  0  0  0  0  0  0  0  0  0  0  0
   53.2160   23.6930   45.5450 C   0  0  0  0  0  0  0  0  0  0  0  0
   52.5960   23.9170   44.1520 C   0  0  0  0  0  0  0  0  0  0  0  0
   51.0680   24.0920   44.1620 C   0  0  0  0  0  0  0  0  0  0  0  0
   50.5630   24.8300   42.9230 C   0  0  0  0  0  0  0  0  0  0  0  0
   55.3320   25.1430   45.6790 C   0  0  0  0  0  0  0  0  0  0  0  0
   54.5880   26.3150   45.8540 O   0  0  0  0  0  0  0  0  0  0  0  0
   56.7280   25.2520   45.6320 C   0  0  0  0  0  0  0  0  0  0  0  0
   57.3750   26.5750   45.7980 C   0  0  0  0  0  0  0  0  0  0  0  0
   58.4690   26.6510   46.4940 N   0  0  0  0  0  0  0  0  0  0  0  0
   59.3180   28.1260   46.7650 S   0  0  0  0  0  0  0  0  0  0  0  0
   59.2450   28.4920   48.2200 O   0  0  0  0  0  0  0  0  0  0  0  0
   60.7500   27.9670   46.3370 O   0  0  0  0  0  0  0  0  0  0  0  0
   58.5430   29.3570   45.8040 C   0  0  0  0  0  0  0  0  0  0  0  0
   59.1000   30.6380   45.7220 C   0  0  0  0  0  0  0  0  0  0  0  0
   58.4890   31.6280   44.9440 C   0  0  0  0  0  0  0  0  0  0  0  0
   59.1060   32.9210   44.8780 N   0  0  0  0  0  0  0  0  0  0  0  0
   58.5700   34.3470   45.7080 S   0  0  0  0  0  0  0  0  0  0  0  0
   58.8930   34.2010   47.4550 C   0  0  0  0  0  0  0  0  0  0  0  0
   57.0880   34.4950   45.5060 O   0  0  0  0  0  0  0  0  0  0  0  0
   59.2570   35.5630   45.1500 O   0  0  0  0  0  0  0  0  0  0  0  0
   57.2990   31.3260   44.2610 C   0  0  0  0  0  0  0  0  0  0  0  0
   56.7430   30.0460   44.3480 C   0  0  0  0  0  0  0  0  0  0  0  0
   57.3620   29.0480   45.1160 C   0  0  0  0  0  0  0  0  0  0  0  0
   56.7780   27.7320   45.1720 N   0  0  0  0  0  0  0  0  0  0  0  0
   57.5070   24.1080   45.4040 C   0  0  0  0  0  0  0  0  0  0  0  0
   58.7610   24.2350   45.3090 O   0  0  0  0  0  0  0  0  0  0  0  0
   56.6075   21.7934   41.5351 H   0  0  0  0  0  0  0  0  0  0  0  0
   55.8267   22.5156   43.1159 H   0  0  0  0  0  0  0  0  0  0  0  0
   58.4782   20.9601   42.8308 H   0  0  0  0  0  0  0  0  0  0  0  0
   57.4031   20.8153   45.3387 H   0  0  0  0  0  0  0  0  0  0  0  0
   58.7998   21.9436   45.0839 H   0  0  0  0  0  0  0  0  0  0  0  0
   53.9499   20.2331   46.8457 H   0  0  0  0  0  0  0  0  0  0  0  0
   55.6145   19.7051   46.3230 H   0  0  0  0  0  0  0  0  0  0  0  0
   55.1312   20.7057   48.7715 H   0  0  0  0  0  0  0  0  0  0  0  0
   56.6734   20.9807   47.8926 H   0  0  0  0  0  0  0  0  0  0  0  0
   55.4012   22.2488   47.8926 H   0  0  0  0  0  0  0  0  0  0  0  0
   52.9785   22.6696   45.8710 H   0  0  0  0  0  0  0  0  0  0  0  0
   52.7895   24.4546   46.2144 H   0  0  0  0  0  0  0  0  0  0  0  0
   53.0440   24.8225   43.7167 H   0  0  0  0  0  0  0  0  0  0  0  0
   52.8063   23.0118   43.5635 H   0  0  0  0  0  0  0  0  0  0  0  0
   50.5979   23.0982   44.1984 H   0  0  0  0  0  0  0  0  0  0  0  0
   50.8029   24.6931   45.0443 H   0  0  0  0  0  0  0  0  0  0  0  0
   49.9669   25.7011   43.2326 H   0  0  0  0  0  0  0  0  0  0  0  0
   51.4205   25.1673   42.3222 H   0  0  0  0  0  0  0  0  0  0  0  0
   49.9380   24.1529   42.3222 H   0  0  0  0  0  0  0  0  0  0  0  0
   54.3460   26.7130   46.7470 H   0  0  0  0  0  0  0  0  0  0  0  0
   60.0240   30.8684   46.2726 H   0  0  0  0  0  0  0  0  0  0  0  0
   58.0333   34.5896   48.0206 H   0  0  0  0  0  0  0  0  0  0  0  0
   59.0526   33.1432   47.7112 H   0  0  0  0  0  0  0  0  0  0  0  0
   59.7925   34.7801   47.7112 H   0  0  0  0  0  0  0  0  0  0  0  0
   56.8030   32.0991   43.6558 H   0  0  0  0  0  0  0  0  0  0  0  0
   55.8112   29.8192   43.8091 H   0  0  0  0  0  0  0  0  0  0  0  0
   55.8880   27.5790   44.6450 H   0  0  0  0  0  0  0  0  0  0  0  0
  1  2  2  0
  2  3  1  0
  3  4  1  0
  4  5  1  0
  5  6  1  0
  6  7  1  0
  7  8  1  0
  5  9  2  0
  9 10  1  0
 10 11  1  0
 11 12  1  0
 12 13  1  0
  9 14  1  0
 14 15  1  0
 14 16  2  0
 16 17  1  0
 17 18  2  0
 18 19  1  0
 19 20  2  0
 19 21  2  0
 19 22  1  0
 22 23  2  0
 23 24  1  0
 24 25  1  0
 25 26  1  0
 26 27  1  0
 26 28  2  0
 26 29  2  0
 24 30  2  0
 30 31  1  0
 31 32  2  0
 32 33  1  0
 16 34  1  0
 34 35  2  0
 34  4  1  0
 33 17  1  0
 32 22  1  0
  1 36  1  0
  1 37  1  0
  2 38  1  0
  3 39  1  0
  3 40  1  0
  7 41  1  0
  7 42  1  0
  8 43  1  0
  8 44  1  0
  8 45  1  0
 10 46  1  0
 10 47  1  0
 11 48  1  0
 11 49  1  0
 12 50  1  0
 12 51  1  0
 13 52  1  0
 13 53  1  0
 13 54  1  0
 15 55  1  0
 23 56  1  0
 27 57  1  0
 27 58  1  0
 27 59  1  0
 30 60  1  0
 31 61  1  0
 33 62  1  0
M  CHG  1  25  -1
M  END
>  <UniqueID>  (57) 
55

>  <SMILES>  (57) 
C=CCn1c(OCC)c(CCCC)c(O)c(C2=NS(=O)(=O)c3cc([N-]S(C)(=O)=O)ccc3N2)c1=O

>  <Energy>  (57) 
82.8042289469263

>  <Genealogy>  (57) 
C=CCn1c(OCC)c(CCCC)c(O)c(C2=NS(=O)(=O)c3cc([N-]S(C)(=O)=O)ccc3N2)c1=O (protonated)
C=CCn1c(OCC)c(CCCC)c(O)c(C2=NS(=O)(=O)c3cc([N-]S(C)(=O)=O)ccc3N2)c1=O (3D coordinates assigned)
C=CCn1c(OCC)c(CCCC)c(O)c(C2=NS(=O)(=O)c3cc([N-]S(C)(=O)=O)ccc3N2)c1=O (nonaromatic ring conformer: 82.8042289469263 kcal/mol)

>  <smiles>  (57) 
C=CCn1c(OCC)c(CCCC)c(O)c(C2=NS(=O)(=O)c3cc(NS(C)(=O)=O)ccc3N2)c1=O

>  <score_type>  (57) 
oracle

>  <origin>  (57) 
adg

>  <m_score__min__energy>  (57) 
-10.76

>  <m_primary>  (57) 
energy

$$$$
57:0
     RDKit          3D

 49 51  0  0  0  0  0  0  0  0999 V2000
   63.6030   33.8830   51.0390 C   0  0  0  0  0  0  0  0  0  0  0  0
   63.7160   32.7590   50.0010 C   0  0  0  0  0  0  0  0  0  0  0  0
   65.1860   32.4270   49.7170 C   0  0  0  0  0  0  0  0  0  0  0  0
   62.9710   33.1200   48.7200 C   0  0  0  0  0  0  0  0  0  0  0  0
   63.7110   33.4010   47.5550 C   0  0  0  0  0  0  0  0  0  0  0  0
   63.0770   33.8240   46.3940 C   0  0  0  0  0  0  0  0  0  0  0  0
   61.6970   33.9950   46.3710 C   0  0  0  0  0  0  0  0  0  0  0  0
   60.9150   33.7250   47.5080 C   0  0  0  0  0  0  0  0  0  0  0  0
   59.4090   33.9540   47.4140 C   0  0  0  0  0  0  0  0  0  0  0  0
   58.6050   32.6870   47.7330 C   0  0  0  0  0  0  0  0  0  0  0  0
   59.0000   34.5610   46.0660 C   0  0  0  0  0  0  0  0  0  0  0  0
   61.5550   33.2460   48.6820 C   0  0  0  0  0  0  0  0  0  0  0  0
   60.7680   32.9170   49.8340 N   0  0  0  0  0  0  0  0  0  0  0  0
   60.5510   31.5770   50.2820 C   0  0  0  0  0  0  0  0  0  0  0  0
   60.0000   31.3700   51.3970 O   0  0  0  0  0  0  0  0  0  0  0  0
   60.9850   30.4920   49.4500 N   0  0  0  0  0  0  0  0  0  0  0  0
   60.2570   29.7570   48.6610 C   0  0  0  0  0  0  0  0  0  0  0  0
   59.5110   28.7330   49.1280 N   0  0  0  0  0  0  0  0  0  0  0  0
   58.8390   28.0970   48.1320 C   0  0  0  0  0  0  0  0  0  0  0  0
   59.0420   28.6260   46.8630 C   0  0  0  0  0  0  0  0  0  0  0  0
   58.4900   28.0790   45.5860 C   0  0  0  0  0  0  0  0  0  0  0  0
   57.3610   27.1420   45.8770 C   0  0  0  0  0  0  0  0  0  0  0  0
   57.5310   25.5550   46.4180 S   0  0  0  0  0  0  0  0  0  0  0  0
   55.8750   25.2760   46.3710 C   0  0  0  0  0  0  0  0  0  0  0  0
   55.3300   24.1880   46.6930 O   0  0  0  0  0  0  0  0  0  0  0  0
   55.1770   26.3480   45.9420 N   0  0  0  0  0  0  0  0  0  0  0  0
   56.0070   27.3860   45.6590 C   0  0  0  0  0  0  0  0  0  0  0  0
   55.5230   28.5970   45.1810 O   0  0  0  0  0  0  0  0  0  0  0  0
   60.1160   29.9150   46.9840 S   0  0  0  0  0  0  0  0  0  0  0  0
   63.6462   33.4535   52.0507 H   0  0  0  0  0  0  0  0  0  0  0  0
   64.4345   34.5906   50.9053 H   0  0  0  0  0  0  0  0  0  0  0  0
   62.6473   34.4109   50.9053 H   0  0  0  0  0  0  0  0  0  0  0  0
   63.2417   31.8583   50.4179 H   0  0  0  0  0  0  0  0  0  0  0  0
   65.7248   32.3053   50.6682 H   0  0  0  0  0  0  0  0  0  0  0  0
   65.2459   31.4927   49.1395 H   0  0  0  0  0  0  0  0  0  0  0  0
   65.6417   33.2449   49.1395 H   0  0  0  0  0  0  0  0  0  0  0  0
   64.8047   33.2840   47.5648 H   0  0  0  0  0  0  0  0  0  0  0  0
   63.6689   34.0246   45.4888 H   0  0  0  0  0  0  0  0  0  0  0  0
   61.2100   34.3467   45.4495 H   0  0  0  0  0  0  0  0  0  0  0  0
   59.1594   34.6928   48.1898 H   0  0  0  0  0  0  0  0  0  0  0  0
   58.5284   32.5663   48.8237 H   0  0  0  0  0  0  0  0  0  0  0  0
   57.5967   32.7744   47.3020 H   0  0  0  0  0  0  0  0  0  0  0  0
   59.1134   31.8119   47.3020 H   0  0  0  0  0  0  0  0  0  0  0  0
   58.3929   35.4619   46.2387 H   0  0  0  0  0  0  0  0  0  0  0  0
   59.9017   34.8301   45.4963 H   0  0  0  0  0  0  0  0  0  0  0  0
   58.4120   33.8263   45.4963 H   0  0  0  0  0  0  0  0  0  0  0  0
   58.1857   27.2314   48.3161 H   0  0  0  0  0  0  0  0  0  0  0  0
   58.1239   28.9081   44.9626 H   0  0  0  0  0  0  0  0  0  0  0  0
   59.2835   27.5342   45.0535 H   0  0  0  0  0  0  0  0  0  0  0  0
  1  2  1  0
  2  3  1  0
  2  4  1  0
  4  5  2  0
  5  6  1  0
  6  7  2  0
  7  8  1  0
  8  9  1  0
  9 10  1  0
  9 11  1  0
  8 12  2  0
 12 13  1  0
 13 14  1  0
 14 15  2  0
 14 16  1  0
 16 17  2  3
 17 18  1  0
 18 19  1  0
 19 20  2  0
 20 21  1  0
 21 22  1  0
 22 23  1  0
 23 24  1  0
 24 25  2  0
 24 26  1  0
 26 27  1  0
 27 28  1  0
 20 29  1  0
 12  4  1  0
 29 17  1  0
 27 22  2  0
  1 30  1  0
  1 31  1  0
  1 32  1  0
  2 33  1  0
  3 34  1  0
  3 35  1  0
  3 36  1  0
  5 37  1  0
  6 38  1  0
  7 39  1  0
  9 40  1  0
 10 41  1  0
 10 42  1  0
 10 43  1  0
 11 44  1  0
 11 45  1  0
 11 46  1  0
 19 47  1  0
 21 48  1  0
 21 49  1  0
M  CHG  4  13  -1  18  -1  26  -1  28  -1
M  END
>  <UniqueID>  (58) 
56

>  <SMILES>  (58) 
CC(C)c1cccc(C(C)C)c1[N-]C(=O)N=c1[n-]cc(Cc2sc(=O)[n-]c2[O-])s1

>  <Energy>  (58) 
116.74590082208792

>  <Genealogy>  (58) 
CC(C)c1cccc(C(C)C)c1[N-]C(=O)N=c1[n-]cc(Cc2sc(=O)[n-]c2[O-])s1 (protonated)
CC(C)c1cccc(C(C)C)c1[N-]C(=O)N=c1[n-]cc(Cc2sc(=O)[n-]c2[O-])s1 (3D coordinates assigned)
CC(C)c1cccc(C(C)C)c1[N-]C(=O)N=c1[n-]cc(Cc2sc(=O)[n-]c2[O-])s1 (optimized conformer: 116.74590082208792 kcal/mol)

>  <smiles>  (58) 
CC(C)c1cccc(C(C)C)c1NC(=O)N=c1[nH]cc(Cc2sc(=O)[nH]c2O)s1

>  <score_type>  (58) 
oracle

>  <origin>  (58) 
adg

>  <m_score__min__energy>  (58) 
-17.43

>  <m_primary>  (58) 
energy

$$$$
58:0
     RDKit          3D

 51 53  0  0  1  0  0  0  0  0999 V2000
   60.3430   27.2550   47.6420 C   0  0  0  0  0  0  0  0  0  0  0  0
   59.2360   27.4170   46.6890 C   0  0  0  0  0  0  0  0  0  0  0  0
   58.6110   28.6330   46.5860 C   0  0  0  0  0  0  0  0  0  0  0  0
   57.5780   28.7360   45.6770 C   0  0  0  0  0  0  0  0  0  0  0  0
   56.9750   29.8750   45.5670 N   0  0  0  0  0  0  0  0  0  0  0  0
   56.4250   30.1410   44.2450 C   0  0  0  0  0  0  0  0  0  0  0  0
   55.3320   29.6130   44.0560 O   0  0  0  0  0  0  0  0  0  0  0  0
   57.2360   30.9600   43.4040 C   0  0  0  0  0  0  0  0  0  0  0  0
   57.7160   32.1440   43.6640 C   0  0  0  0  0  0  0  0  0  0  0  0
   58.2660   32.6260   44.8910 C   0  0  0  0  0  0  0  0  0  0  0  0
   58.0410   33.9800   45.1730 C   0  0  0  0  0  0  0  0  0  0  0  0
   58.5770   34.5960   46.2690 C   0  0  0  0  0  0  0  0  0  0  0  0
   59.3780   33.9330   47.1730 C   0  0  0  0  0  0  0  0  0  0  0  0
   59.8960   34.6040   48.2700 O   0  0  0  0  0  0  0  0  0  0  0  0
   59.6160   32.6020   46.9160 C   0  0  0  0  0  0  0  0  0  0  0  0
   60.4700   31.8650   47.8730 C   0  0  0  0  0  0  0  0  0  0  0  0
   61.8730   31.9350   47.5670 N   0  0  0  0  0  0  0  0  0  0  0  0
   62.2030   33.0880   46.7500 C   0  0  0  0  0  0  0  0  0  0  0  0
   63.3860   33.8420   47.3430 C   0  0  0  0  0  0  0  0  0  0  0  0
   63.0140   34.2320   48.6250 O   0  0  0  0  0  0  0  0  0  0  0  0
   62.7610   33.1900   49.4820 C   0  0  0  0  0  0  0  0  0  0  0  0
   62.6460   31.8580   48.7640 C   0  0  0  0  0  0  0  0  0  0  0  0
   59.0640   31.9650   45.7850 C   0  0  0  0  0  0  0  0  0  0  0  0
   57.2300   27.6690   44.9450 N   0  0  0  0  0  0  0  0  0  0  0  0
   57.8590   26.4740   45.0590 C   0  0  0  0  0  0  0  0  0  0  0  0
   57.4410   25.3020   44.2230 C   0  0  0  0  0  0  0  0  0  0  0  0
   58.8720   26.3550   45.9440 N   0  0  0  0  0  0  0  0  0  0  0  0
   59.9538   27.3120   48.6693 H   0  0  0  0  0  0  0  0  0  0  0  0
   60.8218   26.2772   47.4850 H   0  0  0  0  0  0  0  0  0  0  0  0
   61.0819   28.0546   47.4850 H   0  0  0  0  0  0  0  0  0  0  0  0
   58.9200   29.4903   47.2020 H   0  0  0  0  0  0  0  0  0  0  0  0
   57.4864   30.5423   42.4177 H   0  0  0  0  0  0  0  0  0  0  0  0
   57.6947   32.8636   42.8323 H   0  0  0  0  0  0  0  0  0  0  0  0
   57.4112   34.5674   44.4886 H   0  0  0  0  0  0  0  0  0  0  0  0
   58.3607   35.6616   46.4357 H   0  0  0  0  0  0  0  0  0  0  0  0
   60.8690   34.4850   48.5230 H   0  0  0  0  0  0  0  0  0  0  0  0
   60.3117   32.2871   48.8764 H   0  0  0  0  0  0  0  0  0  0  0  0
   60.1801   30.8056   47.8134 H   0  0  0  0  0  0  0  0  0  0  0  0
   62.4609   32.7506   45.7353 H   0  0  0  0  0  0  0  0  0  0  0  0
   61.3333   33.7607   46.7168 H   0  0  0  0  0  0  0  0  0  0  0  0
   64.2683   33.1867   47.3879 H   0  0  0  0  0  0  0  0  0  0  0  0
   63.6466   34.7144   46.7258 H   0  0  0  0  0  0  0  0  0  0  0  0
   63.5816   33.1270   50.2118 H   0  0  0  0  0  0  0  0  0  0  0  0
   61.7963   33.3885   49.9719 H   0  0  0  0  0  0  0  0  0  0  0  0
   63.6573   31.5101   48.5065 H   0  0  0  0  0  0  0  0  0  0  0  0
   62.1327   31.1613   49.4430 H   0  0  0  0  0  0  0  0  0  0  0  0
   59.2825   30.9003   45.6157 H   0  0  0  0  0  0  0  0  0  0  0  0
   56.4420   27.7500   44.2530 H   0  0  0  0  0  0  0  0  0  0  0  0
   57.1445   24.4706   44.8794 H   0  0  0  0  0  0  0  0  0  0  0  0
   56.5900   25.5894   43.5881 H   0  0  0  0  0  0  0  0  0  0  0  0
   58.2819   24.9860   43.5881 H   0  0  0  0  0  0  0  0  0  0  0  0
  1  2  1  0
  2  3  2  0
  3  4  1  0
  4  5  2  0
  5  6  1  0
  6  7  2  0
  6  8  1  0
  8  9  2  0
  9 10  1  0
 10 11  2  0
 11 12  1  0
 12 13  2  0
 13 14  1  0
 13 15  1  0
 15 16  1  0
 16 17  1  0
 17 18  1  0
 18 19  1  0
 19 20  1  0
 20 21  1  0
 21 22  1  0
 15 23  2  0
  4 24  1  0
 24 25  1  0
 25 26  1  0
 25 27  2  0
 27  2  1  0
 23 10  1  0
 22 17  1  0
  1 28  1  0
  1 29  1  0
  1 30  1  0
  3 31  1  0
  8 32  1  0
  9 33  1  0
 11 34  1  0
 12 35  1  0
 14 36  1  0
 16 37  1  0
 16 38  1  0
 18 39  1  0
 18 40  1  0
 19 41  1  0
 19 42  1  0
 21 43  1  0
 21 44  1  0
 22 45  1  0
 22 46  1  0
 23 47  1  0
 24 48  1  0
 26 49  1  0
 26 50  1  0
 26 51  1  0
M  END
>  <smiles>  (59) 
Cc1cc(=NC(=O)C=Cc2ccc(O)c(CN3CCOCC3)c2)[nH]c(C)n1

>  <score_type>  (59) 
oracle

>  <origin>  (59) 
adg

>  <m_score__min__energy>  (59) 
-8.9100000000000001

>  <m_primary>  (59) 
energy

$$$$
59:0
     RDKit          3D

 31 32  0  0  0  0  0  0  0  0999 V2000
   61.0112   29.4723   48.2376 H   0  0  0  0  0  0  0  0  0  0  0  0
   60.6870   30.2270   47.5060 C   0  0  0  0  0  0  0  0  0  0  0  0
   61.1756   31.2122   47.4789 H   0  0  0  0  0  0  0  0  0  0  0  0
   59.7030   29.9480   46.6530 C   0  0  0  0  0  0  0  0  0  0  0  0
   59.2110   30.8090   45.6940 C   0  0  0  0  0  0  0  0  0  0  0  0
   59.5465   31.8378   45.4965 H   0  0  0  0  0  0  0  0  0  0  0  0
   58.2080   30.1180   45.0280 C   0  0  0  0  0  0  0  0  0  0  0  0
   57.4260   30.6170   43.8300 C   0  0  0  0  0  0  0  0  0  0  0  0
   57.7183   30.0086   42.9615 H   0  0  0  0  0  0  0  0  0  0  0  0
   57.7680   32.0830   43.5530 C   0  0  0  0  0  0  0  0  0  0  0  0
   57.8926   32.6170   44.5066 H   0  0  0  0  0  0  0  0  0  0  0  0
   58.7033   32.1387   42.9767 H   0  0  0  0  0  0  0  0  0  0  0  0
   56.9540   32.5468   42.9767 H   0  0  0  0  0  0  0  0  0  0  0  0
   55.9130   30.4390   44.0170 C   0  0  0  0  0  0  0  0  0  0  0  0
   55.6770   30.4112   45.0910 H   0  0  0  0  0  0  0  0  0  0  0  0
   55.3839   31.2811   43.5470 H   0  0  0  0  0  0  0  0  0  0  0  0
   55.5938   29.4971   43.5470 H   0  0  0  0  0  0  0  0  0  0  0  0
   58.1580   28.8490   45.6060 C   0  0  0  0  0  0  0  0  0  0  0  0
   57.3720   27.8320   45.2070 C   0  0  0  0  0  0  0  0  0  0  0  0
   56.7910   27.9550   44.2811 H   0  0  0  0  0  0  0  0  0  0  0  0
   57.2480   26.5570   45.9480 C   0  0  0  0  0  0  0  0  0  0  0  0
   55.9950   26.0360   46.3110 C   0  0  0  0  0  0  0  0  0  0  0  0
   54.8220   26.7110   45.9920 O   0  0  0  0  0  0  0  0  0  0  0  0
   55.9200   24.8490   46.9680 N   0  0  0  0  0  0  0  0  0  0  0  0
   57.0380   24.1410   47.2660 C   0  0  0  0  0  0  0  0  0  0  0  0
   56.9450   23.0450   47.8770 O   0  0  0  0  0  0  0  0  0  0  0  0
   58.2580   24.6100   46.8990 N   0  0  0  0  0  0  0  0  0  0  0  0
   58.3870   25.7910   46.2420 C   0  0  0  0  0  0  0  0  0  0  0  0
   59.5350   26.1930   45.9130 O   0  0  0  0  0  0  0  0  0  0  0  0
   59.0670   28.7620   46.6030 N   0  0  0  0  0  0  0  0  0  0  0  0
   59.2850   27.9270   47.1930 H   0  0  0  0  0  0  0  0  0  0  0  0
  1  2  1  0
  2  3  1  0
  2  4  2  0
  4  5  1  0
  5  6  1  0
  5  7  2  0
  7  8  1  0
  8  9  1  0
  8 10  1  0
 10 11  1  0
 10 12  1  0
 10 13  1  0
  8 14  1  0
 14 15  1  0
 14 16  1  0
 14 17  1  0
  7 18  1  0
 18 19  2  0
 19 20  1  0
 19 21  1  0
 21 22  2  0
 22 23  1  0
 22 24  1  0
 24 25  1  0
 25 26  2  0
 25 27  1  0
 27 28  1  0
 28 29  2  0
 18 30  1  0
 30 31  1  0
 30  4  1  0
 28 21  1  0
M  CHG  3  23  -1  24  -1  27  -1
M  END
>  <UniqueID>  (60) 
57

>  <SMILES>  (60) 
C=c1cc(C(C)C)/c(=C/c2c([O-])[n-]c(=O)[n-]c2=O)[nH]1

>  <Energy>  (60) 
62.68574581989019

>  <Genealogy>  (60) 
C=c1cc(C(C)C)c(=Cc2c([O-])[n-]c(=O)[n-]c2=O)[nH]1 (protonated)
C=c1cc(C(C)C)/c(=C/c2c([O-])[n-]c(=O)[n-]c2=O)[nH]1 (cis-trans isomerization)
C=c1cc(C(C)C)/c(=C/c2c([O-])[n-]c(=O)[n-]c2=O)[nH]1 (3D coordinates assigned)
C=c1cc(C(C)C)/c(=C/c2c([O-])[n-]c(=O)[n-]c2=O)[nH]1 (optimized conformer: 62.68574581989019 kcal/mol)

>  <smiles>  (60) 
C=c1cc(C(C)C)c(=Cc2c(O)[nH]c(=O)[nH]c2=O)[nH]1

>  <score_type>  (60) 
oracle

>  <origin>  (60) 
adg

>  <m_score__min__energy>  (60) 
-13.869999999999999

>  <m_primary>  (60) 
energy

$$$$
60:0
     RDKit          3D

 49 51  0  0  0  0  0  0  0  0999 V2000
   51.0170   32.5840   49.3660 N   0  0  0  0  0  0  0  0  0  0  0  0
   51.2560   31.9110   50.4470 C   0  0  0  0  0  0  0  0  0  0  0  0
   51.9120   30.6720   50.3940 C   0  0  0  0  0  0  0  0  0  0  0  0
   52.1600   29.9790   51.5800 C   0  0  0  0  0  0  0  0  0  0  0  0
   51.7560   30.5210   52.8080 C   0  0  0  0  0  0  0  0  0  0  0  0
   52.0730   29.8130   54.0970 C   0  0  0  0  0  0  0  0  0  0  0  0
   53.5220   29.3140   54.1450 C   0  0  0  0  0  0  0  0  0  0  0  0
   54.4490   30.3870   53.9600 O   0  0  0  0  0  0  0  0  0  0  0  0
   55.5780   30.3860   53.1210 C   0  0  0  0  0  0  0  0  0  0  0  0
   56.6300   29.4620   53.2610 C   0  0  0  0  0  0  0  0  0  0  0  0
   57.7130   29.5110   52.3830 C   0  0  0  0  0  0  0  0  0  0  0  0
   57.7620   30.4880   51.3870 C   0  0  0  0  0  0  0  0  0  0  0  0
   59.1560   30.5890   50.3160 S   0  0  0  0  0  0  0  0  0  0  0  0
   59.4140   29.2560   49.6750 O   0  0  0  0  0  0  0  0  0  0  0  0
   60.3540   30.9770   51.1350 O   0  0  0  0  0  0  0  0  0  0  0  0
   58.9150   31.7900   49.0860 N   0  0  0  0  0  0  0  0  0  0  0  0
   58.7530   31.5140   47.6900 C   0  0  0  0  0  0  0  0  0  0  0  0
   58.6370   30.3190   47.3150 O   0  0  0  0  0  0  0  0  0  0  0  0
   58.7300   32.5840   46.6780 C   0  0  0  0  0  0  0  0  0  0  0  0
   59.6010   33.6760   46.8170 C   0  0  0  0  0  0  0  0  0  0  0  0
   59.6250   34.6850   45.8540 C   0  0  0  0  0  0  0  0  0  0  0  0
   58.7880   34.6070   44.7400 C   0  0  0  0  0  0  0  0  0  0  0  0
   57.9260   33.5190   44.5840 C   0  0  0  0  0  0  0  0  0  0  0  0
   57.8990   32.4860   45.5450 C   0  0  0  0  0  0  0  0  0  0  0  0
   57.0850   31.3500   45.3980 O   0  0  0  0  0  0  0  0  0  0  0  0
   57.1930   30.3830   44.3570 C   0  0  0  0  0  0  0  0  0  0  0  0
   56.4400   29.2640   44.6660 F   0  0  0  0  0  0  0  0  0  0  0  0
   58.5170   30.0250   44.1720 F   0  0  0  0  0  0  0  0  0  0  0  0
   56.7130   30.9320   43.1840 F   0  0  0  0  0  0  0  0  0  0  0  0
   56.7140   31.4090   51.2920 C   0  0  0  0  0  0  0  0  0  0  0  0
   55.6540   31.3320   52.1430 N   0  0  0  0  0  0  0  0  0  0  0  0
   51.0990   31.7600   52.8150 C   0  0  0  0  0  0  0  0  0  0  0  0
   50.8690   32.4150   51.6470 N   0  0  0  0  0  0  0  0  0  0  0  0
   51.7650   33.1040   48.8530 H   0  0  0  0  0  0  0  0  0  0  0  0
   52.2276   30.2511   49.4280 H   0  0  0  0  0  0  0  0  0  0  0  0
   52.6731   29.0064   51.5510 H   0  0  0  0  0  0  0  0  0  0  0  0
   51.9108   30.5098   54.9326 H   0  0  0  0  0  0  0  0  0  0  0  0
   51.4124   28.9366   54.1712 H   0  0  0  0  0  0  0  0  0  0  0  0
   53.7071   28.8455   55.1229 H   0  0  0  0  0  0  0  0  0  0  0  0
   53.6656   28.5879   53.3313 H   0  0  0  0  0  0  0  0  0  0  0  0
   56.5986   28.7051   54.0585 H   0  0  0  0  0  0  0  0  0  0  0  0
   58.5290   28.7792   52.4756 H   0  0  0  0  0  0  0  0  0  0  0  0
   60.2680   33.7364   47.6896 H   0  0  0  0  0  0  0  0  0  0  0  0
   60.3038   35.5424   45.9727 H   0  0  0  0  0  0  0  0  0  0  0  0
   58.8072   35.4046   43.9827 H   0  0  0  0  0  0  0  0  0  0  0  0
   57.2643   33.4671   43.7068 H   0  0  0  0  0  0  0  0  0  0  0  0
   56.7462   32.1986   50.5269 H   0  0  0  0  0  0  0  0  0  0  0  0
   54.8790   32.0260   52.0430 H   0  0  0  0  0  0  0  0  0  0  0  0
   50.7696   32.2019   53.7669 H   0  0  0  0  0  0  0  0  0  0  0  0
  1  2  2  3
  2  3  1  0
  3  4  2  0
  4  5  1  0
  5  6  1  0
  6  7  1  0
  7  8  1  0
  8  9  1  0
  9 10  2  0
 10 11  1  0
 11 12  2  0
 12 13  1  0
 13 14  2  0
 13 15  2  0
 13 16  1  0
 16 17  1  0
 17 18  2  0
 17 19  1  0
 19 20  2  0
 20 21  1  0
 21 22  2  0
 22 23  1  0
 23 24  2  0
 24 25  1  0
 25 26  1  0
 26 27  1  0
 26 28  1  0
 26 29  1  0
 12 30  1  0
 30 31  2  0
  5 32  2  0
 32 33  1  0
 33  2  1  0
 31  9  1  0
 24 19  1  0
  1 34  1  0
  3 35  1  0
  4 36  1  0
  6 37  1  0
  6 38  1  0
  7 39  1  0
  7 40  1  0
 10 41  1  0
 11 42  1  0
 20 43  1  0
 21 44  1  0
 22 45  1  0
 23 46  1  0
 30 47  1  0
 31 48  1  0
 32 49  1  0
M  CHG  3  16  -1  31   1  33  -1
M  END
>  <UniqueID>  (61) 
58

>  <SMILES>  (61) 
N=c1ccc(CCOc2ccc(S(=O)(=O)[N-]C(=O)c3ccccc3OC(F)(F)F)c[nH+]2)c[n-]1

>  <Energy>  (61) 
56.72211460670621

>  <Genealogy>  (61) 
N=c1ccc(CCOc2ccc(S(=O)(=O)[N-]C(=O)c3ccccc3OC(F)(F)F)c[nH+]2)c[n-]1 (protonated)
N=c1ccc(CCOc2ccc(S(=O)(=O)[N-]C(=O)c3ccccc3OC(F)(F)F)c[nH+]2)c[n-]1 (3D coordinates assigned)
N=c1ccc(CCOc2ccc(S(=O)(=O)[N-]C(=O)c3ccccc3OC(F)(F)F)c[nH+]2)c[n-]1 (optimized conformer: 56.72211460670621 kcal/mol)

>  <smiles>  (61) 
N=c1ccc(CCOc2ccc(S(=O)(=O)NC(=O)c3ccccc3OC(F)(F)F)cn2)c[nH]1

>  <score_type>  (61) 
oracle

>  <origin>  (61) 
adg

>  <m_score__min__energy>  (61) 
-11.029999999999999

>  <m_primary>  (61) 
energy

$$$$
61:0
     RDKit          3D

 61 65  0  0  0  0  0  0  0  0999 V2000
   55.1420   29.3690   44.8760 N   0  0  0  0  0  0  0  0  0  0  0  0
   56.7130   29.4730   44.1660 S   0  0  0  0  0  0  0  0  0  0  0  0
   56.5920   29.4020   42.6700 O   0  0  0  0  0  0  0  0  0  0  0  0
   57.5540   28.3190   44.6370 O   0  0  0  0  0  0  0  0  0  0  0  0
   57.4690   30.9940   44.6310 C   0  0  0  0  0  0  0  0  0  0  0  0
   57.5010   32.0680   43.7330 C   0  0  0  0  0  0  0  0  0  0  0  0
   58.1130   33.2680   44.0970 C   0  0  0  0  0  0  0  0  0  0  0  0
   58.6960   33.4060   45.3590 C   0  0  0  0  0  0  0  0  0  0  0  0
   58.6710   32.3380   46.2780 C   0  0  0  0  0  0  0  0  0  0  0  0
   59.2960   32.4580   47.6190 C   0  0  0  0  0  0  0  0  0  0  0  0
   60.6890   32.5800   47.7760 C   0  0  0  0  0  0  0  0  0  0  0  0
   61.2320   32.6930   49.0630 C   0  0  0  0  0  0  0  0  0  0  0  0
   62.6100   32.8220   49.2620 C   0  0  0  0  0  0  0  0  0  0  0  0
   63.1310   32.9430   50.5610 C   0  0  0  0  0  0  0  0  0  0  0  0
   64.5840   33.1530   50.7320 C   0  0  0  0  0  0  0  0  0  0  0  0
   65.4500   32.3690   50.0620 C   0  0  0  0  0  0  0  0  0  0  0  0
   66.9440   32.4700   50.2290 C   0  0  0  0  0  0  0  0  0  0  0  0
   67.3880   33.8300   50.7760 C   0  0  0  0  0  0  0  0  0  0  0  0
   66.5140   34.2370   51.9620 C   0  0  0  0  0  0  0  0  0  0  0  0
   65.0540   34.3580   51.5180 C   0  0  0  0  0  0  0  0  0  0  0  0
   62.2370   32.9180   51.6600 C   0  0  0  0  0  0  0  0  0  0  0  0
   62.6990   32.9710   53.0670 C   0  0  0  0  0  0  0  0  0  0  0  0
   62.2630   33.8710   53.8340 O   0  0  0  0  0  0  0  0  0  0  0  0
   63.6990   32.0540   53.5480 N   0  0  0  0  0  0  0  0  0  0  0  0
   63.6930   30.6410   53.1460 C   0  0  0  0  0  0  0  0  0  0  0  0
   65.0910   30.2080   52.6750 C   0  0  0  0  0  0  0  0  0  0  0  0
   66.2390   30.8670   53.4710 C   0  0  0  0  0  0  0  0  0  0  0  0
   65.7680   31.4710   54.7990 C   0  0  0  0  0  0  0  0  0  0  0  0
   64.6710   32.5180   54.5500 C   0  0  0  0  0  0  0  0  0  0  0  0
   60.9010   32.7950   51.4310 N   0  0  0  0  0  0  0  0  0  0  0  0
   60.3800   32.6900   50.1800 C   0  0  0  0  0  0  0  0  0  0  0  0
   58.9980   32.5770   49.9860 C   0  0  0  0  0  0  0  0  0  0  0  0
   58.2110   32.5770   50.9690 O   0  0  0  0  0  0  0  0  0  0  0  0
   58.5000   32.4680   48.7260 N   0  0  0  0  0  0  0  0  0  0  0  0
   58.0620   31.1290   45.8950 C   0  0  0  0  0  0  0  0  0  0  0  0
   55.1930   28.6440   45.6260 H   0  0  0  0  0  0  0  0  0  0  0  0
   57.0426   31.9654   42.7383 H   0  0  0  0  0  0  0  0  0  0  0  0
   58.1365   34.1084   43.3876 H   0  0  0  0  0  0  0  0  0  0  0  0
   59.1779   34.3549   45.6373 H   0  0  0  0  0  0  0  0  0  0  0  0
   61.3472   32.5866   46.8947 H   0  0  0  0  0  0  0  0  0  0  0  0
   63.2895   32.8288   48.3970 H   0  0  0  0  0  0  0  0  0  0  0  0
   65.0488   31.6216   49.3617 H   0  0  0  0  0  0  0  0  0  0  0  0
   67.2738   31.6858   50.9263 H   0  0  0  0  0  0  0  0  0  0  0  0
   67.3981   32.3480   49.2345 H   0  0  0  0  0  0  0  0  0  0  0  0
   68.4361   33.7646   51.1034 H   0  0  0  0  0  0  0  0  0  0  0  0
   67.2871   34.5847   49.9821 H   0  0  0  0  0  0  0  0  0  0  0  0
   66.5929   33.4750   52.7514 H   0  0  0  0  0  0  0  0  0  0  0  0
   66.8566   35.2089   52.3468 H   0  0  0  0  0  0  0  0  0  0  0  0
   64.4215   34.4646   52.4116 H   0  0  0  0  0  0  0  0  0  0  0  0
   64.9771   35.2362   50.8601 H   0  0  0  0  0  0  0  0  0  0  0  0
   63.3926   30.0220   54.0042 H   0  0  0  0  0  0  0  0  0  0  0  0
   62.9825   30.5107   52.3165 H   0  0  0  0  0  0  0  0  0  0  0  0
   65.1730   29.1165   52.7842 H   0  0  0  0  0  0  0  0  0  0  0  0
   65.1950   30.5307   51.6286 H   0  0  0  0  0  0  0  0  0  0  0  0
   67.0033   30.1047   53.6826 H   0  0  0  0  0  0  0  0  0  0  0  0
   66.6408   31.6867   52.8573 H   0  0  0  0  0  0  0  0  0  0  0  0
   65.3676   30.6713   55.4395 H   0  0  0  0  0  0  0  0  0  0  0  0
   66.6216   31.9580   55.2931 H   0  0  0  0  0  0  0  0  0  0  0  0
   64.1436   32.7145   55.4951 H   0  0  0  0  0  0  0  0  0  0  0  0
   65.1480   33.4333   54.1695 H   0  0  0  0  0  0  0  0  0  0  0  0
   58.0507   30.2802   46.5945 H   0  0  0  0  0  0  0  0  0  0  0  0
  1  2  1  0
  2  3  2  0
  2  4  2  0
  2  5  1  0
  5  6  2  0
  6  7  1  0
  7  8  2  0
  8  9  1  0
  9 10  1  0
 10 11  2  0
 11 12  1  0
 12 13  2  0
 13 14  1  0
 14 15  1  0
 15 16  2  0
 16 17  1  0
 17 18  1  0
 18 19  1  0
 19 20  1  0
 14 21  2  0
 21 22  1  0
 22 23  2  0
 22 24  1  0
 24 25  1  0
 25 26  1  0
 26 27  1  0
 27 28  1  0
 28 29  1  0
 21 30  1  0
 30 31  2  0
 31 32  1  0
 32 33  2  0
 32 34  1  0
  9 35  2  0
 35  5  1  0
 34 10  1  0
 31 12  1  0
 20 15  1  0
 29 24  1  0
  1 36  1  0
  6 37  1  0
  7 38  1  0
  8 39  1  0
 11 40  1  0
 13 41  1  0
 16 42  1  0
 17 43  1  0
 17 44  1  0
 18 45  1  0
 18 46  1  0
 19 47  1  0
 19 48  1  0
 20 49  1  0
 20 50  1  0
 25 51  1  0
 25 52  1  0
 26 53  1  0
 26 54  1  0
 27 55  1  0
 27 56  1  0
 28 57  1  0
 28 58  1  0
 29 59  1  0
 29 60  1  0
 35 61  1  0
M  CHG  2   1  -1  34  -1
M  END
>  <UniqueID>  (62) 
59

>  <SMILES>  (62) 
[NH-]S(=O)(=O)c1cccc(-c2cc3cc(C4=CCCCC4)c(C(=O)N4CCCCC4)nc3c(=O)[n-]2)c1

>  <Energy>  (62) 
83.64910003031572

>  <Genealogy>  (62) 
[NH-]S(=O)(=O)c1cccc(-c2cc3cc(C4=CCCCC4)c(C(=O)N4CCCCC4)nc3c(=O)[n-]2)c1 (protonated)
[NH-]S(=O)(=O)c1cccc(-c2cc3cc(C4=CCCCC4)c(C(=O)N4CCCCC4)nc3c(=O)[n-]2)c1 (3D coordinates assigned)
[NH-]S(=O)(=O)c1cccc(-c2cc3cc(C4=CCCCC4)c(C(=O)N4CCCCC4)nc3c(=O)[n-]2)c1 (nonaromatic ring conformer: 83.64910003031572 kcal/mol)

>  <smiles>  (62) 
NS(=O)(=O)c1cccc(-c2cc3cc(C4=CCCCC4)c(C(=O)N4CCCCC4)nc3c(=O)[nH]2)c1

>  <score_type>  (62) 
oracle

>  <origin>  (62) 
adg

>  <m_score__min__energy>  (62) 
-13.18

>  <m_primary>  (62) 
energy

$$$$
62:0
     RDKit          3D

 61 64  0  0  0  0  0  0  0  0999 V2000
   58.8670   34.5520   45.1640 C   0  0  0  0  0  0  0  0  0  0  0  0
   58.0490   33.5190   45.3820 C   0  0  0  0  0  0  0  0  0  0  0  0
   58.2430   32.5770   46.5410 C   0  0  0  0  0  0  0  0  0  0  0  0
   58.8800   31.3180   46.1010 N   0  0  0  0  0  0  0  0  0  0  0  0
   60.1510   31.0080   46.5190 C   0  0  0  0  0  0  0  0  0  0  0  0
   60.8750   31.8670   47.4120 N   0  0  0  0  0  0  0  0  0  0  0  0
   61.3270   33.1820   46.9500 C   0  0  0  0  0  0  0  0  0  0  0  0
   62.8610   33.2760   46.9940 C   0  0  0  0  0  0  0  0  0  0  0  0
   63.4990   32.5360   48.2030 C   0  0  0  0  0  0  0  0  0  0  0  0
   64.5800   33.3400   48.7780 N   0  0  0  0  0  0  0  0  0  0  0  0
   62.4610   32.1980   49.2900 C   0  0  0  0  0  0  0  0  0  0  0  0
   61.3450   31.3290   48.6950 C   0  0  0  0  0  0  0  0  0  0  0  0
   60.7620   29.8360   46.0860 C   0  0  0  0  0  0  0  0  0  0  0  0
   60.0740   28.9860   45.2330 C   0  0  0  0  0  0  0  0  0  0  0  0
   60.6370   27.9240   44.8490 O   0  0  0  0  0  0  0  0  0  0  0  0
   58.8070   29.3000   44.8170 N   0  0  0  0  0  0  0  0  0  0  0  0
   58.0700   28.3660   43.9390 C   0  0  0  0  0  0  0  0  0  0  0  0
   57.5490   27.1970   44.7350 C   0  0  0  0  0  0  0  0  0  0  0  0
   57.6960   25.8860   44.2530 C   0  0  0  0  0  0  0  0  0  0  0  0
   57.2430   24.8000   45.0080 C   0  0  0  0  0  0  0  0  0  0  0  0
   56.6400   25.0020   46.2610 C   0  0  0  0  0  0  0  0  0  0  0  0
   56.1670   23.8480   47.0670 C   0  0  0  0  0  0  0  0  0  0  0  0
   54.8350   23.6490   47.2690 N   0  0  0  0  0  0  0  0  0  0  0  0
   54.3820   22.6020   48.0060 C   0  0  0  0  0  0  0  0  0  0  0  0
   55.2820   21.7040   48.5770 C   0  0  0  0  0  0  0  0  0  0  0  0
   54.7890   20.6330   49.3370 O   0  0  0  0  0  0  0  0  0  0  0  0
   53.5030   20.6090   49.9450 C   0  0  0  0  0  0  0  0  0  0  0  0
   56.6520   21.9190   48.3600 C   0  0  0  0  0  0  0  0  0  0  0  0
   57.0600   22.9800   47.6150 N   0  0  0  0  0  0  0  0  0  0  0  0
   56.4960   26.3170   46.7400 C   0  0  0  0  0  0  0  0  0  0  0  0
   56.9480   27.4020   45.9850 C   0  0  0  0  0  0  0  0  0  0  0  0
   58.2140   30.4620   45.2540 C   0  0  0  0  0  0  0  0  0  0  0  0
   57.0440   30.7460   44.8720 O   0  0  0  0  0  0  0  0  0  0  0  0
   58.6940   35.2192   44.3067 H   0  0  0  0  0  0  0  0  0  0  0  0
   59.7137   34.7356   45.8417 H   0  0  0  0  0  0  0  0  0  0  0  0
   57.2075   33.3510   44.6937 H   0  0  0  0  0  0  0  0  0  0  0  0
   58.8835   33.0601   47.2936 H   0  0  0  0  0  0  0  0  0  0  0  0
   57.2574   32.3399   46.9679 H   0  0  0  0  0  0  0  0  0  0  0  0
   60.9852   33.3386   45.9163 H   0  0  0  0  0  0  0  0  0  0  0  0
   60.9064   33.9531   47.6121 H   0  0  0  0  0  0  0  0  0  0  0  0
   63.2623   32.8383   46.0681 H   0  0  0  0  0  0  0  0  0  0  0  0
   63.1144   34.3412   47.0995 H   0  0  0  0  0  0  0  0  0  0  0  0
   63.9070   31.5868   47.8255 H   0  0  0  0  0  0  0  0  0  0  0  0
   64.7100   33.0530   49.7760 H   0  0  0  0  0  0  0  0  0  0  0  0
   65.4700   33.0870   48.2900 H   0  0  0  0  0  0  0  0  0  0  0  0
   62.9536   31.6501   50.1068 H   0  0  0  0  0  0  0  0  0  0  0  0
   62.0257   33.1310   49.6773 H   0  0  0  0  0  0  0  0  0  0  0  0
   61.7298   30.3107   48.5369 H   0  0  0  0  0  0  0  0  0  0  0  0
   60.4993   31.3212   49.3984 H   0  0  0  0  0  0  0  0  0  0  0  0
   61.7808   29.5857   46.4168 H   0  0  0  0  0  0  0  0  0  0  0  0
   57.2240   28.8950   43.4760 H   0  0  0  0  0  0  0  0  0  0  0  0
   58.7532   27.9925   43.1620 H   0  0  0  0  0  0  0  0  0  0  0  0
   58.1703   25.7127   43.2758 H   0  0  0  0  0  0  0  0  0  0  0  0
   57.3597   23.7782   44.6176 H   0  0  0  0  0  0  0  0  0  0  0  0
   53.3008   22.4623   48.1528 H   0  0  0  0  0  0  0  0  0  0  0  0
   53.6147   20.6111   51.0393 H   0  0  0  0  0  0  0  0  0  0  0  0
   52.9332   21.4967   49.6329 H   0  0  0  0  0  0  0  0  0  0  0  0
   52.9667   19.7007   49.6329 H   0  0  0  0  0  0  0  0  0  0  0  0
   57.3934   21.2306   48.7917 H   0  0  0  0  0  0  0  0  0  0  0  0
   56.0233   26.4923   47.7177 H   0  0  0  0  0  0  0  0  0  0  0  0
   56.8316   28.4243   46.3739 H   0  0  0  0  0  0  0  0  0  0  0  0
  1  2  2  0
  2  3  1  0
  3  4  1  0
  4  5  1  0
  5  6  1  0
  6  7  1  0
  7  8  1  0
  8  9  1  0
  9 10  1  0
  9 11  1  0
 11 12  1  0
  5 13  2  0
 13 14  1  0
 14 15  2  0
 14 16  1  0
 16 17  1  0
 17 18  1  0
 18 19  2  0
 19 20  1  0
 20 21  2  0
 21 22  1  0
 22 23  2  0
 23 24  1  0
 24 25  2  0
 25 26  1  0
 26 27  1  0
 25 28  1  0
 28 29  2  0
 21 30  1  0
 30 31  2  0
 16 32  1  0
 32 33  2  0
 32  4  1  0
 12  6  1  0
 31 18  1  0
 29 22  1  0
  1 34  1  0
  1 35  1  0
  2 36  1  0
  3 37  1  0
  3 38  1  0
  7 39  1  0
  7 40  1  0
  8 41  1  0
  8 42  1  0
  9 43  1  0
 10 44  1  0
 10 45  1  0
 11 46  1  0
 11 47  1  0
 12 48  1  0
 12 49  1  0
 13 50  1  0
 17 51  1  0
 17 52  1  0
 19 53  1  0
 20 54  1  0
 24 55  1  0
 27 56  1  0
 27 57  1  0
 27 58  1  0
 28 59  1  0
 30 60  1  0
 31 61  1  0
M  END
>  <UniqueID>  (63) 
60

>  <SMILES>  (63) 
C=CCn1c(N2CCC(N)CC2)cc(=O)n(Cc2ccc(-c3ncc(OC)cn3)cc2)c1=O

>  <Energy>  (63) 
76.48722100955503

>  <Genealogy>  (63) 
C=CCn1c(N2CCC(N)CC2)cc(=O)n(Cc2ccc(-c3ncc(OC)cn3)cc2)c1=O (3D coordinates assigned)
C=CCn1c(N2CCC(N)CC2)cc(=O)n(Cc2ccc(-c3ncc(OC)cn3)cc2)c1=O (nonaromatic ring conformer: 76.48722100955503 kcal/mol)

>  <smiles>  (63) 
C=CCn1c(N2CCC(N)CC2)cc(=O)n(Cc2ccc(-c3ncc(OC)cn3)cc2)c1=O

>  <score_type>  (63) 
oracle

>  <origin>  (63) 
adg

>  <m_score__min__energy>  (63) 
-7.6399999999999997

>  <m_primary>  (63) 
energy

$$$$
63:0
     RDKit          3D

 60 64  0  0  0  0  0  0  0  0999 V2000
   56.7240   29.5870   44.0280 C   0  0  0  0  0  0  0  0  0  0  0  0
   57.6970   29.1610   44.8500 C   0  0  0  0  0  0  0  0  0  0  0  0
   57.9190   27.8460   45.2930 C   0  0  0  0  0  0  0  0  0  0  0  0
   57.3970   26.6740   44.8860 C   0  0  0  0  0  0  0  0  0  0  0  0
   56.9230   25.5870   45.7570 C   0  0  0  0  0  0  0  0  0  0  0  0
   57.6920   24.5410   46.1120 N   0  0  0  0  0  0  0  0  0  0  0  0
   56.8460   23.7490   46.8060 C   0  0  0  0  0  0  0  0  0  0  0  0
   57.2090   22.6600   47.3230 O   0  0  0  0  0  0  0  0  0  0  0  0
   55.5820   24.2120   46.8950 N   0  0  0  0  0  0  0  0  0  0  0  0
   55.6360   25.3680   46.2120 C   0  0  0  0  0  0  0  0  0  0  0  0
   54.5240   26.1780   45.9940 O   0  0  0  0  0  0  0  0  0  0  0  0
   58.8770   27.9310   46.2930 C   0  0  0  0  0  0  0  0  0  0  0  0
   59.2590   29.2540   46.3720 C   0  0  0  0  0  0  0  0  0  0  0  0
   60.3120   29.7830   47.3010 C   0  0  0  0  0  0  0  0  0  0  0  0
   58.5460   30.0030   45.4980 N   0  0  0  0  0  0  0  0  0  0  0  0
   58.7080   31.4170   45.2740 C   0  0  0  0  0  0  0  0  0  0  0  0
   58.2250   32.0110   44.0990 C   0  0  0  0  0  0  0  0  0  0  0  0
   58.3650   33.3860   43.8980 C   0  0  0  0  0  0  0  0  0  0  0  0
   58.9810   34.1780   44.8700 C   0  0  0  0  0  0  0  0  0  0  0  0
   59.4620   33.5990   46.0570 C   0  0  0  0  0  0  0  0  0  0  0  0
   60.1230   34.4300   47.0900 C   0  0  0  0  0  0  0  0  0  0  0  0
   59.8070   35.6480   47.1860 O   0  0  0  0  0  0  0  0  0  0  0  0
   61.1270   33.8840   47.9740 N   0  0  0  0  0  0  0  0  0  0  0  0
   62.1060   32.8970   47.4980 C   0  0  0  0  0  0  0  0  0  0  0  0
   63.5160   33.3100   47.9260 C   0  0  0  0  0  0  0  0  0  0  0  0
   63.5280   33.6870   49.3460 N   0  0  0  0  0  0  0  0  0  0  0  0
   64.6360   33.3120   50.1840 C   0  0  0  0  0  0  0  0  0  0  0  0
   64.8720   33.9940   51.3880 C   0  0  0  0  0  0  0  0  0  0  0  0
   65.9620   33.6470   52.1930 C   0  0  0  0  0  0  0  0  0  0  0  0
   66.8220   32.6160   51.8040 C   0  0  0  0  0  0  0  0  0  0  0  0
   67.8760   32.2800   52.5860 F   0  0  0  0  0  0  0  0  0  0  0  0
   66.5910   31.9310   50.6080 C   0  0  0  0  0  0  0  0  0  0  0  0
   65.5090   32.2810   49.7960 C   0  0  0  0  0  0  0  0  0  0  0  0
   62.5520   34.6860   49.8010 C   0  0  0  0  0  0  0  0  0  0  0  0
   61.1440   34.2530   49.3930 C   0  0  0  0  0  0  0  0  0  0  0  0
   59.3300   32.2140   46.2460 C   0  0  0  0  0  0  0  0  0  0  0  0
   56.6600   30.6511   43.7566 H   0  0  0  0  0  0  0  0  0  0  0  0
   55.9911   28.8718   43.6262 H   0  0  0  0  0  0  0  0  0  0  0  0
   57.3173   26.5139   43.8006 H   0  0  0  0  0  0  0  0  0  0  0  0
   54.0740   26.6810   46.7470 H   0  0  0  0  0  0  0  0  0  0  0  0
   59.2591   27.1014   46.9060 H   0  0  0  0  0  0  0  0  0  0  0  0
   59.9956   29.6240   48.3424 H   0  0  0  0  0  0  0  0  0  0  0  0
   61.2594   29.2538   47.1208 H   0  0  0  0  0  0  0  0  0  0  0  0
   60.4530   30.8589   47.1208 H   0  0  0  0  0  0  0  0  0  0  0  0
   57.7344   31.3921   43.3333 H   0  0  0  0  0  0  0  0  0  0  0  0
   57.9894   33.8463   42.9723 H   0  0  0  0  0  0  0  0  0  0  0  0
   59.0902   35.2602   44.7056 H   0  0  0  0  0  0  0  0  0  0  0  0
   61.8688   31.9124   47.9272 H   0  0  0  0  0  0  0  0  0  0  0  0
   62.0624   32.8457   46.4001 H   0  0  0  0  0  0  0  0  0  0  0  0
   64.2046   32.4668   47.7686 H   0  0  0  0  0  0  0  0  0  0  0  0
   63.8341   34.1738   47.3238 H   0  0  0  0  0  0  0  0  0  0  0  0
   64.1970   34.8047   51.6997 H   0  0  0  0  0  0  0  0  0  0  0  0
   66.1428   34.1867   53.1343 H   0  0  0  0  0  0  0  0  0  0  0  0
   67.2626   31.1142   50.3051 H   0  0  0  0  0  0  0  0  0  0  0  0
   65.3397   31.7474   48.8491 H   0  0  0  0  0  0  0  0  0  0  0  0
   62.6041   34.7759   50.8961 H   0  0  0  0  0  0  0  0  0  0  0  0
   62.7827   35.6575   49.3395 H   0  0  0  0  0  0  0  0  0  0  0  0
   60.8388   33.3870   49.9988 H   0  0  0  0  0  0  0  0  0  0  0  0
   60.4463   35.0871   49.5587 H   0  0  0  0  0  0  0  0  0  0  0  0
   59.7179   31.7499   47.1647 H   0  0  0  0  0  0  0  0  0  0  0  0
  1  2  2  0
  2  3  1  0
  3  4  2  3
  4  5  1  0
  5  6  1  0
  6  7  1  0
  7  8  2  0
  7  9  1  0
  9 10  1  0
 10 11  1  0
  3 12  1  0
 12 13  2  0
 13 14  1  0
 13 15  1  0
 15 16  1  0
 16 17  2  0
 17 18  1  0
 18 19  2  0
 19 20  1  0
 20 21  1  0
 21 22  2  0
 21 23  1  0
 23 24  1  0
 24 25  1  0
 25 26  1  0
 26 27  1  0
 27 28  2  0
 28 29  1  0
 29 30  2  0
 30 31  1  0
 30 32  1  0
 32 33  2  0
 26 34  1  0
 34 35  1  0
 20 36  2  0
 15  2  1  0
 36 16  1  0
 10  5  2  0
 35 23  1  0
 33 27  1  0
  1 37  1  0
  1 38  1  0
  4 39  1  0
 11 40  1  0
 12 41  1  0
 14 42  1  0
 14 43  1  0
 14 44  1  0
 17 45  1  0
 18 46  1  0
 19 47  1  0
 24 48  1  0
 24 49  1  0
 25 50  1  0
 25 51  1  0
 28 52  1  0
 29 53  1  0
 32 54  1  0
 33 55  1  0
 34 56  1  0
 34 57  1  0
 35 58  1  0
 35 59  1  0
 36 60  1  0
M  CHG  2   6  -1   9  -1
M  END
>  <UniqueID>  (64) 
61

>  <SMILES>  (64) 
C=c1c(=Cc2[n-]c(=O)[n-]c2O)cc(C)n1-c1cccc(C(=O)N2CCN(c3ccc(F)cc3)CC2)c1

>  <Energy>  (64) 
148.91924860510912

>  <Genealogy>  (64) 
C=c1c(=Cc2[n-]c(=O)[n-]c2O)cc(C)n1-c1cccc(C(=O)N2CCN(c3ccc(F)cc3)CC2)c1 (protonated)
C=c1c(=Cc2[n-]c(=O)[n-]c2O)cc(C)n1-c1cccc(C(=O)N2CCN(c3ccc(F)cc3)CC2)c1 (3D coordinates assigned)
C=c1c(=Cc2[n-]c(=O)[n-]c2O)cc(C)n1-c1cccc(C(=O)N2CCN(c3ccc(F)cc3)CC2)c1 (nonaromatic ring conformer: 148.91924860510912 kcal/mol)

>  <smiles>  (64) 
C=c1c(=Cc2[nH]c(=O)[nH]c2O)cc(C)n1-c1cccc(C(=O)N2CCN(c3ccc(F)cc3)CC2)c1

>  <score_type>  (64) 
oracle

>  <origin>  (64) 
adg

>  <m_score__min__energy>  (64) 
-15.01

>  <m_primary>  (64) 
energy

$$$$
64:0
     RDKit          3D

 38 40  0  0  0  0  0  0  0  0999 V2000
   57.7670   26.5860   43.9010 C   0  0  0  0  0  0  0  0  0  0  0  0
   58.1040   26.8020   45.1820 C   0  0  0  0  0  0  0  0  0  0  0  0
   57.7290   26.0260   46.2910 C   0  0  0  0  0  0  0  0  0  0  0  0
   57.1710   24.8020   46.3650 C   0  0  0  0  0  0  0  0  0  0  0  0
   55.8050   24.4560   45.9390 C   0  0  0  0  0  0  0  0  0  0  0  0
   55.3500   23.2020   45.7640 N   0  0  0  0  0  0  0  0  0  0  0  0
   54.0350   23.3790   45.5150 C   0  0  0  0  0  0  0  0  0  0  0  0
   53.2540   22.4200   45.2810 O   0  0  0  0  0  0  0  0  0  0  0  0
   53.6190   24.6630   45.5490 N   0  0  0  0  0  0  0  0  0  0  0  0
   54.7500   25.3300   45.8320 C   0  0  0  0  0  0  0  0  0  0  0  0
   54.8160   26.7070   45.9960 O   0  0  0  0  0  0  0  0  0  0  0  0
   58.0680   26.7630   47.4110 C   0  0  0  0  0  0  0  0  0  0  0  0
   58.6960   27.9070   46.9640 C   0  0  0  0  0  0  0  0  0  0  0  0
   59.2310   28.9820   47.8600 C   0  0  0  0  0  0  0  0  0  0  0  0
   58.7370   27.9270   45.6110 N   0  0  0  0  0  0  0  0  0  0  0  0
   59.2820   29.0120   44.7750 C   0  0  0  0  0  0  0  0  0  0  0  0
   58.7090   30.3630   45.1740 C   0  0  0  0  0  0  0  0  0  0  0  0
   59.5050   31.2590   45.9220 C   0  0  0  0  0  0  0  0  0  0  0  0
   60.7380   30.8990   46.3590 F   0  0  0  0  0  0  0  0  0  0  0  0
   59.0430   32.5420   46.2230 C   0  0  0  0  0  0  0  0  0  0  0  0
   57.7810   32.9480   45.8020 C   0  0  0  0  0  0  0  0  0  0  0  0
   56.9570   32.0640   45.1080 C   0  0  0  0  0  0  0  0  0  0  0  0
   57.3900   30.7590   44.8130 C   0  0  0  0  0  0  0  0  0  0  0  0
   56.4250   29.8410   44.1670 C   0  0  0  0  0  0  0  0  0  0  0  0
   56.5790   29.5060   42.9630 O   0  0  0  0  0  0  0  0  0  0  0  0
   55.3010   29.3970   44.8550 O   0  0  0  0  0  0  0  0  0  0  0  0
   58.1245   27.2683   43.1157 H   0  0  0  0  0  0  0  0  0  0  0  0
   57.1333   25.7267   43.6364 H   0  0  0  0  0  0  0  0  0  0  0  0
   57.7890   23.9918   46.7792 H   0  0  0  0  0  0  0  0  0  0  0  0
   57.8739   26.4892   48.4585 H   0  0  0  0  0  0  0  0  0  0  0  0
   59.0856   28.6898   48.9105 H   0  0  0  0  0  0  0  0  0  0  0  0
   60.3042   29.1226   47.6637 H   0  0  0  0  0  0  0  0  0  0  0  0
   58.6960   29.9229   47.6637 H   0  0  0  0  0  0  0  0  0  0  0  0
   60.3755   29.0387   44.8918 H   0  0  0  0  0  0  0  0  0  0  0  0
   59.0052   28.8145   43.7289 H   0  0  0  0  0  0  0  0  0  0  0  0
   59.6791   33.2337   46.7948 H   0  0  0  0  0  0  0  0  0  0  0  0
   57.4327   33.9689   46.0173 H   0  0  0  0  0  0  0  0  0  0  0  0
   55.9568   32.3907   44.7874 H   0  0  0  0  0  0  0  0  0  0  0  0
  1  2  2  0
  2  3  1  0
  3  4  2  3
  4  5  1  0
  5  6  1  0
  6  7  1  0
  7  8  2  0
  7  9  1  0
  9 10  1  0
 10 11  1  0
  3 12  1  0
 12 13  2  0
 13 14  1  0
 13 15  1  0
 15 16  1  0
 16 17  1  0
 17 18  2  0
 18 19  1  0
 18 20  1  0
 20 21  2  0
 21 22  1  0
 22 23  2  0
 23 24  1  0
 24 25  2  0
 24 26  1  0
 15  2  1  0
 23 17  1  0
 10  5  2  0
  1 27  1  0
  1 28  1  0
  4 29  1  0
 12 30  1  0
 14 31  1  0
 14 32  1  0
 14 33  1  0
 16 34  1  0
 16 35  1  0
 20 36  1  0
 21 37  1  0
 22 38  1  0
M  CHG  4   6  -1   9  -1  11  -1  26  -1
M  END
>  <UniqueID>  (65) 
62

>  <SMILES>  (65) 
C=c1c(=Cc2[n-]c(=O)[n-]c2[O-])cc(C)n1Cc1c(F)cccc1C(=O)[O-]

>  <Energy>  (65) 
116.56402792368131

>  <Genealogy>  (65) 
C=c1c(=Cc2[n-]c(=O)[n-]c2[O-])cc(C)n1Cc1c(F)cccc1C(=O)[O-] (protonated)
C=c1c(=Cc2[n-]c(=O)[n-]c2[O-])cc(C)n1Cc1c(F)cccc1C(=O)[O-] (3D coordinates assigned)
C=c1c(=Cc2[n-]c(=O)[n-]c2[O-])cc(C)n1Cc1c(F)cccc1C(=O)[O-] (optimized conformer: 116.56402792368131 kcal/mol)

>  <smiles>  (65) 
C=c1c(=Cc2[nH]c(=O)[nH]c2O)cc(C)n1Cc1c(F)cccc1C(=O)O

>  <score_type>  (65) 
oracle

>  <origin>  (65) 
adg

>  <m_score__min__energy>  (65) 
-17.149999999999999

>  <m_primary>  (65) 
energy

$$$$
65:0
     RDKit          3D

 59 62  0  0  0  0  0  0  0  0999 V2000
   64.6790   31.9720   46.9500 H   0  0  0  0  0  0  0  0  0  0  0  0
   63.7210   31.6610   47.0400 O   0  0  0  0  0  0  0  0  0  0  0  0
   62.8080   32.2430   47.9230 C   0  0  0  0  0  0  0  0  0  0  0  0
   63.2930   33.1630   48.8680 C   0  0  0  0  0  0  0  0  0  0  0  0
   64.6690   33.4400   48.8830 O   0  0  0  0  0  0  0  0  0  0  0  0
   65.6070   32.8320   49.7660 C   0  0  0  0  0  0  0  0  0  0  0  0
   65.3090   33.0252   50.8071 H   0  0  0  0  0  0  0  0  0  0  0  0
   65.6297   31.7470   49.5864 H   0  0  0  0  0  0  0  0  0  0  0  0
   66.6067   33.2543   49.5864 H   0  0  0  0  0  0  0  0  0  0  0  0
   62.3970   33.7780   49.7630 C   0  0  0  0  0  0  0  0  0  0  0  0
   62.7744   34.4835   50.5179 H   0  0  0  0  0  0  0  0  0  0  0  0
   61.0320   33.4960   49.6960 C   0  0  0  0  0  0  0  0  0  0  0  0
   60.3357   33.9875   50.3915 H   0  0  0  0  0  0  0  0  0  0  0  0
   60.5480   32.5930   48.7500 C   0  0  0  0  0  0  0  0  0  0  0  0
   59.4669   32.4015   48.6821 H   0  0  0  0  0  0  0  0  0  0  0  0
   61.4300   31.9250   47.8820 C   0  0  0  0  0  0  0  0  0  0  0  0
   60.8980   31.0030   46.8540 C   0  0  0  0  0  0  0  0  0  0  0  0
   61.2696   31.1347   45.8271 H   0  0  0  0  0  0  0  0  0  0  0  0
   60.0030   30.0190   47.0560 C   0  0  0  0  0  0  0  0  0  0  0  0
   59.1200   30.2743   47.6602 H   0  0  0  0  0  0  0  0  0  0  0  0
   60.0800   28.6300   46.5520 C   0  0  0  0  0  0  0  0  0  0  0  0
   60.8570   28.3800   45.5930 O   0  0  0  0  0  0  0  0  0  0  0  0
   59.2300   27.5960   47.0550 N   0  0  0  0  0  0  0  0  0  0  0  0
   58.0820   27.1850   46.5960 C   0  0  0  0  0  0  0  0  0  0  0  0
   57.5720   25.9380   46.8790 C   0  0  0  0  0  0  0  0  0  0  0  0
   58.0014   25.1643   47.5325 H   0  0  0  0  0  0  0  0  0  0  0  0
   56.3970   25.8810   46.1540 C   0  0  0  0  0  0  0  0  0  0  0  0
   55.5020   24.7130   46.0540 C   0  0  0  0  0  0  0  0  0  0  0  0
   54.2570   24.8980   46.0020 O   0  0  0  0  0  0  0  0  0  0  0  0
   55.9940   23.3680   46.1080 N   0  0  0  0  0  0  0  0  0  0  0  0
   56.5250   22.7100   45.1200 C   0  0  0  0  0  0  0  0  0  0  0  0
   55.8260   22.1980   44.0820 N   0  0  0  0  0  0  0  0  0  0  0  0
   56.6370   21.5330   43.2170 C   0  0  0  0  0  0  0  0  0  0  0  0
   56.2578   21.0510   42.3038 H   0  0  0  0  0  0  0  0  0  0  0  0
   57.9820   21.5070   43.5720 C   0  0  0  0  0  0  0  0  0  0  0  0
   58.7902   21.0239   43.0033 H   0  0  0  0  0  0  0  0  0  0  0  0
   58.1580   22.3420   45.0210 S   0  0  0  0  0  0  0  0  0  0  0  0
   56.2480   27.0170   45.4430 N   0  0  0  0  0  0  0  0  0  0  0  0
   57.2580   27.8270   45.7210 N   0  0  0  0  0  0  0  0  0  0  0  0
   57.5140   29.0110   44.8950 C   0  0  0  0  0  0  0  0  0  0  0  0
   58.3372   29.5914   45.3372 H   0  0  0  0  0  0  0  0  0  0  0  0
   57.7854   28.6880   43.8791 H   0  0  0  0  0  0  0  0  0  0  0  0
   56.2880   29.8670   44.8240 C   0  0  0  0  0  0  0  0  0  0  0  0
   55.1440   29.3410   44.8750 O   0  0  0  0  0  0  0  0  0  0  0  0
   56.4320   31.2800   44.6760 N   0  0  0  0  0  0  0  0  0  0  0  0
   57.5960   31.9180   44.0800 C   0  0  0  0  0  0  0  0  0  0  0  0
   58.3717   31.1614   43.8907 H   0  0  0  0  0  0  0  0  0  0  0  0
   57.3069   32.3935   43.1311 H   0  0  0  0  0  0  0  0  0  0  0  0
   58.1340   32.9630   45.0200 C   0  0  0  0  0  0  0  0  0  0  0  0
   59.0130   33.9530   44.5490 C   0  0  0  0  0  0  0  0  0  0  0  0
   59.3232   33.9536   43.4936 H   0  0  0  0  0  0  0  0  0  0  0  0
   59.4950   34.9380   45.4180 C   0  0  0  0  0  0  0  0  0  0  0  0
   60.1854   35.7090   45.0452 H   0  0  0  0  0  0  0  0  0  0  0  0
   59.1010   34.9440   46.7580 C   0  0  0  0  0  0  0  0  0  0  0  0
   59.4860   35.7159   47.4407 H   0  0  0  0  0  0  0  0  0  0  0  0
   58.2180   33.9700   47.2320 C   0  0  0  0  0  0  0  0  0  0  0  0
   57.9117   33.9737   48.2885 H   0  0  0  0  0  0  0  0  0  0  0  0
   57.7240   32.9920   46.3660 C   0  0  0  0  0  0  0  0  0  0  0  0
   57.0113   32.2410   46.7376 H   0  0  0  0  0  0  0  0  0  0  0  0
  1  2  1  0
  2  3  1  0
  3  4  2  0
  4  5  1  0
  5  6  1  0
  6  7  1  0
  6  8  1  0
  6  9  1  0
  4 10  1  0
 10 11  1  0
 10 12  2  0
 12 13  1  0
 12 14  1  0
 14 15  1  0
 14 16  2  0
 16 17  1  0
 17 18  1  0
 17 19  2  0
 19 20  1  0
 19 21  1  0
 21 22  2  0
 21 23  1  0
 23 24  2  3
 24 25  1  0
 25 26  1  0
 25 27  2  0
 27 28  1  0
 28 29  2  0
 28 30  1  0
 30 31  2  3
 31 32  1  0
 32 33  1  0
 33 34  1  0
 33 35  2  0
 35 36  1  0
 35 37  1  0
 27 38  1  0
 38 39  1  0
 39 40  1  0
 40 41  1  0
 40 42  1  0
 40 43  1  0
 43 44  2  0
 43 45  1  0
 45 46  1  0
 46 47  1  0
 46 48  1  0
 46 49  1  0
 49 50  2  0
 50 51  1  0
 50 52  1  0
 52 53  1  0
 52 54  2  0
 54 55  1  0
 54 56  1  0
 56 57  1  0
 56 58  2  0
 58 59  1  0
 16  3  1  0
 39 24  1  0
 58 49  1  0
 37 31  1  0
M  CHG  3  32  -1  38  -1  45  -1
M  END
>  <UniqueID>  (66) 
63

>  <SMILES>  (66) 
COc1cccc(/C=C\C(=O)N=c2cc(C(=O)N=c3[n-]ccs3)[n-]n2CC(=O)[N-]Cc2ccccc2)c1O

>  <Energy>  (66) 
141.9445653684749

>  <Genealogy>  (66) 
COc1cccc(C=CC(=O)N=c2cc(C(=O)N=c3[n-]ccs3)[n-]n2CC(=O)[N-]Cc2ccccc2)c1O (protonated)
COc1cccc(/C=C\C(=O)N=c2cc(C(=O)N=c3[n-]ccs3)[n-]n2CC(=O)[N-]Cc2ccccc2)c1O (cis-trans isomerization)
COc1cccc(/C=C\C(=O)N=c2cc(C(=O)N=c3[n-]ccs3)[n-]n2CC(=O)[N-]Cc2ccccc2)c1O (3D coordinates assigned)
COc1cccc(/C=C\C(=O)N=c2cc(C(=O)N=c3[n-]ccs3)[n-]n2CC(=O)[N-]Cc2ccccc2)c1O (optimized conformer: 141.9445653684749 kcal/mol)

>  <smiles>  (66) 
COc1cccc(C=CC(=O)N=c2cc(C(=O)N=c3[nH]ccs3)[nH]n2CC(=O)NCc2ccccc2)c1O

>  <score_type>  (66) 
oracle

>  <origin>  (66) 
adg

>  <m_score__min__energy>  (66) 
-14.710000000000001

>  <m_primary>  (66) 
energy

$$$$
66:0
     RDKit          3D

 51 54  0  0  0  0  0  0  0  0999 V2000
   53.5140   28.5730   53.0290 C   0  0  0  0  0  0  0  0  0  0  0  0
   54.5330   29.4360   52.8860 C   0  0  0  0  0  0  0  0  0  0  0  0
   54.4540   30.7720   52.4580 C   0  0  0  0  0  0  0  0  0  0  0  0
   53.3940   31.5810   52.2700 C   0  0  0  0  0  0  0  0  0  0  0  0
   52.3810   31.4380   51.2140 C   0  0  0  0  0  0  0  0  0  0  0  0
   52.4310   30.4940   50.2580 N   0  0  0  0  0  0  0  0  0  0  0  0
   51.3970   30.8130   49.4500 C   0  0  0  0  0  0  0  0  0  0  0  0
   51.1030   30.1380   48.4280 O   0  0  0  0  0  0  0  0  0  0  0  0
   50.7110   31.9180   49.8140 N   0  0  0  0  0  0  0  0  0  0  0  0
   51.3550   32.3110   50.9230 C   0  0  0  0  0  0  0  0  0  0  0  0
   51.0300   33.4560   51.6390 O   0  0  0  0  0  0  0  0  0  0  0  0
   55.7570   31.1820   52.2360 C   0  0  0  0  0  0  0  0  0  0  0  0
   56.5780   30.1260   52.5750 C   0  0  0  0  0  0  0  0  0  0  0  0
   58.0500   30.1660   52.4410 C   0  0  0  0  0  0  0  0  0  0  0  0
   58.7500   29.9140   53.4620 O   0  0  0  0  0  0  0  0  0  0  0  0
   58.6800   30.6530   51.2300 N   0  0  2  0  0  0  0  0  0  0  0  0
   58.2280   32.0320   50.9090 C   0  0  0  0  0  0  0  0  0  0  0  0
   58.4850   32.4270   49.4360 C   0  0  0  0  0  0  0  0  0  0  0  0
   59.6000   31.5750   48.8080 C   0  0  2  0  0  0  0  0  0  0  0  0
   59.8230   31.9690   47.4150 N   0  0  0  0  0  0  0  0  0  0  0  0
   59.1040   32.7370   46.6410 C   0  0  0  0  0  0  0  0  0  0  0  0
   57.8610   32.2980   46.2960 N   0  0  0  0  0  0  0  0  0  0  0  0
   57.0250   33.0120   45.4990 C   0  0  0  0  0  0  0  0  0  0  0  0
   57.4270   34.2480   44.9980 C   0  0  0  0  0  0  0  0  0  0  0  0
   58.6920   34.7340   45.3220 C   0  0  0  0  0  0  0  0  0  0  0  0
   59.5440   33.9890   46.1420 C   0  0  0  0  0  0  0  0  0  0  0  0
   60.7700   34.5010   46.4110 F   0  0  0  0  0  0  0  0  0  0  0  0
   59.2010   30.0870   48.8530 C   0  0  0  0  0  0  0  0  0  0  0  0
   58.4000   29.7180   50.1220 C   0  0  0  0  0  0  0  0  0  0  0  0
   55.8380   29.0750   53.0050 N   0  0  0  0  0  0  0  0  0  0  0  0
   56.3500   27.7930   53.5000 C   0  0  0  0  0  0  0  0  0  0  0  0
   53.7069   27.5466   53.3743 H   0  0  0  0  0  0  0  0  0  0  0  0
   52.4865   28.8926   52.8008 H   0  0  0  0  0  0  0  0  0  0  0  0
   53.2756   32.4229   52.9679 H   0  0  0  0  0  0  0  0  0  0  0  0
   56.0778   32.1647   51.8601 H   0  0  0  0  0  0  0  0  0  0  0  0
   59.7170   30.6690   51.3780 H   0  0  0  0  0  0  0  0  0  0  0  0
   57.1482   32.1015   51.1068 H   0  0  0  0  0  0  0  0  0  0  0  0
   58.8074   32.7223   51.5397 H   0  0  0  0  0  0  0  0  0  0  0  0
   57.5585   32.2827   48.8608 H   0  0  0  0  0  0  0  0  0  0  0  0
   58.8020   33.4801   49.4124 H   0  0  0  0  0  0  0  0  0  0  0  0
   60.5264   31.7334   49.3796 H   0  0  0  0  0  0  0  0  0  0  0  0
   56.0303   32.6143   45.2490 H   0  0  0  0  0  0  0  0  0  0  0  0
   56.7539   34.8333   44.3543 H   0  0  0  0  0  0  0  0  0  0  0  0
   59.0214   35.7079   44.9308 H   0  0  0  0  0  0  0  0  0  0  0  0
   58.5840   29.8621   47.9706 H   0  0  0  0  0  0  0  0  0  0  0  0
   60.1289   29.4963   48.8646 H   0  0  0  0  0  0  0  0  0  0  0  0
   57.3255   29.7517   49.8888 H   0  0  0  0  0  0  0  0  0  0  0  0
   58.7007   28.7083   50.4383 H   0  0  0  0  0  0  0  0  0  0  0  0
   56.3482   27.7976   54.6000 H   0  0  0  0  0  0  0  0  0  0  0  0
   55.7088   26.9768   53.1356 H   0  0  0  0  0  0  0  0  0  0  0  0
   57.3770   27.6430   53.1356 H   0  0  0  0  0  0  0  0  0  0  0  0
  1  2  2  0
  2  3  1  0
  3  4  2  3
  4  5  1  0
  5  6  1  0
  6  7  1  0
  7  8  2  0
  7  9  1  0
  9 10  1  0
 10 11  1  0
  3 12  1  0
 12 13  2  0
 13 14  1  0
 14 15  2  0
 14 16  1  0
 16 17  1  0
 17 18  1  0
 18 19  1  0
 19 20  1  0
 20 21  2  3
 21 22  1  0
 22 23  1  0
 23 24  2  0
 24 25  1  0
 25 26  2  0
 26 27  1  0
 19 28  1  0
 28 29  1  0
 13 30  1  0
 30 31  1  0
 30  2  1  0
 10  5  2  0
 29 16  1  0
 26 21  1  0
  1 32  1  0
  1 33  1  0
  4 34  1  0
 12 35  1  0
 16 36  1  1
 17 37  1  0
 17 38  1  0
 18 39  1  0
 18 40  1  0
 19 41  1  1
 23 42  1  0
 24 43  1  0
 25 44  1  0
 28 45  1  0
 28 46  1  0
 29 47  1  0
 29 48  1  0
 31 49  1  0
 31 50  1  0
 31 51  1  0
M  CHG  5   6  -1   9  -1  11  -1  16   1  22  -1
M  END
>  <UniqueID>  (67) 
64

>  <SMILES>  (67) 
C=c1c(=Cc2[n-]c(=O)[n-]c2[O-])cc(C(=O)[NH+]2CCC(N=c3[n-]cccc3F)CC2)n1C

>  <Energy>  (67) 
143.7080331519478

>  <Genealogy>  (67) 
C=c1c(=Cc2[n-]c(=O)[n-]c2[O-])cc(C(=O)[NH+]2CCC(N=c3[n-]cccc3F)CC2)n1C (protonated)
C=c1c(=Cc2[n-]c(=O)[n-]c2[O-])cc(C(=O)[NH+]2CCC(N=c3[n-]cccc3F)CC2)n1C (3D coordinates assigned)
C=c1c(=Cc2[n-]c(=O)[n-]c2[O-])cc(C(=O)[NH+]2CCC(N=c3[n-]cccc3F)CC2)n1C (nonaromatic ring conformer: 143.7080331519478 kcal/mol)

>  <smiles>  (67) 
C=c1c(=Cc2[nH]c(=O)[nH]c2O)cc(C(=O)N2CCC(N=c3[nH]cccc3F)CC2)n1C

>  <score_type>  (67) 
oracle

>  <origin>  (67) 
adg

>  <m_score__min__energy>  (67) 
-17.620000000000001

>  <m_primary>  (67) 
energy

$$$$
67:0
     RDKit          3D

 65 69  0  0  0  0  0  0  0  0999 V2000
   50.0720   22.6480   47.5360 C   0  0  0  0  0  0  0  0  0  0  0  0
   50.7690   22.2460   48.6020 C   0  0  0  0  0  0  0  0  0  0  0  0
   52.2510   22.2380   48.6810 C   0  0  0  0  0  0  0  0  0  0  0  0
   52.9860   22.2040   47.4850 C   0  0  0  0  0  0  0  0  0  0  0  0
   54.3840   22.1820   47.5050 C   0  0  0  0  0  0  0  0  0  0  0  0
   55.0780   22.2000   48.7260 C   0  0  0  0  0  0  0  0  0  0  0  0
   56.5600   22.1670   48.7430 C   0  0  0  0  0  0  0  0  0  0  0  0
   57.1720   22.3520   49.8290 O   0  0  0  0  0  0  0  0  0  0  0  0
   57.3240   21.9760   47.5440 N   0  0  0  0  0  0  0  0  0  0  0  0
   57.1350   22.7130   46.3280 C   0  0  0  0  0  0  0  0  0  0  0  0
   56.8120   22.0620   45.1270 C   0  0  0  0  0  0  0  0  0  0  0  0
   56.6040   22.8030   43.9620 C   0  0  0  0  0  0  0  0  0  0  0  0
   56.7070   24.1960   43.9870 C   0  0  0  0  0  0  0  0  0  0  0  0
   57.0320   24.8640   45.1810 C   0  0  0  0  0  0  0  0  0  0  0  0
   57.0680   26.3430   45.2440 C   0  0  0  0  0  0  0  0  0  0  0  0
   58.1010   27.1600   44.8210 C   0  0  0  0  0  0  0  0  0  0  0  0
   57.5970   28.4350   44.9650 C   0  0  0  0  0  0  0  0  0  0  0  0
   58.2480   29.6720   44.5160 C   0  0  0  0  0  0  0  0  0  0  0  0
   59.4900   29.6820   44.2980 O   0  0  0  0  0  0  0  0  0  0  0  0
   57.4900   30.8780   44.3700 N   0  0  0  0  0  0  0  0  0  0  0  0
   57.8720   32.1150   44.9930 C   0  0  0  0  0  0  0  0  0  0  0  0
   57.3930   33.3290   44.4780 C   0  0  0  0  0  0  0  0  0  0  0  0
   57.6980   34.5360   45.1150 C   0  0  0  0  0  0  0  0  0  0  0  0
   58.4570   34.5380   46.2890 C   0  0  0  0  0  0  0  0  0  0  0  0
   58.9200   33.3300   46.8280 C   0  0  0  0  0  0  0  0  0  0  0  0
   59.8020   33.3050   48.3530 S   0  0  0  0  0  0  0  0  0  0  0  0
   59.3880   32.1110   49.1680 O   0  0  0  0  0  0  0  0  0  0  0  0
   59.4830   34.5600   49.1150 O   0  0  0  0  0  0  0  0  0  0  0  0
   61.5170   33.2300   48.0300 N   0  0  0  0  0  0  0  0  0  0  0  0
   61.8250   33.8670   46.7410 C   0  0  0  0  0  0  0  0  0  0  0  0
   63.3510   33.8550   46.5120 C   0  0  0  0  0  0  0  0  0  0  0  0
   64.0300   32.9620   47.3810 O   0  0  0  0  0  0  0  0  0  0  0  0
   63.3750   31.7080   47.3930 C   0  0  0  0  0  0  0  0  0  0  0  0
   61.9760   31.8290   48.0290 C   0  0  0  0  0  0  0  0  0  0  0  0
   58.6440   32.1260   46.1680 C   0  0  0  0  0  0  0  0  0  0  0  0
   56.3430   28.3790   45.4490 N   0  0  0  0  0  0  0  0  0  0  0  0
   56.0220   27.1060   45.6210 N   0  0  0  0  0  0  0  0  0  0  0  0
   57.2730   24.1060   46.3430 C   0  0  0  0  0  0  0  0  0  0  0  0
   54.3460   22.2100   49.9250 C   0  0  0  0  0  0  0  0  0  0  0  0
   52.9490   22.2300   49.9050 C   0  0  0  0  0  0  0  0  0  0  0  0
   48.9725   22.6233   47.5565 H   0  0  0  0  0  0  0  0  0  0  0  0
   50.5975   23.0038   46.6375 H   0  0  0  0  0  0  0  0  0  0  0  0
   50.2067   21.8973   49.4807 H   0  0  0  0  0  0  0  0  0  0  0  0
   52.4559   22.1946   46.5212 H   0  0  0  0  0  0  0  0  0  0  0  0
   54.9437   22.1504   46.5586 H   0  0  0  0  0  0  0  0  0  0  0  0
   56.7226   20.9659   45.1036 H   0  0  0  0  0  0  0  0  0  0  0  0
   56.3582   22.2883   43.0214 H   0  0  0  0  0  0  0  0  0  0  0  0
   56.5328   24.7737   43.0673 H   0  0  0  0  0  0  0  0  0  0  0  0
   59.0943   26.8615   44.4547 H   0  0  0  0  0  0  0  0  0  0  0  0
   56.5840   30.8320   43.8510 H   0  0  0  0  0  0  0  0  0  0  0  0
   56.7743   33.3314   43.5685 H   0  0  0  0  0  0  0  0  0  0  0  0
   57.3399   35.4859   44.6914 H   0  0  0  0  0  0  0  0  0  0  0  0
   58.6911   35.4888   46.7903 H   0  0  0  0  0  0  0  0  0  0  0  0
   61.3284   33.3133   45.9306 H   0  0  0  0  0  0  0  0  0  0  0  0
   61.4641   34.9061   46.7504 H   0  0  0  0  0  0  0  0  0  0  0  0
   63.5482   33.5525   45.4730 H   0  0  0  0  0  0  0  0  0  0  0  0
   63.7253   34.8683   46.7197 H   0  0  0  0  0  0  0  0  0  0  0  0
   63.2716   31.3449   46.3598 H   0  0  0  0  0  0  0  0  0  0  0  0
   63.9736   31.0025   47.9878 H   0  0  0  0  0  0  0  0  0  0  0  0
   61.2650   31.2177   47.4539 H   0  0  0  0  0  0  0  0  0  0  0  0
   62.0318   31.4771   49.0697 H   0  0  0  0  0  0  0  0  0  0  0  0
   59.0347   31.1806   46.5725 H   0  0  0  0  0  0  0  0  0  0  0  0
   57.5727   24.6135   47.2718 H   0  0  0  0  0  0  0  0  0  0  0  0
   54.8773   22.2020   50.8881 H   0  0  0  0  0  0  0  0  0  0  0  0
   52.3898   22.2396   50.8522 H   0  0  0  0  0  0  0  0  0  0  0  0
  1  2  2  0
  2  3  1  0
  3  4  2  0
  4  5  1  0
  5  6  2  0
  6  7  1  0
  7  8  2  0
  7  9  1  0
  9 10  1  0
 10 11  2  0
 11 12  1  0
 12 13  2  0
 13 14  1  0
 14 15  1  0
 15 16  2  0
 16 17  1  0
 17 18  1  0
 18 19  2  0
 18 20  1  0
 20 21  1  0
 21 22  2  0
 22 23  1  0
 23 24  2  0
 24 25  1  0
 25 26  1  0
 26 27  2  0
 26 28  2  0
 26 29  1  0
 29 30  1  0
 30 31  1  0
 31 32  1  0
 32 33  1  0
 33 34  1  0
 25 35  2  0
 17 36  2  0
 36 37  1  0
 14 38  2  0
  6 39  1  0
 39 40  2  0
 40  3  1  0
 38 10  1  0
 37 15  1  0
 35 21  1  0
 34 29  1  0
  1 41  1  0
  1 42  1  0
  2 43  1  0
  4 44  1  0
  5 45  1  0
 11 46  1  0
 12 47  1  0
 13 48  1  0
 16 49  1  0
 20 50  1  0
 22 51  1  0
 23 52  1  0
 24 53  1  0
 30 54  1  0
 30 55  1  0
 31 56  1  0
 31 57  1  0
 33 58  1  0
 33 59  1  0
 34 60  1  0
 34 61  1  0
 35 62  1  0
 38 63  1  0
 39 64  1  0
 40 65  1  0
M  CHG  2   9  -1  37  -1
M  END
>  <UniqueID>  (68) 
65

>  <SMILES>  (68) 
C=Cc1ccc(C(=O)[N-]c2cccc(-c3cc(C(=O)Nc4cccc(S(=O)(=O)N5CCOCC5)c4)n[n-]3)c2)cc1

>  <Energy>  (68) 
122.31839603642875

>  <Genealogy>  (68) 
C=Cc1ccc(C(=O)[N-]c2cccc(-c3cc(C(=O)Nc4cccc(S(=O)(=O)N5CCOCC5)c4)n[n-]3)c2)cc1 (protonated)
C=Cc1ccc(C(=O)[N-]c2cccc(-c3cc(C(=O)Nc4cccc(S(=O)(=O)N5CCOCC5)c4)n[n-]3)c2)cc1 (3D coordinates assigned)
C=Cc1ccc(C(=O)[N-]c2cccc(-c3cc(C(=O)Nc4cccc(S(=O)(=O)N5CCOCC5)c4)n[n-]3)c2)cc1 (nonaromatic ring conformer: 122.31839603642875 kcal/mol)

>  <smiles>  (68) 
C=Cc1ccc(C(=O)Nc2cccc(-c3cc(C(=O)Nc4cccc(S(=O)(=O)N5CCOCC5)c4)n[nH]3)c2)cc1

>  <score_type>  (68) 
oracle

>  <origin>  (68) 
adg

>  <m_score__min__energy>  (68) 
-13.19

>  <m_primary>  (68) 
energy

$$$$
68:0
     RDKit          3D

 56 59  0  0  0  0  0  0  0  0999 V2000
   59.7660   29.2770   46.0180 O   0  0  0  0  0  0  0  0  0  0  0  0
   58.5200   29.0960   45.9590 C   0  0  0  0  0  0  0  0  0  0  0  0
   57.6350   30.2200   45.8050 N   0  0  0  0  0  0  0  0  0  0  0  0
   58.0740   31.5460   45.4620 C   0  0  0  0  0  0  0  0  0  0  0  0
   57.8720   32.0190   44.1590 C   0  0  0  0  0  0  0  0  0  0  0  0
   58.2850   33.3030   43.8010 C   0  0  0  0  0  0  0  0  0  0  0  0
   58.9230   34.1230   44.7360 C   0  0  0  0  0  0  0  0  0  0  0  0
   59.1850   33.6480   46.0310 C   0  0  0  0  0  0  0  0  0  0  0  0
   59.8400   34.5410   47.0560 C   0  0  0  0  0  0  0  0  0  0  0  0
   61.1890   34.2510   47.1590 F   0  0  0  0  0  0  0  0  0  0  0  0
   59.2400   34.3390   48.2830 F   0  0  0  0  0  0  0  0  0  0  0  0
   59.7120   35.8740   46.7060 F   0  0  0  0  0  0  0  0  0  0  0  0
   58.7470   32.3610   46.3920 C   0  0  0  0  0  0  0  0  0  0  0  0
   57.9720   27.7280   46.0920 C   0  0  0  0  0  0  0  0  0  0  0  0
   58.7950   26.6390   46.4130 C   0  0  0  0  0  0  0  0  0  0  0  0
   58.2530   25.4000   46.5240 N   0  0  0  0  0  0  0  0  0  0  0  0
   56.9240   25.1690   46.3350 C   0  0  0  0  0  0  0  0  0  0  0  0
   56.3900   23.8260   46.4790 N   0  0  0  0  0  0  0  0  0  0  0  0
   55.8590   23.3660   47.7720 C   0  0  0  0  0  0  0  0  0  0  0  0
   54.4970   22.7020   47.5670 C   0  0  0  0  0  0  0  0  0  0  0  0
   54.5420   21.7020   46.4880 N   0  0  0  0  0  0  0  0  0  0  0  0
   53.4680   20.7500   46.3680 C   0  0  0  0  0  0  0  0  0  0  0  0
   53.6590   19.6450   45.7950 O   0  0  0  0  0  0  0  0  0  0  0  0
   52.1820   21.0330   46.9310 N   0  0  0  0  0  0  0  0  0  0  0  0
   51.6740   20.1800   48.0110 C   0  0  0  0  0  0  0  0  0  0  0  0
   50.6220   20.9190   48.8730 C   0  0  0  0  0  0  0  0  0  0  0  0
   50.3720   22.2450   48.4390 O   0  0  0  0  0  0  0  0  0  0  0  0
   50.0440   22.2420   47.0660 C   0  0  0  0  0  0  0  0  0  0  0  0
   51.2990   21.9730   46.2360 C   0  0  0  0  0  0  0  0  0  0  0  0
   55.7670   21.5320   45.6950 C   0  0  0  0  0  0  0  0  0  0  0  0
   56.3740   22.8950   45.3350 C   0  0  0  0  0  0  0  0  0  0  0  0
   56.1020   26.2650   46.0110 C   0  0  0  0  0  0  0  0  0  0  0  0
   56.6460   27.5040   45.8980 N   0  0  0  0  0  0  0  0  0  0  0  0
   56.6260   30.0930   46.0480 H   0  0  0  0  0  0  0  0  0  0  0  0
   57.3846   31.3740   43.4131 H   0  0  0  0  0  0  0  0  0  0  0  0
   58.1079   33.6710   42.7796 H   0  0  0  0  0  0  0  0  0  0  0  0
   59.2209   35.1443   44.4562 H   0  0  0  0  0  0  0  0  0  0  0  0
   58.9320   31.9879   47.4101 H   0  0  0  0  0  0  0  0  0  0  0  0
   59.8729   26.7882   46.5738 H   0  0  0  0  0  0  0  0  0  0  0  0
   56.5561   22.6397   48.2153 H   0  0  0  0  0  0  0  0  0  0  0  0
   55.7444   24.2287   48.4447 H   0  0  0  0  0  0  0  0  0  0  0  0
   54.1967   22.2061   48.5018 H   0  0  0  0  0  0  0  0  0  0  0  0
   53.7720   23.4803   47.2866 H   0  0  0  0  0  0  0  0  0  0  0  0
   51.2101   19.2850   47.5709 H   0  0  0  0  0  0  0  0  0  0  0  0
   52.5191   19.9055   48.6594 H   0  0  0  0  0  0  0  0  0  0  0  0
   49.6787   20.3547   48.8322 H   0  0  0  0  0  0  0  0  0  0  0  0
   51.0242   20.9814   49.8949 H   0  0  0  0  0  0  0  0  0  0  0  0
   49.3004   21.4555   46.8696 H   0  0  0  0  0  0  0  0  0  0  0  0
   49.6279   23.2219   46.7892 H   0  0  0  0  0  0  0  0  0  0  0  0
   51.0065   21.5451   45.2658 H   0  0  0  0  0  0  0  0  0  0  0  0
   51.8362   22.9211   46.0858 H   0  0  0  0  0  0  0  0  0  0  0  0
   56.4981   20.9542   46.2794 H   0  0  0  0  0  0  0  0  0  0  0  0
   55.5155   21.0003   44.7654 H   0  0  0  0  0  0  0  0  0  0  0  0
   57.4074   22.7412   44.9909 H   0  0  0  0  0  0  0  0  0  0  0  0
   55.7483   23.3424   44.5486 H   0  0  0  0  0  0  0  0  0  0  0  0
   55.0238   26.1183   45.8501 H   0  0  0  0  0  0  0  0  0  0  0  0
  1  2  2  0
  2  3  1  0
  3  4  1  0
  4  5  2  0
  5  6  1  0
  6  7  2  0
  7  8  1  0
  8  9  1  0
  9 10  1  0
  9 11  1  0
  9 12  1  0
  8 13  2  0
  2 14  1  0
 14 15  2  0
 15 16  1  0
 16 17  2  0
 17 18  1  0
 18 19  1  0
 19 20  1  0
 20 21  1  0
 21 22  1  0
 22 23  2  0
 22 24  1  0
 24 25  1  0
 25 26  1  0
 26 27  1  0
 27 28  1  0
 28 29  1  0
 21 30  1  0
 30 31  1  0
 17 32  1  0
 32 33  2  0
 13  4  1  0
 33 14  1  0
 31 18  1  0
 29 24  1  0
  3 34  1  0
  5 35  1  0
  6 36  1  0
  7 37  1  0
 13 38  1  0
 15 39  1  0
 19 40  1  0
 19 41  1  0
 20 42  1  0
 20 43  1  0
 25 44  1  0
 25 45  1  0
 26 46  1  0
 26 47  1  0
 28 48  1  0
 28 49  1  0
 29 50  1  0
 29 51  1  0
 30 52  1  0
 30 53  1  0
 31 54  1  0
 31 55  1  0
 32 56  1  0
M  END
>  <UniqueID>  (69) 
66

>  <SMILES>  (69) 
O=C(Nc1cccc(C(F)(F)F)c1)c1cnc(N2CCN(C(=O)N3CCOCC3)CC2)cn1

>  <Energy>  (69) 
77.67950835225406

>  <Genealogy>  (69) 
O=C(Nc1cccc(C(F)(F)F)c1)c1cnc(N2CCN(C(=O)N3CCOCC3)CC2)cn1 (3D coordinates assigned)
O=C(Nc1cccc(C(F)(F)F)c1)c1cnc(N2CCN(C(=O)N3CCOCC3)CC2)cn1 (nonaromatic ring conformer: 77.67950835225406 kcal/mol)

>  <smiles>  (69) 
O=C(Nc1cccc(C(F)(F)F)c1)c1cnc(N2CCN(C(=O)N3CCOCC3)CC2)cn1

>  <score_type>  (69) 
oracle

>  <origin>  (69) 
adg

>  <m_score__min__energy>  (69) 
-6.0199999999999996

>  <m_primary>  (69) 
energy

$$$$
69:0
     RDKit          3D

 57 60  0  0  0  0  0  0  0  0999 V2000
   57.8670   23.2020   44.2290 C   0  0  0  0  0  0  0  0  0  0  0  0
   57.2280   24.3910   44.8820 C   0  0  0  0  0  0  0  0  0  0  0  0
   58.0270   25.4360   45.3640 C   0  0  0  0  0  0  0  0  0  0  0  0
   57.4240   26.5530   45.9610 C   0  0  0  0  0  0  0  0  0  0  0  0
   58.2220   27.6700   46.5040 C   0  0  0  0  0  0  0  0  0  0  0  0
   57.7830   29.2870   46.3380 S   0  0  0  0  0  0  0  0  0  0  0  0
   59.1200   29.9350   47.1250 C   0  0  0  0  0  0  0  0  0  0  0  0
   59.3960   31.3690   47.3180 C   0  0  0  0  0  0  0  0  0  0  0  0
   58.8050   31.9950   48.2400 O   0  0  0  0  0  0  0  0  0  0  0  0
   60.3340   32.0530   46.4730 N   0  0  0  0  0  0  0  0  0  0  0  0
   60.8350   33.3880   46.7860 C   0  0  0  0  0  0  0  0  0  0  0  0
   61.9890   33.2920   47.7470 C   0  0  0  0  0  0  0  0  0  0  0  0
   63.0500   32.4080   47.5170 C   0  0  0  0  0  0  0  0  0  0  0  0
   64.0970   32.3580   48.3830 N   0  0  0  0  0  0  0  0  0  0  0  0
   64.1670   33.1470   49.4910 C   0  0  0  0  0  0  0  0  0  0  0  0
   65.3120   33.0400   50.3620 N   0  0  0  0  0  0  0  0  0  0  0  0
   65.1720   33.0940   51.8240 C   0  0  0  0  0  0  0  0  0  0  0  0
   66.2480   32.2270   52.4960 C   0  0  0  0  0  0  0  0  0  0  0  0
   67.6300   32.5720   52.0720 N   0  0  0  0  0  0  0  0  0  0  0  0
   68.3290   33.3590   53.1000 C   0  0  0  0  0  0  0  0  0  0  0  0
   67.7280   33.2390   50.7520 C   0  0  0  0  0  0  0  0  0  0  0  0
   66.6350   32.7720   49.7870 C   0  0  0  0  0  0  0  0  0  0  0  0
   63.1280   34.0650   49.7430 C   0  0  0  0  0  0  0  0  0  0  0  0
   63.1770   34.9230   50.7930 F   0  0  0  0  0  0  0  0  0  0  0  0
   62.0420   34.1280   48.8680 C   0  0  0  0  0  0  0  0  0  0  0  0
   59.9490   28.8880   47.5160 C   0  0  0  0  0  0  0  0  0  0  0  0
   59.4610   27.6200   47.1590 C   0  0  0  0  0  0  0  0  0  0  0  0
   60.2360   26.3680   47.4410 C   0  0  0  0  0  0  0  0  0  0  0  0
   56.0690   26.5900   46.0920 N   0  0  0  0  0  0  0  0  0  0  0  0
   55.2710   25.5920   45.6330 C   0  0  0  0  0  0  0  0  0  0  0  0
   54.0220   25.6770   45.7680 O   0  0  0  0  0  0  0  0  0  0  0  0
   55.8340   24.4750   45.0100 C   0  0  0  0  0  0  0  0  0  0  0  0
   58.2371   22.5134   45.0029 H   0  0  0  0  0  0  0  0  0  0  0  0
   57.1252   22.6850   43.6025 H   0  0  0  0  0  0  0  0  0  0  0  0
   58.7075   23.5353   43.6025 H   0  0  0  0  0  0  0  0  0  0  0  0
   59.1220   25.3808   45.2747 H   0  0  0  0  0  0  0  0  0  0  0  0
   60.7080   31.5770   45.6210 H   0  0  0  0  0  0  0  0  0  0  0  0
   61.1717   33.8772   45.8601 H   0  0  0  0  0  0  0  0  0  0  0  0
   60.0289   33.9774   47.2472 H   0  0  0  0  0  0  0  0  0  0  0  0
   63.0365   31.7525   46.6338 H   0  0  0  0  0  0  0  0  0  0  0  0
   65.2827   34.1353   52.1608 H   0  0  0  0  0  0  0  0  0  0  0  0
   64.1791   32.7110   52.1024 H   0  0  0  0  0  0  0  0  0  0  0  0
   66.1735   32.3601   53.5854 H   0  0  0  0  0  0  0  0  0  0  0  0
   66.0642   31.1859   52.1922 H   0  0  0  0  0  0  0  0  0  0  0  0
   68.0220   33.0134   54.0981 H   0  0  0  0  0  0  0  0  0  0  0  0
   69.4153   33.2296   52.9852 H   0  0  0  0  0  0  0  0  0  0  0  0
   68.0723   34.4224   52.9852 H   0  0  0  0  0  0  0  0  0  0  0  0
   67.6333   34.3254   50.8959 H   0  0  0  0  0  0  0  0  0  0  0  0
   68.7018   32.9775   50.3123 H   0  0  0  0  0  0  0  0  0  0  0  0
   66.7347   33.3125   48.8342 H   0  0  0  0  0  0  0  0  0  0  0  0
   66.7423   31.6909   49.6148 H   0  0  0  0  0  0  0  0  0  0  0  0
   61.2242   34.8380   49.0606 H   0  0  0  0  0  0  0  0  0  0  0  0
   60.8967   29.0389   48.0537 H   0  0  0  0  0  0  0  0  0  0  0  0
   60.3229   26.2277   48.5286 H   0  0  0  0  0  0  0  0  0  0  0  0
   59.7132   25.5061   47.0007 H   0  0  0  0  0  0  0  0  0  0  0  0
   61.2406   26.4516   47.0007 H   0  0  0  0  0  0  0  0  0  0  0  0
   55.1908   23.6704   44.6242 H   0  0  0  0  0  0  0  0  0  0  0  0
  1  2  1  0
  2  3  1  0
  3  4  2  0
  4  5  1  0
  5  6  1  0
  6  7  1  0
  7  8  1  0
  8  9  2  0
  8 10  1  0
 10 11  1  0
 11 12  1  0
 12 13  2  0
 13 14  1  0
 14 15  2  0
 15 16  1  0
 16 17  1  0
 17 18  1  0
 18 19  1  0
 19 20  1  0
 19 21  1  0
 21 22  1  0
 15 23  1  0
 23 24  1  0
 23 25  2  0
  7 26  2  0
 26 27  1  0
 27 28  1  0
  4 29  1  0
 29 30  1  0
 30 31  2  0
 30 32  1  0
 32  2  2  0
 27  5  2  0
 25 12  1  0
 22 16  1  0
  1 33  1  0
  1 34  1  0
  1 35  1  0
  3 36  1  0
 10 37  1  0
 11 38  1  0
 11 39  1  0
 13 40  1  0
 17 41  1  0
 17 42  1  0
 18 43  1  0
 18 44  1  0
 20 45  1  0
 20 46  1  0
 20 47  1  0
 21 48  1  0
 21 49  1  0
 22 50  1  0
 22 51  1  0
 25 52  1  0
 26 53  1  0
 28 54  1  0
 28 55  1  0
 28 56  1  0
 32 57  1  0
M  CHG  1  29  -1
M  END
>  <UniqueID>  (70) 
67

>  <SMILES>  (70) 
Cc1cc(-c2sc(C(=O)NCc3cnc(N4CCN(C)CC4)c(F)c3)cc2C)[n-]c(=O)c1

>  <Energy>  (70) 
97.0286562555811

>  <Genealogy>  (70) 
Cc1cc(-c2sc(C(=O)NCc3cnc(N4CCN(C)CC4)c(F)c3)cc2C)[n-]c(=O)c1 (protonated)
Cc1cc(-c2sc(C(=O)NCc3cnc(N4CCN(C)CC4)c(F)c3)cc2C)[n-]c(=O)c1 (3D coordinates assigned)
Cc1cc(-c2sc(C(=O)NCc3cnc(N4CCN(C)CC4)c(F)c3)cc2C)[n-]c(=O)c1 (nonaromatic ring conformer: 97.0286562555811 kcal/mol)

>  <smiles>  (70) 
Cc1cc(-c2sc(C(=O)NCc3cnc(N4CCN(C)CC4)c(F)c3)cc2C)[nH]c(=O)c1

>  <score_type>  (70) 
oracle

>  <origin>  (70) 
adg

>  <m_score__min__energy>  (70) 
-11.539999999999999

>  <m_primary>  (70) 
energy

$$$$
70:0
     RDKit          3D

 82 86  0  0  0  0  0  0  0  0999 V2000
   60.7400   28.7300   45.1650 C   0  0  0  0  0  0  0  0  0  0  0  0
   59.8160   28.5300   46.2150 O   0  0  0  0  0  0  0  0  0  0  0  0
   60.1910   27.4090   46.9960 C   0  0  0  0  0  0  0  0  0  0  0  0
   58.9870   26.8800   47.7880 C   0  0  0  0  0  0  0  0  0  0  0  0
   58.5840   25.5320   47.3200 N   0  0  0  0  0  0  0  0  0  0  0  0
   59.1430   25.1840   45.9850 C   0  0  0  0  0  0  0  0  0  0  0  0
   58.1040   25.1610   44.8420 C   0  0  0  0  0  0  0  0  0  0  0  0
   57.0210   26.2390   45.0150 C   0  0  0  0  0  0  0  0  0  0  0  0
   57.5890   27.5820   44.8390 N   0  0  0  0  0  0  0  0  0  0  0  0
   56.7790   28.7670   44.8900 C   0  0  0  0  0  0  0  0  0  0  0  0
   55.5230   28.6670   44.9510 O   0  0  0  0  0  0  0  0  0  0  0  0
   57.4120   30.0990   44.8820 C   0  0  0  0  0  0  0  0  0  0  0  0
   58.0610   30.6230   45.9410 N   0  0  0  0  0  0  0  0  0  0  0  0
   58.4580   31.8370   45.5010 C   0  0  0  0  0  0  0  0  0  0  0  0
   59.2190   32.8030   46.3190 C   0  0  0  0  0  0  0  0  0  0  0  0
   58.5520   33.8610   46.9560 C   0  0  0  0  0  0  0  0  0  0  0  0
   59.2610   34.7690   47.7440 C   0  0  0  0  0  0  0  0  0  0  0  0
   60.6410   34.6360   47.8980 C   0  0  0  0  0  0  0  0  0  0  0  0
   61.3290   33.6040   47.2470 C   0  0  0  0  0  0  0  0  0  0  0  0
   62.7780   33.4490   47.4840 C   0  0  0  0  0  0  0  0  0  0  0  0
   63.3790   32.3770   48.0260 C   0  0  0  0  0  0  0  0  0  0  0  0
   63.2870   31.9360   49.4430 C   0  0  0  0  0  0  0  0  0  0  0  0
   63.9780   32.5030   50.3330 O   0  0  0  0  0  0  0  0  0  0  0  0
   62.3740   30.8850   49.8250 N   0  0  0  0  0  0  0  0  0  0  0  0
   61.1010   30.7070   49.1060 C   0  0  0  0  0  0  0  0  0  0  0  0
   60.1090   29.8550   49.9100 C   0  0  0  0  0  0  0  0  0  0  0  0
   60.1500   30.2570   51.3960 C   0  0  0  0  0  0  0  0  0  0  0  0
   59.1290   29.5320   52.1630 N   0  0  0  0  0  0  0  0  0  0  0  0
   59.4370   28.5430   53.1830 C   0  0  0  0  0  0  0  0  0  0  0  0
   58.0850   28.0860   53.7630 C   0  0  0  0  0  0  0  0  0  0  0  0
   56.9780   28.8620   53.0340 C   0  0  0  0  0  0  0  0  0  0  0  0
   57.7230   29.6990   52.0740 C   0  0  0  0  0  0  0  0  0  0  0  0
   57.1670   30.4780   51.2540 O   0  0  0  0  0  0  0  0  0  0  0  0
   61.5570   30.0660   52.0180 C   0  0  0  0  0  0  0  0  0  0  0  0
   62.6830   30.0150   50.9700 C   0  0  0  0  0  0  0  0  0  0  0  0
   60.6110   32.6720   46.4780 C   0  0  0  0  0  0  0  0  0  0  0  0
   58.0890   32.0700   44.2610 O   0  0  0  0  0  0  0  0  0  0  0  0
   57.4360   31.0150   43.8470 C   0  0  0  0  0  0  0  0  0  0  0  0
   56.8370   30.8830   42.4860 C   0  0  0  0  0  0  0  0  0  0  0  0
   56.3190   26.1070   46.3880 C   0  0  0  0  0  0  0  0  0  0  0  0
   57.1280   25.2850   47.4120 C   0  0  0  0  0  0  0  0  0  0  0  0
   61.7331   28.9449   45.5865 H   0  0  0  0  0  0  0  0  0  0  0  0
   60.7932   27.8226   44.5455 H   0  0  0  0  0  0  0  0  0  0  0  0
   60.4132   29.5782   44.5455 H   0  0  0  0  0  0  0  0  0  0  0  0
   60.5658   26.6150   46.3334 H   0  0  0  0  0  0  0  0  0  0  0  0
   60.9764   27.7142   47.7032 H   0  0  0  0  0  0  0  0  0  0  0  0
   59.2556   26.8239   48.8532 H   0  0  0  0  0  0  0  0  0  0  0  0
   58.1420   27.5674   47.6351 H   0  0  0  0  0  0  0  0  0  0  0  0
   59.9156   25.9250   45.7322 H   0  0  0  0  0  0  0  0  0  0  0  0
   59.5391   24.1612   46.0685 H   0  0  0  0  0  0  0  0  0  0  0  0
   58.6240   25.3321   43.8879 H   0  0  0  0  0  0  0  0  0  0  0  0
   57.6073   24.1797   44.8589 H   0  0  0  0  0  0  0  0  0  0  0  0
   56.2612   26.0863   44.2344 H   0  0  0  0  0  0  0  0  0  0  0  0
   58.6140   27.6870   44.6540 H   0  0  0  0  0  0  0  0  0  0  0  0
   57.4648   33.9752   46.8336 H   0  0  0  0  0  0  0  0  0  0  0  0
   58.7300   35.5918   48.2450 H   0  0  0  0  0  0  0  0  0  0  0  0
   61.1916   35.3450   48.5337 H   0  0  0  0  0  0  0  0  0  0  0  0
   63.4248   34.2886   47.1897 H   0  0  0  0  0  0  0  0  0  0  0  0
   64.0004   31.7651   47.3556 H   0  0  0  0  0  0  0  0  0  0  0  0
   60.6545   31.6953   48.9218 H   0  0  0  0  0  0  0  0  0  0  0  0
   61.3115   30.1869   48.1599 H   0  0  0  0  0  0  0  0  0  0  0  0
   59.0932   30.0124   49.5183 H   0  0  0  0  0  0  0  0  0  0  0  0
   60.3860   28.7946   49.8159 H   0  0  0  0  0  0  0  0  0  0  0  0
   59.9226   31.3320   51.4467 H   0  0  0  0  0  0  0  0  0  0  0  0
   59.9687   27.6892   52.7377 H   0  0  0  0  0  0  0  0  0  0  0  0
   60.0863   28.9635   53.9650 H   0  0  0  0  0  0  0  0  0  0  0  0
   57.9540   27.0058   53.6015 H   0  0  0  0  0  0  0  0  0  0  0  0
   58.0441   28.2812   54.8448 H   0  0  0  0  0  0  0  0  0  0  0  0
   56.2952   28.1761   52.5112 H   0  0  0  0  0  0  0  0  0  0  0  0
   56.3451   29.4495   53.7154 H   0  0  0  0  0  0  0  0  0  0  0  0
   61.7536   30.9052   52.7015 H   0  0  0  0  0  0  0  0  0  0  0  0
   61.5539   29.0982   52.5409 H   0  0  0  0  0  0  0  0  0  0  0  0
   63.6223   30.3503   51.4340 H   0  0  0  0  0  0  0  0  0  0  0  0
   62.7807   28.9805   50.6091 H   0  0  0  0  0  0  0  0  0  0  0  0
   61.1401   31.8356   45.9978 H   0  0  0  0  0  0  0  0  0  0  0  0
   55.7665   30.6471   42.5778 H   0  0  0  0  0  0  0  0  0  0  0  0
   56.9583   31.8294   41.9387 H   0  0  0  0  0  0  0  0  0  0  0  0
   57.3448   30.0752   41.9387 H   0  0  0  0  0  0  0  0  0  0  0  0
   56.1607   27.1157   46.7973 H   0  0  0  0  0  0  0  0  0  0  0  0
   55.3717   25.5741   46.2189 H   0  0  0  0  0  0  0  0  0  0  0  0
   56.7891   25.5517   48.4239 H   0  0  0  0  0  0  0  0  0  0  0  0
   56.9571   24.2206   47.1931 H   0  0  0  0  0  0  0  0  0  0  0  0
  1  2  1  0
  2  3  1  0
  3  4  1  0
  4  5  1  0
  5  6  1  0
  6  7  1  0
  7  8  1  0
  8  9  1  0
  9 10  1  0
 10 11  2  0
 10 12  1  0
 12 13  1  0
 13 14  2  0
 14 15  1  0
 15 16  2  0
 16 17  1  0
 17 18  2  0
 18 19  1  0
 19 20  1  0
 20 21  2  3
 21 22  1  0
 22 23  2  0
 22 24  1  0
 24 25  1  0
 25 26  1  0
 26 27  1  0
 27 28  1  0
 28 29  1  0
 29 30  1  0
 30 31  1  0
 31 32  1  0
 32 33  2  0
 27 34  1  0
 34 35  1  0
 19 36  2  0
 14 37  1  0
 37 38  1  0
 38 39  1  0
  8 40  1  0
 40 41  1  0
 41  5  1  0
 38 12  2  0
 36 15  1  0
 35 24  1  0
 32 28  1  0
  1 42  1  0
  1 43  1  0
  1 44  1  0
  3 45  1  0
  3 46  1  0
  4 47  1  0
  4 48  1  0
  6 49  1  0
  6 50  1  0
  7 51  1  0
  7 52  1  0
  8 53  1  0
  9 54  1  0
 16 55  1  0
 17 56  1  0
 18 57  1  0
 20 58  1  0
 21 59  1  0
 25 60  1  0
 25 61  1  0
 26 62  1  0
 26 63  1  0
 27 64  1  0
 29 65  1  0
 29 66  1  0
 30 67  1  0
 30 68  1  0
 31 69  1  0
 31 70  1  0
 34 71  1  0
 34 72  1  0
 35 73  1  0
 35 74  1  0
 36 75  1  0
 39 76  1  0
 39 77  1  0
 39 78  1  0
 40 79  1  0
 40 80  1  0
 41 81  1  0
 41 82  1  0
M  END
>  <UniqueID>  (71) 
68

>  <SMILES>  (71) 
COCCN1CCC(NC(=O)c2nc(-c3cccc(C=CC(=O)N4CCC(N5CCCC5=O)CC4)c3)oc2C)CC1

>  <Energy>  (71) 
139.65175558778265

>  <Genealogy>  (71) 
COCCN1CCC(NC(=O)c2nc(-c3cccc(C=CC(=O)N4CCC(N5CCCC5=O)CC4)c3)oc2C)CC1 (3D coordinates assigned)
COCCN1CCC(NC(=O)c2nc(-c3cccc(C=CC(=O)N4CCC(N5CCCC5=O)CC4)c3)oc2C)CC1 (nonaromatic ring conformer: 139.65175558778265 kcal/mol)

>  <smiles>  (71) 
COCCN1CCC(NC(=O)c2nc(-c3cccc(C=CC(=O)N4CCC(N5CCCC5=O)CC4)c3)oc2C)CC1

>  <score_type>  (71) 
oracle

>  <origin>  (71) 
adg

>  <m_score__min__energy>  (71) 
-10.869999999999999

>  <m_primary>  (71) 
energy

$$$$
71:0
     RDKit          3D

 46 50  0  0  0  0  0  0  0  0999 V2000
   52.0090   32.0960   49.4230 H   0  0  0  0  0  0  0  0  0  0  0  0
   51.1900   32.3590   49.9550 O   0  0  0  0  0  0  0  0  0  0  0  0
   51.0880   32.0960   51.3190 C   0  0  0  0  0  0  0  0  0  0  0  0
   50.2130   32.7200   52.1240 N   0  0  0  0  0  0  0  0  0  0  0  0
   50.5140   32.2190   53.3410 C   0  0  0  0  0  0  0  0  0  0  0  0
   49.9070   32.5670   54.3870 O   0  0  0  0  0  0  0  0  0  0  0  0
   51.5220   31.3210   53.3500 N   0  0  0  0  0  0  0  0  0  0  0  0
   51.8710   31.2290   52.0560 C   0  0  0  0  0  0  0  0  0  0  0  0
   52.9700   30.3750   51.5770 C   0  0  0  0  0  0  0  0  0  0  0  0
   53.0834   30.2306   50.4924 H   0  0  0  0  0  0  0  0  0  0  0  0
   53.8400   29.7640   52.3940 C   0  0  0  0  0  0  0  0  0  0  0  0
   53.5890   28.8940   53.4590 C   0  0  0  0  0  0  0  0  0  0  0  0
   52.5923   28.5509   53.7734 H   0  0  0  0  0  0  0  0  0  0  0  0
   54.7580   28.5360   54.0470 N   0  0  0  0  0  0  0  0  0  0  0  0
   55.7200   29.1580   53.3850 N   0  0  0  0  0  0  0  0  0  0  0  0
   57.0540   29.1120   53.6130 C   0  0  0  0  0  0  0  0  0  0  0  0
   57.5370   28.3890   54.5790 N   0  0  0  0  0  0  0  0  0  0  0  0
   57.9110   26.9870   54.4190 C   0  0  0  0  0  0  0  0  0  0  0  0
   58.8448   27.1446   53.8593 H   0  0  0  0  0  0  0  0  0  0  0  0
   57.4990   26.1100   55.5860 C   0  0  0  0  0  0  0  0  0  0  0  0
   58.1239   25.2530   55.8778 H   0  0  0  0  0  0  0  0  0  0  0  0
   57.2492   26.2871   56.6425 H   0  0  0  0  0  0  0  0  0  0  0  0
   56.7100   26.0690   54.2850 C   0  0  0  0  0  0  0  0  0  0  0  0
   56.7645   25.1826   53.6360 H   0  0  0  0  0  0  0  0  0  0  0  0
   55.6534   26.2043   54.0106 H   0  0  0  0  0  0  0  0  0  0  0  0
   57.8680   29.8490   52.8030 N   0  0  0  0  0  0  0  0  0  0  0  0
   57.3480   30.6140   51.7910 C   0  0  0  0  0  0  0  0  0  0  0  0
   58.2490   31.4110   50.9230 C   0  0  0  0  0  0  0  0  0  0  0  0
   58.6670   32.6980   51.3130 C   0  0  0  0  0  0  0  0  0  0  0  0
   58.3235   33.1164   52.2705 H   0  0  0  0  0  0  0  0  0  0  0  0
   59.5150   33.4480   50.4930 C   0  0  0  0  0  0  0  0  0  0  0  0
   59.8357   34.4515   50.8094 H   0  0  0  0  0  0  0  0  0  0  0  0
   59.9580   32.9280   49.2710 C   0  0  0  0  0  0  0  0  0  0  0  0
   61.0400   33.8680   48.2490 S   0  0  0  0  0  0  0  0  0  0  0  0
   60.2390   34.7710   47.3530 O   0  0  0  0  0  0  0  0  0  0  0  0
   61.9430   34.7120   49.1040 O   0  0  0  0  0  0  0  0  0  0  0  0
   62.0210   32.7640   47.2580 C   0  0  0  0  0  0  0  0  0  0  0  0
   62.6071   32.1044   47.9149 H   0  0  0  0  0  0  0  0  0  0  0  0
   61.3599   32.1558   46.6231 H   0  0  0  0  0  0  0  0  0  0  0  0
   62.7027   33.3490   46.6231 H   0  0  0  0  0  0  0  0  0  0  0  0
   59.5540   31.6460   48.8790 C   0  0  0  0  0  0  0  0  0  0  0  0
   59.9062   31.2292   47.9239 H   0  0  0  0  0  0  0  0  0  0  0  0
   58.7060   30.8940   49.6950 C   0  0  0  0  0  0  0  0  0  0  0  0
   58.3922   29.8891   49.3759 H   0  0  0  0  0  0  0  0  0  0  0  0
   55.9960   30.6390   51.5870 N   0  0  0  0  0  0  0  0  0  0  0  0
   55.2080   29.8980   52.4030 C   0  0  0  0  0  0  0  0  0  0  0  0
  1  2  1  0
  2  3  1  0
  3  4  1  0
  4  5  1  0
  5  6  2  0
  5  7  1  0
  7  8  1  0
  8  9  1  0
  9 10  1  0
  9 11  2  3
 11 12  1  0
 12 13  1  0
 12 14  2  0
 14 15  1  0
 15 16  1  0
 16 17  2  0
 17 18  1  0
 18 19  1  0
 18 20  1  0
 20 21  1  0
 20 22  1  0
 20 23  1  0
 23 24  1  0
 23 25  1  0
 16 26  1  0
 26 27  2  0
 27 28  1  0
 28 29  2  0
 29 30  1  0
 29 31  1  0
 31 32  1  0
 31 33  2  0
 33 34  1  0
 34 35  2  0
 34 36  2  0
 34 37  1  0
 37 38  1  0
 37 39  1  0
 37 40  1  0
 33 41  1  0
 41 42  1  0
 41 43  2  0
 43 44  1  0
 27 45  1  0
 45 46  2  0
  8  3  2  0
 46 11  1  0
 46 15  1  0
 23 18  1  0
 43 28  1  0
M  CHG  2   4  -1   7  -1
M  END
>  <UniqueID>  (72) 
69

>  <SMILES>  (72) 
CS(=O)(=O)c1ccc(-c2n/c(=N\C3CC3)n3ncc(=Cc4[n-]c(=O)[n-]c4O)c3n2)cc1

>  <Energy>  (72) 
387.76139820194896

>  <Genealogy>  (72) 
CS(=O)(=O)c1ccc(-c2nc(=NC3CC3)n3ncc(=Cc4[n-]c(=O)[n-]c4O)c3n2)cc1 (protonated)
CS(=O)(=O)c1ccc(-c2n/c(=N\C3CC3)n3ncc(=Cc4[n-]c(=O)[n-]c4O)c3n2)cc1 (cis-trans isomerization)
CS(=O)(=O)c1ccc(-c2n/c(=N\C3CC3)n3ncc(=Cc4[n-]c(=O)[n-]c4O)c3n2)cc1 (3D coordinates assigned)
CS(=O)(=O)c1ccc(-c2n/c(=N\C3CC3)n3ncc(=Cc4[n-]c(=O)[n-]c4O)c3n2)cc1 (nonaromatic ring conformer: 387.76139820194896 kcal/mol)

>  <smiles>  (72) 
CS(=O)(=O)c1ccc(-c2nc(=NC3CC3)n3ncc(=Cc4[nH]c(=O)[nH]c4O)c3n2)cc1

>  <score_type>  (72) 
oracle

>  <origin>  (72) 
adg

>  <m_score__min__energy>  (72) 
-14.06

>  <m_primary>  (72) 
energy

$$$$
72:0
     RDKit          3D

 55 58  0  0  0  0  0  0  0  0999 V2000
   60.2780   29.9490   46.7550 C   0  0  0  0  0  0  0  0  0  0  0  0
   59.3850   30.7860   46.2040 C   0  0  0  0  0  0  0  0  0  0  0  0
   58.4740   30.4770   45.1890 C   0  0  0  0  0  0  0  0  0  0  0  0
   58.3510   29.3110   44.5250 C   0  0  0  0  0  0  0  0  0  0  0  0
   57.5960   28.1500   45.0480 C   0  0  0  0  0  0  0  0  0  0  0  0
   56.2040   28.2010   45.2390 C   0  0  0  0  0  0  0  0  0  0  0  0
   55.4890   29.3570   44.9380 O   0  0  0  0  0  0  0  0  0  0  0  0
   55.5510   27.1200   45.7410 N   0  0  0  0  0  0  0  0  0  0  0  0
   56.2210   25.9900   46.0820 C   0  0  0  0  0  0  0  0  0  0  0  0
   55.5940   25.0020   46.5400 O   0  0  0  0  0  0  0  0  0  0  0  0
   57.5700   25.9290   45.9340 N   0  0  0  0  0  0  0  0  0  0  0  0
   58.2700   26.9800   45.4350 C   0  0  0  0  0  0  0  0  0  0  0  0
   59.5210   26.8890   45.3170 O   0  0  0  0  0  0  0  0  0  0  0  0
   57.7240   31.6270   44.9730 C   0  0  0  0  0  0  0  0  0  0  0  0
   58.2010   32.5790   45.8520 C   0  0  0  0  0  0  0  0  0  0  0  0
   57.6500   33.9660   45.9860 C   0  0  0  0  0  0  0  0  0  0  0  0
   59.2040   32.0700   46.6020 N   0  0  0  0  0  0  0  0  0  0  0  0
   59.9210   32.7710   47.6330 C   0  0  0  0  0  0  0  0  0  0  0  0
   59.4740   32.7090   48.9600 C   0  0  0  0  0  0  0  0  0  0  0  0
   60.1630   33.3870   49.9810 C   0  0  0  0  0  0  0  0  0  0  0  0
   59.6880   33.3220   51.3820 C   0  0  0  0  0  0  0  0  0  0  0  0
   60.0750   34.1950   52.2070 O   0  0  0  0  0  0  0  0  0  0  0  0
   58.7800   32.2950   51.8180 N   0  0  0  0  0  0  0  0  0  0  0  0
   57.6340   32.6540   52.6600 C   0  0  0  0  0  0  0  0  0  0  0  0
   56.9970   31.4040   53.2880 C   0  0  0  0  0  0  0  0  0  0  0  0
   56.7130   30.3410   52.2940 N   0  0  0  0  0  0  0  0  0  0  0  0
   55.3830   30.5140   51.6880 C   0  0  0  0  0  0  0  0  0  0  0  0
   57.7580   30.1490   51.2530 C   0  0  0  0  0  0  0  0  0  0  0  0
   59.0680   30.8810   51.5670 C   0  0  0  0  0  0  0  0  0  0  0  0
   61.2920   34.1550   49.6490 C   0  0  0  0  0  0  0  0  0  0  0  0
   61.7350   34.2250   48.3250 C   0  0  0  0  0  0  0  0  0  0  0  0
   61.0540   33.5360   47.3170 C   0  0  0  0  0  0  0  0  0  0  0  0
   61.4840   33.6280   46.0340 F   0  0  0  0  0  0  0  0  0  0  0  0
   60.9476   30.3057   47.5515 H   0  0  0  0  0  0  0  0  0  0  0  0
   60.3403   28.9063   46.4101 H   0  0  0  0  0  0  0  0  0  0  0  0
   58.8371   29.2169   43.5427 H   0  0  0  0  0  0  0  0  0  0  0  0
   55.3770   30.0940   45.6250 H   0  0  0  0  0  0  0  0  0  0  0  0
   56.9098   31.7539   44.2444 H   0  0  0  0  0  0  0  0  0  0  0  0
   57.5494   34.2192   47.0517 H   0  0  0  0  0  0  0  0  0  0  0  0
   58.3327   34.6801   45.5023 H   0  0  0  0  0  0  0  0  0  0  0  0
   56.6634   34.0169   45.5023 H   0  0  0  0  0  0  0  0  0  0  0  0
   58.5752   32.1241   49.2051 H   0  0  0  0  0  0  0  0  0  0  0  0
   57.9737   33.3258   53.4620 H   0  0  0  0  0  0  0  0  0  0  0  0
   56.8809   33.1524   52.0319 H   0  0  0  0  0  0  0  0  0  0  0  0
   57.6859   31.0016   54.0453 H   0  0  0  0  0  0  0  0  0  0  0  0
   56.0367   31.7087   53.7295 H   0  0  0  0  0  0  0  0  0  0  0  0
   54.6282   30.6122   52.4821 H   0  0  0  0  0  0  0  0  0  0  0  0
   55.3792   31.4202   51.0645 H   0  0  0  0  0  0  0  0  0  0  0  0
   55.1475   29.6389   51.0645 H   0  0  0  0  0  0  0  0  0  0  0  0
   57.9711   29.0733   51.1664 H   0  0  0  0  0  0  0  0  0  0  0  0
   57.3657   30.5704   50.3157 H   0  0  0  0  0  0  0  0  0  0  0  0
   59.5336   30.4362   52.4588 H   0  0  0  0  0  0  0  0  0  0  0  0
   59.7567   30.7893   50.7142 H   0  0  0  0  0  0  0  0  0  0  0  0
   61.8303   34.7043   50.4355 H   0  0  0  0  0  0  0  0  0  0  0  0
   62.6228   34.8245   48.0753 H   0  0  0  0  0  0  0  0  0  0  0  0
  1  2  2  0
  2  3  1  0
  3  4  2  3
  4  5  1  0
  5  6  2  0
  6  7  1  0
  6  8  1  0
  8  9  1  0
  9 10  2  0
  9 11  1  0
 11 12  1  0
 12 13  2  0
  3 14  1  0
 14 15  2  0
 15 16  1  0
 15 17  1  0
 17 18  1  0
 18 19  2  0
 19 20  1  0
 20 21  1  0
 21 22  2  0
 21 23  1  0
 23 24  1  0
 24 25  1  0
 25 26  1  0
 26 27  1  0
 26 28  1  0
 28 29  1  0
 20 30  2  0
 30 31  1  0
 31 32  2  0
 32 33  1  0
 17  2  1  0
 32 18  1  0
 12  5  1  0
 29 23  1  0
  1 34  1  0
  1 35  1  0
  4 36  1  0
  7 37  1  0
 14 38  1  0
 16 39  1  0
 16 40  1  0
 16 41  1  0
 19 42  1  0
 24 43  1  0
 24 44  1  0
 25 45  1  0
 25 46  1  0
 27 47  1  0
 27 48  1  0
 27 49  1  0
 28 50  1  0
 28 51  1  0
 29 52  1  0
 29 53  1  0
 30 54  1  0
 31 55  1  0
M  CHG  2   8  -1  11  -1
M  END
>  <UniqueID>  (73) 
70

>  <SMILES>  (73) 
C=c1c(=Cc2c(O)[n-]c(=O)[n-]c2=O)cc(C)n1-c1cc(C(=O)N2CCN(C)CC2)ccc1F

>  <Energy>  (73) 
113.9972087724449

>  <Genealogy>  (73) 
C=c1c(=Cc2c(O)[n-]c(=O)[n-]c2=O)cc(C)n1-c1cc(C(=O)N2CCN(C)CC2)ccc1F (protonated)
C=c1c(=Cc2c(O)[n-]c(=O)[n-]c2=O)cc(C)n1-c1cc(C(=O)N2CCN(C)CC2)ccc1F (3D coordinates assigned)
C=c1c(=Cc2c(O)[n-]c(=O)[n-]c2=O)cc(C)n1-c1cc(C(=O)N2CCN(C)CC2)ccc1F (nonaromatic ring conformer: 113.9972087724449 kcal/mol)

>  <smiles>  (73) 
C=c1c(=Cc2c(O)[nH]c(=O)[nH]c2=O)cc(C)n1-c1cc(C(=O)N2CCN(C)CC2)ccc1F

>  <score_type>  (73) 
oracle

>  <origin>  (73) 
adg

>  <m_score__min__energy>  (73) 
-14.69

>  <m_primary>  (73) 
energy

$$$$
73:0
     RDKit          3D

 60 62  0  0  1  0  0  0  0  0999 V2000
   57.6580   32.1440   41.6240 C   0  0  0  0  0  0  0  0  0  0  0  0
   57.7100   32.3540   42.9260 C   0  0  0  0  0  0  0  0  0  0  0  0
   57.5420   31.3020   43.9220 C   0  0  0  0  0  0  0  0  0  0  0  0
   56.7600   31.4360   44.8990 O   0  0  0  0  0  0  0  0  0  0  0  0
   58.2570   30.0770   43.8340 N   0  0  0  0  0  0  0  0  0  0  0  0
   58.1060   29.0380   44.8000 C   0  0  0  0  0  0  0  0  0  0  0  0
   57.0130   28.1910   44.8180 C   0  0  0  0  0  0  0  0  0  0  0  0
   56.8790   27.1870   45.7610 C   0  0  0  0  0  0  0  0  0  0  0  0
   57.8760   27.0200   46.7260 C   0  0  0  0  0  0  0  0  0  0  0  0
   58.9710   27.8480   46.7290 C   0  0  0  0  0  0  0  0  0  0  0  0
   60.0810   27.7270   47.7410 C   0  0  0  0  0  0  0  0  0  0  0  0
   58.4000   32.7390   48.9260 N   0  0  0  0  0  0  0  0  0  0  0  0
   59.3800   31.9000   49.0670 C   0  0  0  0  0  0  0  0  0  0  0  0
   61.3780   30.1820   49.3490 C   0  0  0  0  0  0  0  0  0  0  0  0
   61.6840   31.5120   49.4980 C   0  0  0  0  0  0  0  0  0  0  0  0
   62.9600   32.0690   49.8390 C   0  0  0  0  0  0  0  0  0  0  0  0
   63.2730   32.2320   51.1930 C   0  0  0  0  0  0  0  0  0  0  0  0
   64.4820   32.8060   51.5950 C   0  0  0  0  0  0  0  0  0  0  0  0
   65.4190   33.2370   50.6930 C   0  0  0  0  0  0  0  0  0  0  0  0
   65.1230   33.0830   49.3640 C   0  0  0  0  0  0  0  0  0  0  0  0
   63.9170   32.5110   48.9540 C   0  0  0  0  0  0  0  0  0  0  0  0
   63.6750   32.4360   47.2280 Cl  0  0  0  0  0  0  0  0  0  0  0  0
   60.6240   32.3590   49.3440 N   0  0  0  0  0  0  0  0  0  0  0  0
   60.0920   29.7260   49.0630 C   0  0  0  0  0  0  0  0  0  0  0  0
   59.8110   28.4880   48.9250 N   0  0  0  0  0  0  0  0  0  0  0  0
   57.7920   33.0100   47.6440 C   0  0  0  0  0  0  0  0  0  0  0  0
   58.7410   32.9810   46.4890 C   0  0  0  0  0  0  0  0  0  0  0  0
   59.4300   34.3320   46.4010 C   0  0  0  0  0  0  0  0  0  0  0  0
   59.2350   34.9460   45.0320 C   0  0  0  0  0  0  0  0  0  0  0  0
   60.9140   34.2130   46.6460 C   0  0  0  0  0  0  0  0  0  0  0  0
   59.0820   30.6040   48.9210 N   0  0  0  0  0  0  0  0  0  0  0  0
   59.0730   28.8520   45.7610 C   0  0  0  0  0  0  0  0  0  0  0  0
   57.7932   32.9831   40.9257 H   0  0  0  0  0  0  0  0  0  0  0  0
   57.4795   31.1299   41.2372 H   0  0  0  0  0  0  0  0  0  0  0  0
   57.8901   33.3799   43.2797 H   0  0  0  0  0  0  0  0  0  0  0  0
   58.9300   29.8840   43.0530 H   0  0  0  0  0  0  0  0  0  0  0  0
   56.2263   28.3192   44.0599 H   0  0  0  0  0  0  0  0  0  0  0  0
   55.9982   26.5282   45.7511 H   0  0  0  0  0  0  0  0  0  0  0  0
   57.7835   26.2263   47.4820 H   0  0  0  0  0  0  0  0  0  0  0  0
   60.1963   26.6685   48.0173 H   0  0  0  0  0  0  0  0  0  0  0  0
   61.0015   28.1209   47.2855 H   0  0  0  0  0  0  0  0  0  0  0  0
   62.1845   29.4423   49.4604 H   0  0  0  0  0  0  0  0  0  0  0  0
   62.5530   31.9017   51.9562 H   0  0  0  0  0  0  0  0  0  0  0  0
   64.6880   32.9153   52.6700 H   0  0  0  0  0  0  0  0  0  0  0  0
   66.3675   33.6870   51.0214 H   0  0  0  0  0  0  0  0  0  0  0  0
   65.8482   33.4158   48.6068 H   0  0  0  0  0  0  0  0  0  0  0  0
   60.7060   33.3910   49.4170 H   0  0  0  0  0  0  0  0  0  0  0  0
   57.0123   32.2546   47.4670 H   0  0  0  0  0  0  0  0  0  0  0  0
   57.3946   34.0343   47.6966 H   0  0  0  0  0  0  0  0  0  0  0  0
   59.4906   32.1910   46.6437 H   0  0  0  0  0  0  0  0  0  0  0  0
   58.1956   32.7733   45.5566 H   0  0  0  0  0  0  0  0  0  0  0  0
   58.9763   34.9681   47.1753 H   0  0  0  0  0  0  0  0  0  0  0  0
   58.9037   35.9892   45.1418 H   0  0  0  0  0  0  0  0  0  0  0  0
   60.1858   34.9195   44.4794 H   0  0  0  0  0  0  0  0  0  0  0  0
   58.4738   34.3758   44.4794 H   0  0  0  0  0  0  0  0  0  0  0  0
   61.1068   34.1975   47.7289 H   0  0  0  0  0  0  0  0  0  0  0  0
   61.2868   33.2821   46.1939 H   0  0  0  0  0  0  0  0  0  0  0  0
   61.4304   35.0726   46.1939 H   0  0  0  0  0  0  0  0  0  0  0  0
   58.1210   30.2870   48.7100 H   0  0  0  0  0  0  0  0  0  0  0  0
   59.9524   29.5127   45.7680 H   0  0  0  0  0  0  0  0  0  0  0  0
  1  2  2  0
  2  3  1  0
  3  4  2  0
  3  5  1  0
  5  6  1  0
  6  7  2  0
  7  8  1  0
  8  9  2  0
  9 10  1  0
 10 11  1  0
 11 12  1  0
 12 13  2  0
 13 14  1  0
 14 15  2  0
 15 16  1  0
 16 17  2  0
 17 18  1  0
 18 19  2  0
 19 20  1  0
 20 21  2  0
 21 22  1  0
 15 23  1  0
 23 24  1  0
 24 25  2  0
 25 26  1  0
 26 27  1  0
 27 28  1  0
 28 29  1  0
 28 30  1  0
 24 31  1  0
 10 32  2  0
 32  6  1  0
 31 13  1  0
 21 16  1  0
  1 33  1  0
  1 34  1  0
  2 35  1  0
  5 36  1  0
  7 37  1  0
  8 38  1  0
  9 39  1  0
 11 40  1  0
 11 41  1  0
 14 42  1  0
 17 43  1  0
 18 44  1  0
 19 45  1  0
 20 46  1  0
 23 47  1  0
 26 48  1  0
 26 49  1  0
 27 50  1  0
 27 51  1  0
 28 52  1  0
 29 53  1  0
 29 54  1  0
 29 55  1  0
 30 56  1  0
 30 57  1  0
 30 58  1  0
 31 59  1  0
 32 60  1  0
M  END
>  <smiles>  (74) 
C=CC(=O)Nc1cccc(CN=c2cc(-c3ccccc3Cl)[nH]c(=NCCC(C)C)[nH]2)c1

>  <score_type>  (74) 
oracle

>  <origin>  (74) 
adg

>  <m_score__min__energy>  (74) 
-9.5700000000000003

>  <m_primary>  (74) 
energy

$$$$
74:0
     RDKit          3D

 36 38  0  0  0  0  0  0  0  0999 V2000
   58.7090   28.3630   47.5750 C   0  0  0  0  0  0  0  0  0  0  0  0
   58.2170   29.0720   46.5490 C   0  0  0  0  0  0  0  0  0  0  0  0
   57.6270   28.5820   45.3760 C   0  0  0  0  0  0  0  0  0  0  0  0
   57.5590   27.3340   44.8700 C   0  0  0  0  0  0  0  0  0  0  0  0
   57.1580   26.1350   45.6170 C   0  0  0  0  0  0  0  0  0  0  0  0
   58.2220   24.9440   46.1510 S   0  0  0  0  0  0  0  0  0  0  0  0
   57.0210   24.1320   47.0000 C   0  0  0  0  0  0  0  0  0  0  0  0
   57.2050   23.0700   47.6490 O   0  0  0  0  0  0  0  0  0  0  0  0
   55.8220   24.7500   46.9270 N   0  0  0  0  0  0  0  0  0  0  0  0
   55.9030   25.8760   46.1700 C   0  0  0  0  0  0  0  0  0  0  0  0
   54.8070   26.7110   45.9900 O   0  0  0  0  0  0  0  0  0  0  0  0
   57.0800   29.7130   44.7780 C   0  0  0  0  0  0  0  0  0  0  0  0
   56.3200   29.7720   43.4890 C   0  0  0  0  0  0  0  0  0  0  0  0
   57.3730   30.8050   45.5060 N   0  0  0  0  0  0  0  0  0  0  0  0
   58.0790   30.4230   46.5600 N   0  0  0  0  0  0  0  0  0  0  0  0
   58.5060   31.3500   47.6180 C   0  0  0  0  0  0  0  0  0  0  0  0
   59.6480   32.2260   47.1510 C   0  0  0  0  0  0  0  0  0  0  0  0
   60.9620   31.9120   47.5380 C   0  0  0  0  0  0  0  0  0  0  0  0
   62.0300   32.7190   47.1380 C   0  0  0  0  0  0  0  0  0  0  0  0
   61.7990   33.8520   46.3570 C   0  0  0  0  0  0  0  0  0  0  0  0
   60.4970   34.1840   45.9740 C   0  0  0  0  0  0  0  0  0  0  0  0
   59.4170   33.3830   46.3690 C   0  0  0  0  0  0  0  0  0  0  0  0
   58.0840   33.7680   45.9730 C   0  0  0  0  0  0  0  0  0  0  0  0
   57.0150   34.0760   45.6540 N   0  0  0  0  0  0  0  0  0  0  0  0
   59.1478   28.8805   48.4408 H   0  0  0  0  0  0  0  0  0  0  0  0
   58.6739   27.2638   47.5510 H   0  0  0  0  0  0  0  0  0  0  0  0
   57.8258   27.2033   43.8109 H   0  0  0  0  0  0  0  0  0  0  0  0
   55.2439   29.8555   43.7013 H   0  0  0  0  0  0  0  0  0  0  0  0
   56.6484   30.6474   42.9094 H   0  0  0  0  0  0  0  0  0  0  0  0
   56.5094   28.8564   42.9094 H   0  0  0  0  0  0  0  0  0  0  0  0
   57.6560   31.9888   47.8997 H   0  0  0  0  0  0  0  0  0  0  0  0
   58.8503   30.7595   48.4799 H   0  0  0  0  0  0  0  0  0  0  0  0
   61.1509   31.0247   48.1601 H   0  0  0  0  0  0  0  0  0  0  0  0
   63.0558   32.4605   47.4396 H   0  0  0  0  0  0  0  0  0  0  0  0
   62.6425   34.4842   46.0426 H   0  0  0  0  0  0  0  0  0  0  0  0
   60.3187   35.0786   45.3593 H   0  0  0  0  0  0  0  0  0  0  0  0
  1  2  2  0
  2  3  1  0
  3  4  2  3
  4  5  1  0
  5  6  1  0
  6  7  1  0
  7  8  2  0
  7  9  1  0
  9 10  1  0
 10 11  1  0
  3 12  1  0
 12 13  1  0
 12 14  2  0
 14 15  1  0
 15 16  1  0
 16 17  1  0
 17 18  2  0
 18 19  1  0
 19 20  2  0
 20 21  1  0
 21 22  2  0
 22 23  1  0
 23 24  3  0
 15  2  1  0
 22 17  1  0
 10  5  2  0
  1 25  1  0
  1 26  1  0
  4 27  1  0
 13 28  1  0
 13 29  1  0
 13 30  1  0
 16 31  1  0
 16 32  1  0
 18 33  1  0
 19 34  1  0
 20 35  1  0
 21 36  1  0
M  CHG  2   9  -1  11  -1
M  END
>  <UniqueID>  (75) 
71

>  <SMILES>  (75) 
C=c1c(=Cc2sc(=O)[n-]c2[O-])c(C)nn1Cc1ccccc1C#N

>  <Energy>  (75) 
113.4154490327523

>  <Genealogy>  (75) 
C=c1c(=Cc2sc(=O)[n-]c2[O-])c(C)nn1Cc1ccccc1C#N (protonated)
C=c1c(=Cc2sc(=O)[n-]c2[O-])c(C)nn1Cc1ccccc1C#N (3D coordinates assigned)
C=c1c(=Cc2sc(=O)[n-]c2[O-])c(C)nn1Cc1ccccc1C#N (optimized conformer: 113.4154490327523 kcal/mol)

>  <smiles>  (75) 
C=c1c(=Cc2sc(=O)[nH]c2O)c(C)nn1Cc1ccccc1C#N

>  <score_type>  (75) 
oracle

>  <origin>  (75) 
adg

>  <m_score__min__energy>  (75) 
-14.800000000000001

>  <m_primary>  (75) 
energy

$$$$
75:0
     RDKit          3D

 53 56  0  0  0  0  0  0  0  0999 V2000
   60.2400   35.9820   46.0360 O   0  0  0  0  0  0  0  0  0  0  0  0
   60.1620   34.7860   46.4270 C   0  0  0  0  0  0  0  0  0  0  0  0
   61.2370   34.2190   47.2740 C   0  0  0  0  0  0  0  0  0  0  0  0
   62.3940   33.6800   46.6880 C   0  0  0  0  0  0  0  0  0  0  0  0
   63.4000   33.1270   47.4840 C   0  0  0  0  0  0  0  0  0  0  0  0
   63.2740   33.1020   48.8830 C   0  0  0  0  0  0  0  0  0  0  0  0
   64.3090   32.5160   49.6990 N   0  0  0  0  0  0  0  0  0  0  0  0
   65.6650   33.0310   49.8110 C   0  0  0  0  0  0  0  0  0  0  0  0
   66.4620   31.9650   50.5840 C   0  0  0  0  0  0  0  0  0  0  0  0
   65.4410   30.9980   51.1980 C   0  0  0  0  0  0  0  0  0  0  0  0
   64.1770   31.3800   50.5380 C   0  0  0  0  0  0  0  0  0  0  0  0
   63.0780   30.8060   50.7640 O   0  0  0  0  0  0  0  0  0  0  0  0
   62.1030   33.6180   49.4670 C   0  0  0  0  0  0  0  0  0  0  0  0
   61.0970   34.1710   48.6710 C   0  0  0  0  0  0  0  0  0  0  0  0
   59.0460   33.9840   46.0100 N   0  0  0  0  0  0  0  0  0  0  0  0
   58.1990   33.3160   47.0070 C   0  0  0  0  0  0  0  0  0  0  0  0
   57.7640   31.9110   46.5310 C   0  0  0  0  0  0  0  0  0  0  0  0
   58.0970   31.6630   45.1110 N   0  0  0  0  0  0  0  0  0  0  0  0
   57.4320   30.4580   44.6550 C   0  0  0  0  0  0  0  0  0  0  0  0
   56.1780   30.4420   44.5220 O   0  0  0  0  0  0  0  0  0  0  0  0
   58.1530   29.2290   44.4800 N   0  0  0  0  0  0  0  0  0  0  0  0
   58.2790   28.1800   45.4490 C   0  0  0  0  0  0  0  0  0  0  0  0
   57.3760   27.1020   45.4660 C   0  0  0  0  0  0  0  0  0  0  0  0
   57.4970   26.0970   46.4310 C   0  0  0  0  0  0  0  0  0  0  0  0
   58.5070   26.1690   47.3930 C   0  0  0  0  0  0  0  0  0  0  0  0
   59.3900   27.2520   47.4000 C   0  0  0  0  0  0  0  0  0  0  0  0
   59.2730   28.2620   46.4380 C   0  0  0  0  0  0  0  0  0  0  0  0
   60.5050   29.7280   46.4770 Br  0  0  0  0  0  0  0  0  0  0  0  0
   57.7260   32.8210   44.2720 C   0  0  0  0  0  0  0  0  0  0  0  0
   58.6220   34.0240   44.6060 C   0  0  0  0  0  0  0  0  0  0  0  0
   62.5089   33.6934   45.5941 H   0  0  0  0  0  0  0  0  0  0  0  0
   64.2998   32.7069   47.0107 H   0  0  0  0  0  0  0  0  0  0  0  0
   66.0996   33.1832   48.8120 H   0  0  0  0  0  0  0  0  0  0  0  0
   65.6855   34.0021   50.3274 H   0  0  0  0  0  0  0  0  0  0  0  0
   67.1308   31.4232   49.8991 H   0  0  0  0  0  0  0  0  0  0  0  0
   67.0821   32.4288   51.3653 H   0  0  0  0  0  0  0  0  0  0  0  0
   65.7029   29.9533   50.9744 H   0  0  0  0  0  0  0  0  0  0  0  0
   65.3917   31.0615   52.2951 H   0  0  0  0  0  0  0  0  0  0  0  0
   61.9784   33.5858   50.5594 H   0  0  0  0  0  0  0  0  0  0  0  0
   60.1875   34.5723   49.1421 H   0  0  0  0  0  0  0  0  0  0  0  0
   58.7631   33.2165   47.9461 H   0  0  0  0  0  0  0  0  0  0  0  0
   57.2952   33.9251   47.1557 H   0  0  0  0  0  0  0  0  0  0  0  0
   58.2726   31.1565   47.1491 H   0  0  0  0  0  0  0  0  0  0  0  0
   56.6705   31.8486   46.6326 H   0  0  0  0  0  0  0  0  0  0  0  0
   59.1310   31.5310   45.0500 H   0  0  0  0  0  0  0  0  0  0  0  0
   56.5716   27.0491   44.7176 H   0  0  0  0  0  0  0  0  0  0  0  0
   56.7962   25.2492   46.4324 H   0  0  0  0  0  0  0  0  0  0  0  0
   58.6074   25.3729   48.1454 H   0  0  0  0  0  0  0  0  0  0  0  0
   60.1794   27.3110   48.1638 H   0  0  0  0  0  0  0  0  0  0  0  0
   57.8517   32.5571   43.2116 H   0  0  0  0  0  0  0  0  0  0  0  0
   56.6772   33.0874   44.4697 H   0  0  0  0  0  0  0  0  0  0  0  0
   59.5119   34.0013   43.9598 H   0  0  0  0  0  0  0  0  0  0  0  0
   58.0494   34.9478   44.4368 H   0  0  0  0  0  0  0  0  0  0  0  0
  1  2  2  0
  2  3  1  0
  3  4  2  0
  4  5  1  0
  5  6  2  0
  6  7  1  0
  7  8  1  0
  8  9  1  0
  9 10  1  0
 10 11  1  0
 11 12  2  0
  6 13  1  0
 13 14  2  0
  2 15  1  0
 15 16  1  0
 16 17  1  0
 17 18  1  0
 18 19  1  0
 19 20  2  0
 19 21  1  0
 21 22  1  0
 22 23  2  0
 23 24  1  0
 24 25  2  0
 25 26  1  0
 26 27  2  0
 27 28  1  0
 18 29  1  0
 29 30  1  0
 14  3  1  0
 30 15  1  0
 11  7  1  0
 27 22  1  0
  4 31  1  0
  5 32  1  0
  8 33  1  0
  8 34  1  0
  9 35  1  0
  9 36  1  0
 10 37  1  0
 10 38  1  0
 13 39  1  0
 14 40  1  0
 16 41  1  0
 16 42  1  0
 17 43  1  0
 17 44  1  0
 18 45  1  0
 23 46  1  0
 24 47  1  0
 25 48  1  0
 26 49  1  0
 29 50  1  0
 29 51  1  0
 30 52  1  0
 30 53  1  0
M  CHG  2  18   1  21  -1
M  END
>  <UniqueID>  (76) 
72

>  <SMILES>  (76) 
O=C(c1ccc(N2CCCC2=O)cc1)N1CC[NH+](C(=O)[N-]c2ccccc2Br)CC1

>  <Energy>  (76) 
82.9681016444104

>  <Genealogy>  (76) 
O=C(c1ccc(N2CCCC2=O)cc1)N1CC[NH+](C(=O)[N-]c2ccccc2Br)CC1 (protonated)
O=C(c1ccc(N2CCCC2=O)cc1)N1CC[NH+](C(=O)[N-]c2ccccc2Br)CC1 (3D coordinates assigned)
O=C(c1ccc(N2CCCC2=O)cc1)N1CC[NH+](C(=O)[N-]c2ccccc2Br)CC1 (nonaromatic ring conformer: 82.9681016444104 kcal/mol)

>  <smiles>  (76) 
O=C(Nc1ccccc1Br)N1CCN(C(=O)c2ccc(N3CCCC3=O)cc2)CC1

>  <score_type>  (76) 
oracle

>  <origin>  (76) 
adg

>  <m_score__min__energy>  (76) 
-9.0899999999999999

>  <m_primary>  (76) 
energy

$$$$
76:0
     RDKit          3D

 51 54  0  0  0  0  0  0  0  0999 V2000
   57.4070   30.2580   43.9400 C   0  0  0  0  0  0  0  0  0  0  0  0
   57.9320   30.0060   45.1510 C   0  0  0  0  0  0  0  0  0  0  0  0
   57.9420   28.7610   45.8010 C   0  0  0  0  0  0  0  0  0  0  0  0
   57.6670   27.5220   45.3500 C   0  0  0  0  0  0  0  0  0  0  0  0
   57.2110   26.3890   46.1710 C   0  0  0  0  0  0  0  0  0  0  0  0
   58.0350   25.4430   46.6540 N   0  0  0  0  0  0  0  0  0  0  0  0
   57.1920   24.5580   47.2280 C   0  0  0  0  0  0  0  0  0  0  0  0
   57.5940   23.5200   47.8140 O   0  0  0  0  0  0  0  0  0  0  0  0
   55.8820   24.8680   47.1160 N   0  0  0  0  0  0  0  0  0  0  0  0
   55.9100   26.0210   46.4310 C   0  0  0  0  0  0  0  0  0  0  0  0
   54.7710   26.7080   46.0280 O   0  0  0  0  0  0  0  0  0  0  0  0
   58.2990   29.0120   47.1080 C   0  0  0  0  0  0  0  0  0  0  0  0
   58.5440   30.3630   47.2070 C   0  0  0  0  0  0  0  0  0  0  0  0
   58.8760   31.0170   48.4880 C   0  0  0  0  0  0  0  0  0  0  0  0
   58.1980   32.0280   48.8190 O   0  0  0  0  0  0  0  0  0  0  0  0
   59.9170   30.5200   49.3800 N   0  0  2  0  0  0  0  0  0  0  0  0
   60.0980   31.4020   50.5560 C   0  0  0  0  0  0  0  0  0  0  0  0
   60.5940   32.8020   50.1590 C   0  0  0  0  0  0  0  0  0  0  0  0
   61.6940   32.7500   49.1310 C   0  0  0  0  0  0  0  0  0  0  0  0
   62.4000   33.9230   48.8220 C   0  0  0  0  0  0  0  0  0  0  0  0
   63.3740   33.9190   47.8200 C   0  0  0  0  0  0  0  0  0  0  0  0
   63.6460   32.7450   47.1140 C   0  0  0  0  0  0  0  0  0  0  0  0
   62.9450   31.5730   47.4070 C   0  0  0  0  0  0  0  0  0  0  0  0
   61.9540   31.5700   48.4010 C   0  0  0  0  0  0  0  0  0  0  0  0
   61.2280   30.2860   48.7280 C   0  0  0  0  0  0  0  0  0  0  0  0
   58.3750   30.9780   46.0040 N   0  0  0  0  0  0  0  0  0  0  0  0
   58.5540   32.4140   45.6760 C   0  0  0  0  0  0  0  0  0  0  0  0
   57.3460   33.2370   46.1270 C   0  0  0  0  0  0  0  0  0  0  0  0
   59.8660   32.9980   46.2190 C   0  0  0  0  0  0  0  0  0  0  0  0
   57.4530   31.2741   43.5212 H   0  0  0  0  0  0  0  0  0  0  0  0
   56.9313   29.4482   43.3674 H   0  0  0  0  0  0  0  0  0  0  0  0
   57.7946   27.3410   44.2725 H   0  0  0  0  0  0  0  0  0  0  0  0
   58.3740   28.2726   47.9190 H   0  0  0  0  0  0  0  0  0  0  0  0
   59.5810   29.5960   49.7400 H   0  0  0  0  0  0  0  0  0  0  0  0
   59.1339   31.5017   51.0761 H   0  0  0  0  0  0  0  0  0  0  0  0
   60.8580   30.9458   51.2074 H   0  0  0  0  0  0  0  0  0  0  0  0
   59.7494   33.3719   49.7444 H   0  0  0  0  0  0  0  0  0  0  0  0
   60.9998   33.2830   51.0612 H   0  0  0  0  0  0  0  0  0  0  0  0
   62.1853   34.8512   49.3719 H   0  0  0  0  0  0  0  0  0  0  0  0
   63.9268   34.8410   47.5871 H   0  0  0  0  0  0  0  0  0  0  0  0
   64.4135   32.7434   46.3260 H   0  0  0  0  0  0  0  0  0  0  0  0
   63.1706   30.6480   46.8562 H   0  0  0  0  0  0  0  0  0  0  0  0
   61.0622   29.7279   47.7947 H   0  0  0  0  0  0  0  0  0  0  0  0
   61.8541   29.7209   49.4341 H   0  0  0  0  0  0  0  0  0  0  0  0
   58.6243   32.4762   44.5800 H   0  0  0  0  0  0  0  0  0  0  0  0
   57.3091   33.2621   47.2261 H   0  0  0  0  0  0  0  0  0  0  0  0
   57.4358   34.2626   45.7396 H   0  0  0  0  0  0  0  0  0  0  0  0
   56.4244   32.7781   45.7396 H   0  0  0  0  0  0  0  0  0  0  0  0
   59.8442   32.9883   47.3187 H   0  0  0  0  0  0  0  0  0  0  0  0
   60.7121   32.3915   45.8636 H   0  0  0  0  0  0  0  0  0  0  0  0
   59.9816   34.0326   45.8636 H   0  0  0  0  0  0  0  0  0  0  0  0
  1  2  2  0
  2  3  1  0
  3  4  2  3
  4  5  1  0
  5  6  1  0
  6  7  1  0
  7  8  2  0
  7  9  1  0
  9 10  1  0
 10 11  1  0
  3 12  1  0
 12 13  2  0
 13 14  1  0
 14 15  2  0
 14 16  1  0
 16 17  1  0
 17 18  1  0
 18 19  1  0
 19 20  2  0
 20 21  1  0
 21 22  2  0
 22 23  1  0
 23 24  2  0
 24 25  1  0
 13 26  1  0
 26 27  1  0
 27 28  1  0
 27 29  1  0
 26  2  1  0
 10  5  2  0
 25 16  1  0
 24 19  1  0
  1 30  1  0
  1 31  1  0
  4 32  1  0
 12 33  1  0
 16 34  1  1
 17 35  1  0
 17 36  1  0
 18 37  1  0
 18 38  1  0
 20 39  1  0
 21 40  1  0
 22 41  1  0
 23 42  1  0
 25 43  1  0
 25 44  1  0
 27 45  1  0
 28 46  1  0
 28 47  1  0
 28 48  1  0
 29 49  1  0
 29 50  1  0
 29 51  1  0
M  CHG  4   6  -1   9  -1  11  -1  16   1
M  END
>  <UniqueID>  (77) 
73

>  <SMILES>  (77) 
C=c1c(=Cc2[n-]c(=O)[n-]c2[O-])cc(C(=O)[N@@H+]2CCc3ccccc3C2)n1C(C)C

>  <Energy>  (77) 
140.18832271164806

>  <Genealogy>  (77) 
C=c1c(=Cc2[n-]c(=O)[n-]c2[O-])cc(C(=O)[NH+]2CCc3ccccc3C2)n1C(C)C (protonated)
C=c1c(=Cc2[n-]c(=O)[n-]c2[O-])cc(C(=O)[N@@H+]2CCc3ccccc3C2)n1C(C)C (chirality)
C=c1c(=Cc2[n-]c(=O)[n-]c2[O-])cc(C(=O)[N@@H+]2CCc3ccccc3C2)n1C(C)C (3D coordinates assigned)
C=c1c(=Cc2[n-]c(=O)[n-]c2[O-])cc(C(=O)[N@@H+]2CCc3ccccc3C2)n1C(C)C (nonaromatic ring conformer: 140.18832271164806 kcal/mol)

>  <smiles>  (77) 
C=c1c(=Cc2[nH]c(=O)[nH]c2O)cc(C(=O)N2CCc3ccccc3C2)n1C(C)C

>  <score_type>  (77) 
oracle

>  <origin>  (77) 
adg

>  <m_score__min__energy>  (77) 
-15.99

>  <m_primary>  (77) 
energy

$$$$
77:0
     RDKit          3D

 37 39  0  0  0  0  0  0  0  0999 V2000
   54.7690   28.2740   44.4950 H   0  0  0  0  0  0  0  0  0  0  0  0
   54.9720   29.2620   44.4030 O   0  0  0  0  0  0  0  0  0  0  0  0
   56.1890   29.7820   44.8310 C   0  0  0  0  0  0  0  0  0  0  0  0
   56.4400   31.1180   44.8230 N   0  0  0  0  0  0  0  0  0  0  0  0
   57.6790   31.4000   45.2880 C   0  0  0  0  0  0  0  0  0  0  0  0
   58.1990   32.7410   45.3930 N   0  0  0  0  0  0  0  0  0  0  0  0
   58.5550   33.4680   44.1690 C   0  0  0  0  0  0  0  0  0  0  0  0
   59.0069   32.7679   43.4509 H   0  0  0  0  0  0  0  0  0  0  0  0
   57.6440   33.9138   43.7430 H   0  0  0  0  0  0  0  0  0  0  0  0
   59.5540   34.5860   44.4790 C   0  0  0  0  0  0  0  0  0  0  0  0
   60.5202   34.1396   44.7568 H   0  0  0  0  0  0  0  0  0  0  0  0
   59.6668   35.2164   43.5846 H   0  0  0  0  0  0  0  0  0  0  0  0
   59.0910   35.3910   45.5460 O   0  0  0  0  0  0  0  0  0  0  0  0
   59.0590   34.6250   46.7330 C   0  0  0  0  0  0  0  0  0  0  0  0
   60.0507   34.1797   46.9011 H   0  0  0  0  0  0  0  0  0  0  0  0
   58.7872   35.2851   47.5699 H   0  0  0  0  0  0  0  0  0  0  0  0
   58.0170   33.5060   46.6340 C   0  0  0  0  0  0  0  0  0  0  0  0
   58.1283   32.8306   47.4951 H   0  0  0  0  0  0  0  0  0  0  0  0
   57.0127   33.9547   46.6310 H   0  0  0  0  0  0  0  0  0  0  0  0
   58.5050   29.9930   45.7270 S   0  0  0  0  0  0  0  0  0  0  0  0
   57.2300   28.9850   45.2980 C   0  0  0  0  0  0  0  0  0  0  0  0
   57.2170   27.4950   45.4600 C   0  0  0  0  0  0  0  0  0  0  0  0
   57.9008   27.2132   46.2743 H   0  0  0  0  0  0  0  0  0  0  0  0
   57.5404   27.0313   44.5164 H   0  0  0  0  0  0  0  0  0  0  0  0
   55.8680   27.0270   45.7800 N   0  0  0  0  0  0  0  0  0  0  0  0
   55.5610   25.8020   46.0880 C   0  0  0  0  0  0  0  0  0  0  0  0
   54.3680   25.2640   45.7110 N   0  0  0  0  0  0  0  0  0  0  0  0
   54.0370   23.9850   46.0330 C   0  0  0  0  0  0  0  0  0  0  0  0
   52.7090   23.4340   45.6230 C   0  0  0  0  0  0  0  0  0  0  0  0
   52.1206   23.1899   46.5198 H   0  0  0  0  0  0  0  0  0  0  0  0
   52.1705   24.1829   45.0238 H   0  0  0  0  0  0  0  0  0  0  0  0
   52.8589   22.5238   45.0238 H   0  0  0  0  0  0  0  0  0  0  0  0
   54.9330   23.2050   46.7700 C   0  0  0  0  0  0  0  0  0  0  0  0
   54.6823   22.1707   47.0480 H   0  0  0  0  0  0  0  0  0  0  0  0
   56.1540   23.7700   47.1450 C   0  0  0  0  0  0  0  0  0  0  0  0
   56.9870   23.0960   47.8060 O   0  0  0  0  0  0  0  0  0  0  0  0
   56.4430   25.0520   46.7990 N   0  0  0  0  0  0  0  0  0  0  0  0
  1  2  1  0
  2  3  1  0
  3  4  1  0
  4  5  2  0
  5  6  1  0
  6  7  1  0
  7  8  1  0
  7  9  1  0
  7 10  1  0
 10 11  1  0
 10 12  1  0
 10 13  1  0
 13 14  1  0
 14 15  1  0
 14 16  1  0
 14 17  1  0
 17 18  1  0
 17 19  1  0
  5 20  1  0
 20 21  1  0
 21 22  1  0
 22 23  1  0
 22 24  1  0
 22 25  1  0
 25 26  2  0
 26 27  1  0
 27 28  1  0
 28 29  1  0
 29 30  1  0
 29 31  1  0
 29 32  1  0
 28 33  2  0
 33 34  1  0
 33 35  1  0
 35 36  2  0
 35 37  1  0
 21  3  2  0
 37 26  1  0
 17  6  1  0
M  CHG  2  27  -1  37  -1
M  END
>  <UniqueID>  (78) 
74

>  <SMILES>  (78) 
Cc1cc(=O)[n-]/c(=N/Cc2sc(N3CCOCC3)nc2O)[n-]1

>  <Energy>  (78) 
67.20384912928759

>  <Genealogy>  (78) 
Cc1cc(=O)[n-]c(=NCc2sc(N3CCOCC3)nc2O)[n-]1 (protonated)
Cc1cc(=O)[n-]/c(=N/Cc2sc(N3CCOCC3)nc2O)[n-]1 (cis-trans isomerization)
Cc1cc(=O)[n-]/c(=N/Cc2sc(N3CCOCC3)nc2O)[n-]1 (3D coordinates assigned)
Cc1cc(=O)[n-]/c(=N/Cc2sc(N3CCOCC3)nc2O)[n-]1 (nonaromatic ring conformer: 67.20384912928759 kcal/mol)

>  <smiles>  (78) 
Cc1cc(=O)[nH]c(=NCc2sc(N3CCOCC3)nc2O)[nH]1

>  <score_type>  (78) 
oracle

>  <origin>  (78) 
adg

>  <m_score__min__energy>  (78) 
-12.470000000000001

>  <m_primary>  (78) 
energy

$$$$
78:0
     RDKit          3D

 50 53  0  0  0  0  0  0  0  0999 V2000
   56.1925   21.8354   41.9329 H   0  0  0  0  0  0  0  0  0  0  0  0
   56.4350   21.9130   43.0030 C   0  0  0  0  0  0  0  0  0  0  0  0
   55.7570   22.7880   43.7920 N   0  0  0  0  0  0  0  0  0  0  0  0
   56.0220   22.9180   45.1250 C   0  0  0  0  0  0  0  0  0  0  0  0
   55.3620   23.7620   45.8660 N   0  0  0  0  0  0  0  0  0  0  0  0
   55.4370   25.1970   45.8240 C   0  0  0  0  0  0  0  0  0  0  0  0
   54.4010   25.8950   45.6430 O   0  0  0  0  0  0  0  0  0  0  0  0
   56.7470   25.8510   45.9940 C   0  0  0  0  0  0  0  0  0  0  0  0
   56.7950   27.1880   46.2410 N   0  0  0  0  0  0  0  0  0  0  0  0
   57.9680   27.8550   46.4100 C   0  0  0  0  0  0  0  0  0  0  0  0
   57.9570   29.2300   46.6660 C   0  0  0  0  0  0  0  0  0  0  0  0
   56.9976   29.7635   46.7358 H   0  0  0  0  0  0  0  0  0  0  0  0
   59.1610   29.9370   46.8350 C   0  0  0  0  0  0  0  0  0  0  0  0
   59.1330   31.3910   47.1170 C   0  0  0  0  0  0  0  0  0  0  0  0
   58.8400   31.7930   48.2760 O   0  0  0  0  0  0  0  0  0  0  0  0
   59.4220   32.3510   46.0880 N   0  0  0  0  0  0  0  0  0  0  0  0
   59.4140   32.0540   45.0860 H   0  0  0  0  0  0  0  0  0  0  0  0
   59.6860   33.7580   46.3820 C   0  0  0  0  0  0  0  0  0  0  0  0
   58.8716   34.1592   47.0031 H   0  0  0  0  0  0  0  0  0  0  0  0
   59.7465   34.3186   45.4375 H   0  0  0  0  0  0  0  0  0  0  0  0
   60.9930   33.8950   47.1230 C   0  0  0  0  0  0  0  0  0  0  0  0
   62.1950   33.7530   46.4090 C   0  0  0  0  0  0  0  0  0  0  0  0
   62.1676   33.5680   45.3250 H   0  0  0  0  0  0  0  0  0  0  0  0
   63.4230   33.8450   47.0650 C   0  0  0  0  0  0  0  0  0  0  0  0
   64.3586   33.7342   46.4972 H   0  0  0  0  0  0  0  0  0  0  0  0
   63.4660   34.0770   48.4380 C   0  0  0  0  0  0  0  0  0  0  0  0
   64.4358   34.1509   48.9519 H   0  0  0  0  0  0  0  0  0  0  0  0
   62.2800   34.2160   49.1640 C   0  0  0  0  0  0  0  0  0  0  0  0
   62.3214   34.3985   50.2480 H   0  0  0  0  0  0  0  0  0  0  0  0
   61.0310   34.1240   48.5170 C   0  0  0  0  0  0  0  0  0  0  0  0
   59.8240   34.2530   49.2230 O   0  0  0  0  0  0  0  0  0  0  0  0
   59.6110   33.7880   50.5520 C   0  0  0  0  0  0  0  0  0  0  0  0
   59.9592   34.5482   51.2667 H   0  0  0  0  0  0  0  0  0  0  0  0
   58.5381   33.6023   50.7080 H   0  0  0  0  0  0  0  0  0  0  0  0
   60.1712   32.8542   50.7080 H   0  0  0  0  0  0  0  0  0  0  0  0
   60.3790   29.2370   46.7630 C   0  0  0  0  0  0  0  0  0  0  0  0
   61.3266   29.7766   46.9073 H   0  0  0  0  0  0  0  0  0  0  0  0
   60.3970   27.8630   46.5100 C   0  0  0  0  0  0  0  0  0  0  0  0
   61.3575   27.3300   46.4521 H   0  0  0  0  0  0  0  0  0  0  0  0
   59.1940   27.1580   46.3290 C   0  0  0  0  0  0  0  0  0  0  0  0
   59.1700   25.7740   46.0760 C   0  0  0  0  0  0  0  0  0  0  0  0
   60.2390   25.1110   45.9990 O   0  0  0  0  0  0  0  0  0  0  0  0
   57.9450   25.1220   45.9080 C   0  0  0  0  0  0  0  0  0  0  0  0
   57.9190   24.0405   45.7089 H   0  0  0  0  0  0  0  0  0  0  0  0
   57.0250   22.1260   45.7050 C   0  0  0  0  0  0  0  0  0  0  0  0
   57.3200   22.2340   47.0610 O   0  0  0  0  0  0  0  0  0  0  0  0
   57.7330   21.2220   44.9100 C   0  0  0  0  0  0  0  0  0  0  0  0
   58.5213   20.5970   45.3550 H   0  0  0  0  0  0  0  0  0  0  0  0
   57.4390   21.1130   43.5510 C   0  0  0  0  0  0  0  0  0  0  0  0
   57.9925   20.4041   42.9177 H   0  0  0  0  0  0  0  0  0  0  0  0
  1  2  1  0
  2  3  1  0
  3  4  1  0
  4  5  2  0
  5  6  1  0
  6  7  2  0
  6  8  1  0
  8  9  1  0
  9 10  1  0
 10 11  2  0
 11 12  1  0
 11 13  1  0
 13 14  1  0
 14 15  2  0
 14 16  1  0
 16 17  1  0
 16 18  1  0
 18 19  1  0
 18 20  1  0
 18 21  1  0
 21 22  2  0
 22 23  1  0
 22 24  1  0
 24 25  1  0
 24 26  2  0
 26 27  1  0
 26 28  1  0
 28 29  1  0
 28 30  2  0
 30 31  1  0
 31 32  1  0
 32 33  1  0
 32 34  1  0
 32 35  1  0
 13 36  2  0
 36 37  1  0
 36 38  1  0
 38 39  1  0
 38 40  2  0
 40 41  1  0
 41 42  2  0
 41 43  1  0
 43 44  1  0
  4 45  1  0
 45 46  1  0
 45 47  2  0
 47 48  1  0
 47 49  1  0
 49 50  1  0
 49  2  2  0
 43  8  2  0
 40 10  1  0
 30 21  1  0
M  CHG  3   3  -1   9  -1  46  -1
M  END
>  <UniqueID>  (79) 
75

>  <SMILES>  (79) 
COc1ccccc1CNC(=O)c1ccc2c(=O)cc(C(=O)/N=c3\[n-]cccc3[O-])[n-]c2c1

>  <Energy>  (79) 
63.23722215403789

>  <Genealogy>  (79) 
COc1ccccc1CNC(=O)c1ccc2c(=O)cc(C(=O)N=c3[n-]cccc3[O-])[n-]c2c1 (protonated)
COc1ccccc1CNC(=O)c1ccc2c(=O)cc(C(=O)/N=c3\[n-]cccc3[O-])[n-]c2c1 (cis-trans isomerization)
COc1ccccc1CNC(=O)c1ccc2c(=O)cc(C(=O)/N=c3\[n-]cccc3[O-])[n-]c2c1 (3D coordinates assigned)
COc1ccccc1CNC(=O)c1ccc2c(=O)cc(C(=O)/N=c3\[n-]cccc3[O-])[n-]c2c1 (optimized conformer: 63.23722215403789 kcal/mol)

>  <smiles>  (79) 
COc1ccccc1CNC(=O)c1ccc2c(=O)cc(C(=O)N=c3[nH]cccc3O)[nH]c2c1

>  <score_type>  (79) 
oracle

>  <origin>  (79) 
adg

>  <m_score__min__energy>  (79) 
-15.68

>  <m_primary>  (79) 
energy

$$$$
79:0
     RDKit          3D

 58 61  0  0  0  0  0  0  0  0999 V2000
   58.6170   26.8540   42.3290 O   0  0  0  0  0  0  0  0  0  0  0  0
   57.8240   27.3500   43.1740 C   0  0  0  0  0  0  0  0  0  0  0  0
   57.3910   28.7040   43.0000 N   0  0  0  0  0  0  0  0  0  0  0  0
   57.5780   29.7640   43.9460 C   0  0  0  0  0  0  0  0  0  0  0  0
   58.3980   29.6020   45.0740 C   0  0  0  0  0  0  0  0  0  0  0  0
   58.5460   30.6450   45.9930 C   0  0  0  0  0  0  0  0  0  0  0  0
   57.8710   31.8620   45.8030 C   0  0  0  0  0  0  0  0  0  0  0  0
   58.0270   32.9670   46.7760 C   0  0  0  0  0  0  0  0  0  0  0  0
   57.0050   33.4570   47.3280 O   0  0  0  0  0  0  0  0  0  0  0  0
   59.3260   33.4810   47.1140 N   0  0  0  0  0  0  0  0  0  0  0  0
   59.6470   33.7440   48.5240 C   0  0  0  0  0  0  0  0  0  0  0  0
   61.0050   34.4410   48.6790 C   0  0  0  0  0  0  0  0  0  0  0  0
   62.0120   33.8050   47.8090 N   0  0  0  0  0  0  0  0  0  0  0  0
   63.3650   33.5490   48.2560 C   0  0  0  0  0  0  0  0  0  0  0  0
   64.2110   33.0990   47.4330 O   0  0  0  0  0  0  0  0  0  0  0  0
   63.7910   33.8050   49.6840 C   0  0  0  0  0  0  0  0  0  0  0  0
   64.8150   32.8100   50.1710 C   0  0  0  0  0  0  0  0  0  0  0  0
   66.1870   33.1050   50.0790 C   0  0  0  0  0  0  0  0  0  0  0  0
   67.1350   32.1960   50.5600 C   0  0  0  0  0  0  0  0  0  0  0  0
   66.7220   30.9940   51.1430 C   0  0  0  0  0  0  0  0  0  0  0  0
   65.3590   30.7000   51.2530 C   0  0  0  0  0  0  0  0  0  0  0  0
   64.4070   31.6080   50.7750 C   0  0  0  0  0  0  0  0  0  0  0  0
   61.6770   33.5240   46.4020 C   0  0  0  0  0  0  0  0  0  0  0  0
   60.2410   33.9300   46.0590 C   0  0  0  0  0  0  0  0  0  0  0  0
   57.0150   32.0030   44.6980 C   0  0  0  0  0  0  0  0  0  0  0  0
   56.8680   30.9590   43.7800 C   0  0  0  0  0  0  0  0  0  0  0  0
   57.3890   26.5760   44.3050 N   0  0  0  0  0  0  0  0  0  0  0  0
   57.6900   25.1830   44.4710 C   0  0  0  0  0  0  0  0  0  0  0  0
   57.0420   24.2410   43.6570 C   0  0  0  0  0  0  0  0  0  0  0  0
   57.3040   22.8760   43.8080 C   0  0  0  0  0  0  0  0  0  0  0  0
   58.2050   22.4410   44.7820 C   0  0  0  0  0  0  0  0  0  0  0  0
   58.8290   23.3690   45.6210 C   0  0  0  0  0  0  0  0  0  0  0  0
   58.5700   24.7360   45.4750 C   0  0  0  0  0  0  0  0  0  0  0  0
   59.1370   25.6120   46.3430 F   0  0  0  0  0  0  0  0  0  0  0  0
   58.9261   28.6506   45.2353 H   0  0  0  0  0  0  0  0  0  0  0  0
   59.1954   30.5117   46.8708 H   0  0  0  0  0  0  0  0  0  0  0  0
   58.8652   34.3881   48.9530 H   0  0  0  0  0  0  0  0  0  0  0  0
   59.6963   32.7787   49.0491 H   0  0  0  0  0  0  0  0  0  0  0  0
   60.9026   35.5002   48.4005 H   0  0  0  0  0  0  0  0  0  0  0  0
   61.3326   34.3552   49.7256 H   0  0  0  0  0  0  0  0  0  0  0  0
   64.2230   34.8147   49.7472 H   0  0  0  0  0  0  0  0  0  0  0  0
   62.8997   33.7046   50.3207 H   0  0  0  0  0  0  0  0  0  0  0  0
   66.5153   34.0529   49.6277 H   0  0  0  0  0  0  0  0  0  0  0  0
   68.2074   32.4271   50.4795 H   0  0  0  0  0  0  0  0  0  0  0  0
   67.4700   30.2787   51.5156 H   0  0  0  0  0  0  0  0  0  0  0  0
   65.0353   29.7556   51.7149 H   0  0  0  0  0  0  0  0  0  0  0  0
   63.3353   31.3801   50.8724 H   0  0  0  0  0  0  0  0  0  0  0  0
   62.3680   34.0836   45.7544 H   0  0  0  0  0  0  0  0  0  0  0  0
   61.7695   32.4396   46.2421 H   0  0  0  0  0  0  0  0  0  0  0  0
   60.1838   35.0248   45.9691 H   0  0  0  0  0  0  0  0  0  0  0  0
   59.9514   33.4613   45.1069 H   0  0  0  0  0  0  0  0  0  0  0  0
   56.4573   32.9402   44.5543 H   0  0  0  0  0  0  0  0  0  0  0  0
   56.1901   31.0773   42.9218 H   0  0  0  0  0  0  0  0  0  0  0  0
   56.7250   27.0070   44.9860 H   0  0  0  0  0  0  0  0  0  0  0  0
   56.3236   24.5787   42.8956 H   0  0  0  0  0  0  0  0  0  0  0  0
   56.8001   22.1444   43.1592 H   0  0  0  0  0  0  0  0  0  0  0  0
   58.4238   21.3683   44.8891 H   0  0  0  0  0  0  0  0  0  0  0  0
   59.5260   23.0231   46.3986 H   0  0  0  0  0  0  0  0  0  0  0  0
  1  2  2  0
  2  3  1  0
  3  4  1  0
  4  5  2  0
  5  6  1  0
  6  7  2  0
  7  8  1  0
  8  9  2  0
  8 10  1  0
 10 11  1  0
 11 12  1  0
 12 13  1  0
 13 14  1  0
 14 15  2  0
 14 16  1  0
 16 17  1  0
 17 18  2  0
 18 19  1  0
 19 20  2  0
 20 21  1  0
 21 22  2  0
 13 23  1  0
 23 24  1  0
  7 25  1  0
 25 26  2  0
  2 27  1  0
 27 28  1  0
 28 29  2  0
 29 30  1  0
 30 31  2  0
 31 32  1  0
 32 33  2  0
 33 34  1  0
 26  4  1  0
 33 28  1  0
 24 10  1  0
 22 17  1  0
  5 35  1  0
  6 36  1  0
 11 37  1  0
 11 38  1  0
 12 39  1  0
 12 40  1  0
 16 41  1  0
 16 42  1  0
 18 43  1  0
 19 44  1  0
 20 45  1  0
 21 46  1  0
 22 47  1  0
 23 48  1  0
 23 49  1  0
 24 50  1  0
 24 51  1  0
 25 52  1  0
 26 53  1  0
 27 54  1  0
 29 55  1  0
 30 56  1  0
 31 57  1  0
 32 58  1  0
M  CHG  1   3  -1
M  END
>  <UniqueID>  (80) 
76

>  <SMILES>  (80) 
O=C([N-]c1ccc(C(=O)N2CCN(C(=O)Cc3ccccc3)CC2)cc1)Nc1ccccc1F

>  <Energy>  (80) 
77.32814886158063

>  <Genealogy>  (80) 
O=C([N-]c1ccc(C(=O)N2CCN(C(=O)Cc3ccccc3)CC2)cc1)Nc1ccccc1F (protonated)
O=C([N-]c1ccc(C(=O)N2CCN(C(=O)Cc3ccccc3)CC2)cc1)Nc1ccccc1F (3D coordinates assigned)
O=C([N-]c1ccc(C(=O)N2CCN(C(=O)Cc3ccccc3)CC2)cc1)Nc1ccccc1F (nonaromatic ring conformer: 77.32814886158063 kcal/mol)

>  <smiles>  (80) 
O=C(Nc1ccc(C(=O)N2CCN(C(=O)Cc3ccccc3)CC2)cc1)Nc1ccccc1F

>  <score_type>  (80) 
oracle

>  <origin>  (80) 
adg

>  <m_score__min__energy>  (80) 
-10.74

>  <m_primary>  (80) 
energy

$$$$
80:0
     RDKit          3D

 53 56  0  0  0  0  0  0  0  0999 V2000
   59.7700   34.8310   46.5000 C   0  0  0  0  0  0  0  0  0  0  0  0
   59.4770   33.3920   46.3740 N   0  0  0  0  0  0  0  0  0  0  0  0
   58.3500   32.9690   45.7150 C   0  0  0  0  0  0  0  0  0  0  0  0
   57.5350   33.7870   45.2060 O   0  0  0  0  0  0  0  0  0  0  0  0
   58.1190   31.6120   45.6150 C   0  0  0  0  0  0  0  0  0  0  0  0
   57.0780   30.9990   45.0260 N   0  0  0  0  0  0  0  0  0  0  0  0
   57.3560   29.6860   45.2150 C   0  0  0  0  0  0  0  0  0  0  0  0
   58.5100   29.4650   45.8950 N   0  0  0  0  0  0  0  0  0  0  0  0
   59.0550   28.1280   46.1500 C   0  0  0  0  0  0  0  0  0  0  0  0
   58.0660   27.0590   45.7830 C   0  0  0  0  0  0  0  0  0  0  0  0
   57.7620   26.8750   44.5720 O   0  0  0  0  0  0  0  0  0  0  0  0
   57.4040   26.3180   46.8160 N   0  0  0  0  0  0  0  0  0  0  0  0
   56.5210   25.2180   46.5470 C   0  0  0  0  0  0  0  0  0  0  0  0
   56.9600   23.9100   46.8010 C   0  0  0  0  0  0  0  0  0  0  0  0
   56.1200   22.8160   46.5530 C   0  0  0  0  0  0  0  0  0  0  0  0
   56.6430   21.1740   46.9200 S   0  0  0  0  0  0  0  0  0  0  0  0
   57.3930   21.1950   48.2230 O   0  0  0  0  0  0  0  0  0  0  0  0
   55.4490   20.2690   47.0610 O   0  0  0  0  0  0  0  0  0  0  0  0
   57.6910   20.5880   45.6460 N   0  0  0  0  0  0  0  0  0  0  0  0
   58.7560   21.5580   45.3680 C   0  0  0  0  0  0  0  0  0  0  0  0
   58.2760   22.4750   44.2550 C   0  0  0  0  0  0  0  0  0  0  0  0
   57.1510   21.7220   43.5710 C   0  0  0  0  0  0  0  0  0  0  0  0
   56.9460   20.4520   44.3890 C   0  0  0  0  0  0  0  0  0  0  0  0
   54.8400   23.0320   46.0270 C   0  0  0  0  0  0  0  0  0  0  0  0
   54.4060   24.3300   45.7440 C   0  0  0  0  0  0  0  0  0  0  0  0
   55.2420   25.4240   45.9910 C   0  0  0  0  0  0  0  0  0  0  0  0
   54.8060   26.7020   45.6590 O   0  0  0  0  0  0  0  0  0  0  0  0
   58.9920   30.7120   46.1370 C   0  0  0  0  0  0  0  0  0  0  0  0
   60.1430   31.1100   46.7730 N   0  0  0  0  0  0  0  0  0  0  0  0
   61.0880   30.1490   47.3660 C   0  0  0  0  0  0  0  0  0  0  0  0
   60.3730   32.4710   46.8850 C   0  0  0  0  0  0  0  0  0  0  0  0
   61.4180   32.8850   47.4660 O   0  0  0  0  0  0  0  0  0  0  0  0
   59.8252   35.1021   47.5646 H   0  0  0  0  0  0  0  0  0  0  0  0
   60.7318   35.0532   46.0147 H   0  0  0  0  0  0  0  0  0  0  0  0
   58.9716   35.4116   46.0147 H   0  0  0  0  0  0  0  0  0  0  0  0
   56.7073   28.8754   44.8515 H   0  0  0  0  0  0  0  0  0  0  0  0
   59.9681   27.9927   45.5517 H   0  0  0  0  0  0  0  0  0  0  0  0
   59.2783   28.0420   47.2236 H   0  0  0  0  0  0  0  0  0  0  0  0
   57.4500   26.6840   47.7930 H   0  0  0  0  0  0  0  0  0  0  0  0
   57.9719   23.7417   47.1981 H   0  0  0  0  0  0  0  0  0  0  0  0
   58.9693   22.1476   46.2718 H   0  0  0  0  0  0  0  0  0  0  0  0
   59.6771   21.0385   45.0651 H   0  0  0  0  0  0  0  0  0  0  0  0
   57.9070   23.4243   44.6705 H   0  0  0  0  0  0  0  0  0  0  0  0
   59.0856   22.7268   43.5542 H   0  0  0  0  0  0  0  0  0  0  0  0
   56.2324   22.3271   43.5658 H   0  0  0  0  0  0  0  0  0  0  0  0
   57.3941   21.4943   42.5226 H   0  0  0  0  0  0  0  0  0  0  0  0
   55.8757   20.3167   44.6038 H   0  0  0  0  0  0  0  0  0  0  0  0
   57.3065   19.5774   43.8276 H   0  0  0  0  0  0  0  0  0  0  0  0
   54.1743   22.1774   45.8361 H   0  0  0  0  0  0  0  0  0  0  0  0
   53.4020   24.4921   45.3249 H   0  0  0  0  0  0  0  0  0  0  0  0
   61.0305   30.2075   48.4629 H   0  0  0  0  0  0  0  0  0  0  0  0
   60.8293   29.1311   47.0390 H   0  0  0  0  0  0  0  0  0  0  0  0
   62.1101   30.3905   47.0390 H   0  0  0  0  0  0  0  0  0  0  0  0
  1  2  1  0
  2  3  1  0
  3  4  2  0
  3  5  1  0
  5  6  1  0
  6  7  2  0
  7  8  1  0
  8  9  1  0
  9 10  1  0
 10 11  2  0
 10 12  1  0
 12 13  1  0
 13 14  2  0
 14 15  1  0
 15 16  1  0
 16 17  2  0
 16 18  2  0
 16 19  1  0
 19 20  1  0
 20 21  1  0
 21 22  1  0
 22 23  1  0
 15 24  2  0
 24 25  1  0
 25 26  2  0
 26 27  1  0
  8 28  1  0
 28 29  1  0
 29 30  1  0
 29 31  1  0
 31 32  2  0
 31  2  1  0
 28  5  2  0
 26 13  1  0
 23 19  1  0
  1 33  1  0
  1 34  1  0
  1 35  1  0
  7 36  1  0
  9 37  1  0
  9 38  1  0
 12 39  1  0
 14 40  1  0
 20 41  1  0
 20 42  1  0
 21 43  1  0
 21 44  1  0
 22 45  1  0
 22 46  1  0
 23 47  1  0
 23 48  1  0
 24 49  1  0
 25 50  1  0
 30 51  1  0
 30 52  1  0
 30 53  1  0
M  CHG  1  27  -1
M  END
>  <UniqueID>  (81) 
77

>  <SMILES>  (81) 
Cn1c(=O)c2ncn(CC(=O)Nc3cc(S(=O)(=O)N4CCCC4)ccc3[O-])c2n(C)c1=O

>  <Energy>  (81) 
111.355245916935

>  <Genealogy>  (81) 
Cn1c(=O)c2ncn(CC(=O)Nc3cc(S(=O)(=O)N4CCCC4)ccc3[O-])c2n(C)c1=O (protonated)
Cn1c(=O)c2ncn(CC(=O)Nc3cc(S(=O)(=O)N4CCCC4)ccc3[O-])c2n(C)c1=O (3D coordinates assigned)
Cn1c(=O)c2ncn(CC(=O)Nc3cc(S(=O)(=O)N4CCCC4)ccc3[O-])c2n(C)c1=O (nonaromatic ring conformer: 111.355245916935 kcal/mol)

>  <smiles>  (81) 
Cn1c(=O)c2ncn(CC(=O)Nc3cc(S(=O)(=O)N4CCCC4)ccc3O)c2n(C)c1=O

>  <score_type>  (81) 
oracle

>  <origin>  (81) 
adg

>  <m_score__min__energy>  (81) 
-12.369999999999999

>  <m_primary>  (81) 
energy

$$$$
81:0
     RDKit          3D

 50 53  0  0  0  0  0  0  0  0999 V2000
   65.3980   34.4610   52.0060 C   0  0  0  0  0  0  0  0  0  0  0  0
   64.3500   33.5640   51.6520 O   0  0  0  0  0  0  0  0  0  0  0  0
   63.6850   33.5700   50.4160 C   0  0  0  0  0  0  0  0  0  0  0  0
   62.3400   33.9680   50.2850 C   0  0  0  0  0  0  0  0  0  0  0  0
   61.7060   33.9490   49.0300 C   0  0  0  0  0  0  0  0  0  0  0  0
   60.2940   34.3840   48.9020 C   0  0  0  0  0  0  0  0  0  0  0  0
   59.6160   34.5840   49.9450 O   0  0  0  0  0  0  0  0  0  0  0  0
   59.6820   34.6380   47.6280 N   0  0  0  0  0  0  0  0  0  0  0  0
   59.1200   33.7470   46.8680 C   0  0  0  0  0  0  0  0  0  0  0  0
   58.0300   33.9780   46.1030 N   0  0  0  0  0  0  0  0  0  0  0  0
   57.6760   32.8770   45.3880 C   0  0  0  0  0  0  0  0  0  0  0  0
   58.4970   31.7590   45.5740 C   0  0  0  0  0  0  0  0  0  0  0  0
   58.3560   30.4290   44.9260 C   0  0  0  0  0  0  0  0  0  0  0  0
   59.2400   29.3830   45.2410 C   0  0  0  0  0  0  0  0  0  0  0  0
   59.1040   28.1340   44.6320 C   0  0  0  0  0  0  0  0  0  0  0  0
   58.0770   27.9240   43.7020 C   0  0  0  0  0  0  0  0  0  0  0  0
   57.9020   26.6130   43.0390 C   0  0  0  0  0  0  0  0  0  0  0  0
   58.3770   26.4270   41.8840 O   0  0  0  0  0  0  0  0  0  0  0  0
   57.1960   25.5500   43.6950 N   0  0  0  0  0  0  0  0  0  0  0  0
   57.0160   24.2480   43.0530 C   0  0  0  0  0  0  0  0  0  0  0  0
   56.9010   23.1650   44.0800 C   0  0  0  0  0  0  0  0  0  0  0  0
   56.9370   21.8070   43.8290 C   0  0  0  0  0  0  0  0  0  0  0  0
   56.7630   21.1960   45.0520 C   0  0  0  0  0  0  0  0  0  0  0  0
   56.6290   22.2240   45.9690 C   0  0  0  0  0  0  0  0  0  0  0  0
   56.4200   22.0720   47.4120 C   0  0  0  0  0  0  0  0  0  0  0  0
   57.3840   21.7820   48.1700 O   0  0  0  0  0  0  0  0  0  0  0  0
   55.1520   22.2460   47.9500 O   0  0  0  0  0  0  0  0  0  0  0  0
   56.7120   23.3850   45.3610 O   0  0  0  0  0  0  0  0  0  0  0  0
   57.2270   28.9470   43.4120 N   0  0  0  0  0  0  0  0  0  0  0  0
   57.3390   30.1720   43.9890 C   0  0  0  0  0  0  0  0  0  0  0  0
   59.7040   32.1880   46.6760 S   0  0  0  0  0  0  0  0  0  0  0  0
   62.4390   33.5530   47.8980 C   0  0  0  0  0  0  0  0  0  0  0  0
   63.7720   33.1580   48.0250 C   0  0  0  0  0  0  0  0  0  0  0  0
   64.3920   33.1630   49.2770 C   0  0  0  0  0  0  0  0  0  0  0  0
   65.6880   32.7760   49.3840 F   0  0  0  0  0  0  0  0  0  0  0  0
   65.4720   34.5243   53.1017 H   0  0  0  0  0  0  0  0  0  0  0  0
   66.3498   34.0934   51.5949 H   0  0  0  0  0  0  0  0  0  0  0  0
   65.1817   35.4581   51.5949 H   0  0  0  0  0  0  0  0  0  0  0  0
   61.7803   34.2968   51.1730 H   0  0  0  0  0  0  0  0  0  0  0  0
   56.8077   32.8658   44.7127 H   0  0  0  0  0  0  0  0  0  0  0  0
   60.0446   29.5494   45.9724 H   0  0  0  0  0  0  0  0  0  0  0  0
   59.7995   27.3189   44.8810 H   0  0  0  0  0  0  0  0  0  0  0  0
   56.8020   25.7100   44.6510 H   0  0  0  0  0  0  0  0  0  0  0  0
   56.0995   24.2684   42.4451 H   0  0  0  0  0  0  0  0  0  0  0  0
   57.8899   24.0424   42.4174 H   0  0  0  0  0  0  0  0  0  0  0  0
   57.0758   21.3153   42.8549 H   0  0  0  0  0  0  0  0  0  0  0  0
   56.7362   20.1156   45.2568 H   0  0  0  0  0  0  0  0  0  0  0  0
   56.6291   30.9686   43.7214 H   0  0  0  0  0  0  0  0  0  0  0  0
   61.9603   33.5543   46.9076 H   0  0  0  0  0  0  0  0  0  0  0  0
   64.3365   32.8415   47.1356 H   0  0  0  0  0  0  0  0  0  0  0  0
  1  2  1  0
  2  3  1  0
  3  4  2  0
  4  5  1  0
  5  6  1  0
  6  7  2  0
  6  8  1  0
  8  9  2  3
  9 10  1  0
 10 11  1  0
 11 12  2  0
 12 13  1  0
 13 14  2  0
 14 15  1  0
 15 16  2  0
 16 17  1  0
 17 18  2  0
 17 19  1  0
 19 20  1  0
 20 21  1  0
 21 22  2  0
 22 23  1  0
 23 24  2  0
 24 25  1  0
 25 26  2  0
 25 27  1  0
 24 28  1  0
 16 29  1  0
 29 30  2  0
 12 31  1  0
  5 32  2  0
 32 33  1  0
 33 34  2  0
 34 35  1  0
 34  3  1  0
 31  9  1  0
 30 13  1  0
 28 21  1  0
  1 36  1  0
  1 37  1  0
  1 38  1  0
  4 39  1  0
 11 40  1  0
 14 41  1  0
 15 42  1  0
 19 43  1  0
 20 44  1  0
 20 45  1  0
 22 46  1  0
 23 47  1  0
 30 48  1  0
 32 49  1  0
 33 50  1  0
M  CHG  2  10  -1  27  -1
M  END
>  <UniqueID>  (82) 
78

>  <SMILES>  (82) 
COc1cc(C(=O)N=c2[n-]cc(-c3ccc(C(=O)NCc4ccc(C(=O)[O-])o4)nc3)s2)ccc1F

>  <Energy>  (82) 
117.4159897274941

>  <Genealogy>  (82) 
COc1cc(C(=O)N=c2[n-]cc(-c3ccc(C(=O)NCc4ccc(C(=O)[O-])o4)nc3)s2)ccc1F (protonated)
COc1cc(C(=O)N=c2[n-]cc(-c3ccc(C(=O)NCc4ccc(C(=O)[O-])o4)nc3)s2)ccc1F (3D coordinates assigned)
COc1cc(C(=O)N=c2[n-]cc(-c3ccc(C(=O)NCc4ccc(C(=O)[O-])o4)nc3)s2)ccc1F (optimized conformer: 117.4159897274941 kcal/mol)

>  <smiles>  (82) 
COc1cc(C(=O)N=c2[nH]cc(-c3ccc(C(=O)NCc4ccc(C(=O)O)o4)nc3)s2)ccc1F

>  <score_type>  (82) 
oracle

>  <origin>  (82) 
adg

>  <m_score__min__energy>  (82) 
-10.210000000000001

>  <m_primary>  (82) 
energy

$$$$
82:0
     RDKit          3D

 37 39  0  0  0  0  0  0  0  0999 V2000
   56.7981   31.7174   51.8385 H   0  0  0  0  0  0  0  0  0  0  0  0
   55.7110   31.6350   51.9850 C   0  0  0  0  0  0  0  0  0  0  0  0
   55.0488   32.4507   51.6592 H   0  0  0  0  0  0  0  0  0  0  0  0
   55.1920   30.5380   52.5620 C   0  0  0  0  0  0  0  0  0  0  0  0
   53.8320   30.3000   52.8100 C   0  0  0  0  0  0  0  0  0  0  0  0
   52.8020   31.1340   52.5450 C   0  0  0  0  0  0  0  0  0  0  0  0
   52.4623   31.7870   53.3624 H   0  0  0  0  0  0  0  0  0  0  0  0
   52.0910   31.2460   51.2520 C   0  0  0  0  0  0  0  0  0  0  0  0
   52.0840   30.3260   50.2700 N   0  0  0  0  0  0  0  0  0  0  0  0
   51.2730   30.8670   49.3350 C   0  0  0  0  0  0  0  0  0  0  0  0
   51.0170   30.2910   48.2450 O   0  0  0  0  0  0  0  0  0  0  0  0
   50.7550   32.0680   49.6620 N   0  0  0  0  0  0  0  0  0  0  0  0
   51.2790   32.2920   50.8770 C   0  0  0  0  0  0  0  0  0  0  0  0
   51.0190   33.4290   51.6310 O   0  0  0  0  0  0  0  0  0  0  0  0
   53.7590   29.0240   53.3550 C   0  0  0  0  0  0  0  0  0  0  0  0
   52.8458   28.4953   53.6656 H   0  0  0  0  0  0  0  0  0  0  0  0
   55.0520   28.5470   53.4320 C   0  0  0  0  0  0  0  0  0  0  0  0
   55.4200   27.1990   53.9740 C   0  0  0  0  0  0  0  0  0  0  0  0
   55.4113   27.2310   55.0735 H   0  0  0  0  0  0  0  0  0  0  0  0
   54.6930   26.4518   53.6231 H   0  0  0  0  0  0  0  0  0  0  0  0
   56.4259   26.9248   53.6231 H   0  0  0  0  0  0  0  0  0  0  0  0
   55.9250   29.4610   52.9520 N   0  0  0  0  0  0  0  0  0  0  0  0
   57.3560   29.3070   52.8970 C   0  0  0  0  0  0  0  0  0  0  0  0
   58.0280   29.2750   53.9630 O   0  0  0  0  0  0  0  0  0  0  0  0
   58.0090   29.1270   51.6360 N   0  0  0  0  0  0  0  0  0  0  0  0
   59.3910   29.4110   51.3800 C   0  0  0  0  0  0  0  0  0  0  0  0
   60.3450   28.4500   51.7370 C   0  0  0  0  0  0  0  0  0  0  0  0
   60.0220   27.5074   52.2030 H   0  0  0  0  0  0  0  0  0  0  0  0
   61.7040   28.6790   51.5060 C   0  0  0  0  0  0  0  0  0  0  0  0
   62.4472   27.9250   51.8047 H   0  0  0  0  0  0  0  0  0  0  0  0
   62.1190   29.8650   50.8960 C   0  0  0  0  0  0  0  0  0  0  0  0
   63.1899   30.0493   50.7250 H   0  0  0  0  0  0  0  0  0  0  0  0
   61.1760   30.8170   50.5030 C   0  0  0  0  0  0  0  0  0  0  0  0
   61.5061   31.7445   50.0123 H   0  0  0  0  0  0  0  0  0  0  0  0
   59.8100   30.5960   50.7310 C   0  0  0  0  0  0  0  0  0  0  0  0
   58.8600   31.5590   50.2280 C   0  0  0  0  0  0  0  0  0  0  0  0
   58.1000   32.3330   49.8270 N   0  0  0  0  0  0  0  0  0  0  0  0
  1  2  1  0
  2  3  1  0
  2  4  2  0
  4  5  1  0
  5  6  2  0
  6  7  1  0
  6  8  1  0
  8  9  1  0
  9 10  1  0
 10 11  2  0
 10 12  1  0
 12 13  1  0
 13 14  1  0
  5 15  1  0
 15 16  1  0
 15 17  2  0
 17 18  1  0
 18 19  1  0
 18 20  1  0
 18 21  1  0
 17 22  1  0
 22 23  1  0
 23 24  2  0
 23 25  1  0
 25 26  1  0
 26 27  2  0
 27 28  1  0
 27 29  1  0
 29 30  1  0
 29 31  2  0
 31 32  1  0
 31 33  1  0
 33 34  1  0
 33 35  2  0
 35 36  1  0
 36 37  3  0
 22  4  1  0
 35 26  1  0
 13  8  2  0
M  CHG  4   9  -1  12  -1  14  -1  25  -1
M  END
>  <UniqueID>  (83) 
79

>  <SMILES>  (83) 
C=c1/c(=C/c2[n-]c(=O)[n-]c2[O-])cc(C)n1C(=O)[N-]c1ccccc1C#N

>  <Energy>  (83) 
112.08743196114203

>  <Genealogy>  (83) 
C=c1c(=Cc2[n-]c(=O)[n-]c2[O-])cc(C)n1C(=O)[N-]c1ccccc1C#N (protonated)
C=c1/c(=C/c2[n-]c(=O)[n-]c2[O-])cc(C)n1C(=O)[N-]c1ccccc1C#N (cis-trans isomerization)
C=c1/c(=C/c2[n-]c(=O)[n-]c2[O-])cc(C)n1C(=O)[N-]c1ccccc1C#N (3D coordinates assigned)
C=c1/c(=C/c2[n-]c(=O)[n-]c2[O-])cc(C)n1C(=O)[N-]c1ccccc1C#N (optimized conformer: 112.08743196114203 kcal/mol)

>  <smiles>  (83) 
C=c1c(=Cc2[nH]c(=O)[nH]c2O)cc(C)n1C(=O)Nc1ccccc1C#N

>  <score_type>  (83) 
oracle

>  <origin>  (83) 
adg

>  <m_score__min__energy>  (83) 
-16.91

>  <m_primary>  (83) 
energy

$$$$
83:0
     RDKit          3D

 40 42  0  0  0  0  0  0  0  0999 V2000
   58.6783   27.7747   47.1516 H   0  0  0  0  0  0  0  0  0  0  0  0
   58.1960   28.4330   46.4140 C   0  0  0  0  0  0  0  0  0  0  0  0
   58.0250   29.7630   46.5440 N   0  0  0  0  0  0  0  0  0  0  0  0
   57.3930   30.1050   45.3980 C   0  0  0  0  0  0  0  0  0  0  0  0
   57.0220   31.3140   45.1000 N   0  0  0  0  0  0  0  0  0  0  0  0
   57.8910   32.4270   44.8250 C   0  0  0  0  0  0  0  0  0  0  0  0
   57.9230   32.9430   43.6730 O   0  0  0  0  0  0  0  0  0  0  0  0
   58.7460   32.9830   45.9030 C   0  0  0  0  0  0  0  0  0  0  0  0
   58.4520   34.2340   46.4700 C   0  0  0  0  0  0  0  0  0  0  0  0
   57.5752   34.7989   46.1204 H   0  0  0  0  0  0  0  0  0  0  0  0
   59.2630   34.7660   47.4730 C   0  0  0  0  0  0  0  0  0  0  0  0
   59.0216   35.7479   47.9061 H   0  0  0  0  0  0  0  0  0  0  0  0
   60.3870   34.0570   47.9350 C   0  0  0  0  0  0  0  0  0  0  0  0
   61.2260   34.5630   48.9390 O   0  0  0  0  0  0  0  0  0  0  0  0
   61.4970   33.9040   50.1710 C   0  0  0  0  0  0  0  0  0  0  0  0
   61.2254   34.5645   51.0076 H   0  0  0  0  0  0  0  0  0  0  0  0
   60.9069   32.9775   50.2288 H   0  0  0  0  0  0  0  0  0  0  0  0
   62.5682   33.6607   50.2288 H   0  0  0  0  0  0  0  0  0  0  0  0
   60.6890   32.8050   47.3800 C   0  0  0  0  0  0  0  0  0  0  0  0
   61.8150   32.1190   47.8650 O   0  0  0  0  0  0  0  0  0  0  0  0
   63.1540   32.3670   47.4520 C   0  0  0  0  0  0  0  0  0  0  0  0
   63.7950   32.4857   48.3380 H   0  0  0  0  0  0  0  0  0  0  0  0
   63.5146   31.5204   46.8494 H   0  0  0  0  0  0  0  0  0  0  0  0
   63.1875   33.2866   46.8494 H   0  0  0  0  0  0  0  0  0  0  0  0
   59.8690   32.2740   46.3650 C   0  0  0  0  0  0  0  0  0  0  0  0
   60.1100   31.2934   45.9288 H   0  0  0  0  0  0  0  0  0  0  0  0
   57.1730   29.0850   44.6030 O   0  0  0  0  0  0  0  0  0  0  0  0
   57.6680   28.0320   45.2060 C   0  0  0  0  0  0  0  0  0  0  0  0
   57.6360   26.6410   44.6520 C   0  0  0  0  0  0  0  0  0  0  0  0
   56.9094   26.5979   43.8273 H   0  0  0  0  0  0  0  0  0  0  0  0
   58.6420   26.3825   44.2898 H   0  0  0  0  0  0  0  0  0  0  0  0
   57.2350   25.6480   45.7180 C   0  0  0  0  0  0  0  0  0  0  0  0
   55.9810   25.7240   46.3500 C   0  0  0  0  0  0  0  0  0  0  0  0
   55.0610   26.7040   45.9950 O   0  0  0  0  0  0  0  0  0  0  0  0
   55.6550   24.8340   47.3220 N   0  0  0  0  0  0  0  0  0  0  0  0
   56.5260   23.8670   47.7090 C   0  0  0  0  0  0  0  0  0  0  0  0
   56.2000   23.0500   48.6090 O   0  0  0  0  0  0  0  0  0  0  0  0
   57.7500   23.7810   47.1280 N   0  0  0  0  0  0  0  0  0  0  0  0
   58.1240   24.6460   46.1500 C   0  0  0  0  0  0  0  0  0  0  0  0
   59.2720   24.5410   45.6390 O   0  0  0  0  0  0  0  0  0  0  0  0
  1  2  1  0
  2  3  1  0
  3  4  1  0
  4  5  2  0
  5  6  1  0
  6  7  2  0
  6  8  1  0
  8  9  2  0
  9 10  1  0
  9 11  1  0
 11 12  1  0
 11 13  2  0
 13 14  1  0
 14 15  1  0
 15 16  1  0
 15 17  1  0
 15 18  1  0
 13 19  1  0
 19 20  1  0
 20 21  1  0
 21 22  1  0
 21 23  1  0
 21 24  1  0
 19 25  2  0
 25 26  1  0
  4 27  1  0
 27 28  1  0
 28 29  1  0
 29 30  1  0
 29 31  1  0
 29 32  1  0
 32 33  2  0
 33 34  1  0
 33 35  1  0
 35 36  1  0
 36 37  2  0
 36 38  1  0
 38 39  1  0
 39 40  2  0
 28  2  2  0
 39 32  1  0
 25  8  1  0
M  CHG  4   3  -1  34  -1  35  -1  38  -1
M  END
>  <UniqueID>  (84) 
80

>  <SMILES>  (84) 
COc1ccc(C(=O)/N=c2\[n-]cc(Cc3c([O-])[n-]c(=O)[n-]c3=O)o2)cc1OC

>  <Energy>  (84) 
76.27484473448372

>  <Genealogy>  (84) 
COc1ccc(C(=O)N=c2[n-]cc(Cc3c([O-])[n-]c(=O)[n-]c3=O)o2)cc1OC (protonated)
COc1ccc(C(=O)/N=c2\[n-]cc(Cc3c([O-])[n-]c(=O)[n-]c3=O)o2)cc1OC (cis-trans isomerization)
COc1ccc(C(=O)/N=c2\[n-]cc(Cc3c([O-])[n-]c(=O)[n-]c3=O)o2)cc1OC (3D coordinates assigned)
COc1ccc(C(=O)/N=c2\[n-]cc(Cc3c([O-])[n-]c(=O)[n-]c3=O)o2)cc1OC (optimized conformer: 76.27484473448372 kcal/mol)

>  <smiles>  (84) 
COc1ccc(C(=O)N=c2[nH]cc(Cc3c(O)[nH]c(=O)[nH]c3=O)o2)cc1OC

>  <score_type>  (84) 
oracle

>  <origin>  (84) 
adg

>  <m_score__min__energy>  (84) 
-16.370000000000001

>  <m_primary>  (84) 
energy

$$$$
84:0
     RDKit          3D

 58 61  0  0  0  0  0  0  0  0999 V2000
   55.4563   31.3302   51.0531 H   0  0  0  0  0  0  0  0  0  0  0  0
   54.4890   31.2240   51.5660 C   0  0  0  0  0  0  0  0  0  0  0  0
   53.5553   31.4554   51.0325 H   0  0  0  0  0  0  0  0  0  0  0  0
   54.4480   30.8120   52.8430 C   0  0  0  0  0  0  0  0  0  0  0  0
   53.3000   30.6320   53.6180 C   0  0  0  0  0  0  0  0  0  0  0  0
   52.0200   30.8000   53.2340 C   0  0  0  0  0  0  0  0  0  0  0  0
   51.2392   30.7675   54.0081 H   0  0  0  0  0  0  0  0  0  0  0  0
   51.6030   31.0250   51.8370 C   0  0  0  0  0  0  0  0  0  0  0  0
   51.8630   30.1610   50.8420 N   0  0  0  0  0  0  0  0  0  0  0  0
   51.3890   30.7930   49.7460 C   0  0  0  0  0  0  0  0  0  0  0  0
   51.4430   30.2860   48.5960 O   0  0  0  0  0  0  0  0  0  0  0  0
   50.8680   32.0170   49.9780 N   0  0  0  0  0  0  0  0  0  0  0  0
   51.0190   32.1540   51.3040 C   0  0  0  0  0  0  0  0  0  0  0  0
   50.6780   33.3070   52.0010 O   0  0  0  0  0  0  0  0  0  0  0  0
   53.7330   30.1500   54.8480 C   0  0  0  0  0  0  0  0  0  0  0  0
   53.1014   29.8841   55.7084 H   0  0  0  0  0  0  0  0  0  0  0  0
   55.1080   30.0700   54.7800 C   0  0  0  0  0  0  0  0  0  0  0  0
   55.9790   29.5170   55.8670 C   0  0  0  0  0  0  0  0  0  0  0  0
   55.5571   29.7849   56.8469 H   0  0  0  0  0  0  0  0  0  0  0  0
   56.0282   28.4219   55.7760 H   0  0  0  0  0  0  0  0  0  0  0  0
   56.9910   29.9383   55.7760 H   0  0  0  0  0  0  0  0  0  0  0  0
   55.5440   30.4700   53.5650 N   0  0  0  0  0  0  0  0  0  0  0  0
   56.9040   30.4100   53.1010 C   0  0  0  0  0  0  0  0  0  0  0  0
   57.2450   29.6180   51.9960 C   0  0  0  0  0  0  0  0  0  0  0  0
   56.4659   29.0549   51.4614 H   0  0  0  0  0  0  0  0  0  0  0  0
   58.5740   29.5440   51.5740 C   0  0  0  0  0  0  0  0  0  0  0  0
   58.8382   28.9308   50.6998 H   0  0  0  0  0  0  0  0  0  0  0  0
   59.5720   30.2480   52.2600 C   0  0  0  0  0  0  0  0  0  0  0  0
   60.6178   30.1784   51.9261 H   0  0  0  0  0  0  0  0  0  0  0  0
   59.2450   31.0440   53.3740 C   0  0  0  0  0  0  0  0  0  0  0  0
   60.3070   31.7440   54.1420 C   0  0  0  0  0  0  0  0  0  0  0  0
   61.0860   31.0900   54.8860 O   0  0  0  0  0  0  0  0  0  0  0  0
   60.4410   33.1710   54.0780 N   0  0  0  0  0  0  0  0  0  0  0  0
   59.4140   34.0070   54.6970 C   0  0  0  0  0  0  0  0  0  0  0  0
   59.4970   33.9395   55.7918 H   0  0  0  0  0  0  0  0  0  0  0  0
   59.5531   35.0519   54.3825 H   0  0  0  0  0  0  0  0  0  0  0  0
   58.4191   33.6588   54.3825 H   0  0  0  0  0  0  0  0  0  0  0  0
   61.5560   33.7600   53.3260 C   0  0  0  0  0  0  0  0  0  0  0  0
   61.6901   34.8071   53.6351 H   0  0  0  0  0  0  0  0  0  0  0  0
   62.4720   33.1875   53.5338 H   0  0  0  0  0  0  0  0  0  0  0  0
   61.2690   33.7100   51.8490 C   0  0  0  0  0  0  0  0  0  0  0  0
   59.9490   33.6100   51.3880 C   0  0  0  0  0  0  0  0  0  0  0  0
   59.1152   33.6286   52.1052 H   0  0  0  0  0  0  0  0  0  0  0  0
   59.6890   33.4870   50.0230 C   0  0  0  0  0  0  0  0  0  0  0  0
   58.6502   33.4276   49.6661 H   0  0  0  0  0  0  0  0  0  0  0  0
   60.7430   33.4390   49.1080 C   0  0  0  0  0  0  0  0  0  0  0  0
   60.5285   33.3473   48.0330 H   0  0  0  0  0  0  0  0  0  0  0  0
   62.0770   33.5070   49.5500 C   0  0  0  0  0  0  0  0  0  0  0  0
   63.1870   33.3820   48.5710 C   0  0  0  0  0  0  0  0  0  0  0  0
   64.3760   33.2920   48.9820 O   0  0  0  0  0  0  0  0  0  0  0  0
   62.9380   33.3570   47.0940 C   0  0  0  0  0  0  0  0  0  0  0  0
   61.8597   33.2487   46.9057 H   0  0  0  0  0  0  0  0  0  0  0  0
   63.2960   34.2956   46.6459 H   0  0  0  0  0  0  0  0  0  0  0  0
   63.4755   32.5083   46.6459 H   0  0  0  0  0  0  0  0  0  0  0  0
   62.3290   33.6650   50.9270 C   0  0  0  0  0  0  0  0  0  0  0  0
   63.3656   33.7540   51.2842 H   0  0  0  0  0  0  0  0  0  0  0  0
   57.8990   31.1350   53.7680 C   0  0  0  0  0  0  0  0  0  0  0  0
   57.6234   31.7846   54.6118 H   0  0  0  0  0  0  0  0  0  0  0  0
  1  2  1  0
  2  3  1  0
  2  4  2  0
  4  5  1  0
  5  6  2  0
  6  7  1  0
  6  8  1  0
  8  9  1  0
  9 10  1  0
 10 11  2  0
 10 12  1  0
 12 13  1  0
 13 14  1  0
  5 15  1  0
 15 16  1  0
 15 17  2  0
 17 18  1  0
 18 19  1  0
 18 20  1  0
 18 21  1  0
 17 22  1  0
 22 23  1  0
 23 24  2  0
 24 25  1  0
 24 26  1  0
 26 27  1  0
 26 28  2  0
 28 29  1  0
 28 30  1  0
 30 31  1  0
 31 32  2  0
 31 33  1  0
 33 34  1  0
 34 35  1  0
 34 36  1  0
 34 37  1  0
 33 38  1  0
 38 39  1  0
 38 40  1  0
 38 41  1  0
 41 42  2  0
 42 43  1  0
 42 44  1  0
 44 45  1  0
 44 46  2  0
 46 47  1  0
 46 48  1  0
 48 49  1  0
 49 50  2  0
 49 51  1  0
 51 52  1  0
 51 53  1  0
 51 54  1  0
 48 55  2  0
 55 56  1  0
 30 57  2  0
 57 58  1  0
 22  4  1  0
 57 23  1  0
 13  8  2  0
 55 41  1  0
M  CHG  3   9  -1  12  -1  14  -1
M  END
>  <UniqueID>  (85) 
81

>  <SMILES>  (85) 
C=c1/c(=C/c2[n-]c(=O)[n-]c2[O-])cc(C)n1-c1cccc(C(=O)N(C)Cc2cccc(C(C)=O)c2)c1

>  <Energy>  (85) 
129.4873331278399

>  <Genealogy>  (85) 
C=c1c(=Cc2[n-]c(=O)[n-]c2[O-])cc(C)n1-c1cccc(C(=O)N(C)Cc2cccc(C(C)=O)c2)c1 (protonated)
C=c1/c(=C/c2[n-]c(=O)[n-]c2[O-])cc(C)n1-c1cccc(C(=O)N(C)Cc2cccc(C(C)=O)c2)c1 (cis-trans isomerization)
C=c1/c(=C/c2[n-]c(=O)[n-]c2[O-])cc(C)n1-c1cccc(C(=O)N(C)Cc2cccc(C(C)=O)c2)c1 (3D coordinates assigned)
C=c1/c(=C/c2[n-]c(=O)[n-]c2[O-])cc(C)n1-c1cccc(C(=O)N(C)Cc2cccc(C(C)=O)c2)c1 (optimized conformer: 129.4873331278399 kcal/mol)

>  <smiles>  (85) 
C=c1c(=Cc2[nH]c(=O)[nH]c2O)cc(C)n1-c1cccc(C(=O)N(C)Cc2cccc(C(C)=O)c2)c1

>  <score_type>  (85) 
oracle

>  <origin>  (85) 
adg

>  <m_score__min__energy>  (85) 
-18.690000000000001

>  <m_primary>  (85) 
energy

$$$$
85:0
     RDKit          3D

 40 43  0  0  0  0  0  0  0  0999 V2000
   56.1080   20.2230   44.9190 O   0  0  0  0  0  0  0  0  0  0  0  0
   56.2550   21.3460   44.3710 C   0  0  0  0  0  0  0  0  0  0  0  0
   55.9400   21.6100   43.0100 N   0  0  0  0  0  0  0  0  0  0  0  0
   56.2470   23.0210   42.7510 C   0  0  0  0  0  0  0  0  0  0  0  0
   56.7580   23.5290   44.0680 C   0  0  0  0  0  0  0  0  0  0  0  0
   57.1970   24.8150   44.3870 C   0  0  0  0  0  0  0  0  0  0  0  0
   57.6460   25.0780   45.6960 C   0  0  0  0  0  0  0  0  0  0  0  0
   58.0930   26.3750   45.9910 O   0  0  0  0  0  0  0  0  0  0  0  0
   57.3680   27.3410   46.7530 C   0  0  0  0  0  0  0  0  0  0  0  0
   57.5680   28.7320   46.1980 C   0  0  0  0  0  0  0  0  0  0  0  0
   58.7140   29.4630   46.5550 C   0  0  0  0  0  0  0  0  0  0  0  0
   58.9310   30.7580   46.0500 C   0  0  0  0  0  0  0  0  0  0  0  0
   60.1300   31.5340   46.4560 C   0  0  0  0  0  0  0  0  0  0  0  0
   61.2670   30.8800   46.9660 C   0  0  0  0  0  0  0  0  0  0  0  0
   62.3950   31.6130   47.3470 C   0  0  0  0  0  0  0  0  0  0  0  0
   62.4010   33.0040   47.2220 C   0  0  0  0  0  0  0  0  0  0  0  0
   61.2790   33.6650   46.7160 C   0  0  0  0  0  0  0  0  0  0  0  0
   60.1490   32.9370   46.3340 C   0  0  0  0  0  0  0  0  0  0  0  0
   57.9920   31.3080   45.1600 C   0  0  0  0  0  0  0  0  0  0  0  0
   56.8630   30.5780   44.7820 C   0  0  0  0  0  0  0  0  0  0  0  0
   56.6480   29.2940   45.2920 C   0  0  0  0  0  0  0  0  0  0  0  0
   55.5190   28.5880   44.8910 O   0  0  0  0  0  0  0  0  0  0  0  0
   57.6340   24.0360   46.6610 C   0  0  0  0  0  0  0  0  0  0  0  0
   57.1880   22.7500   46.3170 C   0  0  0  0  0  0  0  0  0  0  0  0
   56.7590   22.5330   45.0120 C   0  0  0  0  0  0  0  0  0  0  0  0
   57.0157   23.1170   41.9700 H   0  0  0  0  0  0  0  0  0  0  0  0
   55.3744   23.5848   42.3895 H   0  0  0  0  0  0  0  0  0  0  0  0
   57.1924   25.6110   43.6278 H   0  0  0  0  0  0  0  0  0  0  0  0
   56.2969   27.0925   46.7225 H   0  0  0  0  0  0  0  0  0  0  0  0
   57.7399   27.3207   47.7880 H   0  0  0  0  0  0  0  0  0  0  0  0
   59.4512   29.0166   47.2385 H   0  0  0  0  0  0  0  0  0  0  0  0
   61.2683   29.7845   47.0656 H   0  0  0  0  0  0  0  0  0  0  0  0
   63.2788   31.0935   47.7457 H   0  0  0  0  0  0  0  0  0  0  0  0
   63.2893   33.5792   47.5220 H   0  0  0  0  0  0  0  0  0  0  0  0
   61.2851   34.7606   46.6181 H   0  0  0  0  0  0  0  0  0  0  0  0
   59.2689   33.4630   45.9356 H   0  0  0  0  0  0  0  0  0  0  0  0
   58.1476   32.3203   44.7586 H   0  0  0  0  0  0  0  0  0  0  0  0
   56.1388   31.0156   44.0791 H   0  0  0  0  0  0  0  0  0  0  0  0
   57.9770   24.2382   47.6864 H   0  0  0  0  0  0  0  0  0  0  0  0
   57.1782   21.9374   47.0583 H   0  0  0  0  0  0  0  0  0  0  0  0
  1  2  2  0
  2  3  1  0
  3  4  1  0
  4  5  1  0
  5  6  2  0
  6  7  1  0
  7  8  1  0
  8  9  1  0
  9 10  1  0
 10 11  2  0
 11 12  1  0
 12 13  1  0
 13 14  2  0
 14 15  1  0
 15 16  2  0
 16 17  1  0
 17 18  2  0
 12 19  2  0
 19 20  1  0
 20 21  2  0
 21 22  1  0
  7 23  2  0
 23 24  1  0
 24 25  2  0
 25  2  1  0
 25  5  1  0
 21 10  1  0
 18 13  1  0
  4 26  1  0
  4 27  1  0
  6 28  1  0
  9 29  1  0
  9 30  1  0
 11 31  1  0
 14 32  1  0
 15 33  1  0
 16 34  1  0
 17 35  1  0
 18 36  1  0
 19 37  1  0
 20 38  1  0
 23 39  1  0
 24 40  1  0
M  CHG  2   3  -1  22  -1
M  END
>  <UniqueID>  (86) 
82

>  <SMILES>  (86) 
O=C1[N-]Cc2cc(OCc3cc(-c4ccccc4)ccc3[O-])ccc21

>  <Energy>  (86) 
72.53435075667808

>  <Genealogy>  (86) 
O=C1[N-]Cc2cc(OCc3cc(-c4ccccc4)ccc3[O-])ccc21 (protonated)
O=C1[N-]Cc2cc(OCc3cc(-c4ccccc4)ccc3[O-])ccc21 (3D coordinates assigned)
O=C1[N-]Cc2cc(OCc3cc(-c4ccccc4)ccc3[O-])ccc21 (nonaromatic ring conformer: 72.53435075667808 kcal/mol)

>  <smiles>  (86) 
O=C1NCc2cc(OCc3cc(-c4ccccc4)ccc3O)ccc21

>  <score_type>  (86) 
oracle

>  <origin>  (86) 
adg

>  <m_score__min__energy>  (86) 
-12.02

>  <m_primary>  (86) 
energy

$$$$
86:0
     RDKit          3D

 38 40  0  0  0  0  0  0  0  0999 V2000
   58.3400   33.9710   47.0410 C   0  0  0  0  0  0  0  0  0  0  0  0
   58.0680   33.0450   46.1250 C   0  0  0  0  0  0  0  0  0  0  0  0
   57.7860   31.7570   46.4160 N   0  0  0  0  0  0  0  0  0  0  0  0
   57.5670   31.1210   45.2720 N   0  0  0  0  0  0  0  0  0  0  0  0
   57.2190   29.7280   45.2210 C   0  0  0  0  0  0  0  0  0  0  0  0
   56.0590   29.4030   44.8540 O   0  0  0  0  0  0  0  0  0  0  0  0
   58.2120   28.6740   45.5370 C   0  0  0  0  0  0  0  0  0  0  0  0
   59.5750   28.9910   45.6600 C   0  0  0  0  0  0  0  0  0  0  0  0
   60.5120   27.9890   45.9230 C   0  0  0  0  0  0  0  0  0  0  0  0
   60.1010   26.6620   46.0710 C   0  0  0  0  0  0  0  0  0  0  0  0
   58.7440   26.3320   45.9880 C   0  0  0  0  0  0  0  0  0  0  0  0
   58.3510   24.9580   46.0870 N   0  0  0  0  0  0  0  0  0  0  0  0
   56.9990   24.5150   46.2420 C   0  0  0  0  0  0  0  0  0  0  0  0
   56.2760   24.9850   47.1620 O   0  0  0  0  0  0  0  0  0  0  0  0
   56.4220   23.5430   45.2670 C   0  0  0  0  0  0  0  0  0  0  0  0
   54.9310   23.6900   45.2450 C   0  0  0  0  0  0  0  0  0  0  0  0
   54.0720   22.6610   45.1370 N   0  0  0  0  0  0  0  0  0  0  0  0
   52.8640   23.2530   45.2560 C   0  0  0  0  0  0  0  0  0  0  0  0
   51.7850   22.6050   45.2000 O   0  0  0  0  0  0  0  0  0  0  0  0
   52.9010   24.5890   45.4440 N   0  0  0  0  0  0  0  0  0  0  0  0
   54.2190   24.8490   45.4420 C   0  0  0  0  0  0  0  0  0  0  0  0
   54.7620   26.1150   45.6320 O   0  0  0  0  0  0  0  0  0  0  0  0
   57.8030   27.3410   45.7190 C   0  0  0  0  0  0  0  0  0  0  0  0
   57.7250   31.9830   44.2330 C   0  0  0  0  0  0  0  0  0  0  0  0
   57.6470   31.6750   42.9340 C   0  0  0  0  0  0  0  0  0  0  0  0
   58.0350   33.2180   44.7570 C   0  0  0  0  0  0  0  0  0  0  0  0
   58.2620   34.2810   44.1180 O   0  0  0  0  0  0  0  0  0  0  0  0
   58.5612   35.0030   46.7310 H   0  0  0  0  0  0  0  0  0  0  0  0
   58.3436   33.7045   48.1082 H   0  0  0  0  0  0  0  0  0  0  0  0
   59.9062   30.0340   45.5486 H   0  0  0  0  0  0  0  0  0  0  0  0
   61.5777   28.2458   46.0139 H   0  0  0  0  0  0  0  0  0  0  0  0
   60.8467   25.8742   46.2534 H   0  0  0  0  0  0  0  0  0  0  0  0
   56.8260   23.7449   44.2640 H   0  0  0  0  0  0  0  0  0  0  0  0
   56.6870   22.5185   45.5672 H   0  0  0  0  0  0  0  0  0  0  0  0
   55.7470   26.2840   45.4680 H   0  0  0  0  0  0  0  0  0  0  0  0
   56.7354   27.0851   45.6501 H   0  0  0  0  0  0  0  0  0  0  0  0
   57.7926   32.4565   42.1737 H   0  0  0  0  0  0  0  0  0  0  0  0
   57.4372   30.6401   42.6258 H   0  0  0  0  0  0  0  0  0  0  0  0
  1  2  2  0
  2  3  1  0
  3  4  1  0
  4  5  1  0
  5  6  2  0
  5  7  1  0
  7  8  2  0
  8  9  1  0
  9 10  2  0
 10 11  1  0
 11 12  1  0
 12 13  1  0
 13 14  2  0
 13 15  1  0
 15 16  1  0
 16 17  1  0
 17 18  1  0
 18 19  2  0
 18 20  1  0
 20 21  1  0
 21 22  1  0
 11 23  2  0
  4 24  1  0
 24 25  2  0
 24 26  1  0
 26 27  2  0
 26  2  1  0
 23  7  1  0
 21 16  2  0
  1 28  1  0
  1 29  1  0
  8 30  1  0
  9 31  1  0
 10 32  1  0
 15 33  1  0
 15 34  1  0
 22 35  1  0
 23 36  1  0
 25 37  1  0
 25 38  1  0
M  CHG  4   3  -1  12  -1  17  -1  20  -1
M  END
>  <UniqueID>  (87) 
83

>  <SMILES>  (87) 
C=c1[n-]n(C(=O)c2cccc([N-]C(=O)Cc3[n-]c(=O)[n-]c3O)c2)c(=C)c1=O

>  <Energy>  (87) 
109.7231597787782

>  <Genealogy>  (87) 
C=c1[n-]n(C(=O)c2cccc([N-]C(=O)Cc3[n-]c(=O)[n-]c3O)c2)c(=C)c1=O (protonated)
C=c1[n-]n(C(=O)c2cccc([N-]C(=O)Cc3[n-]c(=O)[n-]c3O)c2)c(=C)c1=O (3D coordinates assigned)
C=c1[n-]n(C(=O)c2cccc([N-]C(=O)Cc3[n-]c(=O)[n-]c3O)c2)c(=C)c1=O (optimized conformer: 109.7231597787782 kcal/mol)

>  <smiles>  (87) 
C=c1[nH]n(C(=O)c2cccc(NC(=O)Cc3[nH]c(=O)[nH]c3O)c2)c(=C)c1=O

>  <score_type>  (87) 
oracle

>  <origin>  (87) 
adg

>  <m_score__min__energy>  (87) 
-15.27

>  <m_primary>  (87) 
energy

$$$$
87:0
     RDKit          3D

 59 62  0  0  0  0  0  0  0  0999 V2000
   52.2020   21.1230   45.6360 O   0  0  0  0  0  0  0  0  0  0  0  0
   52.8790   21.4580   46.6450 C   0  0  0  0  0  0  0  0  0  0  0  0
   53.1400   22.9100   46.9090 C   0  0  0  0  0  0  0  0  0  0  0  0
   53.2880   23.7190   45.6110 C   0  0  0  0  0  0  0  0  0  0  0  0
   54.7340   24.0400   45.2890 C   0  0  0  0  0  0  0  0  0  0  0  0
   55.5960   23.0430   44.7870 C   0  0  0  0  0  0  0  0  0  0  0  0
   55.1410   21.7460   44.5750 O   0  0  0  0  0  0  0  0  0  0  0  0
   56.9240   23.3500   44.4830 C   0  0  0  0  0  0  0  0  0  0  0  0
   57.4160   24.6370   44.6950 C   0  0  0  0  0  0  0  0  0  0  0  0
   56.5930   25.6370   45.2390 C   0  0  0  0  0  0  0  0  0  0  0  0
   57.1490   27.0250   45.4790 C   0  0  0  0  0  0  0  0  0  0  0  0
   58.2820   27.0240   46.4920 C   0  0  0  0  0  0  0  0  0  0  0  0
   59.4220   27.8620   46.3620 C   0  0  0  0  0  0  0  0  0  0  0  0
   59.6130   28.8400   45.2260 C   0  0  0  0  0  0  0  0  0  0  0  0
   58.8980   30.1330   45.5220 C   0  0  0  0  0  0  0  0  0  0  0  0
   58.0140   30.6910   44.5840 C   0  0  0  0  0  0  0  0  0  0  0  0
   57.3900   31.9140   44.8430 C   0  0  0  0  0  0  0  0  0  0  0  0
   57.6530   32.5980   46.0370 C   0  0  0  0  0  0  0  0  0  0  0  0
   57.0420   33.8200   46.3030 O   0  0  0  0  0  0  0  0  0  0  0  0
   58.5400   32.0520   46.9710 C   0  0  0  0  0  0  0  0  0  0  0  0
   59.1580   30.8250   46.7170 C   0  0  0  0  0  0  0  0  0  0  0  0
   60.4120   27.7830   47.2920 N   0  0  0  0  0  0  0  0  0  0  0  0
   60.3330   26.9460   48.3550 C   0  0  0  0  0  0  0  0  0  0  0  0
   61.2660   26.9070   49.1960 O   0  0  0  0  0  0  0  0  0  0  0  0
   59.2440   26.1570   48.5130 N   0  0  0  0  0  0  0  0  0  0  0  0
   58.2250   26.1750   47.6180 C   0  0  0  0  0  0  0  0  0  0  0  0
   57.2320   25.4230   47.8120 O   0  0  0  0  0  0  0  0  0  0  0  0
   55.2370   25.3410   45.5030 C   0  0  0  0  0  0  0  0  0  0  0  0
   54.3860   26.3370   45.9760 O   0  0  0  0  0  0  0  0  0  0  0  0
   53.4000   20.4900   47.5080 O   0  0  0  0  0  0  0  0  0  0  0  0
   54.7390   20.0100   47.4310 C   0  0  0  0  0  0  0  0  0  0  0  0
   55.6290   20.7660   48.3820 C   0  0  0  0  0  0  0  0  0  0  0  0
   56.0870   22.0500   48.0420 C   0  0  0  0  0  0  0  0  0  0  0  0
   56.9290   22.7520   48.9130 C   0  0  0  0  0  0  0  0  0  0  0  0
   57.3230   22.1720   50.1220 C   0  0  0  0  0  0  0  0  0  0  0  0
   56.8760   20.8920   50.4650 C   0  0  0  0  0  0  0  0  0  0  0  0
   56.0310   20.1890   49.6000 C   0  0  0  0  0  0  0  0  0  0  0  0
   52.3004   23.3211   47.4887 H   0  0  0  0  0  0  0  0  0  0  0  0
   54.0862   22.9872   47.4646 H   0  0  0  0  0  0  0  0  0  0  0  0
   52.8629   23.1354   44.7811 H   0  0  0  0  0  0  0  0  0  0  0  0
   52.7566   24.6722   45.7487 H   0  0  0  0  0  0  0  0  0  0  0  0
   57.5854   22.5720   44.0740 H   0  0  0  0  0  0  0  0  0  0  0  0
   58.4585   24.8717   44.4338 H   0  0  0  0  0  0  0  0  0  0  0  0
   57.5264   27.4248   44.5262 H   0  0  0  0  0  0  0  0  0  0  0  0
   56.3371   27.6482   45.8820 H   0  0  0  0  0  0  0  0  0  0  0  0
   60.6868   29.0407   45.0968 H   0  0  0  0  0  0  0  0  0  0  0  0
   59.1972   28.4043   44.3055 H   0  0  0  0  0  0  0  0  0  0  0  0
   57.8119   30.1625   43.6407 H   0  0  0  0  0  0  0  0  0  0  0  0
   56.6912   32.3404   44.1083 H   0  0  0  0  0  0  0  0  0  0  0  0
   56.2560   33.8940   46.9400 H   0  0  0  0  0  0  0  0  0  0  0  0
   58.7512   32.5897   47.9071 H   0  0  0  0  0  0  0  0  0  0  0  0
   59.8518   30.3984   47.4564 H   0  0  0  0  0  0  0  0  0  0  0  0
   54.7556   18.9416   47.6924 H   0  0  0  0  0  0  0  0  0  0  0  0
   55.1098   20.1569   46.4059 H   0  0  0  0  0  0  0  0  0  0  0  0
   55.7830   22.5054   47.0880 H   0  0  0  0  0  0  0  0  0  0  0  0
   57.2803   23.7596   48.6458 H   0  0  0  0  0  0  0  0  0  0  0  0
   57.9859   22.7233   50.8051 H   0  0  0  0  0  0  0  0  0  0  0  0
   57.1894   20.4374   51.4164 H   0  0  0  0  0  0  0  0  0  0  0  0
   55.6802   19.1828   49.8729 H   0  0  0  0  0  0  0  0  0  0  0  0
  1  2  2  0
  2  3  1  0
  3  4  1  0
  4  5  1  0
  5  6  2  0
  6  7  1  0
  6  8  1  0
  8  9  2  0
  9 10  1  0
 10 11  1  0
 11 12  1  0
 12 13  2  0
 13 14  1  0
 14 15  1  0
 15 16  2  0
 16 17  1  0
 17 18  2  0
 18 19  1  0
 18 20  1  0
 20 21  2  0
 13 22  1  0
 22 23  1  0
 23 24  2  0
 23 25  1  0
 25 26  1  0
 26 27  2  0
 10 28  2  0
 28 29  1  0
  2 30  1  0
 30 31  1  0
 31 32  1  0
 32 33  2  0
 33 34  1  0
 34 35  2  0
 35 36  1  0
 36 37  2  0
 28  5  1  0
 37 32  1  0
 26 12  1  0
 21 15  1  0
  3 38  1  0
  3 39  1  0
  4 40  1  0
  4 41  1  0
  8 42  1  0
  9 43  1  0
 11 44  1  0
 11 45  1  0
 14 46  1  0
 14 47  1  0
 16 48  1  0
 17 49  1  0
 19 50  1  0
 20 51  1  0
 21 52  1  0
 31 53  1  0
 31 54  1  0
 33 55  1  0
 34 56  1  0
 35 57  1  0
 36 58  1  0
 37 59  1  0
M  CHG  4   7  -1  22  -1  25  -1  29  -1
M  END
>  <UniqueID>  (88) 
84

>  <SMILES>  (88) 
O=C(CCc1c([O-])ccc(Cc2c(Cc3ccc(O)cc3)[n-]c(=O)[n-]c2=O)c1[O-])OCc1ccccc1

>  <Energy>  (88) 
59.96374056455386

>  <Genealogy>  (88) 
O=C(CCc1c([O-])ccc(Cc2c(Cc3ccc(O)cc3)[n-]c(=O)[n-]c2=O)c1[O-])OCc1ccccc1 (protonated)
O=C(CCc1c([O-])ccc(Cc2c(Cc3ccc(O)cc3)[n-]c(=O)[n-]c2=O)c1[O-])OCc1ccccc1 (3D coordinates assigned)
O=C(CCc1c([O-])ccc(Cc2c(Cc3ccc(O)cc3)[n-]c(=O)[n-]c2=O)c1[O-])OCc1ccccc1 (optimized conformer: 59.96374056455386 kcal/mol)

>  <smiles>  (88) 
O=C(CCc1c(O)ccc(Cc2c(Cc3ccc(O)cc3)[nH]c(=O)[nH]c2=O)c1O)OCc1ccccc1

>  <score_type>  (88) 
oracle

>  <origin>  (88) 
adg

>  <m_score__min__energy>  (88) 
-14.49

>  <m_primary>  (88) 
energy

$$$$
88:0
     RDKit          3D

 58 61  0  0  0  0  0  0  0  0999 V2000
   59.3790   32.8090   45.7970 O   0  0  0  0  0  0  0  0  0  0  0  0
   58.6360   32.1750   46.5870 C   0  0  0  0  0  0  0  0  0  0  0  0
   58.8030   32.3350   48.0760 C   0  0  0  0  0  0  0  0  0  0  0  0
   60.2330   32.1330   48.5380 C   0  0  0  0  0  0  0  0  0  0  0  0
   61.0480   33.2830   48.5550 C   0  0  0  0  0  0  0  0  0  0  0  0
   62.3790   33.2190   48.9500 C   0  0  0  0  0  0  0  0  0  0  0  0
   62.9260   32.0060   49.3500 C   0  0  0  0  0  0  0  0  0  0  0  0
   62.1440   30.8540   49.3540 C   0  0  0  0  0  0  0  0  0  0  0  0
   60.7960   30.8820   48.9470 C   0  0  0  0  0  0  0  0  0  0  0  0
   59.9290   29.3180   48.9970 S   0  0  0  0  0  0  0  0  0  0  0  0
   58.4760   29.4950   49.3320 O   0  0  0  0  0  0  0  0  0  0  0  0
   60.5240   28.4970   50.1060 O   0  0  0  0  0  0  0  0  0  0  0  0
   60.0960   28.3970   47.5150 N   0  0  0  0  0  0  0  0  0  0  0  0
   59.2320   28.9140   46.4320 C   0  0  0  0  0  0  0  0  0  0  0  0
   57.8870   28.1750   46.3340 C   0  0  0  0  0  0  0  0  0  0  0  0
   58.0850   26.7230   46.2710 N   0  0  0  0  0  0  0  0  0  0  0  0
   56.9450   25.8760   46.0210 C   0  0  0  0  0  0  0  0  0  0  0  0
   55.7940   26.2840   46.3410 O   0  0  0  0  0  0  0  0  0  0  0  0
   57.0770   24.5390   45.3910 C   0  0  0  0  0  0  0  0  0  0  0  0
   57.6680   23.4690   46.0800 C   0  0  0  0  0  0  0  0  0  0  0  0
   57.7930   22.2200   45.4680 C   0  0  0  0  0  0  0  0  0  0  0  0
   57.3480   22.0300   44.1590 C   0  0  0  0  0  0  0  0  0  0  0  0
   56.7900   23.0930   43.4530 C   0  0  0  0  0  0  0  0  0  0  0  0
   56.6610   24.3430   44.0610 C   0  0  0  0  0  0  0  0  0  0  0  0
   59.4050   26.1680   46.5860 C   0  0  0  0  0  0  0  0  0  0  0  0
   60.0160   26.9400   47.7600 C   0  0  0  0  0  0  0  0  0  0  0  0
   57.6040   31.3190   46.0750 N   0  0  0  0  0  0  0  0  0  0  0  0
   57.3170   31.1490   44.6770 C   0  0  0  0  0  0  0  0  0  0  0  0
   57.9590   31.9360   43.7010 C   0  0  0  0  0  0  0  0  0  0  0  0
   57.6320   31.7920   42.3510 C   0  0  0  0  0  0  0  0  0  0  0  0
   56.6680   30.8630   41.9600 C   0  0  0  0  0  0  0  0  0  0  0  0
   56.0160   30.0860   42.9200 C   0  0  0  0  0  0  0  0  0  0  0  0
   56.3250   30.2370   44.2750 C   0  0  0  0  0  0  0  0  0  0  0  0
   55.6430   29.4770   45.2170 O   0  0  0  0  0  0  0  0  0  0  0  0
   58.4840   33.3494   48.3573 H   0  0  0  0  0  0  0  0  0  0  0  0
   58.1889   31.5616   48.5605 H   0  0  0  0  0  0  0  0  0  0  0  0
   60.6222   34.2502   48.2496 H   0  0  0  0  0  0  0  0  0  0  0  0
   62.9988   34.1278   48.9460 H   0  0  0  0  0  0  0  0  0  0  0  0
   63.9790   31.9557   49.6641 H   0  0  0  0  0  0  0  0  0  0  0  0
   62.5881   29.9025   49.6818 H   0  0  0  0  0  0  0  0  0  0  0  0
   59.0339   29.9796   46.6197 H   0  0  0  0  0  0  0  0  0  0  0  0
   59.7643   28.7572   45.4822 H   0  0  0  0  0  0  0  0  0  0  0  0
   57.2792   28.4166   47.2184 H   0  0  0  0  0  0  0  0  0  0  0  0
   57.3773   28.4981   45.4143 H   0  0  0  0  0  0  0  0  0  0  0  0
   58.0345   23.6147   47.1069 H   0  0  0  0  0  0  0  0  0  0  0  0
   58.2442   21.3823   46.0201 H   0  0  0  0  0  0  0  0  0  0  0  0
   57.4379   21.0414   43.6852 H   0  0  0  0  0  0  0  0  0  0  0  0
   56.4511   22.9476   42.4167 H   0  0  0  0  0  0  0  0  0  0  0  0
   56.2303   25.1824   43.4954 H   0  0  0  0  0  0  0  0  0  0  0  0
   59.3014   25.1074   46.8587 H   0  0  0  0  0  0  0  0  0  0  0  0
   60.0602   26.2580   45.7070 H   0  0  0  0  0  0  0  0  0  0  0  0
   59.3967   26.7682   48.6527 H   0  0  0  0  0  0  0  0  0  0  0  0
   61.0438   26.5724   47.8961 H   0  0  0  0  0  0  0  0  0  0  0  0
   57.1120   30.6980   46.7570 H   0  0  0  0  0  0  0  0  0  0  0  0
   58.7221   32.6681   44.0039 H   0  0  0  0  0  0  0  0  0  0  0  0
   58.1355   32.4122   41.5948 H   0  0  0  0  0  0  0  0  0  0  0  0
   56.4211   30.7422   40.8949 H   0  0  0  0  0  0  0  0  0  0  0  0
   55.2571   29.3530   42.6090 H   0  0  0  0  0  0  0  0  0  0  0  0
  1  2  2  0
  2  3  1  0
  3  4  1  0
  4  5  2  0
  5  6  1  0
  6  7  2  0
  7  8  1  0
  8  9  2  0
  9 10  1  0
 10 11  2  0
 10 12  2  0
 10 13  1  0
 13 14  1  0
 14 15  1  0
 15 16  1  0
 16 17  1  0
 17 18  2  0
 17 19  1  0
 19 20  2  0
 20 21  1  0
 21 22  2  0
 22 23  1  0
 23 24  2  0
 16 25  1  0
 25 26  1  0
  2 27  1  0
 27 28  1  0
 28 29  2  0
 29 30  1  0
 30 31  2  0
 31 32  1  0
 32 33  2  0
 33 34  1  0
  9  4  1  0
 26 13  1  0
 33 28  1  0
 24 19  1  0
  3 35  1  0
  3 36  1  0
  5 37  1  0
  6 38  1  0
  7 39  1  0
  8 40  1  0
 14 41  1  0
 14 42  1  0
 15 43  1  0
 15 44  1  0
 20 45  1  0
 21 46  1  0
 22 47  1  0
 23 48  1  0
 24 49  1  0
 25 50  1  0
 25 51  1  0
 26 52  1  0
 26 53  1  0
 27 54  1  0
 29 55  1  0
 30 56  1  0
 31 57  1  0
 32 58  1  0
M  CHG  1  34  -1
M  END
>  <UniqueID>  (89) 
85

>  <SMILES>  (89) 
O=C(Cc1ccccc1S(=O)(=O)N1CCN(C(=O)c2ccccc2)CC1)Nc1ccccc1[O-]

>  <Energy>  (89) 
76.63095736967534

>  <Genealogy>  (89) 
O=C(Cc1ccccc1S(=O)(=O)N1CCN(C(=O)c2ccccc2)CC1)Nc1ccccc1[O-] (protonated)
O=C(Cc1ccccc1S(=O)(=O)N1CCN(C(=O)c2ccccc2)CC1)Nc1ccccc1[O-] (3D coordinates assigned)
O=C(Cc1ccccc1S(=O)(=O)N1CCN(C(=O)c2ccccc2)CC1)Nc1ccccc1[O-] (nonaromatic ring conformer: 76.63095736967534 kcal/mol)

>  <smiles>  (89) 
O=C(Cc1ccccc1S(=O)(=O)N1CCN(C(=O)c2ccccc2)CC1)Nc1ccccc1O

>  <score_type>  (89) 
oracle

>  <origin>  (89) 
adg

>  <m_score__min__energy>  (89) 
-13.59

>  <m_primary>  (89) 
energy

$$$$
89:0
     RDKit          3D

 54 58  0  0  0  0  0  0  0  0999 V2000
   55.6400   29.7200   45.9350 H   0  0  0  0  0  0  0  0  0  0  0  0
   55.6680   28.9970   45.2260 O   0  0  0  0  0  0  0  0  0  0  0  0
   56.2950   27.7810   45.4780 C   0  0  0  0  0  0  0  0  0  0  0  0
   55.6290   26.6850   45.9140 N   0  0  0  0  0  0  0  0  0  0  0  0
   56.5930   25.7580   46.0900 C   0  0  0  0  0  0  0  0  0  0  0  0
   56.4220   24.4440   46.5460 C   0  0  0  0  0  0  0  0  0  0  0  0
   55.0560   23.8950   46.8500 C   0  0  0  0  0  0  0  0  0  0  0  0
   54.9174   23.8393   47.9398 H   0  0  0  0  0  0  0  0  0  0  0  0
   54.2906   24.5553   46.4163 H   0  0  0  0  0  0  0  0  0  0  0  0
   54.9604   22.8886   46.4163 H   0  0  0  0  0  0  0  0  0  0  0  0
   57.5760   23.6300   46.6440 C   0  0  0  0  0  0  0  0  0  0  0  0
   57.4710   22.3070   47.0570 O   0  0  0  0  0  0  0  0  0  0  0  0
   58.8480   24.1510   46.3200 C   0  0  0  0  0  0  0  0  0  0  0  0
   59.7378   23.5107   46.4116 H   0  0  0  0  0  0  0  0  0  0  0  0
   58.9890   25.4780   45.8820 C   0  0  0  0  0  0  0  0  0  0  0  0
   59.9768   25.8914   45.6303 H   0  0  0  0  0  0  0  0  0  0  0  0
   57.8370   26.2530   45.7770 C   0  0  0  0  0  0  0  0  0  0  0  0
   57.6620   27.5520   45.3570 C   0  0  0  0  0  0  0  0  0  0  0  0
   58.7200   28.5040   44.9700 C   0  0  0  0  0  0  0  0  0  0  0  0
   59.7136   28.1019   44.7228 H   0  0  0  0  0  0  0  0  0  0  0  0
   58.5410   29.8320   44.9020 C   0  0  0  0  0  0  0  0  0  0  0  0
   58.5800   30.7270   45.9590 C   0  0  0  0  0  0  0  0  0  0  0  0
   58.7847   30.4908   47.0137 H   0  0  0  0  0  0  0  0  0  0  0  0
   58.3110   31.9760   45.4280 C   0  0  0  0  0  0  0  0  0  0  0  0
   58.3060   33.2370   46.2020 C   0  0  0  0  0  0  0  0  0  0  0  0
   57.6220   34.2150   45.7970 O   0  0  0  0  0  0  0  0  0  0  0  0
   59.1310   33.3860   47.3710 N   0  0  0  0  0  0  0  0  0  0  0  0
   59.1370   32.3630   48.4220 C   0  0  0  0  0  0  0  0  0  0  0  0
   58.5421   32.7167   49.2770 H   0  0  0  0  0  0  0  0  0  0  0  0
   58.7037   31.4344   48.0220 H   0  0  0  0  0  0  0  0  0  0  0  0
   60.5750   32.0870   48.8840 C   0  0  0  0  0  0  0  0  0  0  0  0
   60.5382   31.5945   49.8669 H   0  0  0  0  0  0  0  0  0  0  0  0
   61.0475   31.4508   48.1211 H   0  0  0  0  0  0  0  0  0  0  0  0
   61.3950   33.3160   49.0030 N   0  0  0  0  0  0  0  0  0  0  0  0
   62.7870   33.1810   48.5050 C   0  0  0  0  0  0  0  0  0  0  0  0
   63.2279   33.6341   49.4052 H   0  0  0  0  0  0  0  0  0  0  0  0
   63.0250   31.9530   47.6310 C   0  0  0  0  0  0  0  0  0  0  0  0
   63.9507   31.3696   47.7441 H   0  0  0  0  0  0  0  0  0  0  0  0
   62.4662   31.0286   47.4232 H   0  0  0  0  0  0  0  0  0  0  0  0
   63.0730   33.3380   47.0100 C   0  0  0  0  0  0  0  0  0  0  0  0
   64.0332   33.7574   46.6750 H   0  0  0  0  0  0  0  0  0  0  0  0
   62.5639   33.8308   46.1686 H   0  0  0  0  0  0  0  0  0  0  0  0
   60.6860   34.6050   48.8710 C   0  0  0  0  0  0  0  0  0  0  0  0
   60.0312   34.7427   49.7441 H   0  0  0  0  0  0  0  0  0  0  0  0
   61.4382   35.4055   48.8121 H   0  0  0  0  0  0  0  0  0  0  0  0
   59.8310   34.6560   47.5940 C   0  0  0  0  0  0  0  0  0  0  0  0
   59.0889   35.4621   47.6914 H   0  0  0  0  0  0  0  0  0  0  0  0
   60.4961   34.8413   46.7376 H   0  0  0  0  0  0  0  0  0  0  0  0
   58.1130   31.7850   44.0640 C   0  0  0  0  0  0  0  0  0  0  0  0
   57.7990   32.7160   43.1590 C   0  0  0  0  0  0  0  0  0  0  0  0
   57.7010   33.7684   43.4638 H   0  0  0  0  0  0  0  0  0  0  0  0
   57.6384   32.4303   42.1090 H   0  0  0  0  0  0  0  0  0  0  0  0
   58.2480   30.4790   43.7550 N   0  0  0  0  0  0  0  0  0  0  0  0
   58.1420   30.0480   42.8080 H   0  0  0  0  0  0  0  0  0  0  0  0
  1  2  1  0
  2  3  1  0
  3  4  1  0
  4  5  1  0
  5  6  2  0
  6  7  1  0
  7  8  1  0
  7  9  1  0
  7 10  1  0
  6 11  1  0
 11 12  1  0
 11 13  2  0
 13 14  1  0
 13 15  1  0
 15 16  1  0
 15 17  2  0
 17 18  1  0
 18 19  1  0
 19 20  1  0
 19 21  2  0
 21 22  1  0
 22 23  1  0
 22 24  2  0
 24 25  1  0
 25 26  2  0
 25 27  1  0
 27 28  1  0
 28 29  1  0
 28 30  1  0
 28 31  1  0
 31 32  1  0
 31 33  1  0
 31 34  1  0
 34 35  1  0
 35 36  1  0
 35 37  1  0
 37 38  1  0
 37 39  1  0
 37 40  1  0
 40 41  1  0
 40 42  1  0
 34 43  1  0
 43 44  1  0
 43 45  1  0
 43 46  1  0
 46 47  1  0
 46 48  1  0
 24 49  1  0
 49 50  2  0
 50 51  1  0
 50 52  1  0
 49 53  1  0
 53 54  1  0
 18  3  2  0
 53 21  1  0
 17  5  1  0
 46 27  1  0
 40 35  1  0
M  CHG  2   4  -1  12  -1
M  END
>  <UniqueID>  (90) 
86

>  <SMILES>  (90) 
C=c1[nH]/c(=C/c2c(O)[n-]c3c(C)c([O-])ccc23)cc1C(=O)N1CCN(C2CC2)CC1

>  <Energy>  (90) 
407.81182750686406

>  <Genealogy>  (90) 
C=c1[nH]c(=Cc2c(O)[n-]c3c(C)c([O-])ccc23)cc1C(=O)N1CCN(C2CC2)CC1 (protonated)
C=c1[nH]/c(=C/c2c(O)[n-]c3c(C)c([O-])ccc23)cc1C(=O)N1CCN(C2CC2)CC1 (cis-trans isomerization)
C=c1[nH]/c(=C/c2c(O)[n-]c3c(C)c([O-])ccc23)cc1C(=O)N1CCN(C2CC2)CC1 (3D coordinates assigned)
C=c1[nH]/c(=C/c2c(O)[n-]c3c(C)c([O-])ccc23)cc1C(=O)N1CCN(C2CC2)CC1 (nonaromatic ring conformer: 407.81182750686406 kcal/mol)

>  <smiles>  (90) 
C=c1[nH]c(=Cc2c(O)[nH]c3c(C)c(O)ccc23)cc1C(=O)N1CCN(C2CC2)CC1

>  <score_type>  (90) 
oracle

>  <origin>  (90) 
adg

>  <m_score__min__energy>  (90) 
-14.449999999999999

>  <m_primary>  (90) 
energy

$$$$
90:0
     RDKit          3D

 46 48  0  0  0  0  0  0  0  0999 V2000
   56.2820   29.8780   42.8340 C   0  0  0  0  0  0  0  0  0  0  0  0
   56.2770   29.5090   44.2870 C   0  0  0  0  0  0  0  0  0  0  0  0
   55.1650   29.3490   44.8600 O   0  0  0  0  0  0  0  0  0  0  0  0
   57.5370   29.4160   45.0710 C   0  0  0  0  0  0  0  0  0  0  0  0
   58.0900   28.1550   45.3660 C   0  0  0  0  0  0  0  0  0  0  0  0
   59.2910   28.0500   46.0700 C   0  0  0  0  0  0  0  0  0  0  0  0
   59.9540   29.1970   46.4930 C   0  0  0  0  0  0  0  0  0  0  0  0
   59.4150   30.4560   46.2280 C   0  0  0  0  0  0  0  0  0  0  0  0
   58.2020   30.5840   45.5250 C   0  0  0  0  0  0  0  0  0  0  0  0
   57.6170   31.8720   45.2800 N   0  0  0  0  0  0  0  0  0  0  0  0
   58.0090   33.3630   46.0760 S   0  0  0  0  0  0  0  0  0  0  0  0
   57.0230   33.5510   47.1950 O   0  0  0  0  0  0  0  0  0  0  0  0
   57.8570   34.4970   45.0980 O   0  0  0  0  0  0  0  0  0  0  0  0
   59.6460   33.3680   46.7690 C   0  0  0  0  0  0  0  0  0  0  0  0
   60.7270   33.8310   46.0010 C   0  0  0  0  0  0  0  0  0  0  0  0
   62.0100   33.8960   46.5480 C   0  0  0  0  0  0  0  0  0  0  0  0
   62.2380   33.4620   47.8520 C   0  0  0  0  0  0  0  0  0  0  0  0
   61.1850   32.9450   48.6200 C   0  0  0  0  0  0  0  0  0  0  0  0
   61.4550   32.4390   49.9370 N   0  0  0  0  0  0  0  0  0  0  0  0
   61.5630   33.3790   51.0560 C   0  0  0  0  0  0  0  0  0  0  0  0
   61.1800   32.7140   52.3970 C   0  0  0  0  0  0  0  0  0  0  0  0
   61.4010   31.2510   52.4370 N   0  0  0  0  0  0  0  0  0  0  0  0
   62.4340   30.7930   51.5010 C   0  0  0  0  0  0  0  0  0  0  0  0
   62.0140   31.0890   50.0580 C   0  0  0  0  0  0  0  0  0  0  0  0
   59.8800   32.9070   48.0860 C   0  0  0  0  0  0  0  0  0  0  0  0
   58.5580   32.2970   49.0870 Cl  0  0  0  0  0  0  0  0  0  0  0  0
   56.2968   30.9733   42.7339 H   0  0  0  0  0  0  0  0  0  0  0  0
   57.1745   29.4535   42.3510 H   0  0  0  0  0  0  0  0  0  0  0  0
   55.3784   29.4779   42.3510 H   0  0  0  0  0  0  0  0  0  0  0  0
   57.5700   27.2428   45.0382 H   0  0  0  0  0  0  0  0  0  0  0  0
   59.7135   27.0586   46.2904 H   0  0  0  0  0  0  0  0  0  0  0  0
   60.9057   29.1112   47.0379 H   0  0  0  0  0  0  0  0  0  0  0  0
   59.9430   31.3577   46.5717 H   0  0  0  0  0  0  0  0  0  0  0  0
   60.5614   34.1450   44.9599 H   0  0  0  0  0  0  0  0  0  0  0  0
   62.8429   34.2909   45.9477 H   0  0  0  0  0  0  0  0  0  0  0  0
   63.2489   33.5252   48.2811 H   0  0  0  0  0  0  0  0  0  0  0  0
   62.6001   33.7400   51.1200 H   0  0  0  0  0  0  0  0  0  0  0  0
   60.8675   34.2116   50.8740 H   0  0  0  0  0  0  0  0  0  0  0  0
   61.7815   33.1751   53.1942 H   0  0  0  0  0  0  0  0  0  0  0  0
   60.0997   32.8729   52.5299 H   0  0  0  0  0  0  0  0  0  0  0  0
   60.4990   30.7510   52.2330 H   0  0  0  0  0  0  0  0  0  0  0  0
   61.6990   30.9770   53.4090 H   0  0  0  0  0  0  0  0  0  0  0  0
   63.3776   31.3148   51.7184 H   0  0  0  0  0  0  0  0  0  0  0  0
   62.5674   29.7075   51.6190 H   0  0  0  0  0  0  0  0  0  0  0  0
   62.8939   31.0046   49.4033 H   0  0  0  0  0  0  0  0  0  0  0  0
   61.2415   30.3634   49.7633 H   0  0  0  0  0  0  0  0  0  0  0  0
  1  2  1  0
  2  3  2  0
  2  4  1  0
  4  5  2  0
  5  6  1  0
  6  7  2  0
  7  8  1  0
  8  9  2  0
  9 10  1  0
 10 11  1  0
 11 12  2  0
 11 13  2  0
 11 14  1  0
 14 15  2  0
 15 16  1  0
 16 17  2  0
 17 18  1  0
 18 19  1  0
 19 20  1  0
 20 21  1  0
 21 22  1  0
 22 23  1  0
 23 24  1  0
 18 25  2  0
 25 26  1  0
  9  4  1  0
 25 14  1  0
 24 19  1  0
  1 27  1  0
  1 28  1  0
  1 29  1  0
  5 30  1  0
  6 31  1  0
  7 32  1  0
  8 33  1  0
 15 34  1  0
 16 35  1  0
 17 36  1  0
 20 37  1  0
 20 38  1  0
 21 39  1  0
 21 40  1  0
 22 41  1  0
 22 42  1  0
 23 43  1  0
 23 44  1  0
 24 45  1  0
 24 46  1  0
M  CHG  2  10  -1  22   1
M  END
>  <UniqueID>  (91) 
87

>  <SMILES>  (91) 
CC(=O)c1ccccc1[N-]S(=O)(=O)c1cccc(N2CC[NH2+]CC2)c1Cl

>  <Energy>  (91) 
66.34488871320055

>  <Genealogy>  (91) 
CC(=O)c1ccccc1[N-]S(=O)(=O)c1cccc(N2CC[NH2+]CC2)c1Cl (protonated)
CC(=O)c1ccccc1[N-]S(=O)(=O)c1cccc(N2CC[NH2+]CC2)c1Cl (3D coordinates assigned)
CC(=O)c1ccccc1[N-]S(=O)(=O)c1cccc(N2CC[NH2+]CC2)c1Cl (nonaromatic ring conformer: 66.34488871320055 kcal/mol)

>  <smiles>  (91) 
CC(=O)c1ccccc1NS(=O)(=O)c1cccc(N2CCNCC2)c1Cl

>  <score_type>  (91) 
oracle

>  <origin>  (91) 
adg

>  <m_score__min__energy>  (91) 
-8.7599999999999998

>  <m_primary>  (91) 
energy

$$$$
