0:0
     RDKit          3D

 49 52  0  0  0  0  0  0  0  0999 V2000
   59.2330   34.3780   44.9620 C   0  0  0  0  0  0  0  0  0  0  0  0
   57.9620   34.1620   46.2450 S   0  0  0  0  0  0  0  0  0  0  0  0
   58.0710   32.3610   46.2110 C   0  0  0  0  0  0  0  0  0  0  0  0
   57.7020   31.7130   45.0700 N   0  0  0  0  0  0  0  0  0  0  0  0
   57.8040   30.3670   45.0090 C   0  0  0  0  0  0  0  0  0  0  0  0
   57.3970   29.3890   43.7050 S   0  0  0  0  0  0  0  0  0  0  0  0
   57.8070   27.9550   44.5000 C   0  0  0  0  0  0  0  0  0  0  0  0
   58.3000   28.2330   45.7760 C   0  0  0  0  0  0  0  0  0  0  0  0
   58.2720   29.6140   46.0640 C   0  0  0  0  0  0  0  0  0  0  0  0
   58.6360   30.2770   47.2420 C   0  0  0  0  0  0  0  0  0  0  0  0
   59.0460   29.6250   48.2410 O   0  0  0  0  0  0  0  0  0  0  0  0
   58.5300   31.6480   47.3010 N   0  0  0  0  0  0  0  0  0  0  0  0
   58.8990   32.3320   48.5120 C   0  0  0  0  0  0  0  0  0  0  0  0
   58.2330   32.0510   49.7160 C   0  0  0  0  0  0  0  0  0  0  0  0
   58.5960   32.7150   50.8910 C   0  0  0  0  0  0  0  0  0  0  0  0
   59.6290   33.6570   50.8730 C   0  0  0  0  0  0  0  0  0  0  0  0
   60.3010   33.9360   49.6790 C   0  0  0  0  0  0  0  0  0  0  0  0
   59.9400   33.2750   48.5010 C   0  0  0  0  0  0  0  0  0  0  0  0
   58.7220   27.1450   46.7300 C   0  0  0  0  0  0  0  0  0  0  0  0
   58.8230   25.7600   46.0560 C   0  0  0  0  0  0  0  0  0  0  0  0
   57.7490   25.4920   44.9700 C   0  0  1  0  0  0  0  0  0  0  0  0
   56.3510   25.3130   45.5450 C   0  0  0  0  0  0  0  0  0  0  0  0
   55.9170   26.1640   46.3680 O   0  0  0  0  0  0  0  0  0  0  0  0
   55.4790   24.2400   45.1200 N   0  0  0  0  0  0  0  0  0  0  0  0
   55.8850   23.2820   44.0850 C   0  0  0  0  0  0  0  0  0  0  0  0
   54.1500   24.1270   45.7320 C   0  0  0  0  0  0  0  0  0  0  0  0
   57.7690   26.5910   43.8890 C   0  0  0  0  0  0  0  0  0  0  0  0
   60.2104   34.5441   45.4385 H   0  0  0  0  0  0  0  0  0  0  0  0
   59.2791   33.4748   44.3358 H   0  0  0  0  0  0  0  0  0  0  0  0
   58.9781   35.2457   44.3358 H   0  0  0  0  0  0  0  0  0  0  0  0
   57.3500   32.2490   44.2450 H   0  0  0  0  0  0  0  0  0  0  0  0
   57.4236   31.3064   49.7343 H   0  0  0  0  0  0  0  0  0  0  0  0
   58.0684   32.4962   51.8311 H   0  0  0  0  0  0  0  0  0  0  0  0
   59.9132   34.1789   51.7987 H   0  0  0  0  0  0  0  0  0  0  0  0
   61.1145   34.6763   49.6664 H   0  0  0  0  0  0  0  0  0  0  0  0
   60.4723   33.4939   47.5636 H   0  0  0  0  0  0  0  0  0  0  0  0
   59.7065   27.4054   47.1459 H   0  0  0  0  0  0  0  0  0  0  0  0
   57.9520   27.0756   47.5125 H   0  0  0  0  0  0  0  0  0  0  0  0
   59.8142   25.6783   45.5861 H   0  0  0  0  0  0  0  0  0  0  0  0
   58.6589   25.0146   46.8481 H   0  0  0  0  0  0  0  0  0  0  0  0
   58.0146   24.5337   44.4998 H   0  0  0  0  0  0  0  0  0  0  0  0
   56.2718   22.3692   44.5617 H   0  0  0  0  0  0  0  0  0  0  0  0
   55.0168   23.0289   43.4588 H   0  0  0  0  0  0  0  0  0  0  0  0
   56.6707   23.7298   43.4588 H   0  0  0  0  0  0  0  0  0  0  0  0
   54.2489   24.1354   46.8275 H   0  0  0  0  0  0  0  0  0  0  0  0
   53.5264   24.9754   45.4136 H   0  0  0  0  0  0  0  0  0  0  0  0
   53.6786   23.1855   45.4136 H   0  0  0  0  0  0  0  0  0  0  0  0
   58.6598   26.4564   43.2579 H   0  0  0  0  0  0  0  0  0  0  0  0
   56.8504   26.5049   43.2901 H   0  0  0  0  0  0  0  0  0  0  0  0
  1  2  1  0
  2  3  1  0
  3  4  2  0
  4  5  1  0
  5  6  1  0
  6  7  1  0
  7  8  2  0
  8  9  1  0
  9 10  1  0
 10 11  2  0
 10 12  1  0
 12 13  1  0
 13 14  2  0
 14 15  1  0
 15 16  2  0
 16 17  1  0
 17 18  2  0
  8 19  1  0
 19 20  1  0
 20 21  1  0
 21 22  1  0
 22 23  2  0
 22 24  1  0
 24 25  1  0
 24 26  1  0
 21 27  1  0
 12  3  1  0
 18 13  1  0
  9  5  2  0
 27  7  1  0
  1 28  1  0
  1 29  1  0
  1 30  1  0
  4 31  1  0
 14 32  1  0
 15 33  1  0
 16 34  1  0
 17 35  1  0
 18 36  1  0
 19 37  1  0
 19 38  1  0
 20 39  1  0
 20 40  1  0
 21 41  1  6
 25 42  1  0
 25 43  1  0
 25 44  1  0
 26 45  1  0
 26 46  1  0
 26 47  1  0
 27 48  1  0
 27 49  1  0
M  CHG  1   4   1
M  END
>  <UniqueID>  (1) 
1

>  <SMILES>  (1) 
CSc1[nH+]c2sc3c(c2c(=O)n1-c1ccccc1)CC[C@@H](C(=O)N(C)C)C3

>  <Energy>  (1) 
91.46533603646105

>  <Genealogy>  (1) 
CSc1[nH+]c2sc3c(c2c(=O)n1-c1ccccc1)CCC(C(=O)N(C)C)C3 (protonated)
CSc1[nH+]c2sc3c(c2c(=O)n1-c1ccccc1)CC[C@@H](C(=O)N(C)C)C3 (chirality)
CSc1[nH+]c2sc3c(c2c(=O)n1-c1ccccc1)CC[C@@H](C(=O)N(C)C)C3 (3D coordinates assigned)
CSc1[nH+]c2sc3c(c2c(=O)n1-c1ccccc1)CC[C@@H](C(=O)N(C)C)C3 (nonaromatic ring conformer: 91.46533603646105 kcal/mol)

>  <smiles>  (1) 
CSc1nc2sc3c(c2c(=O)n1-c1ccccc1)CCC(C(=O)N(C)C)C3

>  <score_type>  (1) 
oracle

>  <origin>  (1) 
adg

>  <m_score__min__energy>  (1) 
-7.1500000000000004

>  <m_primary>  (1) 
energy

$$$$
1:0
     RDKit          3D

 48 50  0  0  0  0  0  0  0  0999 V2000
   60.8064   26.9249   46.4355 H   0  0  0  0  0  0  0  0  0  0  0  0
   59.7750   27.0630   46.0790 C   0  0  0  0  0  0  0  0  0  0  0  0
   59.1120   26.0420   45.6240 N   0  0  0  0  0  0  0  0  0  0  0  0
   57.7820   25.7480   45.9770 N   0  0  0  0  0  0  0  0  0  0  0  0
   57.3810   25.1790   47.1220 C   0  0  0  0  0  0  0  0  0  0  0  0
   58.0527   24.8692   47.9361 H   0  0  0  0  0  0  0  0  0  0  0  0
   56.0420   25.0390   47.1380 N   0  0  0  0  0  0  0  0  0  0  0  0
   55.5810   25.5240   45.9920 N   0  0  0  0  0  0  0  0  0  0  0  0
   56.6440   25.9570   45.2860 C   0  0  0  0  0  0  0  0  0  0  0  0
   56.5905   26.4158   44.2877 H   0  0  0  0  0  0  0  0  0  0  0  0
   59.1620   28.4070   46.1240 C   0  0  0  0  0  0  0  0  0  0  0  0
   59.6320   29.3440   47.0530 C   0  0  0  0  0  0  0  0  0  0  0  0
   60.4493   29.0720   47.7371 H   0  0  0  0  0  0  0  0  0  0  0  0
   59.0710   30.6200   47.1170 C   0  0  0  0  0  0  0  0  0  0  0  0
   59.4507   31.3473   47.8497 H   0  0  0  0  0  0  0  0  0  0  0  0
   58.0230   30.9830   46.2510 C   0  0  0  0  0  0  0  0  0  0  0  0
   57.4270   32.2560   46.2870 O   0  0  0  0  0  0  0  0  0  0  0  0
   58.0650   33.4800   45.9190 C   0  0  0  0  0  0  0  0  0  0  0  0
   58.2855   33.4620   44.8415 H   0  0  0  0  0  0  0  0  0  0  0  0
   57.3901   34.3151   46.1578 H   0  0  0  0  0  0  0  0  0  0  0  0
   59.3500   33.6640   46.6830 C   0  0  0  0  0  0  0  0  0  0  0  0
   59.3200   33.8850   48.0670 C   0  0  0  0  0  0  0  0  0  0  0  0
   58.3554   33.9208   48.5945 H   0  0  0  0  0  0  0  0  0  0  0  0
   60.5090   34.0600   48.7800 C   0  0  0  0  0  0  0  0  0  0  0  0
   60.4739   34.2257   49.8669 H   0  0  0  0  0  0  0  0  0  0  0  0
   61.7510   34.0260   48.1190 C   0  0  0  0  0  0  0  0  0  0  0  0
   63.0500   34.2110   48.8810 C   0  0  0  0  0  0  0  0  0  0  0  0
   63.4704   35.1867   48.5958 H   0  0  0  0  0  0  0  0  0  0  0  0
   62.8060   34.2330   50.3930 C   0  0  0  0  0  0  0  0  0  0  0  0
   63.7672   34.1463   50.9208 H   0  0  0  0  0  0  0  0  0  0  0  0
   62.3185   35.1788   50.6720 H   0  0  0  0  0  0  0  0  0  0  0  0
   62.1571   33.3897   50.6720 H   0  0  0  0  0  0  0  0  0  0  0  0
   64.0710   33.1320   48.5010 C   0  0  0  0  0  0  0  0  0  0  0  0
   64.4918   32.6873   49.4149 H   0  0  0  0  0  0  0  0  0  0  0  0
   63.5745   32.3500   47.9078 H   0  0  0  0  0  0  0  0  0  0  0  0
   64.8792   33.5846   47.9078 H   0  0  0  0  0  0  0  0  0  0  0  0
   61.7740   33.8180   46.7290 C   0  0  0  0  0  0  0  0  0  0  0  0
   62.7368   33.7920   46.1977 H   0  0  0  0  0  0  0  0  0  0  0  0
   60.5850   33.6440   46.0160 C   0  0  0  0  0  0  0  0  0  0  0  0
   60.6169   33.4907   44.9272 H   0  0  0  0  0  0  0  0  0  0  0  0
   57.5470   30.0550   45.3120 C   0  0  0  0  0  0  0  0  0  0  0  0
   56.5030   30.4480   44.4600 O   0  0  0  0  0  0  0  0  0  0  0  0
   56.5640   30.4060   43.0370 C   0  0  0  0  0  0  0  0  0  0  0  0
   57.4327   29.8079   42.7247 H   0  0  0  0  0  0  0  0  0  0  0  0
   55.6438   29.9491   42.6439 H   0  0  0  0  0  0  0  0  0  0  0  0
   56.6625   31.4286   42.6439 H   0  0  0  0  0  0  0  0  0  0  0  0
   58.1190   28.7680   45.2530 C   0  0  0  0  0  0  0  0  0  0  0  0
   57.7458   28.0392   44.5185 H   0  0  0  0  0  0  0  0  0  0  0  0
  1  2  1  0
  2  3  2  0
  3  4  1  0
  4  5  1  0
  5  6  1  0
  5  7  2  0
  7  8  1  0
  8  9  2  0
  9 10  1  0
  2 11  1  0
 11 12  2  0
 12 13  1  0
 12 14  1  0
 14 15  1  0
 14 16  2  0
 16 17  1  0
 17 18  1  0
 18 19  1  0
 18 20  1  0
 18 21  1  0
 21 22  2  0
 22 23  1  0
 22 24  1  0
 24 25  1  0
 24 26  2  0
 26 27  1  0
 27 28  1  0
 27 29  1  0
 29 30  1  0
 29 31  1  0
 29 32  1  0
 27 33  1  0
 33 34  1  0
 33 35  1  0
 33 36  1  0
 26 37  1  0
 37 38  1  0
 37 39  2  0
 39 40  1  0
 16 41  1  0
 41 42  1  0
 42 43  1  0
 43 44  1  0
 43 45  1  0
 43 46  1  0
 41 47  2  0
 47 48  1  0
  9  4  1  0
 47 11  1  0
 39 21  1  0
M  END
>  <UniqueID>  (2) 
2

>  <SMILES>  (2) 
COc1cc(/C=N/n2cnnc2)ccc1OCc1ccc(C(C)C)cc1

>  <Energy>  (2) 
82.39829855645748

>  <Genealogy>  (2) 
COc1cc(/C=N/n2cnnc2)ccc1OCc1ccc(C(C)C)cc1 (cis-trans isomerization)
COc1cc(/C=N/n2cnnc2)ccc1OCc1ccc(C(C)C)cc1 (3D coordinates assigned)
COc1cc(/C=N/n2cnnc2)ccc1OCc1ccc(C(C)C)cc1 (optimized conformer: 82.39829855645748 kcal/mol)

>  <smiles>  (2) 
COc1cc(C=Nn2cnnc2)ccc1OCc1ccc(C(C)C)cc1

>  <score_type>  (2) 
oracle

>  <origin>  (2) 
adg

>  <m_score__min__energy>  (2) 
-8.2100000000000009

>  <m_primary>  (2) 
energy

$$$$
2:0
     RDKit          3D

 61 63  0  0  0  0  0  0  0  0999 V2000
   63.5830   29.1790   51.8800 C   0  0  0  0  0  0  0  0  0  0  0  0
   62.4070   28.7590   51.2200 O   0  0  0  0  0  0  0  0  0  0  0  0
   61.4110   28.4580   52.1770 C   0  0  0  0  0  0  0  0  0  0  0  0
   60.0760   28.2230   51.4690 C   0  0  0  0  0  0  0  0  0  0  0  0
   59.9180   29.1390   50.3270 N   0  0  0  0  0  0  0  0  0  0  0  0
   59.9980   28.6830   48.9570 C   0  0  0  0  0  0  0  0  0  0  0  0
   61.1200   28.6040   48.3890 O   0  0  0  0  0  0  0  0  0  0  0  0
   58.7850   28.2210   48.2120 C   0  0  0  0  0  0  0  0  0  0  0  0
   59.1170   27.0380   47.4920 O   0  0  0  0  0  0  0  0  0  0  0  0
   59.9730   27.0310   46.3930 C   0  0  0  0  0  0  0  0  0  0  0  0
   61.0390   26.3540   46.4120 O   0  0  0  0  0  0  0  0  0  0  0  0
   59.5900   27.7940   45.1940 C   0  0  0  0  0  0  0  0  0  0  0  0
   58.4500   28.4920   45.0630 C   0  0  0  0  0  0  0  0  0  0  0  0
   58.3330   29.9720   45.0910 C   0  0  0  0  0  0  0  0  0  0  0  0
   58.8360   30.6730   46.1990 C   0  0  0  0  0  0  0  0  0  0  0  0
   58.7920   32.0710   46.2300 C   0  0  0  0  0  0  0  0  0  0  0  0
   58.2560   32.7820   45.1520 C   0  0  0  0  0  0  0  0  0  0  0  0
   58.2440   34.5440   45.1720 Cl  0  0  0  0  0  0  0  0  0  0  0  0
   57.7680   32.0900   44.0360 C   0  0  0  0  0  0  0  0  0  0  0  0
   57.8160   30.6920   43.9980 C   0  0  0  0  0  0  0  0  0  0  0  0
   59.6730   30.5340   50.5920 C   0  0  0  0  0  0  0  0  0  0  0  0
   60.6890   31.4920   50.4160 C   0  0  0  0  0  0  0  0  0  0  0  0
   61.9680   31.0660   49.9120 N   0  0  0  0  0  0  0  0  0  0  0  0
   60.4360   32.8190   50.7000 N   0  0  0  0  0  0  0  0  0  0  0  0
   61.4800   33.8490   50.4980 C   0  0  0  0  0  0  0  0  0  0  0  0
   61.9620   33.8680   49.0670 C   0  0  0  0  0  0  0  0  0  0  0  0
   61.0330   33.9180   48.0090 C   0  0  0  0  0  0  0  0  0  0  0  0
   61.4780   33.8990   46.6840 C   0  0  0  0  0  0  0  0  0  0  0  0
   62.8420   33.8090   46.4030 C   0  0  0  0  0  0  0  0  0  0  0  0
   63.7670   33.7390   47.4470 C   0  0  0  0  0  0  0  0  0  0  0  0
   63.3310   33.7660   48.7750 C   0  0  0  0  0  0  0  0  0  0  0  0
   59.1830   33.1900   51.1430 C   0  0  0  0  0  0  0  0  0  0  0  0
   58.9190   34.3990   51.3970 O   0  0  0  0  0  0  0  0  0  0  0  0
   58.2040   32.2660   51.3070 N   0  0  0  0  0  0  0  0  0  0  0  0
   58.4210   30.9560   51.0430 C   0  0  0  0  0  0  0  0  0  0  0  0
   57.4930   30.1230   51.2130 O   0  0  0  0  0  0  0  0  0  0  0  0
   63.4319   29.1250   52.9682 H   0  0  0  0  0  0  0  0  0  0  0  0
   64.4186   28.5237   51.5929 H   0  0  0  0  0  0  0  0  0  0  0  0
   63.8144   30.2153   51.5929 H   0  0  0  0  0  0  0  0  0  0  0  0
   61.6968   27.5514   52.7305 H   0  0  0  0  0  0  0  0  0  0  0  0
   61.3104   29.2999   52.8778 H   0  0  0  0  0  0  0  0  0  0  0  0
   60.0387   27.1853   51.1061 H   0  0  0  0  0  0  0  0  0  0  0  0
   59.2614   28.4096   52.1843 H   0  0  0  0  0  0  0  0  0  0  0  0
   57.9730   28.0068   48.9225 H   0  0  0  0  0  0  0  0  0  0  0  0
   58.4513   29.0039   47.5150 H   0  0  0  0  0  0  0  0  0  0  0  0
   60.2879   27.7925   44.3437 H   0  0  0  0  0  0  0  0  0  0  0  0
   57.5225   27.9174   44.9228 H   0  0  0  0  0  0  0  0  0  0  0  0
   59.2668   30.1201   47.0468 H   0  0  0  0  0  0  0  0  0  0  0  0
   59.1803   32.6125   47.1052 H   0  0  0  0  0  0  0  0  0  0  0  0
   57.3457   32.6474   43.1869 H   0  0  0  0  0  0  0  0  0  0  0  0
   57.4486   30.1544   43.1114 H   0  0  0  0  0  0  0  0  0  0  0  0
   62.7600   31.7380   49.8050 H   0  0  0  0  0  0  0  0  0  0  0  0
   62.1410   30.1040   49.5580 H   0  0  0  0  0  0  0  0  0  0  0  0
   61.0633   34.8356   50.7490 H   0  0  0  0  0  0  0  0  0  0  0  0
   62.3340   33.6103   51.1490 H   0  0  0  0  0  0  0  0  0  0  0  0
   59.9560   33.9721   48.2259 H   0  0  0  0  0  0  0  0  0  0  0  0
   60.7509   33.9551   45.8604 H   0  0  0  0  0  0  0  0  0  0  0  0
   63.1886   33.7932   45.3592 H   0  0  0  0  0  0  0  0  0  0  0  0
   64.8414   33.6624   47.2238 H   0  0  0  0  0  0  0  0  0  0  0  0
   64.0633   33.7071   49.5937 H   0  0  0  0  0  0  0  0  0  0  0  0
   57.2610   32.5700   51.6440 H   0  0  0  0  0  0  0  0  0  0  0  0
  1  2  1  0
  2  3  1  0
  3  4  1  0
  4  5  1  0
  5  6  1  0
  6  7  2  0
  6  8  1  0
  8  9  1  0
  9 10  1  0
 10 11  2  0
 10 12  1  0
 12 13  2  3
 13 14  1  0
 14 15  2  0
 15 16  1  0
 16 17  2  0
 17 18  1  0
 17 19  1  0
 19 20  2  0
  5 21  1  0
 21 22  2  0
 22 23  1  0
 22 24  1  0
 24 25  1  0
 25 26  1  0
 26 27  2  0
 27 28  1  0
 28 29  2  0
 29 30  1  0
 30 31  2  0
 24 32  1  0
 32 33  2  0
 32 34  1  0
 34 35  1  0
 35 36  2  0
 20 14  1  0
 35 21  1  0
 31 26  1  0
  1 37  1  0
  1 38  1  0
  1 39  1  0
  3 40  1  0
  3 41  1  0
  4 42  1  0
  4 43  1  0
  8 44  1  0
  8 45  1  0
 12 46  1  0
 13 47  1  0
 15 48  1  0
 16 49  1  0
 19 50  1  0
 20 51  1  0
 23 52  1  0
 23 53  1  0
 25 54  1  0
 25 55  1  0
 27 56  1  0
 28 57  1  0
 29 58  1  0
 30 59  1  0
 31 60  1  0
 34 61  1  0
M  END
>  <UniqueID>  (3) 
3

>  <SMILES>  (3) 
COCCN(C(=O)COC(=O)C=Cc1ccc(Cl)cc1)c1c(N)n(Cc2ccccc2)c(=O)[nH]c1=O

>  <Energy>  (3) 
80.35154496662092

>  <Genealogy>  (3) 
COCCN(C(=O)COC(=O)C=Cc1ccc(Cl)cc1)c1c(N)n(Cc2ccccc2)c(=O)[nH]c1=O (3D coordinates assigned)
COCCN(C(=O)COC(=O)C=Cc1ccc(Cl)cc1)c1c(N)n(Cc2ccccc2)c(=O)[nH]c1=O (optimized conformer: 80.35154496662092 kcal/mol)

>  <smiles>  (3) 
COCCN(C(=O)COC(=O)C=Cc1ccc(Cl)cc1)c1c(N)n(Cc2ccccc2)c(=O)[nH]c1=O

>  <score_type>  (3) 
oracle

>  <origin>  (3) 
adg

>  <m_score__min__energy>  (3) 
-8.1899999999999995

>  <m_primary>  (3) 
energy

$$$$
3:0
     RDKit          3D

 73 75  0  0  0  0  0  0  0  0999 V2000
   62.3650   31.6270   53.0820 N   0  0  0  0  0  0  0  0  0  0  0  0
   61.3330   32.4150   52.3970 C   0  0  2  0  0  0  0  0  0  0  0  0
   61.9330   33.7080   51.8060 C   0  0  0  0  0  0  0  0  0  0  0  0
   62.5190   33.5210   50.4270 C   0  0  0  0  0  0  0  0  0  0  0  0
   61.8390   33.9990   49.2950 C   0  0  0  0  0  0  0  0  0  0  0  0
   62.3790   33.8150   48.0190 C   0  0  0  0  0  0  0  0  0  0  0  0
   63.5990   33.1430   47.8610 C   0  0  0  0  0  0  0  0  0  0  0  0
   64.1450   32.9470   46.5930 O   0  0  0  0  0  0  0  0  0  0  0  0
   64.2770   32.6630   48.9860 C   0  0  0  0  0  0  0  0  0  0  0  0
   63.7420   32.8510   50.2630 C   0  0  0  0  0  0  0  0  0  0  0  0
   60.1360   32.6900   53.2800 C   0  0  0  0  0  0  0  0  0  0  0  0
   60.2650   32.6120   54.5320 O   0  0  0  0  0  0  0  0  0  0  0  0
   58.8730   33.0590   52.7120 N   0  0  0  0  0  0  0  0  0  0  0  0
   57.6890   32.2050   52.7530 C   0  0  0  0  0  0  0  0  0  0  0  0
   57.5770   31.3570   51.5130 C   0  0  0  0  0  0  0  0  0  0  0  0
   57.4050   30.1140   51.6220 O   0  0  0  0  0  0  0  0  0  0  0  0
   57.7640   31.9110   50.2040 N   0  0  0  0  0  0  0  0  0  0  0  0
   58.8950   32.7490   49.8070 C   0  0  0  0  0  0  0  0  0  0  0  0
   58.7800   33.1790   48.3670 C   0  0  0  0  0  0  0  0  0  0  0  0
   59.3130   34.2620   48.0040 O   0  0  0  0  0  0  0  0  0  0  0  0
   58.1040   32.3950   47.3700 N   0  0  0  0  0  0  0  0  0  0  0  0
   58.5880   31.2930   46.5270 C   0  0  1  0  0  0  0  0  0  0  0  0
   58.5300   29.9260   47.2370 C   0  0  0  0  0  0  0  0  0  0  0  0
   59.5950   29.8080   48.2990 C   0  0  0  0  0  0  0  0  0  0  0  0
   59.3640   29.0370   49.4510 C   0  0  0  0  0  0  0  0  0  0  0  0
   60.3320   28.9670   50.4580 C   0  0  0  0  0  0  0  0  0  0  0  0
   61.5310   29.6760   50.3300 C   0  0  0  0  0  0  0  0  0  0  0  0
   62.4890   29.6080   51.3330 O   0  0  0  0  0  0  0  0  0  0  0  0
   61.7660   30.4490   49.1880 C   0  0  0  0  0  0  0  0  0  0  0  0
   60.8030   30.5170   48.1780 C   0  0  0  0  0  0  0  0  0  0  0  0
   57.8920   31.2600   45.1930 C   0  0  0  0  0  0  0  0  0  0  0  0
   57.0080   32.1090   44.9000 O   0  0  0  0  0  0  0  0  0  0  0  0
   58.2050   30.2000   44.2820 N   0  0  0  0  0  0  0  0  0  0  0  0
   57.2230   29.3050   43.6830 C   0  0  1  0  0  0  0  0  0  0  0  0
   57.7900   27.8760   43.5880 C   0  0  0  0  0  0  0  0  0  0  0  0
   58.5940   27.5130   44.8120 C   0  0  0  0  0  0  0  0  0  0  0  0
   58.0280   26.7250   45.8270 C   0  0  0  0  0  0  0  0  0  0  0  0
   58.7850   26.3630   46.9450 C   0  0  0  0  0  0  0  0  0  0  0  0
   60.1150   26.7770   47.0540 C   0  0  0  0  0  0  0  0  0  0  0  0
   60.6910   27.5520   46.0430 C   0  0  0  0  0  0  0  0  0  0  0  0
   59.9350   27.9190   44.9250 C   0  0  0  0  0  0  0  0  0  0  0  0
   55.9810   29.3410   44.5250 C   0  0  0  0  0  0  0  0  0  0  0  0
   55.6740   28.3530   45.2440 O   0  0  0  0  0  0  0  0  0  0  0  0
   55.1580   30.4610   44.5120 O   0  0  0  0  0  0  0  0  0  0  0  0
   62.4250   30.6870   52.6270 H   0  0  0  0  0  0  0  0  0  0  0  0
   62.0960   31.4730   54.0810 H   0  0  0  0  0  0  0  0  0  0  0  0
   60.9561   31.8091   51.5598 H   0  0  0  0  0  0  0  0  0  0  0  0
   61.1382   34.4662   51.7473 H   0  0  0  0  0  0  0  0  0  0  0  0
   62.7545   34.0175   52.4689 H   0  0  0  0  0  0  0  0  0  0  0  0
   60.8776   34.5203   49.4130 H   0  0  0  0  0  0  0  0  0  0  0  0
   61.8454   34.1984   47.1368 H   0  0  0  0  0  0  0  0  0  0  0  0
   64.8460   32.2360   46.4230 H   0  0  0  0  0  0  0  0  0  0  0  0
   65.2347   32.1356   48.8652 H   0  0  0  0  0  0  0  0  0  0  0  0
   64.2813   32.4724   51.1438 H   0  0  0  0  0  0  0  0  0  0  0  0
   57.7534   31.5465   53.6318 H   0  0  0  0  0  0  0  0  0  0  0  0
   56.7999   32.8501   52.8115 H   0  0  0  0  0  0  0  0  0  0  0  0
   58.9202   33.6433   50.4470 H   0  0  0  0  0  0  0  0  0  0  0  0
   59.8184   32.1622   49.9211 H   0  0  0  0  0  0  0  0  0  0  0  0
   59.6522   31.4967   46.3372 H   0  0  0  0  0  0  0  0  0  0  0  0
   57.5423   29.8091   47.7069 H   0  0  0  0  0  0  0  0  0  0  0  0
   58.7026   29.1403   46.4868 H   0  0  0  0  0  0  0  0  0  0  0  0
   58.4181   28.4864   49.5611 H   0  0  0  0  0  0  0  0  0  0  0  0
   60.1501   28.3532   51.3525 H   0  0  0  0  0  0  0  0  0  0  0  0
   62.7101   31.0040   49.0851 H   0  0  0  0  0  0  0  0  0  0  0  0
   60.9910   31.1286   47.2833 H   0  0  0  0  0  0  0  0  0  0  0  0
   56.9821   29.6305   42.6602 H   0  0  0  0  0  0  0  0  0  0  0  0
   56.9551   27.1670   43.4866 H   0  0  0  0  0  0  0  0  0  0  0  0
   58.4556   27.8282   42.7135 H   0  0  0  0  0  0  0  0  0  0  0  0
   56.9835   26.3908   45.7419 H   0  0  0  0  0  0  0  0  0  0  0  0
   58.3331   25.7515   47.7399 H   0  0  0  0  0  0  0  0  0  0  0  0
   60.7089   26.4931   47.9353 H   0  0  0  0  0  0  0  0  0  0  0  0
   61.7396   27.8734   46.1269 H   0  0  0  0  0  0  0  0  0  0  0  0
   60.3917   28.5279   44.1308 H   0  0  0  0  0  0  0  0  0  0  0  0
  1  2  1  0
  2  3  1  0
  3  4  1  0
  4  5  2  0
  5  6  1  0
  6  7  2  0
  7  8  1  0
  7  9  1  0
  9 10  2  0
  2 11  1  0
 11 12  2  0
 11 13  1  0
 13 14  1  0
 14 15  1  0
 15 16  2  0
 15 17  1  0
 17 18  1  0
 18 19  1  0
 19 20  2  0
 19 21  1  0
 21 22  1  0
 22 23  1  0
 23 24  1  0
 24 25  2  0
 25 26  1  0
 26 27  2  0
 27 28  1  0
 27 29  1  0
 29 30  2  0
 22 31  1  0
 31 32  2  0
 31 33  1  0
 33 34  1  0
 34 35  1  0
 35 36  1  0
 36 37  2  0
 37 38  1  0
 38 39  2  0
 39 40  1  0
 40 41  2  0
 34 42  1  0
 42 43  2  0
 42 44  1  0
 10  4  1  0
 30 24  1  0
 41 36  1  0
  1 45  1  0
  1 46  1  0
  2 47  1  6
  3 48  1  0
  3 49  1  0
  5 50  1  0
  6 51  1  0
  8 52  1  0
  9 53  1  0
 10 54  1  0
 14 55  1  0
 14 56  1  0
 18 57  1  0
 18 58  1  0
 22 59  1  6
 23 60  1  0
 23 61  1  0
 25 62  1  0
 26 63  1  0
 29 64  1  0
 30 65  1  0
 34 66  1  6
 35 67  1  0
 35 68  1  0
 37 69  1  0
 38 70  1  0
 39 71  1  0
 40 72  1  0
 41 73  1  0
M  CHG  6  13  -1  17  -1  21  -1  28  -1  33  -1  44  -1
M  END
>  <UniqueID>  (4) 
4

>  <SMILES>  (4) 
N[C@H](Cc1ccc(O)cc1)C(=O)[N-]CC(=O)[N-]CC(=O)[N-][C@@H](Cc1ccc([O-])cc1)C(=O)[N-]C(Cc1ccccc1)C(=O)[O-]

>  <Energy>  (4) 
65.76636077599346

>  <Genealogy>  (4) 
NC(Cc1ccc(O)cc1)C(=O)[N-]CC(=O)[N-]CC(=O)[N-]C(Cc1ccc([O-])cc1)C(=O)[N-]C(Cc1ccccc1)C(=O)[O-] (protonated)
N[C@H](Cc1ccc(O)cc1)C(=O)[N-]CC(=O)[N-]CC(=O)[N-][C@@H](Cc1ccc([O-])cc1)C(=O)[N-]C(Cc1ccccc1)C(=O)[O-] (chirality)
N[C@H](Cc1ccc(O)cc1)C(=O)[N-]CC(=O)[N-]CC(=O)[N-][C@@H](Cc1ccc([O-])cc1)C(=O)[N-]C(Cc1ccccc1)C(=O)[O-] (3D coordinates assigned)
N[C@H](Cc1ccc(O)cc1)C(=O)[N-]CC(=O)[N-]CC(=O)[N-][C@@H](Cc1ccc([O-])cc1)C(=O)[N-]C(Cc1ccccc1)C(=O)[O-] (optimized conformer: 65.76636077599346 kcal/mol)

>  <smiles>  (4) 
NC(Cc1ccc(O)cc1)C(=O)NCC(=O)NCC(=O)NC(Cc1ccc(O)cc1)C(=O)NC(Cc1ccccc1)C(=O)O

>  <score_type>  (4) 
oracle

>  <origin>  (4) 
adg

>  <m_score__min__energy>  (4) 
-17.379999999999999

>  <m_primary>  (4) 
energy

$$$$
4:0
     RDKit          3D

 53 55  0  0  0  0  0  0  0  0999 V2000
   61.7370   32.0090   46.5610 H   0  0  0  0  0  0  0  0  0  0  0  0
   61.8560   32.9900   46.6420 O   0  0  0  0  0  0  0  0  0  0  0  0
   63.1650   33.1850   47.0940 C   0  0  0  0  0  0  0  0  0  0  0  0
   63.3794   34.2630   47.1370 H   0  0  0  0  0  0  0  0  0  0  0  0
   63.8647   32.6945   46.4012 H   0  0  0  0  0  0  0  0  0  0  0  0
   63.3260   32.5890   48.4660 C   0  0  0  0  0  0  0  0  0  0  0  0
   64.3082   32.1744   48.7371 H   0  0  0  0  0  0  0  0  0  0  0  0
   62.3370   32.5320   49.3860 C   0  0  0  0  0  0  0  0  0  0  0  0
   61.7110   33.7860   49.9510 C   0  0  0  0  0  0  0  0  0  0  0  0
   61.7323   33.7433   51.0500 H   0  0  0  0  0  0  0  0  0  0  0  0
   62.2761   34.6649   49.6072 H   0  0  0  0  0  0  0  0  0  0  0  0
   60.6689   33.8626   49.6072 H   0  0  0  0  0  0  0  0  0  0  0  0
   61.8650   31.1790   49.8790 C   0  0  0  0  0  0  0  0  0  0  0  0
   62.5622   30.4071   49.5211 H   0  0  0  0  0  0  0  0  0  0  0  0
   61.8356   31.2080   50.9782 H   0  0  0  0  0  0  0  0  0  0  0  0
   60.4540   30.8460   49.3740 C   0  0  0  0  0  0  0  0  0  0  0  0
   60.0039   30.0873   50.0310 H   0  0  0  0  0  0  0  0  0  0  0  0
   59.8468   31.7632   49.3831 H   0  0  0  0  0  0  0  0  0  0  0  0
   60.5090   30.3290   48.0100 N   0  0  0  0  0  0  0  0  0  0  0  0
   61.5790   30.3820   47.2350 N   0  0  0  0  0  0  0  0  0  0  0  0
   61.2710   30.0100   46.0000 N   0  0  0  0  0  0  0  0  0  0  0  0
   59.9550   29.7170   46.0010 C   0  0  0  0  0  0  0  0  0  0  0  0
   59.1570   29.4000   44.7710 C   0  0  0  0  0  0  0  0  0  0  0  0
   58.9697   30.3288   44.2122 H   0  0  0  0  0  0  0  0  0  0  0  0
   59.7266   28.6915   44.1516 H   0  0  0  0  0  0  0  0  0  0  0  0
   57.8690   28.7850   45.1330 N   0  0  0  0  0  0  0  0  0  0  0  0
   56.6410   29.5150   44.9310 C   0  0  0  0  0  0  0  0  0  0  0  0
   55.5360   28.9850   45.2320 O   0  0  0  0  0  0  0  0  0  0  0  0
   56.6730   30.8280   44.3540 N   0  0  0  0  0  0  0  0  0  0  0  0
   57.5310   31.9080   44.7420 C   0  0  0  0  0  0  0  0  0  0  0  0
   58.0850   32.7960   43.8000 C   0  0  0  0  0  0  0  0  0  0  0  0
   57.8832   32.6547   42.7279 H   0  0  0  0  0  0  0  0  0  0  0  0
   58.8910   33.8570   44.2240 C   0  0  0  0  0  0  0  0  0  0  0  0
   59.3279   34.5439   43.4842 H   0  0  0  0  0  0  0  0  0  0  0  0
   59.1430   34.0470   45.5860 C   0  0  0  0  0  0  0  0  0  0  0  0
   59.9290   35.0790   45.9860 F   0  0  0  0  0  0  0  0  0  0  0  0
   58.5720   33.1850   46.5300 C   0  0  0  0  0  0  0  0  0  0  0  0
   58.8660   33.4240   48.2450 Cl  0  0  0  0  0  0  0  0  0  0  0  0
   57.7620   32.1240   46.1070 C   0  0  0  0  0  0  0  0  0  0  0  0
   57.3041   31.4558   46.8511 H   0  0  0  0  0  0  0  0  0  0  0  0
   57.8280   27.4330   45.6350 C   0  0  0  0  0  0  0  0  0  0  0  0
   57.8320   27.1880   47.0190 C   0  0  0  0  0  0  0  0  0  0  0  0
   57.8661   28.0330   47.7225 H   0  0  0  0  0  0  0  0  0  0  0  0
   57.7930   25.8790   47.5090 C   0  0  0  0  0  0  0  0  0  0  0  0
   57.7962   25.6972   48.5939 H   0  0  0  0  0  0  0  0  0  0  0  0
   57.7500   24.8020   46.6200 C   0  0  0  0  0  0  0  0  0  0  0  0
   57.7130   23.5000   47.1060 O   0  0  0  0  0  0  0  0  0  0  0  0
   57.7410   25.0330   45.2410 C   0  0  0  0  0  0  0  0  0  0  0  0
   57.7056   24.1844   44.5419 H   0  0  0  0  0  0  0  0  0  0  0  0
   57.7770   26.3410   44.7500 C   0  0  0  0  0  0  0  0  0  0  0  0
   57.7654   26.5176   43.6643 H   0  0  0  0  0  0  0  0  0  0  0  0
   59.4640   29.9230   47.2700 C   0  0  0  0  0  0  0  0  0  0  0  0
   58.4270   29.7836   47.6093 H   0  0  0  0  0  0  0  0  0  0  0  0
  1  2  1  0
  2  3  1  0
  3  4  1  0
  3  5  1  0
  3  6  1  0
  6  7  1  0
  6  8  2  0
  8  9  1  0
  9 10  1  0
  9 11  1  0
  9 12  1  0
  8 13  1  0
 13 14  1  0
 13 15  1  0
 13 16  1  0
 16 17  1  0
 16 18  1  0
 16 19  1  0
 19 20  1  0
 20 21  2  0
 21 22  1  0
 22 23  1  0
 23 24  1  0
 23 25  1  0
 23 26  1  0
 26 27  1  0
 27 28  2  0
 27 29  1  0
 29 30  1  0
 30 31  2  0
 31 32  1  0
 31 33  1  0
 33 34  1  0
 33 35  2  0
 35 36  1  0
 35 37  1  0
 37 38  1  0
 37 39  2  0
 39 40  1  0
 26 41  1  0
 41 42  2  0
 42 43  1  0
 42 44  1  0
 44 45  1  0
 44 46  2  0
 46 47  1  0
 46 48  1  0
 48 49  1  0
 48 50  2  0
 50 51  1  0
 22 52  2  0
 52 53  1  0
 52 19  1  0
 39 30  1  0
 50 41  1  0
M  CHG  2  29  -1  47  -1
M  END
>  <UniqueID>  (5) 
5

>  <SMILES>  (5) 
C/C(=C\CO)CCn1cc(CN(C(=O)[N-]c2ccc(F)c(Cl)c2)c2ccc([O-])cc2)nn1

>  <Energy>  (5) 
86.44046969352723

>  <Genealogy>  (5) 
CC(=CCO)CCn1cc(CN(C(=O)[N-]c2ccc(F)c(Cl)c2)c2ccc([O-])cc2)nn1 (protonated)
C/C(=C\CO)CCn1cc(CN(C(=O)[N-]c2ccc(F)c(Cl)c2)c2ccc([O-])cc2)nn1 (cis-trans isomerization)
C/C(=C\CO)CCn1cc(CN(C(=O)[N-]c2ccc(F)c(Cl)c2)c2ccc([O-])cc2)nn1 (3D coordinates assigned)
C/C(=C\CO)CCn1cc(CN(C(=O)[N-]c2ccc(F)c(Cl)c2)c2ccc([O-])cc2)nn1 (optimized conformer: 86.44046969352723 kcal/mol)

>  <smiles>  (5) 
CC(=CCO)CCn1cc(CN(C(=O)Nc2ccc(F)c(Cl)c2)c2ccc(O)cc2)nn1

>  <score_type>  (5) 
oracle

>  <origin>  (5) 
adg

>  <m_score__min__energy>  (5) 
-11.609999999999999

>  <m_primary>  (5) 
energy

$$$$
5:0
     RDKit          3D

 42 44  0  0  0  0  0  0  0  0999 V2000
   57.6720   31.8100   43.3580 C   0  0  0  0  0  0  0  0  0  0  0  0
   57.5790   30.7900   44.3080 C   0  0  0  0  0  0  0  0  0  0  0  0
   57.9580   31.0250   45.6320 C   0  0  0  0  0  0  0  0  0  0  0  0
   58.4350   32.2890   46.0150 C   0  0  0  0  0  0  0  0  0  0  0  0
   58.8180   32.5370   47.3420 C   0  0  0  0  0  0  0  0  0  0  0  0
   59.3010   33.8050   47.7190 C   0  0  0  0  0  0  0  0  0  0  0  0
   59.7020   34.1080   49.0320 O   0  0  0  0  0  0  0  0  0  0  0  0
   59.3610   33.3600   50.2000 C   0  0  0  0  0  0  0  0  0  0  0  0
   60.4540   33.5050   51.2670 C   0  0  0  0  0  0  0  0  0  0  0  0
   61.8670   33.0720   50.7990 C   0  0  0  0  0  0  0  0  0  0  0  0
   62.1210   33.0610   49.3310 N   0  0  0  0  0  0  0  0  0  0  0  0
   62.1360   31.7140   48.7230 C   0  0  0  0  0  0  0  0  0  0  0  0
   62.2420   31.8160   47.1820 C   0  0  0  0  0  0  0  0  0  0  0  0
   62.6810   33.0890   46.7360 O   0  0  0  0  0  0  0  0  0  0  0  0
   63.7770   33.5250   47.5140 C   0  0  0  0  0  0  0  0  0  0  0  0
   63.3220   33.8450   48.9520 C   0  0  0  0  0  0  0  0  0  0  0  0
   59.3830   34.8200   46.7580 C   0  0  0  0  0  0  0  0  0  0  0  0
   59.0030   34.5840   45.4350 C   0  0  0  0  0  0  0  0  0  0  0  0
   58.5280   33.3230   45.0520 C   0  0  0  0  0  0  0  0  0  0  0  0
   58.1440   33.0730   43.7250 C   0  0  0  0  0  0  0  0  0  0  0  0
   57.3725   31.6182   42.3171 H   0  0  0  0  0  0  0  0  0  0  0  0
   57.2060   29.7982   44.0125 H   0  0  0  0  0  0  0  0  0  0  0  0
   57.8826   30.2182   46.3760 H   0  0  0  0  0  0  0  0  0  0  0  0
   58.7405   31.7362   48.0922 H   0  0  0  0  0  0  0  0  0  0  0  0
   58.4084   33.7334   50.6040 H   0  0  0  0  0  0  0  0  0  0  0  0
   59.2666   32.2982   49.9284 H   0  0  0  0  0  0  0  0  0  0  0  0
   60.5007   34.5613   51.5704 H   0  0  0  0  0  0  0  0  0  0  0  0
   60.1774   32.8335   52.0932 H   0  0  0  0  0  0  0  0  0  0  0  0
   62.5931   33.7605   51.2560 H   0  0  0  0  0  0  0  0  0  0  0  0
   61.9617   32.0219   51.1125 H   0  0  0  0  0  0  0  0  0  0  0  0
   61.3030   33.5630   48.9050 H   0  0  0  0  0  0  0  0  0  0  0  0
   62.9994   31.1522   49.1089 H   0  0  0  0  0  0  0  0  0  0  0  0
   61.2005   31.1964   48.9818 H   0  0  0  0  0  0  0  0  0  0  0  0
   62.9555   31.0567   46.8294 H   0  0  0  0  0  0  0  0  0  0  0  0
   61.2334   31.6559   46.7732 H   0  0  0  0  0  0  0  0  0  0  0  0
   64.5391   32.7323   47.5429 H   0  0  0  0  0  0  0  0  0  0  0  0
   64.1960   34.4358   47.0613 H   0  0  0  0  0  0  0  0  0  0  0  0
   64.1397   33.6042   49.6473 H   0  0  0  0  0  0  0  0  0  0  0  0
   63.0659   34.9136   49.0025 H   0  0  0  0  0  0  0  0  0  0  0  0
   59.7511   35.8151   47.0485 H   0  0  0  0  0  0  0  0  0  0  0  0
   59.0769   35.3910   44.6912 H   0  0  0  0  0  0  0  0  0  0  0  0
   58.2148   33.8726   42.9729 H   0  0  0  0  0  0  0  0  0  0  0  0
  1  2  2  0
  2  3  1  0
  3  4  2  0
  4  5  1  0
  5  6  2  0
  6  7  1  0
  7  8  1  0
  8  9  1  0
  9 10  1  0
 10 11  1  0
 11 12  1  0
 12 13  1  0
 13 14  1  0
 14 15  1  0
 15 16  1  0
  6 17  1  0
 17 18  2  0
 18 19  1  0
 19 20  2  0
 20  1  1  0
 19  4  1  0
 16 11  1  0
  1 21  1  0
  2 22  1  0
  3 23  1  0
  5 24  1  0
  8 25  1  0
  8 26  1  0
  9 27  1  0
  9 28  1  0
 10 29  1  0
 10 30  1  0
 11 31  1  0
 12 32  1  0
 12 33  1  0
 13 34  1  0
 13 35  1  0
 15 36  1  0
 15 37  1  0
 16 38  1  0
 16 39  1  0
 17 40  1  0
 18 41  1  0
 20 42  1  0
M  CHG  1  11   1
M  END
>  <UniqueID>  (6) 
6

>  <SMILES>  (6) 
c1ccc2cc(OCCC[NH+]3CCOCC3)ccc2c1

>  <Energy>  (6) 
60.43783172551127

>  <Genealogy>  (6) 
c1ccc2cc(OCCC[NH+]3CCOCC3)ccc2c1 (protonated)
c1ccc2cc(OCCC[NH+]3CCOCC3)ccc2c1 (3D coordinates assigned)
c1ccc2cc(OCCC[NH+]3CCOCC3)ccc2c1 (nonaromatic ring conformer: 60.43783172551127 kcal/mol)

>  <smiles>  (6) 
c1ccc2cc(OCCCN3CCOCC3)ccc2c1

>  <score_type>  (6) 
oracle

>  <origin>  (6) 
adg

>  <m_score__min__energy>  (6) 
-5.7000000000000002

>  <m_primary>  (6) 
energy

$$$$
6:0
     RDKit          3D

 53 56  0  0  0  0  0  0  0  0999 V2000
   59.8140   26.6680   48.8430 O   0  0  0  0  0  0  0  0  0  0  0  0
   59.1200   26.8810   47.8130 C   0  0  0  0  0  0  0  0  0  0  0  0
   58.1790   25.8200   47.3210 C   0  0  0  0  0  0  0  0  0  0  0  0
   56.9080   26.4480   46.7440 C   0  0  0  0  0  0  0  0  0  0  0  0
   56.7350   26.0340   45.3530 N   0  0  0  0  0  0  0  0  0  0  0  0
   57.9360   26.7830   44.3500 S   0  0  0  0  0  0  0  0  0  0  0  0
   59.3000   26.4390   44.8720 O   0  0  0  0  0  0  0  0  0  0  0  0
   57.8220   26.2760   42.9370 O   0  0  0  0  0  0  0  0  0  0  0  0
   57.7230   28.5300   44.3920 C   0  0  0  0  0  0  0  0  0  0  0  0
   56.4410   29.0890   44.4290 C   0  0  0  0  0  0  0  0  0  0  0  0
   56.2790   30.4770   44.4850 C   0  0  0  0  0  0  0  0  0  0  0  0
   57.4040   31.3230   44.4950 C   0  0  0  0  0  0  0  0  0  0  0  0
   57.2850   32.7180   44.5800 O   0  0  0  0  0  0  0  0  0  0  0  0
   58.0730   33.5570   45.3790 C   0  0  0  0  0  0  0  0  0  0  0  0
   58.8970   34.5530   44.8220 C   0  0  0  0  0  0  0  0  0  0  0  0
   59.6690   35.3710   45.6530 C   0  0  0  0  0  0  0  0  0  0  0  0
   59.6390   35.1890   47.0380 C   0  0  0  0  0  0  0  0  0  0  0  0
   58.8400   34.1850   47.5920 C   0  0  0  0  0  0  0  0  0  0  0  0
   58.0650   33.3670   46.7650 C   0  0  0  0  0  0  0  0  0  0  0  0
   58.6850   30.7570   44.4810 C   0  0  0  0  0  0  0  0  0  0  0  0
   58.8460   29.3690   44.4310 C   0  0  0  0  0  0  0  0  0  0  0  0
   59.2110   28.1350   47.1190 N   0  0  0  0  0  0  0  0  0  0  0  0
   59.7090   29.3490   47.7070 C   0  0  0  0  0  0  0  0  0  0  0  0
   59.1500   29.8050   48.9110 C   0  0  0  0  0  0  0  0  0  0  0  0
   59.6390   30.9560   49.5340 C   0  0  0  0  0  0  0  0  0  0  0  0
   60.7080   31.6630   48.9630 C   0  0  0  0  0  0  0  0  0  0  0  0
   61.2170   32.8130   49.5870 C   0  0  0  0  0  0  0  0  0  0  0  0
   62.2940   33.5010   49.0200 C   0  0  0  0  0  0  0  0  0  0  0  0
   62.8630   33.0540   47.8260 C   0  0  0  0  0  0  0  0  0  0  0  0
   62.3620   31.9130   47.1910 C   0  0  0  0  0  0  0  0  0  0  0  0
   61.2880   31.2080   47.7550 C   0  0  0  0  0  0  0  0  0  0  0  0
   60.7900   30.0490   47.1400 C   0  0  0  0  0  0  0  0  0  0  0  0
   58.6778   25.2302   46.5378 H   0  0  0  0  0  0  0  0  0  0  0  0
   57.9012   25.1743   48.1671 H   0  0  0  0  0  0  0  0  0  0  0  0
   56.0391   26.1192   47.3330 H   0  0  0  0  0  0  0  0  0  0  0  0
   56.9940   27.5438   46.7874 H   0  0  0  0  0  0  0  0  0  0  0  0
   55.5571   28.4343   44.4140 H   0  0  0  0  0  0  0  0  0  0  0  0
   55.2682   30.9094   44.5214 H   0  0  0  0  0  0  0  0  0  0  0  0
   58.9338   34.6882   43.7310 H   0  0  0  0  0  0  0  0  0  0  0  0
   60.3005   36.1585   45.2158 H   0  0  0  0  0  0  0  0  0  0  0  0
   60.2435   35.8351   47.6915 H   0  0  0  0  0  0  0  0  0  0  0  0
   58.8210   34.0381   48.6820 H   0  0  0  0  0  0  0  0  0  0  0  0
   57.4466   32.5710   47.2055 H   0  0  0  0  0  0  0  0  0  0  0  0
   59.5705   31.4089   44.5095 H   0  0  0  0  0  0  0  0  0  0  0  0
   59.8563   28.9340   44.4222 H   0  0  0  0  0  0  0  0  0  0  0  0
   58.9240   28.1560   46.1150 H   0  0  0  0  0  0  0  0  0  0  0  0
   58.3179   29.2502   49.3690 H   0  0  0  0  0  0  0  0  0  0  0  0
   59.1858   31.3080   50.4724 H   0  0  0  0  0  0  0  0  0  0  0  0
   60.7675   33.1735   50.5240 H   0  0  0  0  0  0  0  0  0  0  0  0
   62.6943   34.3974   49.5162 H   0  0  0  0  0  0  0  0  0  0  0  0
   63.7083   33.6011   47.3831 H   0  0  0  0  0  0  0  0  0  0  0  0
   62.8107   31.5678   46.2479 H   0  0  0  0  0  0  0  0  0  0  0  0
   61.2479   29.6853   46.2083 H   0  0  0  0  0  0  0  0  0  0  0  0
  1  2  2  0
  2  3  1  0
  3  4  1  0
  4  5  1  0
  5  6  1  0
  6  7  2  0
  6  8  2  0
  6  9  1  0
  9 10  2  0
 10 11  1  0
 11 12  2  0
 12 13  1  0
 13 14  1  0
 14 15  2  0
 15 16  1  0
 16 17  2  0
 17 18  1  0
 18 19  2  0
 12 20  1  0
 20 21  2  0
  2 22  1  0
 22 23  1  0
 23 24  2  0
 24 25  1  0
 25 26  2  0
 26 27  1  0
 27 28  2  0
 28 29  1  0
 29 30  2  0
 30 31  1  0
 31 32  2  0
 21  9  1  0
 32 23  1  0
 19 14  1  0
 31 26  1  0
  3 33  1  0
  3 34  1  0
  4 35  1  0
  4 36  1  0
 10 37  1  0
 11 38  1  0
 15 39  1  0
 16 40  1  0
 17 41  1  0
 18 42  1  0
 19 43  1  0
 20 44  1  0
 21 45  1  0
 22 46  1  0
 24 47  1  0
 25 48  1  0
 27 49  1  0
 28 50  1  0
 29 51  1  0
 30 52  1  0
 32 53  1  0
M  CHG  1   5  -1
M  END
>  <UniqueID>  (7) 
7

>  <SMILES>  (7) 
O=C(CC[N-]S(=O)(=O)c1ccc(Oc2ccccc2)cc1)Nc1ccc2ccccc2c1

>  <Energy>  (7) 
60.277977645831314

>  <Genealogy>  (7) 
O=C(CC[N-]S(=O)(=O)c1ccc(Oc2ccccc2)cc1)Nc1ccc2ccccc2c1 (protonated)
O=C(CC[N-]S(=O)(=O)c1ccc(Oc2ccccc2)cc1)Nc1ccc2ccccc2c1 (3D coordinates assigned)
O=C(CC[N-]S(=O)(=O)c1ccc(Oc2ccccc2)cc1)Nc1ccc2ccccc2c1 (optimized conformer: 60.277977645831314 kcal/mol)

>  <smiles>  (7) 
O=C(CCNS(=O)(=O)c1ccc(Oc2ccccc2)cc1)Nc1ccc2ccccc2c1

>  <score_type>  (7) 
oracle

>  <origin>  (7) 
adg

>  <m_score__min__energy>  (7) 
-11.27

>  <m_primary>  (7) 
energy

$$$$
7:0
     RDKit          3D

 39 41  0  0  0  0  0  0  0  0999 V2000
   59.1352   29.0445   43.1317 H   0  0  0  0  0  0  0  0  0  0  0  0
   58.6770   28.9590   44.1280 C   0  0  0  0  0  0  0  0  0  0  0  0
   59.4310   28.4690   45.1230 C   0  0  0  0  0  0  0  0  0  0  0  0
   59.9489   27.5155   44.9421 H   0  0  0  0  0  0  0  0  0  0  0  0
   59.6230   29.1070   46.4450 C   0  0  0  0  0  0  0  0  0  0  0  0
   58.7500   28.8620   47.5200 C   0  0  0  0  0  0  0  0  0  0  0  0
   57.9286   28.1399   47.4023 H   0  0  0  0  0  0  0  0  0  0  0  0
   58.9180   29.5290   48.7370 C   0  0  0  0  0  0  0  0  0  0  0  0
   58.2309   29.3273   49.5720 H   0  0  0  0  0  0  0  0  0  0  0  0
   59.9590   30.4540   48.8970 C   0  0  0  0  0  0  0  0  0  0  0  0
   60.1130   31.2020   50.1880 C   0  0  0  0  0  0  0  0  0  0  0  0
   59.9706   30.5106   51.0316 H   0  0  0  0  0  0  0  0  0  0  0  0
   61.1203   31.6409   50.2396 H   0  0  0  0  0  0  0  0  0  0  0  0
   59.3609   32.0031   50.2396 H   0  0  0  0  0  0  0  0  0  0  0  0
   60.8060   30.7340   47.8130 C   0  0  0  0  0  0  0  0  0  0  0  0
   61.6067   31.4803   47.9221 H   0  0  0  0  0  0  0  0  0  0  0  0
   60.6360   30.0680   46.5950 C   0  0  0  0  0  0  0  0  0  0  0  0
   61.3001   30.2984   45.7489 H   0  0  0  0  0  0  0  0  0  0  0  0
   57.2780   29.3900   44.2790 C   0  0  0  0  0  0  0  0  0  0  0  0
   56.3390   28.6860   44.9430 N   0  0  0  0  0  0  0  0  0  0  0  0
   55.1890   29.3400   44.8630 N   0  0  0  0  0  0  0  0  0  0  0  0
   55.3810   30.4630   44.1440 C   0  0  0  0  0  0  0  0  0  0  0  0
   54.6101   31.2135   43.9149 H   0  0  0  0  0  0  0  0  0  0  0  0
   56.6960   30.5210   43.7420 C   0  0  0  0  0  0  0  0  0  0  0  0
   57.4640   31.8770   42.9230 S   0  0  0  0  0  0  0  0  0  0  0  0
   56.7250   32.1360   41.6420 O   0  0  0  0  0  0  0  0  0  0  0  0
   58.8970   31.5760   42.5870 O   0  0  0  0  0  0  0  0  0  0  0  0
   57.3510   33.2890   43.9260 N   0  0  0  0  0  0  0  0  0  0  0  0
   58.0840   33.4850   45.1410 C   0  0  0  0  0  0  0  0  0  0  0  0
   59.2450   34.2690   45.1100 C   0  0  0  0  0  0  0  0  0  0  0  0
   59.5958   34.6893   44.1559 H   0  0  0  0  0  0  0  0  0  0  0  0
   59.9600   34.5200   46.2850 C   0  0  0  0  0  0  0  0  0  0  0  0
   60.8608   35.1506   46.2558 H   0  0  0  0  0  0  0  0  0  0  0  0
   59.5310   33.9700   47.4980 C   0  0  0  0  0  0  0  0  0  0  0  0
   60.4140   34.3030   48.9760 Cl  0  0  0  0  0  0  0  0  0  0  0  0
   58.3950   33.1560   47.5300 C   0  0  0  0  0  0  0  0  0  0  0  0
   58.0652   32.7100   48.4799 H   0  0  0  0  0  0  0  0  0  0  0  0
   57.6770   32.9080   46.3550 C   0  0  0  0  0  0  0  0  0  0  0  0
   56.7898   32.2582   46.3822 H   0  0  0  0  0  0  0  0  0  0  0  0
  1  2  1  0
  2  3  2  0
  3  4  1  0
  3  5  1  0
  5  6  2  0
  6  7  1  0
  6  8  1  0
  8  9  1  0
  8 10  2  0
 10 11  1  0
 11 12  1  0
 11 13  1  0
 11 14  1  0
 10 15  1  0
 15 16  1  0
 15 17  2  0
 17 18  1  0
  2 19  1  0
 19 20  2  0
 20 21  1  0
 21 22  1  0
 22 23  1  0
 22 24  2  0
 24 25  1  0
 25 26  2  0
 25 27  2  0
 25 28  1  0
 28 29  1  0
 29 30  2  0
 30 31  1  0
 30 32  1  0
 32 33  1  0
 32 34  2  0
 34 35  1  0
 34 36  1  0
 36 37  1  0
 36 38  2  0
 38 39  1  0
 17  5  1  0
 24 19  1  0
 38 29  1  0
M  CHG  2  21  -1  28  -1
M  END
>  <UniqueID>  (8) 
8

>  <SMILES>  (8) 
Cc1ccc(/C=C\c2n[n-]cc2S(=O)(=O)[N-]c2ccc(Cl)cc2)cc1

>  <Energy>  (8) 
81.3667950593974

>  <Genealogy>  (8) 
Cc1ccc(C=Cc2n[n-]cc2S(=O)(=O)[N-]c2ccc(Cl)cc2)cc1 (protonated)
Cc1ccc(/C=C\c2n[n-]cc2S(=O)(=O)[N-]c2ccc(Cl)cc2)cc1 (cis-trans isomerization)
Cc1ccc(/C=C\c2n[n-]cc2S(=O)(=O)[N-]c2ccc(Cl)cc2)cc1 (3D coordinates assigned)
Cc1ccc(/C=C\c2n[n-]cc2S(=O)(=O)[N-]c2ccc(Cl)cc2)cc1 (optimized conformer: 81.3667950593974 kcal/mol)

>  <smiles>  (8) 
Cc1ccc(C=Cc2n[nH]cc2S(=O)(=O)Nc2ccc(Cl)cc2)cc1

>  <score_type>  (8) 
oracle

>  <origin>  (8) 
adg

>  <m_score__min__energy>  (8) 
-11.279999999999999

>  <m_primary>  (8) 
energy

$$$$
8:0
     RDKit          3D

 39 43  0  0  0  0  0  0  0  0999 V2000
   59.6310   26.7420   46.8690 O   0  0  0  0  0  0  0  0  0  0  0  0
   58.5870   27.2770   46.4090 C   0  0  0  0  0  0  0  0  0  0  0  0
   57.4140   26.5810   46.4570 N   0  0  0  0  0  0  0  0  0  0  0  0
   56.2660   27.0970   45.9500 C   0  0  0  0  0  0  0  0  0  0  0  0
   55.1990   26.4300   45.9890 O   0  0  0  0  0  0  0  0  0  0  0  0
   56.2930   28.3370   45.4050 N   0  0  0  0  0  0  0  0  0  0  0  0
   55.2650   28.9690   44.8650 N   0  0  0  0  0  0  0  0  0  0  0  0
   55.7130   30.1760   44.4660 C   0  0  0  0  0  0  0  0  0  0  0  0
   57.0590   30.3060   44.7750 C   0  0  0  0  0  0  0  0  0  0  0  0
   57.7970   31.5730   44.6920 C   0  0  0  0  0  0  0  0  0  0  0  0
   58.0070   32.2550   43.5410 N   0  0  0  0  0  0  0  0  0  0  0  0
   58.5950   33.4130   43.8260 N   0  0  0  0  0  0  0  0  0  0  0  0
   58.7350   33.4740   45.1610 C   0  0  0  0  0  0  0  0  0  0  0  0
   59.2730   34.5120   45.9180 C   0  0  0  0  0  0  0  0  0  0  0  0
   59.2800   34.3660   47.3190 C   0  0  0  0  0  0  0  0  0  0  0  0
   58.7480   33.2010   47.9210 C   0  0  0  0  0  0  0  0  0  0  0  0
   58.7570   33.0730   49.3050 O   0  0  0  0  0  0  0  0  0  0  0  0
   58.2070   32.1720   47.1260 C   0  0  0  0  0  0  0  0  0  0  0  0
   58.2320   32.3480   45.7440 C   0  0  0  0  0  0  0  0  0  0  0  0
   57.4070   29.0920   45.3640 C   0  0  0  0  0  0  0  0  0  0  0  0
   58.6350   28.5730   45.8360 C   0  0  0  0  0  0  0  0  0  0  0  0
   59.9760   29.2360   45.5970 C   0  0  0  0  0  0  0  0  0  0  0  0
   60.4630   29.9060   46.8550 C   0  0  0  0  0  0  0  0  0  0  0  0
   59.9410   29.5400   48.1070 C   0  0  0  0  0  0  0  0  0  0  0  0
   60.4130   30.1490   49.2740 C   0  0  0  0  0  0  0  0  0  0  0  0
   61.4130   31.1230   49.2010 C   0  0  0  0  0  0  0  0  0  0  0  0
   61.9410   31.4890   47.9600 C   0  0  0  0  0  0  0  0  0  0  0  0
   61.4710   30.8830   46.7920 C   0  0  0  0  0  0  0  0  0  0  0  0
   55.1019   30.9439   43.9691 H   0  0  0  0  0  0  0  0  0  0  0  0
   59.6786   35.4149   45.4382 H   0  0  0  0  0  0  0  0  0  0  0  0
   59.7018   35.1628   47.9493 H   0  0  0  0  0  0  0  0  0  0  0  0
   57.7811   31.2644   47.5786 H   0  0  0  0  0  0  0  0  0  0  0  0
   60.7064   28.4745   45.2861 H   0  0  0  0  0  0  0  0  0  0  0  0
   59.8628   29.9956   44.8095 H   0  0  0  0  0  0  0  0  0  0  0  0
   59.1573   28.7707   48.1696 H   0  0  0  0  0  0  0  0  0  0  0  0
   59.9968   29.8612   50.2507 H   0  0  0  0  0  0  0  0  0  0  0  0
   61.7840   31.6010   50.1197 H   0  0  0  0  0  0  0  0  0  0  0  0
   62.7279   32.2554   47.9026 H   0  0  0  0  0  0  0  0  0  0  0  0
   61.8923   31.1723   45.8179 H   0  0  0  0  0  0  0  0  0  0  0  0
  1  2  2  0
  2  3  1  0
  3  4  1  0
  4  5  2  0
  4  6  1  0
  6  7  1  0
  7  8  1  0
  8  9  2  0
  9 10  1  0
 10 11  1  0
 11 12  1  0
 12 13  2  0
 13 14  1  0
 14 15  2  0
 15 16  1  0
 16 17  1  0
 16 18  2  0
 18 19  1  0
  9 20  1  0
 20 21  2  0
 21 22  1  0
 22 23  1  0
 23 24  2  0
 24 25  1  0
 25 26  2  0
 26 27  1  0
 27 28  2  0
 21  2  1  0
 28 23  1  0
 20  6  1  0
 19 10  2  0
 19 13  1  0
  8 29  1  0
 14 30  1  0
 15 31  1  0
 18 32  1  0
 22 33  1  0
 22 34  1  0
 24 35  1  0
 25 36  1  0
 26 37  1  0
 27 38  1  0
 28 39  1  0
M  CHG  4   3  -1   7  -1  11  -1  17  -1
M  END
>  <UniqueID>  (9) 
9

>  <SMILES>  (9) 
O=c1[n-]c(=O)n2[n-]cc(-c3[n-]nc4ccc([O-])cc34)c2c1Cc1ccccc1

>  <Energy>  (9) 
130.63812666121552

>  <Genealogy>  (9) 
O=c1[n-]c(=O)n2[n-]cc(-c3[n-]nc4ccc([O-])cc34)c2c1Cc1ccccc1 (protonated)
O=c1[n-]c(=O)n2[n-]cc(-c3[n-]nc4ccc([O-])cc34)c2c1Cc1ccccc1 (3D coordinates assigned)
O=c1[n-]c(=O)n2[n-]cc(-c3[n-]nc4ccc([O-])cc34)c2c1Cc1ccccc1 (optimized conformer: 130.63812666121552 kcal/mol)

>  <smiles>  (9) 
O=c1[nH]c(=O)n2[nH]cc(-c3[nH]nc4ccc(O)cc34)c2c1Cc1ccccc1

>  <score_type>  (9) 
oracle

>  <origin>  (9) 
adg

>  <m_score__min__energy>  (9) 
-14.720000000000001

>  <m_primary>  (9) 
energy

$$$$
9:0
     RDKit          3D

 51 54  0  0  0  0  0  0  0  0999 V2000
   57.2180   22.5870   48.4410 O   0  0  0  0  0  0  0  0  0  0  0  0
   56.5460   23.3340   47.6830 C   0  0  0  0  0  0  0  0  0  0  0  0
   55.6780   22.7350   46.7160 N   0  0  0  0  0  0  0  0  0  0  0  0
   55.9620   22.5500   45.3210 C   0  0  0  0  0  0  0  0  0  0  0  0
   56.6040   21.3720   44.9150 C   0  0  0  0  0  0  0  0  0  0  0  0
   56.9150   21.1650   43.5670 C   0  0  0  0  0  0  0  0  0  0  0  0
   56.6030   22.1420   42.6190 C   0  0  0  0  0  0  0  0  0  0  0  0
   55.9880   23.3320   43.0180 C   0  0  0  0  0  0  0  0  0  0  0  0
   55.6740   23.5420   44.3650 C   0  0  0  0  0  0  0  0  0  0  0  0
   56.6440   24.7600   47.7910 N   0  0  0  0  0  0  0  0  0  0  0  0
   57.1400   25.6690   46.7970 C   0  0  0  0  0  0  0  0  0  0  0  0
   58.4480   25.5760   46.2880 C   0  0  0  0  0  0  0  0  0  0  0  0
   58.8930   26.4900   45.3280 C   0  0  0  0  0  0  0  0  0  0  0  0
   58.0500   27.5140   44.8880 C   0  0  0  0  0  0  0  0  0  0  0  0
   56.7590   27.6480   45.4270 C   0  0  0  0  0  0  0  0  0  0  0  0
   55.8600   28.6780   44.9950 N   0  0  0  0  0  0  0  0  0  0  0  0
   56.2110   29.8410   44.2380 C   0  0  0  0  0  0  0  0  0  0  0  0
   56.4320   29.7210   43.0050 O   0  0  0  0  0  0  0  0  0  0  0  0
   56.2020   31.1370   44.8510 N   0  0  0  0  0  0  0  0  0  0  0  0
   57.3470   31.9120   45.2340 C   0  0  0  0  0  0  0  0  0  0  0  0
   57.3850   33.2690   44.8870 C   0  0  0  0  0  0  0  0  0  0  0  0
   58.4720   34.0660   45.2580 C   0  0  0  0  0  0  0  0  0  0  0  0
   59.5260   33.5200   46.0100 C   0  0  0  0  0  0  0  0  0  0  0  0
   60.6420   34.2810   46.3870 O   0  0  0  0  0  0  0  0  0  0  0  0
   61.6700   33.8500   47.2390 C   0  0  0  0  0  0  0  0  0  0  0  0
   61.4420   33.8470   48.6210 C   0  0  0  0  0  0  0  0  0  0  0  0
   62.4470   33.4380   49.5030 C   0  0  0  0  0  0  0  0  0  0  0  0
   63.6930   33.0410   49.0090 C   0  0  0  0  0  0  0  0  0  0  0  0
   63.9360   33.0590   47.6330 C   0  0  0  0  0  0  0  0  0  0  0  0
   62.9330   33.4670   46.7490 C   0  0  0  0  0  0  0  0  0  0  0  0
   59.4870   32.1660   46.3590 C   0  0  0  0  0  0  0  0  0  0  0  0
   58.4010   31.3670   45.9880 C   0  0  0  0  0  0  0  0  0  0  0  0
   56.3100   26.7120   46.3690 C   0  0  0  0  0  0  0  0  0  0  0  0
   56.8647   20.6062   45.6604 H   0  0  0  0  0  0  0  0  0  0  0  0
   57.4058   20.2319   43.2533 H   0  0  0  0  0  0  0  0  0  0  0  0
   56.8413   21.9749   41.5582 H   0  0  0  0  0  0  0  0  0  0  0  0
   55.7505   24.1045   42.2718 H   0  0  0  0  0  0  0  0  0  0  0  0
   55.2009   24.4846   44.6777 H   0  0  0  0  0  0  0  0  0  0  0  0
   59.1216   24.7833   46.6456 H   0  0  0  0  0  0  0  0  0  0  0  0
   59.9099   26.4027   44.9178 H   0  0  0  0  0  0  0  0  0  0  0  0
   58.3980   28.2175   44.1173 H   0  0  0  0  0  0  0  0  0  0  0  0
   56.5533   33.7105   44.3184 H   0  0  0  0  0  0  0  0  0  0  0  0
   58.5023   35.1245   44.9601 H   0  0  0  0  0  0  0  0  0  0  0  0
   60.4665   34.1683   49.0148 H   0  0  0  0  0  0  0  0  0  0  0  0
   62.2570   33.4286   50.5864 H   0  0  0  0  0  0  0  0  0  0  0  0
   64.4816   32.7147   49.7029 H   0  0  0  0  0  0  0  0  0  0  0  0
   64.9183   32.7516   47.2448 H   0  0  0  0  0  0  0  0  0  0  0  0
   63.1311   33.4889   45.6672 H   0  0  0  0  0  0  0  0  0  0  0  0
   60.3177   31.7260   46.9302 H   0  0  0  0  0  0  0  0  0  0  0  0
   58.3713   30.3088   46.2870 H   0  0  0  0  0  0  0  0  0  0  0  0
   55.2922   26.7982   46.7772 H   0  0  0  0  0  0  0  0  0  0  0  0
  1  2  2  0
  2  3  1  0
  3  4  1  0
  4  5  2  0
  5  6  1  0
  6  7  2  0
  7  8  1  0
  8  9  2  0
  2 10  1  0
 10 11  1  0
 11 12  2  0
 12 13  1  0
 13 14  2  0
 14 15  1  0
 15 16  1  0
 16 17  1  0
 17 18  2  0
 17 19  1  0
 19 20  1  0
 20 21  2  0
 21 22  1  0
 22 23  2  0
 23 24  1  0
 24 25  1  0
 25 26  2  0
 26 27  1  0
 27 28  2  0
 28 29  1  0
 29 30  2  0
 23 31  1  0
 31 32  2  0
 15 33  2  0
  9  4  1  0
 33 11  1  0
 32 20  1  0
 30 25  1  0
  5 34  1  0
  6 35  1  0
  7 36  1  0
  8 37  1  0
  9 38  1  0
 12 39  1  0
 13 40  1  0
 14 41  1  0
 21 42  1  0
 22 43  1  0
 26 44  1  0
 27 45  1  0
 28 46  1  0
 29 47  1  0
 30 48  1  0
 31 49  1  0
 32 50  1  0
 33 51  1  0
M  CHG  4   3  -1  10  -1  16  -1  19  -1
M  END
>  <UniqueID>  (10) 
10

>  <SMILES>  (10) 
O=C([N-]c1ccccc1)[N-]c1cccc([N-]C(=O)[N-]c2ccc(Oc3ccccc3)cc2)c1

>  <Energy>  (10) 
76.17804724847124

>  <Genealogy>  (10) 
O=C([N-]c1ccccc1)[N-]c1cccc([N-]C(=O)[N-]c2ccc(Oc3ccccc3)cc2)c1 (protonated)
O=C([N-]c1ccccc1)[N-]c1cccc([N-]C(=O)[N-]c2ccc(Oc3ccccc3)cc2)c1 (3D coordinates assigned)
O=C([N-]c1ccccc1)[N-]c1cccc([N-]C(=O)[N-]c2ccc(Oc3ccccc3)cc2)c1 (optimized conformer: 76.17804724847124 kcal/mol)

>  <smiles>  (10) 
O=C(Nc1ccccc1)Nc1cccc(NC(=O)Nc2ccc(Oc3ccccc3)cc2)c1

>  <score_type>  (10) 
oracle

>  <origin>  (10) 
adg

>  <m_score__min__energy>  (10) 
-16.260000000000002

>  <m_primary>  (10) 
energy

$$$$
10:0
     RDKit          3D

 47 50  0  0  0  0  0  0  0  0999 V2000
   57.4530   26.5320   47.4820 O   0  0  0  0  0  0  0  0  0  0  0  0
   57.0160   26.6110   46.0450 S   0  0  0  0  0  0  0  0  0  0  0  0
   55.5410   26.3180   45.9910 O   0  0  0  0  0  0  0  0  0  0  0  0
   57.3080   28.2420   45.4370 C   0  0  0  0  0  0  0  0  0  0  0  0
   58.5890   28.8060   45.5130 C   0  0  0  0  0  0  0  0  0  0  0  0
   58.8240   30.0910   45.0150 C   0  0  0  0  0  0  0  0  0  0  0  0
   57.7790   30.8310   44.4440 C   0  0  0  0  0  0  0  0  0  0  0  0
   58.0370   32.2220   43.9250 C   0  0  0  0  0  0  0  0  0  0  0  0
   57.5870   33.2450   44.8950 N   0  0  0  0  0  0  0  0  0  0  0  0
   58.4180   34.4760   44.8880 C   0  0  0  0  0  0  0  0  0  0  0  0
   59.8680   34.2330   45.3560 C   0  0  0  0  0  0  0  0  0  0  0  0
   59.9120   33.3100   46.5390 C   0  0  0  0  0  0  0  0  0  0  0  0
   58.8090   32.5390   46.9240 C   0  0  0  0  0  0  0  0  0  0  0  0
   59.0530   31.7090   48.0130 C   0  0  0  0  0  0  0  0  0  0  0  0
   60.6620   31.9110   48.4660 S   0  0  0  0  0  0  0  0  0  0  0  0
   61.0470   33.0600   47.3010 C   0  0  0  0  0  0  0  0  0  0  0  0
   62.6280   33.7860   47.0930 Cl  0  0  0  0  0  0  0  0  0  0  0  0
   57.4680   32.6880   46.2620 C   0  0  0  0  0  0  0  0  0  0  0  0
   56.4930   30.2720   44.3810 C   0  0  0  0  0  0  0  0  0  0  0  0
   56.2600   28.9850   44.8750 C   0  0  0  0  0  0  0  0  0  0  0  0
   57.8800   25.4090   45.1130 N   0  0  0  0  0  0  0  0  0  0  0  0
   57.3920   25.3440   43.7170 C   0  0  0  0  0  0  0  0  0  0  0  0
   56.5220   24.0990   43.4670 C   0  0  0  0  0  0  0  0  0  0  0  0
   57.2000   22.8790   43.7350 O   0  0  0  0  0  0  0  0  0  0  0  0
   58.1330   22.9630   44.8060 C   0  0  0  0  0  0  0  0  0  0  0  0
   57.8490   24.1040   45.7990 C   0  0  0  0  0  0  0  0  0  0  0  0
   59.4128   28.2352   45.9664 H   0  0  0  0  0  0  0  0  0  0  0  0
   59.8338   30.5236   45.0714 H   0  0  0  0  0  0  0  0  0  0  0  0
   59.1156   32.3449   43.7478 H   0  0  0  0  0  0  0  0  0  0  0  0
   57.4736   32.3558   42.9898 H   0  0  0  0  0  0  0  0  0  0  0  0
   58.4436   34.8748   43.8631 H   0  0  0  0  0  0  0  0  0  0  0  0
   57.9604   35.1834   45.5952 H   0  0  0  0  0  0  0  0  0  0  0  0
   60.4406   33.7850   44.5305 H   0  0  0  0  0  0  0  0  0  0  0  0
   60.3034   35.1986   45.6527 H   0  0  0  0  0  0  0  0  0  0  0  0
   58.3242   31.0394   48.4931 H   0  0  0  0  0  0  0  0  0  0  0  0
   56.9885   31.6998   46.2031 H   0  0  0  0  0  0  0  0  0  0  0  0
   56.8660   33.3850   46.8634 H   0  0  0  0  0  0  0  0  0  0  0  0
   55.6657   30.8485   43.9415 H   0  0  0  0  0  0  0  0  0  0  0  0
   55.2497   28.5532   44.8225 H   0  0  0  0  0  0  0  0  0  0  0  0
   56.7937   26.2430   43.5078 H   0  0  0  0  0  0  0  0  0  0  0  0
   58.2675   25.2851   43.0537 H   0  0  0  0  0  0  0  0  0  0  0  0
   55.6355   24.1560   44.1157 H   0  0  0  0  0  0  0  0  0  0  0  0
   56.2540   24.0964   42.4001 H   0  0  0  0  0  0  0  0  0  0  0  0
   58.1120   22.0116   45.3578 H   0  0  0  0  0  0  0  0  0  0  0  0
   59.1147   23.1715   44.3557 H   0  0  0  0  0  0  0  0  0  0  0  0
   56.8555   23.9545   46.2468 H   0  0  0  0  0  0  0  0  0  0  0  0
   58.6237   24.0954   46.5799 H   0  0  0  0  0  0  0  0  0  0  0  0
  1  2  2  0
  2  3  2  0
  2  4  1  0
  4  5  2  0
  5  6  1  0
  6  7  2  0
  7  8  1  0
  8  9  1  0
  9 10  1  0
 10 11  1  0
 11 12  1  0
 12 13  1  0
 13 14  2  0
 14 15  1  0
 15 16  1  0
 16 17  1  0
 13 18  1  0
  7 19  1  0
 19 20  2  0
  2 21  1  0
 21 22  1  0
 22 23  1  0
 23 24  1  0
 24 25  1  0
 25 26  1  0
 20  4  1  0
 26 21  1  0
 18  9  1  0
 16 12  2  0
  5 27  1  0
  6 28  1  0
  8 29  1  0
  8 30  1  0
 10 31  1  0
 10 32  1  0
 11 33  1  0
 11 34  1  0
 14 35  1  0
 18 36  1  0
 18 37  1  0
 19 38  1  0
 20 39  1  0
 22 40  1  0
 22 41  1  0
 23 42  1  0
 23 43  1  0
 25 44  1  0
 25 45  1  0
 26 46  1  0
 26 47  1  0
M  END
>  <UniqueID>  (11) 
11

>  <SMILES>  (11) 
O=S(=O)(c1ccc(CN2CCc3c(csc3Cl)C2)cc1)N1CCOCC1

>  <Energy>  (11) 
92.70890666560393

>  <Genealogy>  (11) 
O=S(=O)(c1ccc(CN2CCc3c(csc3Cl)C2)cc1)N1CCOCC1 (3D coordinates assigned)
O=S(=O)(c1ccc(CN2CCc3c(csc3Cl)C2)cc1)N1CCOCC1 (nonaromatic ring conformer: 92.70890666560393 kcal/mol)

>  <smiles>  (11) 
O=S(=O)(c1ccc(CN2CCc3c(csc3Cl)C2)cc1)N1CCOCC1

>  <score_type>  (11) 
oracle

>  <origin>  (11) 
adg

>  <m_score__min__energy>  (11) 
-9.1899999999999995

>  <m_primary>  (11) 
energy

$$$$
11:0
     RDKit          3D

 56 60  0  0  0  0  0  0  0  0999 V2000
   55.7280   21.2290   45.9650 H   0  0  0  0  0  0  0  0  0  0  0  0
   54.9390   21.7860   45.7370 O   0  0  0  0  0  0  0  0  0  0  0  0
   55.4090   22.8470   44.9450 C   0  0  2  0  0  0  0  0  0  0  0  0
   54.5436   23.4707   44.6765 H   0  0  0  0  0  0  0  0  0  0  0  0
   56.1170   22.3090   43.6830 C   0  0  1  0  0  0  0  0  0  0  0  0
   55.9907   21.2191   43.6040 H   0  0  0  0  0  0  0  0  0  0  0  0
   55.5590   22.8700   42.5180 O   0  0  0  0  0  0  0  0  0  0  0  0
   56.2770   22.9380   41.8360 H   0  0  0  0  0  0  0  0  0  0  0  0
   57.6130   22.6720   43.8080 C   0  0  2  0  0  0  0  0  0  0  0  0
   58.0532   22.9386   42.8358 H   0  0  0  0  0  0  0  0  0  0  0  0
   58.4400   21.4760   44.3140 C   0  0  0  0  0  0  0  0  0  0  0  0
   59.3595   21.8452   44.7918 H   0  0  0  0  0  0  0  0  0  0  0  0
   58.6956   20.8283   43.4625 H   0  0  0  0  0  0  0  0  0  0  0  0
   57.6970   20.7380   45.2460 O   0  0  0  0  0  0  0  0  0  0  0  0
   57.8110   19.7860   44.9960 H   0  0  0  0  0  0  0  0  0  0  0  0
   57.6590   23.8490   44.7860 C   0  0  0  0  0  0  0  0  0  0  0  0
   58.6022   23.8427   45.3520 H   0  0  0  0  0  0  0  0  0  0  0  0
   57.6061   24.8165   44.2653 H   0  0  0  0  0  0  0  0  0  0  0  0
   56.4710   23.6420   45.7240 C   0  0  1  0  0  0  0  0  0  0  0  0
   56.7843   23.0704   46.6100 H   0  0  0  0  0  0  0  0  0  0  0  0
   55.6620   29.3150   44.9570 N   0  0  0  0  0  0  0  0  0  0  0  0
   56.3480   28.3640   45.5250 C   0  0  0  0  0  0  0  0  0  0  0  0
   55.8030   27.1210   45.6160 N   0  0  0  0  0  0  0  0  0  0  0  0
   56.4840   26.0890   46.2050 C   0  0  0  0  0  0  0  0  0  0  0  0
   55.9610   24.8990   46.2930 N   0  0  0  0  0  0  0  0  0  0  0  0
   55.6780   29.6980   43.5500 C   0  0  0  0  0  0  0  0  0  0  0  0
   55.9802   28.8360   42.9371 H   0  0  0  0  0  0  0  0  0  0  0  0
   54.6736   30.0259   43.2439 H   0  0  0  0  0  0  0  0  0  0  0  0
   56.6570   30.8200   43.3570 C   0  0  0  0  0  0  0  0  0  0  0  0
   57.0220   31.2240   42.0650 C   0  0  0  0  0  0  0  0  0  0  0  0
   56.6176   30.6938   41.1902 H   0  0  0  0  0  0  0  0  0  0  0  0
   57.8970   32.2970   41.8850 C   0  0  0  0  0  0  0  0  0  0  0  0
   58.1888   32.6023   40.8693 H   0  0  0  0  0  0  0  0  0  0  0  0
   58.4030   32.9840   42.9910 C   0  0  0  0  0  0  0  0  0  0  0  0
   59.0936   33.8269   42.8409 H   0  0  0  0  0  0  0  0  0  0  0  0
   58.0360   32.6060   44.2950 C   0  0  0  0  0  0  0  0  0  0  0  0
   58.5670   33.3400   45.4720 C   0  0  0  0  0  0  0  0  0  0  0  0
   59.2210   34.5770   45.3100 C   0  0  0  0  0  0  0  0  0  0  0  0
   59.3410   35.0039   44.3033 H   0  0  0  0  0  0  0  0  0  0  0  0
   59.7180   35.2650   46.4190 C   0  0  0  0  0  0  0  0  0  0  0  0
   60.2257   36.2313   46.2829 H   0  0  0  0  0  0  0  0  0  0  0  0
   59.5720   34.7290   47.7010 C   0  0  0  0  0  0  0  0  0  0  0  0
   59.9658   35.2725   48.5725 H   0  0  0  0  0  0  0  0  0  0  0  0
   58.9260   33.5030   47.8760 C   0  0  0  0  0  0  0  0  0  0  0  0
   58.8113   33.0815   48.8855 H   0  0  0  0  0  0  0  0  0  0  0  0
   58.4250   32.8110   46.7690 C   0  0  0  0  0  0  0  0  0  0  0  0
   57.9163   31.8463   46.9126 H   0  0  0  0  0  0  0  0  0  0  0  0
   57.1530   31.5220   44.4670 C   0  0  0  0  0  0  0  0  0  0  0  0
   56.8491   31.2226   45.4809 H   0  0  0  0  0  0  0  0  0  0  0  0
   57.5960   28.5430   46.0430 N   0  0  0  0  0  0  0  0  0  0  0  0
   58.3490   29.6240   46.0920 N   0  0  0  0  0  0  0  0  0  0  0  0
   59.4840   29.2280   46.7160 C   0  0  0  0  0  0  0  0  0  0  0  0
   60.3305   29.9008   46.9182 H   0  0  0  0  0  0  0  0  0  0  0  0
   59.4710   27.9150   47.0670 N   0  0  0  0  0  0  0  0  0  0  0  0
   58.2610   27.5430   46.6180 C   0  0  0  0  0  0  0  0  0  0  0  0
   57.7310   26.3020   46.7140 N   0  0  0  0  0  0  0  0  0  0  0  0
  1  2  1  0
  2  3  1  0
  3  4  1  6
  3  5  1  0
  5  6  1  6
  5  7  1  0
  7  8  1  0
  5  9  1  0
  9 10  1  6
  9 11  1  0
 11 12  1  0
 11 13  1  0
 11 14  1  0
 14 15  1  0
  9 16  1  0
 16 17  1  0
 16 18  1  0
 16 19  1  0
 19 20  1  1
 19 21  1  0
 21 22  2  0
 22 23  1  0
 23 24  1  0
 24 25  2  0
 25 26  1  0
 26 27  1  0
 26 28  1  0
 26 29  1  0
 29 30  2  0
 30 31  1  0
 30 32  1  0
 32 33  1  0
 32 34  2  0
 34 35  1  0
 34 36  1  0
 36 37  1  0
 37 38  2  0
 38 39  1  0
 38 40  1  0
 40 41  1  0
 40 42  2  0
 42 43  1  0
 42 44  1  0
 44 45  1  0
 44 46  2  0
 46 47  1  0
 36 48  2  0
 48 49  1  0
 24 50  1  0
 50 51  1  0
 51 52  2  0
 52 53  1  0
 52 54  1  0
 54 55  2  0
 55 56  1  0
 19  3  1  0
 56 22  1  0
 48 29  1  0
 55 50  1  0
 46 37  1  0
M  CHG  2  23  -1  56  -1
M  END
>  <UniqueID>  (12) 
12

>  <SMILES>  (12) 
OC[C@@H]1C[C@@H](/N=c2\[n-]/c(=N/Cc3cccc(-c4ccccc4)c3)n3ncnc3[n-]2)C(O)C1O

>  <Energy>  (12) 
113.97108722856062

>  <Genealogy>  (12) 
OCC1CC(N=c2[n-]c(=NCc3cccc(-c4ccccc4)c3)n3ncnc3[n-]2)C(O)C1O (protonated)
OC[C@@H]1C[C@@H](N=c2[n-]c(=NCc3cccc(-c4ccccc4)c3)n3ncnc3[n-]2)C(O)C1O (chirality)
OC[C@@H]1C[C@@H](/N=c2\[n-]/c(=N/Cc3cccc(-c4ccccc4)c3)n3ncnc3[n-]2)C(O)C1O (cis-trans isomerization)
OC[C@@H]1C[C@@H](/N=c2\[n-]/c(=N/Cc3cccc(-c4ccccc4)c3)n3ncnc3[n-]2)C(O)C1O (3D coordinates assigned)
OC[C@@H]1C[C@@H](/N=c2\[n-]/c(=N/Cc3cccc(-c4ccccc4)c3)n3ncnc3[n-]2)C(O)C1O (nonaromatic ring conformer: 113.97108722856062 kcal/mol)

>  <smiles>  (12) 
OCC1CC(N=c2[nH]c(=NCc3cccc(-c4ccccc4)c3)n3ncnc3[nH]2)C(O)C1O

>  <score_type>  (12) 
oracle

>  <origin>  (12) 
adg

>  <m_score__min__energy>  (12) 
-13.4

>  <m_primary>  (12) 
energy

$$$$
12:0
     RDKit          3D

 26 27  0  0  0  0  0  0  0  0999 V2000
   56.8070   28.3850   44.5830 O   0  0  0  0  0  0  0  0  0  0  0  0
   57.3950   27.6380   45.4140 C   0  0  0  0  0  0  0  0  0  0  0  0
   56.6430   26.6970   46.1390 C   0  0  0  0  0  0  0  0  0  0  0  0
   55.2680   26.5570   45.9480 O   0  0  0  0  0  0  0  0  0  0  0  0
   57.2830   25.8860   47.0750 C   0  0  0  0  0  0  0  0  0  0  0  0
   58.6510   26.0200   47.2870 C   0  0  0  0  0  0  0  0  0  0  0  0
   59.3710   26.9600   46.5510 C   0  0  0  0  0  0  0  0  0  0  0  0
   58.7530   27.7450   45.6140 N   0  0  0  0  0  0  0  0  0  0  0  0
   59.5690   28.7220   44.8660 C   0  0  0  0  0  0  0  0  0  0  0  0
   58.9920   30.1160   44.9820 C   0  0  0  0  0  0  0  0  0  0  0  0
   58.3450   30.6860   43.8700 C   0  0  0  0  0  0  0  0  0  0  0  0
   57.7790   31.9610   43.9540 C   0  0  0  0  0  0  0  0  0  0  0  0
   57.8510   32.6820   45.1480 C   0  0  0  0  0  0  0  0  0  0  0  0
   57.1390   34.2810   45.2490 Cl  0  0  0  0  0  0  0  0  0  0  0  0
   58.4880   32.1270   46.2610 C   0  0  0  0  0  0  0  0  0  0  0  0
   59.0580   30.8500   46.1880 C   0  0  0  0  0  0  0  0  0  0  0  0
   59.8500   30.2150   47.6240 Cl  0  0  0  0  0  0  0  0  0  0  0  0
   54.7660   27.0780   45.2380 H   0  0  0  0  0  0  0  0  0  0  0  0
   56.7073   25.1417   47.6447 H   0  0  0  0  0  0  0  0  0  0  0  0
   59.1611   25.3891   48.0298 H   0  0  0  0  0  0  0  0  0  0  0  0
   60.4512   27.0729   46.7253 H   0  0  0  0  0  0  0  0  0  0  0  0
   60.5915   28.7215   45.2717 H   0  0  0  0  0  0  0  0  0  0  0  0
   59.5740   28.4332   43.8046 H   0  0  0  0  0  0  0  0  0  0  0  0
   58.2842   30.1233   42.9268 H   0  0  0  0  0  0  0  0  0  0  0  0
   57.2760   32.3974   43.0784 H   0  0  0  0  0  0  0  0  0  0  0  0
   58.5420   32.6968   47.2004 H   0  0  0  0  0  0  0  0  0  0  0  0
  1  2  2  0
  2  3  1  0
  3  4  1  0
  3  5  2  0
  5  6  1  0
  6  7  2  0
  7  8  1  0
  8  9  1  0
  9 10  1  0
 10 11  2  0
 11 12  1  0
 12 13  2  0
 13 14  1  0
 13 15  1  0
 15 16  2  0
 16 17  1  0
  8  2  1  0
 16 10  1  0
  4 18  1  0
  5 19  1  0
  6 20  1  0
  7 21  1  0
  9 22  1  0
  9 23  1  0
 11 24  1  0
 12 25  1  0
 15 26  1  0
M  END
>  <UniqueID>  (13) 
13

>  <SMILES>  (13) 
O=c1c(O)cccn1Cc1ccc(Cl)cc1Cl

>  <Energy>  (13) 
31.03270890864801

>  <Genealogy>  (13) 
O=c1c(O)cccn1Cc1ccc(Cl)cc1Cl (3D coordinates assigned)
O=c1c(O)cccn1Cc1ccc(Cl)cc1Cl (optimized conformer: 31.03270890864801 kcal/mol)

>  <smiles>  (13) 
O=c1c(O)cccn1Cc1ccc(Cl)cc1Cl

>  <score_type>  (13) 
oracle

>  <origin>  (13) 
adg

>  <m_score__min__energy>  (13) 
-7.6500000000000004

>  <m_primary>  (13) 
energy

$$$$
13:0
     RDKit          3D

 49 51  0  0  0  0  0  0  0  0999 V2000
   58.0030   32.4630   41.4300 C   0  0  0  0  0  0  0  0  0  0  0  0
   57.5260   31.5690   42.5350 C   0  0  0  0  0  0  0  0  0  0  0  0
   56.6460   30.5170   42.2470 C   0  0  0  0  0  0  0  0  0  0  0  0
   56.1570   29.7100   43.2740 C   0  0  0  0  0  0  0  0  0  0  0  0
   56.5380   29.9510   44.5970 C   0  0  0  0  0  0  0  0  0  0  0  0
   57.4240   30.9910   44.9040 C   0  0  0  0  0  0  0  0  0  0  0  0
   57.7720   31.1990   46.2810 N   0  0  0  0  0  0  0  0  0  0  0  0
   58.1320   32.7090   47.0610 S   0  0  0  0  0  0  0  0  0  0  0  0
   57.8140   32.5660   48.5220 O   0  0  0  0  0  0  0  0  0  0  0  0
   57.2780   33.8220   46.5270 O   0  0  0  0  0  0  0  0  0  0  0  0
   59.8500   33.0770   46.8760 C   0  0  0  0  0  0  0  0  0  0  0  0
   60.3930   34.2650   46.4050 C   0  0  0  0  0  0  0  0  0  0  0  0
   59.6440   35.4530   45.8980 C   0  0  0  0  0  0  0  0  0  0  0  0
   61.7040   34.2130   46.4640 O   0  0  0  0  0  0  0  0  0  0  0  0
   62.0610   33.0550   46.9670 C   0  0  0  0  0  0  0  0  0  0  0  0
   63.4900   32.6540   47.1580 C   0  0  0  0  0  0  0  0  0  0  0  0
   60.9320   32.3040   47.2690 C   0  0  0  0  0  0  0  0  0  0  0  0
   60.9120   30.9640   47.8780 C   0  0  0  0  0  0  0  0  0  0  0  0
   61.3640   30.8130   49.0440 O   0  0  0  0  0  0  0  0  0  0  0  0
   60.3510   29.8410   47.1730 N   0  0  0  0  0  0  0  0  0  0  0  0
   60.4620   29.7640   45.7070 C   0  0  0  0  0  0  0  0  0  0  0  0
   60.2680   28.3280   45.2090 C   0  0  0  0  0  0  0  0  0  0  0  0
   58.9510   27.7180   45.7180 C   0  0  0  0  0  0  0  0  0  0  0  0
   58.5880   28.1290   47.1610 C   0  0  0  0  0  0  0  0  0  0  0  0
   59.7760   28.7180   47.9270 C   0  0  0  0  0  0  0  0  0  0  0  0
   57.9090   31.8060   43.8660 C   0  0  0  0  0  0  0  0  0  0  0  0
   58.4795   33.3560   41.8607 H   0  0  0  0  0  0  0  0  0  0  0  0
   58.7322   31.9217   40.8093 H   0  0  0  0  0  0  0  0  0  0  0  0
   57.1473   32.7672   40.8093 H   0  0  0  0  0  0  0  0  0  0  0  0
   56.3400   30.3272   41.2076 H   0  0  0  0  0  0  0  0  0  0  0  0
   55.4703   28.8824   43.0424 H   0  0  0  0  0  0  0  0  0  0  0  0
   56.1386   29.3186   45.4036 H   0  0  0  0  0  0  0  0  0  0  0  0
   59.2723   36.0426   46.7490 H   0  0  0  0  0  0  0  0  0  0  0  0
   60.3137   36.0748   45.2858 H   0  0  0  0  0  0  0  0  0  0  0  0
   58.7942   35.1168   45.2858 H   0  0  0  0  0  0  0  0  0  0  0  0
   63.7127   32.5915   48.2334 H   0  0  0  0  0  0  0  0  0  0  0  0
   63.6612   31.6731   46.6905 H   0  0  0  0  0  0  0  0  0  0  0  0
   64.1465   33.4026   46.6905 H   0  0  0  0  0  0  0  0  0  0  0  0
   59.6925   30.4071   45.2551 H   0  0  0  0  0  0  0  0  0  0  0  0
   61.4687   30.0993   45.4168 H   0  0  0  0  0  0  0  0  0  0  0  0
   60.2567   28.3314   44.1091 H   0  0  0  0  0  0  0  0  0  0  0  0
   61.0981   27.7180   45.5949 H   0  0  0  0  0  0  0  0  0  0  0  0
   58.1386   28.0419   45.0508 H   0  0  0  0  0  0  0  0  0  0  0  0
   59.0849   26.6262   45.7210 H   0  0  0  0  0  0  0  0  0  0  0  0
   57.7873   28.8822   47.1210 H   0  0  0  0  0  0  0  0  0  0  0  0
   58.2680   27.2211   47.6933 H   0  0  0  0  0  0  0  0  0  0  0  0
   59.4351   29.0753   48.9099 H   0  0  0  0  0  0  0  0  0  0  0  0
   60.5428   27.9405   48.0591 H   0  0  0  0  0  0  0  0  0  0  0  0
   58.5934   32.6354   44.0976 H   0  0  0  0  0  0  0  0  0  0  0  0
  1  2  1  0
  2  3  2  0
  3  4  1  0
  4  5  2  0
  5  6  1  0
  6  7  1  0
  7  8  1  0
  8  9  2  0
  8 10  2  0
  8 11  1  0
 11 12  2  0
 12 13  1  0
 12 14  1  0
 14 15  1  0
 15 16  1  0
 15 17  2  0
 17 18  1  0
 18 19  2  0
 18 20  1  0
 20 21  1  0
 21 22  1  0
 22 23  1  0
 23 24  1  0
 24 25  1  0
  6 26  2  0
 26  2  1  0
 17 11  1  0
 25 20  1  0
  1 27  1  0
  1 28  1  0
  1 29  1  0
  3 30  1  0
  4 31  1  0
  5 32  1  0
 13 33  1  0
 13 34  1  0
 13 35  1  0
 16 36  1  0
 16 37  1  0
 16 38  1  0
 21 39  1  0
 21 40  1  0
 22 41  1  0
 22 42  1  0
 23 43  1  0
 23 44  1  0
 24 45  1  0
 24 46  1  0
 25 47  1  0
 25 48  1  0
 26 49  1  0
M  CHG  1   7  -1
M  END
>  <UniqueID>  (14) 
14

>  <SMILES>  (14) 
Cc1cccc([N-]S(=O)(=O)c2c(C)oc(C)c2C(=O)N2CCCCC2)c1

>  <Energy>  (14) 
82.0648977220963

>  <Genealogy>  (14) 
Cc1cccc([N-]S(=O)(=O)c2c(C)oc(C)c2C(=O)N2CCCCC2)c1 (protonated)
Cc1cccc([N-]S(=O)(=O)c2c(C)oc(C)c2C(=O)N2CCCCC2)c1 (3D coordinates assigned)
Cc1cccc([N-]S(=O)(=O)c2c(C)oc(C)c2C(=O)N2CCCCC2)c1 (nonaromatic ring conformer: 82.0648977220963 kcal/mol)

>  <smiles>  (14) 
Cc1cccc(NS(=O)(=O)c2c(C)oc(C)c2C(=O)N2CCCCC2)c1

>  <score_type>  (14) 
oracle

>  <origin>  (14) 
adg

>  <m_score__min__energy>  (14) 
-9.4600000000000009

>  <m_primary>  (14) 
energy

$$$$
14:0
     RDKit          3D

 52 55  0  0  0  0  0  0  0  0999 V2000
   58.1850   32.8150   51.9320 C   0  0  0  0  0  0  0  0  0  0  0  0
   59.2230   33.8420   51.4870 C   0  0  0  0  0  0  0  0  0  0  0  0
   59.8870   33.4070   50.2410 N   0  0  0  0  0  0  0  0  0  0  0  0
   59.0750   33.0920   49.1860 C   0  0  0  0  0  0  0  0  0  0  0  0
   59.5940   32.6670   47.9590 C   0  0  0  0  0  0  0  0  0  0  0  0
   58.6610   32.3410   46.8560 C   0  0  0  0  0  0  0  0  0  0  0  0
   57.5470   32.9320   46.8020 O   0  0  0  0  0  0  0  0  0  0  0  0
   59.0140   31.3780   45.8500 N   0  0  0  0  0  0  0  0  0  0  0  0
   58.1530   31.0470   44.7500 C   0  0  0  0  0  0  0  0  0  0  0  0
   58.1810   31.8490   43.6010 C   0  0  0  0  0  0  0  0  0  0  0  0
   57.3530   31.5590   42.5150 C   0  0  0  0  0  0  0  0  0  0  0  0
   56.4800   30.4720   42.5740 C   0  0  0  0  0  0  0  0  0  0  0  0
   56.4210   29.6810   43.7240 C   0  0  0  0  0  0  0  0  0  0  0  0
   57.2460   29.9690   44.8300 C   0  0  0  0  0  0  0  0  0  0  0  0
   57.1730   29.2280   46.0210 O   0  0  0  0  0  0  0  0  0  0  0  0
   58.1960   28.3610   46.4990 C   0  0  0  0  0  0  0  0  0  0  0  0
   60.9830   32.5380   47.8190 C   0  0  0  0  0  0  0  0  0  0  0  0
   61.4680   32.0840   46.7450 O   0  0  0  0  0  0  0  0  0  0  0  0
   61.8290   32.8900   48.8850 C   0  0  0  0  0  0  0  0  0  0  0  0
   63.2270   32.8000   48.7480 C   0  0  0  0  0  0  0  0  0  0  0  0
   64.0800   33.1530   49.8000 C   0  0  0  0  0  0  0  0  0  0  0  0
   63.5310   33.6350   51.0050 C   0  0  0  0  0  0  0  0  0  0  0  0
   62.1390   33.7280   51.1490 C   0  0  0  0  0  0  0  0  0  0  0  0
   61.2630   33.3450   50.1050 C   0  0  0  0  0  0  0  0  0  0  0  0
   64.4370   34.0630   52.1390 C   0  0  0  0  0  0  0  0  0  0  0  0
   65.4190   32.9500   52.5060 C   0  0  0  0  0  0  0  0  0  0  0  0
   66.3710   32.4700   51.0770 S   0  0  0  0  0  0  0  0  0  0  0  0
   66.4910   30.7950   51.0120 O   0  0  0  0  0  0  0  0  0  0  0  0
   65.5740   33.0810   49.6030 C   0  0  0  0  0  0  0  0  0  0  0  0
   58.1506   32.7810   53.0309 H   0  0  0  0  0  0  0  0  0  0  0  0
   57.1965   33.1004   51.5429 H   0  0  0  0  0  0  0  0  0  0  0  0
   58.4599   31.8235   51.5429 H   0  0  0  0  0  0  0  0  0  0  0  0
   58.7246   34.8070   51.3127 H   0  0  0  0  0  0  0  0  0  0  0  0
   59.9826   33.9420   52.2763 H   0  0  0  0  0  0  0  0  0  0  0  0
   57.9848   33.1753   49.3061 H   0  0  0  0  0  0  0  0  0  0  0  0
   59.8940   30.8260   45.9560 H   0  0  0  0  0  0  0  0  0  0  0  0
   58.8602   32.7131   43.5545 H   0  0  0  0  0  0  0  0  0  0  0  0
   57.3888   32.1874   41.6128 H   0  0  0  0  0  0  0  0  0  0  0  0
   55.8368   30.2374   41.7130 H   0  0  0  0  0  0  0  0  0  0  0  0
   55.7269   28.8287   43.7666 H   0  0  0  0  0  0  0  0  0  0  0  0
   58.1938   28.3628   47.5990 H   0  0  0  0  0  0  0  0  0  0  0  0
   58.0116   27.3400   46.1337 H   0  0  0  0  0  0  0  0  0  0  0  0
   59.1730   28.7103   46.1337 H   0  0  0  0  0  0  0  0  0  0  0  0
   63.6560   32.4465   47.7988 H   0  0  0  0  0  0  0  0  0  0  0  0
   61.7192   34.1064   52.0927 H   0  0  0  0  0  0  0  0  0  0  0  0
   65.0027   34.9545   51.8305 H   0  0  0  0  0  0  0  0  0  0  0  0
   63.8156   34.2861   53.0188 H   0  0  0  0  0  0  0  0  0  0  0  0
   66.0997   33.3108   53.2912 H   0  0  0  0  0  0  0  0  0  0  0  0
   64.8537   32.0789   52.8689 H   0  0  0  0  0  0  0  0  0  0  0  0
   67.2800   30.5820   51.5710 H   0  0  0  0  0  0  0  0  0  0  0  0
   65.9577   34.0863   49.3745 H   0  0  0  0  0  0  0  0  0  0  0  0
   65.7900   32.3940   48.7715 H   0  0  0  0  0  0  0  0  0  0  0  0
  1  2  1  0
  2  3  1  0
  3  4  1  0
  4  5  2  0
  5  6  1  0
  6  7  2  0
  6  8  1  0
  8  9  1  0
  9 10  2  0
 10 11  1  0
 11 12  2  0
 12 13  1  0
 13 14  2  0
 14 15  1  0
 15 16  1  0
  5 17  1  0
 17 18  2  0
 17 19  1  0
 19 20  2  0
 20 21  1  0
 21 22  2  0
 22 23  1  0
 23 24  2  0
 22 25  1  0
 25 26  1  0
 26 27  1  0
 27 28  1  6
 27 29  1  0
 24  3  1  0
 14  9  1  0
 24 19  1  0
 29 21  1  0
  1 30  1  0
  1 31  1  0
  1 32  1  0
  2 33  1  0
  2 34  1  0
  4 35  1  0
  8 36  1  0
 10 37  1  0
 11 38  1  0
 12 39  1  0
 13 40  1  0
 16 41  1  0
 16 42  1  0
 16 43  1  0
 20 44  1  0
 23 45  1  0
 25 46  1  0
 25 47  1  0
 26 48  1  0
 26 49  1  0
 28 50  1  0
 29 51  1  0
 29 52  1  0
M  CHG  1  27   1
M  END
>  <UniqueID>  (15) 
15

>  <SMILES>  (15) 
CCn1cc(C(=O)Nc2ccccc2OC)c(=O)c2cc3c(cc21)CC[S@@+](O)C3

>  <Energy>  (15) 
70.55557904413533

>  <Genealogy>  (15) 
CCn1cc(C(=O)Nc2ccccc2OC)c(=O)c2cc3c(cc21)CC[S+](O)C3 (protonated)
CCn1cc(C(=O)Nc2ccccc2OC)c(=O)c2cc3c(cc21)CC[S@@+](O)C3 (chirality)
CCn1cc(C(=O)Nc2ccccc2OC)c(=O)c2cc3c(cc21)CC[S@@+](O)C3 (3D coordinates assigned)
CCn1cc(C(=O)Nc2ccccc2OC)c(=O)c2cc3c(cc21)CC[S@@+](O)C3 (nonaromatic ring conformer: 70.55557904413533 kcal/mol)

>  <smiles>  (15) 
CCn1cc(C(=O)Nc2ccccc2OC)c(=O)c2cc3c(cc21)CC[S+]([O-])C3

>  <score_type>  (15) 
oracle

>  <origin>  (15) 
adg

>  <m_score__min__energy>  (15) 
-7.2599999999999998

>  <m_primary>  (15) 
energy

$$$$
15:0
     RDKit          3D

 38 40  0  0  0  0  0  0  0  0999 V2000
   60.8306   27.1620   45.7682 H   0  0  0  0  0  0  0  0  0  0  0  0
   59.9000   27.7100   45.5590 C   0  0  0  0  0  0  0  0  0  0  0  0
   58.7010   27.1580   45.8750 N   0  0  0  0  0  0  0  0  0  0  0  0
   57.5190   27.7950   45.6370 C   0  0  0  0  0  0  0  0  0  0  0  0
   56.3160   27.1720   45.9860 O   0  0  0  0  0  0  0  0  0  0  0  0
   56.1700   25.7590   46.0720 C   0  0  0  0  0  0  0  0  0  0  0  0
   56.1388   25.4573   47.1294 H   0  0  0  0  0  0  0  0  0  0  0  0
   55.2358   25.4561   45.5766 H   0  0  0  0  0  0  0  0  0  0  0  0
   57.0225   25.2715   45.5766 H   0  0  0  0  0  0  0  0  0  0  0  0
   57.5210   29.0780   45.0390 C   0  0  0  0  0  0  0  0  0  0  0  0
   56.2670   29.8300   44.7510 C   0  0  0  0  0  0  0  0  0  0  0  0
   55.1540   29.2470   44.8660 O   0  0  0  0  0  0  0  0  0  0  0  0
   56.3200   31.2080   44.3440 N   0  0  0  0  0  0  0  0  0  0  0  0
   57.1130   32.1210   44.8200 C   0  0  0  0  0  0  0  0  0  0  0  0
   57.4220   32.2700   46.1240 N   0  0  0  0  0  0  0  0  0  0  0  0
   58.2500   33.3000   46.2000 N   0  0  0  0  0  0  0  0  0  0  0  0
   58.8780   33.7460   47.4390 C   0  0  0  0  0  0  0  0  0  0  0  0
   58.9070   34.8454   47.4583 H   0  0  0  0  0  0  0  0  0  0  0  0
   58.2952   33.3750   48.2950 H   0  0  0  0  0  0  0  0  0  0  0  0
   60.2780   33.2090   47.5230 C   0  0  0  0  0  0  0  0  0  0  0  0
   61.3610   33.9830   47.0760 C   0  0  0  0  0  0  0  0  0  0  0  0
   61.1871   34.9997   46.6938 H   0  0  0  0  0  0  0  0  0  0  0  0
   62.6600   33.4660   47.1150 C   0  0  0  0  0  0  0  0  0  0  0  0
   63.5058   34.0793   46.7709 H   0  0  0  0  0  0  0  0  0  0  0  0
   62.8850   32.1700   47.5910 C   0  0  0  0  0  0  0  0  0  0  0  0
   64.1440   31.6690   47.6280 F   0  0  0  0  0  0  0  0  0  0  0  0
   61.8090   31.3890   48.0230 C   0  0  0  0  0  0  0  0  0  0  0  0
   61.9856   30.3685   48.3937 H   0  0  0  0  0  0  0  0  0  0  0  0
   60.5090   31.9020   47.9850 C   0  0  0  0  0  0  0  0  0  0  0  0
   59.6644   31.2807   48.3177 H   0  0  0  0  0  0  0  0  0  0  0  0
   58.4880   33.7970   44.9680 C   0  0  0  0  0  0  0  0  0  0  0  0
   59.1492   34.6444   44.7338 H   0  0  0  0  0  0  0  0  0  0  0  0
   57.7630   33.0640   44.0520 C   0  0  0  0  0  0  0  0  0  0  0  0
   57.7145   33.2000   42.9615 H   0  0  0  0  0  0  0  0  0  0  0  0
   58.7640   29.6530   44.7110 C   0  0  0  0  0  0  0  0  0  0  0  0
   58.7984   30.6495   44.2465 H   0  0  0  0  0  0  0  0  0  0  0  0
   59.9510   28.9700   44.9700 C   0  0  0  0  0  0  0  0  0  0  0  0
   60.9195   29.4228   44.7112 H   0  0  0  0  0  0  0  0  0  0  0  0
  1  2  1  0
  2  3  2  0
  3  4  1  0
  4  5  1  0
  5  6  1  0
  6  7  1  0
  6  8  1  0
  6  9  1  0
  4 10  2  0
 10 11  1  0
 11 12  2  0
 11 13  1  0
 13 14  2  0
 14 15  1  0
 15 16  1  0
 16 17  1  0
 17 18  1  0
 17 19  1  0
 17 20  1  0
 20 21  2  0
 21 22  1  0
 21 23  1  0
 23 24  1  0
 23 25  2  0
 25 26  1  0
 25 27  1  0
 27 28  1  0
 27 29  2  0
 29 30  1  0
 16 31  1  0
 31 32  1  0
 31 33  2  0
 33 34  1  0
 10 35  1  0
 35 36  1  0
 35 37  2  0
 37 38  1  0
 37  2  1  0
 33 14  1  0
 29 20  1  0
M  CHG  1  15  -1
M  END
>  <UniqueID>  (16) 
16

>  <SMILES>  (16) 
COc1ncccc1C(=O)/N=c1/ccn(Cc2ccc(F)cc2)[n-]1

>  <Energy>  (16) 
72.16303355776861

>  <Genealogy>  (16) 
COc1ncccc1C(=O)N=c1ccn(Cc2ccc(F)cc2)[n-]1 (protonated)
COc1ncccc1C(=O)/N=c1/ccn(Cc2ccc(F)cc2)[n-]1 (cis-trans isomerization)
COc1ncccc1C(=O)/N=c1/ccn(Cc2ccc(F)cc2)[n-]1 (3D coordinates assigned)
COc1ncccc1C(=O)/N=c1/ccn(Cc2ccc(F)cc2)[n-]1 (optimized conformer: 72.16303355776861 kcal/mol)

>  <smiles>  (16) 
COc1ncccc1C(=O)N=c1ccn(Cc2ccc(F)cc2)[nH]1

>  <score_type>  (16) 
oracle

>  <origin>  (16) 
adg

>  <m_score__min__energy>  (16) 
-9.4700000000000006

>  <m_primary>  (16) 
energy

$$$$
16:0
     RDKit          3D

 39 40  0  0  0  0  0  0  0  0999 V2000
   59.8900   28.2100   44.4760 C   0  0  0  0  0  0  0  0  0  0  0  0
   60.4250   29.2270   45.4890 C   0  0  0  0  0  0  0  0  0  0  0  0
   59.3340   29.9610   46.1760 N   0  0  1  0  0  0  0  0  0  0  0  0
   58.0280   29.2720   46.0480 C   0  0  0  0  0  0  0  0  0  0  0  0
   57.0180   30.0400   45.2380 C   0  0  0  0  0  0  0  0  0  0  0  0
   55.8470   29.5910   45.1100 O   0  0  0  0  0  0  0  0  0  0  0  0
   57.4100   31.2560   44.5870 N   0  0  0  0  0  0  0  0  0  0  0  0
   57.8970   32.4410   45.2300 C   0  0  0  0  0  0  0  0  0  0  0  0
   57.7100   32.6720   46.6060 C   0  0  0  0  0  0  0  0  0  0  0  0
   58.2270   33.8290   47.2010 C   0  0  0  0  0  0  0  0  0  0  0  0
   58.9440   34.7510   46.4350 C   0  0  0  0  0  0  0  0  0  0  0  0
   59.1550   34.5140   45.0740 C   0  0  0  0  0  0  0  0  0  0  0  0
   58.6400   33.3590   44.4760 C   0  0  0  0  0  0  0  0  0  0  0  0
   59.6460   30.2270   47.5720 C   0  0  0  0  0  0  0  0  0  0  0  0
   58.7560   30.4980   48.3670 O   0  0  0  0  0  0  0  0  0  0  0  0
   61.0650   30.1440   48.0670 C   0  0  0  0  0  0  0  0  0  0  0  0
   61.7570   31.4610   47.8790 C   0  0  0  0  0  0  0  0  0  0  0  0
   62.9770   31.5980   47.1980 C   0  0  0  0  0  0  0  0  0  0  0  0
   63.4670   32.8960   47.1960 C   0  0  0  0  0  0  0  0  0  0  0  0
   62.3870   33.8620   48.0470 S   0  0  0  0  0  0  0  0  0  0  0  0
   61.2860   32.6500   48.4250 C   0  0  0  0  0  0  0  0  0  0  0  0
   59.4427   27.3596   45.0115 H   0  0  0  0  0  0  0  0  0  0  0  0
   59.1267   28.6882   43.8445 H   0  0  0  0  0  0  0  0  0  0  0  0
   60.7165   27.8519   43.8445 H   0  0  0  0  0  0  0  0  0  0  0  0
   61.0234   28.6947   46.2431 H   0  0  0  0  0  0  0  0  0  0  0  0
   61.0332   29.9616   44.9408 H   0  0  0  0  0  0  0  0  0  0  0  0
   59.2200   30.8790   45.6840 H   0  0  0  0  0  0  0  0  0  0  0  0
   58.1945   28.2985   45.5636 H   0  0  0  0  0  0  0  0  0  0  0  0
   57.6166   29.1695   47.0630 H   0  0  0  0  0  0  0  0  0  0  0  0
   57.1566   31.9420   47.2149 H   0  0  0  0  0  0  0  0  0  0  0  0
   58.0682   34.0123   48.2739 H   0  0  0  0  0  0  0  0  0  0  0  0
   59.3424   35.6633   46.9029 H   0  0  0  0  0  0  0  0  0  0  0  0
   59.7265   35.2362   44.4725 H   0  0  0  0  0  0  0  0  0  0  0  0
   58.8194   33.1703   43.4073 H   0  0  0  0  0  0  0  0  0  0  0  0
   61.0623   29.8843   49.1359 H   0  0  0  0  0  0  0  0  0  0  0  0
   61.6003   29.3723   47.4943 H   0  0  0  0  0  0  0  0  0  0  0  0
   63.4945   30.7573   46.7128 H   0  0  0  0  0  0  0  0  0  0  0  0
   64.3996   33.2338   46.7204 H   0  0  0  0  0  0  0  0  0  0  0  0
   60.3577   32.7750   49.0018 H   0  0  0  0  0  0  0  0  0  0  0  0
  1  2  1  0
  2  3  1  0
  3  4  1  0
  4  5  1  0
  5  6  2  0
  5  7  1  0
  7  8  1  0
  8  9  2  0
  9 10  1  0
 10 11  2  0
 11 12  1  0
 12 13  2  0
  3 14  1  0
 14 15  2  0
 14 16  1  0
 16 17  1  0
 17 18  1  0
 18 19  2  0
 19 20  1  0
 20 21  1  0
 13  8  1  0
 21 17  2  0
  1 22  1  0
  1 23  1  0
  1 24  1  0
  2 25  1  0
  2 26  1  0
  3 27  1  6
  4 28  1  0
  4 29  1  0
  9 30  1  0
 10 31  1  0
 11 32  1  0
 12 33  1  0
 13 34  1  0
 16 35  1  0
 16 36  1  0
 18 37  1  0
 19 38  1  0
 21 39  1  0
M  CHG  2   3   1   7  -1
M  END
>  <UniqueID>  (17) 
17

>  <SMILES>  (17) 
CC[N@@H+](CC(=O)[N-]c1ccccc1)C(=O)Cc1ccsc1

>  <Energy>  (17) 
65.52398368333927

>  <Genealogy>  (17) 
CC[NH+](CC(=O)[N-]c1ccccc1)C(=O)Cc1ccsc1 (protonated)
CC[N@@H+](CC(=O)[N-]c1ccccc1)C(=O)Cc1ccsc1 (chirality)
CC[N@@H+](CC(=O)[N-]c1ccccc1)C(=O)Cc1ccsc1 (3D coordinates assigned)
CC[N@@H+](CC(=O)[N-]c1ccccc1)C(=O)Cc1ccsc1 (optimized conformer: 65.52398368333927 kcal/mol)

>  <smiles>  (17) 
CCN(CC(=O)Nc1ccccc1)C(=O)Cc1ccsc1

>  <score_type>  (17) 
oracle

>  <origin>  (17) 
adg

>  <m_score__min__energy>  (17) 
-7.7999999999999998

>  <m_primary>  (17) 
energy

$$$$
17:0
     RDKit          3D

 60 64  0  0  0  0  0  0  0  0999 V2000
   61.9970   34.2050   48.9050 C   0  0  0  0  0  0  0  0  0  0  0  0
   61.0680   33.7330   50.0400 C   0  0  2  0  0  0  0  0  0  0  0  0
   61.2460   32.2170   50.2950 C   0  0  0  0  0  0  0  0  0  0  0  0
   60.9990   31.3870   49.0590 C   0  0  0  0  0  0  0  0  0  0  0  0
   61.8020   31.5640   47.9210 C   0  0  0  0  0  0  0  0  0  0  0  0
   61.5430   30.8410   46.7550 C   0  0  0  0  0  0  0  0  0  0  0  0
   60.4710   29.9440   46.6950 C   0  0  0  0  0  0  0  0  0  0  0  0
   60.2190   29.2970   45.4760 O   0  0  0  0  0  0  0  0  0  0  0  0
   60.3650   27.8960   45.2390 C   0  0  0  0  0  0  0  0  0  0  0  0
   59.1450   27.1370   45.6850 C   0  0  0  0  0  0  0  0  0  0  0  0
   57.8840   27.4380   45.1410 C   0  0  0  0  0  0  0  0  0  0  0  0
   56.7370   26.8070   45.6310 C   0  0  0  0  0  0  0  0  0  0  0  0
   56.8380   25.8830   46.6750 C   0  0  0  0  0  0  0  0  0  0  0  0
   58.0870   25.5750   47.2180 C   0  0  0  0  0  0  0  0  0  0  0  0
   59.2380   26.2010   46.7300 C   0  0  0  0  0  0  0  0  0  0  0  0
   59.6800   29.7440   47.8420 C   0  0  0  0  0  0  0  0  0  0  0  0
   59.9430   30.4630   49.0130 C   0  0  0  0  0  0  0  0  0  0  0  0
   59.6580   34.1350   49.8130 N   0  0  0  0  0  0  0  0  0  0  0  0
   58.9130   33.2740   48.8740 C   0  0  0  0  0  0  0  0  0  0  0  0
   59.0410   33.7940   47.4690 C   0  0  0  0  0  0  0  0  0  0  0  0
   59.5880   35.0280   47.2500 N   0  0  0  0  0  0  0  0  0  0  0  0
   59.7070   35.5700   45.9970 C   0  0  0  0  0  0  0  0  0  0  0  0
   59.2520   34.8660   44.8700 C   0  0  0  0  0  0  0  0  0  0  0  0
   58.6830   33.6160   45.0950 C   0  0  0  0  0  0  0  0  0  0  0  0
   58.5700   33.0820   46.3600 C   0  0  0  0  0  0  0  0  0  0  0  0
   57.9760   31.8660   46.3330 N   0  0  0  0  0  0  0  0  0  0  0  0
   57.7180   31.6390   45.0270 C   0  0  0  0  0  0  0  0  0  0  0  0
   57.1100   30.5150   44.4710 C   0  0  0  0  0  0  0  0  0  0  0  0
   56.9380   30.4810   43.0740 C   0  0  0  0  0  0  0  0  0  0  0  0
   57.3700   31.5610   42.2710 C   0  0  0  0  0  0  0  0  0  0  0  0
   57.9790   32.6870   42.8530 C   0  0  0  0  0  0  0  0  0  0  0  0
   58.1390   32.6900   44.2380 C   0  0  0  0  0  0  0  0  0  0  0  0
   62.8992   34.6634   49.3363 H   0  0  0  0  0  0  0  0  0  0  0  0
   62.2844   33.3436   48.2842 H   0  0  0  0  0  0  0  0  0  0  0  0
   61.4707   34.9450   48.2842 H   0  0  0  0  0  0  0  0  0  0  0  0
   61.3649   34.2470   50.9661 H   0  0  0  0  0  0  0  0  0  0  0  0
   62.2745   32.0364   50.6408 H   0  0  0  0  0  0  0  0  0  0  0  0
   60.5050   31.9173   51.0508 H   0  0  0  0  0  0  0  0  0  0  0  0
   62.6398   32.2762   47.9482 H   0  0  0  0  0  0  0  0  0  0  0  0
   62.1882   30.9780   45.8747 H   0  0  0  0  0  0  0  0  0  0  0  0
   60.5178   27.7285   44.1626 H   0  0  0  0  0  0  0  0  0  0  0  0
   61.2293   27.5342   45.8152 H   0  0  0  0  0  0  0  0  0  0  0  0
   57.7997   28.1728   44.3268 H   0  0  0  0  0  0  0  0  0  0  0  0
   55.7540   27.0378   45.1946 H   0  0  0  0  0  0  0  0  0  0  0  0
   55.9327   25.3981   47.0691 H   0  0  0  0  0  0  0  0  0  0  0  0
   58.1655   24.8385   48.0312 H   0  0  0  0  0  0  0  0  0  0  0  0
   60.2193   25.9605   47.1650 H   0  0  0  0  0  0  0  0  0  0  0  0
   58.8523   29.0199   47.8176 H   0  0  0  0  0  0  0  0  0  0  0  0
   59.3180   30.3032   49.9040 H   0  0  0  0  0  0  0  0  0  0  0  0
   59.1580   34.1460   50.7330 H   0  0  0  0  0  0  0  0  0  0  0  0
   59.6530   35.1200   49.4540 H   0  0  0  0  0  0  0  0  0  0  0  0
   59.3180   32.2523   48.9203 H   0  0  0  0  0  0  0  0  0  0  0  0
   57.8503   33.2735   49.1580 H   0  0  0  0  0  0  0  0  0  0  0  0
   60.1622   36.5637   45.8729 H   0  0  0  0  0  0  0  0  0  0  0  0
   59.3413   35.2834   43.8562 H   0  0  0  0  0  0  0  0  0  0  0  0
   57.7590   31.2360   47.1360 H   0  0  0  0  0  0  0  0  0  0  0  0
   56.7748   29.6802   45.1040 H   0  0  0  0  0  0  0  0  0  0  0  0
   56.4637   29.6070   42.6038 H   0  0  0  0  0  0  0  0  0  0  0  0
   57.2285   31.5203   41.1809 H   0  0  0  0  0  0  0  0  0  0  0  0
   58.3167   33.5343   42.2381 H   0  0  0  0  0  0  0  0  0  0  0  0
  1  2  1  0
  2  3  1  0
  3  4  1  0
  4  5  2  0
  5  6  1  0
  6  7  2  0
  7  8  1  0
  8  9  1  0
  9 10  1  0
 10 11  2  0
 11 12  1  0
 12 13  2  0
 13 14  1  0
 14 15  2  0
  7 16  1  0
 16 17  2  0
  2 18  1  0
 18 19  1  0
 19 20  1  0
 20 21  2  0
 21 22  1  0
 22 23  2  0
 23 24  1  0
 24 25  2  0
 25 26  1  0
 26 27  1  0
 27 28  2  0
 28 29  1  0
 29 30  2  0
 30 31  1  0
 31 32  2  0
 17  4  1  0
 25 20  1  0
 32 27  1  0
 15 10  1  0
 32 24  1  0
  1 33  1  0
  1 34  1  0
  1 35  1  0
  2 36  1  1
  3 37  1  0
  3 38  1  0
  5 39  1  0
  6 40  1  0
  9 41  1  0
  9 42  1  0
 11 43  1  0
 12 44  1  0
 13 45  1  0
 14 46  1  0
 15 47  1  0
 16 48  1  0
 17 49  1  0
 18 50  1  0
 18 51  1  0
 19 52  1  0
 19 53  1  0
 22 54  1  0
 23 55  1  0
 26 56  1  0
 28 57  1  0
 29 58  1  0
 30 59  1  0
 31 60  1  0
M  CHG  1  18   1
M  END
>  <UniqueID>  (18) 
18

>  <SMILES>  (18) 
C[C@H](Cc1ccc(OCc2ccccc2)cc1)[NH2+]Cc1nccc2c1[nH]c1ccccc12

>  <Energy>  (18) 
104.4664291662757

>  <Genealogy>  (18) 
CC(Cc1ccc(OCc2ccccc2)cc1)[NH2+]Cc1nccc2c1[nH]c1ccccc12 (protonated)
C[C@H](Cc1ccc(OCc2ccccc2)cc1)[NH2+]Cc1nccc2c1[nH]c1ccccc12 (chirality)
C[C@H](Cc1ccc(OCc2ccccc2)cc1)[NH2+]Cc1nccc2c1[nH]c1ccccc12 (3D coordinates assigned)
C[C@H](Cc1ccc(OCc2ccccc2)cc1)[NH2+]Cc1nccc2c1[nH]c1ccccc12 (optimized conformer: 104.4664291662757 kcal/mol)

>  <smiles>  (18) 
CC(Cc1ccc(OCc2ccccc2)cc1)NCc1nccc2c1[nH]c1ccccc12

>  <score_type>  (18) 
oracle

>  <origin>  (18) 
adg

>  <m_score__min__energy>  (18) 
-8.3599999999999994

>  <m_primary>  (18) 
energy

$$$$
18:0
     RDKit          3D

 64 68  0  0  0  0  0  0  0  0999 V2000
   63.6210   33.6600   46.8460 C   0  0  0  0  0  0  0  0  0  0  0  0
   62.3510   33.0350   47.4600 C   0  0  0  0  0  0  0  0  0  0  0  0
   61.0860   33.4880   46.7000 C   0  0  0  0  0  0  0  0  0  0  0  0
   62.4640   31.5010   47.3260 C   0  0  0  0  0  0  0  0  0  0  0  0
   62.2110   33.4530   49.2270 S   0  0  0  0  0  0  0  0  0  0  0  0
   60.8150   33.1550   49.6960 O   0  0  0  0  0  0  0  0  0  0  0  0
   62.4310   34.9360   49.3180 O   0  0  0  0  0  0  0  0  0  0  0  0
   63.3510   32.6210   50.3320 C   0  0  0  0  0  0  0  0  0  0  0  0
   64.5960   32.1980   49.8230 C   0  0  0  0  0  0  0  0  0  0  0  0
   65.5100   31.5120   50.6210 C   0  0  0  0  0  0  0  0  0  0  0  0
   65.1940   31.2010   51.9380 C   0  0  0  0  0  0  0  0  0  0  0  0
   63.9540   31.5580   52.4570 C   0  0  0  0  0  0  0  0  0  0  0  0
   63.0190   32.2700   51.6780 C   0  0  0  0  0  0  0  0  0  0  0  0
   61.4360   32.5970   52.4310 S   0  0  0  0  0  0  0  0  0  0  0  0
   60.9090   33.9290   51.9710 O   0  0  0  0  0  0  0  0  0  0  0  0
   61.6240   32.6540   53.9250 O   0  0  0  0  0  0  0  0  0  0  0  0
   60.2500   31.3850   52.0540 N   0  0  0  0  0  0  0  0  0  0  0  0
   60.1040   30.7080   50.7970 C   0  0  0  0  0  0  0  0  0  0  0  0
   61.0800   29.7740   50.4180 C   0  0  0  0  0  0  0  0  0  0  0  0
   60.9620   29.0680   49.2200 C   0  0  0  0  0  0  0  0  0  0  0  0
   59.8670   29.3080   48.3680 C   0  0  0  0  0  0  0  0  0  0  0  0
   59.6910   28.5600   47.1540 N   0  0  0  0  0  0  0  0  0  0  0  0
   58.6040   28.3130   46.4660 C   0  0  0  0  0  0  0  0  0  0  0  0
   58.1020   29.3580   45.6470 C   0  0  0  0  0  0  0  0  0  0  0  0
   58.8300   30.5530   45.4410 C   0  0  0  0  0  0  0  0  0  0  0  0
   58.2950   31.5850   44.6640 C   0  0  0  0  0  0  0  0  0  0  0  0
   57.0240   31.4510   44.1010 C   0  0  0  0  0  0  0  0  0  0  0  0
   56.2860   30.2860   44.3060 C   0  0  0  0  0  0  0  0  0  0  0  0
   56.8140   29.2310   45.0750 C   0  0  0  0  0  0  0  0  0  0  0  0
   56.0870   28.0980   45.2570 N   0  0  0  0  0  0  0  0  0  0  0  0
   56.5870   27.0230   45.9390 C   0  0  0  0  0  0  0  0  0  0  0  0
   55.8320   25.8420   46.0130 C   0  0  0  0  0  0  0  0  0  0  0  0
   56.3760   24.6930   46.5920 C   0  0  0  0  0  0  0  0  0  0  0  0
   57.6890   24.7010   47.0540 C   0  0  0  0  0  0  0  0  0  0  0  0
   58.4490   25.8690   46.9950 C   0  0  0  0  0  0  0  0  0  0  0  0
   57.8840   27.0790   46.5160 C   0  0  0  0  0  0  0  0  0  0  0  0
   58.8650   30.1890   48.7710 C   0  0  0  0  0  0  0  0  0  0  0  0
   58.9780   30.8870   49.9790 C   0  0  0  0  0  0  0  0  0  0  0  0
   64.2931   33.9908   47.6515 H   0  0  0  0  0  0  0  0  0  0  0  0
   64.1342   32.9116   46.2244 H   0  0  0  0  0  0  0  0  0  0  0  0
   63.3411   34.5233   46.2244 H   0  0  0  0  0  0  0  0  0  0  0  0
   60.3048   33.7677   47.4222 H   0  0  0  0  0  0  0  0  0  0  0  0
   61.3287   34.3551   46.0681 H   0  0  0  0  0  0  0  0  0  0  0  0
   60.7231   32.6640   46.0681 H   0  0  0  0  0  0  0  0  0  0  0  0
   62.4974   31.0469   48.3274 H   0  0  0  0  0  0  0  0  0  0  0  0
   61.5918   31.1156   46.7776 H   0  0  0  0  0  0  0  0  0  0  0  0
   63.3832   31.2476   46.7776 H   0  0  0  0  0  0  0  0  0  0  0  0
   64.8511   32.4137   48.7750 H   0  0  0  0  0  0  0  0  0  0  0  0
   66.4850   31.2157   50.2068 H   0  0  0  0  0  0  0  0  0  0  0  0
   65.9238   30.6730   52.5694 H   0  0  0  0  0  0  0  0  0  0  0  0
   63.6990   31.2808   53.4905 H   0  0  0  0  0  0  0  0  0  0  0  0
   61.9468   29.5965   51.0716 H   0  0  0  0  0  0  0  0  0  0  0  0
   61.7237   28.3248   48.9416 H   0  0  0  0  0  0  0  0  0  0  0  0
   59.8247   30.6714   45.8955 H   0  0  0  0  0  0  0  0  0  0  0  0
   58.8760   32.5038   44.4959 H   0  0  0  0  0  0  0  0  0  0  0  0
   56.6040   32.2667   43.4942 H   0  0  0  0  0  0  0  0  0  0  0  0
   55.2835   30.1902   43.8636 H   0  0  0  0  0  0  0  0  0  0  0  0
   55.1320   28.0280   44.8330 H   0  0  0  0  0  0  0  0  0  0  0  0
   54.8074   25.8212   45.6133 H   0  0  0  0  0  0  0  0  0  0  0  0
   55.7666   23.7817   46.6828 H   0  0  0  0  0  0  0  0  0  0  0  0
   58.1293   23.7817   47.4676 H   0  0  0  0  0  0  0  0  0  0  0  0
   59.4986   25.8518   47.3237 H   0  0  0  0  0  0  0  0  0  0  0  0
   57.9794   30.3368   48.1355 H   0  0  0  0  0  0  0  0  0  0  0  0
   58.1807   31.5788   50.2884 H   0  0  0  0  0  0  0  0  0  0  0  0
  1  2  1  0
  2  3  1  0
  2  4  1  0
  2  5  1  0
  5  6  2  0
  5  7  2  0
  5  8  1  0
  8  9  2  0
  9 10  1  0
 10 11  2  0
 11 12  1  0
 12 13  2  0
 13 14  1  0
 14 15  2  0
 14 16  2  0
 14 17  1  0
 17 18  1  0
 18 19  2  0
 19 20  1  0
 20 21  2  0
 21 22  1  0
 22 23  2  3
 23 24  1  0
 24 25  2  0
 25 26  1  0
 26 27  2  0
 27 28  1  0
 28 29  2  0
 29 30  1  0
 30 31  1  0
 31 32  2  0
 32 33  1  0
 33 34  2  0
 34 35  1  0
 35 36  2  0
 21 37  1  0
 37 38  2  0
 13  8  1  0
 38 18  1  0
 36 23  1  0
 29 24  1  0
 36 31  1  0
  1 39  1  0
  1 40  1  0
  1 41  1  0
  3 42  1  0
  3 43  1  0
  3 44  1  0
  4 45  1  0
  4 46  1  0
  4 47  1  0
  9 48  1  0
 10 49  1  0
 11 50  1  0
 12 51  1  0
 19 52  1  0
 20 53  1  0
 25 54  1  0
 26 55  1  0
 27 56  1  0
 28 57  1  0
 30 58  1  0
 32 59  1  0
 33 60  1  0
 34 61  1  0
 35 62  1  0
 37 63  1  0
 38 64  1  0
M  CHG  1  17  -1
M  END
>  <UniqueID>  (19) 
19

>  <SMILES>  (19) 
CC(C)(C)S(=O)(=O)c1ccccc1S(=O)(=O)[N-]c1ccc(N=c2c3ccccc3[nH]c3ccccc23)cc1

>  <Energy>  (19) 
106.50987193811832

>  <Genealogy>  (19) 
CC(C)(C)S(=O)(=O)c1ccccc1S(=O)(=O)[N-]c1ccc(N=c2c3ccccc3[nH]c3ccccc23)cc1 (protonated)
CC(C)(C)S(=O)(=O)c1ccccc1S(=O)(=O)[N-]c1ccc(N=c2c3ccccc3[nH]c3ccccc23)cc1 (3D coordinates assigned)
CC(C)(C)S(=O)(=O)c1ccccc1S(=O)(=O)[N-]c1ccc(N=c2c3ccccc3[nH]c3ccccc23)cc1 (optimized conformer: 106.50987193811832 kcal/mol)

>  <smiles>  (19) 
CC(C)(C)S(=O)(=O)c1ccccc1S(=O)(=O)Nc1ccc(N=c2c3ccccc3[nH]c3ccccc23)cc1

>  <score_type>  (19) 
oracle

>  <origin>  (19) 
adg

>  <m_score__min__energy>  (19) 
-11.98

>  <m_primary>  (19) 
energy

$$$$
19:0
     RDKit          3D

 47 49  0  0  0  0  0  0  0  0999 V2000
   62.5770   33.7350   47.5940 C   0  0  0  0  0  0  0  0  0  0  0  0
   61.5400   34.2020   48.5690 C   0  0  0  0  0  0  0  0  0  0  0  0
   61.8880   34.4710   49.7470 O   0  0  0  0  0  0  0  0  0  0  0  0
   60.1700   34.3810   48.1900 N   0  0  0  0  0  0  0  0  0  0  0  0
   59.4610   33.6290   47.1970 C   0  0  0  0  0  0  0  0  0  0  0  0
   59.3460   32.2430   47.3500 C   0  0  0  0  0  0  0  0  0  0  0  0
   58.6770   31.4790   46.3880 C   0  0  0  0  0  0  0  0  0  0  0  0
   58.1390   32.0920   45.2510 C   0  0  0  0  0  0  0  0  0  0  0  0
   57.2570   31.1220   44.0730 S   0  0  0  0  0  0  0  0  0  0  0  0
   55.8800   30.7850   44.5730 O   0  0  0  0  0  0  0  0  0  0  0  0
   57.1240   31.9120   42.8010 O   0  0  0  0  0  0  0  0  0  0  0  0
   58.1390   29.6620   43.7520 N   0  0  0  0  0  0  0  0  0  0  0  0
   58.0650   28.4960   44.5900 C   0  0  0  0  0  0  0  0  0  0  0  0
   56.8580   28.0930   45.1900 C   0  0  0  0  0  0  0  0  0  0  0  0
   56.8150   26.9610   46.0070 C   0  0  0  0  0  0  0  0  0  0  0  0
   57.9780   26.2050   46.2330 C   0  0  0  0  0  0  0  0  0  0  0  0
   57.9800   25.0360   47.0640 N   0  0  0  0  0  0  0  0  0  0  0  0
   56.8620   23.7160   46.9400 S   0  0  0  0  0  0  0  0  0  0  0  0
   55.4940   24.1910   47.3390 O   0  0  0  0  0  0  0  0  0  0  0  0
   57.2810   22.6200   47.8810 O   0  0  0  0  0  0  0  0  0  0  0  0
   56.7980   23.1260   45.2810 C   0  0  0  0  0  0  0  0  0  0  0  0
   56.0280   23.8110   44.3280 C   0  0  0  0  0  0  0  0  0  0  0  0
   55.9570   23.3390   43.0130 C   0  0  0  0  0  0  0  0  0  0  0  0
   56.6540   22.1830   42.6460 C   0  0  0  0  0  0  0  0  0  0  0  0
   57.4310   21.5050   43.5880 C   0  0  0  0  0  0  0  0  0  0  0  0
   57.5030   21.9720   44.9040 C   0  0  0  0  0  0  0  0  0  0  0  0
   59.1750   26.5970   45.6220 C   0  0  0  0  0  0  0  0  0  0  0  0
   59.2180   27.7270   44.8020 C   0  0  0  0  0  0  0  0  0  0  0  0
   58.2820   33.4750   45.0770 C   0  0  0  0  0  0  0  0  0  0  0  0
   58.9410   34.2410   46.0430 C   0  0  0  0  0  0  0  0  0  0  0  0
   63.4463   33.3435   48.1427 H   0  0  0  0  0  0  0  0  0  0  0  0
   62.1543   32.9403   46.9617 H   0  0  0  0  0  0  0  0  0  0  0  0
   62.8919   34.5782   46.9617 H   0  0  0  0  0  0  0  0  0  0  0  0
   59.7839   31.7516   48.2313 H   0  0  0  0  0  0  0  0  0  0  0  0
   58.5735   30.3926   46.5258 H   0  0  0  0  0  0  0  0  0  0  0  0
   58.8710   29.7050   43.0090 H   0  0  0  0  0  0  0  0  0  0  0  0
   55.9407   28.6741   45.0143 H   0  0  0  0  0  0  0  0  0  0  0  0
   55.8665   26.6598   46.4757 H   0  0  0  0  0  0  0  0  0  0  0  0
   55.4797   24.7202   44.6156 H   0  0  0  0  0  0  0  0  0  0  0  0
   55.3530   23.8770   42.2675 H   0  0  0  0  0  0  0  0  0  0  0  0
   56.5901   21.8074   41.6141 H   0  0  0  0  0  0  0  0  0  0  0  0
   57.9870   20.6025   43.2942 H   0  0  0  0  0  0  0  0  0  0  0  0
   58.1129   21.4344   45.6449 H   0  0  0  0  0  0  0  0  0  0  0  0
   60.0900   26.0098   45.7892 H   0  0  0  0  0  0  0  0  0  0  0  0
   60.1633   28.0156   44.3191 H   0  0  0  0  0  0  0  0  0  0  0  0
   57.8744   33.9595   44.1775 H   0  0  0  0  0  0  0  0  0  0  0  0
   59.0531   35.3259   45.8998 H   0  0  0  0  0  0  0  0  0  0  0  0
  1  2  1  0
  2  3  2  0
  2  4  1  0
  4  5  1  0
  5  6  2  0
  6  7  1  0
  7  8  2  0
  8  9  1  0
  9 10  2  0
  9 11  2  0
  9 12  1  0
 12 13  1  0
 13 14  2  0
 14 15  1  0
 15 16  2  0
 16 17  1  0
 17 18  1  0
 18 19  2  0
 18 20  2  0
 18 21  1  0
 21 22  2  0
 22 23  1  0
 23 24  2  0
 24 25  1  0
 25 26  2  0
 16 27  1  0
 27 28  2  0
  8 29  1  0
 29 30  2  0
 30  5  1  0
 28 13  1  0
 26 21  1  0
  1 31  1  0
  1 32  1  0
  1 33  1  0
  6 34  1  0
  7 35  1  0
 12 36  1  0
 14 37  1  0
 15 38  1  0
 22 39  1  0
 23 40  1  0
 24 41  1  0
 25 42  1  0
 26 43  1  0
 27 44  1  0
 28 45  1  0
 29 46  1  0
 30 47  1  0
M  CHG  2   4  -1  17  -1
M  END
>  <UniqueID>  (20) 
20

>  <SMILES>  (20) 
CC(=O)[N-]c1ccc(S(=O)(=O)Nc2ccc([N-]S(=O)(=O)c3ccccc3)cc2)cc1

>  <Energy>  (20) 
57.153268282045566

>  <Genealogy>  (20) 
CC(=O)[N-]c1ccc(S(=O)(=O)Nc2ccc([N-]S(=O)(=O)c3ccccc3)cc2)cc1 (protonated)
CC(=O)[N-]c1ccc(S(=O)(=O)Nc2ccc([N-]S(=O)(=O)c3ccccc3)cc2)cc1 (3D coordinates assigned)
CC(=O)[N-]c1ccc(S(=O)(=O)Nc2ccc([N-]S(=O)(=O)c3ccccc3)cc2)cc1 (optimized conformer: 57.153268282045566 kcal/mol)

>  <smiles>  (20) 
CC(=O)Nc1ccc(S(=O)(=O)Nc2ccc(NS(=O)(=O)c3ccccc3)cc2)cc1

>  <score_type>  (20) 
oracle

>  <origin>  (20) 
adg

>  <m_score__min__energy>  (20) 
-12.1

>  <m_primary>  (20) 
energy

$$$$
20:0
     RDKit          3D

 31 33  0  0  0  0  0  0  0  0999 V2000
   61.6085   35.1036   49.1298 H   0  0  0  0  0  0  0  0  0  0  0  0
   61.4660   34.1310   48.6360 C   0  0  0  0  0  0  0  0  0  0  0  0
   62.4930   33.5830   47.8610 C   0  0  0  0  0  0  0  0  0  0  0  0
   63.4407   34.1279   47.7390 H   0  0  0  0  0  0  0  0  0  0  0  0
   62.3150   32.3420   47.2410 C   0  0  0  0  0  0  0  0  0  0  0  0
   63.1186   31.9228   46.6177 H   0  0  0  0  0  0  0  0  0  0  0  0
   61.1210   31.6290   47.4080 C   0  0  0  0  0  0  0  0  0  0  0  0
   60.9710   30.3710   46.7290 N   0  0  0  0  0  0  0  0  0  0  0  0
   59.8520   29.7510   46.4790 C   0  0  0  0  0  0  0  0  0  0  0  0
   59.6040   28.4660   46.8480 N   0  0  0  0  0  0  0  0  0  0  0  0
   58.3690   28.2500   46.3530 C   0  0  0  0  0  0  0  0  0  0  0  0
   57.9080   29.3560   45.7120 C   0  0  0  0  0  0  0  0  0  0  0  0
   56.6440   29.3490   45.1350 C   0  0  0  0  0  0  0  0  0  0  0  0
   56.1840   30.3540   44.5320 O   0  0  0  0  0  0  0  0  0  0  0  0
   55.9010   28.2120   45.2450 N   0  0  0  0  0  0  0  0  0  0  0  0
   56.3760   27.1020   45.8950 C   0  0  0  0  0  0  0  0  0  0  0  0
   55.6390   26.0830   45.9800 O   0  0  0  0  0  0  0  0  0  0  0  0
   57.6390   27.1030   46.4490 N   0  0  0  0  0  0  0  0  0  0  0  0
   58.1500   25.9400   47.1830 C   0  0  0  0  0  0  0  0  0  0  0  0
   58.0690   26.1244   48.2644 H   0  0  0  0  0  0  0  0  0  0  0  0
   57.5598   25.0505   46.9175 H   0  0  0  0  0  0  0  0  0  0  0  0
   59.2043   25.7731   46.9175 H   0  0  0  0  0  0  0  0  0  0  0  0
   58.8390   30.3220   45.7750 N   0  0  0  0  0  0  0  0  0  0  0  0
   58.7710   31.6750   45.2210 C   0  0  0  0  0  0  0  0  0  0  0  0
   58.7343   32.4060   46.0421 H   0  0  0  0  0  0  0  0  0  0  0  0
   59.6608   31.8630   44.6022 H   0  0  0  0  0  0  0  0  0  0  0  0
   57.8668   31.7728   44.6022 H   0  0  0  0  0  0  0  0  0  0  0  0
   60.0790   32.2020   48.1650 C   0  0  0  0  0  0  0  0  0  0  0  0
   59.1213   31.6710   48.2698 H   0  0  0  0  0  0  0  0  0  0  0  0
   60.2590   33.4430   48.7830 C   0  0  0  0  0  0  0  0  0  0  0  0
   59.4488   33.8786   49.3861 H   0  0  0  0  0  0  0  0  0  0  0  0
  1  2  1  0
  2  3  2  0
  3  4  1  0
  3  5  1  0
  5  6  1  0
  5  7  2  0
  7  8  1  0
  8  9  2  0
  9 10  1  0
 10 11  1  0
 11 12  2  0
 12 13  1  0
 13 14  2  0
 13 15  1  0
 15 16  1  0
 16 17  2  0
 16 18  1  0
 18 19  1  0
 19 20  1  0
 19 21  1  0
 19 22  1  0
 12 23  1  0
 23 24  1  0
 24 25  1  0
 24 26  1  0
 24 27  1  0
  7 28  1  0
 28 29  1  0
 28 30  2  0
 30 31  1  0
 30  2  1  0
 23  9  1  0
 18 11  1  0
M  CHG  2  10  -1  15  -1
M  END
>  <UniqueID>  (21) 
21

>  <SMILES>  (21) 
Cn1c(=O)[n-]c(=O)c2c1[n-]/c(=N\c1ccccc1)n2C

>  <Energy>  (21) 
82.37170926655064

>  <Genealogy>  (21) 
Cn1c(=O)[n-]c(=O)c2c1[n-]c(=Nc1ccccc1)n2C (protonated)
Cn1c(=O)[n-]c(=O)c2c1[n-]/c(=N\c1ccccc1)n2C (cis-trans isomerization)
Cn1c(=O)[n-]c(=O)c2c1[n-]/c(=N\c1ccccc1)n2C (3D coordinates assigned)
Cn1c(=O)[n-]c(=O)c2c1[n-]/c(=N\c1ccccc1)n2C (optimized conformer: 82.37170926655064 kcal/mol)

>  <smiles>  (21) 
Cn1c(=O)[nH]c(=O)c2c1[nH]c(=Nc1ccccc1)n2C

>  <score_type>  (21) 
oracle

>  <origin>  (21) 
adg

>  <m_score__min__energy>  (21) 
-9.2200000000000006

>  <m_primary>  (21) 
energy

$$$$
21:0
     RDKit          3D

 18 18  0  0  0  0  0  0  0  0999 V2000
   58.6140   34.2010   46.2910 C   0  0  0  0  0  0  0  0  0  0  0  0
   58.1070   33.3060   45.2610 N   0  0  0  0  0  0  0  0  0  0  0  0
   57.3960   32.1850   45.4750 C   0  0  0  0  0  0  0  0  0  0  0  0
   57.1780   31.5670   44.2580 C   0  0  0  0  0  0  0  0  0  0  0  0
   56.5010   30.2700   44.0590 C   0  0  0  0  0  0  0  0  0  0  0  0
   56.7950   29.4640   42.9170 N   0  0  0  0  0  0  0  0  0  0  0  0
   55.6300   29.8760   44.8780 O   0  0  0  0  0  0  0  0  0  0  0  0
   57.8110   32.3970   43.3290 C   0  0  0  0  0  0  0  0  0  0  0  0
   57.8650   32.2690   41.8640 C   0  0  0  0  0  0  0  0  0  0  0  0
   57.0170   31.5920   41.2280 O   0  0  0  0  0  0  0  0  0  0  0  0
   58.3750   33.4370   43.9730 N   0  0  0  0  0  0  0  0  0  0  0  0
   58.3800   33.7879   47.2833 H   0  0  0  0  0  0  0  0  0  0  0  0
   59.7040   34.3030   46.1840 H   0  0  0  0  0  0  0  0  0  0  0  0
   58.1411   35.1884   46.1840 H   0  0  0  0  0  0  0  0  0  0  0  0
   57.0470   31.8214   46.4528 H   0  0  0  0  0  0  0  0  0  0  0  0
   56.2850   28.5660   42.7640 H   0  0  0  0  0  0  0  0  0  0  0  0
   57.5410   29.7350   42.2400 H   0  0  0  0  0  0  0  0  0  0  0  0
   58.6677   32.7786   41.3109 H   0  0  0  0  0  0  0  0  0  0  0  0
  1  2  1  0
  2  3  1  0
  3  4  2  0
  4  5  1  0
  5  6  1  0
  5  7  2  0
  4  8  1  0
  8  9  1  0
  9 10  2  0
  8 11  2  0
 11  2  1  0
  1 12  1  0
  1 13  1  0
  1 14  1  0
  3 15  1  0
  6 16  1  0
  6 17  1  0
  9 18  1  0
M  END
>  <UniqueID>  (22) 
22

>  <SMILES>  (22) 
Cn1cc(C(N)=O)c(C=O)n1

>  <Energy>  (22) 
46.69813236341682

>  <Genealogy>  (22) 
Cn1cc(C(N)=O)c(C=O)n1 (3D coordinates assigned)
Cn1cc(C(N)=O)c(C=O)n1 (optimized conformer: 46.69813236341682 kcal/mol)

>  <smiles>  (22) 
Cn1cc(C(N)=O)c(C=O)n1

>  <score_type>  (22) 
oracle

>  <origin>  (22) 
adg

>  <m_score__min__energy>  (22) 
-5.1100000000000003

>  <m_primary>  (22) 
energy

$$$$
22:0
     RDKit          3D

 56 58  0  0  0  0  0  0  0  0999 V2000
   59.1850   27.7950   47.1110 C   0  0  0  0  0  0  0  0  0  0  0  0
   59.0880   28.1300   45.6300 C   0  0  0  0  0  0  0  0  0  0  0  0
   57.7210   28.2560   45.2600 O   0  0  0  0  0  0  0  0  0  0  0  0
   57.0820   29.4950   45.1450 C   0  0  0  0  0  0  0  0  0  0  0  0
   55.8520   29.5560   44.8750 O   0  0  0  0  0  0  0  0  0  0  0  0
   57.8430   30.6940   45.3320 N   0  0  0  0  0  0  0  0  0  0  0  0
   57.2360   32.0190   45.2330 C   0  0  0  0  0  0  0  0  0  0  0  0
   58.2420   33.0910   45.5760 C   0  0  0  0  0  0  0  0  0  0  0  0
   58.1780   34.3020   44.8590 C   0  0  0  0  0  0  0  0  0  0  0  0
   59.0770   35.3350   45.1190 C   0  0  0  0  0  0  0  0  0  0  0  0
   60.0530   35.1790   46.0960 C   0  0  0  0  0  0  0  0  0  0  0  0
   60.1280   33.9930   46.8260 C   0  0  0  0  0  0  0  0  0  0  0  0
   59.2250   32.9440   46.5960 C   0  0  0  0  0  0  0  0  0  0  0  0
   59.4030   31.5090   47.6360 S   0  0  0  0  0  0  0  0  0  0  0  0
   58.1480   30.6930   47.7430 O   0  0  0  0  0  0  0  0  0  0  0  0
   60.4850   30.6460   47.0490 O   0  0  0  0  0  0  0  0  0  0  0  0
   59.8790   32.0440   49.2880 C   0  0  2  0  0  0  0  0  0  0  0  0
   61.3340   31.6550   49.6290 C   0  0  0  0  0  0  0  0  0  0  0  0
   62.3290   32.3800   48.7720 C   0  0  0  0  0  0  0  0  0  0  0  0
   62.6980   33.7130   48.9070 C   0  0  0  0  0  0  0  0  0  0  0  0
   63.6520   34.1160   47.9670 C   0  0  0  0  0  0  0  0  0  0  0  0
   64.0360   33.1080   47.0940 C   0  0  0  0  0  0  0  0  0  0  0  0
   63.1880   31.7100   47.4920 S   0  0  0  0  0  0  0  0  0  0  0  0
   58.9020   31.4840   50.3050 C   0  0  0  0  0  0  0  0  0  0  0  0
   57.9190   32.2950   50.9010 C   0  0  0  0  0  0  0  0  0  0  0  0
   57.0520   31.7710   51.8630 C   0  0  0  0  0  0  0  0  0  0  0  0
   57.1650   30.4300   52.2690 C   0  0  0  0  0  0  0  0  0  0  0  0
   56.3330   29.8690   53.2480 O   0  0  0  0  0  0  0  0  0  0  0  0
   55.0090   29.4080   53.0090 C   0  0  0  0  0  0  0  0  0  0  0  0
   58.1450   29.6240   51.6840 C   0  0  0  0  0  0  0  0  0  0  0  0
   59.0080   30.1430   50.7130 C   0  0  0  0  0  0  0  0  0  0  0  0
   58.9276   28.6839   47.7056 H   0  0  0  0  0  0  0  0  0  0  0  0
   58.4861   26.9796   47.3490 H   0  0  0  0  0  0  0  0  0  0  0  0
   60.2115   27.4792   47.3490 H   0  0  0  0  0  0  0  0  0  0  0  0
   59.6096   29.0784   45.4339 H   0  0  0  0  0  0  0  0  0  0  0  0
   59.5540   27.3260   45.0414 H   0  0  0  0  0  0  0  0  0  0  0  0
   58.8400   30.6020   45.6340 H   0  0  0  0  0  0  0  0  0  0  0  0
   56.8764   32.1761   44.2054 H   0  0  0  0  0  0  0  0  0  0  0  0
   56.3977   32.0791   45.9427 H   0  0  0  0  0  0  0  0  0  0  0  0
   57.4086   34.4341   44.0840 H   0  0  0  0  0  0  0  0  0  0  0  0
   59.0139   36.2745   44.5504 H   0  0  0  0  0  0  0  0  0  0  0  0
   60.7672   35.9919   46.2938 H   0  0  0  0  0  0  0  0  0  0  0  0
   60.9071   33.8782   47.5940 H   0  0  0  0  0  0  0  0  0  0  0  0
   59.8383   33.1428   49.3196 H   0  0  0  0  0  0  0  0  0  0  0  0
   61.5288   31.9007   50.6834 H   0  0  0  0  0  0  0  0  0  0  0  0
   61.4485   30.5771   49.4419 H   0  0  0  0  0  0  0  0  0  0  0  0
   62.2824   34.3825   49.6745 H   0  0  0  0  0  0  0  0  0  0  0  0
   64.0598   35.1367   47.9238 H   0  0  0  0  0  0  0  0  0  0  0  0
   64.7698   33.2061   46.2804 H   0  0  0  0  0  0  0  0  0  0  0  0
   57.8323   33.3514   50.6068 H   0  0  0  0  0  0  0  0  0  0  0  0
   56.2756   32.4122   52.3058 H   0  0  0  0  0  0  0  0  0  0  0  0
   54.5031   29.2318   53.9697 H   0  0  0  0  0  0  0  0  0  0  0  0
   54.4546   30.1660   52.4362 H   0  0  0  0  0  0  0  0  0  0  0  0
   55.0453   28.4696   52.4362 H   0  0  0  0  0  0  0  0  0  0  0  0
   58.2388   28.5715   51.9898 H   0  0  0  0  0  0  0  0  0  0  0  0
   59.7764   29.4960   50.2648 H   0  0  0  0  0  0  0  0  0  0  0  0
  1  2  1  0
  2  3  1  0
  3  4  1  0
  4  5  2  0
  4  6  1  0
  6  7  1  0
  7  8  1  0
  8  9  2  0
  9 10  1  0
 10 11  2  0
 11 12  1  0
 12 13  2  0
 13 14  1  0
 14 15  2  0
 14 16  2  0
 14 17  1  0
 17 18  1  0
 18 19  1  0
 19 20  2  0
 20 21  1  0
 21 22  2  0
 22 23  1  0
 17 24  1  0
 24 25  2  0
 25 26  1  0
 26 27  2  0
 27 28  1  0
 28 29  1  0
 27 30  1  0
 30 31  2  0
 13  8  1  0
 23 19  1  0
 31 24  1  0
  1 32  1  0
  1 33  1  0
  1 34  1  0
  2 35  1  0
  2 36  1  0
  6 37  1  0
  7 38  1  0
  7 39  1  0
  9 40  1  0
 10 41  1  0
 11 42  1  0
 12 43  1  0
 17 44  1  6
 18 45  1  0
 18 46  1  0
 20 47  1  0
 21 48  1  0
 22 49  1  0
 25 50  1  0
 26 51  1  0
 29 52  1  0
 29 53  1  0
 29 54  1  0
 30 55  1  0
 31 56  1  0
M  END
>  <UniqueID>  (23) 
23

>  <SMILES>  (23) 
CCOC(=O)NCc1ccccc1S(=O)(=O)[C@H](Cc1cccs1)c1ccc(OC)cc1

>  <Energy>  (23) 
71.88376112975155

>  <Genealogy>  (23) 
CCOC(=O)NCc1ccccc1S(=O)(=O)[C@H](Cc1cccs1)c1ccc(OC)cc1 (chirality)
CCOC(=O)NCc1ccccc1S(=O)(=O)[C@H](Cc1cccs1)c1ccc(OC)cc1 (3D coordinates assigned)
CCOC(=O)NCc1ccccc1S(=O)(=O)[C@H](Cc1cccs1)c1ccc(OC)cc1 (optimized conformer: 71.88376112975155 kcal/mol)

>  <smiles>  (23) 
CCOC(=O)NCc1ccccc1S(=O)(=O)C(Cc1cccs1)c1ccc(OC)cc1

>  <score_type>  (23) 
oracle

>  <origin>  (23) 
adg

>  <m_score__min__energy>  (23) 
-8.1500000000000004

>  <m_primary>  (23) 
energy

$$$$
23:0
     RDKit          3D

 26 28  0  0  0  0  0  0  0  0999 V2000
   56.0820   28.6310   44.7820 N   0  0  0  0  0  0  0  0  0  0  0  0
   56.7280   29.8850   44.5470 C   0  0  0  0  0  0  0  0  0  0  0  0
   56.7030   30.4540   43.2720 C   0  0  0  0  0  0  0  0  0  0  0  0
   57.3310   31.6740   43.0370 C   0  0  0  0  0  0  0  0  0  0  0  0
   57.9940   32.3470   44.0750 C   0  0  0  0  0  0  0  0  0  0  0  0
   58.6150   33.5710   43.8080 C   0  0  0  0  0  0  0  0  0  0  0  0
   59.2790   34.2610   44.8140 C   0  0  0  0  0  0  0  0  0  0  0  0
   59.3380   33.7420   46.1130 C   0  0  0  0  0  0  0  0  0  0  0  0
   60.0160   34.4630   47.1090 C   0  0  0  0  0  0  0  0  0  0  0  0
   60.0900   33.9700   48.4090 C   0  0  0  0  0  0  0  0  0  0  0  0
   59.4890   32.7550   48.7290 C   0  0  0  0  0  0  0  0  0  0  0  0
   58.8100   32.0230   47.7530 C   0  0  0  0  0  0  0  0  0  0  0  0
   58.7160   32.4990   46.4200 C   0  0  0  0  0  0  0  0  0  0  0  0
   58.0330   31.7890   45.3840 C   0  0  0  0  0  0  0  0  0  0  0  0
   57.3860   30.5450   45.5940 C   0  0  0  0  0  0  0  0  0  0  0  0
   55.1610   28.5870   45.2740 H   0  0  0  0  0  0  0  0  0  0  0  0
   56.5170   27.7350   44.4680 H   0  0  0  0  0  0  0  0  0  0  0  0
   56.1855   29.9366   42.4508 H   0  0  0  0  0  0  0  0  0  0  0  0
   57.3074   32.1143   42.0292 H   0  0  0  0  0  0  0  0  0  0  0  0
   58.5773   33.9912   42.7921 H   0  0  0  0  0  0  0  0  0  0  0  0
   59.7624   35.2230   44.5884 H   0  0  0  0  0  0  0  0  0  0  0  0
   60.4916   35.4233   46.8607 H   0  0  0  0  0  0  0  0  0  0  0  0
   60.6234   34.5404   49.1837 H   0  0  0  0  0  0  0  0  0  0  0  0
   59.5497   32.3696   49.7575 H   0  0  0  0  0  0  0  0  0  0  0  0
   58.3417   31.0645   48.0213 H   0  0  0  0  0  0  0  0  0  0  0  0
   57.4007   30.0901   46.5954 H   0  0  0  0  0  0  0  0  0  0  0  0
  1  2  1  0
  2  3  2  0
  3  4  1  0
  4  5  2  0
  5  6  1  0
  6  7  2  0
  7  8  1  0
  8  9  2  0
  9 10  1  0
 10 11  2  0
 11 12  1  0
 12 13  2  0
 13 14  1  0
 14 15  2  0
 15  2  1  0
 14  5  1  0
 13  8  1  0
  1 16  1  0
  1 17  1  0
  3 18  1  0
  4 19  1  0
  6 20  1  0
  7 21  1  0
  9 22  1  0
 10 23  1  0
 11 24  1  0
 12 25  1  0
 15 26  1  0
M  END
>  <UniqueID>  (24) 
24

>  <SMILES>  (24) 
Nc1ccc2ccc3ccccc3c2c1

>  <Energy>  (24) 
39.0215622174651

>  <Genealogy>  (24) 
Nc1ccc2ccc3ccccc3c2c1 (3D coordinates assigned)
Nc1ccc2ccc3ccccc3c2c1 (optimized conformer: 39.0215622174651 kcal/mol)

>  <smiles>  (24) 
Nc1ccc2ccc3ccccc3c2c1

>  <score_type>  (24) 
oracle

>  <origin>  (24) 
adg

>  <m_score__min__energy>  (24) 
-7.0099999999999998

>  <m_primary>  (24) 
energy

$$$$
24:0
     RDKit          3D

 28 28  0  0  0  0  0  0  0  0999 V2000
   59.6400   34.9660   46.3980 C   0  0  0  0  0  0  0  0  0  0  0  0
   58.4260   34.4500   46.1850 C   0  0  0  0  0  0  0  0  0  0  0  0
   58.0300   33.9060   44.8410 C   0  0  0  0  0  0  0  0  0  0  0  0
   57.4510   32.5660   44.9680 N   0  0  0  0  0  0  0  0  0  0  0  0
   58.2390   31.3960   45.2780 C   0  0  0  0  0  0  0  0  0  0  0  0
   59.4330   31.5140   46.0140 C   0  0  0  0  0  0  0  0  0  0  0  0
   60.1650   30.3820   46.3650 C   0  0  0  0  0  0  0  0  0  0  0  0
   59.7260   29.1160   45.9840 C   0  0  0  0  0  0  0  0  0  0  0  0
   58.5520   28.9660   45.2330 C   0  0  0  0  0  0  0  0  0  0  0  0
   58.0700   27.3430   44.7180 S   0  0  0  0  0  0  0  0  0  0  0  0
   58.0180   27.2490   42.9900 N   0  0  0  0  0  0  0  0  0  0  0  0
   59.0620   26.3400   45.2350 O   0  0  0  0  0  0  0  0  0  0  0  0
   56.7020   27.0220   45.2530 O   0  0  0  0  0  0  0  0  0  0  0  0
   57.7940   30.1110   44.8840 C   0  0  0  0  0  0  0  0  0  0  0  0
   56.5960   29.9750   44.1090 N   0  0  0  0  0  0  0  0  0  0  0  0
   55.5240   30.4710   44.5140 O   0  0  0  0  0  0  0  0  0  0  0  0
   56.6330   29.3490   42.8840 O   0  0  0  0  0  0  0  0  0  0  0  0
   59.9046   35.3576   47.3913 H   0  0  0  0  0  0  0  0  0  0  0  0
   60.3748   34.9992   45.5801 H   0  0  0  0  0  0  0  0  0  0  0  0
   57.7005   34.4227   47.0114 H   0  0  0  0  0  0  0  0  0  0  0  0
   57.2871   34.5774   44.3856 H   0  0  0  0  0  0  0  0  0  0  0  0
   58.9286   33.8417   44.2098 H   0  0  0  0  0  0  0  0  0  0  0  0
   56.4190   32.4590   44.8440 H   0  0  0  0  0  0  0  0  0  0  0  0
   59.7914   32.5095   46.3148 H   0  0  0  0  0  0  0  0  0  0  0  0
   61.0934   30.4882   46.9453 H   0  0  0  0  0  0  0  0  0  0  0  0
   60.3052   28.2272   46.2748 H   0  0  0  0  0  0  0  0  0  0  0  0
   58.4060   28.1460   42.6240 H   0  0  0  0  0  0  0  0  0  0  0  0
   57.0100   27.2210   42.7160 H   0  0  0  0  0  0  0  0  0  0  0  0
  1  2  2  0
  2  3  1  0
  3  4  1  0
  4  5  1  0
  5  6  2  0
  6  7  1  0
  7  8  2  0
  8  9  1  0
  9 10  1  0
 10 11  1  0
 10 12  2  0
 10 13  2  0
  9 14  2  0
 14 15  1  0
 15 16  2  0
 15 17  1  0
 14  5  1  0
  1 18  1  0
  1 19  1  0
  2 20  1  0
  3 21  1  0
  3 22  1  0
  4 23  1  0
  6 24  1  0
  7 25  1  0
  8 26  1  0
 11 27  1  0
 11 28  1  0
M  CHG  2  15   1  17  -1
M  END
>  <UniqueID>  (25) 
25

>  <SMILES>  (25) 
C=CCNc1cccc(S(N)(=O)=O)c1[N+](=O)[O-]

>  <Energy>  (25) 
31.306669858206263

>  <Genealogy>  (25) 
C=CCNc1cccc(S(N)(=O)=O)c1[N+](=O)[O-] (3D coordinates assigned)
C=CCNc1cccc(S(N)(=O)=O)c1[N+](=O)[O-] (optimized conformer: 31.306669858206263 kcal/mol)

>  <smiles>  (25) 
C=CCNc1cccc(S(N)(=O)=O)c1[N+](=O)[O-]

>  <score_type>  (25) 
oracle

>  <origin>  (25) 
adg

>  <m_score__min__energy>  (25) 
-6.3399999999999999

>  <m_primary>  (25) 
energy

$$$$
25:0
     RDKit          3D

 58 60  0  0  0  0  0  0  0  0999 V2000
   60.7470   26.3390   46.3940 C   0  0  0  0  0  0  0  0  0  0  0  0
   59.8480   27.1540   47.1430 O   0  0  0  0  0  0  0  0  0  0  0  0
   59.3230   28.3780   46.6990 C   0  0  0  0  0  0  0  0  0  0  0  0
   60.0330   29.5450   46.9880 C   0  0  0  0  0  0  0  0  0  0  0  0
   59.5540   30.7900   46.5760 C   0  0  0  0  0  0  0  0  0  0  0  0
   58.3430   30.8880   45.8730 C   0  0  0  0  0  0  0  0  0  0  0  0
   57.7220   32.4790   45.4110 S   0  0  0  0  0  0  0  0  0  0  0  0
   58.5810   33.0820   44.3310 O   0  0  0  0  0  0  0  0  0  0  0  0
   56.3300   32.3090   44.8720 O   0  0  0  0  0  0  0  0  0  0  0  0
   57.6680   33.5600   46.7780 N   0  0  0  0  0  0  0  0  0  0  0  0
   58.7410   34.5590   46.7150 C   0  0  0  0  0  0  0  0  0  0  0  0
   60.0240   33.9930   47.2610 C   0  0  0  0  0  0  0  0  0  0  0  0
   61.1220   33.7870   46.4110 C   0  0  0  0  0  0  0  0  0  0  0  0
   62.3520   33.3830   46.9310 C   0  0  0  0  0  0  0  0  0  0  0  0
   62.5070   33.1710   48.3120 C   0  0  0  0  0  0  0  0  0  0  0  0
   63.8240   32.8230   48.8890 C   0  0  0  0  0  0  0  0  0  0  0  0
   64.8500   33.4530   48.5090 O   0  0  0  0  0  0  0  0  0  0  0  0
   63.9450   31.7670   49.8580 N   0  0  0  0  0  0  0  0  0  0  0  0
   65.1770   31.3890   50.4900 C   0  0  0  0  0  0  0  0  0  0  0  0
   66.2700   31.9080   50.1290 O   0  0  0  0  0  0  0  0  0  0  0  0
   65.1590   30.4100   51.5360 N   0  0  0  0  0  0  0  0  0  0  0  0
   66.3810   29.8790   52.1360 C   0  0  0  0  0  0  0  0  0  0  0  0
   66.7960   28.6170   51.4320 C   0  0  0  0  0  0  0  0  0  0  0  0
   67.8720   28.6200   50.5290 C   0  0  0  0  0  0  0  0  0  0  0  0
   68.2390   27.4450   49.8660 C   0  0  0  0  0  0  0  0  0  0  0  0
   67.5320   26.2620   50.0980 C   0  0  0  0  0  0  0  0  0  0  0  0
   66.4520   26.2550   50.9860 C   0  0  0  0  0  0  0  0  0  0  0  0
   66.0800   27.4270   51.6470 C   0  0  0  0  0  0  0  0  0  0  0  0
   61.3870   33.3070   49.1500 C   0  0  0  0  0  0  0  0  0  0  0  0
   60.1550   33.7100   48.6280 C   0  0  0  0  0  0  0  0  0  0  0  0
   57.6170   29.7210   45.5670 C   0  0  0  0  0  0  0  0  0  0  0  0
   56.4050   29.8420   44.8680 O   0  0  0  0  0  0  0  0  0  0  0  0
   56.2710   29.7450   43.4560 C   0  0  0  0  0  0  0  0  0  0  0  0
   58.1150   28.4670   45.9810 C   0  0  0  0  0  0  0  0  0  0  0  0
   61.3817   25.7636   47.0839 H   0  0  0  0  0  0  0  0  0  0  0  0
   60.1731   25.6470   45.7602 H   0  0  0  0  0  0  0  0  0  0  0  0
   61.3796   26.9778   45.7602 H   0  0  0  0  0  0  0  0  0  0  0  0
   60.9791   29.4829   47.5458 H   0  0  0  0  0  0  0  0  0  0  0  0
   60.1291   31.6996   46.8037 H   0  0  0  0  0  0  0  0  0  0  0  0
   58.8948   34.8588   45.6679 H   0  0  0  0  0  0  0  0  0  0  0  0
   58.4510   35.4298   47.3214 H   0  0  0  0  0  0  0  0  0  0  0  0
   61.0119   33.9451   45.3280 H   0  0  0  0  0  0  0  0  0  0  0  0
   63.2065   33.2293   46.2556 H   0  0  0  0  0  0  0  0  0  0  0  0
   63.1040   31.1940   50.0890 H   0  0  0  0  0  0  0  0  0  0  0  0
   64.2400   30.0550   51.8830 H   0  0  0  0  0  0  0  0  0  0  0  0
   67.1839   30.6257   52.0477 H   0  0  0  0  0  0  0  0  0  0  0  0
   66.1934   29.6547   53.1964 H   0  0  0  0  0  0  0  0  0  0  0  0
   68.4282   29.5506   50.3427 H   0  0  0  0  0  0  0  0  0  0  0  0
   69.0841   27.4517   49.1619 H   0  0  0  0  0  0  0  0  0  0  0  0
   67.8253   25.3360   49.5818 H   0  0  0  0  0  0  0  0  0  0  0  0
   65.8942   25.3238   51.1642 H   0  0  0  0  0  0  0  0  0  0  0  0
   65.2241   27.4190   52.3380 H   0  0  0  0  0  0  0  0  0  0  0  0
   61.4809   33.0946   50.2252 H   0  0  0  0  0  0  0  0  0  0  0  0
   59.2838   33.8057   49.2927 H   0  0  0  0  0  0  0  0  0  0  0  0
   55.4021   29.1160   43.2125 H   0  0  0  0  0  0  0  0  0  0  0  0
   56.1270   30.7495   43.0315 H   0  0  0  0  0  0  0  0  0  0  0  0
   57.1803   29.2944   43.0315 H   0  0  0  0  0  0  0  0  0  0  0  0
   57.5547   27.5514   45.7407 H   0  0  0  0  0  0  0  0  0  0  0  0
  1  2  1  0
  2  3  1  0
  3  4  2  0
  4  5  1  0
  5  6  2  0
  6  7  1  0
  7  8  2  0
  7  9  2  0
  7 10  1  0
 10 11  1  0
 11 12  1  0
 12 13  2  0
 13 14  1  0
 14 15  2  0
 15 16  1  0
 16 17  2  0
 16 18  1  0
 18 19  1  0
 19 20  2  0
 19 21  1  0
 21 22  1  0
 22 23  1  0
 23 24  2  0
 24 25  1  0
 25 26  2  0
 26 27  1  0
 27 28  2  0
 15 29  1  0
 29 30  2  0
  6 31  1  0
 31 32  1  0
 32 33  1  0
 31 34  2  0
 34  3  1  0
 30 12  1  0
 28 23  1  0
  1 35  1  0
  1 36  1  0
  1 37  1  0
  4 38  1  0
  5 39  1  0
 11 40  1  0
 11 41  1  0
 13 42  1  0
 14 43  1  0
 18 44  1  0
 21 45  1  0
 22 46  1  0
 22 47  1  0
 24 48  1  0
 25 49  1  0
 26 50  1  0
 27 51  1  0
 28 52  1  0
 29 53  1  0
 30 54  1  0
 33 55  1  0
 33 56  1  0
 33 57  1  0
 34 58  1  0
M  CHG  1  10  -1
M  END
>  <UniqueID>  (26) 
26

>  <SMILES>  (26) 
COc1ccc(S(=O)(=O)[N-]Cc2ccc(C(=O)NC(=O)NCc3ccccc3)cc2)c(OC)c1

>  <Energy>  (26) 
51.627714473794164

>  <Genealogy>  (26) 
COc1ccc(S(=O)(=O)[N-]Cc2ccc(C(=O)NC(=O)NCc3ccccc3)cc2)c(OC)c1 (protonated)
COc1ccc(S(=O)(=O)[N-]Cc2ccc(C(=O)NC(=O)NCc3ccccc3)cc2)c(OC)c1 (3D coordinates assigned)
COc1ccc(S(=O)(=O)[N-]Cc2ccc(C(=O)NC(=O)NCc3ccccc3)cc2)c(OC)c1 (optimized conformer: 51.627714473794164 kcal/mol)

>  <smiles>  (26) 
COc1ccc(S(=O)(=O)NCc2ccc(C(=O)NC(=O)NCc3ccccc3)cc2)c(OC)c1

>  <score_type>  (26) 
oracle

>  <origin>  (26) 
adg

>  <m_score__min__energy>  (26) 
-9.9000000000000004

>  <m_primary>  (26) 
energy

$$$$
26:0
     RDKit          3D

 63 67  0  0  0  0  0  0  0  0999 V2000
   63.3760   33.6490   46.5490 C   0  0  0  0  0  0  0  0  0  0  0  0
   62.9630   32.9760   47.7880 N   0  0  0  0  0  0  0  0  0  0  0  0
   64.1550   32.6990   48.6070 C   0  0  0  0  0  0  0  0  0  0  0  0
   61.9820   33.8080   48.5220 C   0  0  0  0  0  0  0  0  0  0  0  0
   61.5000   33.1140   49.8060 C   0  0  0  0  0  0  0  0  0  0  0  0
   60.5000   31.9720   49.5050 C   0  0  0  0  0  0  0  0  0  0  0  0
   60.9960   30.9930   48.5060 N   0  0  2  0  0  0  0  0  0  0  0  0
   60.4990   31.2830   47.1220 C   0  0  0  0  0  0  0  0  0  0  0  0
   59.3780   30.3260   46.7130 C   0  0  2  0  0  0  0  0  0  0  0  0
   59.9290   28.9000   46.8130 C   0  0  1  0  0  0  0  0  0  0  0  0
   59.9810   28.5660   48.2960 C   0  0  0  0  0  0  0  0  0  0  0  0
   60.8280   29.6150   49.0020 C   0  0  0  0  0  0  0  0  0  0  0  0
   61.3780   29.2910   50.0460 O   0  0  0  0  0  0  0  0  0  0  0  0
   59.0400   28.1580   45.8510 C   0  0  0  0  0  0  0  0  0  0  0  0
   58.5070   29.0980   44.9880 C   0  0  0  0  0  0  0  0  0  0  0  0
   57.6880   28.7260   43.9180 C   0  0  0  0  0  0  0  0  0  0  0  0
   57.4370   27.3680   43.6990 C   0  0  0  0  0  0  0  0  0  0  0  0
   58.0470   26.3900   44.5090 C   0  0  0  0  0  0  0  0  0  0  0  0
   57.8510   25.0290   44.2330 C   0  0  0  0  0  0  0  0  0  0  0  0
   58.5130   24.0570   44.9820 C   0  0  0  0  0  0  0  0  0  0  0  0
   59.3950   24.4320   45.9960 C   0  0  0  0  0  0  0  0  0  0  0  0
   59.5950   25.7830   46.2920 C   0  0  0  0  0  0  0  0  0  0  0  0
   58.9010   26.7790   45.5820 C   0  0  0  0  0  0  0  0  0  0  0  0
   58.8630   30.4330   45.3520 N   0  0  0  0  0  0  0  0  0  0  0  0
   58.0990   31.8450   44.6800 S   0  0  0  0  0  0  0  0  0  0  0  0
   58.4770   31.9500   43.2290 O   0  0  0  0  0  0  0  0  0  0  0  0
   56.6050   31.7550   44.7900 O   0  0  0  0  0  0  0  0  0  0  0  0
   58.6410   33.2720   45.5610 C   0  0  0  0  0  0  0  0  0  0  0  0
   59.3130   34.3030   44.8860 C   0  0  0  0  0  0  0  0  0  0  0  0
   59.7640   35.4260   45.5910 C   0  0  0  0  0  0  0  0  0  0  0  0
   59.5570   35.5200   46.9690 C   0  0  0  0  0  0  0  0  0  0  0  0
   58.8870   34.4970   47.6470 C   0  0  0  0  0  0  0  0  0  0  0  0
   58.4240   33.3770   46.9470 C   0  0  0  0  0  0  0  0  0  0  0  0
   57.7660   32.4010   47.6210 F   0  0  0  0  0  0  0  0  0  0  0  0
   63.9365   34.5624   46.7972 H   0  0  0  0  0  0  0  0  0  0  0  0
   64.0158   32.9745   45.9611 H   0  0  0  0  0  0  0  0  0  0  0  0
   62.4849   33.9140   45.9611 H   0  0  0  0  0  0  0  0  0  0  0  0
   63.8900   32.7606   49.6728 H   0  0  0  0  0  0  0  0  0  0  0  0
   64.5294   31.6899   48.3800 H   0  0  0  0  0  0  0  0  0  0  0  0
   64.9360   33.4396   48.3800 H   0  0  0  0  0  0  0  0  0  0  0  0
   62.4544   34.7648   48.7891 H   0  0  0  0  0  0  0  0  0  0  0  0
   61.1108   33.9686   47.8699 H   0  0  0  0  0  0  0  0  0  0  0  0
   62.3705   32.6948   50.3318 H   0  0  0  0  0  0  0  0  0  0  0  0
   60.9851   33.8632   50.4254 H   0  0  0  0  0  0  0  0  0  0  0  0
   60.2921   31.4362   50.4429 H   0  0  0  0  0  0  0  0  0  0  0  0
   59.5989   32.4375   49.0792 H   0  0  0  0  0  0  0  0  0  0  0  0
   62.0340   31.1440   48.4670 H   0  0  0  0  0  0  0  0  0  0  0  0
   60.1176   32.3142   47.0887 H   0  0  0  0  0  0  0  0  0  0  0  0
   61.3366   31.1505   46.4214 H   0  0  0  0  0  0  0  0  0  0  0  0
   58.5481   30.5862   47.3864 H   0  0  0  0  0  0  0  0  0  0  0  0
   60.9574   28.6549   46.5091 H   0  0  0  0  0  0  0  0  0  0  0  0
   58.9629   28.5704   48.7125 H   0  0  0  0  0  0  0  0  0  0  0  0
   60.4215   27.5685   48.4407 H   0  0  0  0  0  0  0  0  0  0  0  0
   57.2482   29.4891   43.2591 H   0  0  0  0  0  0  0  0  0  0  0  0
   56.7589   27.0613   42.8890 H   0  0  0  0  0  0  0  0  0  0  0  0
   57.1720   24.7270   43.4220 H   0  0  0  0  0  0  0  0  0  0  0  0
   58.3394   22.9911   44.7728 H   0  0  0  0  0  0  0  0  0  0  0  0
   59.9352   23.6609   46.5648 H   0  0  0  0  0  0  0  0  0  0  0  0
   60.3003   26.0694   47.0860 H   0  0  0  0  0  0  0  0  0  0  0  0
   59.4856   34.2289   43.8022 H   0  0  0  0  0  0  0  0  0  0  0  0
   60.2828   36.2363   45.0578 H   0  0  0  0  0  0  0  0  0  0  0  0
   59.9211   36.3990   47.5211 H   0  0  0  0  0  0  0  0  0  0  0  0
   58.7236   34.5726   48.7322 H   0  0  0  0  0  0  0  0  0  0  0  0
  1  2  1  0
  2  3  1  0
  2  4  1  0
  4  5  1  0
  5  6  1  0
  6  7  1  0
  7  8  1  0
  8  9  1  0
  9 10  1  0
 10 11  1  0
 11 12  1  0
 12 13  2  0
 10 14  1  0
 14 15  2  0
 15 16  1  0
 16 17  2  0
 17 18  1  0
 18 19  2  0
 19 20  1  0
 20 21  2  0
 21 22  1  0
 22 23  2  0
 15 24  1  0
 24 25  1  0
 25 26  2  0
 25 27  2  0
 25 28  1  0
 28 29  2  0
 29 30  1  0
 30 31  2  0
 31 32  1  0
 32 33  2  0
 33 34  1  0
 12  7  1  0
 23 14  1  0
 33 28  1  0
 24  9  1  0
 23 18  1  0
  1 35  1  0
  1 36  1  0
  1 37  1  0
  3 38  1  0
  3 39  1  0
  3 40  1  0
  4 41  1  0
  4 42  1  0
  5 43  1  0
  5 44  1  0
  6 45  1  0
  6 46  1  0
  7 47  1  6
  8 48  1  0
  8 49  1  0
  9 50  1  1
 10 51  1  6
 11 52  1  0
 11 53  1  0
 16 54  1  0
 17 55  1  0
 19 56  1  0
 20 57  1  0
 21 58  1  0
 22 59  1  0
 29 60  1  0
 30 61  1  0
 31 62  1  0
 32 63  1  0
M  CHG  1   7   1
M  END
>  <UniqueID>  (27) 
27

>  <SMILES>  (27) 
CN(C)CCC[N@@H+]1C[C@@H]2C(CC1=O)c1c(ccc3ccccc13)N2S(=O)(=O)c1ccccc1F

>  <Energy>  (27) 
112.64503736024518

>  <Genealogy>  (27) 
CN(C)CCC[NH+]1CC2C(CC1=O)c1c(ccc3ccccc13)N2S(=O)(=O)c1ccccc1F (protonated)
CN(C)CCC[N@@H+]1C[C@@H]2C(CC1=O)c1c(ccc3ccccc13)N2S(=O)(=O)c1ccccc1F (chirality)
CN(C)CCC[N@@H+]1C[C@@H]2C(CC1=O)c1c(ccc3ccccc13)N2S(=O)(=O)c1ccccc1F (3D coordinates assigned)
CN(C)CCC[N@@H+]1C[C@@H]2C(CC1=O)c1c(ccc3ccccc13)N2S(=O)(=O)c1ccccc1F (nonaromatic ring conformer: 112.64503736024518 kcal/mol)

>  <smiles>  (27) 
CN(C)CCCN1CC2C(CC1=O)c1c(ccc3ccccc13)N2S(=O)(=O)c1ccccc1F

>  <score_type>  (27) 
oracle

>  <origin>  (27) 
adg

>  <m_score__min__energy>  (27) 
-7.9699999999999998

>  <m_primary>  (27) 
energy

$$$$
27:0
     RDKit          3D

 57 59  0  0  0  0  0  0  0  0999 V2000
   64.9460   33.0840   49.3200 C   0  0  0  0  0  0  0  0  0  0  0  0
   63.9190   33.7040   48.5490 O   0  0  0  0  0  0  0  0  0  0  0  0
   62.5390   33.5750   48.7890 C   0  0  0  0  0  0  0  0  0  0  0  0
   61.6760   33.0800   47.7910 C   0  0  0  0  0  0  0  0  0  0  0  0
   60.3030   32.9460   48.0280 C   0  0  0  0  0  0  0  0  0  0  0  0
   59.4130   32.3840   46.9870 C   0  0  0  0  0  0  0  0  0  0  0  0
   58.5620   31.3160   47.3090 C   0  0  0  0  0  0  0  0  0  0  0  0
   57.7530   30.7710   46.3660 N   0  0  0  0  0  0  0  0  0  0  0  0
   57.7120   31.2390   45.0900 C   0  0  0  0  0  0  0  0  0  0  0  0
   56.8660   30.6330   44.1390 C   0  0  0  0  0  0  0  0  0  0  0  0
   56.0260   29.4730   44.5000 C   0  0  0  0  0  0  0  0  0  0  0  0
   54.8960   29.3430   43.9600 O   0  0  0  0  0  0  0  0  0  0  0  0
   56.4500   28.5020   45.4680 N   0  0  0  0  0  0  0  0  0  0  0  0
   57.1110   27.2390   45.1510 C   0  0  0  0  0  0  0  0  0  0  0  0
   58.6240   27.4470   44.9500 C   0  0  0  0  0  0  0  0  0  0  0  0
   59.1500   28.5420   45.8010 N   0  0  0  0  0  0  0  0  0  0  0  0
   59.5170   28.0430   47.1440 C   0  0  0  0  0  0  0  0  0  0  0  0
   60.3320   29.1580   45.1670 C   0  0  0  0  0  0  0  0  0  0  0  0
   56.8170   31.1440   42.8340 C   0  0  0  0  0  0  0  0  0  0  0  0
   57.6300   32.2160   42.4630 C   0  0  0  0  0  0  0  0  0  0  0  0
   58.4960   32.7980   43.3910 C   0  0  0  0  0  0  0  0  0  0  0  0
   58.5420   32.3220   44.7130 C   0  0  0  0  0  0  0  0  0  0  0  0
   59.4000   32.8910   45.6750 C   0  0  0  0  0  0  0  0  0  0  0  0
   60.1460   33.8630   45.3680 O   0  0  0  0  0  0  0  0  0  0  0  0
   59.7790   33.3210   49.2690 C   0  0  0  0  0  0  0  0  0  0  0  0
   60.6170   33.8290   50.2760 C   0  0  0  0  0  0  0  0  0  0  0  0
   60.1160   34.2240   51.5270 O   0  0  0  0  0  0  0  0  0  0  0  0
   58.9550   33.6750   52.1440 C   0  0  0  0  0  0  0  0  0  0  0  0
   61.9990   33.9470   50.0470 C   0  0  0  0  0  0  0  0  0  0  0  0
   62.7750   34.4400   51.1150 O   0  0  0  0  0  0  0  0  0  0  0  0
   63.1440   33.7270   52.2960 C   0  0  0  0  0  0  0  0  0  0  0  0
   64.7300   33.2144   50.3907 H   0  0  0  0  0  0  0  0  0  0  0  0
   64.9859   32.0108   49.0820 H   0  0  0  0  0  0  0  0  0  0  0  0
   65.9143   33.5486   49.0820 H   0  0  0  0  0  0  0  0  0  0  0  0
   62.0873   32.7948   46.8115 H   0  0  0  0  0  0  0  0  0  0  0  0
   58.5506   30.9174   48.3342 H   0  0  0  0  0  0  0  0  0  0  0  0
   56.9513   26.5312   45.9778 H   0  0  0  0  0  0  0  0  0  0  0  0
   56.6833   26.8424   44.2184 H   0  0  0  0  0  0  0  0  0  0  0  0
   59.1482   26.5145   45.2062 H   0  0  0  0  0  0  0  0  0  0  0  0
   58.7935   27.7214   43.8983 H   0  0  0  0  0  0  0  0  0  0  0  0
   58.4220   29.2890   45.9090 H   0  0  0  0  0  0  0  0  0  0  0  0
   59.0500   28.6779   47.9113 H   0  0  0  0  0  0  0  0  0  0  0  0
   59.1634   27.0078   47.2598 H   0  0  0  0  0  0  0  0  0  0  0  0
   60.6105   28.0721   47.2598 H   0  0  0  0  0  0  0  0  0  0  0  0
   61.0207   29.5169   45.9460 H   0  0  0  0  0  0  0  0  0  0  0  0
   60.8432   28.4116   44.5412 H   0  0  0  0  0  0  0  0  0  0  0  0
   60.0130   30.0046   44.5412 H   0  0  0  0  0  0  0  0  0  0  0  0
   56.1330   30.6968   42.0977 H   0  0  0  0  0  0  0  0  0  0  0  0
   57.5884   32.6043   41.4347 H   0  0  0  0  0  0  0  0  0  0  0  0
   59.1449   33.6324   43.0864 H   0  0  0  0  0  0  0  0  0  0  0  0
   58.7005   33.2173   49.4587 H   0  0  0  0  0  0  0  0  0  0  0  0
   59.0622   33.7257   53.2376 H   0  0  0  0  0  0  0  0  0  0  0  0
   58.0693   34.2497   51.8354 H   0  0  0  0  0  0  0  0  0  0  0  0
   58.8372   32.6258   51.8354 H   0  0  0  0  0  0  0  0  0  0  0  0
   62.8445   34.3057   53.1823 H   0  0  0  0  0  0  0  0  0  0  0  0
   62.6382   32.7503   52.3077 H   0  0  0  0  0  0  0  0  0  0  0  0
   64.2335   33.5759   52.3077 H   0  0  0  0  0  0  0  0  0  0  0  0
  1  2  1  0
  2  3  1  0
  3  4  2  0
  4  5  1  0
  5  6  1  0
  6  7  2  0
  7  8  1  0
  8  9  1  0
  9 10  2  0
 10 11  1  0
 11 12  2  0
 11 13  1  0
 13 14  1  0
 14 15  1  0
 15 16  1  0
 16 17  1  0
 16 18  1  0
 10 19  1  0
 19 20  2  0
 20 21  1  0
 21 22  2  0
 22 23  1  0
 23 24  2  0
  5 25  2  0
 25 26  1  0
 26 27  1  0
 27 28  1  0
 26 29  2  0
 29 30  1  0
 30 31  1  0
 29  3  1  0
 23  6  1  0
 22  9  1  0
  1 32  1  0
  1 33  1  0
  1 34  1  0
  4 35  1  0
  7 36  1  0
 14 37  1  0
 14 38  1  0
 15 39  1  0
 15 40  1  0
 16 41  1  0
 17 42  1  0
 17 43  1  0
 17 44  1  0
 18 45  1  0
 18 46  1  0
 18 47  1  0
 19 48  1  0
 20 49  1  0
 21 50  1  0
 25 51  1  0
 28 52  1  0
 28 53  1  0
 28 54  1  0
 31 55  1  0
 31 56  1  0
 31 57  1  0
M  CHG  3   8  -1  13  -1  16   1
M  END
>  <UniqueID>  (28) 
28

>  <SMILES>  (28) 
COc1cc(-c2c[n-]c3c(C(=O)[N-]CC[NH+](C)C)cccc3c2=O)cc(OC)c1OC

>  <Energy>  (28) 
75.73349654306973

>  <Genealogy>  (28) 
COc1cc(-c2c[n-]c3c(C(=O)[N-]CC[NH+](C)C)cccc3c2=O)cc(OC)c1OC (protonated)
COc1cc(-c2c[n-]c3c(C(=O)[N-]CC[NH+](C)C)cccc3c2=O)cc(OC)c1OC (3D coordinates assigned)
COc1cc(-c2c[n-]c3c(C(=O)[N-]CC[NH+](C)C)cccc3c2=O)cc(OC)c1OC (optimized conformer: 75.73349654306973 kcal/mol)

>  <smiles>  (28) 
COc1cc(-c2c[nH]c3c(C(=O)NCCN(C)C)cccc3c2=O)cc(OC)c1OC

>  <score_type>  (28) 
oracle

>  <origin>  (28) 
adg

>  <m_score__min__energy>  (28) 
-8.1600000000000001

>  <m_primary>  (28) 
energy

$$$$
28:0
     RDKit          3D

 42 43  0  0  0  0  0  0  0  0999 V2000
   63.7550   33.3850   47.1130 C   0  0  0  0  0  0  0  0  0  0  0  0
   62.6690   33.3380   48.1520 C   0  0  0  0  0  0  0  0  0  0  0  0
   62.9850   33.0090   49.4810 C   0  0  0  0  0  0  0  0  0  0  0  0
   61.9870   32.9600   50.4560 C   0  0  0  0  0  0  0  0  0  0  0  0
   60.6590   33.2390   50.1170 C   0  0  0  0  0  0  0  0  0  0  0  0
   59.3910   33.1740   51.3440 S   0  0  0  0  0  0  0  0  0  0  0  0
   59.9620   32.5970   52.6090 O   0  0  0  0  0  0  0  0  0  0  0  0
   58.9170   34.5700   51.6430 O   0  0  0  0  0  0  0  0  0  0  0  0
   58.0340   32.2070   50.8200 N   0  0  0  0  0  0  0  0  0  0  0  0
   57.1760   31.8840   51.9680 C   0  0  0  0  0  0  0  0  0  0  0  0
   58.5180   30.9750   50.1870 C   0  0  0  0  0  0  0  0  0  0  0  0
   60.3360   33.5760   48.7970 C   0  0  0  0  0  0  0  0  0  0  0  0
   61.3330   33.6300   47.8060 C   0  0  0  0  0  0  0  0  0  0  0  0
   61.0210   33.9820   46.4480 N   0  0  0  0  0  0  0  0  0  0  0  0
   59.4270   34.2690   45.8280 S   0  0  0  0  0  0  0  0  0  0  0  0
   58.6740   35.1410   46.7940 O   0  0  0  0  0  0  0  0  0  0  0  0
   59.5310   34.9810   44.5100 O   0  0  0  0  0  0  0  0  0  0  0  0
   58.5950   32.7360   45.5850 C   0  0  0  0  0  0  0  0  0  0  0  0
   57.6260   32.6000   44.5820 C   0  0  0  0  0  0  0  0  0  0  0  0
   56.9540   31.3850   44.4130 C   0  0  0  0  0  0  0  0  0  0  0  0
   57.2460   30.2880   45.2430 C   0  0  0  0  0  0  0  0  0  0  0  0
   56.5340   29.0040   45.0600 C   0  0  0  0  0  0  0  0  0  0  0  0
   57.1670   27.9140   45.0650 O   0  0  0  0  0  0  0  0  0  0  0  0
   55.1570   28.9820   44.8790 O   0  0  0  0  0  0  0  0  0  0  0  0
   58.2200   30.4330   46.2480 C   0  0  0  0  0  0  0  0  0  0  0  0
   58.8880   31.6490   46.4160 C   0  0  0  0  0  0  0  0  0  0  0  0
   64.7357   33.4274   47.6094 H   0  0  0  0  0  0  0  0  0  0  0  0
   63.7007   32.4837   46.4848 H   0  0  0  0  0  0  0  0  0  0  0  0
   63.6230   34.2783   46.4848 H   0  0  0  0  0  0  0  0  0  0  0  0
   64.0271   32.7883   49.7554 H   0  0  0  0  0  0  0  0  0  0  0  0
   62.2457   32.7013   51.4934 H   0  0  0  0  0  0  0  0  0  0  0  0
   57.7203   32.0889   52.9017 H   0  0  0  0  0  0  0  0  0  0  0  0
   56.2662   32.5012   51.9309 H   0  0  0  0  0  0  0  0  0  0  0  0
   56.8991   30.8201   51.9309 H   0  0  0  0  0  0  0  0  0  0  0  0
   58.8026   30.2507   50.9644 H   0  0  0  0  0  0  0  0  0  0  0  0
   57.7212   30.5469   49.5610 H   0  0  0  0  0  0  0  0  0  0  0  0
   59.3931   31.2037   49.5610 H   0  0  0  0  0  0  0  0  0  0  0  0
   59.2923   33.8008   48.5322 H   0  0  0  0  0  0  0  0  0  0  0  0
   57.3931   33.4514   43.9255 H   0  0  0  0  0  0  0  0  0  0  0  0
   56.1921   31.2869   43.6257 H   0  0  0  0  0  0  0  0  0  0  0  0
   58.4572   29.5838   46.9057 H   0  0  0  0  0  0  0  0  0  0  0  0
   59.6475   31.7521   47.2050 H   0  0  0  0  0  0  0  0  0  0  0  0
  1  2  1  0
  2  3  2  0
  3  4  1  0
  4  5  2  0
  5  6  1  0
  6  7  2  0
  6  8  2  0
  6  9  1  0
  9 10  1  0
  9 11  1  0
  5 12  1  0
 12 13  2  0
 13 14  1  0
 14 15  1  0
 15 16  2  0
 15 17  2  0
 15 18  1  0
 18 19  2  0
 19 20  1  0
 20 21  2  0
 21 22  1  0
 22 23  2  0
 22 24  1  0
 21 25  1  0
 25 26  2  0
 13  2  1  0
 26 18  1  0
  1 27  1  0
  1 28  1  0
  1 29  1  0
  3 30  1  0
  4 31  1  0
 10 32  1  0
 10 33  1  0
 10 34  1  0
 11 35  1  0
 11 36  1  0
 11 37  1  0
 12 38  1  0
 19 39  1  0
 20 40  1  0
 25 41  1  0
 26 42  1  0
M  CHG  2  14  -1  24  -1
M  END
>  <UniqueID>  (29) 
29

>  <SMILES>  (29) 
Cc1ccc(S(=O)(=O)N(C)C)cc1[N-]S(=O)(=O)c1ccc(C(=O)[O-])cc1

>  <Energy>  (29) 
42.48636666923827

>  <Genealogy>  (29) 
Cc1ccc(S(=O)(=O)N(C)C)cc1[N-]S(=O)(=O)c1ccc(C(=O)[O-])cc1 (protonated)
Cc1ccc(S(=O)(=O)N(C)C)cc1[N-]S(=O)(=O)c1ccc(C(=O)[O-])cc1 (3D coordinates assigned)
Cc1ccc(S(=O)(=O)N(C)C)cc1[N-]S(=O)(=O)c1ccc(C(=O)[O-])cc1 (optimized conformer: 42.48636666923827 kcal/mol)

>  <smiles>  (29) 
Cc1ccc(S(=O)(=O)N(C)C)cc1NS(=O)(=O)c1ccc(C(=O)O)cc1

>  <score_type>  (29) 
oracle

>  <origin>  (29) 
adg

>  <m_score__min__energy>  (29) 
-11.470000000000001

>  <m_primary>  (29) 
energy

$$$$
29:0
     RDKit          3D

 45 47  0  0  0  0  0  0  0  0999 V2000
   57.4290   34.0490   45.4440 C   0  0  0  0  0  0  0  0  0  0  0  0
   58.3250   33.1250   44.6500 C   0  0  0  0  0  0  0  0  0  0  0  0
   57.5970   32.0640   44.0670 O   0  0  0  0  0  0  0  0  0  0  0  0
   57.5500   30.7780   44.6390 C   0  0  0  0  0  0  0  0  0  0  0  0
   56.7020   29.8500   44.1060 C   0  0  0  0  0  0  0  0  0  0  0  0
   56.6590   28.6080   44.6660 C   0  0  0  0  0  0  0  0  0  0  0  0
   57.4830   28.3260   45.7680 C   0  0  0  0  0  0  0  0  0  0  0  0
   57.3270   26.9720   46.2510 N   0  0  0  0  0  0  0  0  0  0  0  0
   58.3600   26.2330   46.6320 C   0  0  0  0  0  0  0  0  0  0  0  0
   59.6820   26.6050   46.6540 O   0  0  0  0  0  0  0  0  0  0  0  0
   57.9100   24.9930   47.0160 C   0  0  0  0  0  0  0  0  0  0  0  0
   56.5450   24.9410   46.8770 C   0  0  0  0  0  0  0  0  0  0  0  0
   55.5290   24.0600   47.0150 N   0  0  0  0  0  0  0  0  0  0  0  0
   54.4880   23.1570   47.1570 C   0  0  0  0  0  0  0  0  0  0  0  0
   53.9500   22.6590   45.7970 C   0  0  0  0  0  0  0  0  0  0  0  0
   55.1280   22.5810   44.8850 C   0  0  0  0  0  0  0  0  0  0  0  0
   55.4270   23.4690   43.8880 C   0  0  0  0  0  0  0  0  0  0  0  0
   56.5830   23.2410   43.1450 C   0  0  0  0  0  0  0  0  0  0  0  0
   57.4130   22.1810   43.3730 C   0  0  0  0  0  0  0  0  0  0  0  0
   57.1080   21.2720   44.3910 C   0  0  0  0  0  0  0  0  0  0  0  0
   55.9750   21.4800   45.1340 C   0  0  0  0  0  0  0  0  0  0  0  0
   56.2400   26.2600   46.3760 C   0  0  0  0  0  0  0  0  0  0  0  0
   54.9550   26.7130   46.0690 O   0  0  0  0  0  0  0  0  0  0  0  0
   58.3290   29.2380   46.3080 C   0  0  0  0  0  0  0  0  0  0  0  0
   58.3790   30.5130   45.7380 C   0  0  0  0  0  0  0  0  0  0  0  0
   57.5908   33.8821   46.5192 H   0  0  0  0  0  0  0  0  0  0  0  0
   57.6670   35.0937   45.1952 H   0  0  0  0  0  0  0  0  0  0  0  0
   56.3775   33.8432   45.1952 H   0  0  0  0  0  0  0  0  0  0  0  0
   58.8144   33.7023   43.8518 H   0  0  0  0  0  0  0  0  0  0  0  0
   59.0678   32.6939   45.3373 H   0  0  0  0  0  0  0  0  0  0  0  0
   56.0671   30.0994   43.2431 H   0  0  0  0  0  0  0  0  0  0  0  0
   55.9878   27.8367   44.2602 H   0  0  0  0  0  0  0  0  0  0  0  0
   58.5442   24.1704   47.3782 H   0  0  0  0  0  0  0  0  0  0  0  0
   54.6220   25.0040   46.7240 H   0  0  0  0  0  0  0  0  0  0  0  0
   54.8473   22.2915   47.7330 H   0  0  0  0  0  0  0  0  0  0  0  0
   53.6654   23.6724   47.6744 H   0  0  0  0  0  0  0  0  0  0  0  0
   53.4891   21.6666   45.9098 H   0  0  0  0  0  0  0  0  0  0  0  0
   53.1799   23.3362   45.3990 H   0  0  0  0  0  0  0  0  0  0  0  0
   54.7776   24.3323   43.6805 H   0  0  0  0  0  0  0  0  0  0  0  0
   56.8383   23.9454   42.3397 H   0  0  0  0  0  0  0  0  0  0  0  0
   58.3158   22.0430   42.7598 H   0  0  0  0  0  0  0  0  0  0  0  0
   57.7619   20.4103   44.5908 H   0  0  0  0  0  0  0  0  0  0  0  0
   55.7212   20.7753   45.9396 H   0  0  0  0  0  0  0  0  0  0  0  0
   58.9594   28.9809   47.1720 H   0  0  0  0  0  0  0  0  0  0  0  0
   59.0497   31.2866   46.1402 H   0  0  0  0  0  0  0  0  0  0  0  0
  1  2  1  0
  2  3  1  0
  3  4  1  0
  4  5  2  0
  5  6  1  0
  6  7  2  0
  7  8  1  0
  8  9  1  0
  9 10  1  0
  9 11  2  0
 11 12  1  0
 12 13  1  0
 13 14  1  0
 14 15  1  0
 15 16  1  0
 16 17  2  0
 17 18  1  0
 18 19  2  0
 19 20  1  0
 20 21  2  0
 12 22  2  0
 22 23  1  0
  7 24  1  0
 24 25  2  0
 25  4  1  0
 22  8  1  0
 21 16  1  0
  1 26  1  0
  1 27  1  0
  1 28  1  0
  2 29  1  0
  2 30  1  0
  5 31  1  0
  6 32  1  0
 11 33  1  0
 13 34  1  0
 14 35  1  0
 14 36  1  0
 15 37  1  0
 15 38  1  0
 17 39  1  0
 18 40  1  0
 19 41  1  0
 20 42  1  0
 21 43  1  0
 24 44  1  0
 25 45  1  0
M  CHG  2  10  -1  23  -1
M  END
>  <UniqueID>  (30) 
30

>  <SMILES>  (30) 
CCOc1ccc(-n2c([O-])cc(NCCc3ccccc3)c2[O-])cc1

>  <Energy>  (30) 
250.04325651167701

>  <Genealogy>  (30) 
CCOc1ccc(-n2c([O-])cc(NCCc3ccccc3)c2[O-])cc1 (protonated)
CCOc1ccc(-n2c([O-])cc(NCCc3ccccc3)c2[O-])cc1 (3D coordinates assigned)
CCOc1ccc(-n2c([O-])cc(NCCc3ccccc3)c2[O-])cc1 (optimized conformer: 250.04325651167701 kcal/mol)

>  <smiles>  (30) 
CCOc1ccc(-n2c(O)cc(NCCc3ccccc3)c2O)cc1

>  <score_type>  (30) 
oracle

>  <origin>  (30) 
adg

>  <m_score__min__energy>  (30) 
-11.630000000000001

>  <m_primary>  (30) 
energy

$$$$
30:0
     RDKit          3D

 22 23  0  0  0  0  0  0  0  0999 V2000
   57.3760   23.5970   47.6140 O   0  0  0  0  0  0  0  0  0  0  0  0
   56.5330   24.2890   46.9860 C   0  0  0  0  0  0  0  0  0  0  0  0
   56.8190   25.6160   46.6560 C   0  0  0  0  0  0  0  0  0  0  0  0
   55.8620   26.3530   45.9500 C   0  0  0  0  0  0  0  0  0  0  0  0
   56.1150   27.7290   45.6210 N   0  0  0  0  0  0  0  0  0  0  0  0
   57.4250   28.2680   45.3700 C   0  0  0  0  0  0  0  0  0  0  0  0
   57.8090   29.4640   45.9960 C   0  0  0  0  0  0  0  0  0  0  0  0
   59.0860   29.9950   45.7850 C   0  0  0  0  0  0  0  0  0  0  0  0
   59.9930   29.3270   44.9590 C   0  0  0  0  0  0  0  0  0  0  0  0
   59.6300   28.1240   44.3500 C   0  0  0  0  0  0  0  0  0  0  0  0
   58.3540   27.5900   44.5580 C   0  0  0  0  0  0  0  0  0  0  0  0
   54.6780   25.7670   45.6240 N   0  0  0  0  0  0  0  0  0  0  0  0
   54.4160   24.4750   45.9520 C   0  0  0  0  0  0  0  0  0  0  0  0
   52.9900   23.8020   45.5380 S   0  0  0  0  0  0  0  0  0  0  0  0
   55.3420   23.7460   46.6280 N   0  0  0  0  0  0  0  0  0  0  0  0
   57.7772   26.0722   46.9454 H   0  0  0  0  0  0  0  0  0  0  0  0
   55.2930   28.3580   45.4730 H   0  0  0  0  0  0  0  0  0  0  0  0
   57.1017   29.9870   46.6565 H   0  0  0  0  0  0  0  0  0  0  0  0
   59.3759   30.9389   46.2697 H   0  0  0  0  0  0  0  0  0  0  0  0
   60.9943   29.7491   44.7881 H   0  0  0  0  0  0  0  0  0  0  0  0
   60.3483   27.5956   43.7059 H   0  0  0  0  0  0  0  0  0  0  0  0
   58.0753   26.6366   44.0853 H   0  0  0  0  0  0  0  0  0  0  0  0
  1  2  2  0
  2  3  1  0
  3  4  2  0
  4  5  1  0
  5  6  1  0
  6  7  2  0
  7  8  1  0
  8  9  2  0
  9 10  1  0
 10 11  2  0
  4 12  1  0
 12 13  1  0
 13 14  2  0
 13 15  1  0
 15  2  1  0
 11  6  1  0
  3 16  1  0
  5 17  1  0
  7 18  1  0
  8 19  1  0
  9 20  1  0
 10 21  1  0
 11 22  1  0
M  CHG  2  12  -1  15  -1
M  END
>  <UniqueID>  (31) 
31

>  <SMILES>  (31) 
O=c1cc(Nc2ccccc2)[n-]c(=S)[n-]1

>  <Energy>  (31) 
27.397042096947985

>  <Genealogy>  (31) 
O=c1cc(Nc2ccccc2)[n-]c(=S)[n-]1 (protonated)
O=c1cc(Nc2ccccc2)[n-]c(=S)[n-]1 (3D coordinates assigned)
O=c1cc(Nc2ccccc2)[n-]c(=S)[n-]1 (optimized conformer: 27.397042096947985 kcal/mol)

>  <smiles>  (31) 
O=c1cc(Nc2ccccc2)[nH]c(=S)[nH]1

>  <score_type>  (31) 
oracle

>  <origin>  (31) 
adg

>  <m_score__min__energy>  (31) 
-9.75

>  <m_primary>  (31) 
energy

$$$$
31:0
     RDKit          3D

 47 50  0  0  0  0  0  0  0  0999 V2000
   58.2070   32.7280   43.3350 C   0  0  0  0  0  0  0  0  0  0  0  0
   57.4020   32.3390   44.3370 C   0  0  0  0  0  0  0  0  0  0  0  0
   56.5580   31.1060   44.1390 C   0  0  0  0  0  0  0  0  0  0  0  0
   57.4890   33.0180   45.6970 C   0  0  0  0  0  0  0  0  0  0  0  0
   58.7140   32.6690   46.5900 C   0  0  2  0  0  0  0  0  0  0  0  0
   60.0620   33.1760   46.0510 C   0  0  0  0  0  0  0  0  0  0  0  0
   61.2860   33.1540   46.9770 C   0  0  0  0  0  0  0  0  0  0  0  0
   62.4160   33.8170   46.4540 C   0  0  0  0  0  0  0  0  0  0  0  0
   63.6260   33.8520   47.1440 C   0  0  0  0  0  0  0  0  0  0  0  0
   63.7430   33.2220   48.3750 C   0  0  0  0  0  0  0  0  0  0  0  0
   62.6530   32.5510   48.9230 C   0  0  0  0  0  0  0  0  0  0  0  0
   61.4180   32.4870   48.2460 C   0  0  0  0  0  0  0  0  0  0  0  0
   60.2940   31.7710   48.9700 C   0  0  0  0  0  0  0  0  0  0  0  0
   59.5800   30.8250   48.0640 C   0  0  0  0  0  0  0  0  0  0  0  0
   58.8350   31.2170   46.9690 C   0  0  0  0  0  0  0  0  0  0  0  0
   58.5270   30.1440   46.1990 N   0  0  0  0  0  0  0  0  0  0  0  0
   59.0540   29.0790   46.8290 C   0  0  0  0  0  0  0  0  0  0  0  0
   59.0400   27.7540   46.3950 C   0  0  0  0  0  0  0  0  0  0  0  0
   59.7200   26.7900   47.1630 C   0  0  0  0  0  0  0  0  0  0  0  0
   59.6940   25.4560   46.7260 O   0  0  0  0  0  0  0  0  0  0  0  0
   58.6870   24.9070   45.8840 C   0  0  0  0  0  0  0  0  0  0  0  0
   60.4100   27.1900   48.3420 C   0  0  0  0  0  0  0  0  0  0  0  0
   60.4190   28.5360   48.7450 C   0  0  0  0  0  0  0  0  0  0  0  0
   59.7160   29.4550   47.9670 C   0  0  0  0  0  0  0  0  0  0  0  0
   58.8348   33.6239   43.4501 H   0  0  0  0  0  0  0  0  0  0  0  0
   58.2386   32.1508   42.3992 H   0  0  0  0  0  0  0  0  0  0  0  0
   56.2757   30.6936   45.1189 H   0  0  0  0  0  0  0  0  0  0  0  0
   55.6500   31.3696   43.5768 H   0  0  0  0  0  0  0  0  0  0  0  0
   57.1323   30.3549   43.5768 H   0  0  0  0  0  0  0  0  0  0  0  0
   57.5047   34.1042   45.5239 H   0  0  0  0  0  0  0  0  0  0  0  0
   56.6169   32.6466   46.2551 H   0  0  0  0  0  0  0  0  0  0  0  0
   58.4827   33.2290   47.5081 H   0  0  0  0  0  0  0  0  0  0  0  0
   60.3103   32.5618   45.1729 H   0  0  0  0  0  0  0  0  0  0  0  0
   59.8882   34.2464   45.8666 H   0  0  0  0  0  0  0  0  0  0  0  0
   62.3401   34.3185   45.4779 H   0  0  0  0  0  0  0  0  0  0  0  0
   64.4894   34.3796   46.7125 H   0  0  0  0  0  0  0  0  0  0  0  0
   64.6987   33.2528   48.9188 H   0  0  0  0  0  0  0  0  0  0  0  0
   62.7574   32.0616   49.9026 H   0  0  0  0  0  0  0  0  0  0  0  0
   60.7146   31.2079   49.8162 H   0  0  0  0  0  0  0  0  0  0  0  0
   59.5736   32.5239   49.3224 H   0  0  0  0  0  0  0  0  0  0  0  0
   58.0610   30.1260   45.2710 H   0  0  0  0  0  0  0  0  0  0  0  0
   58.5101   27.4687   45.4742 H   0  0  0  0  0  0  0  0  0  0  0  0
   57.8886   24.4717   46.5030 H   0  0  0  0  0  0  0  0  0  0  0  0
   58.2670   25.7010   45.2490 H   0  0  0  0  0  0  0  0  0  0  0  0
   59.1268   24.1238   45.2490 H   0  0  0  0  0  0  0  0  0  0  0  0
   60.9414   26.4379   48.9436 H   0  0  0  0  0  0  0  0  0  0  0  0
   60.9636   28.8547   49.6460 H   0  0  0  0  0  0  0  0  0  0  0  0
  1  2  2  0
  2  3  1  0
  2  4  1  0
  4  5  1  0
  5  6  1  0
  6  7  1  0
  7  8  2  0
  8  9  1  0
  9 10  2  0
 10 11  1  0
 11 12  2  0
 12 13  1  0
 13 14  1  0
 14 15  2  0
 15 16  1  0
 16 17  1  0
 17 18  2  0
 18 19  1  0
 19 20  1  0
 20 21  1  0
 19 22  2  0
 22 23  1  0
 23 24  2  0
 15  5  1  0
 24 17  1  0
 12  7  1  0
 24 14  1  0
  1 25  1  0
  1 26  1  0
  3 27  1  0
  3 28  1  0
  3 29  1  0
  4 30  1  0
  4 31  1  0
  5 32  1  1
  6 33  1  0
  6 34  1  0
  8 35  1  0
  9 36  1  0
 10 37  1  0
 11 38  1  0
 13 39  1  0
 13 40  1  0
 16 41  1  0
 18 42  1  0
 21 43  1  0
 21 44  1  0
 21 45  1  0
 22 46  1  0
 23 47  1  0
M  END
>  <UniqueID>  (32) 
32

>  <SMILES>  (32) 
C=C(C)C[C@@H]1Cc2ccccc2Cc2c1[nH]c1cc(OC)ccc21

>  <Energy>  (32) 
97.49153749037613

>  <Genealogy>  (32) 
C=C(C)C[C@@H]1Cc2ccccc2Cc2c1[nH]c1cc(OC)ccc21 (chirality)
C=C(C)C[C@@H]1Cc2ccccc2Cc2c1[nH]c1cc(OC)ccc21 (3D coordinates assigned)
C=C(C)C[C@@H]1Cc2ccccc2Cc2c1[nH]c1cc(OC)ccc21 (nonaromatic ring conformer: 97.49153749037613 kcal/mol)

>  <smiles>  (32) 
C=C(C)CC1Cc2ccccc2Cc2c1[nH]c1cc(OC)ccc21

>  <score_type>  (32) 
oracle

>  <origin>  (32) 
adg

>  <m_score__min__energy>  (32) 
-5.9800000000000004

>  <m_primary>  (32) 
energy

$$$$
32:0
     RDKit          3D

 27 28  0  0  0  0  0  0  0  0999 V2000
   59.1900   36.2420   47.5330 H   0  0  0  0  0  0  0  0  0  0  0  0
   59.3490   35.7240   46.6770 O   0  0  0  0  0  0  0  0  0  0  0  0
   59.7810   34.4000   46.6960 C   0  0  0  0  0  0  0  0  0  0  0  0
   58.8600   33.3700   46.4850 C   0  0  0  0  0  0  0  0  0  0  0  0
   57.8014   33.6096   46.3065 H   0  0  0  0  0  0  0  0  0  0  0  0
   59.2790   32.0370   46.5000 C   0  0  0  0  0  0  0  0  0  0  0  0
   58.5453   31.2329   46.3414 H   0  0  0  0  0  0  0  0  0  0  0  0
   60.6300   31.7150   46.7160 C   0  0  0  0  0  0  0  0  0  0  0  0
   61.0270   30.2860   46.7360 C   0  0  0  0  0  0  0  0  0  0  0  0
   61.6590   29.9319   47.5638 H   0  0  0  0  0  0  0  0  0  0  0  0
   60.6550   29.4020   45.7960 C   0  0  0  0  0  0  0  0  0  0  0  0
   61.3969   29.0982   45.0428 H   0  0  0  0  0  0  0  0  0  0  0  0
   59.2950   28.8140   45.7210 C   0  0  0  0  0  0  0  0  0  0  0  0
   58.2300   29.4590   45.0610 C   0  0  0  0  0  0  0  0  0  0  0  0
   58.3987   30.4288   44.5700 H   0  0  0  0  0  0  0  0  0  0  0  0
   56.9590   28.8740   45.0260 C   0  0  0  0  0  0  0  0  0  0  0  0
   55.5360   29.7760   44.1180 Br  0  0  0  0  0  0  0  0  0  0  0  0
   56.7350   27.6450   45.6580 C   0  0  0  0  0  0  0  0  0  0  0  0
   55.4720   27.0630   45.6220 O   0  0  0  0  0  0  0  0  0  0  0  0
   57.7820   27.0050   46.3310 C   0  0  0  0  0  0  0  0  0  0  0  0
   57.4990   25.3290   47.2120 Br  0  0  0  0  0  0  0  0  0  0  0  0
   59.0520   27.5910   46.3660 C   0  0  0  0  0  0  0  0  0  0  0  0
   59.8687   27.0881   46.9046 H   0  0  0  0  0  0  0  0  0  0  0  0
   61.5510   32.7590   46.9430 C   0  0  0  0  0  0  0  0  0  0  0  0
   62.6086   32.5241   47.1335 H   0  0  0  0  0  0  0  0  0  0  0  0
   61.1260   34.0910   46.9270 C   0  0  0  0  0  0  0  0  0  0  0  0
   61.8522   34.8996   47.0968 H   0  0  0  0  0  0  0  0  0  0  0  0
  1  2  1  0
  2  3  1  0
  3  4  2  0
  4  5  1  0
  4  6  1  0
  6  7  1  0
  6  8  2  0
  8  9  1  0
  9 10  1  0
  9 11  2  0
 11 12  1  0
 11 13  1  0
 13 14  2  0
 14 15  1  0
 14 16  1  0
 16 17  1  0
 16 18  2  0
 18 19  1  0
 18 20  1  0
 20 21  1  0
 20 22  2  0
 22 23  1  0
  8 24  1  0
 24 25  1  0
 24 26  2  0
 26 27  1  0
 26  3  1  0
 22 13  1  0
M  CHG  1  19  -1
M  END
>  <UniqueID>  (33) 
33

>  <SMILES>  (33) 
[O-]c1c(Br)cc(/C=C/c2ccc(O)cc2)cc1Br

>  <Energy>  (33) 
32.94345534712489

>  <Genealogy>  (33) 
[O-]c1c(Br)cc(C=Cc2ccc(O)cc2)cc1Br (protonated)
[O-]c1c(Br)cc(/C=C/c2ccc(O)cc2)cc1Br (cis-trans isomerization)
[O-]c1c(Br)cc(/C=C/c2ccc(O)cc2)cc1Br (3D coordinates assigned)
[O-]c1c(Br)cc(/C=C/c2ccc(O)cc2)cc1Br (optimized conformer: 32.94345534712489 kcal/mol)

>  <smiles>  (33) 
Oc1ccc(C=Cc2cc(Br)c(O)c(Br)c2)cc1

>  <score_type>  (33) 
oracle

>  <origin>  (33) 
adg

>  <m_score__min__energy>  (33) 
-9.9600000000000009

>  <m_primary>  (33) 
energy

$$$$
33:0
     RDKit          3D

 25 26  0  0  0  0  0  0  0  0999 V2000
   55.5320   29.1790   44.7910 O   0  0  0  0  0  0  0  0  0  0  0  0
   56.6040   28.8870   45.3830 C   0  0  0  0  0  0  0  0  0  0  0  0
   57.3560   29.9380   46.0020 N   0  0  0  0  0  0  0  0  0  0  0  0
   57.7260   31.1860   45.3950 C   0  0  0  0  0  0  0  0  0  0  0  0
   57.7590   31.2680   43.9960 C   0  0  0  0  0  0  0  0  0  0  0  0
   58.1120   32.4640   43.3660 C   0  0  0  0  0  0  0  0  0  0  0  0
   58.4550   33.5830   44.1300 C   0  0  0  0  0  0  0  0  0  0  0  0
   58.4550   33.5020   45.5250 C   0  0  0  0  0  0  0  0  0  0  0  0
   58.1020   32.3070   46.1610 C   0  0  0  0  0  0  0  0  0  0  0  0
   58.1800   32.2380   47.5140 F   0  0  0  0  0  0  0  0  0  0  0  0
   57.0310   27.4690   45.4470 C   0  0  0  0  0  0  0  0  0  0  0  0
   58.3640   27.1390   45.1470 C   0  0  0  0  0  0  0  0  0  0  0  0
   58.7990   25.8120   45.2180 C   0  0  0  0  0  0  0  0  0  0  0  0
   57.9050   24.8000   45.5760 C   0  0  0  0  0  0  0  0  0  0  0  0
   58.4540   23.1360   45.6670 Cl  0  0  0  0  0  0  0  0  0  0  0  0
   56.5720   25.1130   45.8530 C   0  0  0  0  0  0  0  0  0  0  0  0
   56.1280   26.4380   45.7790 C   0  0  0  0  0  0  0  0  0  0  0  0
   54.7840   26.7120   46.0110 O   0  0  0  0  0  0  0  0  0  0  0  0
   57.5054   30.3853   43.3905 H   0  0  0  0  0  0  0  0  0  0  0  0
   58.1200   32.5250   42.2677 H   0  0  0  0  0  0  0  0  0  0  0  0
   58.7248   34.5268   43.6335 H   0  0  0  0  0  0  0  0  0  0  0  0
   58.7335   34.3808   46.1251 H   0  0  0  0  0  0  0  0  0  0  0  0
   59.0699   27.9302   44.8543 H   0  0  0  0  0  0  0  0  0  0  0  0
   59.8466   25.5646   44.9916 H   0  0  0  0  0  0  0  0  0  0  0  0
   55.8683   24.3144   46.1305 H   0  0  0  0  0  0  0  0  0  0  0  0
  1  2  2  0
  2  3  1  0
  3  4  1  0
  4  5  2  0
  5  6  1  0
  6  7  2  0
  7  8  1  0
  8  9  2  0
  9 10  1  0
  2 11  1  0
 11 12  2  0
 12 13  1  0
 13 14  2  0
 14 15  1  0
 14 16  1  0
 16 17  2  0
 17 18  1  0
  9  4  1  0
 17 11  1  0
  5 19  1  0
  6 20  1  0
  7 21  1  0
  8 22  1  0
 12 23  1  0
 13 24  1  0
 16 25  1  0
M  CHG  2   3  -1  18  -1
M  END
>  <UniqueID>  (34) 
34

>  <SMILES>  (34) 
O=C([N-]c1ccccc1F)c1ccc(Cl)cc1[O-]

>  <Energy>  (34) 
35.88414404765113

>  <Genealogy>  (34) 
O=C([N-]c1ccccc1F)c1ccc(Cl)cc1[O-] (protonated)
O=C([N-]c1ccccc1F)c1ccc(Cl)cc1[O-] (3D coordinates assigned)
O=C([N-]c1ccccc1F)c1ccc(Cl)cc1[O-] (optimized conformer: 35.88414404765113 kcal/mol)

>  <smiles>  (34) 
O=C(Nc1ccccc1F)c1ccc(Cl)cc1O

>  <score_type>  (34) 
oracle

>  <origin>  (34) 
adg

>  <m_score__min__energy>  (34) 
-12.210000000000001

>  <m_primary>  (34) 
energy

$$$$
34:0
     RDKit          3D

 73 76  0  0  1  0  0  0  0  0999 V2000
   56.3370   30.2070   44.0870 C   0  0  0  0  0  0  0  0  0  0  0  0
   57.5830   30.2350   44.9690 C   0  0  0  0  0  0  0  0  0  0  0  0
   57.8650   28.8370   45.3370 C   0  0  0  0  0  0  0  0  0  0  0  0
   56.8710   27.8830   45.3410 C   0  0  0  0  0  0  0  0  0  0  0  0
   57.1290   26.5720   45.6860 C   0  0  0  0  0  0  0  0  0  0  0  0
   55.8740   25.3430   45.6960 S   0  0  0  0  0  0  0  0  0  0  0  0
   56.0350   24.3240   44.3120 N   0  0  0  0  0  0  0  0  0  0  0  0
   56.0000   24.4830   46.9200 O   0  0  0  0  0  0  0  0  0  0  0  0
   54.5090   25.9680   45.7630 O   0  0  0  0  0  0  0  0  0  0  0  0
   58.4210   26.1930   46.0380 C   0  0  0  0  0  0  0  0  0  0  0  0
   59.4290   27.1520   46.0350 C   0  0  0  0  0  0  0  0  0  0  0  0
   59.1460   28.4720   45.6830 C   0  0  0  0  0  0  0  0  0  0  0  0
   60.2460   29.3700   45.7120 N   0  0  0  0  0  0  0  0  0  0  0  0
   60.6980   29.7800   46.8490 C   0  0  0  0  0  0  0  0  0  0  0  0
   58.5830   32.6870   50.5790 N   0  0  0  0  0  0  0  0  0  0  0  0
   61.0470   33.8280   50.3190 C   0  0  0  0  0  0  0  0  0  0  0  0
   62.2160   34.3580   50.1630 N   0  0  0  0  0  0  0  0  0  0  0  0
   59.9430   29.8560   51.4260 C   0  0  0  0  0  0  0  0  0  0  0  0
   58.4610   29.9210   51.7580 C   0  0  0  0  0  0  0  0  0  0  0  0
   57.7910   30.1040   50.5300 O   0  0  0  0  0  0  0  0  0  0  0  0
   61.6160   30.7610   46.9400 N   0  0  0  0  0  0  0  0  0  0  0  0
   59.2320   32.6120   49.3990 C   0  0  0  0  0  0  0  0  0  0  0  0
   58.6820   31.9980   48.3920 N   0  0  0  0  0  0  0  0  0  0  0  0
   63.3200   33.7030   50.8390 C   0  0  0  0  0  0  0  0  0  0  0  0
   64.3320   33.3190   49.7800 C   0  0  0  0  0  0  0  0  0  0  0  0
   64.0280   31.9700   49.1590 C   0  0  0  0  0  0  0  0  0  0  0  0
   60.1840   29.0260   50.2850 N   0  0  0  0  0  0  0  0  0  0  0  0
   60.6100   29.5530   49.2000 C   0  0  0  0  0  0  0  0  0  0  0  0
   60.3810   33.8980   51.5060 N   0  0  0  0  0  0  0  0  0  0  0  0
   59.1550   33.3260   51.6240 C   0  0  0  0  0  0  0  0  0  0  0  0
   58.2640   33.3850   53.1170 Cl  0  0  0  0  0  0  0  0  0  0  0  0
   60.4360   33.1780   49.2960 N   0  0  0  0  0  0  0  0  0  0  0  0
   62.0060   31.1110   48.1740 C   0  0  0  0  0  0  0  0  0  0  0  0
   62.8670   32.0370   48.3230 N   0  0  0  0  0  0  0  0  0  0  0  0
   58.4990   32.7700   47.2130 C   0  0  0  0  0  0  0  0  0  0  0  0
   59.6280   33.1300   46.5100 C   0  0  0  0  0  0  0  0  0  0  0  0
   59.5610   33.8760   45.3530 C   0  0  0  0  0  0  0  0  0  0  0  0
   58.3520   34.2890   44.8590 C   0  0  0  0  0  0  0  0  0  0  0  0
   57.2220   33.9170   45.5790 C   0  0  0  0  0  0  0  0  0  0  0  0
   57.2800   33.1740   46.7340 C   0  0  0  0  0  0  0  0  0  0  0  0
   61.5230   30.5280   49.2970 N   0  0  0  0  0  0  0  0  0  0  0  0
   60.2140   29.1960   47.9710 N   0  0  0  0  0  0  0  0  0  0  0  0
   55.4388   30.1868   44.7217 H   0  0  0  0  0  0  0  0  0  0  0  0
   56.3171   31.1049   43.4519 H   0  0  0  0  0  0  0  0  0  0  0  0
   56.3574   29.3091   43.4519 H   0  0  0  0  0  0  0  0  0  0  0  0
   58.4321   30.6608   44.4142 H   0  0  0  0  0  0  0  0  0  0  0  0
   57.4250   30.8577   45.8619 H   0  0  0  0  0  0  0  0  0  0  0  0
   55.8472   28.1733   45.0625 H   0  0  0  0  0  0  0  0  0  0  0  0
   56.0230   24.8640   43.4190 H   0  0  0  0  0  0  0  0  0  0  0  0
   56.8360   23.6900   44.4060 H   0  0  0  0  0  0  0  0  0  0  0  0
   58.6418   25.1514   46.3143 H   0  0  0  0  0  0  0  0  0  0  0  0
   60.4550   26.8678   46.3118 H   0  0  0  0  0  0  0  0  0  0  0  0
   57.6300   32.2350   50.6480 H   0  0  0  0  0  0  0  0  0  0  0  0
   60.4861   29.4446   52.2896 H   0  0  0  0  0  0  0  0  0  0  0  0
   60.2923   30.8733   51.1956 H   0  0  0  0  0  0  0  0  0  0  0  0
   58.1354   28.9845   52.2344 H   0  0  0  0  0  0  0  0  0  0  0  0
   58.2426   30.7393   52.4600 H   0  0  0  0  0  0  0  0  0  0  0  0
   58.4510   30.3200   49.8220 H   0  0  0  0  0  0  0  0  0  0  0  0
   61.9990   31.2140   46.1100 H   0  0  0  0  0  0  0  0  0  0  0  0
   62.9615   32.8035   51.3609 H   0  0  0  0  0  0  0  0  0  0  0  0
   63.7722   34.3727   51.5854 H   0  0  0  0  0  0  0  0  0  0  0  0
   65.3298   33.2797   50.2414 H   0  0  0  0  0  0  0  0  0  0  0  0
   64.2890   34.0751   48.9822 H   0  0  0  0  0  0  0  0  0  0  0  0
   63.8519   31.2372   49.9602 H   0  0  0  0  0  0  0  0  0  0  0  0
   64.8866   31.6685   48.5410 H   0  0  0  0  0  0  0  0  0  0  0  0
   60.9300   33.1130   48.3790 H   0  0  0  0  0  0  0  0  0  0  0  0
   60.6127   32.8124   46.8835 H   0  0  0  0  0  0  0  0  0  0  0  0
   60.4866   34.1421   44.8216 H   0  0  0  0  0  0  0  0  0  0  0  0
   58.2786   34.8857   43.9378 H   0  0  0  0  0  0  0  0  0  0  0  0
   56.2359   34.2319   45.2070 H   0  0  0  0  0  0  0  0  0  0  0  0
   56.3568   32.9062   47.2688 H   0  0  0  0  0  0  0  0  0  0  0  0
   61.8620   30.8420   50.2260 H   0  0  0  0  0  0  0  0  0  0  0  0
   59.5110   28.4440   47.8940 H   0  0  0  0  0  0  0  0  0  0  0  0
  1  2  1  0
  2  3  1  0
  3  4  2  0
  4  5  1  0
  5  6  1  0
  6  7  1  0
  6  8  2  0
  6  9  2  0
  5 10  2  0
 10 11  1  0
 11 12  2  0
 12 13  1  0
 13 14  2  0
 14 15  1  0
 15 16  1  0
 16 17  2  0
 17 18  1  0
 18 19  1  0
 19 20  1  0
 16 21  1  0
 21 22  1  0
 22 23  2  0
 23 24  1  0
 24 25  1  0
 25 26  1  0
 26 27  1  0
 27 28  2  0
 28 29  1  0
 29 30  2  0
 30 31  1  0
 30 32  1  0
 32 33  1  0
 33 34  2  0
 34 35  1  0
 35 36  2  0
 36 37  1  0
 37 38  2  0
 38 39  1  0
 39 40  2  0
 33 41  1  0
 22 42  1  0
 12  3  1  0
 42 14  1  0
 41 28  1  0
 40 35  1  0
  1 43  1  0
  1 44  1  0
  1 45  1  0
  2 46  1  0
  2 47  1  0
  4 48  1  0
  7 49  1  0
  7 50  1  0
 10 51  1  0
 11 52  1  0
 15 53  1  0
 18 54  1  0
 18 55  1  0
 19 56  1  0
 19 57  1  0
 20 58  1  0
 21 59  1  0
 24 60  1  0
 24 61  1  0
 25 62  1  0
 25 63  1  0
 26 64  1  0
 26 65  1  0
 32 66  1  0
 36 67  1  0
 37 68  1  0
 38 69  1  0
 39 70  1  0
 40 71  1  0
 41 72  1  0
 42 73  1  0
M  END
>  <smiles>  (35) 
CCc1cc(S(N)(=O)=O)ccc1N=c1[nH]c(=NCCO)[nH]c(=NCCCN=c2nc(Cl)[nH]c(=Nc3ccccc3)[nH]2)[nH]1

>  <score_type>  (35) 
oracle

>  <origin>  (35) 
adg

>  <m_score__min__energy>  (35) 
-10.75

>  <m_primary>  (35) 
energy

$$$$
35:0
     RDKit          3D

 26 27  0  0  0  0  0  0  0  0999 V2000
   55.1480   29.2510   44.8450 O   0  0  0  0  0  0  0  0  0  0  0  0
   56.3400   29.6390   44.9770 C   0  0  0  0  0  0  0  0  0  0  0  0
   56.6930   30.9010   44.5140 O   0  0  0  0  0  0  0  0  0  0  0  0
   57.3480   28.7650   45.6150 C   0  0  0  0  0  0  0  0  0  0  0  0
   58.2960   29.2960   46.5090 C   0  0  0  0  0  0  0  0  0  0  0  0
   59.2450   28.4650   47.1090 C   0  0  0  0  0  0  0  0  0  0  0  0
   59.2590   27.0970   46.8270 C   0  0  0  0  0  0  0  0  0  0  0  0
   58.3210   26.5520   45.9430 C   0  0  0  0  0  0  0  0  0  0  0  0
   58.3300   24.8260   45.5930 S   0  0  0  0  0  0  0  0  0  0  0  0
   59.6730   24.2290   45.9100 O   0  0  0  0  0  0  0  0  0  0  0  0
   58.0350   24.6250   44.1340 O   0  0  0  0  0  0  0  0  0  0  0  0
   57.1170   24.0190   46.5340 N   0  0  0  0  0  0  0  0  0  0  0  0
   55.7800   23.7410   46.0920 C   0  0  0  0  0  0  0  0  0  0  0  0
   55.3420   22.4440   45.7810 C   0  0  0  0  0  0  0  0  0  0  0  0
   54.0630   22.2380   45.3750 N   0  0  0  0  0  0  0  0  0  0  0  0
   53.1900   23.2720   45.2600 C   0  0  0  0  0  0  0  0  0  0  0  0
   52.0090   23.0580   44.8820 O   0  0  0  0  0  0  0  0  0  0  0  0
   53.5900   24.5350   45.5530 N   0  0  0  0  0  0  0  0  0  0  0  0
   54.8600   24.7910   45.9650 C   0  0  0  0  0  0  0  0  0  0  0  0
   55.2010   25.9730   46.2310 O   0  0  0  0  0  0  0  0  0  0  0  0
   57.3730   27.3870   45.3350 C   0  0  0  0  0  0  0  0  0  0  0  0
   58.2897   30.3721   46.7368 H   0  0  0  0  0  0  0  0  0  0  0  0
   59.9833   28.8890   47.8055 H   0  0  0  0  0  0  0  0  0  0  0  0
   60.0090   26.4467   47.3008 H   0  0  0  0  0  0  0  0  0  0  0  0
   56.0354   21.5943   45.8663 H   0  0  0  0  0  0  0  0  0  0  0  0
   56.6420   26.9604   44.6324 H   0  0  0  0  0  0  0  0  0  0  0  0
  1  2  2  0
  2  3  1  0
  2  4  1  0
  4  5  2  0
  5  6  1  0
  6  7  2  0
  7  8  1  0
  8  9  1  0
  9 10  2  0
  9 11  2  0
  9 12  1  0
 12 13  1  0
 13 14  2  0
 14 15  1  0
 15 16  1  0
 16 17  2  0
 16 18  1  0
 18 19  1  0
 19 20  2  0
  8 21  2  0
 21  4  1  0
 19 13  1  0
  5 22  1  0
  6 23  1  0
  7 24  1  0
 14 25  1  0
 21 26  1  0
M  CHG  4   3  -1  12  -1  15  -1  18  -1
M  END
>  <UniqueID>  (36) 
35

>  <SMILES>  (36) 
O=C([O-])c1cccc(S(=O)(=O)[N-]c2c[n-]c(=O)[n-]c2=O)c1

>  <Energy>  (36) 
32.30215210493703

>  <Genealogy>  (36) 
O=C([O-])c1cccc(S(=O)(=O)[N-]c2c[n-]c(=O)[n-]c2=O)c1 (protonated)
O=C([O-])c1cccc(S(=O)(=O)[N-]c2c[n-]c(=O)[n-]c2=O)c1 (3D coordinates assigned)
O=C([O-])c1cccc(S(=O)(=O)[N-]c2c[n-]c(=O)[n-]c2=O)c1 (optimized conformer: 32.30215210493703 kcal/mol)

>  <smiles>  (36) 
O=C(O)c1cccc(S(=O)(=O)Nc2c[nH]c(=O)[nH]c2=O)c1

>  <score_type>  (36) 
oracle

>  <origin>  (36) 
adg

>  <m_score__min__energy>  (36) 
-14.619999999999999

>  <m_primary>  (36) 
energy

$$$$
36:0
     RDKit          3D

 50 53  0  0  0  0  0  0  0  0999 V2000
   60.3240   34.7660   46.4450 C   0  0  0  0  0  0  0  0  0  0  0  0
   59.2690   33.7960   45.9990 C   0  0  0  0  0  0  0  0  0  0  0  0
   57.9980   34.2590   45.6260 C   0  0  0  0  0  0  0  0  0  0  0  0
   57.0000   33.3580   45.2440 C   0  0  0  0  0  0  0  0  0  0  0  0
   57.2590   31.9840   45.2440 C   0  0  0  0  0  0  0  0  0  0  0  0
   56.2900   31.1060   44.8710 N   0  0  0  0  0  0  0  0  0  0  0  0
   56.5010   29.7640   44.8590 C   0  0  0  0  0  0  0  0  0  0  0  0
   55.5670   28.9980   44.5000 O   0  0  0  0  0  0  0  0  0  0  0  0
   57.7500   29.2400   45.2420 C   0  0  0  0  0  0  0  0  0  0  0  0
   58.0120   27.7530   45.2110 C   0  0  0  0  0  0  0  0  0  0  0  0
   58.0320   27.1920   46.5810 N   0  0  0  0  0  0  0  0  0  0  0  0
   59.3920   27.1620   47.1730 C   0  0  0  0  0  0  0  0  0  0  0  0
   59.6360   28.2590   48.1650 C   0  0  0  0  0  0  0  0  0  0  0  0
   58.7510   29.2240   48.4700 N   0  0  0  0  0  0  0  0  0  0  0  0
   59.4220   29.9590   49.3750 C   0  0  0  0  0  0  0  0  0  0  0  0
   58.9000   31.2160   49.9840 C   0  0  0  0  0  0  0  0  0  0  0  0
   60.6600   29.4740   49.5960 N   0  0  0  0  0  0  0  0  0  0  0  0
   60.7510   28.4210   48.8370 O   0  0  0  0  0  0  0  0  0  0  0  0
   57.1460   26.0000   46.7600 C   0  0  0  0  0  0  0  0  0  0  0  0
   55.8100   26.0340   45.9990 C   0  0  0  0  0  0  0  0  0  0  0  0
   55.5130   24.5920   45.5900 C   0  0  0  0  0  0  0  0  0  0  0  0
   56.6000   23.7250   46.2140 C   0  0  0  0  0  0  0  0  0  0  0  0
   57.7840   24.6530   46.4160 C   0  0  0  0  0  0  0  0  0  0  0  0
   58.7640   30.1270   45.6320 C   0  0  0  0  0  0  0  0  0  0  0  0
   58.5280   31.5070   45.6340 C   0  0  0  0  0  0  0  0  0  0  0  0
   59.5270   32.4160   46.0160 C   0  0  0  0  0  0  0  0  0  0  0  0
   60.3549   34.7944   47.5442 H   0  0  0  0  0  0  0  0  0  0  0  0
   61.3030   34.4461   46.0588 H   0  0  0  0  0  0  0  0  0  0  0  0
   60.0873   35.7684   46.0588 H   0  0  0  0  0  0  0  0  0  0  0  0
   57.7856   35.3383   45.6343 H   0  0  0  0  0  0  0  0  0  0  0  0
   56.0097   33.7303   44.9430 H   0  0  0  0  0  0  0  0  0  0  0  0
   57.2182   27.2594   44.6311 H   0  0  0  0  0  0  0  0  0  0  0  0
   58.9930   27.5784   44.7451 H   0  0  0  0  0  0  0  0  0  0  0  0
   59.5295   26.1961   47.6810 H   0  0  0  0  0  0  0  0  0  0  0  0
   60.1069   27.3053   46.3494 H   0  0  0  0  0  0  0  0  0  0  0  0
   57.7900   29.3740   48.0900 H   0  0  0  0  0  0  0  0  0  0  0  0
   58.9341   31.1339   51.0804 H   0  0  0  0  0  0  0  0  0  0  0  0
   59.5199   32.0651   49.6604 H   0  0  0  0  0  0  0  0  0  0  0  0
   57.8610   31.3762   49.6604 H   0  0  0  0  0  0  0  0  0  0  0  0
   56.9647   26.0795   47.8420 H   0  0  0  0  0  0  0  0  0  0  0  0
   55.0105   26.4177   46.6498 H   0  0  0  0  0  0  0  0  0  0  0  0
   55.8662   26.6951   45.1216 H   0  0  0  0  0  0  0  0  0  0  0  0
   54.5244   24.2880   45.9646 H   0  0  0  0  0  0  0  0  0  0  0  0
   55.5034   24.4861   44.4952 H   0  0  0  0  0  0  0  0  0  0  0  0
   56.2615   23.3165   47.1776 H   0  0  0  0  0  0  0  0  0  0  0  0
   56.8559   22.8656   45.5769 H   0  0  0  0  0  0  0  0  0  0  0  0
   58.4207   24.3002   47.2407 H   0  0  0  0  0  0  0  0  0  0  0  0
   58.4345   24.7072   45.5306 H   0  0  0  0  0  0  0  0  0  0  0  0
   59.7466   29.7377   45.9369 H   0  0  0  0  0  0  0  0  0  0  0  0
   60.5144   32.0463   46.3294 H   0  0  0  0  0  0  0  0  0  0  0  0
  1  2  1  0
  2  3  2  0
  3  4  1  0
  4  5  2  0
  5  6  1  0
  6  7  1  0
  7  8  2  0
  7  9  1  0
  9 10  1  0
 10 11  1  0
 11 12  1  0
 12 13  1  0
 13 14  2  0
 14 15  1  0
 15 16  1  0
 15 17  2  0
 17 18  1  0
 11 19  1  0
 19 20  1  0
 20 21  1  0
 21 22  1  0
 22 23  1  0
  9 24  2  0
 24 25  1  0
 25 26  2  0
 26  2  1  0
 25  5  1  0
 18 13  1  0
 23 19  1  0
  1 27  1  0
  1 28  1  0
  1 29  1  0
  3 30  1  0
  4 31  1  0
 10 32  1  0
 10 33  1  0
 12 34  1  0
 12 35  1  0
 14 36  1  0
 16 37  1  0
 16 38  1  0
 16 39  1  0
 19 40  1  0
 20 41  1  0
 20 42  1  0
 21 43  1  0
 21 44  1  0
 22 45  1  0
 22 46  1  0
 23 47  1  0
 23 48  1  0
 24 49  1  0
 26 50  1  0
M  CHG  2   6  -1  14   1
M  END
>  <UniqueID>  (37) 
36

>  <SMILES>  (37) 
Cc1ccc2[n-]c(=O)c(CN(Cc3[nH+]c(C)no3)C3CCCC3)cc2c1

>  <Energy>  (37) 
100.71487197020333

>  <Genealogy>  (37) 
Cc1ccc2[n-]c(=O)c(CN(Cc3[nH+]c(C)no3)C3CCCC3)cc2c1 (protonated)
Cc1ccc2[n-]c(=O)c(CN(Cc3[nH+]c(C)no3)C3CCCC3)cc2c1 (3D coordinates assigned)
Cc1ccc2[n-]c(=O)c(CN(Cc3[nH+]c(C)no3)C3CCCC3)cc2c1 (nonaromatic ring conformer: 100.71487197020333 kcal/mol)

>  <smiles>  (37) 
Cc1ccc2[nH]c(=O)c(CN(Cc3nc(C)no3)C3CCCC3)cc2c1

>  <score_type>  (37) 
oracle

>  <origin>  (37) 
adg

>  <m_score__min__energy>  (37) 
-8.9299999999999997

>  <m_primary>  (37) 
energy

$$$$
37:0
     RDKit          3D

 33 34  0  0  0  0  0  0  0  0999 V2000
   57.3260   20.2910   43.6180 H   0  0  0  0  0  0  0  0  0  0  0  0
   56.5980   20.9720   43.3060 N   0  0  0  0  0  0  0  0  0  0  0  0
   56.4150   22.0960   43.9210 C   0  0  0  0  0  0  0  0  0  0  0  0
   55.1640   22.6170   44.0320 N   0  0  0  0  0  0  0  0  0  0  0  0
   54.9260   23.7960   44.6680 C   0  0  0  0  0  0  0  0  0  0  0  0
   53.5700   24.2300   44.8140 N   0  0  0  0  0  0  0  0  0  0  0  0
   52.7620   23.5790   44.7240 H   0  0  0  0  0  0  0  0  0  0  0  0
   53.3590   25.2530   44.8510 H   0  0  0  0  0  0  0  0  0  0  0  0
   56.0210   24.5130   45.2110 C   0  0  0  0  0  0  0  0  0  0  0  0
   55.8990   25.8410   45.8450 C   0  0  0  0  0  0  0  0  0  0  0  0
   54.7670   26.3520   46.0590 O   0  0  0  0  0  0  0  0  0  0  0  0
   57.0930   26.5540   46.1970 N   0  0  0  0  0  0  0  0  0  0  0  0
   57.3900   27.9270   45.9030 C   0  0  0  0  0  0  0  0  0  0  0  0
   58.3360   28.5920   46.6920 C   0  0  0  0  0  0  0  0  0  0  0  0
   58.8197   28.0628   47.5262 H   0  0  0  0  0  0  0  0  0  0  0  0
   58.6710   29.9240   46.4280 C   0  0  0  0  0  0  0  0  0  0  0  0
   59.4071   30.4397   47.0621 H   0  0  0  0  0  0  0  0  0  0  0  0
   58.0710   30.6060   45.3560 C   0  0  0  0  0  0  0  0  0  0  0  0
   58.3820   31.9720   45.0440 N   0  0  0  0  0  0  0  0  0  0  0  0
   57.8410   33.3620   45.9290 S   0  0  0  0  0  0  0  0  0  0  0  0
   57.4660   32.9320   47.3190 O   0  0  0  0  0  0  0  0  0  0  0  0
   56.6320   33.9580   45.2640 O   0  0  0  0  0  0  0  0  0  0  0  0
   59.1470   34.5660   46.0370 C   0  0  0  0  0  0  0  0  0  0  0  0
   59.3698   34.7714   47.0944 H   0  0  0  0  0  0  0  0  0  0  0  0
   60.0480   34.1751   45.5417 H   0  0  0  0  0  0  0  0  0  0  0  0
   58.8305   35.4958   45.5417 H   0  0  0  0  0  0  0  0  0  0  0  0
   57.1470   29.9310   44.5500 C   0  0  0  0  0  0  0  0  0  0  0  0
   56.6810   30.4526   43.7011 H   0  0  0  0  0  0  0  0  0  0  0  0
   56.8110   28.6000   44.8140 C   0  0  0  0  0  0  0  0  0  0  0  0
   56.0909   28.0778   44.1670 H   0  0  0  0  0  0  0  0  0  0  0  0
   57.2640   23.9700   45.1100 N   0  0  0  0  0  0  0  0  0  0  0  0
   57.4920   22.7850   44.4890 C   0  0  0  0  0  0  0  0  0  0  0  0
   59.1320   22.1620   44.4010 Cl  0  0  0  0  0  0  0  0  0  0  0  0
  1  2  1  0
  2  3  2  0
  3  4  1  0
  4  5  1  0
  5  6  1  0
  6  7  1  0
  6  8  1  0
  5  9  2  0
  9 10  1  0
 10 11  2  0
 10 12  1  0
 12 13  1  0
 13 14  2  0
 14 15  1  0
 14 16  1  0
 16 17  1  0
 16 18  2  0
 18 19  1  0
 19 20  1  0
 20 21  2  0
 20 22  2  0
 20 23  1  0
 23 24  1  0
 23 25  1  0
 23 26  1  0
 18 27  1  0
 27 28  1  0
 27 29  2  0
 29 30  1  0
  9 31  1  0
 31 32  2  0
 32 33  1  0
 32  3  1  0
 29 13  1  0
M  CHG  3   4  -1  12  -1  19  -1
M  END
>  <UniqueID>  (38) 
37

>  <SMILES>  (38) 
[H]/N=c1\[n-]c(N)c(C(=O)[N-]c2ccc([N-]S(C)(=O)=O)cc2)nc1Cl

>  <Energy>  (38) 
42.116567839509294

>  <Genealogy>  (38) 
CS(=O)(=O)[N-]c1ccc([N-]C(=O)c2nc(Cl)c(=N)[n-]c2N)cc1 (protonated)
[H]/N=c1\[n-]c(N)c(C(=O)[N-]c2ccc([N-]S(C)(=O)=O)cc2)nc1Cl (cis-trans isomerization)
[H]/N=c1\[n-]c(N)c(C(=O)[N-]c2ccc([N-]S(C)(=O)=O)cc2)nc1Cl (3D coordinates assigned)
[H]/N=c1\[n-]c(N)c(C(=O)[N-]c2ccc([N-]S(C)(=O)=O)cc2)nc1Cl (optimized conformer: 42.116567839509294 kcal/mol)

>  <smiles>  (38) 
CS(=O)(=O)Nc1ccc(NC(=O)c2nc(Cl)c(=N)[nH]c2N)cc1

>  <score_type>  (38) 
oracle

>  <origin>  (38) 
adg

>  <m_score__min__energy>  (38) 
-11.76

>  <m_primary>  (38) 
energy

$$$$
38:0
     RDKit          3D

 46 49  0  0  0  0  0  0  0  0999 V2000
   63.4230   33.1260   47.1080 C   0  0  0  0  0  0  0  0  0  0  0  0
   62.0960   33.3970   47.5390 O   0  0  0  0  0  0  0  0  0  0  0  0
   61.0160   32.5610   47.2300 C   0  0  0  0  0  0  0  0  0  0  0  0
   60.9840   31.3830   47.6790 O   0  0  0  0  0  0  0  0  0  0  0  0
   59.8970   33.0850   46.4100 C   0  0  0  0  0  0  0  0  0  0  0  0
   59.9560   34.4190   45.9670 C   0  0  0  0  0  0  0  0  0  0  0  0
   58.9020   34.9780   45.2420 C   0  0  0  0  0  0  0  0  0  0  0  0
   57.7770   34.2130   44.9420 C   0  0  0  0  0  0  0  0  0  0  0  0
   57.7050   32.8830   45.3580 C   0  0  0  0  0  0  0  0  0  0  0  0
   58.7550   32.3030   46.0910 C   0  0  0  0  0  0  0  0  0  0  0  0
   58.6960   30.9040   46.4190 N   0  0  0  0  0  0  0  0  0  0  0  0
   57.7660   29.9990   45.7990 C   0  0  0  0  0  0  0  0  0  0  0  0
   56.7650   30.4590   45.1830 O   0  0  0  0  0  0  0  0  0  0  0  0
   57.9420   28.5310   45.9100 C   0  0  0  0  0  0  0  0  0  0  0  0
   59.2260   27.9940   46.0900 C   0  0  0  0  0  0  0  0  0  0  0  0
   59.4060   26.6170   46.2190 C   0  0  0  0  0  0  0  0  0  0  0  0
   58.3090   25.7540   46.1650 C   0  0  0  0  0  0  0  0  0  0  0  0
   58.5100   24.4210   46.3160 N   0  0  0  0  0  0  0  0  0  0  0  0
   57.4910   23.5300   46.3000 C   0  0  0  0  0  0  0  0  0  0  0  0
   57.7450   22.3040   46.4430 O   0  0  0  0  0  0  0  0  0  0  0  0
   56.1680   23.9710   46.1200 C   0  0  0  0  0  0  0  0  0  0  0  0
   55.9200   25.3470   45.9050 C   0  0  0  0  0  0  0  0  0  0  0  0
   57.0030   26.2640   45.9680 C   0  0  0  0  0  0  0  0  0  0  0  0
   56.8350   27.6630   45.8690 C   0  0  0  0  0  0  0  0  0  0  0  0
   54.5700   25.7770   45.6170 N   0  0  0  0  0  0  0  0  0  0  0  0
   53.4450   24.8440   45.5640 C   0  0  0  0  0  0  0  0  0  0  0  0
   53.7030   23.6260   46.4480 C   0  0  0  0  0  0  0  0  0  0  0  0
   55.0330   22.9740   46.0690 C   0  0  0  0  0  0  0  0  0  0  0  0
   64.0735   32.9932   47.9851 H   0  0  0  0  0  0  0  0  0  0  0  0
   63.4316   32.2076   46.5027 H   0  0  0  0  0  0  0  0  0  0  0  0
   63.7910   33.9675   46.5027 H   0  0  0  0  0  0  0  0  0  0  0  0
   60.8429   35.0286   46.1945 H   0  0  0  0  0  0  0  0  0  0  0  0
   58.9599   36.0242   44.9071 H   0  0  0  0  0  0  0  0  0  0  0  0
   56.9448   34.6578   44.3767 H   0  0  0  0  0  0  0  0  0  0  0  0
   56.8176   32.2823   45.1098 H   0  0  0  0  0  0  0  0  0  0  0  0
   59.3230   30.5450   47.1730 H   0  0  0  0  0  0  0  0  0  0  0  0
   60.0973   28.6643   46.1297 H   0  0  0  0  0  0  0  0  0  0  0  0
   60.4170   26.2085   46.3640 H   0  0  0  0  0  0  0  0  0  0  0  0
   55.8233   28.0804   45.7582 H   0  0  0  0  0  0  0  0  0  0  0  0
   54.3890   26.7120   45.1950 H   0  0  0  0  0  0  0  0  0  0  0  0
   52.5362   25.3560   45.9131 H   0  0  0  0  0  0  0  0  0  0  0  0
   53.3203   24.5035   44.5255 H   0  0  0  0  0  0  0  0  0  0  0  0
   53.7397   23.9419   47.5010 H   0  0  0  0  0  0  0  0  0  0  0  0
   52.8911   22.8980   46.3037 H   0  0  0  0  0  0  0  0  0  0  0  0
   55.2438   22.1549   46.7724 H   0  0  0  0  0  0  0  0  0  0  0  0
   54.9519   22.5927   45.0404 H   0  0  0  0  0  0  0  0  0  0  0  0
  1  2  1  0
  2  3  1  0
  3  4  2  0
  3  5  1  0
  5  6  2  0
  6  7  1  0
  7  8  2  0
  8  9  1  0
  9 10  2  0
 10 11  1  0
 11 12  1  0
 12 13  2  0
 12 14  1  0
 14 15  2  0
 15 16  1  0
 16 17  2  0
 17 18  1  0
 18 19  1  0
 19 20  2  0
 19 21  1  0
 21 22  2  0
 22 23  1  0
 23 24  2  0
 22 25  1  0
 25 26  1  0
 26 27  1  0
 27 28  1  0
 10  5  1  0
 24 14  1  0
 23 17  1  0
 28 21  1  0
  1 29  1  0
  1 30  1  0
  1 31  1  0
  6 32  1  0
  7 33  1  0
  8 34  1  0
  9 35  1  0
 11 36  1  0
 15 37  1  0
 16 38  1  0
 24 39  1  0
 25 40  1  0
 26 41  1  0
 26 42  1  0
 27 43  1  0
 27 44  1  0
 28 45  1  0
 28 46  1  0
M  CHG  1  18  -1
M  END
>  <UniqueID>  (39) 
38

>  <SMILES>  (39) 
COC(=O)c1ccccc1NC(=O)c1ccc2[n-]c(=O)c3c(c2c1)NCCC3

>  <Energy>  (39) 
64.74432376081369

>  <Genealogy>  (39) 
COC(=O)c1ccccc1NC(=O)c1ccc2[n-]c(=O)c3c(c2c1)NCCC3 (protonated)
COC(=O)c1ccccc1NC(=O)c1ccc2[n-]c(=O)c3c(c2c1)NCCC3 (3D coordinates assigned)
COC(=O)c1ccccc1NC(=O)c1ccc2[n-]c(=O)c3c(c2c1)NCCC3 (nonaromatic ring conformer: 64.74432376081369 kcal/mol)

>  <smiles>  (39) 
COC(=O)c1ccccc1NC(=O)c1ccc2[nH]c(=O)c3c(c2c1)NCCC3

>  <score_type>  (39) 
oracle

>  <origin>  (39) 
adg

>  <m_score__min__energy>  (39) 
-9.7799999999999994

>  <m_primary>  (39) 
energy

$$$$
39:0
     RDKit          3D

 54 57  0  0  0  0  0  0  0  0999 V2000
   55.1450   26.5690   45.9860 N   0  0  0  0  0  0  0  0  0  0  0  0
   56.3070   25.7280   46.0300 C   0  0  0  0  0  0  0  0  0  0  0  0
   56.2120   24.4500   46.6000 C   0  0  0  0  0  0  0  0  0  0  0  0
   57.3260   23.6070   46.6400 C   0  0  0  0  0  0  0  0  0  0  0  0
   58.5420   24.0300   46.1010 C   0  0  0  0  0  0  0  0  0  0  0  0
   58.6530   25.3040   45.5370 C   0  0  0  0  0  0  0  0  0  0  0  0
   57.5420   26.1710   45.5130 C   0  0  0  0  0  0  0  0  0  0  0  0
   57.6370   27.4790   44.9230 N   0  0  0  0  0  0  0  0  0  0  0  0
   57.5020   28.7300   45.6090 C   0  0  0  0  0  0  0  0  0  0  0  0
   56.4010   29.3360   45.5390 O   0  0  0  0  0  0  0  0  0  0  0  0
   58.5920   29.2970   46.4420 C   0  0  0  0  0  0  0  0  0  0  0  0
   59.5860   30.0940   45.8490 C   0  0  0  0  0  0  0  0  0  0  0  0
   60.6230   30.6240   46.6210 C   0  0  0  0  0  0  0  0  0  0  0  0
   60.6850   30.3680   47.9990 C   0  0  0  0  0  0  0  0  0  0  0  0
   61.8660   30.8270   48.8080 C   0  0  0  0  0  0  0  0  0  0  0  0
   62.6190   31.8240   48.0540 N   0  0  0  0  0  0  0  0  0  0  0  0
   62.3120   33.2220   48.0840 C   0  0  0  0  0  0  0  0  0  0  0  0
   63.0630   34.0120   48.7130 O   0  0  0  0  0  0  0  0  0  0  0  0
   61.0940   33.7260   47.4130 C   0  0  0  0  0  0  0  0  0  0  0  0
   61.0190   33.7260   46.0080 C   0  0  0  0  0  0  0  0  0  0  0  0
   59.8600   34.1590   45.3590 C   0  0  0  0  0  0  0  0  0  0  0  0
   58.7610   34.5910   46.1000 C   0  0  0  0  0  0  0  0  0  0  0  0
   58.8150   34.5880   47.4960 C   0  0  0  0  0  0  0  0  0  0  0  0
   59.9700   34.1430   48.1610 C   0  0  0  0  0  0  0  0  0  0  0  0
   60.0160   34.1220   49.5630 O   0  0  0  0  0  0  0  0  0  0  0  0
   59.5950   33.0490   50.3640 C   0  0  0  0  0  0  0  0  0  0  0  0
   60.2570   32.6980   51.5590 C   0  0  0  0  0  0  0  0  0  0  0  0
   59.7740   31.6520   52.3550 C   0  0  0  0  0  0  0  0  0  0  0  0
   58.6250   30.9550   51.9670 C   0  0  0  0  0  0  0  0  0  0  0  0
   57.9620   31.2990   50.7840 C   0  0  0  0  0  0  0  0  0  0  0  0
   58.4460   32.3440   49.9870 C   0  0  0  0  0  0  0  0  0  0  0  0
   59.6840   29.5890   48.5970 C   0  0  0  0  0  0  0  0  0  0  0  0
   58.6380   29.0700   47.8280 C   0  0  0  0  0  0  0  0  0  0  0  0
   55.1620   27.4990   45.5160 H   0  0  0  0  0  0  0  0  0  0  0  0
   54.2380   26.2450   46.3940 H   0  0  0  0  0  0  0  0  0  0  0  0
   55.2537   24.1087   47.0186 H   0  0  0  0  0  0  0  0  0  0  0  0
   57.2444   22.6095   47.0965 H   0  0  0  0  0  0  0  0  0  0  0  0
   59.4141   23.3599   46.1201 H   0  0  0  0  0  0  0  0  0  0  0  0
   59.6122   25.6317   45.1097 H   0  0  0  0  0  0  0  0  0  0  0  0
   59.5474   30.3020   44.7695 H   0  0  0  0  0  0  0  0  0  0  0  0
   61.3957   31.2459   46.1453 H   0  0  0  0  0  0  0  0  0  0  0  0
   61.5135   31.2706   49.7509 H   0  0  0  0  0  0  0  0  0  0  0  0
   62.5159   29.9666   49.0257 H   0  0  0  0  0  0  0  0  0  0  0  0
   61.8799   33.3823   45.4157 H   0  0  0  0  0  0  0  0  0  0  0  0
   59.8145   34.1590   44.2599 H   0  0  0  0  0  0  0  0  0  0  0  0
   57.8513   34.9342   45.5855 H   0  0  0  0  0  0  0  0  0  0  0  0
   57.9486   34.9359   48.0777 H   0  0  0  0  0  0  0  0  0  0  0  0
   61.1577   33.2490   51.8674 H   0  0  0  0  0  0  0  0  0  0  0  0
   60.2971   31.3791   53.2834 H   0  0  0  0  0  0  0  0  0  0  0  0
   58.2422   30.1353   52.5928 H   0  0  0  0  0  0  0  0  0  0  0  0
   57.0598   30.7482   50.4796 H   0  0  0  0  0  0  0  0  0  0  0  0
   57.9199   32.6124   49.0590 H   0  0  0  0  0  0  0  0  0  0  0  0
   59.7219   29.3851   49.6773 H   0  0  0  0  0  0  0  0  0  0  0  0
   57.8455   28.4798   48.3113 H   0  0  0  0  0  0  0  0  0  0  0  0
  1  2  1  0
  2  3  2  0
  3  4  1  0
  4  5  2  0
  5  6  1  0
  6  7  2  0
  7  8  1  0
  8  9  1  0
  9 10  2  0
  9 11  1  0
 11 12  2  0
 12 13  1  0
 13 14  2  0
 14 15  1  0
 15 16  1  0
 16 17  1  0
 17 18  2  0
 17 19  1  0
 19 20  2  0
 20 21  1  0
 21 22  2  0
 22 23  1  0
 23 24  2  0
 24 25  1  0
 25 26  1  0
 26 27  2  0
 27 28  1  0
 28 29  2  0
 29 30  1  0
 30 31  2  0
 14 32  1  0
 32 33  2  0
  7  2  1  0
 33 11  1  0
 24 19  1  0
 31 26  1  0
  1 34  1  0
  1 35  1  0
  3 36  1  0
  4 37  1  0
  5 38  1  0
  6 39  1  0
 12 40  1  0
 13 41  1  0
 15 42  1  0
 15 43  1  0
 20 44  1  0
 21 45  1  0
 22 46  1  0
 23 47  1  0
 27 48  1  0
 28 49  1  0
 29 50  1  0
 30 51  1  0
 31 52  1  0
 32 53  1  0
 33 54  1  0
M  CHG  2   8  -1  16  -1
M  END
>  <UniqueID>  (40) 
39

>  <SMILES>  (40) 
Nc1ccccc1[N-]C(=O)c1ccc(C[N-]C(=O)c2ccccc2Oc2ccccc2)cc1

>  <Energy>  (40) 
71.11576839534033

>  <Genealogy>  (40) 
Nc1ccccc1[N-]C(=O)c1ccc(C[N-]C(=O)c2ccccc2Oc2ccccc2)cc1 (protonated)
Nc1ccccc1[N-]C(=O)c1ccc(C[N-]C(=O)c2ccccc2Oc2ccccc2)cc1 (3D coordinates assigned)
Nc1ccccc1[N-]C(=O)c1ccc(C[N-]C(=O)c2ccccc2Oc2ccccc2)cc1 (optimized conformer: 71.11576839534033 kcal/mol)

>  <smiles>  (40) 
Nc1ccccc1NC(=O)c1ccc(CNC(=O)c2ccccc2Oc2ccccc2)cc1

>  <score_type>  (40) 
oracle

>  <origin>  (40) 
adg

>  <m_score__min__energy>  (40) 
-12.380000000000001

>  <m_primary>  (40) 
energy

$$$$
40:0
     RDKit          3D

 47 49  0  0  1  0  0  0  0  0999 V2000
   55.9830   20.4680   44.5500 C   0  0  0  0  0  0  0  0  0  0  0  0
   56.3340   21.5990   43.6880 N   0  0  0  0  0  0  0  0  0  0  0  0
   57.7470   21.8850   43.7600 C   0  0  0  0  0  0  0  0  0  0  0  0
   58.0250   22.8730   44.8460 C   0  0  0  0  0  0  0  0  0  0  0  0
   57.4500   24.1730   44.5760 N   0  0  0  0  0  0  0  0  0  0  0  0
   57.3810   25.1110   45.9770 S   0  0  0  0  0  0  0  0  0  0  0  0
   56.3170   24.6050   46.9050 O   0  0  0  0  0  0  0  0  0  0  0  0
   58.7010   24.9210   46.7150 O   0  0  0  0  0  0  0  0  0  0  0  0
   57.1910   26.7920   45.6430 C   0  0  0  0  0  0  0  0  0  0  0  0
   56.5860   27.7190   45.9660 N   0  0  0  0  0  0  0  0  0  0  0  0
   56.5870   28.9550   45.5830 N   0  0  0  0  0  0  0  0  0  0  0  0
   57.4480   29.2550   44.6230 C   0  0  0  0  0  0  0  0  0  0  0  0
   57.7530   30.3120   43.9900 N   0  0  0  0  0  0  0  0  0  0  0  0
   57.0690   31.5650   44.3080 C   0  0  0  0  0  0  0  0  0  0  0  0
   55.9640   31.4330   44.8380 O   0  0  0  0  0  0  0  0  0  0  0  0
   57.7800   32.7830   43.9590 C   0  0  0  0  0  0  0  0  0  0  0  0
   57.5780   33.9700   44.8520 C   0  0  0  0  0  0  0  0  0  0  0  0
   58.3520   33.8540   46.0870 C   0  0  0  0  0  0  0  0  0  0  0  0
   58.0230   33.0750   47.1720 C   0  0  0  0  0  0  0  0  0  0  0  0
   58.7910   33.0270   48.3250 C   0  0  0  0  0  0  0  0  0  0  0  0
   59.9430   33.7850   48.4090 C   0  0  0  0  0  0  0  0  0  0  0  0
   60.3040   34.5830   47.3270 C   0  0  0  0  0  0  0  0  0  0  0  0
   59.5120   34.6030   46.1970 C   0  0  0  0  0  0  0  0  0  0  0  0
   58.2870   27.6110   44.2850 S   0  0  0  0  0  0  0  0  0  0  0  0
   56.2220   24.0290   43.8720 C   0  0  0  0  0  0  0  0  0  0  0  0
   55.5230   22.7120   44.1220 C   0  0  0  0  0  0  0  0  0  0  0  0
   56.0760   20.7678   45.6043 H   0  0  0  0  0  0  0  0  0  0  0  0
   54.9469   20.1596   44.3465 H   0  0  0  0  0  0  0  0  0  0  0  0
   56.6625   19.6272   44.3465 H   0  0  0  0  0  0  0  0  0  0  0  0
   58.2948   20.9541   43.9682 H   0  0  0  0  0  0  0  0  0  0  0  0
   58.0739   22.3099   42.7995 H   0  0  0  0  0  0  0  0  0  0  0  0
   57.6036   22.4899   45.7871 H   0  0  0  0  0  0  0  0  0  0  0  0
   59.1159   22.9982   44.9113 H   0  0  0  0  0  0  0  0  0  0  0  0
   55.9480   29.7110   45.9930 H   0  0  0  0  0  0  0  0  0  0  0  0
   58.8550   32.5499   43.9553 H   0  0  0  0  0  0  0  0  0  0  0  0
   57.3670   33.0852   42.9853 H   0  0  0  0  0  0  0  0  0  0  0  0
   57.8945   34.8772   44.3165 H   0  0  0  0  0  0  0  0  0  0  0  0
   56.5120   34.0220   45.1183 H   0  0  0  0  0  0  0  0  0  0  0  0
   57.1102   32.4632   47.1225 H   0  0  0  0  0  0  0  0  0  0  0  0
   58.4852   32.3895   49.1677 H   0  0  0  0  0  0  0  0  0  0  0  0
   60.5648   33.7584   49.3160 H   0  0  0  0  0  0  0  0  0  0  0  0
   61.2168   35.1951   47.3725 H   0  0  0  0  0  0  0  0  0  0  0  0
   59.8135   35.2382   45.3511 H   0  0  0  0  0  0  0  0  0  0  0  0
   55.5487   24.8424   44.1803 H   0  0  0  0  0  0  0  0  0  0  0  0
   56.4631   24.0638   42.7993 H   0  0  0  0  0  0  0  0  0  0  0  0
   55.3223   22.6112   45.1988 H   0  0  0  0  0  0  0  0  0  0  0  0
   54.5838   22.7023   43.5495 H   0  0  0  0  0  0  0  0  0  0  0  0
  1  2  1  0
  2  3  1  0
  3  4  1  0
  4  5  1  0
  5  6  1  0
  6  7  2  0
  6  8  2  0
  6  9  1  0
  9 10  2  0
 10 11  1  0
 11 12  1  0
 12 13  2  0
 13 14  1  0
 14 15  2  0
 14 16  1  0
 16 17  1  0
 17 18  1  0
 18 19  2  0
 19 20  1  0
 20 21  2  0
 21 22  1  0
 22 23  2  0
 12 24  1  0
  5 25  1  0
 25 26  1  0
 26  2  1  0
 24  9  1  0
 23 18  1  0
  1 27  1  0
  1 28  1  0
  1 29  1  0
  3 30  1  0
  3 31  1  0
  4 32  1  0
  4 33  1  0
 11 34  1  0
 16 35  1  0
 16 36  1  0
 17 37  1  0
 17 38  1  0
 19 39  1  0
 20 40  1  0
 21 41  1  0
 22 42  1  0
 23 43  1  0
 25 44  1  0
 25 45  1  0
 26 46  1  0
 26 47  1  0
M  END
>  <smiles>  (41) 
CN1CCN(S(=O)(=O)c2n[nH]c(=NC(=O)CCc3ccccc3)s2)CC1

>  <score_type>  (41) 
oracle

>  <origin>  (41) 
adg

>  <m_score__min__energy>  (41) 
-9.5199999999999996

>  <m_primary>  (41) 
energy

$$$$
41:0
     RDKit          3D

 32 34  0  0  0  0  0  0  0  0999 V2000
   60.7370   28.9010   45.2610 C   0  0  0  0  0  0  0  0  0  0  0  0
   59.4150   28.2480   45.4540 C   0  0  0  0  0  0  0  0  0  0  0  0
   59.3630   26.9720   45.9860 C   0  0  0  0  0  0  0  0  0  0  0  0
   58.1840   26.3280   46.1840 C   0  0  0  0  0  0  0  0  0  0  0  0
   57.8830   25.1160   46.6740 N   0  0  0  0  0  0  0  0  0  0  0  0
   56.5680   24.9930   46.6460 N   0  0  0  0  0  0  0  0  0  0  0  0
   55.9960   26.1030   46.1460 C   0  0  0  0  0  0  0  0  0  0  0  0
   54.7810   26.2970   45.9920 O   0  0  0  0  0  0  0  0  0  0  0  0
   57.0160   26.9790   45.8400 C   0  0  0  0  0  0  0  0  0  0  0  0
   57.0480   28.2620   45.3050 C   0  0  0  0  0  0  0  0  0  0  0  0
   55.8450   28.8430   44.9890 O   0  0  0  0  0  0  0  0  0  0  0  0
   55.5440   29.7250   43.9650 C   0  0  0  0  0  0  0  0  0  0  0  0
   56.5240   30.8150   43.7460 C   0  0  0  0  0  0  0  0  0  0  0  0
   57.0190   31.1630   42.5080 C   0  0  0  0  0  0  0  0  0  0  0  0
   57.9260   32.1900   42.3430 C   0  0  0  0  0  0  0  0  0  0  0  0
   58.3860   32.9240   43.4180 C   0  0  0  0  0  0  0  0  0  0  0  0
   57.8950   32.5870   44.6820 C   0  0  0  0  0  0  0  0  0  0  0  0
   56.9880   31.5570   44.8240 C   0  0  0  0  0  0  0  0  0  0  0  0
   58.2530   28.8260   45.1410 N   0  0  0  0  0  0  0  0  0  0  0  0
   61.1836   29.1216   46.2417 H   0  0  0  0  0  0  0  0  0  0  0  0
   61.4004   28.2269   44.6993 H   0  0  0  0  0  0  0  0  0  0  0  0
   60.6049   29.8375   44.6993 H   0  0  0  0  0  0  0  0  0  0  0  0
   60.3016   26.4657   46.2558 H   0  0  0  0  0  0  0  0  0  0  0  0
   58.5310   24.3980   47.0140 H   0  0  0  0  0  0  0  0  0  0  0  0
   56.0240   24.1520   46.9650 H   0  0  0  0  0  0  0  0  0  0  0  0
   55.4679   29.1467   43.0324 H   0  0  0  0  0  0  0  0  0  0  0  0
   54.6072   30.2195   44.2613 H   0  0  0  0  0  0  0  0  0  0  0  0
   56.6804   30.6044   41.6230 H   0  0  0  0  0  0  0  0  0  0  0  0
   58.2903   32.4289   41.3330 H   0  0  0  0  0  0  0  0  0  0  0  0
   59.1100   33.7413   43.2848 H   0  0  0  0  0  0  0  0  0  0  0  0
   58.2330   33.1452   45.5676 H   0  0  0  0  0  0  0  0  0  0  0  0
   56.6179   31.3141   45.8310 H   0  0  0  0  0  0  0  0  0  0  0  0
  1  2  1  0
  2  3  2  0
  3  4  1  0
  4  5  1  0
  5  6  1  0
  6  7  1  0
  7  8  2  0
  7  9  1  0
  9 10  1  0
 10 11  1  0
 11 12  1  0
 12 13  1  0
 13 14  2  0
 14 15  1  0
 15 16  2  0
 16 17  1  0
 17 18  2  0
 10 19  2  0
 19  2  1  0
  9  4  2  0
 18 13  1  0
  1 20  1  0
  1 21  1  0
  1 22  1  0
  3 23  1  0
  5 24  1  0
  6 25  1  0
 12 26  1  0
 12 27  1  0
 14 28  1  0
 15 29  1  0
 16 30  1  0
 17 31  1  0
 18 32  1  0
M  END
>  <smiles>  (42) 
Cc1cc2[nH][nH]c(=O)c2c(OCc2ccccc2)n1

>  <score_type>  (42) 
oracle

>  <origin>  (42) 
adg

>  <m_score__min__energy>  (42) 
-7.1299999999999999

>  <m_primary>  (42) 
energy

$$$$
42:0
     RDKit          3D

 36 37  0  0  0  0  0  0  0  0999 V2000
   59.1270   28.6730   48.1120 C   0  0  0  0  0  0  0  0  0  0  0  0
   59.7740   28.2830   46.9060 O   0  0  0  0  0  0  0  0  0  0  0  0
   60.2000   29.2040   45.9440 C   0  0  0  0  0  0  0  0  0  0  0  0
   60.9720   30.1510   46.2610 O   0  0  0  0  0  0  0  0  0  0  0  0
   59.7300   29.0650   44.5290 C   0  0  0  0  0  0  0  0  0  0  0  0
   58.2860   28.8150   44.4790 N   0  0  0  0  0  0  0  0  0  0  0  0
   57.7650   27.4950   44.7360 C   0  0  0  0  0  0  0  0  0  0  0  0
   58.0170   26.3520   43.9790 C   0  0  0  0  0  0  0  0  0  0  0  0
   57.3640   25.2160   44.4660 C   0  0  0  0  0  0  0  0  0  0  0  0
   56.5920   25.4550   45.5950 C   0  0  0  0  0  0  0  0  0  0  0  0
   56.7180   27.0840   45.9890 S   0  0  0  0  0  0  0  0  0  0  0  0
   57.1960   30.1510   44.2130 S   0  0  0  0  0  0  0  0  0  0  0  0
   56.9600   30.3300   42.7390 O   0  0  0  0  0  0  0  0  0  0  0  0
   55.8810   29.8660   44.8830 O   0  0  0  0  0  0  0  0  0  0  0  0
   57.8720   31.6530   44.8380 C   0  0  0  0  0  0  0  0  0  0  0  0
   58.1420   32.7160   43.9660 C   0  0  0  0  0  0  0  0  0  0  0  0
   58.6980   33.9020   44.4520 C   0  0  0  0  0  0  0  0  0  0  0  0
   59.0020   34.0330   45.8130 C   0  0  0  0  0  0  0  0  0  0  0  0
   59.5700   35.3200   46.3330 C   0  0  0  0  0  0  0  0  0  0  0  0
   58.7140   32.9750   46.6900 C   0  0  0  0  0  0  0  0  0  0  0  0
   58.1560   31.7900   46.2040 C   0  0  0  0  0  0  0  0  0  0  0  0
   59.7130   28.3198   48.9733 H   0  0  0  0  0  0  0  0  0  0  0  0
   59.0476   29.7696   48.1475 H   0  0  0  0  0  0  0  0  0  0  0  0
   58.1203   28.2311   48.1475 H   0  0  0  0  0  0  0  0  0  0  0  0
   59.9539   29.9930   43.9824 H   0  0  0  0  0  0  0  0  0  0  0  0
   60.2503   28.2124   44.0682 H   0  0  0  0  0  0  0  0  0  0  0  0
   58.6637   26.3447   43.0892 H   0  0  0  0  0  0  0  0  0  0  0  0
   57.4535   24.2245   43.9981 H   0  0  0  0  0  0  0  0  0  0  0  0
   55.9987   24.7055   46.1392 H   0  0  0  0  0  0  0  0  0  0  0  0
   57.9152   32.6163   42.8943 H   0  0  0  0  0  0  0  0  0  0  0  0
   58.8978   34.7361   43.7632 H   0  0  0  0  0  0  0  0  0  0  0  0
   59.5637   35.3057   47.4329 H   0  0  0  0  0  0  0  0  0  0  0  0
   60.6031   35.4365   45.9737 H   0  0  0  0  0  0  0  0  0  0  0  0
   58.9598   36.1618   45.9737 H   0  0  0  0  0  0  0  0  0  0  0  0
   58.9285   33.0795   47.7638 H   0  0  0  0  0  0  0  0  0  0  0  0
   57.9389   30.9622   46.8951 H   0  0  0  0  0  0  0  0  0  0  0  0
  1  2  1  0
  2  3  1  0
  3  4  2  0
  3  5  1  0
  5  6  1  0
  6  7  1  0
  7  8  2  0
  8  9  1  0
  9 10  2  0
 10 11  1  0
  6 12  1  0
 12 13  2  0
 12 14  2  0
 12 15  1  0
 15 16  2  0
 16 17  1  0
 17 18  2  0
 18 19  1  0
 18 20  1  0
 20 21  2  0
 11  7  1  0
 21 15  1  0
  1 22  1  0
  1 23  1  0
  1 24  1  0
  5 25  1  0
  5 26  1  0
  8 27  1  0
  9 28  1  0
 10 29  1  0
 16 30  1  0
 17 31  1  0
 19 32  1  0
 19 33  1  0
 19 34  1  0
 20 35  1  0
 21 36  1  0
M  END
>  <UniqueID>  (43) 
40

>  <SMILES>  (43) 
COC(=O)CN(c1cccs1)S(=O)(=O)c1ccc(C)cc1

>  <Energy>  (43) 
59.8070561327417

>  <Genealogy>  (43) 
COC(=O)CN(c1cccs1)S(=O)(=O)c1ccc(C)cc1 (3D coordinates assigned)
COC(=O)CN(c1cccs1)S(=O)(=O)c1ccc(C)cc1 (optimized conformer: 59.8070561327417 kcal/mol)

>  <smiles>  (43) 
COC(=O)CN(c1cccs1)S(=O)(=O)c1ccc(C)cc1

>  <score_type>  (43) 
oracle

>  <origin>  (43) 
adg

>  <m_score__min__energy>  (43) 
-7.5899999999999999

>  <m_primary>  (43) 
energy

$$$$
43:0
     RDKit          3D

 42 44  0  0  0  0  0  0  0  0999 V2000
   60.0610   30.1710   45.6310 N   0  0  0  0  0  0  0  0  0  0  0  0
   60.2730   31.2760   46.5100 C   0  0  0  0  0  0  0  0  0  0  0  0
   61.4310   31.5070   46.9520 O   0  0  0  0  0  0  0  0  0  0  0  0
   59.1330   32.1800   46.8980 C   0  0  1  0  0  0  0  0  0  0  0  0
   59.6380   33.4990   47.5330 C   0  0  0  0  0  0  0  0  0  0  0  0
   58.9370   34.6510   46.7980 C   0  0  0  0  0  0  0  0  0  0  0  0
   58.2020   33.9740   45.7120 C   0  0  0  0  0  0  0  0  0  0  0  0
   57.4600   34.5860   44.8980 O   0  0  0  0  0  0  0  0  0  0  0  0
   58.3530   32.5630   45.7280 N   0  0  0  0  0  0  0  0  0  0  0  0
   57.6600   31.6230   44.8850 C   0  0  0  0  0  0  0  0  0  0  0  0
   57.6240   31.7750   43.4920 C   0  0  0  0  0  0  0  0  0  0  0  0
   56.9600   30.8120   42.7310 C   0  0  0  0  0  0  0  0  0  0  0  0
   56.3790   29.7460   43.3400 N   0  0  0  0  0  0  0  0  0  0  0  0
   56.4320   29.5970   44.6880 C   0  0  0  0  0  0  0  0  0  0  0  0
   55.8790   28.5590   45.2370 N   0  0  0  0  0  0  0  0  0  0  0  0
   56.6090   27.3510   45.6210 C   0  0  0  0  0  0  0  0  0  0  0  0
   58.1040   27.5320   45.3570 C   0  0  0  0  0  0  0  0  0  0  0  0
   58.8820   27.6090   46.6460 C   0  0  0  0  0  0  0  0  0  0  0  0
   58.5470   28.5680   47.6170 C   0  0  0  0  0  0  0  0  0  0  0  0
   59.2890   28.6610   48.7980 C   0  0  0  0  0  0  0  0  0  0  0  0
   60.3730   27.8060   49.0160 C   0  0  0  0  0  0  0  0  0  0  0  0
   60.7190   26.8570   48.0490 C   0  0  0  0  0  0  0  0  0  0  0  0
   59.9790   26.7590   46.8650 C   0  0  0  0  0  0  0  0  0  0  0  0
   57.0730   30.5300   45.4450 N   0  0  0  0  0  0  0  0  0  0  0  0
   60.8570   29.5490   45.3650 H   0  0  0  0  0  0  0  0  0  0  0  0
   59.1130   29.9710   45.2430 H   0  0  0  0  0  0  0  0  0  0  0  0
   58.5265   31.6109   47.6179 H   0  0  0  0  0  0  0  0  0  0  0  0
   59.3842   33.5241   48.6030 H   0  0  0  0  0  0  0  0  0  0  0  0
   60.7310   33.5840   47.4423 H   0  0  0  0  0  0  0  0  0  0  0  0
   58.2454   35.1817   47.4689 H   0  0  0  0  0  0  0  0  0  0  0  0
   59.6396   35.4124   46.4284 H   0  0  0  0  0  0  0  0  0  0  0  0
   58.1092   32.6358   43.0086 H   0  0  0  0  0  0  0  0  0  0  0  0
   56.9071   30.9163   41.6372 H   0  0  0  0  0  0  0  0  0  0  0  0
   56.4501   27.1552   46.6917 H   0  0  0  0  0  0  0  0  0  0  0  0
   56.2391   26.5033   45.0256 H   0  0  0  0  0  0  0  0  0  0  0  0
   58.4699   26.6781   44.7680 H   0  0  0  0  0  0  0  0  0  0  0  0
   58.2482   28.4739   44.8074 H   0  0  0  0  0  0  0  0  0  0  0  0
   57.6986   29.2473   47.4473 H   0  0  0  0  0  0  0  0  0  0  0  0
   59.0190   29.4091   49.5579 H   0  0  0  0  0  0  0  0  0  0  0  0
   60.9535   27.8796   49.9475 H   0  0  0  0  0  0  0  0  0  0  0  0
   61.5742   26.1864   48.2191 H   0  0  0  0  0  0  0  0  0  0  0  0
   60.2570   26.0148   46.1042 H   0  0  0  0  0  0  0  0  0  0  0  0
  1  2  1  0
  2  3  2  0
  2  4  1  0
  4  5  1  0
  5  6  1  0
  6  7  1  0
  7  8  2  0
  7  9  1  0
  9 10  1  0
 10 11  1  0
 11 12  2  0
 12 13  1  0
 13 14  1  0
 14 15  2  3
 15 16  1  0
 16 17  1  0
 17 18  1  0
 18 19  2  0
 19 20  1  0
 20 21  2  0
 21 22  1  0
 22 23  2  0
 14 24  1  0
  9  4  1  0
 24 10  2  0
 23 18  1  0
  1 25  1  0
  1 26  1  0
  4 27  1  1
  5 28  1  0
  5 29  1  0
  6 30  1  0
  6 31  1  0
 11 32  1  0
 12 33  1  0
 16 34  1  0
 16 35  1  0
 17 36  1  0
 17 37  1  0
 19 38  1  0
 20 39  1  0
 21 40  1  0
 22 41  1  0
 23 42  1  0
M  CHG  1  13  -1
M  END
>  <UniqueID>  (44) 
41

>  <SMILES>  (44) 
NC(=O)[C@H]1CCC(=O)N1c1cc[n-]c(=NCCc2ccccc2)n1

>  <Energy>  (44) 
48.352861984399695

>  <Genealogy>  (44) 
NC(=O)C1CCC(=O)N1c1cc[n-]c(=NCCc2ccccc2)n1 (protonated)
NC(=O)[C@H]1CCC(=O)N1c1cc[n-]c(=NCCc2ccccc2)n1 (chirality)
NC(=O)[C@H]1CCC(=O)N1c1cc[n-]c(=NCCc2ccccc2)n1 (3D coordinates assigned)
NC(=O)[C@H]1CCC(=O)N1c1cc[n-]c(=NCCc2ccccc2)n1 (nonaromatic ring conformer: 48.352861984399695 kcal/mol)

>  <smiles>  (44) 
NC(=O)C1CCC(=O)N1c1cc[nH]c(=NCCc2ccccc2)n1

>  <score_type>  (44) 
oracle

>  <origin>  (44) 
adg

>  <m_score__min__energy>  (44) 
-9.6099999999999994

>  <m_primary>  (44) 
energy

$$$$
44:0
     RDKit          3D

 25 26  0  0  0  0  0  0  0  0999 V2000
   60.1000   28.3405   44.2815 H   0  0  0  0  0  0  0  0  0  0  0  0
   59.0700   28.6220   44.5460 C   0  0  0  0  0  0  0  0  0  0  0  0
   58.6850   29.9660   44.5170 C   0  0  0  0  0  0  0  0  0  0  0  0
   59.4190   30.7404   44.2496 H   0  0  0  0  0  0  0  0  0  0  0  0
   57.3690   30.3300   44.8270 C   0  0  0  0  0  0  0  0  0  0  0  0
   57.0140   31.7200   44.8430 N   0  0  0  0  0  0  0  0  0  0  0  0
   57.7290   32.7210   45.2830 C   0  0  0  0  0  0  0  0  0  0  0  0
   58.4670   33.5590   44.4200 C   0  0  0  0  0  0  0  0  0  0  0  0
   58.4487   33.3891   43.3334 H   0  0  0  0  0  0  0  0  0  0  0  0
   59.2210   34.6060   44.9560 C   0  0  0  0  0  0  0  0  0  0  0  0
   59.7929   35.2694   44.2905 H   0  0  0  0  0  0  0  0  0  0  0  0
   59.2480   34.8090   46.3330 C   0  0  0  0  0  0  0  0  0  0  0  0
   59.8339   35.6357   46.7612 H   0  0  0  0  0  0  0  0  0  0  0  0
   58.5250   33.9540   47.1640 C   0  0  0  0  0  0  0  0  0  0  0  0
   58.5451   34.1022   48.2538 H   0  0  0  0  0  0  0  0  0  0  0  0
   57.7940   32.9360   46.6310 N   0  0  0  0  0  0  0  0  0  0  0  0
   57.2650   32.3110   47.2810 H   0  0  0  0  0  0  0  0  0  0  0  0
   56.4540   29.3390   45.2280 C   0  0  0  0  0  0  0  0  0  0  0  0
   55.4321   29.6232   45.5193 H   0  0  0  0  0  0  0  0  0  0  0  0
   56.8390   27.9900   45.2580 C   0  0  0  0  0  0  0  0  0  0  0  0
   55.9010   26.9830   45.6510 N   0  0  0  0  0  0  0  0  0  0  0  0
   55.5720   26.9170   46.6390 H   0  0  0  0  0  0  0  0  0  0  0  0
   55.5310   26.2970   44.9560 H   0  0  0  0  0  0  0  0  0  0  0  0
   58.1500   27.6360   44.9100 C   0  0  0  0  0  0  0  0  0  0  0  0
   58.4550   26.5792   44.9236 H   0  0  0  0  0  0  0  0  0  0  0  0
  1  2  1  0
  2  3  2  0
  3  4  1  0
  3  5  1  0
  5  6  1  0
  6  7  2  0
  7  8  1  0
  8  9  1  0
  8 10  2  0
 10 11  1  0
 10 12  1  0
 12 13  1  0
 12 14  2  0
 14 15  1  0
 14 16  1  0
 16 17  1  0
  5 18  2  0
 18 19  1  0
 18 20  1  0
 20 21  1  0
 21 22  1  0
 21 23  1  0
 20 24  2  0
 24 25  1  0
 24  2  1  0
 16  7  1  0
M  END
>  <UniqueID>  (45) 
42

>  <SMILES>  (45) 
Nc1cccc(/N=c2\cccc[nH]2)c1

>  <Energy>  (45) 
34.59053158193194

>  <Genealogy>  (45) 
Nc1cccc(/N=c2\cccc[nH]2)c1 (cis-trans isomerization)
Nc1cccc(/N=c2\cccc[nH]2)c1 (3D coordinates assigned)
Nc1cccc(/N=c2\cccc[nH]2)c1 (optimized conformer: 34.59053158193194 kcal/mol)

>  <smiles>  (45) 
Nc1cccc(N=c2cccc[nH]2)c1

>  <score_type>  (45) 
oracle

>  <origin>  (45) 
adg

>  <m_score__min__energy>  (45) 
-5.6699999999999999

>  <m_primary>  (45) 
energy

$$$$
45:0
     RDKit          3D

 26 27  0  0  0  0  0  0  0  0999 V2000
   57.7045   32.3866   42.5535 H   0  0  0  0  0  0  0  0  0  0  0  0
   57.3760   31.6230   43.2740 C   0  0  0  0  0  0  0  0  0  0  0  0
   56.6010   30.1790   42.8950 S   0  0  0  0  0  0  0  0  0  0  0  0
   56.4910   29.6930   44.5030 C   0  0  0  0  0  0  0  0  0  0  0  0
   55.9620   28.5900   44.9490 N   0  0  0  0  0  0  0  0  0  0  0  0
   56.6480   27.4090   45.3980 C   0  0  0  0  0  0  0  0  0  0  0  0
   56.2260   26.7350   46.3760 O   0  0  0  0  0  0  0  0  0  0  0  0
   57.9210   27.0020   44.7200 C   0  0  0  0  0  0  0  0  0  0  0  0
   58.0485   25.9138   44.8174 H   0  0  0  0  0  0  0  0  0  0  0  0
   58.7579   27.5322   45.1981 H   0  0  0  0  0  0  0  0  0  0  0  0
   57.8950   27.3550   43.3030 N   0  0  0  0  0  0  0  0  0  0  0  0
   56.9340   27.6830   43.0540 H   0  0  0  0  0  0  0  0  0  0  0  0
   58.5550   28.1510   43.1420 H   0  0  0  0  0  0  0  0  0  0  0  0
   57.0320   30.6080   45.3330 N   0  0  0  0  0  0  0  0  0  0  0  0
   57.5310   31.6860   44.6630 C   0  0  0  0  0  0  0  0  0  0  0  0
   58.1670   32.8190   45.3860 C   0  0  0  0  0  0  0  0  0  0  0  0
   58.6880   33.9080   44.6600 C   0  0  0  0  0  0  0  0  0  0  0  0
   58.6214   33.9127   43.5620 H   0  0  0  0  0  0  0  0  0  0  0  0
   59.2890   34.9830   45.3220 C   0  0  0  0  0  0  0  0  0  0  0  0
   59.6948   35.8263   44.7439 H   0  0  0  0  0  0  0  0  0  0  0  0
   59.3750   34.9880   46.7160 C   0  0  0  0  0  0  0  0  0  0  0  0
   59.8516   35.8326   47.2352 H   0  0  0  0  0  0  0  0  0  0  0  0
   58.8560   33.9210   47.4490 C   0  0  0  0  0  0  0  0  0  0  0  0
   58.9196   33.9282   48.5471 H   0  0  0  0  0  0  0  0  0  0  0  0
   58.2550   32.8420   46.7930 C   0  0  0  0  0  0  0  0  0  0  0  0
   57.8479   32.0049   47.3791 H   0  0  0  0  0  0  0  0  0  0  0  0
  1  2  1  0
  2  3  1  0
  3  4  1  0
  4  5  2  0
  5  6  1  0
  6  7  2  0
  6  8  1  0
  8  9  1  0
  8 10  1  0
  8 11  1  0
 11 12  1  0
 11 13  1  0
  4 14  1  0
 14 15  1  0
 15 16  1  0
 16 17  2  0
 17 18  1  0
 17 19  1  0
 19 20  1  0
 19 21  2  0
 21 22  1  0
 21 23  1  0
 23 24  1  0
 23 25  2  0
 25 26  1  0
 15  2  2  0
 25 16  1  0
M  CHG  1  14  -1
M  END
>  <UniqueID>  (46) 
43

>  <SMILES>  (46) 
NCC(=O)/N=c1/[n-]c(-c2ccccc2)cs1

>  <Energy>  (46) 
59.98092869005842

>  <Genealogy>  (46) 
NCC(=O)N=c1[n-]c(-c2ccccc2)cs1 (protonated)
NCC(=O)/N=c1/[n-]c(-c2ccccc2)cs1 (cis-trans isomerization)
NCC(=O)/N=c1/[n-]c(-c2ccccc2)cs1 (3D coordinates assigned)
NCC(=O)/N=c1/[n-]c(-c2ccccc2)cs1 (optimized conformer: 59.98092869005842 kcal/mol)

>  <smiles>  (46) 
NCC(=O)N=c1[nH]c(-c2ccccc2)cs1

>  <score_type>  (46) 
oracle

>  <origin>  (46) 
adg

>  <m_score__min__energy>  (46) 
-9.4800000000000004

>  <m_primary>  (46) 
energy

$$$$
46:0
     RDKit          3D

 25 26  0  0  0  0  0  0  0  0999 V2000
   55.4950   29.0790   44.6620 N   0  0  0  0  0  0  0  0  0  0  0  0
   56.6450   29.8920   44.8950 C   0  0  0  0  0  0  0  0  0  0  0  0
   57.8750   29.3070   45.2160 C   0  0  0  0  0  0  0  0  0  0  0  0
   58.9720   30.1420   45.4330 C   0  0  0  0  0  0  0  0  0  0  0  0
   60.0940   29.6510   45.7230 O   0  0  0  0  0  0  0  0  0  0  0  0
   58.8280   31.4890   45.3330 N   0  0  0  0  0  0  0  0  0  0  0  0
   57.6260   32.0420   45.0260 C   0  0  0  0  0  0  0  0  0  0  0  0
   57.4620   33.8210   44.9180 S   0  0  0  0  0  0  0  0  0  0  0  0
   59.2590   34.1340   44.8070 C   0  0  0  0  0  0  0  0  0  0  0  0
   59.8850   34.1660   46.1730 C   0  0  0  0  0  0  0  0  0  0  0  0
   61.2140   33.7600   46.3560 C   0  0  0  0  0  0  0  0  0  0  0  0
   61.7780   33.7680   47.6330 C   0  0  0  0  0  0  0  0  0  0  0  0
   61.0030   34.1790   48.7200 C   0  0  0  0  0  0  0  0  0  0  0  0
   59.7140   34.5650   48.5300 N   0  0  0  0  0  0  0  0  0  0  0  0
   59.1430   34.5670   47.2950 C   0  0  0  0  0  0  0  0  0  0  0  0
   56.5470   31.2450   44.8070 N   0  0  0  0  0  0  0  0  0  0  0  0
   55.3680   28.6000   43.7430 H   0  0  0  0  0  0  0  0  0  0  0  0
   54.7690   28.9520   45.4010 H   0  0  0  0  0  0  0  0  0  0  0  0
   57.9749   28.2144   45.2954 H   0  0  0  0  0  0  0  0  0  0  0  0
   59.7277   33.3340   44.2151 H   0  0  0  0  0  0  0  0  0  0  0  0
   59.4158   35.1110   44.3264 H   0  0  0  0  0  0  0  0  0  0  0  0
   61.8131   33.4348   45.4927 H   0  0  0  0  0  0  0  0  0  0  0  0
   62.8217   33.4540   47.7816 H   0  0  0  0  0  0  0  0  0  0  0  0
   61.4366   34.1902   49.7309 H   0  0  0  0  0  0  0  0  0  0  0  0
   58.0965   34.8839   47.1754 H   0  0  0  0  0  0  0  0  0  0  0  0
  1  2  1  0
  2  3  2  0
  3  4  1  0
  4  5  2  0
  4  6  1  0
  6  7  1  0
  7  8  1  0
  8  9  1  0
  9 10  1  0
 10 11  2  0
 11 12  1  0
 12 13  2  0
 13 14  1  0
 14 15  2  0
  7 16  2  0
 16  2  1  0
 15 10  1  0
  1 17  1  0
  1 18  1  0
  3 19  1  0
  9 20  1  0
  9 21  1  0
 11 22  1  0
 12 23  1  0
 13 24  1  0
 15 25  1  0
M  CHG  1   6  -1
M  END
>  <UniqueID>  (47) 
44

>  <SMILES>  (47) 
Nc1cc(=O)[n-]c(SCc2cccnc2)n1

>  <Energy>  (47) 
21.594952450321774

>  <Genealogy>  (47) 
Nc1cc(=O)[n-]c(SCc2cccnc2)n1 (protonated)
Nc1cc(=O)[n-]c(SCc2cccnc2)n1 (3D coordinates assigned)
Nc1cc(=O)[n-]c(SCc2cccnc2)n1 (optimized conformer: 21.594952450321774 kcal/mol)

>  <smiles>  (47) 
Nc1cc(=O)[nH]c(SCc2cccnc2)n1

>  <score_type>  (47) 
oracle

>  <origin>  (47) 
adg

>  <m_score__min__energy>  (47) 
-7.8300000000000001

>  <m_primary>  (47) 
energy

$$$$
47:0
     RDKit          3D

 45 47  0  0  0  0  0  0  0  0999 V2000
   58.9945   34.2804   48.5537 H   0  0  0  0  0  0  0  0  0  0  0  0
   58.8910   34.1620   47.4650 C   0  0  0  0  0  0  0  0  0  0  0  0
   57.9710   32.9890   46.6840 S   0  0  0  0  0  0  0  0  0  0  0  0
   58.3530   33.4700   45.1200 C   0  0  0  0  0  0  0  0  0  0  0  0
   57.7880   32.8740   43.8700 C   0  0  0  0  0  0  0  0  0  0  0  0
   58.3834   33.2043   43.0060 H   0  0  0  0  0  0  0  0  0  0  0  0
   56.7456   33.2037   43.7484 H   0  0  0  0  0  0  0  0  0  0  0  0
   57.8270   31.4100   43.9580 N   0  0  0  0  0  0  0  0  0  0  0  0
   57.7170   31.1160   44.9580 H   0  0  0  0  0  0  0  0  0  0  0  0
   56.7890   30.7740   43.1280 C   0  0  0  0  0  0  0  0  0  0  0  0
   57.2793   30.1760   42.3457 H   0  0  0  0  0  0  0  0  0  0  0  0
   56.1691   31.5728   42.6949 H   0  0  0  0  0  0  0  0  0  0  0  0
   55.8820   29.8710   43.9330 C   0  0  0  0  0  0  0  0  0  0  0  0
   54.7590   29.5420   43.4680 O   0  0  0  0  0  0  0  0  0  0  0  0
   56.2490   29.4010   45.2370 N   0  0  0  0  0  0  0  0  0  0  0  0
   57.1910   28.3610   45.5350 C   0  0  0  0  0  0  0  0  0  0  0  0
   58.5720   28.5400   45.3390 C   0  0  0  0  0  0  0  0  0  0  0  0
   58.9539   29.5059   44.9767 H   0  0  0  0  0  0  0  0  0  0  0  0
   59.4600   27.4950   45.6030 C   0  0  0  0  0  0  0  0  0  0  0  0
   60.5403   27.6429   45.4580 H   0  0  0  0  0  0  0  0  0  0  0  0
   58.9790   26.2620   46.0510 C   0  0  0  0  0  0  0  0  0  0  0  0
   59.6819   25.4426   46.2621 H   0  0  0  0  0  0  0  0  0  0  0  0
   57.6030   26.0670   46.2320 C   0  0  0  0  0  0  0  0  0  0  0  0
   56.9910   24.5040   46.7630 S   0  0  0  0  0  0  0  0  0  0  0  0
   55.5310   24.3970   46.4200 O   0  0  0  0  0  0  0  0  0  0  0  0
   57.1610   24.3790   48.2520 O   0  0  0  0  0  0  0  0  0  0  0  0
   57.8820   23.2540   45.9600 N   0  0  0  0  0  0  0  0  0  0  0  0
   57.5380   22.7230   44.8260 C   0  0  0  0  0  0  0  0  0  0  0  0
   57.9320   21.4350   44.3940 N   0  0  0  0  0  0  0  0  0  0  0  0
   58.5340   20.7650   44.9210 H   0  0  0  0  0  0  0  0  0  0  0  0
   57.3730   21.1600   43.0870 C   0  0  0  0  0  0  0  0  0  0  0  0
   56.7177   20.2776   43.1311 H   0  0  0  0  0  0  0  0  0  0  0  0
   58.1627   20.9478   42.3513 H   0  0  0  0  0  0  0  0  0  0  0  0
   56.5610   22.4080   42.6920 C   0  0  0  0  0  0  0  0  0  0  0  0
   55.5059   22.1371   42.5391 H   0  0  0  0  0  0  0  0  0  0  0  0
   56.9431   22.8391   41.7549 H   0  0  0  0  0  0  0  0  0  0  0  0
   56.6820   23.4190   43.8430 C   0  0  0  0  0  0  0  0  0  0  0  0
   55.6950   23.6458   44.2723 H   0  0  0  0  0  0  0  0  0  0  0  0
   57.0976   24.3855   43.5219 H   0  0  0  0  0  0  0  0  0  0  0  0
   56.7130   27.1150   45.9560 C   0  0  0  0  0  0  0  0  0  0  0  0
   55.6306   26.9564   46.0714 H   0  0  0  0  0  0  0  0  0  0  0  0
   59.1910   34.5750   45.1860 C   0  0  0  0  0  0  0  0  0  0  0  0
   59.5748   35.0981   44.2977 H   0  0  0  0  0  0  0  0  0  0  0  0
   59.4980   34.9560   46.4980 C   0  0  0  0  0  0  0  0  0  0  0  0
   60.1567   35.8029   46.7407 H   0  0  0  0  0  0  0  0  0  0  0  0
  1  2  1  0
  2  3  1  0
  3  4  1  0
  4  5  1  0
  5  6  1  0
  5  7  1  0
  5  8  1  0
  8  9  1  0
  8 10  1  0
 10 11  1  0
 10 12  1  0
 10 13  1  0
 13 14  2  0
 13 15  1  0
 15 16  1  0
 16 17  2  0
 17 18  1  0
 17 19  1  0
 19 20  1  0
 19 21  2  0
 21 22  1  0
 21 23  1  0
 23 24  1  0
 24 25  2  0
 24 26  2  0
 24 27  1  0
 27 28  2  0
 28 29  1  0
 29 30  1  0
 29 31  1  0
 31 32  1  0
 31 33  1  0
 31 34  1  0
 34 35  1  0
 34 36  1  0
 34 37  1  0
 37 38  1  0
 37 39  1  0
 23 40  2  0
 40 41  1  0
  4 42  2  0
 42 43  1  0
 42 44  1  0
 44 45  1  0
 44  2  2  0
 40 16  1  0
 37 28  1  0
M  CHG  1  15  -1
M  END
>  <UniqueID>  (48) 
45

>  <SMILES>  (48) 
O=C(CNCc1cccs1)[N-]c1cccc(S(=O)(=O)/N=C2/CCCN2)c1

>  <Energy>  (48) 
85.82799470786019

>  <Genealogy>  (48) 
O=C(CNCc1cccs1)[N-]c1cccc(S(=O)(=O)N=C2CCCN2)c1 (protonated)
O=C(CNCc1cccs1)[N-]c1cccc(S(=O)(=O)/N=C2/CCCN2)c1 (cis-trans isomerization)
O=C(CNCc1cccs1)[N-]c1cccc(S(=O)(=O)/N=C2/CCCN2)c1 (3D coordinates assigned)
O=C(CNCc1cccs1)[N-]c1cccc(S(=O)(=O)/N=C2/CCCN2)c1 (nonaromatic ring conformer: 85.82799470786019 kcal/mol)

>  <smiles>  (48) 
O=C(CNCc1cccs1)Nc1cccc(S(=O)(=O)N=C2CCCN2)c1

>  <score_type>  (48) 
oracle

>  <origin>  (48) 
adg

>  <m_score__min__energy>  (48) 
-10.69

>  <m_primary>  (48) 
energy

$$$$
48:0
     RDKit          3D

 22 23  0  0  0  0  0  0  0  0999 V2000
   57.0850   26.7130   46.1330 O   0  0  0  0  0  0  0  0  0  0  0  0
   57.1890   27.7920   45.4920 C   0  0  0  0  0  0  0  0  0  0  0  0
   58.4090   28.2030   45.0590 N   0  0  0  0  0  0  0  0  0  0  0  0
   58.5510   29.3620   44.3650 C   0  0  0  0  0  0  0  0  0  0  0  0
   57.4320   30.1480   44.0840 C   0  0  0  0  0  0  0  0  0  0  0  0
   57.6160   31.6810   43.1650 S   0  0  0  0  0  0  0  0  0  0  0  0
   58.0580   32.6200   44.6280 C   0  0  0  0  0  0  0  0  0  0  0  0
   57.7790   32.1080   45.9020 C   0  0  0  0  0  0  0  0  0  0  0  0
   58.1220   32.8430   47.0410 C   0  0  0  0  0  0  0  0  0  0  0  0
   58.7480   34.0870   46.9110 C   0  0  0  0  0  0  0  0  0  0  0  0
   59.0780   34.7980   48.0180 F   0  0  0  0  0  0  0  0  0  0  0  0
   59.0320   34.5970   45.6390 C   0  0  0  0  0  0  0  0  0  0  0  0
   59.6400   35.8020   45.5100 F   0  0  0  0  0  0  0  0  0  0  0  0
   58.6900   33.8630   44.4980 C   0  0  0  0  0  0  0  0  0  0  0  0
   56.1830   29.7130   44.5430 C   0  0  0  0  0  0  0  0  0  0  0  0
   55.1480   30.3970   44.3180 O   0  0  0  0  0  0  0  0  0  0  0  0
   56.0840   28.5440   45.2350 N   0  0  0  0  0  0  0  0  0  0  0  0
   59.5471   29.6811   44.0246 H   0  0  0  0  0  0  0  0  0  0  0  0
   57.2902   31.1281   46.0062 H   0  0  0  0  0  0  0  0  0  0  0  0
   57.8992   32.4422   48.0409 H   0  0  0  0  0  0  0  0  0  0  0  0
   58.9176   34.2623   43.4986 H   0  0  0  0  0  0  0  0  0  0  0  0
   55.1490   28.2210   45.5740 H   0  0  0  0  0  0  0  0  0  0  0  0
  1  2  2  0
  2  3  1  0
  3  4  1  0
  4  5  2  0
  5  6  1  0
  6  7  1  0
  7  8  2  0
  8  9  1  0
  9 10  2  0
 10 11  1  0
 10 12  1  0
 12 13  1  0
 12 14  2  0
  5 15  1  0
 15 16  2  0
 15 17  1  0
 17  2  1  0
 14  7  1  0
  4 18  1  0
  8 19  1  0
  9 20  1  0
 14 21  1  0
 17 22  1  0
M  CHG  1   3  -1
M  END
>  <UniqueID>  (49) 
46

>  <SMILES>  (49) 
O=c1[n-]cc(Sc2ccc(F)c(F)c2)c(=O)[nH]1

>  <Energy>  (49) 
20.270102066294143

>  <Genealogy>  (49) 
O=c1[n-]cc(Sc2ccc(F)c(F)c2)c(=O)[nH]1 (protonated)
O=c1[n-]cc(Sc2ccc(F)c(F)c2)c(=O)[nH]1 (3D coordinates assigned)
O=c1[n-]cc(Sc2ccc(F)c(F)c2)c(=O)[nH]1 (optimized conformer: 20.270102066294143 kcal/mol)

>  <smiles>  (49) 
O=c1[nH]cc(Sc2ccc(F)c(F)c2)c(=O)[nH]1

>  <score_type>  (49) 
oracle

>  <origin>  (49) 
adg

>  <m_score__min__energy>  (49) 
-8.2400000000000002

>  <m_primary>  (49) 
energy

$$$$
49:0
     RDKit          3D

 51 53  0  0  0  0  0  0  0  0999 V2000
   58.4310   31.4140   50.9090 C   0  0  0  0  0  0  0  0  0  0  0  0
   59.4300   30.3460   50.9690 N   0  0  0  0  0  0  0  0  0  0  0  0
   60.2410   30.3560   49.7840 C   0  0  0  0  0  0  0  0  0  0  0  0
   61.8680   30.5480   49.9250 S   0  0  0  0  0  0  0  0  0  0  0  0
   59.6420   30.0160   48.5180 N   0  0  0  0  0  0  0  0  0  0  0  0
   60.2700   30.2470   47.2160 C   0  0  0  0  0  0  0  0  0  0  0  0
   59.2390   30.1620   46.1180 C   0  0  0  0  0  0  0  0  0  0  0  0
   59.0230   28.9320   45.4780 C   0  0  0  0  0  0  0  0  0  0  0  0
   58.0630   28.8150   44.4740 C   0  0  0  0  0  0  0  0  0  0  0  0
   57.3100   29.9360   44.1090 C   0  0  0  0  0  0  0  0  0  0  0  0
   56.2690   29.8350   43.0340 C   0  0  0  0  0  0  0  0  0  0  0  0
   56.2740   30.9730   42.2450 F   0  0  0  0  0  0  0  0  0  0  0  0
   55.0190   29.6950   43.6070 F   0  0  0  0  0  0  0  0  0  0  0  0
   56.5310   28.7370   42.2360 F   0  0  0  0  0  0  0  0  0  0  0  0
   57.5350   31.1240   44.7320 N   0  0  0  0  0  0  0  0  0  0  0  0
   58.4700   31.2740   45.7100 C   0  0  0  0  0  0  0  0  0  0  0  0
   58.6290   32.5660   46.3160 N   0  0  0  0  0  0  0  0  0  0  0  0
   58.4420   32.7010   47.7700 C   0  0  0  0  0  0  0  0  0  0  0  0
   59.2790   33.8560   48.3320 C   0  0  0  0  0  0  0  0  0  0  0  0
   60.6080   33.8560   47.7060 N   0  0  0  0  0  0  0  0  0  0  0  0
   61.8020   33.7540   48.5050 C   0  0  0  0  0  0  0  0  0  0  0  0
   62.9850   33.2330   47.9550 C   0  0  0  0  0  0  0  0  0  0  0  0
   64.1490   33.1530   48.7260 C   0  0  0  0  0  0  0  0  0  0  0  0
   64.1430   33.6010   50.0490 C   0  0  0  0  0  0  0  0  0  0  0  0
   62.9740   34.1300   50.6020 C   0  0  0  0  0  0  0  0  0  0  0  0
   61.8080   34.2090   49.8350 C   0  0  0  0  0  0  0  0  0  0  0  0
   60.7180   33.8490   46.2380 C   0  0  0  0  0  0  0  0  0  0  0  0
   59.3540   33.6080   45.5800 C   0  0  0  0  0  0  0  0  0  0  0  0
   58.1517   31.7126   51.9302 H   0  0  0  0  0  0  0  0  0  0  0  0
   58.8512   32.2796   50.3759 H   0  0  0  0  0  0  0  0  0  0  0  0
   57.5393   31.0525   50.3759 H   0  0  0  0  0  0  0  0  0  0  0  0
   58.9440   29.4230   51.0680 H   0  0  0  0  0  0  0  0  0  0  0  0
   60.0350   30.4910   51.8080 H   0  0  0  0  0  0  0  0  0  0  0  0
   58.6280   29.7670   48.5210 H   0  0  0  0  0  0  0  0  0  0  0  0
   60.7295   31.2464   47.2064 H   0  0  0  0  0  0  0  0  0  0  0  0
   61.0387   29.4786   47.0469 H   0  0  0  0  0  0  0  0  0  0  0  0
   59.6160   28.0530   45.7709 H   0  0  0  0  0  0  0  0  0  0  0  0
   57.8990   27.8495   43.9731 H   0  0  0  0  0  0  0  0  0  0  0  0
   57.3793   32.8934   47.9787 H   0  0  0  0  0  0  0  0  0  0  0  0
   58.7691   31.7675   48.2513 H   0  0  0  0  0  0  0  0  0  0  0  0
   58.7747   34.8101   48.1191 H   0  0  0  0  0  0  0  0  0  0  0  0
   59.3889   33.7303   49.4193 H   0  0  0  0  0  0  0  0  0  0  0  0
   62.9958   32.8858   46.9113 H   0  0  0  0  0  0  0  0  0  0  0  0
   65.0695   32.7372   48.2905 H   0  0  0  0  0  0  0  0  0  0  0  0
   65.0585   33.5373   50.6555 H   0  0  0  0  0  0  0  0  0  0  0  0
   62.9712   34.4851   51.6431 H   0  0  0  0  0  0  0  0  0  0  0  0
   60.8911   34.6291   50.2742 H   0  0  0  0  0  0  0  0  0  0  0  0
   61.1111   34.8203   45.9032 H   0  0  0  0  0  0  0  0  0  0  0  0
   61.3952   33.0337   45.9437 H   0  0  0  0  0  0  0  0  0  0  0  0
   58.7704   34.5403   45.5954 H   0  0  0  0  0  0  0  0  0  0  0  0
   59.5029   33.2836   44.5395 H   0  0  0  0  0  0  0  0  0  0  0  0
  1  2  1  0
  2  3  1  0
  3  4  2  0
  3  5  1  0
  5  6  1  0
  6  7  1  0
  7  8  2  0
  8  9  1  0
  9 10  2  0
 10 11  1  0
 11 12  1  0
 11 13  1  0
 11 14  1  0
 10 15  1  0
 15 16  2  0
 16 17  1  0
 17 18  1  0
 18 19  1  0
 19 20  1  0
 20 21  1  0
 21 22  2  0
 22 23  1  0
 23 24  2  0
 24 25  1  0
 25 26  2  0
 20 27  1  0
 27 28  1  0
 16  7  1  0
 28 17  1  0
 26 21  1  0
  1 29  1  0
  1 30  1  0
  1 31  1  0
  2 32  1  0
  2 33  1  0
  5 34  1  0
  6 35  1  0
  6 36  1  0
  8 37  1  0
  9 38  1  0
 18 39  1  0
 18 40  1  0
 19 41  1  0
 19 42  1  0
 22 43  1  0
 23 44  1  0
 24 45  1  0
 25 46  1  0
 26 47  1  0
 27 48  1  0
 27 49  1  0
 28 50  1  0
 28 51  1  0
M  CHG  1   2   1
M  END
>  <UniqueID>  (50) 
47

>  <SMILES>  (50) 
C[NH2+]C(=S)NCc1ccc(C(F)(F)F)nc1N1CCN(c2ccccc2)CC1

>  <Energy>  (50) 
61.63102246689469

>  <Genealogy>  (50) 
C[NH2+]C(=S)NCc1ccc(C(F)(F)F)nc1N1CCN(c2ccccc2)CC1 (protonated)
C[NH2+]C(=S)NCc1ccc(C(F)(F)F)nc1N1CCN(c2ccccc2)CC1 (3D coordinates assigned)
C[NH2+]C(=S)NCc1ccc(C(F)(F)F)nc1N1CCN(c2ccccc2)CC1 (nonaromatic ring conformer: 61.63102246689469 kcal/mol)

>  <smiles>  (50) 
CNC(=S)NCc1ccc(C(F)(F)F)nc1N1CCN(c2ccccc2)CC1

>  <score_type>  (50) 
oracle

>  <origin>  (50) 
adg

>  <m_score__min__energy>  (50) 
-5.8600000000000003

>  <m_primary>  (50) 
energy

$$$$
50:0
     RDKit          3D

 46 49  0  0  1  0  0  0  0  0999 V2000
   56.1940   29.3820   42.2460 O   0  0  0  0  0  0  0  0  0  0  0  0
   57.0140   29.5360   43.1890 C   0  0  0  0  0  0  0  0  0  0  0  0
   57.6930   28.4420   43.7970 N   0  0  0  0  0  0  0  0  0  0  0  0
   58.1110   28.6190   45.0790 C   0  0  0  0  0  0  0  0  0  0  0  0
   57.5950   28.3810   46.2350 N   0  0  0  0  0  0  0  0  0  0  0  0
   58.3590   28.7190   47.2320 N   0  0  0  0  0  0  0  0  0  0  0  0
   59.3830   29.1790   47.3130 C   0  0  0  0  0  0  0  0  0  0  0  0
   60.7050   29.7690   48.4510 S   0  0  0  0  0  0  0  0  0  0  0  0
   61.6660   31.0710   47.6260 C   0  0  0  0  0  0  0  0  0  0  0  0
   62.6800   31.6870   48.4890 C   0  0  0  0  0  0  0  0  0  0  0  0
   63.0480   31.1670   49.7320 C   0  0  0  0  0  0  0  0  0  0  0  0
   64.0190   31.8130   50.4810 C   0  0  0  0  0  0  0  0  0  0  0  0
   64.6230   32.9530   50.0270 C   0  0  0  0  0  0  0  0  0  0  0  0
   64.2710   33.4910   48.7910 C   0  0  0  0  0  0  0  0  0  0  0  0
   63.2990   32.8380   48.0440 C   0  0  0  0  0  0  0  0  0  0  0  0
   62.8790   33.5340   46.4950 Cl  0  0  0  0  0  0  0  0  0  0  0  0
   59.7760   29.3670   45.4200 S   0  0  0  0  0  0  0  0  0  0  0  0
   57.3360   30.8680   43.7380 C   0  0  0  0  0  0  0  0  0  0  0  0
   58.1470   31.8270   43.1340 C   0  0  0  0  0  0  0  0  0  0  0  0
   58.1780   32.9180   43.9910 C   0  0  0  0  0  0  0  0  0  0  0  0
   57.3810   32.5700   45.0850 C   0  0  0  0  0  0  0  0  0  0  0  0
   57.1620   33.4890   46.2320 C   0  0  0  0  0  0  0  0  0  0  0  0
   58.2850   33.5760   47.1270 N   0  0  0  0  0  0  0  0  0  0  0  0
   58.5230   32.6970   48.2470 C   0  0  0  0  0  0  0  0  0  0  0  0
   59.6970   33.2590   48.9830 C   0  0  0  0  0  0  0  0  0  0  0  0
   60.0290   34.5870   48.3630 C   0  0  0  0  0  0  0  0  0  0  0  0
   59.3410   34.5330   47.0610 C   0  0  0  0  0  0  0  0  0  0  0  0
   59.5840   35.1950   46.0000 O   0  0  0  0  0  0  0  0  0  0  0  0
   56.9160   31.3620   44.8820 O   0  0  0  0  0  0  0  0  0  0  0  0
   56.6210   27.9440   46.3570 H   0  0  0  0  0  0  0  0  0  0  0  0
   62.1720   30.6306   46.7542 H   0  0  0  0  0  0  0  0  0  0  0  0
   60.9586   31.8640   47.3418 H   0  0  0  0  0  0  0  0  0  0  0  0
   62.5710   30.2521   50.1134 H   0  0  0  0  0  0  0  0  0  0  0  0
   64.3092   31.4011   51.4588 H   0  0  0  0  0  0  0  0  0  0  0  0
   65.3904   33.4475   50.6407 H   0  0  0  0  0  0  0  0  0  0  0  0
   64.7498   34.4079   48.4169 H   0  0  0  0  0  0  0  0  0  0  0  0
   58.6622   31.7367   42.1663 H   0  0  0  0  0  0  0  0  0  0  0  0
   58.7193   33.8636   43.8401 H   0  0  0  0  0  0  0  0  0  0  0  0
   56.9545   34.4943   45.8366 H   0  0  0  0  0  0  0  0  0  0  0  0
   56.3198   33.0836   46.8120 H   0  0  0  0  0  0  0  0  0  0  0  0
   57.6405   32.6693   48.9031 H   0  0  0  0  0  0  0  0  0  0  0  0
   58.7182   31.6677   47.9116 H   0  0  0  0  0  0  0  0  0  0  0  0
   59.4444   33.3936   50.0451 H   0  0  0  0  0  0  0  0  0  0  0  0
   60.5570   32.5763   48.9172 H   0  0  0  0  0  0  0  0  0  0  0  0
   59.6464   35.4156   48.9771 H   0  0  0  0  0  0  0  0  0  0  0  0
   61.1112   34.7617   48.2718 H   0  0  0  0  0  0  0  0  0  0  0  0
  1  2  2  0
  2  3  1  0
  3  4  2  0
  4  5  1  0
  5  6  1  0
  6  7  2  0
  7  8  1  0
  8  9  1  0
  9 10  1  0
 10 11  2  0
 11 12  1  0
 12 13  2  0
 13 14  1  0
 14 15  2  0
 15 16  1  0
  7 17  1  0
  2 18  1  0
 18 19  2  0
 19 20  1  0
 20 21  2  0
 21 22  1  0
 22 23  1  0
 23 24  1  0
 24 25  1  0
 25 26  1  0
 26 27  1  0
 27 28  2  0
 21 29  1  0
 17  4  1  0
 29 18  1  0
 15 10  1  0
 27 23  1  0
  5 30  1  0
  9 31  1  0
  9 32  1  0
 11 33  1  0
 12 34  1  0
 13 35  1  0
 14 36  1  0
 19 37  1  0
 20 38  1  0
 22 39  1  0
 22 40  1  0
 24 41  1  0
 24 42  1  0
 25 43  1  0
 25 44  1  0
 26 45  1  0
 26 46  1  0
M  END
>  <smiles>  (51) 
O=C(N=c1[nH]nc(SCc2ccccc2Cl)s1)c1ccc(CN2CCCC2=O)o1

>  <score_type>  (51) 
oracle

>  <origin>  (51) 
adg

>  <m_score__min__energy>  (51) 
-9.8200000000000003

>  <m_primary>  (51) 
energy

$$$$
51:0
     RDKit          3D

 37 38  0  0  0  0  0  0  0  0999 V2000
   57.7420   26.7470   44.4230 C   0  0  0  0  0  0  0  0  0  0  0  0
   56.6420   27.4510   45.6330 S   0  0  0  0  0  0  0  0  0  0  0  0
   55.5580   26.4730   45.9890 O   0  0  0  0  0  0  0  0  0  0  0  0
   57.4310   27.7700   46.8720 O   0  0  0  0  0  0  0  0  0  0  0  0
   55.9440   28.9180   45.0250 N   0  0  0  0  0  0  0  0  0  0  0  0
   56.6660   30.0260   44.4690 C   0  0  0  0  0  0  0  0  0  0  0  0
   57.4080   30.9130   45.2690 C   0  0  0  0  0  0  0  0  0  0  0  0
   58.0840   32.0010   44.6940 C   0  0  0  0  0  0  0  0  0  0  0  0
   58.8430   32.8820   45.5370 N   0  0  0  0  0  0  0  0  0  0  0  0
   58.7150   34.3140   45.5210 C   0  0  0  0  0  0  0  0  0  0  0  0
   57.8630   34.8760   44.7820 O   0  0  0  0  0  0  0  0  0  0  0  0
   59.5850   35.1540   46.4080 C   0  0  0  0  0  0  0  0  0  0  0  0
   60.0770   34.3870   47.5070 O   0  0  0  0  0  0  0  0  0  0  0  0
   61.2220   33.5740   47.4820 C   0  0  0  0  0  0  0  0  0  0  0  0
   62.3860   33.9190   46.7660 C   0  0  0  0  0  0  0  0  0  0  0  0
   63.5000   33.0740   46.7830 C   0  0  0  0  0  0  0  0  0  0  0  0
   63.4630   31.8800   47.5080 C   0  0  0  0  0  0  0  0  0  0  0  0
   62.3110   31.5290   48.2160 C   0  0  0  0  0  0  0  0  0  0  0  0
   61.1950   32.3710   48.2010 C   0  0  0  0  0  0  0  0  0  0  0  0
   58.0490   32.1730   43.3000 C   0  0  0  0  0  0  0  0  0  0  0  0
   57.3200   31.2890   42.5010 C   0  0  0  0  0  0  0  0  0  0  0  0
   56.6280   30.2230   43.0820 C   0  0  0  0  0  0  0  0  0  0  0  0
   55.9230   29.3750   42.2920 F   0  0  0  0  0  0  0  0  0  0  0  0
   58.5622   26.2221   44.9346 H   0  0  0  0  0  0  0  0  0  0  0  0
   57.1876   26.0355   43.7934 H   0  0  0  0  0  0  0  0  0  0  0  0
   58.1559   27.5485   43.7934 H   0  0  0  0  0  0  0  0  0  0  0  0
   57.4593   30.7529   46.3561 H   0  0  0  0  0  0  0  0  0  0  0  0
   59.4250   32.4540   46.2920 H   0  0  0  0  0  0  0  0  0  0  0  0
   60.4359   35.5341   45.8236 H   0  0  0  0  0  0  0  0  0  0  0  0
   58.9869   35.9897   46.8003 H   0  0  0  0  0  0  0  0  0  0  0  0
   62.4182   34.8566   46.1916 H   0  0  0  0  0  0  0  0  0  0  0  0
   64.4069   33.3496   46.2248 H   0  0  0  0  0  0  0  0  0  0  0  0
   64.3405   31.2168   47.5212 H   0  0  0  0  0  0  0  0  0  0  0  0
   62.2819   30.5887   48.7861 H   0  0  0  0  0  0  0  0  0  0  0  0
   60.2894   32.0875   48.7573 H   0  0  0  0  0  0  0  0  0  0  0  0
   58.5973   33.0063   42.8364 H   0  0  0  0  0  0  0  0  0  0  0  0
   57.2906   31.4325   41.4108 H   0  0  0  0  0  0  0  0  0  0  0  0
  1  2  1  0
  2  3  2  0
  2  4  2  0
  2  5  1  0
  5  6  1  0
  6  7  2  0
  7  8  1  0
  8  9  1  0
  9 10  1  0
 10 11  2  0
 10 12  1  0
 12 13  1  0
 13 14  1  0
 14 15  2  0
 15 16  1  0
 16 17  2  0
 17 18  1  0
 18 19  2  0
  8 20  2  0
 20 21  1  0
 21 22  2  0
 22 23  1  0
 22  6  1  0
 19 14  1  0
  1 24  1  0
  1 25  1  0
  1 26  1  0
  7 27  1  0
  9 28  1  0
 12 29  1  0
 12 30  1  0
 15 31  1  0
 16 32  1  0
 17 33  1  0
 18 34  1  0
 19 35  1  0
 20 36  1  0
 21 37  1  0
M  CHG  1   5  -1
M  END
>  <UniqueID>  (52) 
48

>  <SMILES>  (52) 
CS(=O)(=O)[N-]c1cc(NC(=O)COc2ccccc2)ccc1F

>  <Energy>  (52) 
38.84272012921529

>  <Genealogy>  (52) 
CS(=O)(=O)[N-]c1cc(NC(=O)COc2ccccc2)ccc1F (protonated)
CS(=O)(=O)[N-]c1cc(NC(=O)COc2ccccc2)ccc1F (3D coordinates assigned)
CS(=O)(=O)[N-]c1cc(NC(=O)COc2ccccc2)ccc1F (optimized conformer: 38.84272012921529 kcal/mol)

>  <smiles>  (52) 
CS(=O)(=O)Nc1cc(NC(=O)COc2ccccc2)ccc1F

>  <score_type>  (52) 
oracle

>  <origin>  (52) 
adg

>  <m_score__min__energy>  (52) 
-10.44

>  <m_primary>  (52) 
energy

$$$$
52:0
     RDKit          3D

 40 42  0  0  0  0  0  0  0  0999 V2000
   57.7950   21.5310   43.6330 C   0  0  0  0  0  0  0  0  0  0  0  0
   56.7350   22.5800   43.7960 C   0  0  0  0  0  0  0  0  0  0  0  0
   55.7930   22.6150   42.9590 O   0  0  0  0  0  0  0  0  0  0  0  0
   56.7690   23.5640   44.9110 C   0  0  0  0  0  0  0  0  0  0  0  0
   57.3850   23.2260   46.1310 C   0  0  0  0  0  0  0  0  0  0  0  0
   57.4240   24.1430   47.1830 C   0  0  0  0  0  0  0  0  0  0  0  0
   56.8420   25.4020   47.0380 C   0  0  0  0  0  0  0  0  0  0  0  0
   56.2050   25.7570   45.8450 C   0  0  0  0  0  0  0  0  0  0  0  0
   55.6300   27.0710   45.7430 N   0  0  0  0  0  0  0  0  0  0  0  0
   56.2280   28.2810   45.2480 C   0  0  0  0  0  0  0  0  0  0  0  0
   55.5130   29.0670   44.5710 O   0  0  0  0  0  0  0  0  0  0  0  0
   57.6750   28.5620   45.3760 C   0  0  0  0  0  0  0  0  0  0  0  0
   58.5500   27.4680   45.2680 C   0  0  0  0  0  0  0  0  0  0  0  0
   59.9280   27.6580   45.2350 C   0  0  0  0  0  0  0  0  0  0  0  0
   60.4360   28.9490   45.2890 C   0  0  0  0  0  0  0  0  0  0  0  0
   59.5930   30.0060   45.4040 N   0  0  0  0  0  0  0  0  0  0  0  0
   58.2400   29.8740   45.4770 C   0  0  0  0  0  0  0  0  0  0  0  0
   57.5500   30.9720   45.6430 N   0  0  0  0  0  0  0  0  0  0  0  0
   57.9980   32.3200   45.8330 C   0  0  0  0  0  0  0  0  0  0  0  0
   58.0390   33.1940   44.7370 C   0  0  0  0  0  0  0  0  0  0  0  0
   58.5160   34.4990   44.8980 C   0  0  0  0  0  0  0  0  0  0  0  0
   58.9800   34.9260   46.1460 C   0  0  0  0  0  0  0  0  0  0  0  0
   58.9800   34.0460   47.2310 C   0  0  0  0  0  0  0  0  0  0  0  0
   58.5060   32.7400   47.0720 C   0  0  0  0  0  0  0  0  0  0  0  0
   56.1940   24.8420   44.7760 C   0  0  0  0  0  0  0  0  0  0  0  0
   58.1342   21.1953   44.6241 H   0  0  0  0  0  0  0  0  0  0  0  0
   57.3823   20.6759   43.0777 H   0  0  0  0  0  0  0  0  0  0  0  0
   58.6458   21.9526   43.0777 H   0  0  0  0  0  0  0  0  0  0  0  0
   57.8390   22.2319   46.2563 H   0  0  0  0  0  0  0  0  0  0  0  0
   57.9153   23.8716   48.1291 H   0  0  0  0  0  0  0  0  0  0  0  0
   56.8844   26.1216   47.8689 H   0  0  0  0  0  0  0  0  0  0  0  0
   58.1406   26.4487   45.2088 H   0  0  0  0  0  0  0  0  0  0  0  0
   60.6071   26.7953   45.1669 H   0  0  0  0  0  0  0  0  0  0  0  0
   61.5222   29.1150   45.2385 H   0  0  0  0  0  0  0  0  0  0  0  0
   57.6955   32.8528   43.7493 H   0  0  0  0  0  0  0  0  0  0  0  0
   58.5261   35.1899   44.0421 H   0  0  0  0  0  0  0  0  0  0  0  0
   59.3453   35.9557   46.2736 H   0  0  0  0  0  0  0  0  0  0  0  0
   59.3528   34.3804   48.2104 H   0  0  0  0  0  0  0  0  0  0  0  0
   58.5314   32.0401   47.9202 H   0  0  0  0  0  0  0  0  0  0  0  0
   55.7295   25.1294   43.8212 H   0  0  0  0  0  0  0  0  0  0  0  0
  1  2  1  0
  2  3  2  0
  2  4  1  0
  4  5  2  0
  5  6  1  0
  6  7  2  0
  7  8  1  0
  8  9  1  0
  9 10  1  0
 10 11  2  0
 10 12  1  0
 12 13  2  0
 13 14  1  0
 14 15  2  0
 15 16  1  0
 16 17  1  0
 17 18  2  3
 18 19  1  0
 19 20  2  0
 20 21  1  0
 21 22  2  0
 22 23  1  0
 23 24  2  0
  8 25  2  0
 25  4  1  0
 17 12  1  0
 24 19  1  0
  1 26  1  0
  1 27  1  0
  1 28  1  0
  5 29  1  0
  6 30  1  0
  7 31  1  0
 13 32  1  0
 14 33  1  0
 15 34  1  0
 20 35  1  0
 21 36  1  0
 22 37  1  0
 23 38  1  0
 24 39  1  0
 25 40  1  0
M  CHG  2   9  -1  16  -1
M  END
>  <UniqueID>  (53) 
49

>  <SMILES>  (53) 
CC(=O)c1cccc([N-]C(=O)c2ccc[n-]c2=Nc2ccccc2)c1

>  <Energy>  (53) 
67.80605760606157

>  <Genealogy>  (53) 
CC(=O)c1cccc([N-]C(=O)c2ccc[n-]c2=Nc2ccccc2)c1 (protonated)
CC(=O)c1cccc([N-]C(=O)c2ccc[n-]c2=Nc2ccccc2)c1 (3D coordinates assigned)
CC(=O)c1cccc([N-]C(=O)c2ccc[n-]c2=Nc2ccccc2)c1 (optimized conformer: 67.80605760606157 kcal/mol)

>  <smiles>  (53) 
CC(=O)c1cccc(NC(=O)c2ccc[nH]c2=Nc2ccccc2)c1

>  <score_type>  (53) 
oracle

>  <origin>  (53) 
adg

>  <m_score__min__energy>  (53) 
-11.6

>  <m_primary>  (53) 
energy

$$$$
53:0
     RDKit          3D

 48 50  0  0  0  0  0  0  0  0999 V2000
   58.1480   32.3870   42.8030 C   0  0  0  0  0  0  0  0  0  0  0  0
   58.2040   32.9820   44.1830 C   0  0  0  0  0  0  0  0  0  0  0  0
   59.1600   33.9700   44.4800 C   0  0  0  0  0  0  0  0  0  0  0  0
   59.2230   34.5280   45.7580 C   0  0  0  0  0  0  0  0  0  0  0  0
   58.3300   34.1150   46.7460 C   0  0  0  0  0  0  0  0  0  0  0  0
   57.3700   33.1390   46.4620 C   0  0  0  0  0  0  0  0  0  0  0  0
   57.2990   32.5620   45.1800 C   0  0  0  0  0  0  0  0  0  0  0  0
   56.3230   31.5560   44.8640 N   0  0  0  0  0  0  0  0  0  0  0  0
   56.6700   29.9060   44.4550 S   0  0  0  0  0  0  0  0  0  0  0  0
   55.5190   29.0450   44.8940 O   0  0  0  0  0  0  0  0  0  0  0  0
   56.8270   29.7920   42.9650 O   0  0  0  0  0  0  0  0  0  0  0  0
   58.1310   29.3600   45.2710 C   0  0  0  0  0  0  0  0  0  0  0  0
   59.3070   29.1310   44.5430 C   0  0  0  0  0  0  0  0  0  0  0  0
   60.4640   28.7020   45.1970 C   0  0  0  0  0  0  0  0  0  0  0  0
   60.4610   28.5180   46.5820 C   0  0  0  0  0  0  0  0  0  0  0  0
   59.2950   28.7690   47.3250 C   0  0  0  0  0  0  0  0  0  0  0  0
   59.2460   28.5760   48.7450 N   0  0  0  0  0  0  0  0  0  0  0  0
   59.6220   29.5390   49.7380 C   0  0  0  0  0  0  0  0  0  0  0  0
   60.7760   29.5210   50.2470 O   0  0  0  0  0  0  0  0  0  0  0  0
   58.6700   30.6390   50.0940 C   0  0  0  0  0  0  0  0  0  0  0  0
   58.7520   31.7240   49.1230 N   0  0  0  0  0  0  0  0  0  0  0  0
   59.6740   32.8150   49.2340 C   0  0  0  0  0  0  0  0  0  0  0  0
   59.3770   33.8160   49.9430 O   0  0  0  0  0  0  0  0  0  0  0  0
   60.9670   32.7760   48.5130 C   0  0  0  0  0  0  0  0  0  0  0  0
   61.8210   33.8960   48.5170 C   0  0  0  0  0  0  0  0  0  0  0  0
   63.0410   33.8580   47.8350 C   0  0  0  0  0  0  0  0  0  0  0  0
   63.4210   32.7100   47.1390 C   0  0  0  0  0  0  0  0  0  0  0  0
   62.5860   31.5910   47.1310 C   0  0  0  0  0  0  0  0  0  0  0  0
   61.3660   31.6200   47.8150 C   0  0  0  0  0  0  0  0  0  0  0  0
   58.1280   29.1710   46.6600 C   0  0  0  0  0  0  0  0  0  0  0  0
   58.0452   31.2944   42.8787 H   0  0  0  0  0  0  0  0  0  0  0  0
   57.2847   32.7998   42.2605 H   0  0  0  0  0  0  0  0  0  0  0  0
   59.0731   32.6315   42.2605 H   0  0  0  0  0  0  0  0  0  0  0  0
   59.8614   34.3046   43.7015 H   0  0  0  0  0  0  0  0  0  0  0  0
   59.9782   35.2946   45.9860 H   0  0  0  0  0  0  0  0  0  0  0  0
   58.3809   34.5582   47.7515 H   0  0  0  0  0  0  0  0  0  0  0  0
   56.6661   32.8202   47.2449 H   0  0  0  0  0  0  0  0  0  0  0  0
   59.3184   29.2895   43.4545 H   0  0  0  0  0  0  0  0  0  0  0  0
   61.3803   28.5084   44.6200 H   0  0  0  0  0  0  0  0  0  0  0  0
   61.3736   28.1758   47.0920 H   0  0  0  0  0  0  0  0  0  0  0  0
   57.6448   30.2403   50.1047 H   0  0  0  0  0  0  0  0  0  0  0  0
   58.9366   31.0309   51.0866 H   0  0  0  0  0  0  0  0  0  0  0  0
   61.5264   34.8062   49.0600 H   0  0  0  0  0  0  0  0  0  0  0  0
   63.7034   34.7361   47.8472 H   0  0  0  0  0  0  0  0  0  0  0  0
   64.3779   32.6865   46.5969 H   0  0  0  0  0  0  0  0  0  0  0  0
   62.8881   30.6847   46.5857 H   0  0  0  0  0  0  0  0  0  0  0  0
   60.7142   30.7340   47.8075 H   0  0  0  0  0  0  0  0  0  0  0  0
   57.2037   29.3392   47.2321 H   0  0  0  0  0  0  0  0  0  0  0  0
  1  2  1  0
  2  3  2  0
  3  4  1  0
  4  5  2  0
  5  6  1  0
  6  7  2  0
  7  8  1  0
  8  9  1  0
  9 10  2  0
  9 11  2  0
  9 12  1  0
 12 13  2  0
 13 14  1  0
 14 15  2  0
 15 16  1  0
 16 17  1  0
 17 18  1  0
 18 19  2  0
 18 20  1  0
 20 21  1  0
 21 22  1  0
 22 23  2  0
 22 24  1  0
 24 25  2  0
 25 26  1  0
 26 27  2  0
 27 28  1  0
 28 29  2  0
 16 30  2  0
  7  2  1  0
 30 12  1  0
 29 24  1  0
  1 31  1  0
  1 32  1  0
  1 33  1  0
  3 34  1  0
  4 35  1  0
  5 36  1  0
  6 37  1  0
 13 38  1  0
 14 39  1  0
 15 40  1  0
 20 41  1  0
 20 42  1  0
 25 43  1  0
 26 44  1  0
 27 45  1  0
 28 46  1  0
 29 47  1  0
 30 48  1  0
M  CHG  3   8  -1  17  -1  21  -1
M  END
>  <UniqueID>  (54) 
50

>  <SMILES>  (54) 
Cc1ccccc1[N-]S(=O)(=O)c1cccc([N-]C(=O)C[N-]C(=O)c2ccccc2)c1

>  <Energy>  (54) 
55.07881386792612

>  <Genealogy>  (54) 
Cc1ccccc1[N-]S(=O)(=O)c1cccc([N-]C(=O)C[N-]C(=O)c2ccccc2)c1 (protonated)
Cc1ccccc1[N-]S(=O)(=O)c1cccc([N-]C(=O)C[N-]C(=O)c2ccccc2)c1 (3D coordinates assigned)
Cc1ccccc1[N-]S(=O)(=O)c1cccc([N-]C(=O)C[N-]C(=O)c2ccccc2)c1 (optimized conformer: 55.07881386792612 kcal/mol)

>  <smiles>  (54) 
Cc1ccccc1NS(=O)(=O)c1cccc(NC(=O)CNC(=O)c2ccccc2)c1

>  <score_type>  (54) 
oracle

>  <origin>  (54) 
adg

>  <m_score__min__energy>  (54) 
-14.289999999999999

>  <m_primary>  (54) 
energy

$$$$
54:0
     RDKit          3D

 38 40  0  0  0  0  0  0  0  0999 V2000
   63.7680   33.1200   46.8720 C   0  0  0  0  0  0  0  0  0  0  0  0
   62.7330   32.5240   47.7250 N   0  0  0  0  0  0  0  0  0  0  0  0
   61.9310   31.5700   47.2280 N   0  0  0  0  0  0  0  0  0  0  0  0
   60.9610   30.9780   47.9790 C   0  0  0  0  0  0  0  0  0  0  0  0
   60.1270   29.9790   47.3750 N   0  0  0  0  0  0  0  0  0  0  0  0
   60.0920   29.6090   45.9900 C   0  0  0  0  0  0  0  0  0  0  0  0
   61.1670   29.3470   45.3860 O   0  0  0  0  0  0  0  0  0  0  0  0
   58.8060   29.5950   45.2420 C   0  0  0  0  0  0  0  0  0  0  0  0
   58.6050   28.6450   44.2230 C   0  0  0  0  0  0  0  0  0  0  0  0
   57.4090   28.6150   43.5070 C   0  0  0  0  0  0  0  0  0  0  0  0
   56.4080   29.5320   43.8130 C   0  0  0  0  0  0  0  0  0  0  0  0
   56.6020   30.4430   44.8000 N   0  0  0  0  0  0  0  0  0  0  0  0
   57.7620   30.5080   45.5150 C   0  0  0  0  0  0  0  0  0  0  0  0
   57.8920   31.4500   46.5450 O   0  0  0  0  0  0  0  0  0  0  0  0
   58.4400   32.7300   46.3950 C   0  0  0  0  0  0  0  0  0  0  0  0
   58.6230   33.2330   45.1000 C   0  0  0  0  0  0  0  0  0  0  0  0
   59.1640   34.5070   44.9060 C   0  0  0  0  0  0  0  0  0  0  0  0
   59.5120   35.2950   46.0070 C   0  0  0  0  0  0  0  0  0  0  0  0
   60.0330   36.5330   45.8160 F   0  0  0  0  0  0  0  0  0  0  0  0
   59.3090   34.8130   47.3020 C   0  0  0  0  0  0  0  0  0  0  0  0
   58.7690   33.5380   47.5030 C   0  0  0  0  0  0  0  0  0  0  0  0
   58.5170   33.1210   48.7680 F   0  0  0  0  0  0  0  0  0  0  0  0
   60.7650   31.4080   49.2960 C   0  0  0  0  0  0  0  0  0  0  0  0
   61.5870   32.3980   49.8180 C   0  0  0  0  0  0  0  0  0  0  0  0
   62.5810   32.9550   49.0170 C   0  0  0  0  0  0  0  0  0  0  0  0
   63.3260   33.8560   49.4890 O   0  0  0  0  0  0  0  0  0  0  0  0
   64.5489   33.5697   47.5028 H   0  0  0  0  0  0  0  0  0  0  0  0
   64.2136   32.3402   46.2369 H   0  0  0  0  0  0  0  0  0  0  0  0
   63.3172   33.8968   46.2369 H   0  0  0  0  0  0  0  0  0  0  0  0
   62.0460   31.2540   46.2380 H   0  0  0  0  0  0  0  0  0  0  0  0
   59.3985   27.9199   43.9895 H   0  0  0  0  0  0  0  0  0  0  0  0
   57.2582   27.8739   42.7082 H   0  0  0  0  0  0  0  0  0  0  0  0
   55.4600   29.5184   43.2552 H   0  0  0  0  0  0  0  0  0  0  0  0
   58.3391   32.6215   44.2308 H   0  0  0  0  0  0  0  0  0  0  0  0
   59.3161   34.8900   43.8861 H   0  0  0  0  0  0  0  0  0  0  0  0
   59.5747   35.4381   48.1672 H   0  0  0  0  0  0  0  0  0  0  0  0
   59.9677   30.9662   49.9117 H   0  0  0  0  0  0  0  0  0  0  0  0
   61.4543   32.7394   50.8552 H   0  0  0  0  0  0  0  0  0  0  0  0
  1  2  1  0
  2  3  1  0
  3  4  2  0
  4  5  1  0
  5  6  1  0
  6  7  2  0
  6  8  1  0
  8  9  2  0
  9 10  1  0
 10 11  2  0
 11 12  1  0
 12 13  2  0
 13 14  1  0
 14 15  1  0
 15 16  2  0
 16 17  1  0
 17 18  2  0
 18 19  1  0
 18 20  1  0
 20 21  2  0
 21 22  1  0
  4 23  1  0
 23 24  2  0
 24 25  1  0
 25 26  2  0
 25  2  1  0
 13  8  1  0
 21 15  1  0
  1 27  1  0
  1 28  1  0
  1 29  1  0
  3 30  1  0
  9 31  1  0
 10 32  1  0
 11 33  1  0
 16 34  1  0
 17 35  1  0
 20 36  1  0
 23 37  1  0
 24 38  1  0
M  CHG  2   3   1   5  -1
M  END
>  <UniqueID>  (55) 
51

>  <SMILES>  (55) 
Cn1[nH+]c([N-]C(=O)c2cccnc2Oc2ccc(F)cc2F)ccc1=O

>  <Energy>  (55) 
55.008638813960104

>  <Genealogy>  (55) 
Cn1[nH+]c([N-]C(=O)c2cccnc2Oc2ccc(F)cc2F)ccc1=O (protonated)
Cn1[nH+]c([N-]C(=O)c2cccnc2Oc2ccc(F)cc2F)ccc1=O (3D coordinates assigned)
Cn1[nH+]c([N-]C(=O)c2cccnc2Oc2ccc(F)cc2F)ccc1=O (optimized conformer: 55.008638813960104 kcal/mol)

>  <smiles>  (55) 
Cn1nc(NC(=O)c2cccnc2Oc2ccc(F)cc2F)ccc1=O

>  <score_type>  (55) 
oracle

>  <origin>  (55) 
adg

>  <m_score__min__energy>  (55) 
-6.8799999999999999

>  <m_primary>  (55) 
energy

$$$$
55:0
     RDKit          3D

 38 40  0  0  0  0  0  0  0  0999 V2000
   61.8200   33.7510   49.8660 C   0  0  0  0  0  0  0  0  0  0  0  0
   60.3850   33.7040   49.5740 N   0  0  0  0  0  0  0  0  0  0  0  0
   59.8280   34.5590   48.5170 C   0  0  0  0  0  0  0  0  0  0  0  0
   59.2170   33.7450   47.4050 C   0  0  0  0  0  0  0  0  0  0  0  0
   59.5510   32.3900   47.2530 C   0  0  0  0  0  0  0  0  0  0  0  0
   58.9580   31.6250   46.2440 C   0  0  0  0  0  0  0  0  0  0  0  0
   58.0200   32.2000   45.3720 C   0  0  0  0  0  0  0  0  0  0  0  0
   57.4050   31.4120   44.3380 N   0  0  0  0  0  0  0  0  0  0  0  0
   56.6600   30.2040   44.4660 C   0  0  0  0  0  0  0  0  0  0  0  0
   56.4600   29.6040   45.5550 O   0  0  0  0  0  0  0  0  0  0  0  0
   56.2140   29.7310   43.1580 C   0  0  0  0  0  0  0  0  0  0  0  0
   56.6540   30.5880   42.2420 C   0  0  0  0  0  0  0  0  0  0  0  0
   57.3950   31.6410   42.9320 C   0  0  0  0  0  0  0  0  0  0  0  0
   57.9120   32.6430   42.3710 O   0  0  0  0  0  0  0  0  0  0  0  0
   57.6880   33.5570   45.5260 C   0  0  0  0  0  0  0  0  0  0  0  0
   58.2810   34.3220   46.5340 C   0  0  0  0  0  0  0  0  0  0  0  0
   59.5030   33.2880   50.6290 C   0  0  0  0  0  0  0  0  0  0  0  0
   58.8800   34.2260   51.4020 N   0  0  0  0  0  0  0  0  0  0  0  0
   58.0350   33.8740   52.4090 C   0  0  0  0  0  0  0  0  0  0  0  0
   57.7880   32.5280   52.6790 C   0  0  0  0  0  0  0  0  0  0  0  0
   58.4160   31.5490   51.9100 C   0  0  0  0  0  0  0  0  0  0  0  0
   59.2800   31.9220   50.8770 C   0  0  0  0  0  0  0  0  0  0  0  0
   60.0970   30.6750   49.9460 Cl  0  0  0  0  0  0  0  0  0  0  0  0
   61.9725   33.7560   50.9554 H   0  0  0  0  0  0  0  0  0  0  0  0
   62.3118   32.8685   49.4309 H   0  0  0  0  0  0  0  0  0  0  0  0
   62.2530   34.6638   49.4309 H   0  0  0  0  0  0  0  0  0  0  0  0
   59.0522   35.2054   48.9533 H   0  0  0  0  0  0  0  0  0  0  0  0
   60.6476   35.1577   48.0930 H   0  0  0  0  0  0  0  0  0  0  0  0
   60.2832   31.9276   47.9313 H   0  0  0  0  0  0  0  0  0  0  0  0
   59.2285   30.5646   46.1326 H   0  0  0  0  0  0  0  0  0  0  0  0
   55.6193   28.8259   42.9651 H   0  0  0  0  0  0  0  0  0  0  0  0
   56.4893   30.5168   41.1567 H   0  0  0  0  0  0  0  0  0  0  0  0
   56.9560   34.0203   44.8481 H   0  0  0  0  0  0  0  0  0  0  0  0
   58.0122   35.3829   46.6451 H   0  0  0  0  0  0  0  0  0  0  0  0
   59.0460   35.2410   51.2180 H   0  0  0  0  0  0  0  0  0  0  0  0
   57.5454   34.6531   53.0117 H   0  0  0  0  0  0  0  0  0  0  0  0
   57.1039   32.2414   53.4913 H   0  0  0  0  0  0  0  0  0  0  0  0
   58.2315   30.4844   52.1162 H   0  0  0  0  0  0  0  0  0  0  0  0
  1  2  1  0
  2  3  1  0
  3  4  1  0
  4  5  2  0
  5  6  1  0
  6  7  2  0
  7  8  1  0
  8  9  1  0
  9 10  2  0
  9 11  1  0
 11 12  2  0
 12 13  1  0
 13 14  2  0
  7 15  1  0
 15 16  2  0
  2 17  1  0
 17 18  2  0
 18 19  1  0
 19 20  2  0
 20 21  1  0
 21 22  2  0
 22 23  1  0
 16  4  1  0
 22 17  1  0
 13  8  1  0
  1 24  1  0
  1 25  1  0
  1 26  1  0
  3 27  1  0
  3 28  1  0
  5 29  1  0
  6 30  1  0
 11 31  1  0
 12 32  1  0
 15 33  1  0
 16 34  1  0
 18 35  1  0
 19 36  1  0
 20 37  1  0
 21 38  1  0
M  CHG  1  18   1
M  END
>  <UniqueID>  (56) 
52

>  <SMILES>  (56) 
CN(Cc1ccc(N2C(=O)C=CC2=O)cc1)c1[nH+]cccc1Cl

>  <Energy>  (56) 
75.74541811793682

>  <Genealogy>  (56) 
CN(Cc1ccc(N2C(=O)C=CC2=O)cc1)c1[nH+]cccc1Cl (protonated)
CN(Cc1ccc(N2C(=O)C=CC2=O)cc1)c1[nH+]cccc1Cl (3D coordinates assigned)
CN(Cc1ccc(N2C(=O)C=CC2=O)cc1)c1[nH+]cccc1Cl (nonaromatic ring conformer: 75.74541811793682 kcal/mol)

>  <smiles>  (56) 
CN(Cc1ccc(N2C(=O)C=CC2=O)cc1)c1ncccc1Cl

>  <score_type>  (56) 
oracle

>  <origin>  (56) 
adg

>  <m_score__min__energy>  (56) 
-6.3700000000000001

>  <m_primary>  (56) 
energy

$$$$
56:0
     RDKit          3D

 47 49  0  0  0  0  0  0  0  0999 V2000
   60.0700   35.9160   46.0080 O   0  0  0  0  0  0  0  0  0  0  0  0
   59.4480   34.8390   45.8020 C   0  0  0  0  0  0  0  0  0  0  0  0
   59.2590   34.4090   44.4910 C   0  0  0  0  0  0  0  0  0  0  0  0
   58.5880   33.2160   44.2430 C   0  0  0  0  0  0  0  0  0  0  0  0
   58.0950   32.4300   45.3050 C   0  0  0  0  0  0  0  0  0  0  0  0
   57.3970   31.1680   45.0590 N   0  0  0  0  0  0  0  0  0  0  0  0
   56.2830   31.1420   44.0830 C   0  0  0  0  0  0  0  0  0  0  0  0
   55.6890   29.7540   43.8360 C   0  0  0  0  0  0  0  0  0  0  0  0
   55.6300   28.9930   45.0790 N   0  0  0  0  0  0  0  0  0  0  0  0
   56.9950   28.7070   45.5070 C   0  0  0  0  0  0  0  0  0  0  0  0
   57.7160   29.9960   45.9080 C   0  0  0  0  0  0  0  0  0  0  0  0
   58.3210   32.9090   46.6180 C   0  0  0  0  0  0  0  0  0  0  0  0
   58.9660   34.0950   46.8480 N   0  0  0  0  0  0  0  0  0  0  0  0
   59.1890   34.5230   48.2390 C   0  0  0  0  0  0  0  0  0  0  0  0
   60.0990   33.5080   48.9640 C   0  0  0  0  0  0  0  0  0  0  0  0
   61.3920   33.2550   48.2900 N   0  0  0  0  0  0  0  0  0  0  0  0
   61.5170   31.8710   47.7760 C   0  0  0  0  0  0  0  0  0  0  0  0
   62.9480   31.5510   47.2940 C   0  0  0  0  0  0  0  0  0  0  0  0
   63.7210   32.8270   46.9500 C   0  0  0  0  0  0  0  0  0  0  0  0
   63.8050   33.7720   48.1630 C   0  0  0  0  0  0  0  0  0  0  0  0
   62.5670   33.6740   49.0740 C   0  0  0  0  0  0  0  0  0  0  0  0
   59.6396   35.0116   43.6531 H   0  0  0  0  0  0  0  0  0  0  0  0
   58.4401   32.8815   43.2056 H   0  0  0  0  0  0  0  0  0  0  0  0
   55.4824   31.7967   44.4577 H   0  0  0  0  0  0  0  0  0  0  0  0
   56.7001   31.4795   43.1227 H   0  0  0  0  0  0  0  0  0  0  0  0
   54.6725   29.8627   43.4299 H   0  0  0  0  0  0  0  0  0  0  0  0
   56.3287   29.2163   43.1206 H   0  0  0  0  0  0  0  0  0  0  0  0
   55.1670   28.0780   44.8680 H   0  0  0  0  0  0  0  0  0  0  0  0
   56.9678   28.0249   46.3695 H   0  0  0  0  0  0  0  0  0  0  0  0
   57.5384   28.2425   44.6710 H   0  0  0  0  0  0  0  0  0  0  0  0
   57.4381   30.2369   46.9447 H   0  0  0  0  0  0  0  0  0  0  0  0
   58.7921   29.8040   45.7848 H   0  0  0  0  0  0  0  0  0  0  0  0
   57.9700   32.3141   47.4741 H   0  0  0  0  0  0  0  0  0  0  0  0
   59.6706   35.5120   48.2431 H   0  0  0  0  0  0  0  0  0  0  0  0
   58.2216   34.5771   48.7598 H   0  0  0  0  0  0  0  0  0  0  0  0
   60.3068   33.8922   49.9736 H   0  0  0  0  0  0  0  0  0  0  0  0
   59.5570   32.5508   48.9723 H   0  0  0  0  0  0  0  0  0  0  0  0
   61.2497   31.1697   48.5802 H   0  0  0  0  0  0  0  0  0  0  0  0
   60.8416   31.7705   46.9136 H   0  0  0  0  0  0  0  0  0  0  0  0
   63.4821   31.0131   48.0912 H   0  0  0  0  0  0  0  0  0  0  0  0
   62.8772   30.9342   46.3860 H   0  0  0  0  0  0  0  0  0  0  0  0
   64.7396   32.5556   46.6355 H   0  0  0  0  0  0  0  0  0  0  0  0
   63.1902   33.3476   46.1393 H   0  0  0  0  0  0  0  0  0  0  0  0
   64.6974   33.5122   48.7514 H   0  0  0  0  0  0  0  0  0  0  0  0
   63.8581   34.8022   47.7810 H   0  0  0  0  0  0  0  0  0  0  0  0
   62.7568   32.9360   49.8673 H   0  0  0  0  0  0  0  0  0  0  0  0
   62.3692   34.6603   49.5191 H   0  0  0  0  0  0  0  0  0  0  0  0
  1  2  2  0
  2  3  1  0
  3  4  2  0
  4  5  1  0
  5  6  1  0
  6  7  1  0
  7  8  1  0
  8  9  1  0
  9 10  1  0
 10 11  1  0
  5 12  2  0
 12 13  1  0
 13 14  1  0
 14 15  1  0
 15 16  1  0
 16 17  1  0
 17 18  1  0
 18 19  1  0
 19 20  1  0
 20 21  1  0
 13  2  1  0
 21 16  1  0
 11  6  1  0
  3 22  1  0
  4 23  1  0
  7 24  1  0
  7 25  1  0
  8 26  1  0
  8 27  1  0
  9 28  1  0
 10 29  1  0
 10 30  1  0
 11 31  1  0
 11 32  1  0
 12 33  1  0
 14 34  1  0
 14 35  1  0
 15 36  1  0
 15 37  1  0
 17 38  1  0
 17 39  1  0
 18 40  1  0
 18 41  1  0
 19 42  1  0
 19 43  1  0
 20 44  1  0
 20 45  1  0
 21 46  1  0
 21 47  1  0
M  END
>  <UniqueID>  (57) 
53

>  <SMILES>  (57) 
O=c1ccc(N2CCNCC2)cn1CCN1CCCCC1

>  <Energy>  (57) 
61.350405519453325

>  <Genealogy>  (57) 
O=c1ccc(N2CCNCC2)cn1CCN1CCCCC1 (3D coordinates assigned)
O=c1ccc(N2CCNCC2)cn1CCN1CCCCC1 (nonaromatic ring conformer: 61.350405519453325 kcal/mol)

>  <smiles>  (57) 
O=c1ccc(N2CCNCC2)cn1CCN1CCCCC1

>  <score_type>  (57) 
oracle

>  <origin>  (57) 
adg

>  <m_score__min__energy>  (57) 
-7.6399999999999997

>  <m_primary>  (57) 
energy

$$$$
57:0
     RDKit          3D

 36 38  0  0  0  0  0  0  0  0999 V2000
   55.3278   29.1524   43.4806 H   0  0  0  0  0  0  0  0  0  0  0  0
   56.1540   29.6590   44.0010 C   0  0  0  0  0  0  0  0  0  0  0  0
   56.6100   30.8970   43.5400 C   0  0  0  0  0  0  0  0  0  0  0  0
   56.1360   31.3623   42.6632 H   0  0  0  0  0  0  0  0  0  0  0  0
   57.6690   31.5500   44.1890 C   0  0  0  0  0  0  0  0  0  0  0  0
   58.1560   32.8900   43.7000 C   0  0  0  0  0  0  0  0  0  0  0  0
   59.1769   32.7801   43.3055 H   0  0  0  0  0  0  0  0  0  0  0  0
   57.4758   33.2450   42.9118 H   0  0  0  0  0  0  0  0  0  0  0  0
   58.1650   33.8710   44.7870 N   0  0  0  0  0  0  0  0  0  0  0  0
   58.9530   33.8960   45.8280 C   0  0  0  0  0  0  0  0  0  0  0  0
   58.4540   33.9910   47.1430 C   0  0  0  0  0  0  0  0  0  0  0  0
   57.3694   34.0421   47.3192 H   0  0  0  0  0  0  0  0  0  0  0  0
   59.3400   34.0200   48.2200 C   0  0  0  0  0  0  0  0  0  0  0  0
   58.9545   34.0980   49.2473 H   0  0  0  0  0  0  0  0  0  0  0  0
   60.7180   33.9500   47.9940 C   0  0  0  0  0  0  0  0  0  0  0  0
   61.6290   33.9780   49.0610 C   0  0  0  0  0  0  0  0  0  0  0  0
   61.2627   34.0558   50.0953 H   0  0  0  0  0  0  0  0  0  0  0  0
   63.0020   33.9070   48.8090 C   0  0  0  0  0  0  0  0  0  0  0  0
   63.7153   33.9299   49.6461 H   0  0  0  0  0  0  0  0  0  0  0  0
   63.4710   33.8070   47.4960 C   0  0  0  0  0  0  0  0  0  0  0  0
   64.5524   33.7494   47.3031 H   0  0  0  0  0  0  0  0  0  0  0  0
   62.5710   33.7800   46.4280 C   0  0  0  0  0  0  0  0  0  0  0  0
   62.9463   33.7036   45.3968 H   0  0  0  0  0  0  0  0  0  0  0  0
   61.1890   33.8500   46.6660 C   0  0  0  0  0  0  0  0  0  0  0  0
   60.3020   33.8250   45.6280 N   0  0  0  0  0  0  0  0  0  0  0  0
   60.6630   33.7510   44.6490 H   0  0  0  0  0  0  0  0  0  0  0  0
   58.2500   30.9580   45.3190 C   0  0  0  0  0  0  0  0  0  0  0  0
   59.0687   31.4716   45.8443 H   0  0  0  0  0  0  0  0  0  0  0  0
   57.7960   29.7180   45.7840 C   0  0  0  0  0  0  0  0  0  0  0  0
   58.5570   29.0010   47.1960 Cl  0  0  0  0  0  0  0  0  0  0  0  0
   56.7460   29.0560   45.1280 C   0  0  0  0  0  0  0  0  0  0  0  0
   56.3190   27.8130   45.6200 O   0  0  0  0  0  0  0  0  0  0  0  0
   57.0400   26.5950   45.4710 C   0  0  0  0  0  0  0  0  0  0  0  0
   57.2811   26.1878   46.4640 H   0  0  0  0  0  0  0  0  0  0  0  0
   56.4252   25.8704   44.9169 H   0  0  0  0  0  0  0  0  0  0  0  0
   57.9710   26.7854   44.9169 H   0  0  0  0  0  0  0  0  0  0  0  0
  1  2  1  0
  2  3  2  0
  3  4  1  0
  3  5  1  0
  5  6  1  0
  6  7  1  0
  6  8  1  0
  6  9  1  0
  9 10  2  0
 10 11  1  0
 11 12  1  0
 11 13  2  0
 13 14  1  0
 13 15  1  0
 15 16  2  0
 16 17  1  0
 16 18  1  0
 18 19  1  0
 18 20  2  0
 20 21  1  0
 20 22  1  0
 22 23  1  0
 22 24  2  0
 24 25  1  0
 25 26  1  0
  5 27  2  0
 27 28  1  0
 27 29  1  0
 29 30  1  0
 29 31  2  0
 31 32  1  0
 32 33  1  0
 33 34  1  0
 33 35  1  0
 33 36  1  0
 31  2  1  0
 25 10  1  0
 24 15  1  0
M  END
>  <UniqueID>  (58) 
54

>  <SMILES>  (58) 
COc1ccc(C/N=c2\ccc3ccccc3[nH]2)cc1Cl

>  <Energy>  (58) 
43.29728276716203

>  <Genealogy>  (58) 
COc1ccc(C/N=c2\ccc3ccccc3[nH]2)cc1Cl (cis-trans isomerization)
COc1ccc(C/N=c2\ccc3ccccc3[nH]2)cc1Cl (3D coordinates assigned)
COc1ccc(C/N=c2\ccc3ccccc3[nH]2)cc1Cl (optimized conformer: 43.29728276716203 kcal/mol)

>  <smiles>  (58) 
COc1ccc(CN=c2ccc3ccccc3[nH]2)cc1Cl

>  <score_type>  (58) 
oracle

>  <origin>  (58) 
adg

>  <m_score__min__energy>  (58) 
-7.6299999999999999

>  <m_primary>  (58) 
energy

$$$$
58:0
     RDKit          3D

 41 43  0  0  0  0  0  0  0  0999 V2000
   61.3599   29.4908   48.1501 H   0  0  0  0  0  0  0  0  0  0  0  0
   60.9620   30.5160   48.1250 C   0  0  0  0  0  0  0  0  0  0  0  0
   59.6310   30.6690   48.1790 C   0  0  0  0  0  0  0  0  0  0  0  0
   59.0948   30.2866   49.0601 H   0  0  0  0  0  0  0  0  0  0  0  0
   58.8720   31.3090   47.1400 N   0  0  0  0  0  0  0  0  0  0  0  0
   58.6600   32.6410   46.9540 C   0  0  0  0  0  0  0  0  0  0  0  0
   59.1900   33.7290   47.8420 C   0  0  0  0  0  0  0  0  0  0  0  0
   59.0508   33.4432   48.8951 H   0  0  0  0  0  0  0  0  0  0  0  0
   60.2612   33.8772   47.6408 H   0  0  0  0  0  0  0  0  0  0  0  0
   58.6464   34.6639   47.6408 H   0  0  0  0  0  0  0  0  0  0  0  0
   57.9010   32.8500   45.7990 C   0  0  0  0  0  0  0  0  0  0  0  0
   57.5750   34.1660   45.1500 C   0  0  0  0  0  0  0  0  0  0  0  0
   56.9345   34.7536   45.8241 H   0  0  0  0  0  0  0  0  0  0  0  0
   57.0517   33.9758   44.2013 H   0  0  0  0  0  0  0  0  0  0  0  0
   58.8520   34.9480   44.8620 C   0  0  0  0  0  0  0  0  0  0  0  0
   59.3261   35.2383   45.8112 H   0  0  0  0  0  0  0  0  0  0  0  0
   59.5446   34.3190   44.2835 H   0  0  0  0  0  0  0  0  0  0  0  0
   58.6065   35.8508   44.2835 H   0  0  0  0  0  0  0  0  0  0  0  0
   57.6400   31.5900   45.2920 C   0  0  0  0  0  0  0  0  0  0  0  0
   56.9650   31.1910   44.1380 C   0  0  0  0  0  0  0  0  0  0  0  0
   56.5108   31.9324   43.4642 H   0  0  0  0  0  0  0  0  0  0  0  0
   56.8810   29.8110   43.8590 C   0  0  0  0  0  0  0  0  0  0  0  0
   56.1960   29.3580   42.6890 N   0  0  0  0  0  0  0  0  0  0  0  0
   55.5290   29.9840   42.1850 H   0  0  0  0  0  0  0  0  0  0  0  0
   56.3500   28.3930   42.3210 H   0  0  0  0  0  0  0  0  0  0  0  0
   57.4840   28.8770   44.7340 C   0  0  0  0  0  0  0  0  0  0  0  0
   57.4164   27.8016   44.5126 H   0  0  0  0  0  0  0  0  0  0  0  0
   58.1690   29.3090   45.8840 C   0  0  0  0  0  0  0  0  0  0  0  0
   58.6459   28.5872   46.5634 H   0  0  0  0  0  0  0  0  0  0  0  0
   58.2260   30.6810   46.1380 C   0  0  0  0  0  0  0  0  0  0  0  0
   61.9340   31.6290   48.0340 C   0  0  0  0  0  0  0  0  0  0  0  0
   61.9040   32.4680   46.9090 C   0  0  0  0  0  0  0  0  0  0  0  0
   61.1608   32.2951   46.1167 H   0  0  0  0  0  0  0  0  0  0  0  0
   62.8150   33.5230   46.7910 C   0  0  0  0  0  0  0  0  0  0  0  0
   62.7956   34.1681   45.9002 H   0  0  0  0  0  0  0  0  0  0  0  0
   63.7500   33.7590   47.8030 C   0  0  0  0  0  0  0  0  0  0  0  0
   64.4726   34.5824   47.7037 H   0  0  0  0  0  0  0  0  0  0  0  0
   63.7660   32.9480   48.9410 C   0  0  0  0  0  0  0  0  0  0  0  0
   64.4965   33.1386   49.7410 H   0  0  0  0  0  0  0  0  0  0  0  0
   62.8550   31.8950   49.0640 C   0  0  0  0  0  0  0  0  0  0  0  0
   62.8581   31.2714   49.9702 H   0  0  0  0  0  0  0  0  0  0  0  0
  1  2  1  0
  2  3  2  0
  3  4  1  0
  3  5  1  0
  5  6  1  0
  6  7  1  0
  7  8  1  0
  7  9  1  0
  7 10  1  0
  6 11  2  0
 11 12  1  0
 12 13  1  0
 12 14  1  0
 12 15  1  0
 15 16  1  0
 15 17  1  0
 15 18  1  0
 11 19  1  0
 19 20  2  0
 20 21  1  0
 20 22  1  0
 22 23  1  0
 23 24  1  0
 23 25  1  0
 22 26  2  0
 26 27  1  0
 26 28  1  0
 28 29  1  0
 28 30  2  0
  2 31  1  0
 31 32  2  0
 32 33  1  0
 32 34  1  0
 34 35  1  0
 34 36  2  0
 36 37  1  0
 36 38  1  0
 38 39  1  0
 38 40  2  0
 40 41  1  0
 30  5  1  0
 40 31  1  0
 30 19  1  0
M  END
>  <UniqueID>  (59) 
55

>  <SMILES>  (59) 
CCc1c(C)n(/C=C\c2ccccc2)c2ccc(N)cc12

>  <Energy>  (59) 
80.37536640238326

>  <Genealogy>  (59) 
CCc1c(C)n(/C=C\c2ccccc2)c2ccc(N)cc12 (cis-trans isomerization)
CCc1c(C)n(/C=C\c2ccccc2)c2ccc(N)cc12 (3D coordinates assigned)
CCc1c(C)n(/C=C\c2ccccc2)c2ccc(N)cc12 (optimized conformer: 80.37536640238326 kcal/mol)

>  <smiles>  (59) 
CCc1c(C)n(C=Cc2ccccc2)c2ccc(N)cc12

>  <score_type>  (59) 
oracle

>  <origin>  (59) 
adg

>  <m_score__min__energy>  (59) 
-7.7000000000000002

>  <m_primary>  (59) 
energy

$$$$
59:0
     RDKit          3D

 36 38  0  0  0  0  0  0  0  0999 V2000
   62.8620   33.7760   48.6100 C   0  0  0  0  0  0  0  0  0  0  0  0
   61.3170   33.7710   49.5700 S   0  0  0  0  0  0  0  0  0  0  0  0
   60.3040   33.3380   48.1580 C   0  0  0  0  0  0  0  0  0  0  0  0
   60.1070   34.2640   47.1200 C   0  0  0  0  0  0  0  0  0  0  0  0
   59.3200   33.9240   46.0000 C   0  0  0  0  0  0  0  0  0  0  0  0
   59.1860   34.9230   44.8840 C   0  0  0  0  0  0  0  0  0  0  0  0
   58.7040   32.6470   45.9820 C   0  0  0  0  0  0  0  0  0  0  0  0
   57.8610   32.0550   45.0070 C   0  0  0  0  0  0  0  0  0  0  0  0
   57.3900   32.7230   43.8310 N   0  0  0  0  0  0  0  0  0  0  0  0
   57.5070   30.7290   45.3190 C   0  0  0  0  0  0  0  0  0  0  0  0
   56.6100   29.8310   44.5670 C   0  0  0  0  0  0  0  0  0  0  0  0
   56.2440   30.1280   43.3990 O   0  0  0  0  0  0  0  0  0  0  0  0
   56.0960   28.6570   45.2080 N   0  0  0  0  0  0  0  0  0  0  0  0
   56.8370   27.4790   45.5590 C   0  0  0  0  0  0  0  0  0  0  0  0
   58.2460   27.4580   45.5590 C   0  0  0  0  0  0  0  0  0  0  0  0
   58.9330   26.2980   45.9300 C   0  0  0  0  0  0  0  0  0  0  0  0
   58.2240   25.1570   46.3160 C   0  0  0  0  0  0  0  0  0  0  0  0
   56.8280   25.1780   46.3410 C   0  0  0  0  0  0  0  0  0  0  0  0
   56.1360   26.3370   45.9720 C   0  0  0  0  0  0  0  0  0  0  0  0
   54.7800   26.3440   46.0060 F   0  0  0  0  0  0  0  0  0  0  0  0
   58.2130   30.3010   46.7940 S   0  0  0  0  0  0  0  0  0  0  0  0
   58.9610   31.7750   47.0340 C   0  0  0  0  0  0  0  0  0  0  0  0
   59.7340   32.1050   48.0950 N   0  0  0  0  0  0  0  0  0  0  0  0
   63.7208   33.7788   49.2974 H   0  0  0  0  0  0  0  0  0  0  0  0
   62.9027   32.8780   47.9760 H   0  0  0  0  0  0  0  0  0  0  0  0
   62.8969   34.6743   47.9760 H   0  0  0  0  0  0  0  0  0  0  0  0
   60.5693   35.2602   47.1811 H   0  0  0  0  0  0  0  0  0  0  0  0
   59.0510   35.9294   45.3070 H   0  0  0  0  0  0  0  0  0  0  0  0
   60.0947   34.9046   44.2643 H   0  0  0  0  0  0  0  0  0  0  0  0
   58.3143   34.6658   44.2643 H   0  0  0  0  0  0  0  0  0  0  0  0
   57.4130   33.7610   43.7570 H   0  0  0  0  0  0  0  0  0  0  0  0
   56.9120   32.1940   43.0700 H   0  0  0  0  0  0  0  0  0  0  0  0
   58.8075   28.3574   45.2661 H   0  0  0  0  0  0  0  0  0  0  0  0
   60.0328   26.2834   45.9181 H   0  0  0  0  0  0  0  0  0  0  0  0
   58.7656   24.2427   46.6000 H   0  0  0  0  0  0  0  0  0  0  0  0
   56.2711   24.2816   46.6514 H   0  0  0  0  0  0  0  0  0  0  0  0
  1  2  1  0
  2  3  1  0
  3  4  2  0
  4  5  1  0
  5  6  1  0
  5  7  2  0
  7  8  1  0
  8  9  1  0
  8 10  2  0
 10 11  1  0
 11 12  2  0
 11 13  1  0
 13 14  1  0
 14 15  2  0
 15 16  1  0
 16 17  2  0
 17 18  1  0
 18 19  2  0
 19 20  1  0
 10 21  1  0
 21 22  1  0
 22 23  2  0
 23  3  1  0
 22  7  1  0
 19 14  1  0
  1 24  1  0
  1 25  1  0
  1 26  1  0
  4 27  1  0
  6 28  1  0
  6 29  1  0
  6 30  1  0
  9 31  1  0
  9 32  1  0
 15 33  1  0
 16 34  1  0
 17 35  1  0
 18 36  1  0
M  CHG  1  13  -1
M  END
>  <UniqueID>  (60) 
56

>  <SMILES>  (60) 
CSc1cc(C)c2c(N)c(C(=O)[N-]c3ccccc3F)sc2n1

>  <Energy>  (60) 
77.510603890114

>  <Genealogy>  (60) 
CSc1cc(C)c2c(N)c(C(=O)[N-]c3ccccc3F)sc2n1 (protonated)
CSc1cc(C)c2c(N)c(C(=O)[N-]c3ccccc3F)sc2n1 (3D coordinates assigned)
CSc1cc(C)c2c(N)c(C(=O)[N-]c3ccccc3F)sc2n1 (optimized conformer: 77.510603890114 kcal/mol)

>  <smiles>  (60) 
CSc1cc(C)c2c(N)c(C(=O)Nc3ccccc3F)sc2n1

>  <score_type>  (60) 
oracle

>  <origin>  (60) 
adg

>  <m_score__min__energy>  (60) 
-9.1099999999999994

>  <m_primary>  (60) 
energy

$$$$
60:0
     RDKit          3D

 40 42  0  0  0  0  0  0  0  0999 V2000
   55.4460   28.9970   45.0940 O   0  0  0  0  0  0  0  0  0  0  0  0
   56.7420   29.1230   44.5790 C   0  0  0  0  0  0  0  0  0  0  0  0
   57.4310   30.3080   45.1970 C   0  0  0  0  0  0  0  0  0  0  0  0
   58.0850   30.1800   46.4290 C   0  0  0  0  0  0  0  0  0  0  0  0
   58.7550   31.2670   46.9950 C   0  0  0  0  0  0  0  0  0  0  0  0
   58.7980   32.5100   46.3310 C   0  0  0  0  0  0  0  0  0  0  0  0
   59.4700   33.6360   46.8790 C   0  0  0  0  0  0  0  0  0  0  0  0
   60.1690   33.5890   48.2250 C   0  0  0  0  0  0  0  0  0  0  0  0
   61.5640   34.0660   48.1160 N   0  0  0  0  0  0  0  0  0  0  0  0
   62.2310   34.1070   49.4460 C   0  0  0  0  0  0  0  0  0  0  0  0
   63.1280   32.8870   49.6970 C   0  0  0  0  0  0  0  0  0  0  0  0
   64.2430   32.7930   48.6410 C   0  0  0  0  0  0  0  0  0  0  0  0
   63.8320   33.4010   47.2900 C   0  0  0  0  0  0  0  0  0  0  0  0
   62.3170   33.3050   47.0840 C   0  0  0  0  0  0  0  0  0  0  0  0
   59.4690   34.8500   46.1690 C   0  0  0  0  0  0  0  0  0  0  0  0
   58.8270   34.9550   44.9370 C   0  0  0  0  0  0  0  0  0  0  0  0
   58.1710   33.8560   44.3890 C   0  0  0  0  0  0  0  0  0  0  0  0
   58.1470   32.6340   45.0750 C   0  0  0  0  0  0  0  0  0  0  0  0
   57.4760   31.5330   44.5180 C   0  0  0  0  0  0  0  0  0  0  0  0
   55.1470   28.0730   44.8850 H   0  0  0  0  0  0  0  0  0  0  0  0
   57.3137   28.2109   44.8055 H   0  0  0  0  0  0  0  0  0  0  0  0
   56.6841   29.2679   43.4901 H   0  0  0  0  0  0  0  0  0  0  0  0
   58.0708   29.2144   46.9557 H   0  0  0  0  0  0  0  0  0  0  0  0
   59.2541   31.1521   47.9685 H   0  0  0  0  0  0  0  0  0  0  0  0
   59.6248   34.2289   48.9352 H   0  0  0  0  0  0  0  0  0  0  0  0
   60.1821   32.5466   48.5762 H   0  0  0  0  0  0  0  0  0  0  0  0
   62.8488   35.0154   49.5020 H   0  0  0  0  0  0  0  0  0  0  0  0
   61.4427   34.1031   50.2132 H   0  0  0  0  0  0  0  0  0  0  0  0
   63.5840   32.9754   50.6941 H   0  0  0  0  0  0  0  0  0  0  0  0
   62.5095   31.9796   49.6339 H   0  0  0  0  0  0  0  0  0  0  0  0
   65.1276   33.3299   49.0142 H   0  0  0  0  0  0  0  0  0  0  0  0
   64.4551   31.7265   48.4751 H   0  0  0  0  0  0  0  0  0  0  0  0
   64.1323   34.4589   47.2652 H   0  0  0  0  0  0  0  0  0  0  0  0
   64.3316   32.8402   46.4863 H   0  0  0  0  0  0  0  0  0  0  0  0
   62.0674   33.7096   46.0921 H   0  0  0  0  0  0  0  0  0  0  0  0
   62.0298   32.2463   47.1663 H   0  0  0  0  0  0  0  0  0  0  0  0
   59.9812   35.7271   46.5914 H   0  0  0  0  0  0  0  0  0  0  0  0
   58.8385   35.9116   44.3941 H   0  0  0  0  0  0  0  0  0  0  0  0
   57.6697   33.9471   43.4141 H   0  0  0  0  0  0  0  0  0  0  0  0
   56.9816   31.6332   43.5405 H   0  0  0  0  0  0  0  0  0  0  0  0
  1  2  1  0
  2  3  1  0
  3  4  2  0
  4  5  1  0
  5  6  2  0
  6  7  1  0
  7  8  1  0
  8  9  1  0
  9 10  1  0
 10 11  1  0
 11 12  1  0
 12 13  1  0
 13 14  1  0
  7 15  2  0
 15 16  1  0
 16 17  2  0
 17 18  1  0
 18 19  2  0
 19  3  1  0
 18  6  1  0
 14  9  1  0
  1 20  1  0
  2 21  1  0
  2 22  1  0
  4 23  1  0
  5 24  1  0
  8 25  1  0
  8 26  1  0
 10 27  1  0
 10 28  1  0
 11 29  1  0
 11 30  1  0
 12 31  1  0
 12 32  1  0
 13 33  1  0
 13 34  1  0
 14 35  1  0
 14 36  1  0
 15 37  1  0
 16 38  1  0
 17 39  1  0
 19 40  1  0
M  END
>  <UniqueID>  (61) 
57

>  <SMILES>  (61) 
OCc1ccc2c(CN3CCCCC3)cccc2c1

>  <Energy>  (61) 
52.592368561140546

>  <Genealogy>  (61) 
OCc1ccc2c(CN3CCCCC3)cccc2c1 (3D coordinates assigned)
OCc1ccc2c(CN3CCCCC3)cccc2c1 (nonaromatic ring conformer: 52.592368561140546 kcal/mol)

>  <smiles>  (61) 
OCc1ccc2c(CN3CCCCC3)cccc2c1

>  <score_type>  (61) 
oracle

>  <origin>  (61) 
adg

>  <m_score__min__energy>  (61) 
-8.6400000000000006

>  <m_primary>  (61) 
energy

$$$$
61:0
     RDKit          3D

 37 38  0  0  0  0  0  0  0  0999 V2000
   56.7289   31.7705   42.4984 H   0  0  0  0  0  0  0  0  0  0  0  0
   56.9300   30.9400   43.1910 C   0  0  0  0  0  0  0  0  0  0  0  0
   58.2560   30.8120   44.2240 S   0  0  0  0  0  0  0  0  0  0  0  0
   57.7560   29.3280   44.8480 C   0  0  0  0  0  0  0  0  0  0  0  0
   58.3770   28.6300   45.7530 N   0  0  0  0  0  0  0  0  0  0  0  0
   57.7280   27.8490   46.8050 C   0  0  0  0  0  0  0  0  0  0  0  0
   56.7506   28.2974   47.0365 H   0  0  0  0  0  0  0  0  0  0  0  0
   58.3717   27.8542   47.6969 H   0  0  0  0  0  0  0  0  0  0  0  0
   57.5250   26.4200   46.3620 C   0  0  0  0  0  0  0  0  0  0  0  0
   58.6220   25.5440   46.3420 C   0  0  0  0  0  0  0  0  0  0  0  0
   59.6132   25.9045   46.6544 H   0  0  0  0  0  0  0  0  0  0  0  0
   58.4660   24.2190   45.9290 C   0  0  0  0  0  0  0  0  0  0  0  0
   59.3357   23.5458   45.9111 H   0  0  0  0  0  0  0  0  0  0  0  0
   57.2070   23.7420   45.5370 C   0  0  0  0  0  0  0  0  0  0  0  0
   57.0470   22.3770   45.1050 N   0  0  0  0  0  0  0  0  0  0  0  0
   56.3440   21.4150   45.9670 C   0  0  0  0  0  0  0  0  0  0  0  0
   55.4723   21.0156   45.4279 H   0  0  0  0  0  0  0  0  0  0  0  0
   56.0199   21.9294   46.8837 H   0  0  0  0  0  0  0  0  0  0  0  0
   57.2690   20.2640   46.3480 C   0  0  0  0  0  0  0  0  0  0  0  0
   57.3291   20.1892   47.4438 H   0  0  0  0  0  0  0  0  0  0  0  0
   56.8725   19.3236   45.9375 H   0  0  0  0  0  0  0  0  0  0  0  0
   58.2726   20.4489   45.9375 H   0  0  0  0  0  0  0  0  0  0  0  0
   57.5880   21.9530   43.8060 C   0  0  0  0  0  0  0  0  0  0  0  0
   58.5024   22.5252   43.5905 H   0  0  0  0  0  0  0  0  0  0  0  0
   57.8150   20.8775   43.8491 H   0  0  0  0  0  0  0  0  0  0  0  0
   56.5700   22.1980   42.6980 C   0  0  0  0  0  0  0  0  0  0  0  0
   55.5923   22.4333   43.1438 H   0  0  0  0  0  0  0  0  0  0  0  0
   56.9017   23.0420   42.0753 H   0  0  0  0  0  0  0  0  0  0  0  0
   56.4814   21.2955   42.0753 H   0  0  0  0  0  0  0  0  0  0  0  0
   56.1050   24.6110   45.5660 C   0  0  0  0  0  0  0  0  0  0  0  0
   55.1131   24.2438   45.2637 H   0  0  0  0  0  0  0  0  0  0  0  0
   56.2570   25.9400   45.9760 C   0  0  0  0  0  0  0  0  0  0  0  0
   55.1430   26.7720   45.9940 O   0  0  0  0  0  0  0  0  0  0  0  0
   56.5980   28.9250   44.2860 N   0  0  0  0  0  0  0  0  0  0  0  0
   56.1090   28.0330   44.5250 H   0  0  0  0  0  0  0  0  0  0  0  0
   56.1340   29.8120   43.3670 C   0  0  0  0  0  0  0  0  0  0  0  0
   55.2017   29.6510   42.8058 H   0  0  0  0  0  0  0  0  0  0  0  0
  1  2  1  0
  2  3  1  0
  3  4  1  0
  4  5  2  0
  5  6  1  0
  6  7  1  0
  6  8  1  0
  6  9  1  0
  9 10  2  0
 10 11  1  0
 10 12  1  0
 12 13  1  0
 12 14  2  0
 14 15  1  0
 15 16  1  0
 16 17  1  0
 16 18  1  0
 16 19  1  0
 19 20  1  0
 19 21  1  0
 19 22  1  0
 15 23  1  0
 23 24  1  0
 23 25  1  0
 23 26  1  0
 26 27  1  0
 26 28  1  0
 26 29  1  0
 14 30  1  0
 30 31  1  0
 30 32  2  0
 32 33  1  0
  4 34  1  0
 34 35  1  0
 34 36  1  0
 36 37  1  0
 36  2  2  0
 32  9  1  0
M  CHG  1  33  -1
M  END
>  <UniqueID>  (62) 
58

>  <SMILES>  (62) 
CCN(CC)c1ccc(C/N=c2/[nH]ccs2)c([O-])c1

>  <Energy>  (62) 
64.45253783180722

>  <Genealogy>  (62) 
CCN(CC)c1ccc(CN=c2[nH]ccs2)c([O-])c1 (protonated)
CCN(CC)c1ccc(C/N=c2/[nH]ccs2)c([O-])c1 (cis-trans isomerization)
CCN(CC)c1ccc(C/N=c2/[nH]ccs2)c([O-])c1 (3D coordinates assigned)
CCN(CC)c1ccc(C/N=c2/[nH]ccs2)c([O-])c1 (optimized conformer: 64.45253783180722 kcal/mol)

>  <smiles>  (62) 
CCN(CC)c1ccc(CN=c2[nH]ccs2)c(O)c1

>  <score_type>  (62) 
oracle

>  <origin>  (62) 
adg

>  <m_score__min__energy>  (62) 
-9.7699999999999996

>  <m_primary>  (62) 
energy

$$$$
62:0
     RDKit          3D

 32 34  0  0  0  0  0  0  0  0999 V2000
   60.6091   36.0717   46.2621 H   0  0  0  0  0  0  0  0  0  0  0  0
   59.9780   35.1800   46.1330 C   0  0  0  0  0  0  0  0  0  0  0  0
   59.2840   34.9850   44.9400 C   0  0  0  0  0  0  0  0  0  0  0  0
   59.3610   35.7269   44.1315 H   0  0  0  0  0  0  0  0  0  0  0  0
   58.4910   33.8480   44.7710 C   0  0  0  0  0  0  0  0  0  0  0  0
   57.9388   33.7045   43.8305 H   0  0  0  0  0  0  0  0  0  0  0  0
   58.3910   32.8850   45.7900 C   0  0  0  0  0  0  0  0  0  0  0  0
   57.5580   31.6890   45.5450 C   0  0  0  0  0  0  0  0  0  0  0  0
   56.4550   31.7060   44.7610 N   0  0  0  0  0  0  0  0  0  0  0  0
   55.8990   30.5060   44.5940 N   0  0  0  0  0  0  0  0  0  0  0  0
   56.5660   29.5230   45.2380 C   0  0  0  0  0  0  0  0  0  0  0  0
   56.2470   28.2640   45.1920 N   0  0  0  0  0  0  0  0  0  0  0  0
   57.0440   27.1600   45.6560 C   0  0  0  0  0  0  0  0  0  0  0  0
   58.4510   27.2140   45.6580 C   0  0  0  0  0  0  0  0  0  0  0  0
   58.9639   28.1274   45.3223 H   0  0  0  0  0  0  0  0  0  0  0  0
   59.1990   26.1140   46.0840 C   0  0  0  0  0  0  0  0  0  0  0  0
   60.2976   26.1679   46.0952 H   0  0  0  0  0  0  0  0  0  0  0  0
   58.5550   24.9480   46.4950 C   0  0  0  0  0  0  0  0  0  0  0  0
   59.1462   24.0868   46.8397 H   0  0  0  0  0  0  0  0  0  0  0  0
   57.1610   24.8710   46.4700 C   0  0  0  0  0  0  0  0  0  0  0  0
   56.6584   23.9450   46.7862 H   0  0  0  0  0  0  0  0  0  0  0  0
   56.3950   25.9730   46.0420 C   0  0  0  0  0  0  0  0  0  0  0  0
   54.9920   25.9300   45.9940 O   0  0  0  0  0  0  0  0  0  0  0  0
   54.2320   24.7850   45.6210 C   0  0  0  0  0  0  0  0  0  0  0  0
   53.8861   24.2638   46.5258 H   0  0  0  0  0  0  0  0  0  0  0  0
   53.3631   25.1000   45.0245 H   0  0  0  0  0  0  0  0  0  0  0  0
   54.8597   24.1066   45.0245 H   0  0  0  0  0  0  0  0  0  0  0  0
   57.9190   30.1120   46.0400 S   0  0  0  0  0  0  0  0  0  0  0  0
   59.0800   33.1000   47.0070 C   0  0  0  0  0  0  0  0  0  0  0  0
   58.9060   31.9420   48.5280 Br  0  0  0  0  0  0  0  0  0  0  0  0
   59.8730   34.2450   47.1640 C   0  0  0  0  0  0  0  0  0  0  0  0
   60.4165   34.4079   48.1064 H   0  0  0  0  0  0  0  0  0  0  0  0
  1  2  1  0
  2  3  2  0
  3  4  1  0
  3  5  1  0
  5  6  1  0
  5  7  2  0
  7  8  1  0
  8  9  2  0
  9 10  1  0
 10 11  1  0
 11 12  2  0
 12 13  1  0
 13 14  2  0
 14 15  1  0
 14 16  1  0
 16 17  1  0
 16 18  2  0
 18 19  1  0
 18 20  1  0
 20 21  1  0
 20 22  2  0
 22 23  1  0
 23 24  1  0
 24 25  1  0
 24 26  1  0
 24 27  1  0
 11 28  1  0
  7 29  1  0
 29 30  1  0
 29 31  2  0
 31 32  1  0
 31  2  1  0
 28  8  1  0
 22 13  1  0
M  CHG  1  10  -1
M  END
>  <UniqueID>  (63) 
59

>  <SMILES>  (63) 
COc1ccccc1/N=c1\[n-]nc(-c2ccccc2Br)s1

>  <Energy>  (63) 
81.2029831168537

>  <Genealogy>  (63) 
COc1ccccc1N=c1[n-]nc(-c2ccccc2Br)s1 (protonated)
COc1ccccc1/N=c1\[n-]nc(-c2ccccc2Br)s1 (cis-trans isomerization)
COc1ccccc1/N=c1\[n-]nc(-c2ccccc2Br)s1 (3D coordinates assigned)
COc1ccccc1/N=c1\[n-]nc(-c2ccccc2Br)s1 (optimized conformer: 81.2029831168537 kcal/mol)

>  <smiles>  (63) 
COc1ccccc1N=c1[nH]nc(-c2ccccc2Br)s1

>  <score_type>  (63) 
oracle

>  <origin>  (63) 
adg

>  <m_score__min__energy>  (63) 
-10.5

>  <m_primary>  (63) 
energy

$$$$
63:0
     RDKit          3D

 45 47  0  0  0  0  0  0  0  0999 V2000
   64.3070   31.9660   49.2800 N   0  0  0  0  0  0  0  0  0  0  0  0
   63.3500   32.5370   48.3840 C   0  0  0  0  0  0  0  0  0  0  0  0
   63.7770   33.2760   47.2720 C   0  0  0  0  0  0  0  0  0  0  0  0
   62.8420   33.8380   46.4010 C   0  0  0  0  0  0  0  0  0  0  0  0
   61.4740   33.6660   46.6320 C   0  0  0  0  0  0  0  0  0  0  0  0
   61.0320   32.9230   47.7380 C   0  0  0  0  0  0  0  0  0  0  0  0
   59.5590   32.7640   48.0130 C   0  0  0  0  0  0  0  0  0  0  0  0
   58.7910   32.8800   46.7610 N   0  0  0  0  0  0  0  0  0  0  0  0
   58.1340   34.0500   46.4990 C   0  0  0  0  0  0  0  0  0  0  0  0
   57.4230   34.2160   45.3140 C   0  0  0  0  0  0  0  0  0  0  0  0
   57.3840   33.1820   44.3860 C   0  0  0  0  0  0  0  0  0  0  0  0
   58.0540   31.9770   44.6410 C   0  0  0  0  0  0  0  0  0  0  0  0
   58.0410   30.8890   43.6930 N   0  0  0  0  0  0  0  0  0  0  0  0
   56.8570   29.6200   43.6740 S   0  0  0  0  0  0  0  0  0  0  0  0
   55.8900   29.8060   44.8110 O   0  0  0  0  0  0  0  0  0  0  0  0
   56.0960   29.6890   42.3800 O   0  0  0  0  0  0  0  0  0  0  0  0
   57.6660   28.0310   43.7800 C   0  0  0  0  0  0  0  0  0  0  0  0
   58.4480   27.9270   45.0590 C   0  0  0  0  0  0  0  0  0  0  0  0
   57.7820   27.8410   46.2930 C   0  0  0  0  0  0  0  0  0  0  0  0
   58.5120   27.7750   47.4840 C   0  0  0  0  0  0  0  0  0  0  0  0
   59.9090   27.8050   47.4520 C   0  0  0  0  0  0  0  0  0  0  0  0
   60.5790   27.9040   46.2290 C   0  0  0  0  0  0  0  0  0  0  0  0
   59.8520   27.9690   45.0350 C   0  0  0  0  0  0  0  0  0  0  0  0
   58.7690   31.8500   45.8520 C   0  0  0  0  0  0  0  0  0  0  0  0
   59.3870   30.7760   46.0960 O   0  0  0  0  0  0  0  0  0  0  0  0
   61.9760   32.3650   48.6160 C   0  0  0  0  0  0  0  0  0  0  0  0
   65.2460   31.6610   48.9360 H   0  0  0  0  0  0  0  0  0  0  0  0
   64.0850   31.8440   50.2930 H   0  0  0  0  0  0  0  0  0  0  0  0
   64.8523   33.4135   47.0851 H   0  0  0  0  0  0  0  0  0  0  0  0
   63.1826   34.4178   45.5305 H   0  0  0  0  0  0  0  0  0  0  0  0
   60.7414   34.1144   45.9448 H   0  0  0  0  0  0  0  0  0  0  0  0
   59.3777   31.7754   48.4600 H   0  0  0  0  0  0  0  0  0  0  0  0
   59.2364   33.5550   48.7060 H   0  0  0  0  0  0  0  0  0  0  0  0
   58.1677   34.8690   47.2326 H   0  0  0  0  0  0  0  0  0  0  0  0
   56.8951   35.1599   45.1131 H   0  0  0  0  0  0  0  0  0  0  0  0
   56.8250   33.3096   43.4473 H   0  0  0  0  0  0  0  0  0  0  0  0
   58.8220   30.7990   43.0050 H   0  0  0  0  0  0  0  0  0  0  0  0
   56.9071   27.2351   43.7532 H   0  0  0  0  0  0  0  0  0  0  0  0
   58.3556   27.9237   42.9298 H   0  0  0  0  0  0  0  0  0  0  0  0
   56.6825   27.8255   46.3225 H   0  0  0  0  0  0  0  0  0  0  0  0
   57.9861   27.6994   48.4472 H   0  0  0  0  0  0  0  0  0  0  0  0
   60.4816   27.7507   48.3896 H   0  0  0  0  0  0  0  0  0  0  0  0
   61.6784   27.9308   46.2052 H   0  0  0  0  0  0  0  0  0  0  0  0
   60.3816   28.0533   44.0746 H   0  0  0  0  0  0  0  0  0  0  0  0
   61.6368   31.7900   49.4903 H   0  0  0  0  0  0  0  0  0  0  0  0
  1  2  1  0
  2  3  2  0
  3  4  1  0
  4  5  2  0
  5  6  1  0
  6  7  1  0
  7  8  1  0
  8  9  1  0
  9 10  2  0
 10 11  1  0
 11 12  2  0
 12 13  1  0
 13 14  1  0
 14 15  2  0
 14 16  2  0
 14 17  1  0
 17 18  1  0
 18 19  2  0
 19 20  1  0
 20 21  2  0
 21 22  1  0
 22 23  2  0
 12 24  1  0
 24 25  2  0
  6 26  2  0
 26  2  1  0
 24  8  1  0
 23 18  1  0
  1 27  1  0
  1 28  1  0
  3 29  1  0
  4 30  1  0
  5 31  1  0
  7 32  1  0
  7 33  1  0
  9 34  1  0
 10 35  1  0
 11 36  1  0
 13 37  1  0
 17 38  1  0
 17 39  1  0
 19 40  1  0
 20 41  1  0
 21 42  1  0
 22 43  1  0
 23 44  1  0
 26 45  1  0
M  END
>  <UniqueID>  (64) 
60

>  <SMILES>  (64) 
Nc1cccc(Cn2cccc(NS(=O)(=O)Cc3ccccc3)c2=O)c1

>  <Energy>  (64) 
47.1567972603568

>  <Genealogy>  (64) 
Nc1cccc(Cn2cccc(NS(=O)(=O)Cc3ccccc3)c2=O)c1 (3D coordinates assigned)
Nc1cccc(Cn2cccc(NS(=O)(=O)Cc3ccccc3)c2=O)c1 (optimized conformer: 47.1567972603568 kcal/mol)

>  <smiles>  (64) 
Nc1cccc(Cn2cccc(NS(=O)(=O)Cc3ccccc3)c2=O)c1

>  <score_type>  (64) 
oracle

>  <origin>  (64) 
adg

>  <m_score__min__energy>  (64) 
-9.0899999999999999

>  <m_primary>  (64) 
energy

$$$$
64:0
     RDKit          3D

 39 41  0  0  0  0  0  0  0  0999 V2000
   55.1130   30.3880   44.3810 O   0  0  0  0  0  0  0  0  0  0  0  0
   56.0930   29.7000   44.7700 C   0  0  0  0  0  0  0  0  0  0  0  0
   57.3880   30.3040   44.8280 N   0  0  0  0  0  0  0  0  0  0  0  0
   57.6710   31.6380   45.2790 C   0  0  0  0  0  0  0  0  0  0  0  0
   58.1470   31.8230   46.5830 C   0  0  0  0  0  0  0  0  0  0  0  0
   58.4290   33.1090   47.0580 C   0  0  0  0  0  0  0  0  0  0  0  0
   58.2210   34.2200   46.2360 C   0  0  0  0  0  0  0  0  0  0  0  0
   57.7200   34.0480   44.9430 C   0  0  0  0  0  0  0  0  0  0  0  0
   57.4360   32.7640   44.4660 C   0  0  0  0  0  0  0  0  0  0  0  0
   55.9020   28.3630   45.2470 N   0  0  0  0  0  0  0  0  0  0  0  0
   56.8970   27.4300   45.6890 C   0  0  0  0  0  0  0  0  0  0  0  0
   58.2740   27.7210   45.6630 C   0  0  0  0  0  0  0  0  0  0  0  0
   59.1950   26.7960   46.1640 C   0  0  0  0  0  0  0  0  0  0  0  0
   58.7530   25.5970   46.7270 C   0  0  0  0  0  0  0  0  0  0  0  0
   57.3840   25.3170   46.8060 C   0  0  0  0  0  0  0  0  0  0  0  0
   56.9540   24.1030   47.4390 N   0  0  0  0  0  0  0  0  0  0  0  0
   57.0120   22.7850   46.8710 C   0  0  0  0  0  0  0  0  0  0  0  0
   57.1680   21.8030   47.6450 O   0  0  0  0  0  0  0  0  0  0  0  0
   56.8540   22.5440   45.4170 C   0  0  0  0  0  0  0  0  0  0  0  0
   57.6350   21.5680   44.7760 C   0  0  0  0  0  0  0  0  0  0  0  0
   57.5170   21.3590   43.3980 C   0  0  0  0  0  0  0  0  0  0  0  0
   56.6110   22.1150   42.6500 C   0  0  0  0  0  0  0  0  0  0  0  0
   55.8140   23.0730   43.2810 C   0  0  0  0  0  0  0  0  0  0  0  0
   55.9260   23.2830   44.6590 C   0  0  0  0  0  0  0  0  0  0  0  0
   56.4650   26.2230   46.2500 C   0  0  0  0  0  0  0  0  0  0  0  0
   58.3002   30.9525   47.2378 H   0  0  0  0  0  0  0  0  0  0  0  0
   58.8147   33.2454   48.0791 H   0  0  0  0  0  0  0  0  0  0  0  0
   58.4516   35.2296   46.6068 H   0  0  0  0  0  0  0  0  0  0  0  0
   57.5487   34.9234   44.2993 H   0  0  0  0  0  0  0  0  0  0  0  0
   57.0279   32.6333   43.4529 H   0  0  0  0  0  0  0  0  0  0  0  0
   58.6258   28.6771   45.2481 H   0  0  0  0  0  0  0  0  0  0  0  0
   60.2721   27.0136   46.1145 H   0  0  0  0  0  0  0  0  0  0  0  0
   59.4838   24.8695   47.1100 H   0  0  0  0  0  0  0  0  0  0  0  0
   58.3439   20.9642   45.3615 H   0  0  0  0  0  0  0  0  0  0  0  0
   58.1384   20.5984   42.9026 H   0  0  0  0  0  0  0  0  0  0  0  0
   56.5254   21.9559   41.5649 H   0  0  0  0  0  0  0  0  0  0  0  0
   55.0965   23.6637   42.6925 H   0  0  0  0  0  0  0  0  0  0  0  0
   55.2861   24.0290   45.1529 H   0  0  0  0  0  0  0  0  0  0  0  0
   55.3921   25.9803   46.2558 H   0  0  0  0  0  0  0  0  0  0  0  0
  1  2  2  0
  2  3  1  0
  3  4  1  0
  4  5  2  0
  5  6  1  0
  6  7  2  0
  7  8  1  0
  8  9  2  0
  2 10  1  0
 10 11  1  0
 11 12  2  0
 12 13  1  0
 13 14  2  0
 14 15  1  0
 15 16  1  0
 16 17  1  0
 17 18  2  0
 17 19  1  0
 19 20  2  0
 20 21  1  0
 21 22  2  0
 22 23  1  0
 23 24  2  0
 15 25  2  0
  9  4  1  0
 25 11  1  0
 24 19  1  0
  5 26  1  0
  6 27  1  0
  7 28  1  0
  8 29  1  0
  9 30  1  0
 12 31  1  0
 13 32  1  0
 14 33  1  0
 20 34  1  0
 21 35  1  0
 22 36  1  0
 23 37  1  0
 24 38  1  0
 25 39  1  0
M  CHG  3   3  -1  10  -1  16  -1
M  END
>  <UniqueID>  (65) 
61

>  <SMILES>  (65) 
O=C([N-]c1ccccc1)[N-]c1cccc([N-]C(=O)c2ccccc2)c1

>  <Energy>  (65) 
54.59000416992289

>  <Genealogy>  (65) 
O=C([N-]c1ccccc1)[N-]c1cccc([N-]C(=O)c2ccccc2)c1 (protonated)
O=C([N-]c1ccccc1)[N-]c1cccc([N-]C(=O)c2ccccc2)c1 (3D coordinates assigned)
O=C([N-]c1ccccc1)[N-]c1cccc([N-]C(=O)c2ccccc2)c1 (optimized conformer: 54.59000416992289 kcal/mol)

>  <smiles>  (65) 
O=C(Nc1ccccc1)Nc1cccc(NC(=O)c2ccccc2)c1

>  <score_type>  (65) 
oracle

>  <origin>  (65) 
adg

>  <m_score__min__energy>  (65) 
-13.109999999999999

>  <m_primary>  (65) 
energy

$$$$
65:0
     RDKit          3D

 54 55  0  0  0  0  0  0  0  0999 V2000
   58.5490   34.3470   45.1930 C   0  0  0  0  0  0  0  0  0  0  0  0
   59.5350   34.8820   46.2320 C   0  0  0  0  0  0  0  0  0  0  0  0
   60.7250   33.9330   46.4690 C   0  0  0  0  0  0  0  0  0  0  0  0
   60.5530   32.9700   47.6750 C   0  0  0  0  0  0  0  0  0  0  0  0
   60.8830   31.5250   47.4680 N   0  0  2  0  0  0  0  0  0  0  0  0
   62.3040   31.2230   47.1330 C   0  0  0  0  0  0  0  0  0  0  0  0
   63.3700   32.0410   47.8900 C   0  0  0  0  0  0  0  0  0  0  0  0
   63.7560   33.2880   47.0980 C   0  0  0  0  0  0  0  0  0  0  0  0
   59.8610   30.6700   46.7700 C   0  0  2  0  0  0  0  0  0  0  0  0
   58.4270   31.2390   46.7800 C   0  0  0  0  0  0  0  0  0  0  0  0
   57.5080   30.4120   45.8750 C   0  0  0  0  0  0  0  0  0  0  0  0
   57.6190   28.9230   46.1110 C   0  0  0  0  0  0  0  0  0  0  0  0
   56.6250   28.0700   45.6000 C   0  0  0  0  0  0  0  0  0  0  0  0
   55.5200   28.5920   44.9360 O   0  0  0  0  0  0  0  0  0  0  0  0
   56.7360   26.6860   45.7500 C   0  0  0  0  0  0  0  0  0  0  0  0
   57.8430   26.1140   46.4030 C   0  0  0  0  0  0  0  0  0  0  0  0
   57.9490   24.6750   46.5650 N   0  0  0  0  0  0  0  0  0  0  0  0
   58.7920   23.8830   45.6600 C   0  0  0  0  0  0  0  0  0  0  0  0
   57.2150   23.9870   47.6330 C   0  0  0  0  0  0  0  0  0  0  0  0
   58.8440   26.9720   46.8960 C   0  0  0  0  0  0  0  0  0  0  0  0
   58.7530   28.3640   46.7380 C   0  0  0  0  0  0  0  0  0  0  0  0
   59.8300   29.2310   47.3480 C   0  0  0  0  0  0  0  0  0  0  0  0
   57.6931   33.8826   45.7047 H   0  0  0  0  0  0  0  0  0  0  0  0
   58.1939   35.1762   44.5634 H   0  0  0  0  0  0  0  0  0  0  0  0
   59.0506   33.5973   44.5634 H   0  0  0  0  0  0  0  0  0  0  0  0
   59.9220   35.8508   45.8832 H   0  0  0  0  0  0  0  0  0  0  0  0
   58.9931   34.9783   47.1844 H   0  0  0  0  0  0  0  0  0  0  0  0
   60.8657   33.3260   45.5625 H   0  0  0  0  0  0  0  0  0  0  0  0
   61.5912   34.5705   46.6999 H   0  0  0  0  0  0  0  0  0  0  0  0
   61.1980   33.3408   48.4853 H   0  0  0  0  0  0  0  0  0  0  0  0
   59.4733   32.9798   47.8849 H   0  0  0  0  0  0  0  0  0  0  0  0
   60.8500   31.1730   48.4570 H   0  0  0  0  0  0  0  0  0  0  0  0
   62.4811   30.1591   47.3492 H   0  0  0  0  0  0  0  0  0  0  0  0
   62.4212   31.4950   46.0736 H   0  0  0  0  0  0  0  0  0  0  0  0
   62.9658   32.3445   48.8670 H   0  0  0  0  0  0  0  0  0  0  0  0
   64.2653   31.4164   48.0249 H   0  0  0  0  0  0  0  0  0  0  0  0
   64.0078   34.1014   47.7945 H   0  0  0  0  0  0  0  0  0  0  0  0
   64.6271   33.0649   46.4645 H   0  0  0  0  0  0  0  0  0  0  0  0
   62.9112   33.5961   46.4645 H   0  0  0  0  0  0  0  0  0  0  0  0
   60.1965   30.6583   45.7225 H   0  0  0  0  0  0  0  0  0  0  0  0
   58.0368   31.2158   47.8082 H   0  0  0  0  0  0  0  0  0  0  0  0
   58.4548   32.2726   46.4047 H   0  0  0  0  0  0  0  0  0  0  0  0
   56.4679   30.7183   46.0602 H   0  0  0  0  0  0  0  0  0  0  0  0
   57.8171   30.6013   44.8364 H   0  0  0  0  0  0  0  0  0  0  0  0
   55.9456   26.0330   45.3514 H   0  0  0  0  0  0  0  0  0  0  0  0
   59.4682   23.2477   46.2509 H   0  0  0  0  0  0  0  0  0  0  0  0
   58.1546   23.2495   45.0257 H   0  0  0  0  0  0  0  0  0  0  0  0
   59.3846   24.5586   45.0257 H   0  0  0  0  0  0  0  0  0  0  0  0
   57.5824   24.3313   48.6110 H   0  0  0  0  0  0  0  0  0  0  0  0
   56.1420   24.2122   47.5443 H   0  0  0  0  0  0  0  0  0  0  0  0
   57.3704   22.9016   47.5443 H   0  0  0  0  0  0  0  0  0  0  0  0
   59.7142   26.5437   47.4150 H   0  0  0  0  0  0  0  0  0  0  0  0
   59.6549   29.2941   48.4321 H   0  0  0  0  0  0  0  0  0  0  0  0
   60.7972   28.7640   47.1104 H   0  0  0  0  0  0  0  0  0  0  0  0
  1  2  1  0
  2  3  1  0
  3  4  1  0
  4  5  1  0
  5  6  1  0
  6  7  1  0
  7  8  1  0
  5  9  1  0
  9 10  1  0
 10 11  1  0
 11 12  1  0
 12 13  2  0
 13 14  1  0
 13 15  1  0
 15 16  2  0
 16 17  1  0
 17 18  1  0
 17 19  1  0
 16 20  1  0
 20 21  2  0
 21 22  1  0
 22  9  1  0
 21 12  1  0
  1 23  1  0
  1 24  1  0
  1 25  1  0
  2 26  1  0
  2 27  1  0
  3 28  1  0
  3 29  1  0
  4 30  1  0
  4 31  1  0
  5 32  1  1
  6 33  1  0
  6 34  1  0
  7 35  1  0
  7 36  1  0
  8 37  1  0
  8 38  1  0
  8 39  1  0
  9 40  1  6
 10 41  1  0
 10 42  1  0
 11 43  1  0
 11 44  1  0
 15 45  1  0
 18 46  1  0
 18 47  1  0
 18 48  1  0
 19 49  1  0
 19 50  1  0
 19 51  1  0
 20 52  1  0
 22 53  1  0
 22 54  1  0
M  CHG  2   5   1  14  -1
M  END
>  <UniqueID>  (66) 
62

>  <SMILES>  (66) 
CCCC[N@H+](CCC)[C@@H]1CCc2c([O-])cc(N(C)C)cc2C1

>  <Energy>  (66) 
72.22949082978285

>  <Genealogy>  (66) 
CCCC[NH+](CCC)C1CCc2c([O-])cc(N(C)C)cc2C1 (protonated)
CCCC[N@H+](CCC)[C@@H]1CCc2c([O-])cc(N(C)C)cc2C1 (chirality)
CCCC[N@H+](CCC)[C@@H]1CCc2c([O-])cc(N(C)C)cc2C1 (3D coordinates assigned)
CCCC[N@H+](CCC)[C@@H]1CCc2c([O-])cc(N(C)C)cc2C1 (nonaromatic ring conformer: 72.22949082978285 kcal/mol)

>  <smiles>  (66) 
CCCCN(CCC)C1CCc2c(O)cc(N(C)C)cc2C1

>  <score_type>  (66) 
oracle

>  <origin>  (66) 
adg

>  <m_score__min__energy>  (66) 
-7.8099999999999996

>  <m_primary>  (66) 
energy

$$$$
66:0
     RDKit          3D

 53 55  0  0  0  0  0  0  0  0999 V2000
   57.0100   34.2270   45.2530 C   0  0  0  0  0  0  0  0  0  0  0  0
   57.9940   33.2100   44.8810 N   0  0  0  0  0  0  0  0  0  0  0  0
   57.7650   32.3270   43.7330 C   0  0  0  0  0  0  0  0  0  0  0  0
   57.3830   30.9630   44.2240 C   0  0  0  0  0  0  0  0  0  0  0  0
   56.3040   30.8140   44.8640 O   0  0  0  0  0  0  0  0  0  0  0  0
   58.2210   29.8370   43.9250 N   0  0  0  0  0  0  0  0  0  0  0  0
   57.8940   28.4850   44.2760 C   0  0  0  0  0  0  0  0  0  0  0  0
   58.0970   27.4280   43.3690 C   0  0  0  0  0  0  0  0  0  0  0  0
   57.7940   26.1130   43.7410 C   0  0  0  0  0  0  0  0  0  0  0  0
   57.3060   25.8420   45.0230 C   0  0  0  0  0  0  0  0  0  0  0  0
   57.0110   24.5680   45.3810 F   0  0  0  0  0  0  0  0  0  0  0  0
   57.1160   26.8880   45.9330 C   0  0  0  0  0  0  0  0  0  0  0  0
   57.4150   28.2040   45.5640 C   0  0  0  0  0  0  0  0  0  0  0  0
   59.2050   33.0720   45.6450 C   0  0  0  0  0  0  0  0  0  0  0  0
   60.1480   33.8890   45.4600 O   0  0  0  0  0  0  0  0  0  0  0  0
   59.3780   31.9780   46.6240 C   0  0  0  0  0  0  0  0  0  0  0  0
   60.0110   30.7840   46.2420 C   0  0  0  0  0  0  0  0  0  0  0  0
   60.1870   29.7510   47.1670 C   0  0  0  0  0  0  0  0  0  0  0  0
   59.7290   29.8920   48.4790 C   0  0  0  0  0  0  0  0  0  0  0  0
   59.0680   31.0640   48.8670 C   0  0  0  0  0  0  0  0  0  0  0  0
   58.5070   31.2490   50.5280 S   0  0  0  0  0  0  0  0  0  0  0  0
   57.8630   29.9660   50.9750 O   0  0  0  0  0  0  0  0  0  0  0  0
   57.4780   32.3450   50.6080 O   0  0  0  0  0  0  0  0  0  0  0  0
   59.8510   31.5950   51.5790 N   0  0  0  0  0  0  0  0  0  0  0  0
   60.4070   32.9280   51.3230 C   0  0  0  0  0  0  0  0  0  0  0  0
   61.3290   32.8950   50.1330 C   0  0  0  0  0  0  0  0  0  0  0  0
   61.2800   33.9050   49.1570 C   0  0  0  0  0  0  0  0  0  0  0  0
   62.1560   33.8740   48.0670 C   0  0  0  0  0  0  0  0  0  0  0  0
   63.0860   32.8350   47.9490 C   0  0  0  0  0  0  0  0  0  0  0  0
   63.1430   31.8290   48.9160 C   0  0  0  0  0  0  0  0  0  0  0  0
   62.2690   31.8560   50.0060 C   0  0  0  0  0  0  0  0  0  0  0  0
   58.8830   32.1010   47.9350 C   0  0  0  0  0  0  0  0  0  0  0  0
   56.9468   34.2924   46.3492 H   0  0  0  0  0  0  0  0  0  0  0  0
   57.3172   35.2011   44.8447 H   0  0  0  0  0  0  0  0  0  0  0  0
   56.0263   33.9521   44.8447 H   0  0  0  0  0  0  0  0  0  0  0  0
   56.9534   32.7345   43.1124 H   0  0  0  0  0  0  0  0  0  0  0  0
   58.6842   32.2579   43.1327 H   0  0  0  0  0  0  0  0  0  0  0  0
   59.1640   30.0190   43.5200 H   0  0  0  0  0  0  0  0  0  0  0  0
   58.4950   27.6359   42.3648 H   0  0  0  0  0  0  0  0  0  0  0  0
   57.9400   25.2918   43.0239 H   0  0  0  0  0  0  0  0  0  0  0  0
   56.7306   26.6750   46.9410 H   0  0  0  0  0  0  0  0  0  0  0  0
   57.2739   29.0213   46.2866 H   0  0  0  0  0  0  0  0  0  0  0  0
   60.3701   30.6611   45.2096 H   0  0  0  0  0  0  0  0  0  0  0  0
   60.6891   28.8217   46.8600 H   0  0  0  0  0  0  0  0  0  0  0  0
   59.8875   29.0828   49.2071 H   0  0  0  0  0  0  0  0  0  0  0  0
   59.5848   33.6312   51.1245 H   0  0  0  0  0  0  0  0  0  0  0  0
   60.9774   33.2512   52.2062 H   0  0  0  0  0  0  0  0  0  0  0  0
   60.5502   34.7227   49.2506 H   0  0  0  0  0  0  0  0  0  0  0  0
   62.1140   34.6650   47.3038 H   0  0  0  0  0  0  0  0  0  0  0  0
   63.7746   32.8106   47.0915 H   0  0  0  0  0  0  0  0  0  0  0  0
   63.8764   31.0148   48.8196 H   0  0  0  0  0  0  0  0  0  0  0  0
   62.3161   31.0628   50.7667 H   0  0  0  0  0  0  0  0  0  0  0  0
   58.3476   33.0144   48.2333 H   0  0  0  0  0  0  0  0  0  0  0  0
  1  2  1  0
  2  3  1  0
  3  4  1  0
  4  5  2  0
  4  6  1  0
  6  7  1  0
  7  8  2  0
  8  9  1  0
  9 10  2  0
 10 11  1  0
 10 12  1  0
 12 13  2  0
  2 14  1  0
 14 15  2  0
 14 16  1  0
 16 17  2  0
 17 18  1  0
 18 19  2  0
 19 20  1  0
 20 21  1  0
 21 22  2  0
 21 23  2  0
 21 24  1  0
 24 25  1  0
 25 26  1  0
 26 27  2  0
 27 28  1  0
 28 29  2  0
 29 30  1  0
 30 31  2  0
 20 32  2  0
 13  7  1  0
 32 16  1  0
 31 26  1  0
  1 33  1  0
  1 34  1  0
  1 35  1  0
  3 36  1  0
  3 37  1  0
  6 38  1  0
  8 39  1  0
  9 40  1  0
 12 41  1  0
 13 42  1  0
 17 43  1  0
 18 44  1  0
 19 45  1  0
 25 46  1  0
 25 47  1  0
 27 48  1  0
 28 49  1  0
 29 50  1  0
 30 51  1  0
 31 52  1  0
 32 53  1  0
M  CHG  1  24  -1
M  END
>  <UniqueID>  (67) 
63

>  <SMILES>  (67) 
CN(CC(=O)Nc1ccc(F)cc1)C(=O)c1cccc(S(=O)(=O)[N-]Cc2ccccc2)c1

>  <Energy>  (67) 
55.175112438565286

>  <Genealogy>  (67) 
CN(CC(=O)Nc1ccc(F)cc1)C(=O)c1cccc(S(=O)(=O)[N-]Cc2ccccc2)c1 (protonated)
CN(CC(=O)Nc1ccc(F)cc1)C(=O)c1cccc(S(=O)(=O)[N-]Cc2ccccc2)c1 (3D coordinates assigned)
CN(CC(=O)Nc1ccc(F)cc1)C(=O)c1cccc(S(=O)(=O)[N-]Cc2ccccc2)c1 (optimized conformer: 55.175112438565286 kcal/mol)

>  <smiles>  (67) 
CN(CC(=O)Nc1ccc(F)cc1)C(=O)c1cccc(S(=O)(=O)NCc2ccccc2)c1

>  <score_type>  (67) 
oracle

>  <origin>  (67) 
adg

>  <m_score__min__energy>  (67) 
-9.8900000000000006

>  <m_primary>  (67) 
energy

$$$$
67:0
     RDKit          3D

 30 32  0  0  0  0  0  0  0  0999 V2000
   54.3940   28.9700   44.5810 H   0  0  0  0  0  0  0  0  0  0  0  0
   55.1500   29.4640   44.0550 N   0  0  0  0  0  0  0  0  0  0  0  0
   56.3750   29.4840   44.4750 C   0  0  0  0  0  0  0  0  0  0  0  0
   56.9790   30.6820   44.8610 C   0  0  0  0  0  0  0  0  0  0  0  0
   56.4030   31.9020   44.8660 N   0  0  0  0  0  0  0  0  0  0  0  0
   57.3830   32.7120   45.3310 C   0  0  0  0  0  0  0  0  0  0  0  0
   57.2850   33.7972   45.4820 H   0  0  0  0  0  0  0  0  0  0  0  0
   58.5320   31.9720   45.5900 C   0  0  0  0  0  0  0  0  0  0  0  0
   59.8390   32.4570   46.1910 C   0  0  0  0  0  0  0  0  0  0  0  0
   60.6405   31.9096   45.6734 H   0  0  0  0  0  0  0  0  0  0  0  0
   59.8930   32.1420   47.6950 C   0  0  0  0  0  0  0  0  0  0  0  0
   59.5659   31.1036   47.8527 H   0  0  0  0  0  0  0  0  0  0  0  0
   60.9283   32.2884   48.0366 H   0  0  0  0  0  0  0  0  0  0  0  0
   58.9800   33.0840   48.5160 C   0  0  0  0  0  0  0  0  0  0  0  0
   58.0923   32.5171   48.8332 H   0  0  0  0  0  0  0  0  0  0  0  0
   59.5751   33.4451   49.3678 H   0  0  0  0  0  0  0  0  0  0  0  0
   58.5470   34.2290   47.7990 O   0  0  0  0  0  0  0  0  0  0  0  0
   59.6340   34.8330   47.1280 C   0  0  0  0  0  0  0  0  0  0  0  0
   59.3217   35.8175   46.7495 H   0  0  0  0  0  0  0  0  0  0  0  0
   60.4685   34.9413   47.8364 H   0  0  0  0  0  0  0  0  0  0  0  0
   60.1010   33.9630   45.9460 C   0  0  0  0  0  0  0  0  0  0  0  0
   59.5592   34.2744   45.0408 H   0  0  0  0  0  0  0  0  0  0  0  0
   61.1859   34.1033   45.8305 H   0  0  0  0  0  0  0  0  0  0  0  0
   58.2490   30.6900   45.2950 N   0  0  0  0  0  0  0  0  0  0  0  0
   58.9990   29.5620   45.3900 C   0  0  0  0  0  0  0  0  0  0  0  0
   60.0354   29.5981   45.7570 H   0  0  0  0  0  0  0  0  0  0  0  0
   58.4090   28.3500   45.0050 C   0  0  0  0  0  0  0  0  0  0  0  0
   58.9837   27.4139   45.0641 H   0  0  0  0  0  0  0  0  0  0  0  0
   57.1150   28.3340   44.5550 N   0  0  0  0  0  0  0  0  0  0  0  0
   56.6960   27.4190   44.2730 H   0  0  0  0  0  0  0  0  0  0  0  0
  1  2  1  0
  2  3  2  0
  3  4  1  0
  4  5  2  0
  5  6  1  0
  6  7  1  0
  6  8  2  0
  8  9  1  0
  9 10  1  0
  9 11  1  0
 11 12  1  0
 11 13  1  0
 11 14  1  0
 14 15  1  0
 14 16  1  0
 14 17  1  0
 17 18  1  0
 18 19  1  0
 18 20  1  0
 18 21  1  0
 21 22  1  0
 21 23  1  0
  8 24  1  0
 24 25  1  0
 25 26  1  0
 25 27  2  0
 27 28  1  0
 27 29  1  0
 29 30  1  0
 29  3  1  0
 24  4  1  0
 21  9  1  0
M  END
>  <UniqueID>  (68) 
64

>  <SMILES>  (68) 
[H]/N=c1\[nH]ccn2c(C3CCOCC3)cnc12

>  <Energy>  (68) 
75.75844765783322

>  <Genealogy>  (68) 
[H]/N=c1\[nH]ccn2c(C3CCOCC3)cnc12 (cis-trans isomerization)
[H]/N=c1\[nH]ccn2c(C3CCOCC3)cnc12 (3D coordinates assigned)
[H]/N=c1\[nH]ccn2c(C3CCOCC3)cnc12 (nonaromatic ring conformer: 75.75844765783322 kcal/mol)

>  <smiles>  (68) 
N=c1[nH]ccn2c(C3CCOCC3)cnc12

>  <score_type>  (68) 
oracle

>  <origin>  (68) 
adg

>  <m_score__min__energy>  (68) 
-6.2999999999999998

>  <m_primary>  (68) 
energy

$$$$
68:0
     RDKit          3D

 37 39  0  0  1  0  0  0  0  0999 V2000
   60.1080   26.9560   46.8980 C   0  0  0  0  0  0  0  0  0  0  0  0
   58.6950   26.6850   46.6210 C   0  0  0  0  0  0  0  0  0  0  0  0
   57.9580   25.7750   47.3790 C   0  0  0  0  0  0  0  0  0  0  0  0
   56.6470   25.5340   47.1100 N   0  0  0  0  0  0  0  0  0  0  0  0
   56.0430   26.1950   46.0800 C   0  0  0  0  0  0  0  0  0  0  0  0
   54.8000   25.9630   45.8290 N   0  0  0  0  0  0  0  0  0  0  0  0
   56.7610   27.0790   45.3460 N   0  0  0  0  0  0  0  0  0  0  0  0
   58.0590   27.3390   45.5870 C   0  0  0  0  0  0  0  0  0  0  0  0
   58.6380   28.1980   44.8220 N   0  0  0  0  0  0  0  0  0  0  0  0
   57.9240   29.2450   44.1220 C   0  0  0  0  0  0  0  0  0  0  0  0
   57.3640   30.1860   45.1830 C   0  0  0  0  0  0  0  0  0  0  0  0
   57.7860   31.5450   45.0230 N   0  0  0  0  0  0  0  0  0  0  0  0
   57.7670   32.2460   43.8700 C   0  0  0  0  0  0  0  0  0  0  0  0
   58.2330   33.5150   44.0490 C   0  0  0  0  0  0  0  0  0  0  0  0
   58.5630   33.6180   45.3850 C   0  0  0  0  0  0  0  0  0  0  0  0
   59.0830   34.6820   46.1160 C   0  0  0  0  0  0  0  0  0  0  0  0
   59.3230   34.5150   47.4550 C   0  0  0  0  0  0  0  0  0  0  0  0
   59.0470   33.2970   48.0600 C   0  0  0  0  0  0  0  0  0  0  0  0
   58.5250   32.2340   47.3180 C   0  0  0  0  0  0  0  0  0  0  0  0
   58.2810   32.3990   45.9640 C   0  0  0  0  0  0  0  0  0  0  0  0
   60.2690   26.9869   47.9857 H   0  0  0  0  0  0  0  0  0  0  0  0
   60.7271   26.1602   46.4581 H   0  0  0  0  0  0  0  0  0  0  0  0
   60.3887   27.9244   46.4581 H   0  0  0  0  0  0  0  0  0  0  0  0
   58.4459   25.2430   48.2090 H   0  0  0  0  0  0  0  0  0  0  0  0
   56.0940   24.8480   47.6820 H   0  0  0  0  0  0  0  0  0  0  0  0
   54.0150   26.3180   46.4140 H   0  0  0  0  0  0  0  0  0  0  0  0
   56.2670   27.5650   44.5660 H   0  0  0  0  0  0  0  0  0  0  0  0
   58.6094   29.7904   43.4566 H   0  0  0  0  0  0  0  0  0  0  0  0
   57.1173   28.8251   43.5032 H   0  0  0  0  0  0  0  0  0  0  0  0
   56.2657   30.1544   45.1314 H   0  0  0  0  0  0  0  0  0  0  0  0
   57.7467   29.8412   46.1549 H   0  0  0  0  0  0  0  0  0  0  0  0
   57.4193   31.8442   42.9068 H   0  0  0  0  0  0  0  0  0  0  0  0
   58.3269   34.2987   43.2828 H   0  0  0  0  0  0  0  0  0  0  0  0
   59.2983   35.6431   45.6262 H   0  0  0  0  0  0  0  0  0  0  0  0
   59.7336   35.3448   48.0490 H   0  0  0  0  0  0  0  0  0  0  0  0
   59.2411   33.1669   49.1349 H   0  0  0  0  0  0  0  0  0  0  0  0
   58.3091   31.2721   47.8059 H   0  0  0  0  0  0  0  0  0  0  0  0
  1  2  1  0
  2  3  2  0
  3  4  1  0
  4  5  1  0
  5  6  2  3
  5  7  1  0
  7  8  1  0
  8  9  2  0
  9 10  1  0
 10 11  1  0
 11 12  1  0
 12 13  1  0
 13 14  2  0
 14 15  1  0
 15 16  2  0
 16 17  1  0
 17 18  2  0
 18 19  1  0
 19 20  2  0
  8  2  1  0
 20 12  1  0
 20 15  1  0
  1 21  1  0
  1 22  1  0
  1 23  1  0
  3 24  1  0
  4 25  1  0
  6 26  1  0
  7 27  1  0
 10 28  1  0
 10 29  1  0
 11 30  1  0
 11 31  1  0
 13 32  1  0
 14 33  1  0
 16 34  1  0
 17 35  1  0
 18 36  1  0
 19 37  1  0
M  END
>  <smiles>  (69) 
Cc1c[nH]c(=N)[nH]c1=NCCn1ccc2ccccc21

>  <score_type>  (69) 
oracle

>  <origin>  (69) 
adg

>  <m_score__min__energy>  (69) 
-7.7400000000000002

>  <m_primary>  (69) 
energy

$$$$
69:0
     RDKit          3D

 31 33  0  0  0  0  0  0  0  0999 V2000
   60.8020   26.7440   46.4150 O   0  0  0  0  0  0  0  0  0  0  0  0
   59.6460   27.2320   46.5400 C   0  0  0  0  0  0  0  0  0  0  0  0
   58.4700   26.3990   46.1890 C   0  0  0  0  0  0  0  0  0  0  0  0
   58.6220   25.0470   45.8260 C   0  0  0  0  0  0  0  0  0  0  0  0
   57.5050   24.2680   45.5130 C   0  0  0  0  0  0  0  0  0  0  0  0
   56.2250   24.8230   45.5690 C   0  0  0  0  0  0  0  0  0  0  0  0
   56.0580   26.1590   45.9420 C   0  0  0  0  0  0  0  0  0  0  0  0
   54.7840   26.7100   46.0010 O   0  0  0  0  0  0  0  0  0  0  0  0
   57.1740   26.9430   46.2560 C   0  0  0  0  0  0  0  0  0  0  0  0
   59.5130   28.6310   47.0120 C   0  0  0  0  0  0  0  0  0  0  0  0
   59.1450   29.6340   46.1050 C   0  0  0  0  0  0  0  0  0  0  0  0
   59.0190   30.9550   46.5440 C   0  0  0  0  0  0  0  0  0  0  0  0
   58.6360   31.9850   45.6720 C   0  0  0  0  0  0  0  0  0  0  0  0
   58.5130   33.3060   46.1420 C   0  0  0  0  0  0  0  0  0  0  0  0
   58.1200   34.3690   45.2520 N   0  0  0  0  0  0  0  0  0  0  0  0
   56.9410   34.4600   44.8520 O   0  0  0  0  0  0  0  0  0  0  0  0
   59.0380   35.3020   44.8270 O   0  0  0  0  0  0  0  0  0  0  0  0
   58.7810   33.5780   47.4960 C   0  0  0  0  0  0  0  0  0  0  0  0
   59.1640   32.5530   48.3660 C   0  0  0  0  0  0  0  0  0  0  0  0
   59.2840   31.2420   47.8980 C   0  0  0  0  0  0  0  0  0  0  0  0
   59.6540   30.2720   48.7290 O   0  0  0  0  0  0  0  0  0  0  0  0
   59.7830   29.0040   48.3450 C   0  0  0  0  0  0  0  0  0  0  0  0
   60.1690   28.1500   49.1860 O   0  0  0  0  0  0  0  0  0  0  0  0
   59.6269   24.6011   45.7886 H   0  0  0  0  0  0  0  0  0  0  0  0
   57.6344   23.2152   45.2218 H   0  0  0  0  0  0  0  0  0  0  0  0
   55.3477   24.2081   45.3193 H   0  0  0  0  0  0  0  0  0  0  0  0
   57.0370   27.9920   46.5573 H   0  0  0  0  0  0  0  0  0  0  0  0
   58.9559   29.3824   45.0510 H   0  0  0  0  0  0  0  0  0  0  0  0
   58.4307   31.7590   44.6152 H   0  0  0  0  0  0  0  0  0  0  0  0
   58.6883   34.6070   47.8737 H   0  0  0  0  0  0  0  0  0  0  0  0
   59.3715   32.7793   49.4223 H   0  0  0  0  0  0  0  0  0  0  0  0
  1  2  2  0
  2  3  1  0
  3  4  2  0
  4  5  1  0
  5  6  2  0
  6  7  1  0
  7  8  1  0
  7  9  2  0
  2 10  1  0
 10 11  2  0
 11 12  1  0
 12 13  2  0
 13 14  1  0
 14 15  1  0
 15 16  2  0
 15 17  1  0
 14 18  2  0
 18 19  1  0
 19 20  2  0
 20 21  1  0
 21 22  1  0
 22 23  2  0
  9  3  1  0
 22 10  1  0
 20 12  1  0
  4 24  1  0
  5 25  1  0
  6 26  1  0
  9 27  1  0
 11 28  1  0
 13 29  1  0
 18 30  1  0
 19 31  1  0
M  CHG  3   8  -1  15   1  17  -1
M  END
>  <UniqueID>  (70) 
65

>  <SMILES>  (70) 
O=C(c1cccc([O-])c1)c1cc2cc([N+](=O)[O-])ccc2oc1=O

>  <Energy>  (70) 
47.39087718759589

>  <Genealogy>  (70) 
O=C(c1cccc([O-])c1)c1cc2cc([N+](=O)[O-])ccc2oc1=O (protonated)
O=C(c1cccc([O-])c1)c1cc2cc([N+](=O)[O-])ccc2oc1=O (3D coordinates assigned)
O=C(c1cccc([O-])c1)c1cc2cc([N+](=O)[O-])ccc2oc1=O (optimized conformer: 47.39087718759589 kcal/mol)

>  <smiles>  (70) 
O=C(c1cccc(O)c1)c1cc2cc([N+](=O)[O-])ccc2oc1=O

>  <score_type>  (70) 
oracle

>  <origin>  (70) 
adg

>  <m_score__min__energy>  (70) 
-11.74

>  <m_primary>  (70) 
energy

$$$$
70:0
     RDKit          3D

 51 54  0  0  0  0  0  0  0  0999 V2000
   60.9010   28.8310   50.7430 C   0  0  0  0  0  0  0  0  0  0  0  0
   61.4910   30.1650   50.8820 N   0  0  0  0  0  0  0  0  0  0  0  0
   62.7260   30.3200   51.6500 C   0  0  0  0  0  0  0  0  0  0  0  0
   60.8460   31.3340   50.3420 C   0  0  0  0  0  0  0  0  0  0  0  0
   60.8810   32.4130   50.9950 O   0  0  0  0  0  0  0  0  0  0  0  0
   60.1560   31.3090   49.0300 C   0  0  0  0  0  0  0  0  0  0  0  0
   58.8790   31.8760   48.8780 C   0  0  0  0  0  0  0  0  0  0  0  0
   58.2350   31.8480   47.6390 C   0  0  0  0  0  0  0  0  0  0  0  0
   58.8530   31.2490   46.5330 C   0  0  0  0  0  0  0  0  0  0  0  0
   58.1780   31.2400   45.2140 C   0  0  0  0  0  0  0  0  0  0  0  0
   57.7730   30.0010   44.6880 C   0  0  0  0  0  0  0  0  0  0  0  0
   57.2030   29.9200   43.4170 C   0  0  0  0  0  0  0  0  0  0  0  0
   57.0310   31.0730   42.6540 C   0  0  0  0  0  0  0  0  0  0  0  0
   57.4130   32.3140   43.1640 C   0  0  0  0  0  0  0  0  0  0  0  0
   57.9750   32.4240   44.4510 C   0  0  0  0  0  0  0  0  0  0  0  0
   58.2920   33.7790   44.9710 C   0  0  0  0  0  0  0  0  0  0  0  0
   57.3530   34.5760   45.2390 O   0  0  0  0  0  0  0  0  0  0  0  0
   59.6550   34.1840   45.1540 N   0  0  0  0  0  0  0  0  0  0  0  0
   60.4240   34.1100   46.3620 C   0  0  0  0  0  0  0  0  0  0  0  0
   59.8520   34.5920   47.5450 C   0  0  0  0  0  0  0  0  0  0  0  0
   60.5670   34.5600   48.7450 C   0  0  0  0  0  0  0  0  0  0  0  0
   61.8750   34.0560   48.7730 C   0  0  0  0  0  0  0  0  0  0  0  0
   62.5820   34.0210   49.9410 N   0  0  0  0  0  0  0  0  0  0  0  0
   63.8570   33.5450   49.9850 C   0  0  0  0  0  0  0  0  0  0  0  0
   64.4770   33.0780   48.8240 C   0  0  0  0  0  0  0  0  0  0  0  0
   63.7800   33.1010   47.6150 C   0  0  0  0  0  0  0  0  0  0  0  0
   62.4680   33.5880   47.5770 C   0  0  0  0  0  0  0  0  0  0  0  0
   61.7430   33.6230   46.3760 C   0  0  0  0  0  0  0  0  0  0  0  0
   60.1110   30.6460   46.6890 C   0  0  0  0  0  0  0  0  0  0  0  0
   60.7580   30.6770   47.9280 C   0  0  0  0  0  0  0  0  0  0  0  0
   60.7136   28.4072   51.7406 H   0  0  0  0  0  0  0  0  0  0  0  0
   59.9519   28.9054   50.1920 H   0  0  0  0  0  0  0  0  0  0  0  0
   61.5946   28.1789   50.1920 H   0  0  0  0  0  0  0  0  0  0  0  0
   62.4953   30.2910   52.7251 H   0  0  0  0  0  0  0  0  0  0  0  0
   63.4176   29.5016   51.4012 H   0  0  0  0  0  0  0  0  0  0  0  0
   63.1939   31.2839   51.4012 H   0  0  0  0  0  0  0  0  0  0  0  0
   58.3834   32.3450   49.7408 H   0  0  0  0  0  0  0  0  0  0  0  0
   57.2374   32.2985   47.5307 H   0  0  0  0  0  0  0  0  0  0  0  0
   57.9067   29.0863   45.2842 H   0  0  0  0  0  0  0  0  0  0  0  0
   56.8890   28.9446   43.0169 H   0  0  0  0  0  0  0  0  0  0  0  0
   56.5930   31.0046   41.6473 H   0  0  0  0  0  0  0  0  0  0  0  0
   57.2736   33.2182   42.5533 H   0  0  0  0  0  0  0  0  0  0  0  0
   58.8304   34.9996   47.5299 H   0  0  0  0  0  0  0  0  0  0  0  0
   60.1024   34.9313   49.6703 H   0  0  0  0  0  0  0  0  0  0  0  0
   62.1500   34.3660   50.8280 H   0  0  0  0  0  0  0  0  0  0  0  0
   64.4018   33.5282   50.9405 H   0  0  0  0  0  0  0  0  0  0  0  0
   65.5074   32.6948   48.8621 H   0  0  0  0  0  0  0  0  0  0  0  0
   64.2602   32.7375   46.6945 H   0  0  0  0  0  0  0  0  0  0  0  0
   62.2074   33.2688   45.4439 H   0  0  0  0  0  0  0  0  0  0  0  0
   60.5895   30.1472   45.8333 H   0  0  0  0  0  0  0  0  0  0  0  0
   61.7445   30.2038   48.0413 H   0  0  0  0  0  0  0  0  0  0  0  0
  1  2  1  0
  2  3  1  0
  2  4  1  0
  4  5  2  0
  4  6  1  0
  6  7  2  0
  7  8  1  0
  8  9  2  0
  9 10  1  0
 10 11  2  0
 11 12  1  0
 12 13  2  0
 13 14  1  0
 14 15  2  0
 15 16  1  0
 16 17  2  0
 16 18  1  0
 18 19  1  0
 19 20  2  0
 20 21  1  0
 21 22  2  0
 22 23  1  0
 23 24  2  0
 24 25  1  0
 25 26  2  0
 26 27  1  0
 27 28  2  0
  9 29  1  0
 29 30  2  0
 30  6  1  0
 15 10  1  0
 28 19  1  0
 27 22  1  0
  1 31  1  0
  1 32  1  0
  1 33  1  0
  3 34  1  0
  3 35  1  0
  3 36  1  0
  7 37  1  0
  8 38  1  0
 11 39  1  0
 12 40  1  0
 13 41  1  0
 14 42  1  0
 20 43  1  0
 21 44  1  0
 23 45  1  0
 24 46  1  0
 25 47  1  0
 26 48  1  0
 28 49  1  0
 29 50  1  0
 30 51  1  0
M  CHG  2  18  -1  23   1
M  END
>  <UniqueID>  (71) 
66

>  <SMILES>  (71) 
CN(C)C(=O)c1ccc(-c2ccccc2C(=O)[N-]c2ccc3[nH+]cccc3c2)cc1

>  <Energy>  (71) 
74.52657760153028

>  <Genealogy>  (71) 
CN(C)C(=O)c1ccc(-c2ccccc2C(=O)[N-]c2ccc3[nH+]cccc3c2)cc1 (protonated)
CN(C)C(=O)c1ccc(-c2ccccc2C(=O)[N-]c2ccc3[nH+]cccc3c2)cc1 (3D coordinates assigned)
CN(C)C(=O)c1ccc(-c2ccccc2C(=O)[N-]c2ccc3[nH+]cccc3c2)cc1 (optimized conformer: 74.52657760153028 kcal/mol)

>  <smiles>  (71) 
CN(C)C(=O)c1ccc(-c2ccccc2C(=O)Nc2ccc3ncccc3c2)cc1

>  <score_type>  (71) 
oracle

>  <origin>  (71) 
adg

>  <m_score__min__energy>  (71) 
-8.2200000000000006

>  <m_primary>  (71) 
energy

$$$$
71:0
     RDKit          3D

 20 20  0  0  0  0  0  0  0  0999 V2000
   55.5190   28.9940   44.9240 N   0  0  0  0  0  0  0  0  0  0  0  0
   56.3820   29.7040   44.0360 C   0  0  0  0  0  0  0  0  0  0  0  0
   56.4560   29.3390   42.8320 O   0  0  0  0  0  0  0  0  0  0  0  0
   57.1780   30.8560   44.5190 C   0  0  0  0  0  0  0  0  0  0  0  0
   57.3610   31.9900   43.7050 C   0  0  0  0  0  0  0  0  0  0  0  0
   58.1120   33.0760   44.1600 C   0  0  0  0  0  0  0  0  0  0  0  0
   58.6980   33.0470   45.4310 C   0  0  0  0  0  0  0  0  0  0  0  0
   59.6310   34.4240   46.0100 S   0  0  0  0  0  0  0  0  0  0  0  0
   59.0020   34.9530   47.5300 N   0  0  0  0  0  0  0  0  0  0  0  0
   61.0720   34.0310   46.1720 O   0  0  0  0  0  0  0  0  0  0  0  0
   59.5480   35.5480   45.0160 O   0  0  0  0  0  0  0  0  0  0  0  0
   58.5150   31.9260   46.2500 C   0  0  0  0  0  0  0  0  0  0  0  0
   57.7630   30.8370   45.7980 C   0  0  0  0  0  0  0  0  0  0  0  0
   54.5660   29.3550   45.1490 H   0  0  0  0  0  0  0  0  0  0  0  0
   56.9089   32.0209   42.7027 H   0  0  0  0  0  0  0  0  0  0  0  0
   58.2437   33.9584   43.5166 H   0  0  0  0  0  0  0  0  0  0  0  0
   58.0380   34.5590   47.6160 H   0  0  0  0  0  0  0  0  0  0  0  0
   58.8990   35.9910   47.4730 H   0  0  0  0  0  0  0  0  0  0  0  0
   58.9648   31.9019   47.2535 H   0  0  0  0  0  0  0  0  0  0  0  0
   57.6280   29.9594   46.4473 H   0  0  0  0  0  0  0  0  0  0  0  0
  1  2  1  0
  2  3  2  0
  2  4  1  0
  4  5  2  0
  5  6  1  0
  6  7  2  0
  7  8  1  0
  8  9  1  0
  8 10  2  0
  8 11  2  0
  7 12  1  0
 12 13  2  0
 13  4  1  0
  1 14  1  0
  5 15  1  0
  6 16  1  0
  9 17  1  0
  9 18  1  0
 12 19  1  0
 13 20  1  0
M  CHG  1   1  -1
M  END
>  <UniqueID>  (72) 
67

>  <SMILES>  (72) 
[NH-]C(=O)c1ccc(S(N)(=O)=O)cc1

>  <Energy>  (72) 
17.31857647385786

>  <Genealogy>  (72) 
[NH-]C(=O)c1ccc(S(N)(=O)=O)cc1 (protonated)
[NH-]C(=O)c1ccc(S(N)(=O)=O)cc1 (3D coordinates assigned)
[NH-]C(=O)c1ccc(S(N)(=O)=O)cc1 (optimized conformer: 17.31857647385786 kcal/mol)

>  <smiles>  (72) 
NC(=O)c1ccc(S(N)(=O)=O)cc1

>  <score_type>  (72) 
oracle

>  <origin>  (72) 
adg

>  <m_score__min__energy>  (72) 
-8.5500000000000007

>  <m_primary>  (72) 
energy

$$$$
72:0
     RDKit          3D

 29 30  0  0  0  0  0  0  0  0999 V2000
   57.7990   32.3380   41.3390 C   0  0  0  0  0  0  0  0  0  0  0  0
   57.1760   31.8810   42.5360 O   0  0  0  0  0  0  0  0  0  0  0  0
   57.6330   32.1690   43.8320 C   0  0  0  0  0  0  0  0  0  0  0  0
   58.3790   33.3270   44.1200 C   0  0  0  0  0  0  0  0  0  0  0  0
   58.8190   33.5830   45.4260 C   0  0  0  0  0  0  0  0  0  0  0  0
   59.5590   34.7330   45.7110 C   0  0  0  0  0  0  0  0  0  0  0  0
   59.9900   34.9730   47.0150 C   0  0  0  0  0  0  0  0  0  0  0  0
   59.6970   34.0950   48.0210 N   0  0  0  0  0  0  0  0  0  0  0  0
   60.1670   34.3780   49.3830 C   0  0  0  0  0  0  0  0  0  0  0  0
   58.9720   32.9570   47.7690 C   0  0  0  0  0  0  0  0  0  0  0  0
   58.7110   32.1570   48.7120 O   0  0  0  0  0  0  0  0  0  0  0  0
   58.5180   32.6770   46.4630 C   0  0  0  0  0  0  0  0  0  0  0  0
   57.7720   31.5200   46.1710 C   0  0  0  0  0  0  0  0  0  0  0  0
   57.3300   31.2630   44.8590 C   0  0  0  0  0  0  0  0  0  0  0  0
   56.5840   30.1180   44.5350 O   0  0  0  0  0  0  0  0  0  0  0  0
   57.0250   29.0860   43.6590 C   0  0  0  0  0  0  0  0  0  0  0  0
   58.6619   32.9710   41.5934 H   0  0  0  0  0  0  0  0  0  0  0  0
   58.1393   31.4737   40.7497 H   0  0  0  0  0  0  0  0  0  0  0  0
   57.0768   32.9221   40.7497 H   0  0  0  0  0  0  0  0  0  0  0  0
   58.6186   34.0365   43.3143 H   0  0  0  0  0  0  0  0  0  0  0  0
   59.8008   35.4466   44.9095 H   0  0  0  0  0  0  0  0  0  0  0  0
   60.5725   35.8793   47.2369 H   0  0  0  0  0  0  0  0  0  0  0  0
   59.4602   33.9524   50.1106 H   0  0  0  0  0  0  0  0  0  0  0  0
   61.1597   33.9273   49.5294 H   0  0  0  0  0  0  0  0  0  0  0  0
   60.2331   35.4662   49.5294 H   0  0  0  0  0  0  0  0  0  0  0  0
   57.5318   30.8094   46.9756 H   0  0  0  0  0  0  0  0  0  0  0  0
   57.3893   28.2334   44.2509 H   0  0  0  0  0  0  0  0  0  0  0  0
   56.1873   28.7607   43.0246 H   0  0  0  0  0  0  0  0  0  0  0  0
   57.8391   29.4665   43.0246 H   0  0  0  0  0  0  0  0  0  0  0  0
  1  2  1  0
  2  3  1  0
  3  4  2  0
  4  5  1  0
  5  6  1  0
  6  7  2  0
  7  8  1  0
  8  9  1  0
  8 10  1  0
 10 11  2  0
 10 12  1  0
 12 13  1  0
 13 14  2  0
 14 15  1  0
 15 16  1  0
 14  3  1  0
 12  5  2  0
  1 17  1  0
  1 18  1  0
  1 19  1  0
  4 20  1  0
  6 21  1  0
  7 22  1  0
  9 23  1  0
  9 24  1  0
  9 25  1  0
 13 26  1  0
 16 27  1  0
 16 28  1  0
 16 29  1  0
M  END
>  <UniqueID>  (73) 
68

>  <SMILES>  (73) 
COc1cc2ccn(C)c(=O)c2cc1OC

>  <Energy>  (73) 
34.73382502520037

>  <Genealogy>  (73) 
COc1cc2ccn(C)c(=O)c2cc1OC (3D coordinates assigned)
COc1cc2ccn(C)c(=O)c2cc1OC (optimized conformer: 34.73382502520037 kcal/mol)

>  <smiles>  (73) 
COc1cc2ccn(C)c(=O)c2cc1OC

>  <score_type>  (73) 
oracle

>  <origin>  (73) 
adg

>  <m_score__min__energy>  (73) 
-5.2800000000000002

>  <m_primary>  (73) 
energy

$$$$
73:0
     RDKit          3D

 67 71  0  0  0  0  0  0  0  0999 V2000
   63.8140   33.7590   46.9240 N   0  0  0  0  0  0  0  0  0  0  0  0
   62.7100   33.7190   47.8380 C   0  0  0  0  0  0  0  0  0  0  0  0
   62.9690   33.5460   49.2050 C   0  0  0  0  0  0  0  0  0  0  0  0
   61.9200   33.3830   50.1140 C   0  0  0  0  0  0  0  0  0  0  0  0
   60.5860   33.3890   49.6700 C   0  0  0  0  0  0  0  0  0  0  0  0
   59.4700   33.1610   50.6250 C   0  0  0  0  0  0  0  0  0  0  0  0
   58.5460   32.1200   50.4120 C   0  0  0  0  0  0  0  0  0  0  0  0
   57.5250   31.8800   51.3370 C   0  0  0  0  0  0  0  0  0  0  0  0
   57.4140   32.6770   52.4780 C   0  0  0  0  0  0  0  0  0  0  0  0
   58.3180   33.7180   52.6960 C   0  0  0  0  0  0  0  0  0  0  0  0
   59.3390   33.9640   51.7760 C   0  0  0  0  0  0  0  0  0  0  0  0
   60.3250   33.5880   48.3020 C   0  0  0  0  0  0  0  0  0  0  0  0
   61.3710   33.7790   47.3880 C   0  0  0  0  0  0  0  0  0  0  0  0
   61.0350   33.9890   46.0110 N   0  0  0  0  0  0  0  0  0  0  0  0
   59.7090   34.2010   45.5140 C   0  0  0  0  0  0  0  0  0  0  0  0
   59.2300   35.3680   45.4840 O   0  0  0  0  0  0  0  0  0  0  0  0
   58.8950   33.0500   45.0530 C   0  0  0  0  0  0  0  0  0  0  0  0
   58.5370   32.0220   45.9440 C   0  0  0  0  0  0  0  0  0  0  0  0
   57.7650   30.9400   45.5100 C   0  0  0  0  0  0  0  0  0  0  0  0
   57.3340   30.8680   44.1770 C   0  0  0  0  0  0  0  0  0  0  0  0
   56.4990   29.7040   43.6970 C   0  0  0  0  0  0  0  0  0  0  0  0
   57.3290   28.5270   43.3780 N   0  0  0  0  0  0  0  0  0  0  0  0
   57.4250   27.5990   44.5180 C   0  0  0  0  0  0  0  0  0  0  0  0
   58.8860   27.2070   44.7730 C   0  0  0  0  0  0  0  0  0  0  0  0
   59.6960   28.4050   45.1890 C   0  0  0  0  0  0  0  0  0  0  0  0
   60.0470   29.2340   44.3060 O   0  0  0  0  0  0  0  0  0  0  0  0
   60.0510   28.6400   46.5630 N   0  0  0  0  0  0  0  0  0  0  0  0
   60.7750   29.8340   47.0060 C   0  0  0  0  0  0  0  0  0  0  0  0
   60.9430   29.6060   48.4620 C   0  0  0  0  0  0  0  0  0  0  0  0
   61.5690   30.4340   49.3960 C   0  0  0  0  0  0  0  0  0  0  0  0
   61.6190   30.0140   50.7360 C   0  0  0  0  0  0  0  0  0  0  0  0
   61.0470   28.7840   51.1180 C   0  0  0  0  0  0  0  0  0  0  0  0
   60.4200   27.9700   50.1610 C   0  0  0  0  0  0  0  0  0  0  0  0
   60.3810   28.4070   48.8360 C   0  0  0  0  0  0  0  0  0  0  0  0
   59.7770   27.7190   47.6700 C   0  0  0  0  0  0  0  0  0  0  0  0
   57.6860   31.8940   43.2860 C   0  0  0  0  0  0  0  0  0  0  0  0
   58.4580   32.9720   43.7180 C   0  0  0  0  0  0  0  0  0  0  0  0
   63.7340   34.2000   45.9840 H   0  0  0  0  0  0  0  0  0  0  0  0
   64.6870   33.2260   47.1320 H   0  0  0  0  0  0  0  0  0  0  0  0
   64.0082   33.5385   49.5657 H   0  0  0  0  0  0  0  0  0  0  0  0
   62.1394   33.2492   51.1835 H   0  0  0  0  0  0  0  0  0  0  0  0
   58.6278   31.4919   49.5127 H   0  0  0  0  0  0  0  0  0  0  0  0
   56.8089   31.0628   51.1656 H   0  0  0  0  0  0  0  0  0  0  0  0
   56.6127   32.4842   53.2065 H   0  0  0  0  0  0  0  0  0  0  0  0
   58.2258   34.3459   53.5945 H   0  0  0  0  0  0  0  0  0  0  0  0
   60.0452   34.7892   51.9504 H   0  0  0  0  0  0  0  0  0  0  0  0
   59.2849   33.5938   47.9441 H   0  0  0  0  0  0  0  0  0  0  0  0
   58.8675   32.0698   46.9921 H   0  0  0  0  0  0  0  0  0  0  0  0
   57.4945   30.1418   46.2169 H   0  0  0  0  0  0  0  0  0  0  0  0
   55.7826   29.4309   44.4858 H   0  0  0  0  0  0  0  0  0  0  0  0
   55.9784   30.0133   42.7787 H   0  0  0  0  0  0  0  0  0  0  0  0
   58.2860   28.8310   43.0810 H   0  0  0  0  0  0  0  0  0  0  0  0
   56.8830   28.0240   42.5740 H   0  0  0  0  0  0  0  0  0  0  0  0
   57.0194   28.0869   45.4166 H   0  0  0  0  0  0  0  0  0  0  0  0
   56.8493   26.6909   44.2857 H   0  0  0  0  0  0  0  0  0  0  0  0
   58.9226   26.4519   45.5720 H   0  0  0  0  0  0  0  0  0  0  0  0
   59.3096   26.8009   43.8426 H   0  0  0  0  0  0  0  0  0  0  0  0
   61.7504   29.9131   46.5038 H   0  0  0  0  0  0  0  0  0  0  0  0
   60.2468   30.7705   46.7735 H   0  0  0  0  0  0  0  0  0  0  0  0
   62.0127   31.3929   49.0899 H   0  0  0  0  0  0  0  0  0  0  0  0
   62.1070   30.6484   51.4905 H   0  0  0  0  0  0  0  0  0  0  0  0
   61.0918   28.4608   52.1685 H   0  0  0  0  0  0  0  0  0  0  0  0
   59.9694   27.0088   50.4492 H   0  0  0  0  0  0  0  0  0  0  0  0
   60.2524   26.7421   47.4980 H   0  0  0  0  0  0  0  0  0  0  0  0
   58.7058   27.5058   47.8005 H   0  0  0  0  0  0  0  0  0  0  0  0
   57.3505   31.8473   42.2395 H   0  0  0  0  0  0  0  0  0  0  0  0
   58.7276   33.7684   43.0087 H   0  0  0  0  0  0  0  0  0  0  0  0
  1  2  1  0
  2  3  2  0
  3  4  1  0
  4  5  2  0
  5  6  1  0
  6  7  2  0
  7  8  1  0
  8  9  2  0
  9 10  1  0
 10 11  2  0
  5 12  1  0
 12 13  2  0
 13 14  1  0
 14 15  1  0
 15 16  2  0
 15 17  1  0
 17 18  2  0
 18 19  1  0
 19 20  2  0
 20 21  1  0
 21 22  1  0
 22 23  1  0
 23 24  1  0
 24 25  1  0
 25 26  2  0
 25 27  1  0
 27 28  1  0
 28 29  1  0
 29 30  2  0
 30 31  1  0
 31 32  2  0
 32 33  1  0
 33 34  2  0
 34 35  1  0
 20 36  1  0
 36 37  2  0
 13  2  1  0
 37 17  1  0
 11  6  1  0
 35 27  1  0
 34 29  1  0
  1 38  1  0
  1 39  1  0
  3 40  1  0
  4 41  1  0
  7 42  1  0
  8 43  1  0
  9 44  1  0
 10 45  1  0
 11 46  1  0
 12 47  1  0
 18 48  1  0
 19 49  1  0
 21 50  1  0
 21 51  1  0
 22 52  1  0
 22 53  1  0
 23 54  1  0
 23 55  1  0
 24 56  1  0
 24 57  1  0
 28 58  1  0
 28 59  1  0
 30 60  1  0
 31 61  1  0
 32 62  1  0
 33 63  1  0
 35 64  1  0
 35 65  1  0
 36 66  1  0
 37 67  1  0
M  CHG  2  14  -1  22   1
M  END
>  <UniqueID>  (74) 
69

>  <SMILES>  (74) 
Nc1ccc(-c2ccccc2)cc1[N-]C(=O)c1ccc(C[NH2+]CCC(=O)N2Cc3ccccc3C2)cc1

>  <Energy>  (74) 
92.65488248147179

>  <Genealogy>  (74) 
Nc1ccc(-c2ccccc2)cc1[N-]C(=O)c1ccc(C[NH2+]CCC(=O)N2Cc3ccccc3C2)cc1 (protonated)
Nc1ccc(-c2ccccc2)cc1[N-]C(=O)c1ccc(C[NH2+]CCC(=O)N2Cc3ccccc3C2)cc1 (3D coordinates assigned)
Nc1ccc(-c2ccccc2)cc1[N-]C(=O)c1ccc(C[NH2+]CCC(=O)N2Cc3ccccc3C2)cc1 (nonaromatic ring conformer: 92.65488248147179 kcal/mol)

>  <smiles>  (74) 
Nc1ccc(-c2ccccc2)cc1NC(=O)c1ccc(CNCCC(=O)N2Cc3ccccc3C2)cc1

>  <score_type>  (74) 
oracle

>  <origin>  (74) 
adg

>  <m_score__min__energy>  (74) 
-9.9800000000000004

>  <m_primary>  (74) 
energy

$$$$
74:0
     RDKit          3D

 55 58  0  0  0  0  0  0  0  0999 V2000
   60.4970   28.8640   50.8480 C   0  0  0  0  0  0  0  0  0  0  0  0
   60.2420   28.7950   49.3980 N   0  0  0  0  0  0  0  0  0  0  0  0
   59.7480   29.8920   48.7470 C   0  0  0  0  0  0  0  0  0  0  0  0
   59.5080   30.9540   49.3870 O   0  0  0  0  0  0  0  0  0  0  0  0
   59.5050   29.8450   47.3690 C   0  0  0  0  0  0  0  0  0  0  0  0
   58.9350   30.9420   46.6910 C   0  0  0  0  0  0  0  0  0  0  0  0
   58.6590   30.8650   45.3220 C   0  0  0  0  0  0  0  0  0  0  0  0
   57.7670   32.1490   44.5060 S   0  0  0  0  0  0  0  0  0  0  0  0
   57.9120   32.0380   43.0170 O   0  0  0  0  0  0  0  0  0  0  0  0
   56.3170   32.0400   44.8740 O   0  0  0  0  0  0  0  0  0  0  0  0
   58.3810   33.6900   45.0250 N   0  0  0  0  0  0  0  0  0  0  0  0
   59.2980   33.8480   46.1130 C   0  0  0  0  0  0  0  0  0  0  0  0
   58.8010   34.1570   47.3820 C   0  0  0  0  0  0  0  0  0  0  0  0
   59.6590   34.2010   48.4840 C   0  0  0  0  0  0  0  0  0  0  0  0
   61.0290   33.9340   48.3320 C   0  0  0  0  0  0  0  0  0  0  0  0
   61.8870   33.8780   49.5330 C   0  0  0  0  0  0  0  0  0  0  0  0
   62.5190   34.9100   49.8920 O   0  0  0  0  0  0  0  0  0  0  0  0
   61.9530   32.6790   50.3220 N   0  0  0  0  0  0  0  0  0  0  0  0
   62.7750   32.5740   51.5230 C   0  0  0  0  0  0  0  0  0  0  0  0
   64.2060   32.2910   51.1550 C   0  0  0  0  0  0  0  0  0  0  0  0
   64.9750   33.2710   50.4990 C   0  0  0  0  0  0  0  0  0  0  0  0
   66.3080   33.0120   50.1580 C   0  0  0  0  0  0  0  0  0  0  0  0
   66.8880   31.7790   50.4820 C   0  0  0  0  0  0  0  0  0  0  0  0
   66.1340   30.8050   51.1460 C   0  0  0  0  0  0  0  0  0  0  0  0
   66.6970   29.6100   51.4590 F   0  0  0  0  0  0  0  0  0  0  0  0
   64.7960   31.0590   51.4820 C   0  0  0  0  0  0  0  0  0  0  0  0
   61.5440   33.6930   47.0400 C   0  0  0  0  0  0  0  0  0  0  0  0
   63.2670   33.4740   46.7470 Cl  0  0  0  0  0  0  0  0  0  0  0  0
   60.6800   33.6610   45.9410 C   0  0  0  0  0  0  0  0  0  0  0  0
   58.9920   29.7100   44.6150 C   0  0  0  0  0  0  0  0  0  0  0  0
   59.5640   28.6200   45.2700 C   0  0  0  0  0  0  0  0  0  0  0  0
   59.8160   28.6600   46.6640 C   0  0  0  0  0  0  0  0  0  0  0  0
   60.3440   27.5790   47.3390 N   0  0  0  0  0  0  0  0  0  0  0  0
   60.6650   26.3320   46.6170 C   0  0  0  0  0  0  0  0  0  0  0  0
   60.5640   27.6600   48.6960 C   0  0  0  0  0  0  0  0  0  0  0  0
   61.0700   26.6770   49.3100 O   0  0  0  0  0  0  0  0  0  0  0  0
   59.5756   28.6147   51.3946 H   0  0  0  0  0  0  0  0  0  0  0  0
   61.2875   28.1474   51.1158 H   0  0  0  0  0  0  0  0  0  0  0  0
   60.8183   29.8814   51.1158 H   0  0  0  0  0  0  0  0  0  0  0  0
   58.7056   31.8654   47.2429 H   0  0  0  0  0  0  0  0  0  0  0  0
   57.7292   34.3666   47.5140 H   0  0  0  0  0  0  0  0  0  0  0  0
   59.2580   34.4467   49.4784 H   0  0  0  0  0  0  0  0  0  0  0  0
   61.3440   31.8650   50.0710 H   0  0  0  0  0  0  0  0  0  0  0  0
   62.7245   33.5207   52.0809 H   0  0  0  0  0  0  0  0  0  0  0  0
   62.3961   31.7490   52.1442 H   0  0  0  0  0  0  0  0  0  0  0  0
   64.5264   34.2448   50.2532 H   0  0  0  0  0  0  0  0  0  0  0  0
   66.9002   33.7775   49.6352 H   0  0  0  0  0  0  0  0  0  0  0  0
   67.9356   31.5764   50.2147 H   0  0  0  0  0  0  0  0  0  0  0  0
   64.2066   30.2905   52.0035 H   0  0  0  0  0  0  0  0  0  0  0  0
   61.0856   33.4880   44.9333 H   0  0  0  0  0  0  0  0  0  0  0  0
   58.8020   29.6585   43.5328 H   0  0  0  0  0  0  0  0  0  0  0  0
   59.8230   27.7173   44.6972 H   0  0  0  0  0  0  0  0  0  0  0  0
   60.8712   25.5311   47.3423 H   0  0  0  0  0  0  0  0  0  0  0  0
   59.8117   26.0440   45.9854 H   0  0  0  0  0  0  0  0  0  0  0  0
   61.5513   26.4918   45.9854 H   0  0  0  0  0  0  0  0  0  0  0  0
  1  2  1  0
  2  3  1  0
  3  4  2  0
  3  5  1  0
  5  6  2  0
  6  7  1  0
  7  8  1  0
  8  9  2  0
  8 10  2  0
  8 11  1  0
 11 12  1  0
 12 13  2  0
 13 14  1  0
 14 15  2  0
 15 16  1  0
 16 17  2  0
 16 18  1  0
 18 19  1  0
 19 20  1  0
 20 21  2  0
 21 22  1  0
 22 23  2  0
 23 24  1  0
 24 25  1  0
 24 26  2  0
 15 27  1  0
 27 28  1  0
 27 29  2  0
  7 30  2  0
 30 31  1  0
 31 32  2  0
 32 33  1  0
 33 34  1  0
 33 35  1  0
 35 36  2  0
 35  2  1  0
 32  5  1  0
 29 12  1  0
 26 20  1  0
  1 37  1  0
  1 38  1  0
  1 39  1  0
  6 40  1  0
 13 41  1  0
 14 42  1  0
 18 43  1  0
 19 44  1  0
 19 45  1  0
 21 46  1  0
 22 47  1  0
 23 48  1  0
 26 49  1  0
 29 50  1  0
 30 51  1  0
 31 52  1  0
 34 53  1  0
 34 54  1  0
 34 55  1  0
M  CHG  1  11  -1
M  END
>  <UniqueID>  (75) 
70

>  <SMILES>  (75) 
Cn1c(=O)c2cc(S(=O)(=O)[N-]c3ccc(C(=O)NCc4cccc(F)c4)c(Cl)c3)ccc2n(C)c1=O

>  <Energy>  (75) 
82.09752764167611

>  <Genealogy>  (75) 
Cn1c(=O)c2cc(S(=O)(=O)[N-]c3ccc(C(=O)NCc4cccc(F)c4)c(Cl)c3)ccc2n(C)c1=O (protonated)
Cn1c(=O)c2cc(S(=O)(=O)[N-]c3ccc(C(=O)NCc4cccc(F)c4)c(Cl)c3)ccc2n(C)c1=O (3D coordinates assigned)
Cn1c(=O)c2cc(S(=O)(=O)[N-]c3ccc(C(=O)NCc4cccc(F)c4)c(Cl)c3)ccc2n(C)c1=O (optimized conformer: 82.09752764167611 kcal/mol)

>  <smiles>  (75) 
Cn1c(=O)c2cc(S(=O)(=O)Nc3ccc(C(=O)NCc4cccc(F)c4)c(Cl)c3)ccc2n(C)c1=O

>  <score_type>  (75) 
oracle

>  <origin>  (75) 
adg

>  <m_score__min__energy>  (75) 
-10.85

>  <m_primary>  (75) 
energy

$$$$
75:0
     RDKit          3D

 36 39  0  0  0  0  0  0  0  0999 V2000
   55.0010   29.5120   43.4430 O   0  0  0  0  0  0  0  0  0  0  0  0
   56.1050   29.7130   44.2710 C   0  0  0  0  0  0  0  0  0  0  0  0
   56.6680   28.6240   44.9310 C   0  0  0  0  0  0  0  0  0  0  0  0
   57.7670   28.8020   45.7660 C   0  0  0  0  0  0  0  0  0  0  0  0
   58.3200   30.0820   45.9640 C   0  0  0  0  0  0  0  0  0  0  0  0
   59.4270   30.2660   46.8170 C   0  0  0  0  0  0  0  0  0  0  0  0
   59.9830   29.1790   47.5670 N   0  0  0  0  0  0  0  0  0  0  0  0
   59.8070   29.0560   49.0010 C   0  0  0  0  0  0  0  0  0  0  0  0
   60.3950   27.7010   49.3650 C   0  0  0  0  0  0  0  0  0  0  0  0
   60.4470   26.9060   48.0610 C   0  0  0  0  0  0  0  0  0  0  0  0
   60.4060   27.9380   46.9400 C   0  0  0  0  0  0  0  0  0  0  0  0
   59.9790   31.4960   46.9510 N   0  0  0  0  0  0  0  0  0  0  0  0
   59.5000   32.5890   46.3090 C   0  0  0  0  0  0  0  0  0  0  0  0
   60.1320   33.8210   46.5100 C   0  0  0  0  0  0  0  0  0  0  0  0
   59.6590   34.9660   45.8710 C   0  0  0  0  0  0  0  0  0  0  0  0
   58.5520   34.8870   45.0290 C   0  0  0  0  0  0  0  0  0  0  0  0
   57.9100   33.6620   44.8170 C   0  0  0  0  0  0  0  0  0  0  0  0
   58.3710   32.4830   45.4550 C   0  0  0  0  0  0  0  0  0  0  0  0
   57.7710   31.2030   45.2780 C   0  0  0  0  0  0  0  0  0  0  0  0
   56.6490   30.9910   44.4380 C   0  0  0  0  0  0  0  0  0  0  0  0
   55.0650   28.9570   42.5990 H   0  0  0  0  0  0  0  0  0  0  0  0
   56.2425   27.6192   44.7919 H   0  0  0  0  0  0  0  0  0  0  0  0
   58.2085   27.9336   46.2768 H   0  0  0  0  0  0  0  0  0  0  0  0
   60.3426   29.8613   49.5250 H   0  0  0  0  0  0  0  0  0  0  0  0
   58.7490   29.1344   49.2917 H   0  0  0  0  0  0  0  0  0  0  0  0
   61.4062   27.8214   49.7808 H   0  0  0  0  0  0  0  0  0  0  0  0
   59.7901   27.1888   50.1277 H   0  0  0  0  0  0  0  0  0  0  0  0
   61.3761   26.3196   48.0073 H   0  0  0  0  0  0  0  0  0  0  0  0
   59.6097   26.1964   47.9872 H   0  0  0  0  0  0  0  0  0  0  0  0
   61.4026   28.0555   46.4896 H   0  0  0  0  0  0  0  0  0  0  0  0
   59.7222   27.6358   46.1331 H   0  0  0  0  0  0  0  0  0  0  0  0
   61.0058   33.8863   47.1750 H   0  0  0  0  0  0  0  0  0  0  0  0
   60.1599   35.9321   46.0316 H   0  0  0  0  0  0  0  0  0  0  0  0
   58.1804   35.7930   44.5279 H   0  0  0  0  0  0  0  0  0  0  0  0
   57.0381   33.6133   44.1480 H   0  0  0  0  0  0  0  0  0  0  0  0
   56.1992   31.8444   43.9094 H   0  0  0  0  0  0  0  0  0  0  0  0
  1  2  1  0
  2  3  2  0
  3  4  1  0
  4  5  2  0
  5  6  1  0
  6  7  1  0
  7  8  1  0
  8  9  1  0
  9 10  1  0
 10 11  1  0
  6 12  2  0
 12 13  1  0
 13 14  2  0
 14 15  1  0
 15 16  2  0
 16 17  1  0
 17 18  2  0
 18 19  1  0
 19 20  2  0
 20  2  1  0
 19  5  1  0
 11  7  1  0
 18 13  1  0
  1 21  1  0
  3 22  1  0
  4 23  1  0
  8 24  1  0
  8 25  1  0
  9 26  1  0
  9 27  1  0
 10 28  1  0
 10 29  1  0
 11 30  1  0
 11 31  1  0
 14 32  1  0
 15 33  1  0
 16 34  1  0
 17 35  1  0
 20 36  1  0
M  END
>  <UniqueID>  (76) 
71

>  <SMILES>  (76) 
Oc1ccc2c(N3CCCC3)nc3ccccc3c2c1

>  <Energy>  (76) 
56.70717499957929

>  <Genealogy>  (76) 
Oc1ccc2c(N3CCCC3)nc3ccccc3c2c1 (3D coordinates assigned)
Oc1ccc2c(N3CCCC3)nc3ccccc3c2c1 (nonaromatic ring conformer: 56.70717499957929 kcal/mol)

>  <smiles>  (76) 
Oc1ccc2c(N3CCCC3)nc3ccccc3c2c1

>  <score_type>  (76) 
oracle

>  <origin>  (76) 
adg

>  <m_score__min__energy>  (76) 
-7.1500000000000004

>  <m_primary>  (76) 
energy

$$$$
76:0
     RDKit          3D

 42 44  0  0  0  0  0  0  0  0999 V2000
   55.6620   28.1480   44.9060 H   0  0  0  0  0  0  0  0  0  0  0  0
   56.3200   27.7690   45.6230 N   0  0  0  0  0  0  0  0  0  0  0  0
   57.4640   28.5120   46.0380 C   0  0  0  0  0  0  0  0  0  0  0  0
   57.3720   29.7640   46.1410 O   0  0  0  0  0  0  0  0  0  0  0  0
   58.7290   27.8140   46.3790 C   0  0  0  0  0  0  0  0  0  0  0  0
   59.0560   26.6240   45.7000 C   0  0  0  0  0  0  0  0  0  0  0  0
   58.4112   26.2689   44.8826 H   0  0  0  0  0  0  0  0  0  0  0  0
   60.1910   25.8900   46.0540 C   0  0  0  0  0  0  0  0  0  0  0  0
   60.4357   24.9635   45.5139 H   0  0  0  0  0  0  0  0  0  0  0  0
   61.0140   26.3290   47.0900 C   0  0  0  0  0  0  0  0  0  0  0  0
   61.8973   25.7399   47.3777 H   0  0  0  0  0  0  0  0  0  0  0  0
   60.7180   27.5150   47.7620 C   0  0  0  0  0  0  0  0  0  0  0  0
   61.3688   27.8550   48.5811 H   0  0  0  0  0  0  0  0  0  0  0  0
   59.5980   28.2770   47.4020 C   0  0  0  0  0  0  0  0  0  0  0  0
   59.3870   29.5350   48.0610 N   0  0  0  0  0  0  0  0  0  0  0  0
   58.7270   29.5570   48.8710 H   0  0  0  0  0  0  0  0  0  0  0  0
   60.1260   30.7250   47.7340 C   0  0  0  0  0  0  0  0  0  0  0  0
   59.6740   31.6140   46.7450 C   0  0  0  0  0  0  0  0  0  0  0  0
   58.7587   31.3841   46.1800 H   0  0  0  0  0  0  0  0  0  0  0  0
   60.3800   32.7880   46.4750 C   0  0  0  0  0  0  0  0  0  0  0  0
   59.7860   33.9250   45.2230 S   0  0  0  0  0  0  0  0  0  0  0  0
   58.3060   32.9650   44.9300 C   0  0  0  0  0  0  0  0  0  0  0  0
   58.1750   32.0830   43.9230 N   0  0  0  0  0  0  0  0  0  0  0  0
   56.9170   31.6360   44.1240 C   0  0  0  0  0  0  0  0  0  0  0  0
   56.2690   30.6240   43.2540 C   0  0  0  0  0  0  0  0  0  0  0  0
   55.2980   29.8680   43.6760 N   0  0  0  0  0  0  0  0  0  0  0  0
   55.0020   29.6930   45.0080 O   0  0  0  0  0  0  0  0  0  0  0  0
   55.6310   30.0480   45.7180 H   0  0  0  0  0  0  0  0  0  0  0  0
   56.7250   30.4630   41.9090 N   0  0  0  0  0  0  0  0  0  0  0  0
   57.5120   31.0350   41.5300 H   0  0  0  0  0  0  0  0  0  0  0  0
   56.2820   29.7530   41.2840 H   0  0  0  0  0  0  0  0  0  0  0  0
   56.3320   32.2180   45.1910 N   0  0  0  0  0  0  0  0  0  0  0  0
   57.2250   33.0340   45.6610 O   0  0  0  0  0  0  0  0  0  0  0  0
   61.5550   33.0750   47.1780 C   0  0  0  0  0  0  0  0  0  0  0  0
   62.0953   34.0125   46.9802 H   0  0  0  0  0  0  0  0  0  0  0  0
   62.0490   32.1730   48.1350 C   0  0  0  0  0  0  0  0  0  0  0  0
   63.2940   32.5020   48.9220 C   0  0  0  0  0  0  0  0  0  0  0  0
   62.9990   33.4850   49.8470 F   0  0  0  0  0  0  0  0  0  0  0  0
   64.2970   32.9570   48.0840 F   0  0  0  0  0  0  0  0  0  0  0  0
   63.7610   31.3820   49.5870 F   0  0  0  0  0  0  0  0  0  0  0  0
   61.3180   31.0060   48.4170 C   0  0  0  0  0  0  0  0  0  0  0  0
   61.6850   30.3056   49.1817 H   0  0  0  0  0  0  0  0  0  0  0  0
  1  2  1  0
  2  3  1  0
  3  4  2  0
  3  5  1  0
  5  6  2  0
  6  7  1  0
  6  8  1  0
  8  9  1  0
  8 10  2  0
 10 11  1  0
 10 12  1  0
 12 13  1  0
 12 14  2  0
 14 15  1  0
 15 16  1  0
 15 17  1  0
 17 18  2  0
 18 19  1  0
 18 20  1  0
 20 21  1  0
 21 22  1  0
 22 23  2  0
 23 24  1  0
 24 25  1  0
 25 26  2  0
 26 27  1  0
 27 28  1  0
 25 29  1  0
 29 30  1  0
 29 31  1  0
 24 32  2  0
 32 33  1  0
 20 34  2  0
 34 35  1  0
 34 36  1  0
 36 37  1  0
 37 38  1  0
 37 39  1  0
 37 40  1  0
 36 41  2  0
 41 42  1  0
 14  5  1  0
 41 17  1  0
 33 22  1  0
M  CHG  1   2  -1
M  END
>  <UniqueID>  (77) 
72

>  <SMILES>  (77) 
[NH-]C(=O)c1ccccc1Nc1cc(Sc2nc(/C(N)=N\O)no2)cc(C(F)(F)F)c1

>  <Energy>  (77) 
80.54609751492102

>  <Genealogy>  (77) 
[NH-]C(=O)c1ccccc1Nc1cc(Sc2nc(C(N)=NO)no2)cc(C(F)(F)F)c1 (protonated)
[NH-]C(=O)c1ccccc1Nc1cc(Sc2nc(/C(N)=N\O)no2)cc(C(F)(F)F)c1 (cis-trans isomerization)
[NH-]C(=O)c1ccccc1Nc1cc(Sc2nc(/C(N)=N\O)no2)cc(C(F)(F)F)c1 (3D coordinates assigned)
[NH-]C(=O)c1ccccc1Nc1cc(Sc2nc(/C(N)=N\O)no2)cc(C(F)(F)F)c1 (optimized conformer: 80.54609751492102 kcal/mol)

>  <smiles>  (77) 
NC(=O)c1ccccc1Nc1cc(Sc2nc(C(N)=NO)no2)cc(C(F)(F)F)c1

>  <score_type>  (77) 
oracle

>  <origin>  (77) 
adg

>  <m_score__min__energy>  (77) 
-12.279999999999999

>  <m_primary>  (77) 
energy

$$$$
77:0
     RDKit          3D

 46 47  0  0  0  0  0  0  0  0999 V2000
   60.8280   29.2850   45.8020 C   0  0  0  0  0  0  0  0  0  0  0  0
   60.8980   29.3580   47.2230 O   0  0  0  0  0  0  0  0  0  0  0  0
   60.2020   30.2840   48.0140 C   0  0  0  0  0  0  0  0  0  0  0  0
   59.2880   29.8500   48.9930 C   0  0  0  0  0  0  0  0  0  0  0  0
   58.5730   30.7670   49.7570 C   0  0  0  0  0  0  0  0  0  0  0  0
   58.7370   32.1310   49.5460 C   0  0  0  0  0  0  0  0  0  0  0  0
   59.6430   32.5990   48.5820 C   0  0  0  0  0  0  0  0  0  0  0  0
   59.7630   34.0920   48.3510 C   0  0  0  0  0  0  0  0  0  0  0  0
   60.1630   34.4370   46.9760 N   0  0  0  0  0  0  0  0  0  0  0  0
   59.0510   34.8840   46.1170 C   0  0  0  0  0  0  0  0  0  0  0  0
   58.1300   33.7490   45.7430 C   0  0  0  0  0  0  0  0  0  0  0  0
   56.8930   33.9710   45.6410 O   0  0  0  0  0  0  0  0  0  0  0  0
   58.6640   32.4380   45.4840 N   0  0  0  0  0  0  0  0  0  0  0  0
   57.8850   31.3200   45.0190 C   0  0  0  0  0  0  0  0  0  0  0  0
   57.0770   31.4760   43.8820 C   0  0  0  0  0  0  0  0  0  0  0  0
   56.2850   30.4200   43.4260 C   0  0  0  0  0  0  0  0  0  0  0  0
   56.3150   29.1860   44.0800 C   0  0  0  0  0  0  0  0  0  0  0  0
   57.1570   28.9970   45.1840 C   0  0  0  0  0  0  0  0  0  0  0  0
   57.2060   27.4390   46.0020 S   0  0  0  0  0  0  0  0  0  0  0  0
   55.6240   26.7420   46.0110 N   0  0  0  0  0  0  0  0  0  0  0  0
   58.1540   26.5160   45.2890 O   0  0  0  0  0  0  0  0  0  0  0  0
   57.6840   27.6170   47.4160 O   0  0  0  0  0  0  0  0  0  0  0  0
   57.9430   30.0610   45.6490 C   0  0  0  0  0  0  0  0  0  0  0  0
   60.4090   31.6790   47.8280 C   0  0  0  0  0  0  0  0  0  0  0  0
   61.3430   32.2080   46.9160 O   0  0  0  0  0  0  0  0  0  0  0  0
   62.7500   32.3210   47.1050 C   0  0  0  0  0  0  0  0  0  0  0  0
   60.0940   28.5195   45.5099 H   0  0  0  0  0  0  0  0  0  0  0  0
   60.5197   30.2612   45.3994 H   0  0  0  0  0  0  0  0  0  0  0  0
   61.8162   29.0179   45.3994 H   0  0  0  0  0  0  0  0  0  0  0  0
   59.1373   28.7726   49.1559 H   0  0  0  0  0  0  0  0  0  0  0  0
   57.8760   30.4115   50.5302 H   0  0  0  0  0  0  0  0  0  0  0  0
   58.1520   32.8492   50.1393 H   0  0  0  0  0  0  0  0  0  0  0  0
   58.7880   34.5572   48.5584 H   0  0  0  0  0  0  0  0  0  0  0  0
   60.5502   34.4641   49.0231 H   0  0  0  0  0  0  0  0  0  0  0  0
   60.7020   33.6560   46.5360 H   0  0  0  0  0  0  0  0  0  0  0  0
   58.4715   35.6479   46.6561 H   0  0  0  0  0  0  0  0  0  0  0  0
   59.4817   35.2898   45.1898 H   0  0  0  0  0  0  0  0  0  0  0  0
   59.7040   32.3320   45.4880 H   0  0  0  0  0  0  0  0  0  0  0  0
   57.0675   32.4367   43.3463 H   0  0  0  0  0  0  0  0  0  0  0  0
   55.6357   30.5604   42.5493 H   0  0  0  0  0  0  0  0  0  0  0  0
   55.6771   28.3619   43.7280 H   0  0  0  0  0  0  0  0  0  0  0  0
   55.1330   27.0910   45.1580 H   0  0  0  0  0  0  0  0  0  0  0  0
   58.6094   29.9118   46.5114 H   0  0  0  0  0  0  0  0  0  0  0  0
   62.9751   32.3391   48.1816 H   0  0  0  0  0  0  0  0  0  0  0  0
   63.2528   31.4603   46.6397 H   0  0  0  0  0  0  0  0  0  0  0  0
   63.1090   33.2509   46.6397 H   0  0  0  0  0  0  0  0  0  0  0  0
  1  2  1  0
  2  3  1  0
  3  4  2  0
  4  5  1  0
  5  6  2  0
  6  7  1  0
  7  8  1  0
  8  9  1  0
  9 10  1  0
 10 11  1  0
 11 12  2  0
 11 13  1  0
 13 14  1  0
 14 15  2  0
 15 16  1  0
 16 17  2  0
 17 18  1  0
 18 19  1  0
 19 20  1  0
 19 21  2  0
 19 22  2  0
 18 23  2  0
  7 24  2  0
 24 25  1  0
 25 26  1  0
 24  3  1  0
 23 14  1  0
  1 27  1  0
  1 28  1  0
  1 29  1  0
  4 30  1  0
  5 31  1  0
  6 32  1  0
  8 33  1  0
  8 34  1  0
  9 35  1  0
 10 36  1  0
 10 37  1  0
 13 38  1  0
 15 39  1  0
 16 40  1  0
 17 41  1  0
 20 42  1  0
 23 43  1  0
 26 44  1  0
 26 45  1  0
 26 46  1  0
M  CHG  1  20  -1
M  END
>  <UniqueID>  (78) 
73

>  <SMILES>  (78) 
COc1cccc(CNCC(=O)Nc2cccc(S([NH-])(=O)=O)c2)c1OC

>  <Energy>  (78) 
49.52653826936634

>  <Genealogy>  (78) 
COc1cccc(CNCC(=O)Nc2cccc(S([NH-])(=O)=O)c2)c1OC (protonated)
COc1cccc(CNCC(=O)Nc2cccc(S([NH-])(=O)=O)c2)c1OC (3D coordinates assigned)
COc1cccc(CNCC(=O)Nc2cccc(S([NH-])(=O)=O)c2)c1OC (optimized conformer: 49.52653826936634 kcal/mol)

>  <smiles>  (78) 
COc1cccc(CNCC(=O)Nc2cccc(S(N)(=O)=O)c2)c1OC

>  <score_type>  (78) 
oracle

>  <origin>  (78) 
adg

>  <m_score__min__energy>  (78) 
-10.27

>  <m_primary>  (78) 
energy

$$$$
78:0
     RDKit          3D

 24 25  0  0  0  0  0  0  0  0999 V2000
   59.2700   35.3810   44.8720 C   0  0  0  0  0  0  0  0  0  0  0  0
   58.9870   34.1350   45.6570 C   0  0  0  0  0  0  0  0  0  0  0  0
   59.2540   34.0920   47.0330 C   0  0  0  0  0  0  0  0  0  0  0  0
   59.0340   32.9150   47.7630 C   0  0  0  0  0  0  0  0  0  0  0  0
   59.2750   32.8900   49.2430 C   0  0  0  0  0  0  0  0  0  0  0  0
   58.5250   31.7820   47.1110 C   0  0  0  0  0  0  0  0  0  0  0  0
   58.2720   31.8060   45.7300 C   0  0  0  0  0  0  0  0  0  0  0  0
   57.7550   30.6070   45.0390 C   0  0  0  0  0  0  0  0  0  0  0  0
   56.4570   30.4100   44.7210 N   0  0  0  0  0  0  0  0  0  0  0  0
   56.4130   29.2330   44.1210 N   0  0  0  0  0  0  0  0  0  0  0  0
   57.6670   28.7550   44.0930 C   0  0  0  0  0  0  0  0  0  0  0  0
   58.0950   27.3180   43.4420 S   0  0  0  0  0  0  0  0  0  0  0  0
   58.5020   29.5920   44.6550 O   0  0  0  0  0  0  0  0  0  0  0  0
   58.5140   32.9850   45.0070 C   0  0  0  0  0  0  0  0  0  0  0  0
   59.4594   36.2151   45.5637 H   0  0  0  0  0  0  0  0  0  0  0  0
   60.1549   35.2220   44.2382 H   0  0  0  0  0  0  0  0  0  0  0  0
   58.4032   35.6199   44.2382 H   0  0  0  0  0  0  0  0  0  0  0  0
   59.6386   34.9875   47.5431 H   0  0  0  0  0  0  0  0  0  0  0  0
   58.3159   32.9895   49.7724 H   0  0  0  0  0  0  0  0  0  0  0  0
   59.7503   31.9377   49.5211 H   0  0  0  0  0  0  0  0  0  0  0  0
   59.9356   33.7244   49.5211 H   0  0  0  0  0  0  0  0  0  0  0  0
   58.3223   30.8668   47.6866 H   0  0  0  0  0  0  0  0  0  0  0  0
   55.5490   28.7810   43.7480 H   0  0  0  0  0  0  0  0  0  0  0  0
   58.3313   33.0073   43.9225 H   0  0  0  0  0  0  0  0  0  0  0  0
  1  2  1  0
  2  3  2  0
  3  4  1  0
  4  5  1  0
  4  6  2  0
  6  7  1  0
  7  8  1  0
  8  9  2  0
  9 10  1  0
 10 11  1  0
 11 12  2  0
 11 13  1  0
  7 14  2  0
 14  2  1  0
 13  8  1  0
  1 15  1  0
  1 16  1  0
  1 17  1  0
  3 18  1  0
  5 19  1  0
  5 20  1  0
  5 21  1  0
  6 22  1  0
 10 23  1  0
 14 24  1  0
M  END
>  <UniqueID>  (79) 
74

>  <SMILES>  (79) 
Cc1cc(C)cc(-c2n[nH]c(=S)o2)c1

>  <Energy>  (79) 
58.70662821264722

>  <Genealogy>  (79) 
Cc1cc(C)cc(-c2n[nH]c(=S)o2)c1 (3D coordinates assigned)
Cc1cc(C)cc(-c2n[nH]c(=S)o2)c1 (optimized conformer: 58.70662821264722 kcal/mol)

>  <smiles>  (79) 
Cc1cc(C)cc(-c2n[nH]c(=S)o2)c1

>  <score_type>  (79) 
oracle

>  <origin>  (79) 
adg

>  <m_score__min__energy>  (79) 
-5.9800000000000004

>  <m_primary>  (79) 
energy

$$$$
79:0
     RDKit          3D

 32 35  0  0  0  0  0  0  0  0999 V2000
   52.9165   23.8469   44.9829 H   0  0  0  0  0  0  0  0  0  0  0  0
   53.9710   24.1390   45.0960 C   0  0  0  0  0  0  0  0  0  0  0  0
   54.3730   25.0840   45.9870 N   0  0  0  0  0  0  0  0  0  0  0  0
   55.7080   25.2750   45.9490 C   0  0  0  0  0  0  0  0  0  0  0  0
   56.3020   26.1370   46.7220 N   0  0  0  0  0  0  0  0  0  0  0  0
   57.7130   26.2770   46.9670 C   0  0  0  0  0  0  0  0  0  0  0  0
   58.4360   25.2630   47.1670 O   0  0  0  0  0  0  0  0  0  0  0  0
   58.3250   27.6280   46.9830 C   0  0  0  0  0  0  0  0  0  0  0  0
   59.4890   27.8770   47.7210 C   0  0  0  0  0  0  0  0  0  0  0  0
   59.9575   27.0652   48.2968 H   0  0  0  0  0  0  0  0  0  0  0  0
   60.0540   29.1470   47.7280 C   0  0  0  0  0  0  0  0  0  0  0  0
   60.9684   29.3406   48.3081 H   0  0  0  0  0  0  0  0  0  0  0  0
   59.4580   30.1760   46.9970 C   0  0  0  0  0  0  0  0  0  0  0  0
   60.0250   31.4090   47.0160 N   0  0  0  0  0  0  0  0  0  0  0  0
   59.4900   32.4450   46.3260 C   0  0  0  0  0  0  0  0  0  0  0  0
   60.1020   33.7030   46.3700 C   0  0  0  0  0  0  0  0  0  0  0  0
   61.0161   33.8492   46.9642 H   0  0  0  0  0  0  0  0  0  0  0  0
   59.5520   34.7740   45.6590 C   0  0  0  0  0  0  0  0  0  0  0  0
   60.0329   35.7626   45.6952 H   0  0  0  0  0  0  0  0  0  0  0  0
   58.3910   34.5890   44.9020 C   0  0  0  0  0  0  0  0  0  0  0  0
   57.9610   35.4328   44.3425 H   0  0  0  0  0  0  0  0  0  0  0  0
   57.7750   33.3350   44.8540 C   0  0  0  0  0  0  0  0  0  0  0  0
   56.8614   33.1950   44.2576 H   0  0  0  0  0  0  0  0  0  0  0  0
   58.3210   32.2510   45.5670 C   0  0  0  0  0  0  0  0  0  0  0  0
   57.7390   30.9700   45.5520 C   0  0  0  0  0  0  0  0  0  0  0  0
   56.6890   30.7740   44.8770 O   0  0  0  0  0  0  0  0  0  0  0  0
   58.3120   29.9430   46.2660 N   0  0  0  0  0  0  0  0  0  0  0  0
   57.7510   28.6890   46.2570 C   0  0  0  0  0  0  0  0  0  0  0  0
   56.8367   28.5106   45.6719 H   0  0  0  0  0  0  0  0  0  0  0  0
   56.4410   24.2740   44.8030 S   0  0  0  0  0  0  0  0  0  0  0  0
   54.9870   23.5680   44.3380 C   0  0  0  0  0  0  0  0  0  0  0  0
   54.8619   22.7911   43.5693 H   0  0  0  0  0  0  0  0  0  0  0  0
  1  2  1  0
  2  3  1  0
  3  4  1  0
  4  5  2  0
  5  6  1  0
  6  7  2  0
  6  8  1  0
  8  9  1  0
  9 10  1  0
  9 11  2  0
 11 12  1  0
 11 13  1  0
 13 14  2  0
 14 15  1  0
 15 16  2  0
 16 17  1  0
 16 18  1  0
 18 19  1  0
 18 20  2  0
 20 21  1  0
 20 22  1  0
 22 23  1  0
 22 24  2  0
 24 25  1  0
 25 26  2  0
 25 27  1  0
 27 28  1  0
 28 29  1  0
  4 30  1  0
 30 31  1  0
 31 32  1  0
 31  2  2  0
 28  8  2  0
 27 13  1  0
 24 15  1  0
M  CHG  1   3  -1
M  END
>  <UniqueID>  (80) 
75

>  <SMILES>  (80) 
O=C(/N=c1/[n-]ccs1)c1ccc2nc3ccccc3c(=O)n2c1

>  <Energy>  (80) 
81.01358052916282

>  <Genealogy>  (80) 
O=C(N=c1[n-]ccs1)c1ccc2nc3ccccc3c(=O)n2c1 (protonated)
O=C(/N=c1/[n-]ccs1)c1ccc2nc3ccccc3c(=O)n2c1 (cis-trans isomerization)
O=C(/N=c1/[n-]ccs1)c1ccc2nc3ccccc3c(=O)n2c1 (3D coordinates assigned)
O=C(/N=c1/[n-]ccs1)c1ccc2nc3ccccc3c(=O)n2c1 (optimized conformer: 81.01358052916282 kcal/mol)

>  <smiles>  (80) 
O=C(N=c1[nH]ccs1)c1ccc2nc3ccccc3c(=O)n2c1

>  <score_type>  (80) 
oracle

>  <origin>  (80) 
adg

>  <m_score__min__energy>  (80) 
-9.6799999999999997

>  <m_primary>  (80) 
energy

$$$$
80:0
     RDKit          3D

 47 50  0  0  0  0  0  0  0  0999 V2000
   52.5180   22.6290   46.4020 C   0  0  0  0  0  0  0  0  0  0  0  0
   53.5300   22.3620   45.4380 O   0  0  0  0  0  0  0  0  0  0  0  0
   54.8750   22.7360   45.5800 C   0  0  0  0  0  0  0  0  0  0  0  0
   55.8330   22.0700   44.8100 C   0  0  0  0  0  0  0  0  0  0  0  0
   57.1840   22.4110   44.9110 C   0  0  0  0  0  0  0  0  0  0  0  0
   57.5890   23.4260   45.7790 C   0  0  0  0  0  0  0  0  0  0  0  0
   56.6450   24.0960   46.5700 C   0  0  0  0  0  0  0  0  0  0  0  0
   57.0770   25.2120   47.4810 C   0  0  0  0  0  0  0  0  0  0  0  0
   57.2340   26.4510   46.7210 N   0  0  0  0  0  0  0  0  0  0  0  0
   56.2740   27.0970   46.0230 C   0  0  0  0  0  0  0  0  0  0  0  0
   54.9660   26.6490   45.8920 O   0  0  0  0  0  0  0  0  0  0  0  0
   56.7850   28.2540   45.4810 C   0  0  0  0  0  0  0  0  0  0  0  0
   56.1750   29.2290   44.6980 C   0  0  0  0  0  0  0  0  0  0  0  0
   56.9480   30.3330   44.3060 C   0  0  0  0  0  0  0  0  0  0  0  0
   58.2950   30.4430   44.7100 C   0  0  0  0  0  0  0  0  0  0  0  0
   58.8990   29.4340   45.4980 C   0  0  0  0  0  0  0  0  0  0  0  0
   60.2440   29.5600   45.9780 N   0  0  0  0  0  0  0  0  0  0  0  0
   60.7000   30.4640   46.9930 C   0  0  0  0  0  0  0  0  0  0  0  0
   61.4120   30.0120   47.9280 O   0  0  0  0  0  0  0  0  0  0  0  0
   60.4070   31.9140   46.9390 C   0  0  0  0  0  0  0  0  0  0  0  0
   61.4410   32.8540   46.7720 C   0  0  0  0  0  0  0  0  0  0  0  0
   61.1560   34.2230   46.7470 C   0  0  0  0  0  0  0  0  0  0  0  0
   59.8400   34.6670   46.8920 C   0  0  0  0  0  0  0  0  0  0  0  0
   59.5670   35.9940   46.8710 F   0  0  0  0  0  0  0  0  0  0  0  0
   58.8090   33.7420   47.0620 C   0  0  0  0  0  0  0  0  0  0  0  0
   59.0890   32.3730   47.0910 C   0  0  0  0  0  0  0  0  0  0  0  0
   58.1030   28.3420   45.8700 C   0  0  0  0  0  0  0  0  0  0  0  0
   58.3560   27.2070   46.6350 C   0  0  0  0  0  0  0  0  0  0  0  0
   59.5600   26.8490   47.2390 O   0  0  0  0  0  0  0  0  0  0  0  0
   55.2860   23.7540   46.4610 C   0  0  0  0  0  0  0  0  0  0  0  0
   52.9366   22.5186   47.4132 H   0  0  0  0  0  0  0  0  0  0  0  0
   52.1467   23.6558   46.2690 H   0  0  0  0  0  0  0  0  0  0  0  0
   51.6884   21.9190   46.2690 H   0  0  0  0  0  0  0  0  0  0  0  0
   55.5210   21.2722   44.1200 H   0  0  0  0  0  0  0  0  0  0  0  0
   57.9309   21.8778   44.3045 H   0  0  0  0  0  0  0  0  0  0  0  0
   58.6521   23.7012   45.8428 H   0  0  0  0  0  0  0  0  0  0  0  0
   56.3165   25.3586   48.2621 H   0  0  0  0  0  0  0  0  0  0  0  0
   58.0408   24.9479   47.9406 H   0  0  0  0  0  0  0  0  0  0  0  0
   55.1212   29.1376   44.3960 H   0  0  0  0  0  0  0  0  0  0  0  0
   56.5001   31.1182   43.6792 H   0  0  0  0  0  0  0  0  0  0  0  0
   58.8827   31.3228   44.4093 H   0  0  0  0  0  0  0  0  0  0  0  0
   62.4798   32.5098   46.6604 H   0  0  0  0  0  0  0  0  0  0  0  0
   61.9696   34.9510   46.6129 H   0  0  0  0  0  0  0  0  0  0  0  0
   57.7720   34.0917   47.1736 H   0  0  0  0  0  0  0  0  0  0  0  0
   58.2717   31.6508   47.2338 H   0  0  0  0  0  0  0  0  0  0  0  0
   60.3530   27.4700   47.2890 H   0  0  0  0  0  0  0  0  0  0  0  0
   54.5386   24.2855   47.0683 H   0  0  0  0  0  0  0  0  0  0  0  0
  1  2  1  0
  2  3  1  0
  3  4  2  0
  4  5  1  0
  5  6  2  0
  6  7  1  0
  7  8  1  0
  8  9  1  0
  9 10  1  0
 10 11  1  0
 10 12  2  0
 12 13  1  0
 13 14  2  0
 14 15  1  0
 15 16  2  0
 16 17  1  0
 17 18  1  0
 18 19  2  0
 18 20  1  0
 20 21  2  0
 21 22  1  0
 22 23  2  0
 23 24  1  0
 23 25  1  0
 25 26  2  0
 16 27  1  0
 27 28  2  0
 28 29  1  0
  7 30  2  0
 30  3  1  0
 28  9  1  0
 27 12  1  0
 26 20  1  0
  1 31  1  0
  1 32  1  0
  1 33  1  0
  4 34  1  0
  5 35  1  0
  6 36  1  0
  8 37  1  0
  8 38  1  0
 13 39  1  0
 14 40  1  0
 15 41  1  0
 21 42  1  0
 22 43  1  0
 25 44  1  0
 26 45  1  0
 29 46  1  0
 30 47  1  0
M  CHG  2  11  -1  17  -1
M  END
>  <UniqueID>  (81) 
76

>  <SMILES>  (81) 
COc1cccc(Cn2c([O-])c3cccc([N-]C(=O)c4ccc(F)cc4)c3c2O)c1

>  <Energy>  (81) 
93.85554068323633

>  <Genealogy>  (81) 
COc1cccc(Cn2c([O-])c3cccc([N-]C(=O)c4ccc(F)cc4)c3c2O)c1 (protonated)
COc1cccc(Cn2c([O-])c3cccc([N-]C(=O)c4ccc(F)cc4)c3c2O)c1 (3D coordinates assigned)
COc1cccc(Cn2c([O-])c3cccc([N-]C(=O)c4ccc(F)cc4)c3c2O)c1 (optimized conformer: 93.85554068323633 kcal/mol)

>  <smiles>  (81) 
COc1cccc(Cn2c(O)c3cccc(NC(=O)c4ccc(F)cc4)c3c2O)c1

>  <score_type>  (81) 
oracle

>  <origin>  (81) 
adg

>  <m_score__min__energy>  (81) 
-11.74

>  <m_primary>  (81) 
energy

$$$$
81:0
     RDKit          3D

 64 68  0  0  1  0  0  0  0  0999 V2000
   51.6190   21.9480   45.8030 C   0  0  0  0  0  0  0  0  0  0  0  0
   52.9910   22.3760   45.5790 N   0  0  0  0  0  0  0  0  0  0  0  0
   53.8410   22.0650   46.7120 C   0  0  0  0  0  0  0  0  0  0  0  0
   54.3720   23.3270   47.3590 C   0  0  0  0  0  0  0  0  0  0  0  0
   55.1390   24.1580   46.4850 N   0  0  0  0  0  0  0  0  0  0  0  0
   56.4600   23.7270   46.2190 C   0  0  0  0  0  0  0  0  0  0  0  0
   57.5290   24.3850   47.0450 C   0  0  0  0  0  0  0  0  0  0  0  0
   57.4420   25.8750   46.9980 C   0  0  0  0  0  0  0  0  0  0  0  0
   57.3650   26.2910   45.6160 N   0  0  0  0  0  0  0  0  0  0  0  0
   57.6500   27.6700   45.3510 C   0  0  0  0  0  0  0  0  0  0  0  0
   57.4670   28.2230   44.0850 C   0  0  0  0  0  0  0  0  0  0  0  0
   57.7340   29.5470   43.8110 C   0  0  0  0  0  0  0  0  0  0  0  0
   58.1960   30.3760   44.7990 C   0  0  0  0  0  0  0  0  0  0  0  0
   58.4970   31.7520   44.6130 N   0  0  0  0  0  0  0  0  0  0  0  0
   58.7920   32.5380   45.6020 C   0  0  0  0  0  0  0  0  0  0  0  0
   57.8430   33.3770   46.0090 N   0  0  0  0  0  0  0  0  0  0  0  0
   58.1390   34.1930   47.0270 C   0  0  0  0  0  0  0  0  0  0  0  0
   59.4010   34.1470   47.6250 C   0  0  0  0  0  0  0  0  0  0  0  0
   59.5860   35.0110   48.6400 F   0  0  0  0  0  0  0  0  0  0  0  0
   60.3840   33.2740   47.2000 C   0  0  0  0  0  0  0  0  0  0  0  0
   61.7080   33.1900   47.7860 C   0  0  0  0  0  0  0  0  0  0  0  0
   61.9730   32.8630   49.0890 C   0  0  0  0  0  0  0  0  0  0  0  0
   63.2650   32.7920   49.6170 C   0  0  0  0  0  0  0  0  0  0  0  0
   64.3580   33.0570   48.8250 C   0  0  0  0  0  0  0  0  0  0  0  0
   64.1170   33.3880   47.5160 C   0  0  0  0  0  0  0  0  0  0  0  0
   62.8180   33.4570   46.9880 C   0  0  0  0  0  0  0  0  0  0  0  0
   60.0290   32.4710   46.1630 N   0  0  0  0  0  0  0  0  0  0  0  0
   58.3880   29.8590   46.0620 C   0  0  0  0  0  0  0  0  0  0  0  0
   58.1160   28.5320   46.3190 C   0  0  0  0  0  0  0  0  0  0  0  0
   57.0330   25.4650   44.5020 C   0  0  0  0  0  0  0  0  0  0  0  0
   56.8010   24.0260   44.7690 C   0  0  0  0  0  0  0  0  0  0  0  0
   54.4190   24.2640   45.2310 C   0  0  0  0  0  0  0  0  0  0  0  0
   52.9870   23.7860   45.3250 C   0  0  0  0  0  0  0  0  0  0  0  0
   51.4256   21.8877   46.8842 H   0  0  0  0  0  0  0  0  0  0  0  0
   50.9294   22.6737   45.3471 H   0  0  0  0  0  0  0  0  0  0  0  0
   51.4644   20.9589   45.3471 H   0  0  0  0  0  0  0  0  0  0  0  0
   53.2580   21.4992   47.4536 H   0  0  0  0  0  0  0  0  0  0  0  0
   54.6946   21.4701   46.3550 H   0  0  0  0  0  0  0  0  0  0  0  0
   53.5161   23.9117   47.7273 H   0  0  0  0  0  0  0  0  0  0  0  0
   55.0494   23.0071   48.1645 H   0  0  0  0  0  0  0  0  0  0  0  0
   56.4576   22.6552   46.4663 H   0  0  0  0  0  0  0  0  0  0  0  0
   57.4218   24.0568   48.0894 H   0  0  0  0  0  0  0  0  0  0  0  0
   58.5046   24.0908   46.6306 H   0  0  0  0  0  0  0  0  0  0  0  0
   56.5433   26.2105   47.5362 H   0  0  0  0  0  0  0  0  0  0  0  0
   58.3295   26.3176   47.4739 H   0  0  0  0  0  0  0  0  0  0  0  0
   57.0957   27.5788   43.2743 H   0  0  0  0  0  0  0  0  0  0  0  0
   57.5756   29.9394   42.7957 H   0  0  0  0  0  0  0  0  0  0  0  0
   57.3848   34.9040   47.3953 H   0  0  0  0  0  0  0  0  0  0  0  0
   61.1249   32.6449   49.7547 H   0  0  0  0  0  0  0  0  0  0  0  0
   63.4089   32.5222   50.6736 H   0  0  0  0  0  0  0  0  0  0  0  0
   65.3816   33.0056   49.2244 H   0  0  0  0  0  0  0  0  0  0  0  0
   64.9705   33.6068   46.8575 H   0  0  0  0  0  0  0  0  0  0  0  0
   62.6750   33.7253   45.9308 H   0  0  0  0  0  0  0  0  0  0  0  0
   60.6590   31.7690   45.7400 H   0  0  0  0  0  0  0  0  0  0  0  0
   58.7599   30.5079   46.8686 H   0  0  0  0  0  0  0  0  0  0  0  0
   58.2774   28.1467   47.3366 H   0  0  0  0  0  0  0  0  0  0  0  0
   56.1145   25.8700   44.0523 H   0  0  0  0  0  0  0  0  0  0  0  0
   57.9219   25.4927   43.8547 H   0  0  0  0  0  0  0  0  0  0  0  0
   55.9675   23.6845   44.1376 H   0  0  0  0  0  0  0  0  0  0  0  0
   57.7393   23.4989   44.5415 H   0  0  0  0  0  0  0  0  0  0  0  0
   54.4160   25.3184   44.9174 H   0  0  0  0  0  0  0  0  0  0  0  0
   54.9324   23.6185   44.5032 H   0  0  0  0  0  0  0  0  0  0  0  0
   52.4750   24.3089   46.1462 H   0  0  0  0  0  0  0  0  0  0  0  0
   52.4582   23.9966   44.3837 H   0  0  0  0  0  0  0  0  0  0  0  0
  1  2  1  0
  2  3  1  0
  3  4  1  0
  4  5  1  0
  5  6  1  0
  6  7  1  0
  7  8  1  0
  8  9  1  0
  9 10  1  0
 10 11  2  0
 11 12  1  0
 12 13  2  0
 13 14  1  0
 14 15  2  0
 15 16  1  0
 16 17  2  0
 17 18  1  0
 18 19  1  0
 18 20  2  0
 20 21  1  0
 21 22  2  0
 22 23  1  0
 23 24  2  0
 24 25  1  0
 25 26  2  0
 20 27  1  0
 13 28  1  0
 28 29  2  0
  9 30  1  0
 30 31  1  0
  5 32  1  0
 32 33  1  0
 33  2  1  0
 31  6  1  0
 29 10  1  0
 27 15  1  0
 26 21  1  0
  1 34  1  0
  1 35  1  0
  1 36  1  0
  3 37  1  0
  3 38  1  0
  4 39  1  0
  4 40  1  0
  6 41  1  0
  7 42  1  0
  7 43  1  0
  8 44  1  0
  8 45  1  0
 11 46  1  0
 12 47  1  0
 17 48  1  0
 22 49  1  0
 23 50  1  0
 24 51  1  0
 25 52  1  0
 26 53  1  0
 27 54  1  0
 28 55  1  0
 29 56  1  0
 30 57  1  0
 30 58  1  0
 31 59  1  0
 31 60  1  0
 32 61  1  0
 32 62  1  0
 33 63  1  0
 33 64  1  0
M  END
>  <smiles>  (82) 
CN1CCN(C2CCN(c3ccc(N=c4ncc(F)c(-c5ccccc5)[nH]4)cc3)CC2)CC1

>  <score_type>  (82) 
oracle

>  <origin>  (82) 
adg

>  <m_score__min__energy>  (82) 
-9.3200000000000003

>  <m_primary>  (82) 
energy

$$$$
82:0
     RDKit          3D

 45 46  0  0  0  0  0  0  0  0999 V2000
   64.2720   33.1550   48.5080 C   0  0  0  0  0  0  0  0  0  0  0  0
   63.2550   32.7500   47.4290 C   0  0  0  0  0  0  0  0  0  0  0  0
   63.1410   33.8780   46.3890 C   0  0  0  0  0  0  0  0  0  0  0  0
   61.8630   32.4250   48.0500 C   0  0  2  0  0  0  0  0  0  0  0  0
   61.3560   33.5200   48.9000 N   0  0  0  0  0  0  0  0  0  0  0  0
   59.6190   33.6440   49.0110 S   0  0  0  0  0  0  0  0  0  0  0  0
   59.0310   32.4150   49.6460 O   0  0  0  0  0  0  0  0  0  0  0  0
   59.2700   34.8340   49.8590 O   0  0  0  0  0  0  0  0  0  0  0  0
   58.9400   33.8870   47.4040 C   0  0  0  0  0  0  0  0  0  0  0  0
   59.7060   34.5260   46.4170 C   0  0  0  0  0  0  0  0  0  0  0  0
   59.1870   34.7080   45.1330 C   0  0  0  0  0  0  0  0  0  0  0  0
   57.9000   34.2560   44.8270 C   0  0  0  0  0  0  0  0  0  0  0  0
   57.1300   33.6230   45.8070 C   0  0  0  0  0  0  0  0  0  0  0  0
   57.6470   33.4400   47.0940 C   0  0  0  0  0  0  0  0  0  0  0  0
   61.8120   31.0820   48.7610 C   0  0  0  0  0  0  0  0  0  0  0  0
   62.7920   30.7060   49.4580 O   0  0  0  0  0  0  0  0  0  0  0  0
   60.6150   30.2930   48.7870 N   0  0  0  0  0  0  0  0  0  0  0  0
   59.7110   30.1000   47.6950 C   0  0  0  0  0  0  0  0  0  0  0  0
   58.6920   29.1350   47.7550 C   0  0  0  0  0  0  0  0  0  0  0  0
   57.7990   28.9880   46.6900 C   0  0  0  0  0  0  0  0  0  0  0  0
   57.8960   29.8220   45.5670 C   0  0  0  0  0  0  0  0  0  0  0  0
   56.7820   29.6280   44.2190 S   0  0  0  0  0  0  0  0  0  0  0  0
   55.1900   29.3330   44.8220 N   0  0  0  0  0  0  0  0  0  0  0  0
   56.7740   30.8740   43.3790 O   0  0  0  0  0  0  0  0  0  0  0  0
   57.2160   28.4730   43.3610 O   0  0  0  0  0  0  0  0  0  0  0  0
   58.8960   30.8030   45.5190 C   0  0  0  0  0  0  0  0  0  0  0  0
   59.7900   30.9490   46.5850 C   0  0  0  0  0  0  0  0  0  0  0  0
   63.8382   32.9823   49.5040 H   0  0  0  0  0  0  0  0  0  0  0  0
   65.1851   32.5519   48.3961 H   0  0  0  0  0  0  0  0  0  0  0  0
   64.5205   34.2207   48.3961 H   0  0  0  0  0  0  0  0  0  0  0  0
   63.6104   31.8335   46.9354 H   0  0  0  0  0  0  0  0  0  0  0  0
   63.0433   34.8443   46.9054 H   0  0  0  0  0  0  0  0  0  0  0  0
   64.0427   33.8884   45.7590 H   0  0  0  0  0  0  0  0  0  0  0  0
   62.2555   33.7078   45.7590 H   0  0  0  0  0  0  0  0  0  0  0  0
   61.1780   32.3359   47.1939 H   0  0  0  0  0  0  0  0  0  0  0  0
   60.7182   34.8847   46.6552 H   0  0  0  0  0  0  0  0  0  0  0  0
   59.7917   35.2076   44.3618 H   0  0  0  0  0  0  0  0  0  0  0  0
   57.4932   34.3985   43.8150 H   0  0  0  0  0  0  0  0  0  0  0  0
   56.1169   33.2685   45.5661 H   0  0  0  0  0  0  0  0  0  0  0  0
   57.0382   32.9445   47.8646 H   0  0  0  0  0  0  0  0  0  0  0  0
   58.5966   28.4930   48.6431 H   0  0  0  0  0  0  0  0  0  0  0  0
   57.0173   28.2153   46.7329 H   0  0  0  0  0  0  0  0  0  0  0  0
   55.2860   28.6690   45.6230 H   0  0  0  0  0  0  0  0  0  0  0  0
   58.9780   31.4600   44.6406 H   0  0  0  0  0  0  0  0  0  0  0  0
   60.5589   31.7349   46.5507 H   0  0  0  0  0  0  0  0  0  0  0  0
  1  2  1  0
  2  3  1  0
  2  4  1  0
  4  5  1  0
  5  6  1  0
  6  7  2  0
  6  8  2  0
  6  9  1  0
  9 10  2  0
 10 11  1  0
 11 12  2  0
 12 13  1  0
 13 14  2  0
  4 15  1  0
 15 16  2  0
 15 17  1  0
 17 18  1  0
 18 19  2  0
 19 20  1  0
 20 21  2  0
 21 22  1  0
 22 23  1  0
 22 24  2  0
 22 25  2  0
 21 26  1  0
 26 27  2  0
 14  9  1  0
 27 18  1  0
  1 28  1  0
  1 29  1  0
  1 30  1  0
  2 31  1  0
  3 32  1  0
  3 33  1  0
  3 34  1  0
  4 35  1  6
 10 36  1  0
 11 37  1  0
 12 38  1  0
 13 39  1  0
 14 40  1  0
 19 41  1  0
 20 42  1  0
 23 43  1  0
 26 44  1  0
 27 45  1  0
M  CHG  3   5  -1  17  -1  23  -1
M  END
>  <UniqueID>  (83) 
77

>  <SMILES>  (83) 
CC(C)[C@H]([N-]S(=O)(=O)c1ccccc1)C(=O)[N-]c1ccc(S([NH-])(=O)=O)cc1

>  <Energy>  (83) 
49.67353009461595

>  <Genealogy>  (83) 
CC(C)C([N-]S(=O)(=O)c1ccccc1)C(=O)[N-]c1ccc(S([NH-])(=O)=O)cc1 (protonated)
CC(C)[C@H]([N-]S(=O)(=O)c1ccccc1)C(=O)[N-]c1ccc(S([NH-])(=O)=O)cc1 (chirality)
CC(C)[C@H]([N-]S(=O)(=O)c1ccccc1)C(=O)[N-]c1ccc(S([NH-])(=O)=O)cc1 (3D coordinates assigned)
CC(C)[C@H]([N-]S(=O)(=O)c1ccccc1)C(=O)[N-]c1ccc(S([NH-])(=O)=O)cc1 (optimized conformer: 49.67353009461595 kcal/mol)

>  <smiles>  (83) 
CC(C)C(NS(=O)(=O)c1ccccc1)C(=O)Nc1ccc(S(N)(=O)=O)cc1

>  <score_type>  (83) 
oracle

>  <origin>  (83) 
adg

>  <m_score__min__energy>  (83) 
-13.300000000000001

>  <m_primary>  (83) 
energy

$$$$
83:0
     RDKit          3D

 44 45  0  0  0  0  0  0  0  0999 V2000
   59.6400   33.9870   48.5150 C   0  0  0  0  0  0  0  0  0  0  0  0
   59.1260   33.8120   47.1170 C   0  0  0  0  0  0  0  0  0  0  0  0
   59.2630   34.8470   46.1800 C   0  0  0  0  0  0  0  0  0  0  0  0
   58.8140   34.6730   44.8700 C   0  0  0  0  0  0  0  0  0  0  0  0
   58.2420   33.4600   44.4790 C   0  0  0  0  0  0  0  0  0  0  0  0
   58.1280   32.4000   45.3960 C   0  0  0  0  0  0  0  0  0  0  0  0
   57.5290   31.1060   44.9880 C   0  0  0  0  0  0  0  0  0  0  0  0
   56.2980   31.0520   44.7250 O   0  0  0  0  0  0  0  0  0  0  0  0
   58.3160   29.9170   44.8340 N   0  0  0  0  0  0  0  0  0  0  0  0
   58.0720   28.6520   45.4640 C   0  0  0  0  0  0  0  0  0  0  0  0
   59.0850   27.9650   46.1580 C   0  0  0  0  0  0  0  0  0  0  0  0
   58.8050   26.7490   46.7820 C   0  0  0  0  0  0  0  0  0  0  0  0
   57.5180   26.2070   46.7260 C   0  0  0  0  0  0  0  0  0  0  0  0
   56.4970   26.8840   46.0340 C   0  0  0  0  0  0  0  0  0  0  0  0
   55.1550   26.3830   45.9780 N   0  0  0  0  0  0  0  0  0  0  0  0
   54.7490   25.0430   45.6730 C   0  0  0  0  0  0  0  0  0  0  0  0
   53.5270   24.7490   45.6030 O   0  0  0  0  0  0  0  0  0  0  0  0
   55.7190   24.0040   45.4960 N   0  0  0  0  0  0  0  0  0  0  0  0
   56.3960   23.6180   44.2510 C   0  0  0  0  0  0  0  0  0  0  0  0
   57.2510   22.3550   44.4720 C   0  0  0  0  0  0  0  0  0  0  0  0
   55.3100   23.3070   43.2090 C   0  0  0  0  0  0  0  0  0  0  0  0
   57.2680   24.7770   43.7320 C   0  0  0  0  0  0  0  0  0  0  0  0
   56.7790   28.1170   45.4320 C   0  0  0  0  0  0  0  0  0  0  0  0
   58.5680   32.5880   46.7170 C   0  0  0  0  0  0  0  0  0  0  0  0
   58.8505   33.7182   49.2323 H   0  0  0  0  0  0  0  0  0  0  0  0
   60.5127   33.3354   48.6691 H   0  0  0  0  0  0  0  0  0  0  0  0
   59.9338   35.0358   48.6691 H   0  0  0  0  0  0  0  0  0  0  0  0
   59.7259   35.7991   46.4788 H   0  0  0  0  0  0  0  0  0  0  0  0
   58.9108   35.4932   44.1435 H   0  0  0  0  0  0  0  0  0  0  0  0
   57.8789   33.3333   43.4484 H   0  0  0  0  0  0  0  0  0  0  0  0
   60.0994   28.3874   46.2086 H   0  0  0  0  0  0  0  0  0  0  0  0
   59.6011   26.2142   47.3207 H   0  0  0  0  0  0  0  0  0  0  0  0
   57.3030   25.2498   47.2236 H   0  0  0  0  0  0  0  0  0  0  0  0
   57.3710   22.1777   45.5510 H   0  0  0  0  0  0  0  0  0  0  0  0
   56.7524   21.4894   44.0114 H   0  0  0  0  0  0  0  0  0  0  0  0
   58.2399   22.4964   44.0114 H   0  0  0  0  0  0  0  0  0  0  0  0
   54.3749   23.0392   43.7227 H   0  0  0  0  0  0  0  0  0  0  0  0
   55.1416   24.1930   42.5792 H   0  0  0  0  0  0  0  0  0  0  0  0
   55.6362   22.4662   42.5792 H   0  0  0  0  0  0  0  0  0  0  0  0
   57.6856   25.3321   44.5849 H   0  0  0  0  0  0  0  0  0  0  0  0
   58.0882   24.3733   43.1202 H   0  0  0  0  0  0  0  0  0  0  0  0
   56.6528   25.4532   43.1202 H   0  0  0  0  0  0  0  0  0  0  0  0
   55.9741   28.6718   44.9277 H   0  0  0  0  0  0  0  0  0  0  0  0
   58.4743   31.7682   47.4444 H   0  0  0  0  0  0  0  0  0  0  0  0
  1  2  1  0
  2  3  2  0
  3  4  1  0
  4  5  2  0
  5  6  1  0
  6  7  1  0
  7  8  2  0
  7  9  1  0
  9 10  1  0
 10 11  2  0
 11 12  1  0
 12 13  2  0
 13 14  1  0
 14 15  1  0
 15 16  1  0
 16 17  2  0
 16 18  1  0
 18 19  1  0
 19 20  1  0
 19 21  1  0
 19 22  1  0
 14 23  2  0
  6 24  2  0
 24  2  1  0
 23 10  1  0
  1 25  1  0
  1 26  1  0
  1 27  1  0
  3 28  1  0
  4 29  1  0
  5 30  1  0
 11 31  1  0
 12 32  1  0
 13 33  1  0
 20 34  1  0
 20 35  1  0
 20 36  1  0
 21 37  1  0
 21 38  1  0
 21 39  1  0
 22 40  1  0
 22 41  1  0
 22 42  1  0
 23 43  1  0
 24 44  1  0
M  CHG  3   9  -1  15  -1  18  -1
M  END
>  <UniqueID>  (84) 
78

>  <SMILES>  (84) 
Cc1cccc(C(=O)[N-]c2cccc([N-]C(=O)[N-]C(C)(C)C)c2)c1

>  <Energy>  (84) 
47.871409528892876

>  <Genealogy>  (84) 
Cc1cccc(C(=O)[N-]c2cccc([N-]C(=O)[N-]C(C)(C)C)c2)c1 (protonated)
Cc1cccc(C(=O)[N-]c2cccc([N-]C(=O)[N-]C(C)(C)C)c2)c1 (3D coordinates assigned)
Cc1cccc(C(=O)[N-]c2cccc([N-]C(=O)[N-]C(C)(C)C)c2)c1 (optimized conformer: 47.871409528892876 kcal/mol)

>  <smiles>  (84) 
Cc1cccc(C(=O)Nc2cccc(NC(=O)NC(C)(C)C)c2)c1

>  <score_type>  (84) 
oracle

>  <origin>  (84) 
adg

>  <m_score__min__energy>  (84) 
-13.140000000000001

>  <m_primary>  (84) 
energy

$$$$
84:0
     RDKit          3D

 49 52  0  0  0  0  0  0  0  0999 V2000
   65.4546   32.6536   49.6427 H   0  0  0  0  0  0  0  0  0  0  0  0
   64.4870   33.0880   49.3510 C   0  0  0  0  0  0  0  0  0  0  0  0
   64.0980   33.0930   48.0070 C   0  0  0  0  0  0  0  0  0  0  0  0
   64.7574   32.6559   47.2427 H   0  0  0  0  0  0  0  0  0  0  0  0
   62.8720   33.6530   47.6340 C   0  0  0  0  0  0  0  0  0  0  0  0
   62.5654   33.6472   46.5776 H   0  0  0  0  0  0  0  0  0  0  0  0
   62.0290   34.2240   48.6060 C   0  0  0  0  0  0  0  0  0  0  0  0
   60.7850   34.7800   48.2750 O   0  0  0  0  0  0  0  0  0  0  0  0
   59.8440   34.2080   47.4070 C   0  0  0  0  0  0  0  0  0  0  0  0
   59.8970   34.5360   46.0470 C   0  0  0  0  0  0  0  0  0  0  0  0
   60.6594   35.2411   45.6842 H   0  0  0  0  0  0  0  0  0  0  0  0
   58.9870   33.9730   45.1470 C   0  0  0  0  0  0  0  0  0  0  0  0
   59.0174   34.2601   44.0856 H   0  0  0  0  0  0  0  0  0  0  0  0
   58.0340   33.0420   45.5930 C   0  0  0  0  0  0  0  0  0  0  0  0
   57.0550   32.4840   44.7030 N   0  0  0  0  0  0  0  0  0  0  0  0
   56.9200   31.2270   44.3940 C   0  0  0  0  0  0  0  0  0  0  0  0
   57.0740   30.2640   45.2740 O   0  0  0  0  0  0  0  0  0  0  0  0
   56.8900   29.1360   44.6290 C   0  0  0  0  0  0  0  0  0  0  0  0
   57.0000   27.7800   45.2460 C   0  0  0  0  0  0  0  0  0  0  0  0
   56.7222   27.0175   44.5034 H   0  0  0  0  0  0  0  0  0  0  0  0
   56.3235   27.7193   46.1113 H   0  0  0  0  0  0  0  0  0  0  0  0
   58.3720   27.5470   45.6900 N   0  0  0  0  0  0  0  0  0  0  0  0
   58.9480   26.8880   45.1180 H   0  0  0  0  0  0  0  0  0  0  0  0
   59.0750   28.5370   46.4530 C   0  0  0  0  0  0  0  0  0  0  0  0
   58.6110   28.8600   47.7380 C   0  0  0  0  0  0  0  0  0  0  0  0
   57.7097   28.3685   48.1330 H   0  0  0  0  0  0  0  0  0  0  0  0
   59.2860   29.8010   48.5180 C   0  0  0  0  0  0  0  0  0  0  0  0
   58.9185   30.0438   49.5260 H   0  0  0  0  0  0  0  0  0  0  0  0
   60.4260   30.4340   48.0210 C   0  0  0  0  0  0  0  0  0  0  0  0
   60.9645   31.1645   48.6427 H   0  0  0  0  0  0  0  0  0  0  0  0
   60.8840   30.1400   46.7330 C   0  0  0  0  0  0  0  0  0  0  0  0
   61.7841   30.6408   46.3469 H   0  0  0  0  0  0  0  0  0  0  0  0
   60.2050   29.2110   45.9280 C   0  0  0  0  0  0  0  0  0  0  0  0
   60.7010   28.9530   44.5320 C   0  0  0  0  0  0  0  0  0  0  0  0
   61.6760   28.4458   44.5772 H   0  0  0  0  0  0  0  0  0  0  0  0
   59.9804   28.3154   43.9988 H   0  0  0  0  0  0  0  0  0  0  0  0
   60.8093   29.9090   43.9988 H   0  0  0  0  0  0  0  0  0  0  0  0
   56.6280   29.4200   43.3040 C   0  0  0  0  0  0  0  0  0  0  0  0
   56.4360   28.6836   42.5097 H   0  0  0  0  0  0  0  0  0  0  0  0
   56.6490   30.7570   43.1560 N   0  0  0  0  0  0  0  0  0  0  0  0
   56.5320   31.2810   42.2620 H   0  0  0  0  0  0  0  0  0  0  0  0
   57.9710   32.7240   46.9550 C   0  0  0  0  0  0  0  0  0  0  0  0
   57.2017   32.0270   47.3188 H   0  0  0  0  0  0  0  0  0  0  0  0
   58.8800   33.2870   47.8550 C   0  0  0  0  0  0  0  0  0  0  0  0
   58.8413   33.0086   48.9185 H   0  0  0  0  0  0  0  0  0  0  0  0
   62.4170   34.1960   49.9520 C   0  0  0  0  0  0  0  0  0  0  0  0
   61.7530   34.6168   50.7214 H   0  0  0  0  0  0  0  0  0  0  0  0
   63.6440   33.6360   50.3230 C   0  0  0  0  0  0  0  0  0  0  0  0
   63.9462   33.6267   51.3806 H   0  0  0  0  0  0  0  0  0  0  0  0
  1  2  1  0
  2  3  2  0
  3  4  1  0
  3  5  1  0
  5  6  1  0
  5  7  2  0
  7  8  1  0
  8  9  1  0
  9 10  2  0
 10 11  1  0
 10 12  1  0
 12 13  1  0
 12 14  2  0
 14 15  1  0
 15 16  2  0
 16 17  1  0
 17 18  1  0
 18 19  1  0
 19 20  1  0
 19 21  1  0
 19 22  1  0
 22 23  1  0
 22 24  1  0
 24 25  2  0
 25 26  1  0
 25 27  1  0
 27 28  1  0
 27 29  2  0
 29 30  1  0
 29 31  1  0
 31 32  1  0
 31 33  2  0
 33 34  1  0
 34 35  1  0
 34 36  1  0
 34 37  1  0
 18 38  2  0
 38 39  1  0
 38 40  1  0
 40 41  1  0
 14 42  1  0
 42 43  1  0
 42 44  2  0
 44 45  1  0
  7 46  1  0
 46 47  1  0
 46 48  2  0
 48 49  1  0
 48  2  1  0
 44  9  1  0
 40 16  1  0
 33 24  1  0
M  END
>  <UniqueID>  (85) 
79

>  <SMILES>  (85) 
Cc1ccccc1NCc1c[nH]/c(=N\c2ccc(Oc3ccccc3)cc2)o1

>  <Energy>  (85) 
101.83156783507093

>  <Genealogy>  (85) 
Cc1ccccc1NCc1c[nH]/c(=N\c2ccc(Oc3ccccc3)cc2)o1 (cis-trans isomerization)
Cc1ccccc1NCc1c[nH]/c(=N\c2ccc(Oc3ccccc3)cc2)o1 (3D coordinates assigned)
Cc1ccccc1NCc1c[nH]/c(=N\c2ccc(Oc3ccccc3)cc2)o1 (optimized conformer: 101.83156783507093 kcal/mol)

>  <smiles>  (85) 
Cc1ccccc1NCc1c[nH]c(=Nc2ccc(Oc3ccccc3)cc2)o1

>  <score_type>  (85) 
oracle

>  <origin>  (85) 
adg

>  <m_score__min__energy>  (85) 
-8.5899999999999999

>  <m_primary>  (85) 
energy

$$$$
85:0
     RDKit          3D

 43 45  0  0  0  0  0  0  0  0999 V2000
   56.1020   21.8300   44.8300 C   0  0  0  0  0  0  0  0  0  0  0  0
   55.3780   23.0440   44.9880 O   0  0  0  0  0  0  0  0  0  0  0  0
   56.0030   24.2870   45.1110 C   0  0  0  0  0  0  0  0  0  0  0  0
   57.0760   24.6100   44.3380 N   0  0  0  0  0  0  0  0  0  0  0  0
   57.6850   25.8180   44.4510 C   0  0  0  0  0  0  0  0  0  0  0  0
   57.2110   26.7600   45.3730 C   0  0  0  0  0  0  0  0  0  0  0  0
   57.8580   28.0850   45.5210 C   0  0  0  0  0  0  0  0  0  0  0  0
   59.2140   28.1520   45.8800 C   0  0  0  0  0  0  0  0  0  0  0  0
   59.8610   29.3830   45.9760 C   0  0  0  0  0  0  0  0  0  0  0  0
   59.1670   30.5630   45.7160 C   0  0  0  0  0  0  0  0  0  0  0  0
   57.8040   30.5290   45.3730 C   0  0  0  0  0  0  0  0  0  0  0  0
   57.0730   31.7440   45.1210 N   0  0  0  0  0  0  0  0  0  0  0  0
   57.8350   33.2920   44.9470 S   0  0  0  0  0  0  0  0  0  0  0  0
   58.4920   33.3690   43.5970 O   0  0  0  0  0  0  0  0  0  0  0  0
   56.7950   34.3730   45.0490 O   0  0  0  0  0  0  0  0  0  0  0  0
   59.0160   33.5220   46.2320 C   0  0  0  0  0  0  0  0  0  0  0  0
   60.3470   33.8220   45.9080 C   0  0  0  0  0  0  0  0  0  0  0  0
   61.2880   34.0260   46.9220 C   0  0  0  0  0  0  0  0  0  0  0  0
   60.9050   33.9310   48.2640 C   0  0  0  0  0  0  0  0  0  0  0  0
   62.1910   34.2130   49.6470 Br  0  0  0  0  0  0  0  0  0  0  0  0
   59.5790   33.6260   48.5900 C   0  0  0  0  0  0  0  0  0  0  0  0
   58.6360   33.4220   47.5780 C   0  0  0  0  0  0  0  0  0  0  0  0
   57.1450   29.2850   45.2870 C   0  0  0  0  0  0  0  0  0  0  0  0
   55.7800   29.2580   44.9910 O   0  0  0  0  0  0  0  0  0  0  0  0
   55.2790   29.7160   43.7410 C   0  0  0  0  0  0  0  0  0  0  0  0
   56.1110   26.4020   46.1650 C   0  0  0  0  0  0  0  0  0  0  0  0
   55.5320   25.1830   46.0160 N   0  0  0  0  0  0  0  0  0  0  0  0
   56.3477   21.4181   45.8199 H   0  0  0  0  0  0  0  0  0  0  0  0
   55.4878   21.1065   44.2739 H   0  0  0  0  0  0  0  0  0  0  0  0
   57.0305   22.0265   44.2739 H   0  0  0  0  0  0  0  0  0  0  0  0
   58.5519   26.0574   43.8176 H   0  0  0  0  0  0  0  0  0  0  0  0
   59.7700   27.2257   46.0871 H   0  0  0  0  0  0  0  0  0  0  0  0
   60.9235   29.4230   46.2581 H   0  0  0  0  0  0  0  0  0  0  0  0
   59.6897   31.5288   45.7796 H   0  0  0  0  0  0  0  0  0  0  0  0
   56.0300   31.7380   45.1770 H   0  0  0  0  0  0  0  0  0  0  0  0
   60.6515   33.8970   44.8537 H   0  0  0  0  0  0  0  0  0  0  0  0
   62.3310   34.2616   46.6640 H   0  0  0  0  0  0  0  0  0  0  0  0
   59.2777   33.5465   49.6449 H   0  0  0  0  0  0  0  0  0  0  0  0
   57.5944   33.1827   47.8382 H   0  0  0  0  0  0  0  0  0  0  0  0
   54.4772   30.4490   43.9137 H   0  0  0  0  0  0  0  0  0  0  0  0
   56.0922   30.1895   43.1713 H   0  0  0  0  0  0  0  0  0  0  0  0
   54.8802   28.8637   43.1713 H   0  0  0  0  0  0  0  0  0  0  0  0
   55.7163   27.1100   46.9085 H   0  0  0  0  0  0  0  0  0  0  0  0
  1  2  1  0
  2  3  1  0
  3  4  2  0
  4  5  1  0
  5  6  2  0
  6  7  1  0
  7  8  2  0
  8  9  1  0
  9 10  2  0
 10 11  1  0
 11 12  1  0
 12 13  1  0
 13 14  2  0
 13 15  2  0
 13 16  1  0
 16 17  2  0
 17 18  1  0
 18 19  2  0
 19 20  1  0
 19 21  1  0
 21 22  2  0
 11 23  2  0
 23 24  1  0
 24 25  1  0
  6 26  1  0
 26 27  2  0
 27  3  1  0
 23  7  1  0
 22 16  1  0
  1 28  1  0
  1 29  1  0
  1 30  1  0
  5 31  1  0
  8 32  1  0
  9 33  1  0
 10 34  1  0
 12 35  1  0
 17 36  1  0
 18 37  1  0
 21 38  1  0
 22 39  1  0
 25 40  1  0
 25 41  1  0
 25 42  1  0
 26 43  1  0
M  END
>  <UniqueID>  (86) 
80

>  <SMILES>  (86) 
COc1ncc(-c2cccc(NS(=O)(=O)c3ccc(Br)cc3)c2OC)cn1

>  <Energy>  (86) 
59.132784828082826

>  <Genealogy>  (86) 
COc1ncc(-c2cccc(NS(=O)(=O)c3ccc(Br)cc3)c2OC)cn1 (3D coordinates assigned)
COc1ncc(-c2cccc(NS(=O)(=O)c3ccc(Br)cc3)c2OC)cn1 (optimized conformer: 59.132784828082826 kcal/mol)

>  <smiles>  (86) 
COc1ncc(-c2cccc(NS(=O)(=O)c3ccc(Br)cc3)c2OC)cn1

>  <score_type>  (86) 
oracle

>  <origin>  (86) 
adg

>  <m_score__min__energy>  (86) 
-8.5800000000000001

>  <m_primary>  (86) 
energy

$$$$
86:0
     RDKit          3D

 50 52  0  0  0  0  0  0  0  0999 V2000
   62.0290   32.2670   52.1490 C   0  0  0  0  0  0  0  0  0  0  0  0
   63.1630   32.0780   51.3070 O   0  0  0  0  0  0  0  0  0  0  0  0
   63.1940   32.3420   49.9300 C   0  0  0  0  0  0  0  0  0  0  0  0
   64.1260   33.2490   49.3830 C   0  0  0  0  0  0  0  0  0  0  0  0
   64.1840   33.4660   48.0050 C   0  0  0  0  0  0  0  0  0  0  0  0
   63.3200   32.7800   47.1540 C   0  0  0  0  0  0  0  0  0  0  0  0
   62.3860   31.8870   47.6800 C   0  0  0  0  0  0  0  0  0  0  0  0
   62.2960   31.6730   49.0620 C   0  0  0  0  0  0  0  0  0  0  0  0
   61.2950   30.7500   49.5200 N   0  0  0  0  0  0  0  0  0  0  0  0
   59.5870   30.8120   49.2120 S   0  0  0  0  0  0  0  0  0  0  0  0
   59.1530   29.5370   48.5460 O   0  0  0  0  0  0  0  0  0  0  0  0
   58.8620   30.9930   50.5170 O   0  0  0  0  0  0  0  0  0  0  0  0
   59.2120   32.1810   48.1510 C   0  0  0  0  0  0  0  0  0  0  0  0
   58.8080   31.9250   46.8300 C   0  0  0  0  0  0  0  0  0  0  0  0
   58.4930   32.9770   45.9550 C   0  0  0  0  0  0  0  0  0  0  0  0
   58.0700   32.6850   44.5640 C   0  0  0  0  0  0  0  0  0  0  0  0
   57.3930   33.5400   43.9330 O   0  0  0  0  0  0  0  0  0  0  0  0
   58.3630   31.4350   43.9260 N   0  0  0  0  0  0  0  0  0  0  0  0
   58.0380   30.1320   44.4330 C   0  0  0  0  0  0  0  0  0  0  0  0
   56.7000   29.8270   44.7100 C   0  0  0  0  0  0  0  0  0  0  0  0
   56.3490   28.5640   45.1960 C   0  0  0  0  0  0  0  0  0  0  0  0
   57.3320   27.5860   45.3940 C   0  0  0  0  0  0  0  0  0  0  0  0
   56.8700   26.0010   46.0030 S   0  0  0  0  0  0  0  0  0  0  0  0
   55.1460   25.8690   45.9980 N   0  0  0  0  0  0  0  0  0  0  0  0
   57.4480   24.9180   45.1360 O   0  0  0  0  0  0  0  0  0  0  0  0
   57.3870   25.8340   47.4030 O   0  0  0  0  0  0  0  0  0  0  0  0
   58.6690   27.8780   45.0920 C   0  0  0  0  0  0  0  0  0  0  0  0
   59.0210   29.1410   44.6070 C   0  0  0  0  0  0  0  0  0  0  0  0
   58.6080   34.2980   46.4060 C   0  0  0  0  0  0  0  0  0  0  0  0
   59.0020   34.5670   47.7170 C   0  0  0  0  0  0  0  0  0  0  0  0
   59.2930   33.5200   48.6070 C   0  0  0  0  0  0  0  0  0  0  0  0
   59.7250   33.8590   50.0090 C   0  0  0  0  0  0  0  0  0  0  0  0
   62.3417   32.2149   53.2023 H   0  0  0  0  0  0  0  0  0  0  0  0
   61.5826   33.2519   51.9473 H   0  0  0  0  0  0  0  0  0  0  0  0
   61.2873   31.4801   51.9473 H   0  0  0  0  0  0  0  0  0  0  0  0
   64.8139   33.7907   50.0489 H   0  0  0  0  0  0  0  0  0  0  0  0
   64.9122   34.1789   47.5910 H   0  0  0  0  0  0  0  0  0  0  0  0
   63.3743   32.9425   46.0674 H   0  0  0  0  0  0  0  0  0  0  0  0
   61.7117   31.3440   47.0014 H   0  0  0  0  0  0  0  0  0  0  0  0
   58.7375   30.8858   46.4762 H   0  0  0  0  0  0  0  0  0  0  0  0
   55.9206   30.5853   44.5443 H   0  0  0  0  0  0  0  0  0  0  0  0
   55.2969   28.3375   45.4237 H   0  0  0  0  0  0  0  0  0  0  0  0
   54.7780   26.6930   45.4700 H   0  0  0  0  0  0  0  0  0  0  0  0
   59.4439   27.1109   45.2371 H   0  0  0  0  0  0  0  0  0  0  0  0
   60.0703   29.3606   44.3606 H   0  0  0  0  0  0  0  0  0  0  0  0
   58.3860   35.1298   45.7213 H   0  0  0  0  0  0  0  0  0  0  0  0
   59.0856   35.6097   48.0572 H   0  0  0  0  0  0  0  0  0  0  0  0
   59.0705   33.3454   50.7286 H   0  0  0  0  0  0  0  0  0  0  0  0
   60.7645   33.5331   50.1613 H   0  0  0  0  0  0  0  0  0  0  0  0
   59.6556   34.9462   50.1613 H   0  0  0  0  0  0  0  0  0  0  0  0
  1  2  1  0
  2  3  1  0
  3  4  2  0
  4  5  1  0
  5  6  2  0
  6  7  1  0
  7  8  2  0
  8  9  1  0
  9 10  1  0
 10 11  2  0
 10 12  2  0
 10 13  1  0
 13 14  2  0
 14 15  1  0
 15 16  1  0
 16 17  2  0
 16 18  1  0
 18 19  1  0
 19 20  2  0
 20 21  1  0
 21 22  2  0
 22 23  1  0
 23 24  1  0
 23 25  2  0
 23 26  2  0
 22 27  1  0
 27 28  2  0
 15 29  2  0
 29 30  1  0
 30 31  2  0
 31 32  1  0
  8  3  1  0
 31 13  1  0
 28 19  1  0
  1 33  1  0
  1 34  1  0
  1 35  1  0
  4 36  1  0
  5 37  1  0
  6 38  1  0
  7 39  1  0
 14 40  1  0
 20 41  1  0
 21 42  1  0
 24 43  1  0
 27 44  1  0
 28 45  1  0
 29 46  1  0
 30 47  1  0
 32 48  1  0
 32 49  1  0
 32 50  1  0
M  CHG  3   9  -1  18  -1  24  -1
M  END
>  <UniqueID>  (87) 
81

>  <SMILES>  (87) 
COc1ccccc1[N-]S(=O)(=O)c1cc(C(=O)[N-]c2ccc(S([NH-])(=O)=O)cc2)ccc1C

>  <Energy>  (87) 
67.75095435878744

>  <Genealogy>  (87) 
COc1ccccc1[N-]S(=O)(=O)c1cc(C(=O)[N-]c2ccc(S([NH-])(=O)=O)cc2)ccc1C (protonated)
COc1ccccc1[N-]S(=O)(=O)c1cc(C(=O)[N-]c2ccc(S([NH-])(=O)=O)cc2)ccc1C (3D coordinates assigned)
COc1ccccc1[N-]S(=O)(=O)c1cc(C(=O)[N-]c2ccc(S([NH-])(=O)=O)cc2)ccc1C (optimized conformer: 67.75095435878744 kcal/mol)

>  <smiles>  (87) 
COc1ccccc1NS(=O)(=O)c1cc(C(=O)Nc2ccc(S(N)(=O)=O)cc2)ccc1C

>  <score_type>  (87) 
oracle

>  <origin>  (87) 
adg

>  <m_score__min__energy>  (87) 
-13.609999999999999

>  <m_primary>  (87) 
energy

$$$$
87:0
     RDKit          3D

 46 49  0  0  0  0  0  0  0  0999 V2000
   60.2230   32.1860   50.0930 Br  0  0  0  0  0  0  0  0  0  0  0  0
   59.6430   32.9990   48.4660 C   0  0  0  0  0  0  0  0  0  0  0  0
   59.6530   34.4060   48.3410 C   0  0  0  0  0  0  0  0  0  0  0  0
   59.2450   35.0170   47.1420 C   0  0  0  0  0  0  0  0  0  0  0  0
   58.8270   34.1930   46.0980 C   0  0  0  0  0  0  0  0  0  0  0  0
   58.4360   34.5760   44.8710 N   0  0  0  0  0  0  0  0  0  0  0  0
   58.1560   33.4400   44.1950 C   0  0  0  0  0  0  0  0  0  0  0  0
   58.3580   32.3240   45.0060 C   0  0  0  0  0  0  0  0  0  0  0  0
   58.1490   30.9110   44.6140 C   0  0  0  0  0  0  0  0  0  0  0  0
   58.8170   29.9300   45.2400 C   0  0  0  0  0  0  0  0  0  0  0  0
   58.6110   28.4760   44.9070 C   0  0  0  0  0  0  0  0  0  0  0  0
   58.0890   28.2830   43.5350 N   0  0  1  0  0  0  0  0  0  0  0  0
   57.7960   26.8450   43.3140 C   0  0  0  0  0  0  0  0  0  0  0  0
   57.7110   26.0490   44.6310 C   0  0  0  0  0  0  0  0  0  0  0  0
   57.5510   24.5780   44.3520 C   0  0  0  0  0  0  0  0  0  0  0  0
   58.3240   23.6380   45.0540 C   0  0  0  0  0  0  0  0  0  0  0  0
   58.1880   22.2720   44.7870 C   0  0  0  0  0  0  0  0  0  0  0  0
   57.2850   21.8350   43.8130 C   0  0  0  0  0  0  0  0  0  0  0  0
   56.5190   22.7640   43.1050 C   0  0  0  0  0  0  0  0  0  0  0  0
   56.6540   24.1320   43.3660 C   0  0  0  0  0  0  0  0  0  0  0  0
   56.8830   29.1170   43.3480 C   0  0  0  0  0  0  0  0  0  0  0  0
   57.2350   30.6080   43.4500 C   0  0  0  0  0  0  0  0  0  0  0  0
   58.7980   32.8260   46.2210 C   0  0  0  0  0  0  0  0  0  0  0  0
   59.2200   32.1920   47.3930 C   0  0  0  0  0  0  0  0  0  0  0  0
   59.9820   35.0276   49.1868 H   0  0  0  0  0  0  0  0  0  0  0  0
   59.2553   36.1114   47.0312 H   0  0  0  0  0  0  0  0  0  0  0  0
   58.3700   35.5520   44.5050 H   0  0  0  0  0  0  0  0  0  0  0  0
   57.8158   33.4011   43.1497 H   0  0  0  0  0  0  0  0  0  0  0  0
   59.5406   30.1974   46.0241 H   0  0  0  0  0  0  0  0  0  0  0  0
   59.5744   27.9526   44.9960 H   0  0  0  0  0  0  0  0  0  0  0  0
   57.8680   28.0714   45.6101 H   0  0  0  0  0  0  0  0  0  0  0  0
   58.8310   28.5850   42.8580 H   0  0  0  0  0  0  0  0  0  0  0  0
   56.8344   26.7582   42.7870 H   0  0  0  0  0  0  0  0  0  0  0  0
   58.6220   26.4235   42.7223 H   0  0  0  0  0  0  0  0  0  0  0  0
   58.6324   26.2089   45.2102 H   0  0  0  0  0  0  0  0  0  0  0  0
   56.8376   26.3988   45.2010 H   0  0  0  0  0  0  0  0  0  0  0  0
   59.0395   23.9781   45.8172 H   0  0  0  0  0  0  0  0  0  0  0  0
   58.7921   21.5405   45.3438 H   0  0  0  0  0  0  0  0  0  0  0  0
   57.1779   20.7603   43.6044 H   0  0  0  0  0  0  0  0  0  0  0  0
   55.8076   22.4192   42.3401 H   0  0  0  0  0  0  0  0  0  0  0  0
   56.0566   24.8604   42.7981 H   0  0  0  0  0  0  0  0  0  0  0  0
   56.4536   28.9141   42.3558 H   0  0  0  0  0  0  0  0  0  0  0  0
   56.1558   28.8700   44.1355 H   0  0  0  0  0  0  0  0  0  0  0  0
   57.7350   30.9163   42.5200 H   0  0  0  0  0  0  0  0  0  0  0  0
   56.2978   31.1613   43.6096 H   0  0  0  0  0  0  0  0  0  0  0  0
   59.2215   31.0950   47.4745 H   0  0  0  0  0  0  0  0  0  0  0  0
  1  2  1  0
  2  3  2  0
  3  4  1  0
  4  5  2  0
  5  6  1  0
  6  7  1  0
  7  8  2  0
  8  9  1  0
  9 10  2  0
 10 11  1  0
 11 12  1  0
 12 13  1  0
 13 14  1  0
 14 15  1  0
 15 16  2  0
 16 17  1  0
 17 18  2  0
 18 19  1  0
 19 20  2  0
 12 21  1  0
 21 22  1  0
  8 23  1  0
 23 24  2  0
 24  2  1  0
 23  5  1  0
 22  9  1  0
 20 15  1  0
  3 25  1  0
  4 26  1  0
  6 27  1  0
  7 28  1  0
 10 29  1  0
 11 30  1  0
 11 31  1  0
 12 32  1  6
 13 33  1  0
 13 34  1  0
 14 35  1  0
 14 36  1  0
 16 37  1  0
 17 38  1  0
 18 39  1  0
 19 40  1  0
 20 41  1  0
 21 42  1  0
 21 43  1  0
 22 44  1  0
 22 45  1  0
 24 46  1  0
M  CHG  1  12   1
M  END
>  <UniqueID>  (88) 
82

>  <SMILES>  (88) 
Brc1ccc2[nH]cc(C3=CC[N@@H+](CCc4ccccc4)CC3)c2c1

>  <Energy>  (88) 
88.74207647219315

>  <Genealogy>  (88) 
Brc1ccc2[nH]cc(C3=CC[NH+](CCc4ccccc4)CC3)c2c1 (protonated)
Brc1ccc2[nH]cc(C3=CC[N@@H+](CCc4ccccc4)CC3)c2c1 (chirality)
Brc1ccc2[nH]cc(C3=CC[N@@H+](CCc4ccccc4)CC3)c2c1 (3D coordinates assigned)
Brc1ccc2[nH]cc(C3=CC[N@@H+](CCc4ccccc4)CC3)c2c1 (nonaromatic ring conformer: 88.74207647219315 kcal/mol)

>  <smiles>  (88) 
Brc1ccc2[nH]cc(C3=CCN(CCc4ccccc4)CC3)c2c1

>  <score_type>  (88) 
oracle

>  <origin>  (88) 
adg

>  <m_score__min__energy>  (88) 
-7.5300000000000002

>  <m_primary>  (88) 
energy

$$$$
88:0
     RDKit          3D

 42 44  0  0  0  0  0  0  0  0999 V2000
   59.3840   31.7920   48.2310 O   0  0  0  0  0  0  0  0  0  0  0  0
   59.9540   32.8280   47.7940 C   0  0  0  0  0  0  0  0  0  0  0  0
   61.4000   33.0050   48.0470 C   0  0  0  0  0  0  0  0  0  0  0  0
   62.3560   32.5460   47.1250 C   0  0  0  0  0  0  0  0  0  0  0  0
   63.7210   32.7150   47.3780 C   0  0  0  0  0  0  0  0  0  0  0  0
   64.1430   33.3530   48.5470 C   0  0  0  0  0  0  0  0  0  0  0  0
   63.2010   33.8320   49.4600 C   0  0  0  0  0  0  0  0  0  0  0  0
   61.8350   33.6670   49.2090 C   0  0  0  0  0  0  0  0  0  0  0  0
   59.1950   33.7920   47.0300 N   0  0  0  0  0  0  0  0  0  0  0  0
   57.7380   33.8300   47.1220 C   0  0  0  0  0  0  0  0  0  0  0  0
   57.1470   33.2540   45.8350 C   0  0  0  0  0  0  0  0  0  0  0  0
   57.7770   33.7960   44.5910 N   0  0  0  0  0  0  0  0  0  0  0  0
   58.1830   32.7360   43.6270 C   0  0  0  0  0  0  0  0  0  0  0  0
   57.8200   31.3230   44.0410 C   0  0  0  0  0  0  0  0  0  0  0  0
   56.6400   30.7120   43.5790 C   0  0  0  0  0  0  0  0  0  0  0  0
   56.3160   29.4110   43.9770 C   0  0  0  0  0  0  0  0  0  0  0  0
   57.1720   28.7020   44.8230 C   0  0  0  0  0  0  0  0  0  0  0  0
   58.3630   29.2850   45.2570 C   0  0  0  0  0  0  0  0  0  0  0  0
   58.6940   30.5840   44.8600 C   0  0  0  0  0  0  0  0  0  0  0  0
   58.8090   34.8490   44.8040 C   0  0  0  0  0  0  0  0  0  0  0  0
   59.8220   34.5250   45.9260 C   0  0  0  0  0  0  0  0  0  0  0  0
   62.0288   32.0509   46.1988 H   0  0  0  0  0  0  0  0  0  0  0  0
   64.4634   32.3451   46.6555 H   0  0  0  0  0  0  0  0  0  0  0  0
   65.2172   33.4781   48.7483 H   0  0  0  0  0  0  0  0  0  0  0  0
   63.5337   34.3396   50.3774 H   0  0  0  0  0  0  0  0  0  0  0  0
   61.0965   34.0574   49.9247 H   0  0  0  0  0  0  0  0  0  0  0  0
   57.4062   33.2297   47.9820 H   0  0  0  0  0  0  0  0  0  0  0  0
   57.3993   34.8679   47.2566 H   0  0  0  0  0  0  0  0  0  0  0  0
   57.2845   32.1627   45.8473 H   0  0  0  0  0  0  0  0  0  0  0  0
   56.0856   33.5420   45.8106 H   0  0  0  0  0  0  0  0  0  0  0  0
   57.0010   34.2980   44.0930 H   0  0  0  0  0  0  0  0  0  0  0  0
   57.6955   32.9456   42.6635 H   0  0  0  0  0  0  0  0  0  0  0  0
   59.2813   32.7698   43.5760 H   0  0  0  0  0  0  0  0  0  0  0  0
   55.9689   31.2602   42.9014 H   0  0  0  0  0  0  0  0  0  0  0  0
   55.3847   28.9449   43.6229 H   0  0  0  0  0  0  0  0  0  0  0  0
   56.9073   27.6846   45.1469 H   0  0  0  0  0  0  0  0  0  0  0  0
   59.0429   28.7214   45.9128 H   0  0  0  0  0  0  0  0  0  0  0  0
   59.6433   31.0312   45.1898 H   0  0  0  0  0  0  0  0  0  0  0  0
   59.3655   34.9818   43.8645 H   0  0  0  0  0  0  0  0  0  0  0  0
   58.2736   35.7585   45.1141 H   0  0  0  0  0  0  0  0  0  0  0  0
   60.6336   33.9120   45.5070 H   0  0  0  0  0  0  0  0  0  0  0  0
   60.2089   35.4753   46.3224 H   0  0  0  0  0  0  0  0  0  0  0  0
  1  2  2  0
  2  3  1  0
  3  4  2  0
  4  5  1  0
  5  6  2  0
  6  7  1  0
  7  8  2  0
  2  9  1  0
  9 10  1  0
 10 11  1  0
 11 12  1  0
 12 13  1  0
 13 14  1  0
 14 15  2  0
 15 16  1  0
 16 17  2  0
 17 18  1  0
 18 19  2  0
 12 20  1  0
 20 21  1  0
  8  3  1  0
 21  9  1  0
 19 14  1  0
  4 22  1  0
  5 23  1  0
  6 24  1  0
  7 25  1  0
  8 26  1  0
 10 27  1  0
 10 28  1  0
 11 29  1  0
 11 30  1  0
 12 31  1  0
 13 32  1  0
 13 33  1  0
 15 34  1  0
 16 35  1  0
 17 36  1  0
 18 37  1  0
 19 38  1  0
 20 39  1  0
 20 40  1  0
 21 41  1  0
 21 42  1  0
M  CHG  1  12   1
M  END
>  <UniqueID>  (89) 
83

>  <SMILES>  (89) 
O=C(c1ccccc1)N1CC[NH+](Cc2ccccc2)CC1

>  <Energy>  (89) 
60.638435345777324

>  <Genealogy>  (89) 
O=C(c1ccccc1)N1CC[NH+](Cc2ccccc2)CC1 (protonated)
O=C(c1ccccc1)N1CC[NH+](Cc2ccccc2)CC1 (3D coordinates assigned)
O=C(c1ccccc1)N1CC[NH+](Cc2ccccc2)CC1 (nonaromatic ring conformer: 60.638435345777324 kcal/mol)

>  <smiles>  (89) 
O=C(c1ccccc1)N1CCN(Cc2ccccc2)CC1

>  <score_type>  (89) 
oracle

>  <origin>  (89) 
adg

>  <m_score__min__energy>  (89) 
-5.8799999999999999

>  <m_primary>  (89) 
energy

$$$$
89:0
     RDKit          3D

 28 29  0  0  0  0  0  0  0  0999 V2000
   60.0040   26.2290   46.3440 N   0  0  0  0  0  0  0  0  0  0  0  0
   59.1930   26.9770   45.9960 C   0  0  0  0  0  0  0  0  0  0  0  0
   58.1810   27.9090   45.5630 C   0  0  0  0  0  0  0  0  0  0  0  0
   58.5490   29.1400   45.0160 C   0  0  0  0  0  0  0  0  0  0  0  0
   57.5980   30.0300   44.6000 N   0  0  0  0  0  0  0  0  0  0  0  0
   58.0310   31.3020   43.9960 C   0  0  0  0  0  0  0  0  0  0  0  0
   57.2860   32.4940   44.6120 C   0  0  0  0  0  0  0  0  0  0  0  0
   58.1450   33.2360   45.6030 C   0  0  0  0  0  0  0  0  0  0  0  0
   58.1640   32.8480   46.9520 C   0  0  0  0  0  0  0  0  0  0  0  0
   58.9270   33.5630   47.8800 C   0  0  0  0  0  0  0  0  0  0  0  0
   59.6700   34.6740   47.4690 C   0  0  0  0  0  0  0  0  0  0  0  0
   59.6490   35.0710   46.1290 C   0  0  0  0  0  0  0  0  0  0  0  0
   58.8880   34.3570   45.1980 C   0  0  0  0  0  0  0  0  0  0  0  0
   56.2690   29.7060   44.7160 C   0  0  0  0  0  0  0  0  0  0  0  0
   55.3740   30.5050   44.3270 O   0  0  0  0  0  0  0  0  0  0  0  0
   55.9010   28.5130   45.2480 N   0  0  0  0  0  0  0  0  0  0  0  0
   56.8200   27.6120   45.6720 C   0  0  0  0  0  0  0  0  0  0  0  0
   56.4370   26.5140   46.1590 O   0  0  0  0  0  0  0  0  0  0  0  0
   59.6143   29.3962   44.9188 H   0  0  0  0  0  0  0  0  0  0  0  0
   59.1107   31.4290   44.1635 H   0  0  0  0  0  0  0  0  0  0  0  0
   57.8052   31.2700   42.9199 H   0  0  0  0  0  0  0  0  0  0  0  0
   56.9917   33.1846   43.8080 H   0  0  0  0  0  0  0  0  0  0  0  0
   56.4033   32.1091   45.1437 H   0  0  0  0  0  0  0  0  0  0  0  0
   57.5763   31.9780   47.2802 H   0  0  0  0  0  0  0  0  0  0  0  0
   58.9429   33.2512   48.9348 H   0  0  0  0  0  0  0  0  0  0  0  0
   60.2707   35.2352   48.1999 H   0  0  0  0  0  0  0  0  0  0  0  0
   60.2319   35.9463   45.8063 H   0  0  0  0  0  0  0  0  0  0  0  0
   58.8713   34.6744   44.1449 H   0  0  0  0  0  0  0  0  0  0  0  0
  1  2  3  0
  2  3  1  0
  3  4  2  0
  4  5  1  0
  5  6  1  0
  6  7  1  0
  7  8  1  0
  8  9  2  0
  9 10  1  0
 10 11  2  0
 11 12  1  0
 12 13  2  0
  5 14  1  0
 14 15  2  0
 14 16  1  0
 16 17  1  0
 17 18  2  0
 17  3  1  0
 13  8  1  0
  4 19  1  0
  6 20  1  0
  6 21  1  0
  7 22  1  0
  7 23  1  0
  9 24  1  0
 10 25  1  0
 11 26  1  0
 12 27  1  0
 13 28  1  0
M  CHG  1  16  -1
M  END
>  <UniqueID>  (90) 
84

>  <SMILES>  (90) 
N#Cc1cn(CCc2ccccc2)c(=O)[n-]c1=O

>  <Energy>  (90) 
27.701713373851348

>  <Genealogy>  (90) 
N#Cc1cn(CCc2ccccc2)c(=O)[n-]c1=O (protonated)
N#Cc1cn(CCc2ccccc2)c(=O)[n-]c1=O (3D coordinates assigned)
N#Cc1cn(CCc2ccccc2)c(=O)[n-]c1=O (optimized conformer: 27.701713373851348 kcal/mol)

>  <smiles>  (90) 
N#Cc1cn(CCc2ccccc2)c(=O)[nH]c1=O

>  <score_type>  (90) 
oracle

>  <origin>  (90) 
adg

>  <m_score__min__energy>  (90) 
-8.4600000000000009

>  <m_primary>  (90) 
energy

$$$$
90:0
     RDKit          3D

 50 53  0  0  0  0  0  0  0  0999 V2000
   54.3420   25.9220   45.6230 O   0  0  0  0  0  0  0  0  0  0  0  0
   55.4780   25.4060   45.7930 C   0  0  0  0  0  0  0  0  0  0  0  0
   56.3740   26.0200   46.7310 N   0  0  0  0  0  0  0  0  0  0  0  0
   57.6790   26.5400   46.4340 C   0  0  0  0  0  0  0  0  0  0  0  0
   58.8110   25.7500   46.6960 C   0  0  0  0  0  0  0  0  0  0  0  0
   60.0960   26.1990   46.3380 C   0  0  0  0  0  0  0  0  0  0  0  0
   60.2680   27.4490   45.7220 C   0  0  0  0  0  0  0  0  0  0  0  0
   59.1460   28.2510   45.4990 C   0  0  0  0  0  0  0  0  0  0  0  0
   59.1530   29.5190   44.9080 C   0  0  0  0  0  0  0  0  0  0  0  0
   57.8800   30.0870   44.8520 C   0  0  0  0  0  0  0  0  0  0  0  0
   57.5370   31.3540   44.1990 C   0  0  0  0  0  0  0  0  0  0  0  0
   58.0540   31.6480   43.0870 O   0  0  0  0  0  0  0  0  0  0  0  0
   56.6680   32.2770   44.8590 N   0  0  0  0  0  0  0  0  0  0  0  0
   57.0630   33.6260   45.2460 C   0  0  0  0  0  0  0  0  0  0  0  0
   58.5620   33.8740   45.0020 C   0  0  0  0  0  0  0  0  0  0  0  0
   59.4080   33.2760   46.0640 N   0  0  0  0  0  0  0  0  0  0  0  0
   60.7800   33.8460   46.0680 C   0  0  0  0  0  0  0  0  0  0  0  0
   61.4190   33.7790   47.4660 C   0  0  0  0  0  0  0  0  0  0  0  0
   60.6980   34.4980   48.4560 O   0  0  0  0  0  0  0  0  0  0  0  0
   59.3010   34.5640   48.2070 C   0  0  0  0  0  0  0  0  0  0  0  0
   58.7600   33.3720   47.3960 C   0  0  0  0  0  0  0  0  0  0  0  0
   56.7620   29.0180   45.5260 S   0  0  0  0  0  0  0  0  0  0  0  0
   57.8820   27.8090   45.8700 C   0  0  0  0  0  0  0  0  0  0  0  0
   55.8360   24.1770   45.0420 C   0  0  0  0  0  0  0  0  0  0  0  0
   56.2710   24.2720   43.7080 C   0  0  0  0  0  0  0  0  0  0  0  0
   56.6560   23.1270   43.0060 C   0  0  0  0  0  0  0  0  0  0  0  0
   56.6000   21.8740   43.6220 C   0  0  0  0  0  0  0  0  0  0  0  0
   56.9730   20.7650   42.9390 F   0  0  0  0  0  0  0  0  0  0  0  0
   56.1470   21.7660   44.9390 C   0  0  0  0  0  0  0  0  0  0  0  0
   55.7590   22.9080   45.6450 C   0  0  0  0  0  0  0  0  0  0  0  0
   58.6919   24.7720   47.1852 H   0  0  0  0  0  0  0  0  0  0  0  0
   60.9721   25.5659   46.5423 H   0  0  0  0  0  0  0  0  0  0  0  0
   61.2690   27.7909   45.4202 H   0  0  0  0  0  0  0  0  0  0  0  0
   60.0604   30.0127   44.5299 H   0  0  0  0  0  0  0  0  0  0  0  0
   56.4816   34.3503   44.6566 H   0  0  0  0  0  0  0  0  0  0  0  0
   56.8673   33.7445   46.3219 H   0  0  0  0  0  0  0  0  0  0  0  0
   58.8417   33.4312   44.0347 H   0  0  0  0  0  0  0  0  0  0  0  0
   58.7302   34.9610   45.0076 H   0  0  0  0  0  0  0  0  0  0  0  0
   61.4044   33.2777   45.3629 H   0  0  0  0  0  0  0  0  0  0  0  0
   60.7134   34.9031   45.7713 H   0  0  0  0  0  0  0  0  0  0  0  0
   61.4737   32.7242   47.7731 H   0  0  0  0  0  0  0  0  0  0  0  0
   62.4127   34.2445   47.3890 H   0  0  0  0  0  0  0  0  0  0  0  0
   58.7769   34.5928   49.1737 H   0  0  0  0  0  0  0  0  0  0  0  0
   59.1238   35.4684   47.6065 H   0  0  0  0  0  0  0  0  0  0  0  0
   58.9529   32.4440   47.9542 H   0  0  0  0  0  0  0  0  0  0  0  0
   57.6811   33.5224   47.2429 H   0  0  0  0  0  0  0  0  0  0  0  0
   56.3084   25.2542   43.2141 H   0  0  0  0  0  0  0  0  0  0  0  0
   57.0040   23.2121   41.9660 H   0  0  0  0  0  0  0  0  0  0  0  0
   56.0955   20.7790   45.4219 H   0  0  0  0  0  0  0  0  0  0  0  0
   55.3915   22.8143   46.6775 H   0  0  0  0  0  0  0  0  0  0  0  0
  1  2  2  0
  2  3  1  0
  3  4  1  0
  4  5  2  0
  5  6  1  0
  6  7  2  0
  7  8  1  0
  8  9  1  0
  9 10  2  0
 10 11  1  0
 11 12  2  0
 11 13  1  0
 13 14  1  0
 14 15  1  0
 15 16  1  0
 16 17  1  0
 17 18  1  0
 18 19  1  0
 19 20  1  0
 20 21  1  0
 10 22  1  0
 22 23  1  0
  2 24  1  0
 24 25  2  0
 25 26  1  0
 26 27  2  0
 27 28  1  0
 27 29  1  0
 29 30  2  0
 23  4  1  0
 30 24  1  0
 23  8  2  0
 21 16  1  0
  5 31  1  0
  6 32  1  0
  7 33  1  0
  9 34  1  0
 14 35  1  0
 14 36  1  0
 15 37  1  0
 15 38  1  0
 17 39  1  0
 17 40  1  0
 18 41  1  0
 18 42  1  0
 20 43  1  0
 20 44  1  0
 21 45  1  0
 21 46  1  0
 25 47  1  0
 26 48  1  0
 29 49  1  0
 30 50  1  0
M  CHG  2   3  -1  13  -1
M  END
>  <UniqueID>  (91) 
85

>  <SMILES>  (91) 
O=C([N-]c1cccc2cc(C(=O)[N-]CCN3CCOCC3)sc12)c1ccc(F)cc1

>  <Energy>  (91) 
102.62750363429831

>  <Genealogy>  (91) 
O=C([N-]c1cccc2cc(C(=O)[N-]CCN3CCOCC3)sc12)c1ccc(F)cc1 (protonated)
O=C([N-]c1cccc2cc(C(=O)[N-]CCN3CCOCC3)sc12)c1ccc(F)cc1 (3D coordinates assigned)
O=C([N-]c1cccc2cc(C(=O)[N-]CCN3CCOCC3)sc12)c1ccc(F)cc1 (nonaromatic ring conformer: 102.62750363429831 kcal/mol)

>  <smiles>  (91) 
O=C(Nc1cccc2cc(C(=O)NCCN3CCOCC3)sc12)c1ccc(F)cc1

>  <score_type>  (91) 
oracle

>  <origin>  (91) 
adg

>  <m_score__min__energy>  (91) 
-12.029999999999999

>  <m_primary>  (91) 
energy

$$$$
91:0
     RDKit          3D

 51 54  0  0  0  0  0  0  0  0999 V2000
   54.7826   22.5281   44.2896 H   0  0  0  0  0  0  0  0  0  0  0  0
   55.1630   23.4880   44.6690 C   0  0  0  0  0  0  0  0  0  0  0  0
   54.2820   24.4360   45.2040 C   0  0  0  0  0  0  0  0  0  0  0  0
   52.8120   24.1670   45.2500 C   0  0  0  0  0  0  0  0  0  0  0  0
   52.4829   24.1068   46.2979 H   0  0  0  0  0  0  0  0  0  0  0  0
   52.2741   24.9816   44.7430 H   0  0  0  0  0  0  0  0  0  0  0  0
   52.5975   23.2147   44.7430 H   0  0  0  0  0  0  0  0  0  0  0  0
   54.7660   25.6260   45.6530 N   0  0  0  0  0  0  0  0  0  0  0  0
   56.0950   25.9300   45.6180 C   0  0  0  0  0  0  0  0  0  0  0  0
   56.5420   27.0720   46.0550 N   0  0  0  0  0  0  0  0  0  0  0  0
   57.3340   28.0270   45.3280 C   0  0  0  0  0  0  0  0  0  0  0  0
   58.2990   27.6570   44.6030 O   0  0  0  0  0  0  0  0  0  0  0  0
   57.0060   29.4910   45.4470 C   0  0  0  0  0  0  0  0  0  0  0  0
   56.0176   29.5869   45.9201 H   0  0  0  0  0  0  0  0  0  0  0  0
   56.9120   30.1450   44.0500 C   0  0  0  0  0  0  0  0  0  0  0  0
   57.6673   29.6966   43.3879 H   0  0  0  0  0  0  0  0  0  0  0  0
   55.9046   29.9748   43.6423 H   0  0  0  0  0  0  0  0  0  0  0  0
   57.1600   31.6520   44.1510 C   0  0  0  0  0  0  0  0  0  0  0  0
   57.0092   32.1065   43.1607 H   0  0  0  0  0  0  0  0  0  0  0  0
   56.4548   32.0701   44.8844 H   0  0  0  0  0  0  0  0  0  0  0  0
   58.5360   31.9440   44.6100 N   0  0  0  0  0  0  0  0  0  0  0  0
   58.6450   33.5780   45.2230 S   0  0  0  0  0  0  0  0  0  0  0  0
   57.2770   34.0570   45.6250 O   0  0  0  0  0  0  0  0  0  0  0  0
   59.1530   34.4820   44.1350 O   0  0  0  0  0  0  0  0  0  0  0  0
   59.7290   33.6760   46.6140 C   0  0  0  0  0  0  0  0  0  0  0  0
   59.2400   34.1010   47.8580 C   0  0  0  0  0  0  0  0  0  0  0  0
   58.1736   34.3463   47.9708 H   0  0  0  0  0  0  0  0  0  0  0  0
   60.0980   34.2150   48.9550 C   0  0  0  0  0  0  0  0  0  0  0  0
   59.7047   34.5490   49.9265 H   0  0  0  0  0  0  0  0  0  0  0  0
   61.4580   33.9050   48.8210 C   0  0  0  0  0  0  0  0  0  0  0  0
   61.9540   33.4680   47.5720 C   0  0  0  0  0  0  0  0  0  0  0  0
   61.0850   33.3510   46.4770 C   0  0  0  0  0  0  0  0  0  0  0  0
   61.4696   33.0028   45.5071 H   0  0  0  0  0  0  0  0  0  0  0  0
   63.3140   33.1650   47.4480 C   0  0  0  0  0  0  0  0  0  0  0  0
   63.7169   32.8213   46.4839 H   0  0  0  0  0  0  0  0  0  0  0  0
   64.1580   33.3000   48.5510 C   0  0  0  0  0  0  0  0  0  0  0  0
   65.2290   33.0658   48.4607 H   0  0  0  0  0  0  0  0  0  0  0  0
   63.6330   33.7350   49.7720 C   0  0  0  0  0  0  0  0  0  0  0  0
   64.3920   33.8580   50.7710 O   0  0  0  0  0  0  0  0  0  0  0  0
   62.3060   34.0250   49.8850 N   0  0  0  0  0  0  0  0  0  0  0  0
   61.9380   34.3490   50.8100 H   0  0  0  0  0  0  0  0  0  0  0  0
   59.0940   30.9600   45.5710 C   0  0  0  0  0  0  0  0  0  0  0  0
   59.6828   30.2185   45.0110 H   0  0  0  0  0  0  0  0  0  0  0  0
   59.7119   31.5174   46.2904 H   0  0  0  0  0  0  0  0  0  0  0  0
   58.0110   30.2210   46.3720 C   0  0  0  0  0  0  0  0  0  0  0  0
   58.4952   29.4806   47.0258 H   0  0  0  0  0  0  0  0  0  0  0  0
   57.4544   30.9654   46.9602 H   0  0  0  0  0  0  0  0  0  0  0  0
   56.9990   24.9970   45.0970 C   0  0  0  0  0  0  0  0  0  0  0  0
   58.0740   25.2276   45.0624 H   0  0  0  0  0  0  0  0  0  0  0  0
   56.5280   23.7730   44.6220 C   0  0  0  0  0  0  0  0  0  0  0  0
   57.2314   23.0338   44.2111 H   0  0  0  0  0  0  0  0  0  0  0  0
  1  2  1  0
  2  3  2  0
  3  4  1  0
  4  5  1  0
  4  6  1  0
  4  7  1  0
  3  8  1  0
  8  9  1  0
  9 10  2  0
 10 11  1  0
 11 12  2  0
 11 13  1  0
 13 14  1  0
 13 15  1  0
 15 16  1  0
 15 17  1  0
 15 18  1  0
 18 19  1  0
 18 20  1  0
 18 21  1  0
 21 22  1  0
 22 23  2  0
 22 24  2  0
 22 25  1  0
 25 26  2  0
 26 27  1  0
 26 28  1  0
 28 29  1  0
 28 30  2  0
 30 31  1  0
 31 32  2  0
 32 33  1  0
 31 34  1  0
 34 35  1  0
 34 36  2  0
 36 37  1  0
 36 38  1  0
 38 39  2  0
 38 40  1  0
 40 41  1  0
 21 42  1  0
 42 43  1  0
 42 44  1  0
 42 45  1  0
 45 46  1  0
 45 47  1  0
  9 48  1  0
 48 49  1  0
 48 50  2  0
 50 51  1  0
 50  2  1  0
 45 13  1  0
 32 25  1  0
 40 30  1  0
M  CHG  1   8  -1
M  END
>  <UniqueID>  (92) 
86

>  <SMILES>  (92) 
Cc1ccc/c(=N/C(=O)C2CCN(S(=O)(=O)c3ccc4[nH]c(=O)ccc4c3)CC2)[n-]1

>  <Energy>  (92) 
65.10729745465828

>  <Genealogy>  (92) 
Cc1cccc(=NC(=O)C2CCN(S(=O)(=O)c3ccc4[nH]c(=O)ccc4c3)CC2)[n-]1 (protonated)
Cc1ccc/c(=N/C(=O)C2CCN(S(=O)(=O)c3ccc4[nH]c(=O)ccc4c3)CC2)[n-]1 (cis-trans isomerization)
Cc1ccc/c(=N/C(=O)C2CCN(S(=O)(=O)c3ccc4[nH]c(=O)ccc4c3)CC2)[n-]1 (3D coordinates assigned)
Cc1ccc/c(=N/C(=O)C2CCN(S(=O)(=O)c3ccc4[nH]c(=O)ccc4c3)CC2)[n-]1 (nonaromatic ring conformer: 65.10729745465828 kcal/mol)

>  <smiles>  (92) 
Cc1cccc(=NC(=O)C2CCN(S(=O)(=O)c3ccc4[nH]c(=O)ccc4c3)CC2)[nH]1

>  <score_type>  (92) 
oracle

>  <origin>  (92) 
adg

>  <m_score__min__energy>  (92) 
-12.33

>  <m_primary>  (92) 
energy

$$$$
92:0
     RDKit          3D

 33 33  0  0  0  0  0  0  0  0999 V2000
   65.4910   32.4130   50.1340 C   0  0  0  0  0  0  0  0  0  0  0  0
   64.1070   32.3990   49.4840 C   0  0  0  0  0  0  0  0  0  0  0  0
   63.9970   33.3960   48.3120 C   0  0  0  0  0  0  0  0  0  0  0  0
   63.2300   32.8370   47.1020 C   0  0  0  0  0  0  0  0  0  0  0  0
   62.2060   33.8260   46.5360 C   0  0  0  0  0  0  0  0  0  0  0  0
   60.9170   34.2150   47.7720 S   0  0  0  0  0  0  0  0  0  0  0  0
   59.5830   33.4090   46.8790 C   0  0  0  0  0  0  0  0  0  0  0  0
   58.7240   34.1630   46.0740 C   0  0  0  0  0  0  0  0  0  0  0  0
   57.6870   33.5340   45.3750 C   0  0  0  0  0  0  0  0  0  0  0  0
   57.5040   32.1490   45.4650 C   0  0  0  0  0  0  0  0  0  0  0  0
   56.4460   31.5780   44.7440 O   0  0  0  0  0  0  0  0  0  0  0  0
   56.4480   30.0100   44.0550 S   0  0  0  0  0  0  0  0  0  0  0  0
   55.5110   28.9300   45.0280 N   0  0  0  0  0  0  0  0  0  0  0  0
   57.8630   29.5090   44.0020 O   0  0  0  0  0  0  0  0  0  0  0  0
   55.8950   30.0550   42.6590 O   0  0  0  0  0  0  0  0  0  0  0  0
   58.3760   31.3940   46.2730 C   0  0  0  0  0  0  0  0  0  0  0  0
   59.4130   32.0240   46.9700 C   0  0  0  0  0  0  0  0  0  0  0  0
   65.3820   32.4119   51.2286 H   0  0  0  0  0  0  0  0  0  0  0  0
   66.0524   31.5205   49.8205 H   0  0  0  0  0  0  0  0  0  0  0  0
   66.0342   33.3167   49.8205 H   0  0  0  0  0  0  0  0  0  0  0  0
   63.9046   31.3860   49.1061 H   0  0  0  0  0  0  0  0  0  0  0  0
   63.3747   32.6982   50.2484 H   0  0  0  0  0  0  0  0  0  0  0  0
   63.4761   34.2968   48.6687 H   0  0  0  0  0  0  0  0  0  0  0  0
   65.0211   33.6130   47.9742 H   0  0  0  0  0  0  0  0  0  0  0  0
   63.9538   32.5902   46.3112 H   0  0  0  0  0  0  0  0  0  0  0  0
   62.6775   31.9491   47.4431 H   0  0  0  0  0  0  0  0  0  0  0  0
   62.7224   34.7544   46.2507 H   0  0  0  0  0  0  0  0  0  0  0  0
   61.7240   33.3678   45.6598 H   0  0  0  0  0  0  0  0  0  0  0  0
   58.8630   35.2509   45.9898 H   0  0  0  0  0  0  0  0  0  0  0  0
   57.0096   34.1336   44.7492 H   0  0  0  0  0  0  0  0  0  0  0  0
   54.5940   29.3890   45.2190 H   0  0  0  0  0  0  0  0  0  0  0  0
   58.2415   30.3055   46.3565 H   0  0  0  0  0  0  0  0  0  0  0  0
   60.0969   31.4276   47.5917 H   0  0  0  0  0  0  0  0  0  0  0  0
  1  2  1  0
  2  3  1  0
  3  4  1  0
  4  5  1  0
  5  6  1  0
  6  7  1  0
  7  8  2  0
  8  9  1  0
  9 10  2  0
 10 11  1  0
 11 12  1  0
 12 13  1  0
 12 14  2  0
 12 15  2  0
 10 16  1  0
 16 17  2  0
 17  7  1  0
  1 18  1  0
  1 19  1  0
  1 20  1  0
  2 21  1  0
  2 22  1  0
  3 23  1  0
  3 24  1  0
  4 25  1  0
  4 26  1  0
  5 27  1  0
  5 28  1  0
  8 29  1  0
  9 30  1  0
 13 31  1  0
 16 32  1  0
 17 33  1  0
M  CHG  1  13  -1
M  END
>  <UniqueID>  (93) 
87

>  <SMILES>  (93) 
CCCCCSc1ccc(OS([NH-])(=O)=O)cc1

>  <Energy>  (93) 
19.976731131925654

>  <Genealogy>  (93) 
CCCCCSc1ccc(OS([NH-])(=O)=O)cc1 (protonated)
CCCCCSc1ccc(OS([NH-])(=O)=O)cc1 (3D coordinates assigned)
CCCCCSc1ccc(OS([NH-])(=O)=O)cc1 (optimized conformer: 19.976731131925654 kcal/mol)

>  <smiles>  (93) 
CCCCCSc1ccc(OS(N)(=O)=O)cc1

>  <score_type>  (93) 
oracle

>  <origin>  (93) 
adg

>  <m_score__min__energy>  (93) 
-9.4000000000000004

>  <m_primary>  (93) 
energy

$$$$
93:0
     RDKit          3D

 60 63  0  0  0  0  0  0  0  0999 V2000
   56.7230   34.3540   44.9000 O   0  0  0  0  0  0  0  0  0  0  0  0
   57.7590   33.2830   45.0890 S   0  0  0  0  0  0  0  0  0  0  0  0
   58.8440   33.4820   44.0680 O   0  0  0  0  0  0  0  0  0  0  0  0
   57.0160   31.7240   44.8730 N   0  0  0  0  0  0  0  0  0  0  0  0
   57.1700   31.2500   43.4960 C   0  0  0  0  0  0  0  0  0  0  0  0
   56.6470   29.8170   43.3700 C   0  0  0  0  0  0  0  0  0  0  0  0
   56.4890   29.1080   44.7310 C   0  0  0  0  0  0  0  0  0  0  0  0
   57.3490   27.8940   44.8630 N   0  0  2  0  0  0  0  0  0  0  0  0
   57.5570   27.4970   46.2750 C   0  0  0  0  0  0  0  0  0  0  0  0
   58.5190   28.3990   47.0050 C   0  0  0  0  0  0  0  0  0  0  0  0
   59.4720   29.1040   46.3710 C   0  0  0  0  0  0  0  0  0  0  0  0
   60.4330   29.9400   47.1370 C   0  0  0  0  0  0  0  0  0  0  0  0
   60.7660   29.8350   48.4830 C   0  0  0  0  0  0  0  0  0  0  0  0
   61.6960   30.8220   48.7380 C   0  0  0  0  0  0  0  0  0  0  0  0
   61.9430   31.5110   47.6110 N   0  0  0  0  0  0  0  0  0  0  0  0
   63.0070   32.8640   47.4510 S   0  0  0  0  0  0  0  0  0  0  0  0
   62.2530   34.0320   46.8790 O   0  0  0  0  0  0  0  0  0  0  0  0
   64.1310   32.5220   46.5130 O   0  0  0  0  0  0  0  0  0  0  0  0
   63.6590   33.2770   49.0320 C   0  0  0  0  0  0  0  0  0  0  0  0
   64.9020   32.7690   49.4360 C   0  0  0  0  0  0  0  0  0  0  0  0
   65.4090   33.0800   50.7030 C   0  0  0  0  0  0  0  0  0  0  0  0
   64.6740   33.8930   51.5710 C   0  0  0  0  0  0  0  0  0  0  0  0
   63.4290   34.3930   51.1760 C   0  0  0  0  0  0  0  0  0  0  0  0
   62.9210   34.0830   49.9110 C   0  0  0  0  0  0  0  0  0  0  0  0
   61.1840   30.9900   46.6320 C   0  0  0  0  0  0  0  0  0  0  0  0
   59.5140   29.1510   44.8600 C   0  0  0  0  0  0  0  0  0  0  0  0
   58.6590   28.0590   44.1970 C   0  0  0  0  0  0  0  0  0  0  0  0
   58.4230   33.4080   46.7160 C   0  0  0  0  0  0  0  0  0  0  0  0
   59.2230   34.5020   47.0820 C   0  0  0  0  0  0  0  0  0  0  0  0
   59.7580   34.5800   48.3710 C   0  0  0  0  0  0  0  0  0  0  0  0
   59.5000   33.5680   49.2990 C   0  0  0  0  0  0  0  0  0  0  0  0
   58.7080   32.4740   48.9390 C   0  0  0  0  0  0  0  0  0  0  0  0
   58.1710   32.3930   47.6510 C   0  0  0  0  0  0  0  0  0  0  0  0
   56.6011   31.9054   42.8201 H   0  0  0  0  0  0  0  0  0  0  0  0
   58.2363   31.2685   43.2266 H   0  0  0  0  0  0  0  0  0  0  0  0
   55.6656   29.8450   42.8739 H   0  0  0  0  0  0  0  0  0  0  0  0
   57.3869   29.2480   42.7880 H   0  0  0  0  0  0  0  0  0  0  0  0
   56.7588   29.8164   45.5281 H   0  0  0  0  0  0  0  0  0  0  0  0
   55.4425   28.7785   44.8094 H   0  0  0  0  0  0  0  0  0  0  0  0
   56.8830   27.0880   44.3840 H   0  0  0  0  0  0  0  0  0  0  0  0
   56.5874   27.5257   46.7936 H   0  0  0  0  0  0  0  0  0  0  0  0
   57.9914   26.4864   46.2720 H   0  0  0  0  0  0  0  0  0  0  0  0
   58.4381   28.4837   48.0988 H   0  0  0  0  0  0  0  0  0  0  0  0
   60.3660   29.1069   49.2040 H   0  0  0  0  0  0  0  0  0  0  0  0
   62.1637   31.0153   49.7146 H   0  0  0  0  0  0  0  0  0  0  0  0
   65.4794   32.1252   48.7562 H   0  0  0  0  0  0  0  0  0  0  0  0
   66.3865   32.6844   51.0160 H   0  0  0  0  0  0  0  0  0  0  0  0
   65.0751   34.1395   52.5651 H   0  0  0  0  0  0  0  0  0  0  0  0
   62.8497   35.0300   51.8605 H   0  0  0  0  0  0  0  0  0  0  0  0
   61.9392   34.4726   49.6040 H   0  0  0  0  0  0  0  0  0  0  0  0
   61.1621   31.3425   45.5902 H   0  0  0  0  0  0  0  0  0  0  0  0
   59.1442   30.1331   44.5302 H   0  0  0  0  0  0  0  0  0  0  0  0
   60.5572   28.9794   44.5561 H   0  0  0  0  0  0  0  0  0  0  0  0
   58.4897   28.3317   43.1449 H   0  0  0  0  0  0  0  0  0  0  0  0
   59.2030   27.1066   44.2811 H   0  0  0  0  0  0  0  0  0  0  0  0
   59.4292   35.2994   46.3529 H   0  0  0  0  0  0  0  0  0  0  0  0
   60.3830   35.4394   48.6551 H   0  0  0  0  0  0  0  0  0  0  0  0
   59.9204   33.6322   50.3135 H   0  0  0  0  0  0  0  0  0  0  0  0
   58.5072   31.6765   49.6695 H   0  0  0  0  0  0  0  0  0  0  0  0
   57.5488   31.5306   47.3697 H   0  0  0  0  0  0  0  0  0  0  0  0
  1  2  2  0
  2  3  2  0
  2  4  1  0
  4  5  1  0
  5  6  1  0
  6  7  1  0
  7  8  1  0
  8  9  1  0
  9 10  1  0
 10 11  2  0
 11 12  1  0
 12 13  1  0
 13 14  2  0
 14 15  1  0
 15 16  1  0
 16 17  2  0
 16 18  2  0
 16 19  1  0
 19 20  2  0
 20 21  1  0
 21 22  2  0
 22 23  1  0
 23 24  2  0
 15 25  1  0
 11 26  1  0
 26 27  1  0
  2 28  1  0
 28 29  2  0
 29 30  1  0
 30 31  2  0
 31 32  1  0
 32 33  2  0
 27  8  1  0
 33 28  1  0
 25 12  2  0
 24 19  1  0
  5 34  1  0
  5 35  1  0
  6 36  1  0
  6 37  1  0
  7 38  1  0
  7 39  1  0
  8 40  1  6
  9 41  1  0
  9 42  1  0
 10 43  1  0
 13 44  1  0
 14 45  1  0
 20 46  1  0
 21 47  1  0
 22 48  1  0
 23 49  1  0
 24 50  1  0
 25 51  1  0
 26 52  1  0
 26 53  1  0
 27 54  1  0
 27 55  1  0
 29 56  1  0
 30 57  1  0
 31 58  1  0
 32 59  1  0
 33 60  1  0
M  CHG  2   4  -1   8   1
M  END
>  <UniqueID>  (94) 
88

>  <SMILES>  (94) 
O=S(=O)([N-]CCC[N@@H+]1CC=C(c2ccn(S(=O)(=O)c3ccccc3)c2)CC1)c1ccccc1

>  <Energy>  (94) 
97.00045131870999

>  <Genealogy>  (94) 
O=S(=O)([N-]CCC[NH+]1CC=C(c2ccn(S(=O)(=O)c3ccccc3)c2)CC1)c1ccccc1 (protonated)
O=S(=O)([N-]CCC[N@@H+]1CC=C(c2ccn(S(=O)(=O)c3ccccc3)c2)CC1)c1ccccc1 (chirality)
O=S(=O)([N-]CCC[N@@H+]1CC=C(c2ccn(S(=O)(=O)c3ccccc3)c2)CC1)c1ccccc1 (3D coordinates assigned)
O=S(=O)([N-]CCC[N@@H+]1CC=C(c2ccn(S(=O)(=O)c3ccccc3)c2)CC1)c1ccccc1 (nonaromatic ring conformer: 97.00045131870999 kcal/mol)

>  <smiles>  (94) 
O=S(=O)(NCCCN1CC=C(c2ccn(S(=O)(=O)c3ccccc3)c2)CC1)c1ccccc1

>  <score_type>  (94) 
oracle

>  <origin>  (94) 
adg

>  <m_score__min__energy>  (94) 
-10.24

>  <m_primary>  (94) 
energy

$$$$
94:0
     RDKit          3D

 46 49  0  0  0  0  0  0  0  0999 V2000
   57.4084   32.8408   42.6535 H   0  0  0  0  0  0  0  0  0  0  0  0
   57.4900   32.7050   43.7420 C   0  0  0  0  0  0  0  0  0  0  0  0
   57.4100   31.3190   44.2520 C   0  0  0  0  0  0  0  0  0  0  0  0
   56.3900   30.9090   44.8670 O   0  0  0  0  0  0  0  0  0  0  0  0
   58.5270   30.4380   44.0530 N   0  0  0  0  0  0  0  0  0  0  0  0
   59.1210   30.5960   43.2070 H   0  0  0  0  0  0  0  0  0  0  0  0
   58.9270   29.4070   44.9770 C   0  0  0  0  0  0  0  0  0  0  0  0
   59.0920   28.0990   44.5100 C   0  0  0  0  0  0  0  0  0  0  0  0
   58.9103   27.8699   43.4496 H   0  0  0  0  0  0  0  0  0  0  0  0
   59.4850   27.0850   45.3800 C   0  0  0  0  0  0  0  0  0  0  0  0
   59.5655   26.0512   45.0130 H   0  0  0  0  0  0  0  0  0  0  0  0
   59.7780   27.3720   46.7170 C   0  0  0  0  0  0  0  0  0  0  0  0
   60.0760   26.3510   47.5600 N   0  0  0  0  0  0  0  0  0  0  0  0
   60.3280   26.5580   48.8750 C   0  0  0  0  0  0  0  0  0  0  0  0
   60.5253   25.7018   49.5368 H   0  0  0  0  0  0  0  0  0  0  0  0
   60.3380   27.8500   49.3910 C   0  0  0  0  0  0  0  0  0  0  0  0
   60.5217   28.0073   50.4641 H   0  0  0  0  0  0  0  0  0  0  0  0
   60.1160   28.9530   48.5550 C   0  0  0  0  0  0  0  0  0  0  0  0
   60.3200   30.1310   49.0890 N   0  0  0  0  0  0  0  0  0  0  0  0
   61.5410   30.8620   49.2650 C   0  0  0  0  0  0  0  0  0  0  0  0
   62.2820   30.7470   50.4520 C   0  0  0  0  0  0  0  0  0  0  0  0
   61.9119   30.1127   51.2709 H   0  0  0  0  0  0  0  0  0  0  0  0
   63.4890   31.4370   50.5950 C   0  0  0  0  0  0  0  0  0  0  0  0
   64.0755   31.3301   51.5194 H   0  0  0  0  0  0  0  0  0  0  0  0
   63.9540   32.2640   49.5650 C   0  0  0  0  0  0  0  0  0  0  0  0
   65.4890   33.0980   49.7720 Cl  0  0  0  0  0  0  0  0  0  0  0  0
   63.1920   32.4160   48.3940 C   0  0  0  0  0  0  0  0  0  0  0  0
   63.7340   33.4560   47.0840 Cl  0  0  0  0  0  0  0  0  0  0  0  0
   61.9820   31.7260   48.2560 C   0  0  0  0  0  0  0  0  0  0  0  0
   61.3743   31.8635   47.3495 H   0  0  0  0  0  0  0  0  0  0  0  0
   59.7320   28.7090   47.1940 C   0  0  0  0  0  0  0  0  0  0  0  0
   59.2220   29.6980   46.3220 C   0  0  0  0  0  0  0  0  0  0  0  0
   59.0522   30.7160   46.7026 H   0  0  0  0  0  0  0  0  0  0  0  0
   57.6530   33.8140   44.4830 C   0  0  0  0  0  0  0  0  0  0  0  0
   57.2407   34.7523   44.0836 H   0  0  0  0  0  0  0  0  0  0  0  0
   58.3390   33.8780   45.7880 C   0  0  0  0  0  0  0  0  0  0  0  0
   57.8910   33.0660   46.8420 C   0  0  0  0  0  0  0  0  0  0  0  0
   57.0161   32.4147   46.6991 H   0  0  0  0  0  0  0  0  0  0  0  0
   58.5540   33.0830   48.0730 C   0  0  0  0  0  0  0  0  0  0  0  0
   58.1887   32.4595   48.9023 H   0  0  0  0  0  0  0  0  0  0  0  0
   59.6800   33.8910   48.2510 C   0  0  0  0  0  0  0  0  0  0  0  0
   60.1953   33.9094   49.2227 H   0  0  0  0  0  0  0  0  0  0  0  0
   60.1520   34.6760   47.1950 C   0  0  0  0  0  0  0  0  0  0  0  0
   61.0435   35.3052   47.3337 H   0  0  0  0  0  0  0  0  0  0  0  0
   59.4920   34.6620   45.9630 C   0  0  0  0  0  0  0  0  0  0  0  0
   59.8762   35.2664   45.1281 H   0  0  0  0  0  0  0  0  0  0  0  0
  1  2  1  0
  2  3  1  0
  3  4  2  0
  3  5  1  0
  5  6  1  0
  5  7  1  0
  7  8  2  0
  8  9  1  0
  8 10  1  0
 10 11  1  0
 10 12  2  0
 12 13  1  0
 13 14  1  0
 14 15  1  0
 14 16  2  0
 16 17  1  0
 16 18  1  0
 18 19  2  3
 19 20  1  0
 20 21  2  0
 21 22  1  0
 21 23  1  0
 23 24  1  0
 23 25  2  0
 25 26  1  0
 25 27  1  0
 27 28  1  0
 27 29  2  0
 29 30  1  0
 18 31  1  0
 31 32  2  0
 32 33  1  0
  2 34  2  0
 34 35  1  0
 34 36  1  0
 36 37  2  0
 37 38  1  0
 37 39  1  0
 39 40  1  0
 39 41  2  0
 41 42  1  0
 41 43  1  0
 43 44  1  0
 43 45  2  0
 45 46  1  0
 32  7  1  0
 45 36  1  0
 31 12  1  0
 29 20  1  0
M  CHG  1  13  -1
M  END
>  <UniqueID>  (95) 
89

>  <SMILES>  (95) 
O=C(/C=C\c1ccccc1)Nc1ccc2[n-]ccc(=Nc3ccc(Cl)c(Cl)c3)c2c1

>  <Energy>  (95) 
84.32423776637174

>  <Genealogy>  (95) 
O=C(C=Cc1ccccc1)Nc1ccc2[n-]ccc(=Nc3ccc(Cl)c(Cl)c3)c2c1 (protonated)
O=C(/C=C\c1ccccc1)Nc1ccc2[n-]ccc(=Nc3ccc(Cl)c(Cl)c3)c2c1 (cis-trans isomerization)
O=C(/C=C\c1ccccc1)Nc1ccc2[n-]ccc(=Nc3ccc(Cl)c(Cl)c3)c2c1 (3D coordinates assigned)
O=C(/C=C\c1ccccc1)Nc1ccc2[n-]ccc(=Nc3ccc(Cl)c(Cl)c3)c2c1 (optimized conformer: 84.32423776637174 kcal/mol)

>  <smiles>  (95) 
O=C(C=Cc1ccccc1)Nc1ccc2[nH]ccc(=Nc3ccc(Cl)c(Cl)c3)c2c1

>  <score_type>  (95) 
oracle

>  <origin>  (95) 
adg

>  <m_score__min__energy>  (95) 
-11.15

>  <m_primary>  (95) 
energy

$$$$
95:0
     RDKit          3D

 37 38  0  0  0  0  0  0  0  0999 V2000
   63.8880   33.1210   47.5740 C   0  0  0  0  0  0  0  0  0  0  0  0
   62.4640   33.5930   47.6040 C   0  0  0  0  0  0  0  0  0  0  0  0
   61.8070   33.7850   48.8290 C   0  0  0  0  0  0  0  0  0  0  0  0
   60.4730   34.1940   48.8520 C   0  0  0  0  0  0  0  0  0  0  0  0
   59.7830   34.4080   47.6570 C   0  0  0  0  0  0  0  0  0  0  0  0
   60.4160   34.2100   46.4250 C   0  0  0  0  0  0  0  0  0  0  0  0
   59.6790   34.4490   45.2530 O   0  0  0  0  0  0  0  0  0  0  0  0
   58.2590   34.5880   45.1860 C   0  0  0  0  0  0  0  0  0  0  0  0
   57.5980   33.2490   45.0580 C   0  0  0  0  0  0  0  0  0  0  0  0
   56.3600   33.1460   45.2740 O   0  0  0  0  0  0  0  0  0  0  0  0
   58.3580   32.1080   44.6340 N   0  0  0  0  0  0  0  0  0  0  0  0
   57.9840   30.7500   44.9180 C   0  0  0  0  0  0  0  0  0  0  0  0
   56.7090   30.2560   44.5860 C   0  0  0  0  0  0  0  0  0  0  0  0
   56.3570   28.9410   44.9000 C   0  0  0  0  0  0  0  0  0  0  0  0
   57.2690   28.1030   45.5550 C   0  0  0  0  0  0  0  0  0  0  0  0
   56.8160   26.4530   45.9650 S   0  0  0  0  0  0  0  0  0  0  0  0
   55.0940   26.3200   46.0090 N   0  0  0  0  0  0  0  0  0  0  0  0
   57.3790   26.0870   47.3100 O   0  0  0  0  0  0  0  0  0  0  0  0
   57.3670   25.5040   44.9380 O   0  0  0  0  0  0  0  0  0  0  0  0
   58.5290   28.6000   45.9140 C   0  0  0  0  0  0  0  0  0  0  0  0
   58.8810   29.9160   45.6000 C   0  0  0  0  0  0  0  0  0  0  0  0
   61.7610   33.7860   46.4040 C   0  0  0  0  0  0  0  0  0  0  0  0
   64.2557   32.9991   48.6036 H   0  0  0  0  0  0  0  0  0  0  0  0
   63.9436   32.1564   47.0482 H   0  0  0  0  0  0  0  0  0  0  0  0
   64.5087   33.8615   47.0482 H   0  0  0  0  0  0  0  0  0  0  0  0
   62.3446   33.6128   49.7731 H   0  0  0  0  0  0  0  0  0  0  0  0
   59.9634   34.3483   49.8145 H   0  0  0  0  0  0  0  0  0  0  0  0
   58.7331   34.7350   47.6844 H   0  0  0  0  0  0  0  0  0  0  0  0
   57.9013   35.0805   46.1023 H   0  0  0  0  0  0  0  0  0  0  0  0
   58.0054   35.1920   44.3023 H   0  0  0  0  0  0  0  0  0  0  0  0
   59.2280   32.2780   44.0790 H   0  0  0  0  0  0  0  0  0  0  0  0
   55.9852   30.9090   44.0763 H   0  0  0  0  0  0  0  0  0  0  0  0
   55.3598   28.5620   44.6319 H   0  0  0  0  0  0  0  0  0  0  0  0
   54.7450   27.0850   46.6290 H   0  0  0  0  0  0  0  0  0  0  0  0
   59.2431   27.9529   46.4444 H   0  0  0  0  0  0  0  0  0  0  0  0
   59.8699   30.3002   45.8904 H   0  0  0  0  0  0  0  0  0  0  0  0
   62.2623   33.6054   45.4417 H   0  0  0  0  0  0  0  0  0  0  0  0
  1  2  1  0
  2  3  2  0
  3  4  1  0
  4  5  2  0
  5  6  1  0
  6  7  1  0
  7  8  1  0
  8  9  1  0
  9 10  2  0
  9 11  1  0
 11 12  1  0
 12 13  2  0
 13 14  1  0
 14 15  2  0
 15 16  1  0
 16 17  1  0
 16 18  2  0
 16 19  2  0
 15 20  1  0
 20 21  2  0
  6 22  2  0
 22  2  1  0
 21 12  1  0
  1 23  1  0
  1 24  1  0
  1 25  1  0
  3 26  1  0
  4 27  1  0
  5 28  1  0
  8 29  1  0
  8 30  1  0
 11 31  1  0
 13 32  1  0
 14 33  1  0
 17 34  1  0
 20 35  1  0
 21 36  1  0
 22 37  1  0
M  CHG  1  17  -1
M  END
>  <UniqueID>  (96) 
90

>  <SMILES>  (96) 
Cc1cccc(OCC(=O)Nc2ccc(S([NH-])(=O)=O)cc2)c1

>  <Energy>  (96) 
37.94905081924281

>  <Genealogy>  (96) 
Cc1cccc(OCC(=O)Nc2ccc(S([NH-])(=O)=O)cc2)c1 (protonated)
Cc1cccc(OCC(=O)Nc2ccc(S([NH-])(=O)=O)cc2)c1 (3D coordinates assigned)
Cc1cccc(OCC(=O)Nc2ccc(S([NH-])(=O)=O)cc2)c1 (optimized conformer: 37.94905081924281 kcal/mol)

>  <smiles>  (96) 
Cc1cccc(OCC(=O)Nc2ccc(S(N)(=O)=O)cc2)c1

>  <score_type>  (96) 
oracle

>  <origin>  (96) 
adg

>  <m_score__min__energy>  (96) 
-10.66

>  <m_primary>  (96) 
energy

$$$$
96:0
     RDKit          3D

 41 43  0  0  0  0  0  0  0  0999 V2000
   59.7820   33.4270   50.0810 C   0  0  0  0  0  0  0  0  0  0  0  0
   60.3180   34.5450   49.4090 O   0  0  0  0  0  0  0  0  0  0  0  0
   61.7070   34.3730   49.1930 C   0  0  0  0  0  0  0  0  0  0  0  0
   62.0060   34.1580   47.7030 C   0  0  0  0  0  0  0  0  0  0  0  0
   61.0910   33.1520   47.1130 N   0  0  0  0  0  0  0  0  0  0  0  0
   61.3250   31.7990   47.2550 C   0  0  0  0  0  0  0  0  0  0  0  0
   62.6430   31.2230   48.0640 S   0  0  0  0  0  0  0  0  0  0  0  0
   60.4580   30.8920   46.7260 N   0  0  0  0  0  0  0  0  0  0  0  0
   59.3420   31.2810   46.0570 C   0  0  0  0  0  0  0  0  0  0  0  0
   58.4580   30.3240   45.5320 C   0  0  0  0  0  0  0  0  0  0  0  0
   57.2890   30.7260   44.8710 C   0  0  0  0  0  0  0  0  0  0  0  0
   56.3410   29.7100   44.3790 C   0  0  0  0  0  0  0  0  0  0  0  0
   55.9480   29.7660   43.1840 O   0  0  0  0  0  0  0  0  0  0  0  0
   55.8950   28.6250   45.2060 N   0  0  0  0  0  0  0  0  0  0  0  0
   56.7480   27.5830   45.7750 C   0  0  0  0  0  0  0  0  0  0  0  0
   56.1050   26.2370   45.6420 C   0  0  0  0  0  0  0  0  0  0  0  0
   56.7630   25.0450   45.4100 C   0  0  0  0  0  0  0  0  0  0  0  0
   55.7820   24.0780   45.4040 C   0  0  0  0  0  0  0  0  0  0  0  0
   54.5900   24.7370   45.6310 C   0  0  0  0  0  0  0  0  0  0  0  0
   54.8160   26.0230   45.7670 O   0  0  0  0  0  0  0  0  0  0  0  0
   57.0250   32.0910   44.7000 C   0  0  0  0  0  0  0  0  0  0  0  0
   57.9040   33.0480   45.2120 C   0  0  0  0  0  0  0  0  0  0  0  0
   59.0650   32.6490   45.9010 C   0  0  0  0  0  0  0  0  0  0  0  0
   59.9650   33.5790   46.4480 C   0  0  0  0  0  0  0  0  0  0  0  0
   59.7270   34.8140   46.3250 O   0  0  0  0  0  0  0  0  0  0  0  0
   59.8563   33.5819   51.1675 H   0  0  0  0  0  0  0  0  0  0  0  0
   58.7259   33.3018   49.7998 H   0  0  0  0  0  0  0  0  0  0  0  0
   60.3457   32.5252   49.7998 H   0  0  0  0  0  0  0  0  0  0  0  0
   62.2397   35.2701   49.5416 H   0  0  0  0  0  0  0  0  0  0  0  0
   62.0427   33.4864   49.7508 H   0  0  0  0  0  0  0  0  0  0  0  0
   61.8814   35.1125   47.1706 H   0  0  0  0  0  0  0  0  0  0  0  0
   63.0382   33.7909   47.6040 H   0  0  0  0  0  0  0  0  0  0  0  0
   60.6530   29.8700   46.8420 H   0  0  0  0  0  0  0  0  0  0  0  0
   58.6843   29.2530   45.6402 H   0  0  0  0  0  0  0  0  0  0  0  0
   57.7116   27.5763   45.2444 H   0  0  0  0  0  0  0  0  0  0  0  0
   56.9003   27.7967   46.8432 H   0  0  0  0  0  0  0  0  0  0  0  0
   57.8430   24.8987   45.2613 H   0  0  0  0  0  0  0  0  0  0  0  0
   55.9204   22.9977   45.2494 H   0  0  0  0  0  0  0  0  0  0  0  0
   53.6017   24.2575   45.6890 H   0  0  0  0  0  0  0  0  0  0  0  0
   56.1215   32.4106   44.1601 H   0  0  0  0  0  0  0  0  0  0  0  0
   57.6882   34.1181   45.0763 H   0  0  0  0  0  0  0  0  0  0  0  0
  1  2  1  0
  2  3  1  0
  3  4  1  0
  4  5  1  0
  5  6  1  0
  6  7  2  0
  6  8  1  0
  8  9  1  0
  9 10  2  0
 10 11  1  0
 11 12  1  0
 12 13  2  0
 12 14  1  0
 14 15  1  0
 15 16  1  0
 16 17  2  0
 17 18  1  0
 18 19  2  0
 19 20  1  0
 11 21  2  0
 21 22  1  0
 22 23  2  0
 23 24  1  0
 24 25  2  0
 24  5  1  0
 23  9  1  0
 20 16  1  0
  1 26  1  0
  1 27  1  0
  1 28  1  0
  3 29  1  0
  3 30  1  0
  4 31  1  0
  4 32  1  0
  8 33  1  0
 10 34  1  0
 15 35  1  0
 15 36  1  0
 17 37  1  0
 18 38  1  0
 19 39  1  0
 21 40  1  0
 22 41  1  0
M  CHG  1  14  -1
M  END
>  <UniqueID>  (97) 
91

>  <SMILES>  (97) 
COCCn1c(=S)[nH]c2cc(C(=O)[N-]Cc3ccco3)ccc2c1=O

>  <Energy>  (97) 
81.70910899360783

>  <Genealogy>  (97) 
COCCn1c(=S)[nH]c2cc(C(=O)[N-]Cc3ccco3)ccc2c1=O (protonated)
COCCn1c(=S)[nH]c2cc(C(=O)[N-]Cc3ccco3)ccc2c1=O (3D coordinates assigned)
COCCn1c(=S)[nH]c2cc(C(=O)[N-]Cc3ccco3)ccc2c1=O (optimized conformer: 81.70910899360783 kcal/mol)

>  <smiles>  (97) 
COCCn1c(=S)[nH]c2cc(C(=O)NCc3ccco3)ccc2c1=O

>  <score_type>  (97) 
oracle

>  <origin>  (97) 
adg

>  <m_score__min__energy>  (97) 
-9.1600000000000001

>  <m_primary>  (97) 
energy

$$$$
