0:0
     RDKit          3D

 35 36  0  0  0  0  0  0  0  0999 V2000
   61.3096   26.9434   48.4571 H   0  0  0  0  0  0  0  0  0  0  0  0
   60.4370   27.1650   47.8250 C   0  0  0  0  0  0  0  0  0  0  0  0
   60.1320   26.3390   46.7390 C   0  0  0  0  0  0  0  0  0  0  0  0
   60.7635   25.4656   46.5192 H   0  0  0  0  0  0  0  0  0  0  0  0
   59.0260   26.6210   45.9320 C   0  0  0  0  0  0  0  0  0  0  0  0
   58.7854   25.9640   45.0832 H   0  0  0  0  0  0  0  0  0  0  0  0
   58.2200   27.7410   46.2010 C   0  0  0  0  0  0  0  0  0  0  0  0
   57.0180   28.0330   45.3410 C   0  0  0  0  0  0  0  0  0  0  0  0
   56.1677   27.4299   45.6922 H   0  0  0  0  0  0  0  0  0  0  0  0
   57.2599   27.7809   44.2980 H   0  0  0  0  0  0  0  0  0  0  0  0
   56.6630   29.4510   45.4120 N   0  0  0  0  0  0  0  0  0  0  0  0
   55.8560   29.7120   46.0210 H   0  0  0  0  0  0  0  0  0  0  0  0
   57.3510   30.5040   44.7060 C   0  0  0  0  0  0  0  0  0  0  0  0
   56.9860   31.8720   44.9390 N   0  0  0  0  0  0  0  0  0  0  0  0
   57.7590   32.8260   45.3800 C   0  0  0  0  0  0  0  0  0  0  0  0
   58.1220   33.8510   44.4970 C   0  0  0  0  0  0  0  0  0  0  0  0
   57.7632   33.8365   43.4573 H   0  0  0  0  0  0  0  0  0  0  0  0
   58.9390   34.8890   44.9400 C   0  0  0  0  0  0  0  0  0  0  0  0
   59.2142   35.7045   44.2550 H   0  0  0  0  0  0  0  0  0  0  0  0
   59.4070   34.8920   46.2530 C   0  0  0  0  0  0  0  0  0  0  0  0
   60.0359   35.7182   46.6162 H   0  0  0  0  0  0  0  0  0  0  0  0
   59.0690   33.8330   47.1060 C   0  0  0  0  0  0  0  0  0  0  0  0
   59.5570   33.8310   48.5260 C   0  0  0  0  0  0  0  0  0  0  0  0
   58.6954   33.8345   49.2098 H   0  0  0  0  0  0  0  0  0  0  0  0
   60.1629   32.9304   48.7042 H   0  0  0  0  0  0  0  0  0  0  0  0
   60.1702   34.7266   48.7042 H   0  0  0  0  0  0  0  0  0  0  0  0
   58.2530   32.8330   46.6600 N   0  0  0  0  0  0  0  0  0  0  0  0
   58.0430   32.0480   47.3140 H   0  0  0  0  0  0  0  0  0  0  0  0
   58.2120   30.2390   43.7710 N   0  0  0  0  0  0  0  0  0  0  0  0
   57.8840   29.9660   42.8170 H   0  0  0  0  0  0  0  0  0  0  0  0
   59.2410   30.2930   43.9240 H   0  0  0  0  0  0  0  0  0  0  0  0
   58.5250   28.5580   47.3020 C   0  0  0  0  0  0  0  0  0  0  0  0
   57.8899   29.4262   47.5320 H   0  0  0  0  0  0  0  0  0  0  0  0
   59.6320   28.2730   48.1070 C   0  0  0  0  0  0  0  0  0  0  0  0
   59.8700   28.9212   48.9633 H   0  0  0  0  0  0  0  0  0  0  0  0
  1  2  1  0
  2  3  2  0
  3  4  1  0
  3  5  1  0
  5  6  1  0
  5  7  2  0
  7  8  1  0
  8  9  1  0
  8 10  1  0
  8 11  1  0
 11 12  1  0
 11 13  1  0
 13 14  1  0
 14 15  2  0
 15 16  1  0
 16 17  1  0
 16 18  2  0
 18 19  1  0
 18 20  1  0
 20 21  1  0
 20 22  2  0
 22 23  1  0
 23 24  1  0
 23 25  1  0
 23 26  1  0
 22 27  1  0
 27 28  1  0
 13 29  2  0
 29 30  1  0
 29 31  1  0
  7 32  1  0
 32 33  1  0
 32 34  2  0
 34 35  1  0
 34  2  1  0
 27 15  1  0
M  CHG  1  29   1
M  END
>  <UniqueID>  (1) 
1

>  <SMILES>  (1) 
Cc1ccc/c(=N/C(=[NH2+])NCc2ccccc2)[nH]1

>  <Energy>  (1) 
40.653100606492465

>  <Genealogy>  (1) 
Cc1cccc(=NC(=[NH2+])NCc2ccccc2)[nH]1 (protonated)
Cc1ccc/c(=N/C(=[NH2+])NCc2ccccc2)[nH]1 (cis-trans isomerization)
Cc1ccc/c(=N/C(=[NH2+])NCc2ccccc2)[nH]1 (3D coordinates assigned)
Cc1ccc/c(=N/C(=[NH2+])NCc2ccccc2)[nH]1 (optimized conformer: 40.653100606492465 kcal/mol)

>  <smiles>  (1) 
Cc1cccc(=NC(=N)NCc2ccccc2)[nH]1

>  <score_type>  (1) 
oracle

>  <origin>  (1) 
adg

>  <m_score__min__energy>  (1) 
-5.3499999999999996

>  <m_primary>  (1) 
energy

$$$$
1:0
     RDKit          3D

 43 46  0  0  0  0  0  0  0  0999 V2000
   55.1040   20.4540   45.2870 N   0  0  0  0  0  0  0  0  0  0  0  0
   55.3060   21.7290   45.8980 C   0  0  0  0  0  0  0  0  0  0  0  0
   55.2670   21.9900   47.5540 S   0  0  0  0  0  0  0  0  0  0  0  0
   55.5790   23.6370   47.4770 C   0  0  0  0  0  0  0  0  0  0  0  0
   55.6990   24.0140   46.1390 C   0  0  0  0  0  0  0  0  0  0  0  0
   55.9190   25.4270   45.7730 C   0  0  0  0  0  0  0  0  0  0  0  0
   55.0090   26.2640   46.0080 O   0  0  0  0  0  0  0  0  0  0  0  0
   57.1300   25.8770   45.1510 N   0  0  0  0  0  0  0  0  0  0  0  0
   57.7620   27.1510   45.3370 C   0  0  0  0  0  0  0  0  0  0  0  0
   58.0780   27.9870   44.2520 C   0  0  0  0  0  0  0  0  0  0  0  0
   58.7060   29.2150   44.4710 C   0  0  0  0  0  0  0  0  0  0  0  0
   59.0260   29.6260   45.7690 C   0  0  0  0  0  0  0  0  0  0  0  0
   59.6740   30.8550   45.9470 O   0  0  0  0  0  0  0  0  0  0  0  0
   59.0880   32.1100   45.7290 C   0  0  0  0  0  0  0  0  0  0  0  0
   58.1530   32.3550   44.6950 C   0  0  0  0  0  0  0  0  0  0  0  0
   57.5840   33.6410   44.5510 C   0  0  0  0  0  0  0  0  0  0  0  0
   57.9220   34.6510   45.4080 N   0  0  0  0  0  0  0  0  0  0  0  0
   58.8110   34.4020   46.4000 C   0  0  0  0  0  0  0  0  0  0  0  0
   59.2330   35.2790   47.3220 N   0  0  0  0  0  0  0  0  0  0  0  0
   60.0990   34.5900   48.1020 C   0  0  0  0  0  0  0  0  0  0  0  0
   60.2200   33.2710   47.6670 C   0  0  0  0  0  0  0  0  0  0  0  0
   59.3840   33.1750   46.5750 C   0  0  0  0  0  0  0  0  0  0  0  0
   58.6510   28.8200   46.8600 C   0  0  0  0  0  0  0  0  0  0  0  0
   58.8650   29.2360   48.1340 F   0  0  0  0  0  0  0  0  0  0  0  0
   58.0210   27.5920   46.6400 C   0  0  0  0  0  0  0  0  0  0  0  0
   55.5700   22.9290   45.2370 C   0  0  0  0  0  0  0  0  0  0  0  0
   55.8330   23.0020   43.4860 S   0  0  0  0  0  0  0  0  0  0  0  0
   57.0010   24.2260   43.1260 N   0  0  0  0  0  0  0  0  0  0  0  0
   54.5340   23.3460   42.8140 O   0  0  0  0  0  0  0  0  0  0  0  0
   56.3030   21.6810   42.9470 O   0  0  0  0  0  0  0  0  0  0  0  0
   55.5900   20.2230   44.3920 H   0  0  0  0  0  0  0  0  0  0  0  0
   54.5070   19.7240   45.7310 H   0  0  0  0  0  0  0  0  0  0  0  0
   55.6736   24.3105   48.3416 H   0  0  0  0  0  0  0  0  0  0  0  0
   57.8299   27.6730   43.2274 H   0  0  0  0  0  0  0  0  0  0  0  0
   58.9506   29.8634   43.6168 H   0  0  0  0  0  0  0  0  0  0  0  0
   57.8698   31.5465   44.0050 H   0  0  0  0  0  0  0  0  0  0  0  0
   56.8629   33.8307   43.7422 H   0  0  0  0  0  0  0  0  0  0  0  0
   58.9550   36.2800   47.4200 H   0  0  0  0  0  0  0  0  0  0  0  0
   60.6353   35.0142   48.9636 H   0  0  0  0  0  0  0  0  0  0  0  0
   60.8470   32.4783   48.1012 H   0  0  0  0  0  0  0  0  0  0  0  0
   57.7267   26.9678   47.4966 H   0  0  0  0  0  0  0  0  0  0  0  0
   56.5150   25.1480   43.1860 H   0  0  0  0  0  0  0  0  0  0  0  0
   57.7180   24.2070   43.8870 H   0  0  0  0  0  0  0  0  0  0  0  0
  1  2  1  0
  2  3  1  0
  3  4  1  0
  4  5  2  0
  5  6  1  0
  6  7  2  0
  6  8  1  0
  8  9  1  0
  9 10  2  0
 10 11  1  0
 11 12  2  0
 12 13  1  0
 13 14  1  0
 14 15  2  0
 15 16  1  0
 16 17  2  0
 17 18  1  0
 18 19  1  0
 19 20  1  0
 20 21  2  0
 21 22  1  0
 12 23  1  0
 23 24  1  0
 23 25  2  0
  5 26  1  0
 26 27  1  0
 27 28  1  0
 27 29  2  0
 27 30  2  0
 26  2  2  0
 25  9  1  0
 22 14  1  0
 22 18  2  0
  1 31  1  0
  1 32  1  0
  4 33  1  0
 10 34  1  0
 11 35  1  0
 15 36  1  0
 16 37  1  0
 19 38  1  0
 20 39  1  0
 21 40  1  0
 25 41  1  0
 28 42  1  0
 28 43  1  0
M  CHG  1   8  -1
M  END
>  <UniqueID>  (2) 
2

>  <SMILES>  (2) 
Nc1scc(C(=O)[N-]c2ccc(Oc3ccnc4[nH]ccc34)c(F)c2)c1S(N)(=O)=O

>  <Energy>  (2) 
122.47286014196082

>  <Genealogy>  (2) 
Nc1scc(C(=O)[N-]c2ccc(Oc3ccnc4[nH]ccc34)c(F)c2)c1S(N)(=O)=O (protonated)
Nc1scc(C(=O)[N-]c2ccc(Oc3ccnc4[nH]ccc34)c(F)c2)c1S(N)(=O)=O (3D coordinates assigned)
Nc1scc(C(=O)[N-]c2ccc(Oc3ccnc4[nH]ccc34)c(F)c2)c1S(N)(=O)=O (optimized conformer: 122.47286014196082 kcal/mol)

>  <smiles>  (2) 
Nc1scc(C(=O)Nc2ccc(Oc3ccnc4[nH]ccc34)c(F)c2)c1S(N)(=O)=O

>  <score_type>  (2) 
oracle

>  <origin>  (2) 
adg

>  <m_score__min__energy>  (2) 
-9.9000000000000004

>  <m_primary>  (2) 
energy

$$$$
2:0
     RDKit          3D

 37 39  0  0  0  0  0  0  0  0999 V2000
   56.6720   30.5120   42.6310 N   0  0  0  0  0  0  0  0  0  0  0  0
   57.1130   30.6510   43.6920 C   0  0  0  0  0  0  0  0  0  0  0  0
   57.6600   30.8240   45.0120 C   0  0  0  0  0  0  0  0  0  0  0  0
   57.8440   32.1100   45.5340 C   0  0  0  0  0  0  0  0  0  0  0  0
   58.3730   32.2760   46.8170 C   0  0  0  0  0  0  0  0  0  0  0  0
   58.7440   31.1640   47.5830 C   0  0  0  0  0  0  0  0  0  0  0  0
   59.2530   31.3790   48.9110 N   0  0  0  0  0  0  0  0  0  0  0  0
   58.5580   31.5340   49.9990 C   0  0  0  0  0  0  0  0  0  0  0  0
   57.8280   30.5100   50.5250 N   0  0  0  0  0  0  0  0  0  0  0  0
   57.1120   30.6600   51.6690 C   0  0  0  0  0  0  0  0  0  0  0  0
   56.3910   29.5640   52.1630 O   0  0  0  0  0  0  0  0  0  0  0  0
   55.0000   29.5180   52.3390 C   0  0  0  0  0  0  0  0  0  0  0  0
   54.4610   28.5380   53.1800 C   0  0  0  0  0  0  0  0  0  0  0  0
   53.0800   28.4500   53.3680 C   0  0  0  0  0  0  0  0  0  0  0  0
   52.2240   29.3360   52.7070 C   0  0  0  0  0  0  0  0  0  0  0  0
   52.7490   30.3140   51.8520 C   0  0  0  0  0  0  0  0  0  0  0  0
   51.6750   31.4130   50.9930 S   0  0  0  0  0  0  0  0  0  0  0  0
   50.3520   31.8450   52.0160 N   0  0  0  0  0  0  0  0  0  0  0  0
   51.1540   30.7470   49.7510 O   0  0  0  0  0  0  0  0  0  0  0  0
   52.4240   32.6540   50.5960 O   0  0  0  0  0  0  0  0  0  0  0  0
   54.1350   30.3940   51.6580 C   0  0  0  0  0  0  0  0  0  0  0  0
   57.1530   31.8880   52.3450 C   0  0  0  0  0  0  0  0  0  0  0  0
   57.9120   32.9240   51.8020 C   0  0  0  0  0  0  0  0  0  0  0  0
   57.9690   34.0390   52.3830 O   0  0  0  0  0  0  0  0  0  0  0  0
   58.5980   32.7280   50.6470 N   0  0  0  0  0  0  0  0  0  0  0  0
   58.5270   29.8720   47.0670 C   0  0  0  0  0  0  0  0  0  0  0  0
   57.9970   29.7050   45.7840 C   0  0  0  0  0  0  0  0  0  0  0  0
   57.5719   32.9907   44.9337 H   0  0  0  0  0  0  0  0  0  0  0  0
   58.4989   33.2884   47.2284 H   0  0  0  0  0  0  0  0  0  0  0  0
   55.1291   27.8328   53.6961 H   0  0  0  0  0  0  0  0  0  0  0  0
   52.6649   27.6821   54.0374 H   0  0  0  0  0  0  0  0  0  0  0  0
   51.1368   29.2652   52.8584 H   0  0  0  0  0  0  0  0  0  0  0  0
   49.9340   32.7180   51.6230 H   0  0  0  0  0  0  0  0  0  0  0  0
   54.5485   31.1457   50.9696 H   0  0  0  0  0  0  0  0  0  0  0  0
   56.5980   32.0309   53.2839 H   0  0  0  0  0  0  0  0  0  0  0  0
   58.7755   28.9903   47.6759 H   0  0  0  0  0  0  0  0  0  0  0  0
   57.8445   28.6932   45.3803 H   0  0  0  0  0  0  0  0  0  0  0  0
  1  2  3  0
  2  3  1  0
  3  4  2  0
  4  5  1  0
  5  6  2  0
  6  7  1  0
  7  8  2  3
  8  9  1  0
  9 10  1  0
 10 11  1  0
 11 12  1  0
 12 13  2  0
 13 14  1  0
 14 15  2  0
 15 16  1  0
 16 17  1  0
 17 18  1  0
 17 19  2  0
 17 20  2  0
 16 21  2  0
 10 22  2  0
 22 23  1  0
 23 24  2  0
 23 25  1  0
  6 26  1  0
 26 27  2  0
 27  3  1  0
 25  8  1  0
 21 12  1  0
  4 28  1  0
  5 29  1  0
 13 30  1  0
 14 31  1  0
 15 32  1  0
 18 33  1  0
 21 34  1  0
 22 35  1  0
 26 36  1  0
 27 37  1  0
M  CHG  3   9  -1  18  -1  25  -1
M  END
>  <UniqueID>  (3) 
3

>  <SMILES>  (3) 
N#Cc1ccc(N=c2[n-]c(Oc3cccc(S([NH-])(=O)=O)c3)cc(=O)[n-]2)cc1

>  <Energy>  (3) 
52.67696128049559

>  <Genealogy>  (3) 
N#Cc1ccc(N=c2[n-]c(Oc3cccc(S([NH-])(=O)=O)c3)cc(=O)[n-]2)cc1 (protonated)
N#Cc1ccc(N=c2[n-]c(Oc3cccc(S([NH-])(=O)=O)c3)cc(=O)[n-]2)cc1 (3D coordinates assigned)
N#Cc1ccc(N=c2[n-]c(Oc3cccc(S([NH-])(=O)=O)c3)cc(=O)[n-]2)cc1 (optimized conformer: 52.67696128049559 kcal/mol)

>  <smiles>  (3) 
N#Cc1ccc(N=c2[nH]c(Oc3cccc(S(N)(=O)=O)c3)cc(=O)[nH]2)cc1

>  <score_type>  (3) 
oracle

>  <origin>  (3) 
adg

>  <m_score__min__energy>  (3) 
-13.039999999999999

>  <m_primary>  (3) 
energy

$$$$
3:0
     RDKit          3D

 46 48  0  0  0  0  0  0  0  0999 V2000
   60.6016   32.6114   47.6797 H   0  0  0  0  0  0  0  0  0  0  0  0
   59.5890   32.3090   47.9850 C   0  0  0  0  0  0  0  0  0  0  0  0
   59.1990   32.6170   49.2320 C   0  0  0  0  0  0  0  0  0  0  0  0
   59.2697   33.6711   49.5383 H   0  0  0  0  0  0  0  0  0  0  0  0
   58.6820   31.6530   50.2270 C   0  0  0  0  0  0  0  0  0  0  0  0
   59.5130   30.6720   50.7940 C   0  0  0  0  0  0  0  0  0  0  0  0
   60.5685   30.6065   50.4915 H   0  0  0  0  0  0  0  0  0  0  0  0
   59.0040   29.7800   51.7400 C   0  0  0  0  0  0  0  0  0  0  0  0
   59.6521   28.9971   52.1609 H   0  0  0  0  0  0  0  0  0  0  0  0
   57.6730   29.8800   52.1530 C   0  0  0  0  0  0  0  0  0  0  0  0
   57.2722   29.1629   52.8845 H   0  0  0  0  0  0  0  0  0  0  0  0
   56.8460   30.8880   51.6410 C   0  0  0  0  0  0  0  0  0  0  0  0
   55.4850   30.9530   52.0900 N   0  0  0  0  0  0  0  0  0  0  0  0
   54.9180   30.2470   53.2010 C   0  0  0  0  0  0  0  0  0  0  0  0
   55.5420   30.1490   54.2910 O   0  0  0  0  0  0  0  0  0  0  0  0
   53.6220   29.5220   53.0250 C   0  0  0  0  0  0  0  0  0  0  0  0
   53.8195   28.5153   52.6281 H   0  0  0  0  0  0  0  0  0  0  0  0
   53.1161   29.4483   53.9990 H   0  0  0  0  0  0  0  0  0  0  0  0
   52.7370   30.2690   52.0670 C   0  0  0  0  0  0  0  0  0  0  0  0
   52.6250   29.8470   50.7320 C   0  0  0  0  0  0  0  0  0  0  0  0
   53.1664   28.9514   50.3932 H   0  0  0  0  0  0  0  0  0  0  0  0
   51.8280   30.5610   49.8320 C   0  0  0  0  0  0  0  0  0  0  0  0
   51.7347   30.2195   48.7905 H   0  0  0  0  0  0  0  0  0  0  0  0
   51.1490   31.7090   50.2540 C   0  0  0  0  0  0  0  0  0  0  0  0
   50.3600   32.4150   49.3530 O   0  0  0  0  0  0  0  0  0  0  0  0
   51.2670   32.1450   51.5790 C   0  0  0  0  0  0  0  0  0  0  0  0
   50.5990   33.2870   52.0020 O   0  0  0  0  0  0  0  0  0  0  0  0
   52.0620   31.4300   52.4820 C   0  0  0  0  0  0  0  0  0  0  0  0
   52.1590   31.7781   53.5210 H   0  0  0  0  0  0  0  0  0  0  0  0
   57.3540   31.7690   50.6690 C   0  0  0  0  0  0  0  0  0  0  0  0
   56.7064   32.5544   50.2521 H   0  0  0  0  0  0  0  0  0  0  0  0
   58.7580   31.5920   46.9880 C   0  0  0  0  0  0  0  0  0  0  0  0
   58.6370   30.2380   47.0580 N   0  0  0  0  0  0  0  0  0  0  0  0
   57.8620   29.5390   46.1920 C   0  0  0  0  0  0  0  0  0  0  0  0
   57.7830   28.1550   46.3010 O   0  0  0  0  0  0  0  0  0  0  0  0
   57.1500   30.2250   45.2000 C   0  0  0  0  0  0  0  0  0  0  0  0
   56.2820   29.4950   44.2240 C   0  0  0  0  0  0  0  0  0  0  0  0
   55.5516   28.8807   44.7709 H   0  0  0  0  0  0  0  0  0  0  0  0
   55.7501   30.2212   43.5918 H   0  0  0  0  0  0  0  0  0  0  0  0
   56.9062   28.8464   43.5918 H   0  0  0  0  0  0  0  0  0  0  0  0
   57.2530   31.5780   45.1340 N   0  0  0  0  0  0  0  0  0  0  0  0
   58.0310   32.2850   45.9960 C   0  0  0  0  0  0  0  0  0  0  0  0
   58.0900   33.7780   45.8600 C   0  0  0  0  0  0  0  0  0  0  0  0
   58.1081   34.2368   46.8596 H   0  0  0  0  0  0  0  0  0  0  0  0
   59.0000   34.0604   45.3104 H   0  0  0  0  0  0  0  0  0  0  0  0
   57.2051   34.1314   45.3104 H   0  0  0  0  0  0  0  0  0  0  0  0
  1  2  1  0
  2  3  2  0
  3  4  1  0
  3  5  1  0
  5  6  2  0
  6  7  1  0
  6  8  1  0
  8  9  1  0
  8 10  2  0
 10 11  1  0
 10 12  1  0
 12 13  1  0
 13 14  1  0
 14 15  2  0
 14 16  1  0
 16 17  1  0
 16 18  1  0
 16 19  1  0
 19 20  2  0
 20 21  1  0
 20 22  1  0
 22 23  1  0
 22 24  2  0
 24 25  1  0
 24 26  1  0
 26 27  1  0
 26 28  2  0
 28 29  1  0
 12 30  2  0
 30 31  1  0
  2 32  1  0
 32 33  2  0
 33 34  1  0
 34 35  1  0
 34 36  2  0
 36 37  1  0
 37 38  1  0
 37 39  1  0
 37 40  1  0
 36 41  1  0
 41 42  2  0
 42 43  1  0
 43 44  1  0
 43 45  1  0
 43 46  1  0
 30  5  1  0
 42 32  1  0
 28 19  1  0
M  CHG  4  13  -1  25  -1  27  -1  35  -1
M  END
>  <UniqueID>  (4) 
4

>  <SMILES>  (4) 
Cc1nc(C)c(/C=C\c2cccc([N-]C(=O)Cc3ccc([O-])c([O-])c3)c2)nc1[O-]

>  <Energy>  (4) 
59.178577729971444

>  <Genealogy>  (4) 
Cc1nc(C)c(C=Cc2cccc([N-]C(=O)Cc3ccc([O-])c([O-])c3)c2)nc1[O-] (protonated)
Cc1nc(C)c(/C=C\c2cccc([N-]C(=O)Cc3ccc([O-])c([O-])c3)c2)nc1[O-] (cis-trans isomerization)
Cc1nc(C)c(/C=C\c2cccc([N-]C(=O)Cc3ccc([O-])c([O-])c3)c2)nc1[O-] (3D coordinates assigned)
Cc1nc(C)c(/C=C\c2cccc([N-]C(=O)Cc3ccc([O-])c([O-])c3)c2)nc1[O-] (optimized conformer: 59.178577729971444 kcal/mol)

>  <smiles>  (4) 
Cc1nc(C)c(C=Cc2cccc(NC(=O)Cc3ccc(O)c(O)c3)c2)nc1O

>  <score_type>  (4) 
oracle

>  <origin>  (4) 
adg

>  <m_score__min__energy>  (4) 
-21.18

>  <m_primary>  (4) 
energy

$$$$
4:0
     RDKit          3D

 46 47  0  0  0  0  0  0  0  0999 V2000
   59.2680   35.3600   44.8490 C   0  0  0  0  0  0  0  0  0  0  0  0
   58.1420   34.5410   45.1500 O   0  0  0  0  0  0  0  0  0  0  0  0
   58.2090   33.2380   45.6700 C   0  0  0  0  0  0  0  0  0  0  0  0
   57.6900   32.1470   44.9480 C   0  0  0  0  0  0  0  0  0  0  0  0
   57.7570   30.8490   45.4550 C   0  0  0  0  0  0  0  0  0  0  0  0
   57.0220   29.4290   44.3990 Br  0  0  0  0  0  0  0  0  0  0  0  0
   58.3430   30.6170   46.7100 C   0  0  0  0  0  0  0  0  0  0  0  0
   58.4160   29.3290   47.2480 O   0  0  0  0  0  0  0  0  0  0  0  0
   58.8540   31.6960   47.4500 C   0  0  0  0  0  0  0  0  0  0  0  0
   59.4320   31.4490   48.7860 C   0  0  0  0  0  0  0  0  0  0  0  0
   60.5420   31.9640   49.0800 O   0  0  0  0  0  0  0  0  0  0  0  0
   58.7710   30.6150   49.7460 N   0  0  0  0  0  0  0  0  0  0  0  0
   59.4290   29.9780   50.8830 C   0  0  0  0  0  0  0  0  0  0  0  0
   58.4090   29.3780   51.8140 C   0  0  0  0  0  0  0  0  0  0  0  0
   58.7530   28.4170   52.5510 O   0  0  0  0  0  0  0  0  0  0  0  0
   57.0630   29.8660   51.9080 N   0  0  0  0  0  0  0  0  0  0  0  0
   56.2650   29.9910   53.1260 C   0  0  0  0  0  0  0  0  0  0  0  0
   54.9340   29.2410   53.0000 C   0  0  0  0  0  0  0  0  0  0  0  0
   53.8070   30.1770   52.6460 C   0  0  0  0  0  0  0  0  0  0  0  0
   53.7430   30.7540   51.3670 C   0  0  0  0  0  0  0  0  0  0  0  0
   52.6840   31.6020   51.0290 C   0  0  0  0  0  0  0  0  0  0  0  0
   51.6790   31.8740   51.9620 C   0  0  0  0  0  0  0  0  0  0  0  0
   50.6280   32.7190   51.6260 O   0  0  0  0  0  0  0  0  0  0  0  0
   51.7290   31.2940   53.2330 C   0  0  0  0  0  0  0  0  0  0  0  0
   52.7880   30.4450   53.5740 C   0  0  0  0  0  0  0  0  0  0  0  0
   58.8030   33.0090   46.9380 C   0  0  0  0  0  0  0  0  0  0  0  0
   59.3550   34.0330   47.7330 O   0  0  0  0  0  0  0  0  0  0  0  0
   60.7080   34.4730   47.7330 C   0  0  0  0  0  0  0  0  0  0  0  0
   59.7350   35.6997   45.7852 H   0  0  0  0  0  0  0  0  0  0  0  0
   59.9975   34.7800   44.2647 H   0  0  0  0  0  0  0  0  0  0  0  0
   58.9409   36.2327   44.2647 H   0  0  0  0  0  0  0  0  0  0  0  0
   57.2235   32.3207   43.9671 H   0  0  0  0  0  0  0  0  0  0  0  0
   58.8340   29.1290   48.1480 H   0  0  0  0  0  0  0  0  0  0  0  0
   60.0963   29.1839   50.5168 H   0  0  0  0  0  0  0  0  0  0  0  0
   60.0075   30.7368   51.4303 H   0  0  0  0  0  0  0  0  0  0  0  0
   56.8328   29.5736   53.9706 H   0  0  0  0  0  0  0  0  0  0  0  0
   56.0484   31.0568   53.2910 H   0  0  0  0  0  0  0  0  0  0  0  0
   55.0262   28.4780   52.2130 H   0  0  0  0  0  0  0  0  0  0  0  0
   54.7057   28.7754   53.9701 H   0  0  0  0  0  0  0  0  0  0  0  0
   54.5290   30.5379   50.6285 H   0  0  0  0  0  0  0  0  0  0  0  0
   52.6415   32.0557   50.0278 H   0  0  0  0  0  0  0  0  0  0  0  0
   50.9357   31.5050   53.9653 H   0  0  0  0  0  0  0  0  0  0  0  0
   52.8222   29.9858   54.5730 H   0  0  0  0  0  0  0  0  0  0  0  0
   61.0567   34.5864   48.7701 H   0  0  0  0  0  0  0  0  0  0  0  0
   61.3345   33.7323   47.2145 H   0  0  0  0  0  0  0  0  0  0  0  0
   60.7789   35.4405   47.2145 H   0  0  0  0  0  0  0  0  0  0  0  0
  1  2  1  0
  2  3  1  0
  3  4  2  0
  4  5  1  0
  5  6  1  0
  5  7  2  0
  7  8  1  0
  7  9  1  0
  9 10  1  0
 10 11  2  0
 10 12  1  0
 12 13  1  0
 13 14  1  0
 14 15  2  0
 14 16  1  0
 16 17  1  0
 17 18  1  0
 18 19  1  0
 19 20  2  0
 20 21  1  0
 21 22  2  0
 22 23  1  0
 22 24  1  0
 24 25  2  0
  9 26  2  0
 26 27  1  0
 27 28  1  0
 26  3  1  0
 25 19  1  0
  1 29  1  0
  1 30  1  0
  1 31  1  0
  4 32  1  0
  8 33  1  0
 13 34  1  0
 13 35  1  0
 17 36  1  0
 17 37  1  0
 18 38  1  0
 18 39  1  0
 20 40  1  0
 21 41  1  0
 24 42  1  0
 25 43  1  0
 28 44  1  0
 28 45  1  0
 28 46  1  0
M  CHG  3  12  -1  16  -1  23  -1
M  END
>  <UniqueID>  (5) 
5

>  <SMILES>  (5) 
COc1cc(Br)c(O)c(C(=O)[N-]CC(=O)[N-]CCc2ccc([O-])cc2)c1OC

>  <Energy>  (5) 
48.48906356998183

>  <Genealogy>  (5) 
COc1cc(Br)c(O)c(C(=O)[N-]CC(=O)[N-]CCc2ccc([O-])cc2)c1OC (protonated)
COc1cc(Br)c(O)c(C(=O)[N-]CC(=O)[N-]CCc2ccc([O-])cc2)c1OC (3D coordinates assigned)
COc1cc(Br)c(O)c(C(=O)[N-]CC(=O)[N-]CCc2ccc([O-])cc2)c1OC (optimized conformer: 48.48906356998183 kcal/mol)

>  <smiles>  (5) 
COc1cc(Br)c(O)c(C(=O)NCC(=O)NCCc2ccc(O)cc2)c1OC

>  <score_type>  (5) 
oracle

>  <origin>  (5) 
adg

>  <m_score__min__energy>  (5) 
-13.039999999999999

>  <m_primary>  (5) 
energy

$$$$
5:0
     RDKit          3D

 42 44  0  0  0  0  0  0  0  0999 V2000
   55.5300   29.0520   44.9430 N   0  0  0  0  0  0  0  0  0  0  0  0
   56.5910   30.0010   44.8680 C   0  0  0  0  0  0  0  0  0  0  0  0
   56.4020   31.0840   44.2520 O   0  0  0  0  0  0  0  0  0  0  0  0
   57.8960   29.7180   45.5090 C   0  0  0  0  0  0  0  0  0  0  0  0
   58.9240   30.6630   45.6600 C   0  0  0  0  0  0  0  0  0  0  0  0
   58.8710   32.0450   45.2720 N   0  0  0  0  0  0  0  0  0  0  0  0
   59.3120   33.1090   46.1280 C   0  0  0  0  0  0  0  0  0  0  0  0
   58.7760   34.6320   45.8350 S   0  0  0  0  0  0  0  0  0  0  0  0
   60.4030   32.8920   47.0370 N   0  0  0  0  0  0  0  0  0  0  0  0
   60.5390   33.5680   48.2970 C   0  0  0  0  0  0  0  0  0  0  0  0
   59.6200   34.3220   48.7180 O   0  0  0  0  0  0  0  0  0  0  0  0
   61.7630   33.3850   49.1070 C   0  0  0  0  0  0  0  0  0  0  0  0
   61.7230   33.7660   50.4610 C   0  0  0  0  0  0  0  0  0  0  0  0
   62.8140   33.5320   51.2990 C   0  0  0  0  0  0  0  0  0  0  0  0
   63.9570   32.9120   50.8010 C   0  0  0  0  0  0  0  0  0  0  0  0
   64.0240   32.5410   49.4570 C   0  0  0  0  0  0  0  0  0  0  0  0
   62.9440   32.7850   48.5880 C   0  0  0  0  0  0  0  0  0  0  0  0
   63.1160   32.4580   47.1520 C   0  0  0  0  0  0  0  0  0  0  0  0
   63.0870   31.2640   46.7530 O   0  0  0  0  0  0  0  0  0  0  0  0
   63.2550   33.4770   46.2160 O   0  0  0  0  0  0  0  0  0  0  0  0
   60.2560   29.9280   46.3910 S   0  0  0  0  0  0  0  0  0  0  0  0
   59.5690   28.4040   46.4980 C   0  0  0  0  0  0  0  0  0  0  0  0
   58.2660   28.4460   46.0060 C   0  0  0  0  0  0  0  0  0  0  0  0
   57.3990   27.2100   45.9810 C   0  0  0  0  0  0  0  0  0  0  0  0
   57.9130   26.1310   46.9510 C   0  0  0  0  0  0  0  0  0  0  0  0
   59.4290   25.9290   46.8100 C   0  0  0  0  0  0  0  0  0  0  0  0
   60.1910   27.2150   47.1660 C   0  0  0  0  0  0  0  0  0  0  0  0
   54.5710   29.3410   45.2380 H   0  0  0  0  0  0  0  0  0  0  0  0
   58.4160   32.3050   44.3710 H   0  0  0  0  0  0  0  0  0  0  0  0
   61.0800   32.1280   46.8130 H   0  0  0  0  0  0  0  0  0  0  0  0
   60.8225   34.2533   50.8630 H   0  0  0  0  0  0  0  0  0  0  0  0
   62.7710   33.8378   52.3547 H   0  0  0  0  0  0  0  0  0  0  0  0
   64.8089   32.7141   51.4681 H   0  0  0  0  0  0  0  0  0  0  0  0
   64.9314   32.0523   49.0726 H   0  0  0  0  0  0  0  0  0  0  0  0
   56.3743   27.4881   46.2684 H   0  0  0  0  0  0  0  0  0  0  0  0
   57.4253   26.7947   44.9628 H   0  0  0  0  0  0  0  0  0  0  0  0
   57.6872   26.4397   47.9824 H   0  0  0  0  0  0  0  0  0  0  0  0
   57.4127   25.1814   46.7101 H   0  0  0  0  0  0  0  0  0  0  0  0
   59.7489   25.1224   47.4861 H   0  0  0  0  0  0  0  0  0  0  0  0
   59.6521   25.6671   45.7652 H   0  0  0  0  0  0  0  0  0  0  0  0
   60.1654   27.3594   48.2562 H   0  0  0  0  0  0  0  0  0  0  0  0
   61.2297   27.1176   46.8171 H   0  0  0  0  0  0  0  0  0  0  0  0
  1  2  1  0
  2  3  2  0
  2  4  1  0
  4  5  2  0
  5  6  1  0
  6  7  1  0
  7  8  2  0
  7  9  1  0
  9 10  1  0
 10 11  2  0
 10 12  1  0
 12 13  2  0
 13 14  1  0
 14 15  2  0
 15 16  1  0
 16 17  2  0
 17 18  1  0
 18 19  2  0
 18 20  1  0
  5 21  1  0
 21 22  1  0
 22 23  2  0
 23 24  1  0
 24 25  1  0
 25 26  1  0
 26 27  1  0
 23  4  1  0
 17 12  1  0
 27 22  1  0
  1 28  1  0
  6 29  1  0
  9 30  1  0
 13 31  1  0
 14 32  1  0
 15 33  1  0
 16 34  1  0
 24 35  1  0
 24 36  1  0
 25 37  1  0
 25 38  1  0
 26 39  1  0
 26 40  1  0
 27 41  1  0
 27 42  1  0
M  CHG  2   1  -1  20  -1
M  END
>  <UniqueID>  (6) 
6

>  <SMILES>  (6) 
[NH-]C(=O)c1c(NC(=S)NC(=O)c2ccccc2C(=O)[O-])sc2c1CCCC2

>  <Energy>  (6) 
86.5663353359145

>  <Genealogy>  (6) 
[NH-]C(=O)c1c(NC(=S)NC(=O)c2ccccc2C(=O)[O-])sc2c1CCCC2 (protonated)
[NH-]C(=O)c1c(NC(=S)NC(=O)c2ccccc2C(=O)[O-])sc2c1CCCC2 (3D coordinates assigned)
[NH-]C(=O)c1c(NC(=S)NC(=O)c2ccccc2C(=O)[O-])sc2c1CCCC2 (nonaromatic ring conformer: 86.5663353359145 kcal/mol)

>  <smiles>  (6) 
NC(=O)c1c(NC(=S)NC(=O)c2ccccc2C(=O)O)sc2c1CCCC2

>  <score_type>  (6) 
oracle

>  <origin>  (6) 
adg

>  <m_score__min__energy>  (6) 
-12.109999999999999

>  <m_primary>  (6) 
energy

$$$$
6:0
     RDKit          3D

 49 51  0  0  0  0  0  0  0  0999 V2000
   54.0872   23.8244   45.4121 H   0  0  0  0  0  0  0  0  0  0  0  0
   54.7410   24.6890   45.5990 C   0  0  0  0  0  0  0  0  0  0  0  0
   54.3210   25.9480   45.8440 N   0  0  0  0  0  0  0  0  0  0  0  0
   55.3880   26.7160   46.0040 N   0  0  0  0  0  0  0  0  0  0  0  0
   55.3390   27.7290   46.2520 H   0  0  0  0  0  0  0  0  0  0  0  0
   56.4930   25.9590   45.8630 C   0  0  0  0  0  0  0  0  0  0  0  0
   57.7180   26.3760   45.9720 N   0  0  0  0  0  0  0  0  0  0  0  0
   58.1210   27.7100   46.3020 C   0  0  0  0  0  0  0  0  0  0  0  0
   57.8310   28.1730   47.4380 O   0  0  0  0  0  0  0  0  0  0  0  0
   59.0590   28.4800   45.4130 C   0  0  0  0  0  0  0  0  0  0  0  0
   58.8028   28.2907   44.3601 H   0  0  0  0  0  0  0  0  0  0  0  0
   60.0922   28.1556   45.6061 H   0  0  0  0  0  0  0  0  0  0  0  0
   58.9370   29.9550   45.7010 C   0  0  0  0  0  0  0  0  0  0  0  0
   60.0380   30.6560   46.2170 C   0  0  0  0  0  0  0  0  0  0  0  0
   60.9727   30.1188   46.4357 H   0  0  0  0  0  0  0  0  0  0  0  0
   59.9570   32.0290   46.4550 C   0  0  0  0  0  0  0  0  0  0  0  0
   60.8252   32.5632   46.8683 H   0  0  0  0  0  0  0  0  0  0  0  0
   58.7840   32.7290   46.1730 C   0  0  0  0  0  0  0  0  0  0  0  0
   58.7570   34.1080   46.4270 O   0  0  0  0  0  0  0  0  0  0  0  0
   59.4950   34.7530   47.4610 C   0  0  0  0  0  0  0  0  0  0  0  0
   59.1182   34.4237   48.4406 H   0  0  0  0  0  0  0  0  0  0  0  0
   60.5593   34.4904   47.3704 H   0  0  0  0  0  0  0  0  0  0  0  0
   59.3773   35.8429   47.3704 H   0  0  0  0  0  0  0  0  0  0  0  0
   57.6750   32.0380   45.6480 C   0  0  0  0  0  0  0  0  0  0  0  0
   56.7467   32.5847   45.4257 H   0  0  0  0  0  0  0  0  0  0  0  0
   57.7450   30.6510   45.4050 C   0  0  0  0  0  0  0  0  0  0  0  0
   56.6580   29.9370   44.8720 O   0  0  0  0  0  0  0  0  0  0  0  0
   56.3400   29.8600   43.4850 C   0  0  0  0  0  0  0  0  0  0  0  0
   55.2771   29.6026   43.3662 H   0  0  0  0  0  0  0  0  0  0  0  0
   56.5373   30.8319   43.0091 H   0  0  0  0  0  0  0  0  0  0  0  0
   56.9601   29.0860   43.0091 H   0  0  0  0  0  0  0  0  0  0  0  0
   56.1200   24.6580   45.6200 C   0  0  0  0  0  0  0  0  0  0  0  0
   57.1600   23.2640   45.3470 S   0  0  0  0  0  0  0  0  0  0  0  0
   58.5030   23.7360   44.8640 O   0  0  0  0  0  0  0  0  0  0  0  0
   56.5480   22.4040   44.2770 O   0  0  0  0  0  0  0  0  0  0  0  0
   57.3680   22.3230   46.8030 N   0  0  0  0  0  0  0  0  0  0  0  0
   57.1010   20.9000   46.5350 C   0  0  0  0  0  0  0  0  0  0  0  0
   56.1238   20.8029   46.0393 H   0  0  0  0  0  0  0  0  0  0  0  0
   57.8978   20.5061   45.8870 H   0  0  0  0  0  0  0  0  0  0  0  0
   57.0850   20.0920   47.8500 C   0  0  0  0  0  0  0  0  0  0  0  0
   56.0580   19.7525   48.0499 H   0  0  0  0  0  0  0  0  0  0  0  0
   57.7631   19.2330   47.7390 H   0  0  0  0  0  0  0  0  0  0  0  0
   57.5320   20.8780   48.9400 O   0  0  0  0  0  0  0  0  0  0  0  0
   56.6500   21.9680   49.1400 C   0  0  0  0  0  0  0  0  0  0  0  0
   55.6683   21.5782   49.4470 H   0  0  0  0  0  0  0  0  0  0  0  0
   57.0828   22.6159   49.9165 H   0  0  0  0  0  0  0  0  0  0  0  0
   56.4720   22.8130   47.8610 C   0  0  0  0  0  0  0  0  0  0  0  0
   55.4294   22.7389   47.5181 H   0  0  0  0  0  0  0  0  0  0  0  0
   56.7187   23.8614   48.0848 H   0  0  0  0  0  0  0  0  0  0  0  0
  1  2  1  0
  2  3  1  0
  3  4  1  0
  4  5  1  0
  4  6  1  0
  6  7  2  0
  7  8  1  0
  8  9  2  0
  8 10  1  0
 10 11  1  0
 10 12  1  0
 10 13  1  0
 13 14  2  0
 14 15  1  0
 14 16  1  0
 16 17  1  0
 16 18  2  0
 18 19  1  0
 19 20  1  0
 20 21  1  0
 20 22  1  0
 20 23  1  0
 18 24  1  0
 24 25  1  0
 24 26  2  0
 26 27  1  0
 27 28  1  0
 28 29  1  0
 28 30  1  0
 28 31  1  0
  6 32  1  0
 32 33  1  0
 33 34  2  0
 33 35  2  0
 33 36  1  0
 36 37  1  0
 37 38  1  0
 37 39  1  0
 37 40  1  0
 40 41  1  0
 40 42  1  0
 40 43  1  0
 43 44  1  0
 44 45  1  0
 44 46  1  0
 44 47  1  0
 47 48  1  0
 47 49  1  0
 32  2  2  0
 47 36  1  0
 26 13  1  0
M  CHG  1   3  -1
M  END
>  <UniqueID>  (7) 
7

>  <SMILES>  (7) 
COc1ccc(CC(=O)/N=c2\[nH][n-]cc2S(=O)(=O)N2CCOCC2)c(OC)c1

>  <Energy>  (7) 
92.0434302775549

>  <Genealogy>  (7) 
COc1ccc(CC(=O)N=c2[nH][n-]cc2S(=O)(=O)N2CCOCC2)c(OC)c1 (protonated)
COc1ccc(CC(=O)/N=c2\[nH][n-]cc2S(=O)(=O)N2CCOCC2)c(OC)c1 (cis-trans isomerization)
COc1ccc(CC(=O)/N=c2\[nH][n-]cc2S(=O)(=O)N2CCOCC2)c(OC)c1 (3D coordinates assigned)
COc1ccc(CC(=O)/N=c2\[nH][n-]cc2S(=O)(=O)N2CCOCC2)c(OC)c1 (nonaromatic ring conformer: 92.0434302775549 kcal/mol)

>  <smiles>  (7) 
COc1ccc(CC(=O)N=c2[nH][nH]cc2S(=O)(=O)N2CCOCC2)c(OC)c1

>  <score_type>  (7) 
oracle

>  <origin>  (7) 
adg

>  <m_score__min__energy>  (7) 
-10.25

>  <m_primary>  (7) 
energy

$$$$
7:0
     RDKit          3D

 73 77  0  0  0  0  0  0  0  0999 V2000
   58.4850   31.4110   48.4230 O   0  0  0  0  0  0  0  0  0  0  0  0
   59.4450   30.7030   48.8170 C   0  0  0  0  0  0  0  0  0  0  0  0
   59.6470   29.3250   48.3260 C   0  0  0  0  0  0  0  0  0  0  0  0
   59.4960   28.9060   47.0580 C   0  0  0  0  0  0  0  0  0  0  0  0
   58.4760   27.9430   46.5940 C   0  0  0  0  0  0  0  0  0  0  0  0
   58.6660   26.5630   46.7620 C   0  0  0  0  0  0  0  0  0  0  0  0
   57.6950   25.6700   46.3110 C   0  0  0  0  0  0  0  0  0  0  0  0
   56.5350   26.1630   45.7150 C   0  0  0  0  0  0  0  0  0  0  0  0
   56.3480   27.5030   45.5900 N   0  0  0  0  0  0  0  0  0  0  0  0
   57.2790   28.4030   46.0160 C   0  0  0  0  0  0  0  0  0  0  0  0
   57.0600   29.6850   45.9300 N   0  0  0  0  0  0  0  0  0  0  0  0
   57.1240   30.4980   44.7480 C   0  0  0  0  0  0  0  0  0  0  0  0
   56.5230   30.0900   43.5470 C   0  0  0  0  0  0  0  0  0  0  0  0
   56.7310   30.8170   42.3710 C   0  0  0  0  0  0  0  0  0  0  0  0
   57.5620   31.9380   42.3780 C   0  0  0  0  0  0  0  0  0  0  0  0
   57.7870   32.6200   41.2290 F   0  0  0  0  0  0  0  0  0  0  0  0
   58.1760   32.3430   43.5680 C   0  0  0  0  0  0  0  0  0  0  0  0
   57.9350   31.6470   44.7590 C   0  0  0  0  0  0  0  0  0  0  0  0
   58.5010   32.1080   45.9560 O   0  0  0  0  0  0  0  0  0  0  0  0
   58.5330   33.5000   46.2770 C   0  0  0  0  0  0  0  0  0  0  0  0
   59.9470   33.9080   46.6060 C   0  0  0  0  0  0  0  0  0  0  0  0
   60.3870   34.9370   46.1120 O   0  0  0  0  0  0  0  0  0  0  0  0
   60.7760   33.1160   47.4970 N   0  0  0  0  0  0  0  0  0  0  0  0
   61.7780   33.9750   48.1850 C   0  0  0  0  0  0  0  0  0  0  0  0
   63.1720   33.8590   47.5560 C   0  0  0  0  0  0  0  0  0  0  0  0
   63.6780   32.4740   47.6200 N   0  0  0  0  0  0  0  0  0  0  0  0
   62.6310   31.4480   47.4690 C   0  0  0  0  0  0  0  0  0  0  0  0
   61.3800   31.9800   46.7550 C   0  0  0  0  0  0  0  0  0  0  0  0
   60.3330   31.2240   49.7990 N   0  0  0  0  0  0  0  0  0  0  0  0
   59.8790   32.1010   50.8310 C   0  0  0  0  0  0  0  0  0  0  0  0
   58.5000   32.2400   51.0700 C   0  0  0  0  0  0  0  0  0  0  0  0
   58.0400   33.1070   52.0650 C   0  0  0  0  0  0  0  0  0  0  0  0
   58.9520   33.8310   52.8390 C   0  0  0  0  0  0  0  0  0  0  0  0
   60.3240   33.6830   52.6240 C   0  0  0  0  0  0  0  0  0  0  0  0
   60.7970   32.8260   51.6150 C   0  0  0  0  0  0  0  0  0  0  0  0
   62.2140   32.6310   51.4670 N   0  0  0  0  0  0  0  0  0  0  0  0
   62.8060   31.2960   51.5100 C   0  0  0  0  0  0  0  0  0  0  0  0
   64.0180   31.2480   50.5740 C   0  0  0  0  0  0  0  0  0  0  0  0
   64.9160   32.3040   50.8570 O   0  0  0  0  0  0  0  0  0  0  0  0
   64.2970   33.5500   50.5880 C   0  0  0  0  0  0  0  0  0  0  0  0
   63.1150   33.7830   51.5320 C   0  0  0  0  0  0  0  0  0  0  0  0
   59.9494   28.5709   49.0675 H   0  0  0  0  0  0  0  0  0  0  0  0
   60.1873   29.3126   46.3052 H   0  0  0  0  0  0  0  0  0  0  0  0
   59.5783   26.1869   47.2481 H   0  0  0  0  0  0  0  0  0  0  0  0
   57.8428   24.5859   46.4244 H   0  0  0  0  0  0  0  0  0  0  0  0
   55.7692   25.4654   45.3450 H   0  0  0  0  0  0  0  0  0  0  0  0
   55.8852   29.1939   43.5309 H   0  0  0  0  0  0  0  0  0  0  0  0
   56.2386   30.5047   41.4383 H   0  0  0  0  0  0  0  0  0  0  0  0
   58.8508   33.2117   43.5681 H   0  0  0  0  0  0  0  0  0  0  0  0
   58.1741   34.0831   45.4161 H   0  0  0  0  0  0  0  0  0  0  0  0
   57.8850   33.6909   47.1452 H   0  0  0  0  0  0  0  0  0  0  0  0
   60.1670   32.6990   48.2420 H   0  0  0  0  0  0  0  0  0  0  0  0
   61.4480   35.0225   48.1235 H   0  0  0  0  0  0  0  0  0  0  0  0
   61.8504   33.6379   49.2296 H   0  0  0  0  0  0  0  0  0  0  0  0
   63.1166   34.1715   46.5028 H   0  0  0  0  0  0  0  0  0  0  0  0
   63.8609   34.5057   48.1192 H   0  0  0  0  0  0  0  0  0  0  0  0
   64.3770   32.3560   46.8470 H   0  0  0  0  0  0  0  0  0  0  0  0
   63.0403   30.6105   46.8850 H   0  0  0  0  0  0  0  0  0  0  0  0
   62.3285   31.1304   48.4778 H   0  0  0  0  0  0  0  0  0  0  0  0
   61.6601   32.3192   45.7468 H   0  0  0  0  0  0  0  0  0  0  0  0
   60.6398   31.1681   46.7013 H   0  0  0  0  0  0  0  0  0  0  0  0
   57.7799   31.6634   50.4708 H   0  0  0  0  0  0  0  0  0  0  0  0
   56.9598   33.2199   52.2393 H   0  0  0  0  0  0  0  0  0  0  0  0
   58.5886   34.5176   53.6178 H   0  0  0  0  0  0  0  0  0  0  0  0
   61.0385   34.2402   53.2477 H   0  0  0  0  0  0  0  0  0  0  0  0
   63.1264   31.0692   52.5376 H   0  0  0  0  0  0  0  0  0  0  0  0
   62.0620   30.5529   51.1871 H   0  0  0  0  0  0  0  0  0  0  0  0
   64.5379   30.2877   50.7067 H   0  0  0  0  0  0  0  0  0  0  0  0
   63.6661   31.3540   49.5372 H   0  0  0  0  0  0  0  0  0  0  0  0
   65.0330   34.3558   50.7256 H   0  0  0  0  0  0  0  0  0  0  0  0
   63.9261   33.5439   49.5524 H   0  0  0  0  0  0  0  0  0  0  0  0
   63.4841   33.9040   52.5611 H   0  0  0  0  0  0  0  0  0  0  0  0
   62.5748   34.6927   51.2310 H   0  0  0  0  0  0  0  0  0  0  0  0
  1  2  2  0
  2  3  1  0
  3  4  2  3
  4  5  1  0
  5  6  2  0
  6  7  1  0
  7  8  2  0
  8  9  1  0
  9 10  1  0
 10 11  2  3
 11 12  1  0
 12 13  2  0
 13 14  1  0
 14 15  2  0
 15 16  1  0
 15 17  1  0
 17 18  2  0
 18 19  1  0
 19 20  1  0
 20 21  1  0
 21 22  2  0
 21 23  1  0
 23 24  1  0
 24 25  1  0
 25 26  1  0
 26 27  1  0
 27 28  1  0
  2 29  1  0
 29 30  1  0
 30 31  2  0
 31 32  1  0
 32 33  2  0
 33 34  1  0
 34 35  2  0
 35 36  1  0
 36 37  1  0
 37 38  1  0
 38 39  1  0
 39 40  1  0
 40 41  1  0
 10  5  1  0
 18 12  1  0
 28 23  1  0
 35 30  1  0
 41 36  1  0
  3 42  1  0
  4 43  1  0
  6 44  1  0
  7 45  1  0
  8 46  1  0
 13 47  1  0
 14 48  1  0
 17 49  1  0
 20 50  1  0
 20 51  1  0
 23 52  1  0
 24 53  1  0
 24 54  1  0
 25 55  1  0
 25 56  1  0
 26 57  1  0
 27 58  1  0
 27 59  1  0
 28 60  1  0
 28 61  1  0
 31 62  1  0
 32 63  1  0
 33 64  1  0
 34 65  1  0
 37 66  1  0
 37 67  1  0
 38 68  1  0
 38 69  1  0
 40 70  1  0
 40 71  1  0
 41 72  1  0
 41 73  1  0
M  CHG  3   9  -1  23   1  29  -1
M  END
>  <UniqueID>  (8) 
8

>  <SMILES>  (8) 
O=C(C=Cc1ccc[n-]c1=Nc1ccc(F)cc1OCC(=O)[NH+]1CCNCC1)[N-]c1ccccc1N1CCOCC1

>  <Energy>  (8) 
126.58127681512585

>  <Genealogy>  (8) 
O=C(C=Cc1ccc[n-]c1=Nc1ccc(F)cc1OCC(=O)[NH+]1CCNCC1)[N-]c1ccccc1N1CCOCC1 (protonated)
O=C(C=Cc1ccc[n-]c1=Nc1ccc(F)cc1OCC(=O)[NH+]1CCNCC1)[N-]c1ccccc1N1CCOCC1 (3D coordinates assigned)
O=C(C=Cc1ccc[n-]c1=Nc1ccc(F)cc1OCC(=O)[NH+]1CCNCC1)[N-]c1ccccc1N1CCOCC1 (nonaromatic ring conformer: 126.58127681512585 kcal/mol)

>  <smiles>  (8) 
O=C(C=Cc1ccc[nH]c1=Nc1ccc(F)cc1OCC(=O)N1CCNCC1)Nc1ccccc1N1CCOCC1

>  <score_type>  (8) 
oracle

>  <origin>  (8) 
adg

>  <m_score__min__energy>  (8) 
-11.16

>  <m_primary>  (8) 
energy

$$$$
8:0
     RDKit          3D

 52 54  0  0  0  0  0  0  0  0999 V2000
   58.5480   30.5790   48.3190 H   0  0  0  0  0  0  0  0  0  0  0  0
   58.1450   30.8200   47.4230 O   0  0  0  0  0  0  0  0  0  0  0  0
   58.1780   32.1070   46.8790 C   0  0  0  0  0  0  0  0  0  0  0  0
   57.6720   32.3110   45.5730 C   0  0  0  0  0  0  0  0  0  0  0  0
   57.0270   31.2690   44.8230 N   0  0  0  0  0  0  0  0  0  0  0  0
   57.5650   30.1280   44.5110 C   0  0  0  0  0  0  0  0  0  0  0  0
   58.5314   30.1126   43.9858 H   0  0  0  0  0  0  0  0  0  0  0  0
   56.9040   28.8530   44.8480 C   0  0  0  0  0  0  0  0  0  0  0  0
   55.9873   28.5752   44.3073 H   0  0  0  0  0  0  0  0  0  0  0  0
   57.3740   28.0200   45.7850 C   0  0  0  0  0  0  0  0  0  0  0  0
   57.9171   28.4461   46.6414 H   0  0  0  0  0  0  0  0  0  0  0  0
   57.1960   26.5500   45.7210 C   0  0  0  0  0  0  0  0  0  0  0  0
   58.3250   25.7530   45.4650 C   0  0  0  0  0  0  0  0  0  0  0  0
   59.3077   26.2274   45.3265 H   0  0  0  0  0  0  0  0  0  0  0  0
   58.2090   24.3620   45.3850 C   0  0  0  0  0  0  0  0  0  0  0  0
   59.1004   23.7466   45.1934 H   0  0  0  0  0  0  0  0  0  0  0  0
   56.9630   23.7530   45.5480 C   0  0  0  0  0  0  0  0  0  0  0  0
   56.8755   22.6578   45.4944 H   0  0  0  0  0  0  0  0  0  0  0  0
   55.8280   24.5330   45.7790 C   0  0  0  0  0  0  0  0  0  0  0  0
   54.8480   24.0494   45.9043 H   0  0  0  0  0  0  0  0  0  0  0  0
   55.9310   25.9280   45.8520 C   0  0  0  0  0  0  0  0  0  0  0  0
   54.7730   26.6780   46.0220 O   0  0  0  0  0  0  0  0  0  0  0  0
   57.8630   33.5470   44.9420 C   0  0  0  0  0  0  0  0  0  0  0  0
   57.5144   33.6913   43.9087 H   0  0  0  0  0  0  0  0  0  0  0  0
   58.4900   34.5940   45.6110 C   0  0  0  0  0  0  0  0  0  0  0  0
   58.6379   35.5588   45.1038 H   0  0  0  0  0  0  0  0  0  0  0  0
   58.9310   34.4230   46.9220 C   0  0  0  0  0  0  0  0  0  0  0  0
   59.4123   35.2611   47.4474 H   0  0  0  0  0  0  0  0  0  0  0  0
   58.7680   33.1930   47.5800 C   0  0  0  0  0  0  0  0  0  0  0  0
   59.1970   33.0930   48.9910 C   0  0  0  0  0  0  0  0  0  0  0  0
   58.9930   32.0350   49.6460 O   0  0  0  0  0  0  0  0  0  0  0  0
   59.7740   34.2070   49.6140 O   0  0  0  0  0  0  0  0  0  0  0  0
   61.0560   34.1870   50.2420 C   0  0  0  0  0  0  0  0  0  0  0  0
   61.0454   33.4450   51.0540 H   0  0  0  0  0  0  0  0  0  0  0  0
   61.2648   35.1928   50.6355 H   0  0  0  0  0  0  0  0  0  0  0  0
   62.1420   33.8260   49.2620 C   0  0  0  0  0  0  0  0  0  0  0  0
   63.3260   33.6670   49.6640 O   0  0  0  0  0  0  0  0  0  0  0  0
   61.8530   33.6200   47.8730 N   0  0  0  0  0  0  0  0  0  0  0  0
   62.4430   32.5650   47.0570 C   0  0  0  0  0  0  0  0  0  0  0  0
   62.3050   32.8042   45.9922 H   0  0  0  0  0  0  0  0  0  0  0  0
   63.5177   32.4871   47.2785 H   0  0  0  0  0  0  0  0  0  0  0  0
   61.7710   31.2580   47.3680 C   0  0  0  0  0  0  0  0  0  0  0  0
   61.1360   30.5190   46.3530 C   0  0  0  0  0  0  0  0  0  0  0  0
   61.1462   30.8888   45.3171 H   0  0  0  0  0  0  0  0  0  0  0  0
   60.4910   29.3140   46.6580 C   0  0  0  0  0  0  0  0  0  0  0  0
   60.0043   28.7349   45.8594 H   0  0  0  0  0  0  0  0  0  0  0  0
   60.4640   28.8440   47.9780 C   0  0  0  0  0  0  0  0  0  0  0  0
   59.6470   27.3390   48.3580 Cl  0  0  0  0  0  0  0  0  0  0  0  0
   61.0850   29.5820   48.9920 C   0  0  0  0  0  0  0  0  0  0  0  0
   61.0636   29.2152   50.0288 H   0  0  0  0  0  0  0  0  0  0  0  0
   61.7330   30.7850   48.6910 C   0  0  0  0  0  0  0  0  0  0  0  0
   62.2148   31.3631   49.4933 H   0  0  0  0  0  0  0  0  0  0  0  0
  1  2  1  0
  2  3  1  0
  3  4  2  0
  4  5  1  0
  5  6  2  0
  6  7  1  0
  6  8  1  0
  8  9  1  0
  8 10  2  0
 10 11  1  0
 10 12  1  0
 12 13  2  0
 13 14  1  0
 13 15  1  0
 15 16  1  0
 15 17  2  0
 17 18  1  0
 17 19  1  0
 19 20  1  0
 19 21  2  0
 21 22  1  0
  4 23  1  0
 23 24  1  0
 23 25  2  0
 25 26  1  0
 25 27  1  0
 27 28  1  0
 27 29  2  0
 29 30  1  0
 30 31  2  0
 30 32  1  0
 32 33  1  0
 33 34  1  0
 33 35  1  0
 33 36  1  0
 36 37  2  0
 36 38  1  0
 38 39  1  0
 39 40  1  0
 39 41  1  0
 39 42  1  0
 42 43  2  0
 43 44  1  0
 43 45  1  0
 45 46  1  0
 45 47  2  0
 47 48  1  0
 47 49  1  0
 49 50  1  0
 49 51  2  0
 51 52  1  0
 29  3  1  0
 51 42  1  0
 21 12  1  0
M  CHG  2  22  -1  38  -1
M  END
>  <UniqueID>  (9) 
9

>  <SMILES>  (9) 
O=C(COC(=O)c1cccc(N=C/C=C/c2ccccc2[O-])c1O)[N-]Cc1ccc(Cl)cc1

>  <Energy>  (9) 
65.66439256538439

>  <Genealogy>  (9) 
O=C(COC(=O)c1cccc(N=CC=Cc2ccccc2[O-])c1O)[N-]Cc1ccc(Cl)cc1 (protonated)
O=C(COC(=O)c1cccc(N=C/C=C/c2ccccc2[O-])c1O)[N-]Cc1ccc(Cl)cc1 (cis-trans isomerization)
O=C(COC(=O)c1cccc(N=C/C=C/c2ccccc2[O-])c1O)[N-]Cc1ccc(Cl)cc1 (3D coordinates assigned)
O=C(COC(=O)c1cccc(N=C/C=C/c2ccccc2[O-])c1O)[N-]Cc1ccc(Cl)cc1 (optimized conformer: 65.66439256538439 kcal/mol)

>  <smiles>  (9) 
O=C(COC(=O)c1cccc(N=CC=Cc2ccccc2O)c1O)NCc1ccc(Cl)cc1

>  <score_type>  (9) 
oracle

>  <origin>  (9) 
adg

>  <m_score__min__energy>  (9) 
-13.58

>  <m_primary>  (9) 
energy

$$$$
9:0
     RDKit          3D

 37 39  0  0  0  0  0  0  0  0999 V2000
   56.2260   30.7290   44.3560 O   0  0  0  0  0  0  0  0  0  0  0  0
   56.6350   29.6230   44.8030 C   0  0  0  0  0  0  0  0  0  0  0  0
   55.7230   28.6770   45.1360 N   0  0  0  0  0  0  0  0  0  0  0  0
   56.0940   27.4710   45.6250 C   0  0  0  0  0  0  0  0  0  0  0  0
   55.1120   26.5410   45.9470 O   0  0  0  0  0  0  0  0  0  0  0  0
   57.4510   27.1760   45.8020 C   0  0  0  0  0  0  0  0  0  0  0  0
   57.8910   25.8210   46.3140 C   0  0  0  0  0  0  0  0  0  0  0  0
   57.3470   24.7230   45.4390 C   0  0  0  0  0  0  0  0  0  0  0  0
   56.9280   23.5050   46.0020 C   0  0  0  0  0  0  0  0  0  0  0  0
   56.4520   22.4760   45.1850 C   0  0  0  0  0  0  0  0  0  0  0  0
   56.3950   22.6500   43.7980 C   0  0  0  0  0  0  0  0  0  0  0  0
   55.9220   21.6270   42.9880 O   0  0  0  0  0  0  0  0  0  0  0  0
   56.8130   23.8570   43.2290 C   0  0  0  0  0  0  0  0  0  0  0  0
   57.2900   24.8890   44.0440 C   0  0  0  0  0  0  0  0  0  0  0  0
   58.3910   28.1630   45.4470 C   0  0  0  0  0  0  0  0  0  0  0  0
   59.6230   27.9240   45.5900 O   0  0  0  0  0  0  0  0  0  0  0  0
   57.9770   29.3760   44.9500 N   0  0  0  0  0  0  0  0  0  0  0  0
   58.9680   30.4200   44.6150 C   0  0  0  0  0  0  0  0  0  0  0  0
   58.6620   31.6960   45.3580 C   0  0  0  0  0  0  0  0  0  0  0  0
   58.9590   31.8100   46.7270 C   0  0  0  0  0  0  0  0  0  0  0  0
   58.6440   32.9830   47.4210 C   0  0  0  0  0  0  0  0  0  0  0  0
   58.0270   34.0460   46.7570 C   0  0  0  0  0  0  0  0  0  0  0  0
   57.7250   33.9400   45.3970 C   0  0  0  0  0  0  0  0  0  0  0  0
   57.1260   34.9710   44.7520 F   0  0  0  0  0  0  0  0  0  0  0  0
   58.0390   32.7680   44.6990 C   0  0  0  0  0  0  0  0  0  0  0  0
   58.9900   25.7733   46.3130 H   0  0  0  0  0  0  0  0  0  0  0  0
   57.5057   25.6850   47.3353 H   0  0  0  0  0  0  0  0  0  0  0  0
   56.9751   23.3611   47.0915 H   0  0  0  0  0  0  0  0  0  0  0  0
   56.1215   21.5274   45.6333 H   0  0  0  0  0  0  0  0  0  0  0  0
   56.7666   23.9952   42.1387 H   0  0  0  0  0  0  0  0  0  0  0  0
   57.6221   25.8349   43.5913 H   0  0  0  0  0  0  0  0  0  0  0  0
   59.9721   30.0695   44.8958 H   0  0  0  0  0  0  0  0  0  0  0  0
   58.9243   30.6184   43.5339 H   0  0  0  0  0  0  0  0  0  0  0  0
   59.4409   30.9737   47.2547 H   0  0  0  0  0  0  0  0  0  0  0  0
   58.8825   33.0685   48.4914 H   0  0  0  0  0  0  0  0  0  0  0  0
   57.7788   34.9669   47.3051 H   0  0  0  0  0  0  0  0  0  0  0  0
   57.7966   32.6864   43.6292 H   0  0  0  0  0  0  0  0  0  0  0  0
  1  2  2  0
  2  3  1  0
  3  4  1  0
  4  5  1  0
  4  6  2  0
  6  7  1  0
  7  8  1  0
  8  9  2  0
  9 10  1  0
 10 11  2  0
 11 12  1  0
 11 13  1  0
 13 14  2  0
  6 15  1  0
 15 16  2  0
 15 17  1  0
 17 18  1  0
 18 19  1  0
 19 20  2  0
 20 21  1  0
 21 22  2  0
 22 23  1  0
 23 24  1  0
 23 25  2  0
 17  2  1  0
 25 19  1  0
 14  8  1  0
  7 26  1  0
  7 27  1  0
  9 28  1  0
 10 29  1  0
 13 30  1  0
 14 31  1  0
 18 32  1  0
 18 33  1  0
 20 34  1  0
 21 35  1  0
 22 36  1  0
 25 37  1  0
M  CHG  3   3  -1   5  -1  12  -1
M  END
>  <UniqueID>  (10) 
10

>  <SMILES>  (10) 
O=c1[n-]c([O-])c(Cc2ccc([O-])cc2)c(=O)n1Cc1cccc(F)c1

>  <Energy>  (10) 
44.48635754779374

>  <Genealogy>  (10) 
O=c1[n-]c([O-])c(Cc2ccc([O-])cc2)c(=O)n1Cc1cccc(F)c1 (protonated)
O=c1[n-]c([O-])c(Cc2ccc([O-])cc2)c(=O)n1Cc1cccc(F)c1 (3D coordinates assigned)
O=c1[n-]c([O-])c(Cc2ccc([O-])cc2)c(=O)n1Cc1cccc(F)c1 (optimized conformer: 44.48635754779374 kcal/mol)

>  <smiles>  (10) 
O=c1[nH]c(O)c(Cc2ccc(O)cc2)c(=O)n1Cc1cccc(F)c1

>  <score_type>  (10) 
oracle

>  <origin>  (10) 
adg

>  <m_score__min__energy>  (10) 
-15.029999999999999

>  <m_primary>  (10) 
energy

$$$$
10:0
     RDKit          3D

 58 61  0  0  0  0  0  0  0  0999 V2000
   55.4830   23.6160   43.6490 C   0  0  0  0  0  0  0  0  0  0  0  0
   54.4580   23.3840   45.0860 S   0  0  0  0  0  0  0  0  0  0  0  0
   54.8200   22.0880   45.7590 O   0  0  0  0  0  0  0  0  0  0  0  0
   53.0150   23.3570   44.6560 O   0  0  0  0  0  0  0  0  0  0  0  0
   54.7200   24.7020   46.1790 N   0  0  0  0  0  0  0  0  0  0  0  0
   55.9790   25.3630   46.3840 C   0  0  0  0  0  0  0  0  0  0  0  0
   56.9440   24.8740   47.2870 C   0  0  0  0  0  0  0  0  0  0  0  0
   58.1390   25.5720   47.4840 C   0  0  0  0  0  0  0  0  0  0  0  0
   58.3870   26.7520   46.7790 C   0  0  0  0  0  0  0  0  0  0  0  0
   57.4590   27.2280   45.8460 C   0  0  0  0  0  0  0  0  0  0  0  0
   57.7360   28.4460   45.1430 N   0  0  0  0  0  0  0  0  0  0  0  0
   56.7540   29.4130   44.7540 C   0  0  0  0  0  0  0  0  0  0  0  0
   55.5280   29.1900   44.9510 O   0  0  0  0  0  0  0  0  0  0  0  0
   57.1700   30.6110   43.9950 C   0  0  0  0  0  0  0  0  0  0  0  0
   56.8530   30.6810   42.6260 C   0  0  0  0  0  0  0  0  0  0  0  0
   57.3240   31.7320   41.8400 C   0  0  0  0  0  0  0  0  0  0  0  0
   58.1240   32.7220   42.4040 C   0  0  0  0  0  0  0  0  0  0  0  0
   58.4260   32.6870   43.7680 C   0  0  0  0  0  0  0  0  0  0  0  0
   57.9400   31.6500   44.5850 C   0  0  0  0  0  0  0  0  0  0  0  0
   58.1690   31.7440   46.0460 C   0  0  0  0  0  0  0  0  0  0  0  0
   57.8160   30.8010   46.8050 O   0  0  0  0  0  0  0  0  0  0  0  0
   58.7790   32.9180   46.5970 N   0  0  0  0  0  0  0  0  0  0  0  0
   60.1460   32.9950   47.0400 C   0  0  0  0  0  0  0  0  0  0  0  0
   61.0700   33.8000   46.3490 C   0  0  0  0  0  0  0  0  0  0  0  0
   62.4050   33.8460   46.7470 C   0  0  0  0  0  0  0  0  0  0  0  0
   62.8390   33.0870   47.8310 C   0  0  0  0  0  0  0  0  0  0  0  0
   61.9380   32.2710   48.5180 C   0  0  0  0  0  0  0  0  0  0  0  0
   60.5870   32.2160   48.1360 C   0  0  0  0  0  0  0  0  0  0  0  0
   59.6740   31.4110   48.9080 N   0  0  0  0  0  0  0  0  0  0  0  0
   58.5390   32.0400   49.5870 C   0  0  0  0  0  0  0  0  0  0  0  0
   58.2500   31.3020   50.8970 C   0  0  0  0  0  0  0  0  0  0  0  0
   58.0910   29.9150   50.6650 O   0  0  0  0  0  0  0  0  0  0  0  0
   59.3160   29.3630   50.2110 C   0  0  0  0  0  0  0  0  0  0  0  0
   59.7010   29.9440   48.8450 C   0  0  0  0  0  0  0  0  0  0  0  0
   56.2500   26.5340   45.6600 C   0  0  0  0  0  0  0  0  0  0  0  0
   56.5106   23.8486   43.9652 H   0  0  0  0  0  0  0  0  0  0  0  0
   55.4842   22.6954   43.0469 H   0  0  0  0  0  0  0  0  0  0  0  0
   55.0876   24.4474   43.0469 H   0  0  0  0  0  0  0  0  0  0  0  0
   56.7565   23.9407   47.8382 H   0  0  0  0  0  0  0  0  0  0  0  0
   58.8859   25.1910   48.1960 H   0  0  0  0  0  0  0  0  0  0  0  0
   59.3175   27.3106   46.9583 H   0  0  0  0  0  0  0  0  0  0  0  0
   56.2274   29.8988   42.1712 H   0  0  0  0  0  0  0  0  0  0  0  0
   57.0630   31.7790   40.7724 H   0  0  0  0  0  0  0  0  0  0  0  0
   58.5191   33.5332   41.7748 H   0  0  0  0  0  0  0  0  0  0  0  0
   59.0504   33.4788   44.2075 H   0  0  0  0  0  0  0  0  0  0  0  0
   60.7363   34.3977   45.4880 H   0  0  0  0  0  0  0  0  0  0  0  0
   63.1177   34.4836   46.2034 H   0  0  0  0  0  0  0  0  0  0  0  0
   63.8920   33.1304   48.1461 H   0  0  0  0  0  0  0  0  0  0  0  0
   62.2893   31.6654   49.3664 H   0  0  0  0  0  0  0  0  0  0  0  0
   58.7794   33.0911   49.8045 H   0  0  0  0  0  0  0  0  0  0  0  0
   57.6526   31.9914   48.9375 H   0  0  0  0  0  0  0  0  0  0  0  0
   59.0882   31.4581   51.5920 H   0  0  0  0  0  0  0  0  0  0  0  0
   57.3184   31.6977   51.3278 H   0  0  0  0  0  0  0  0  0  0  0  0
   60.1080   29.5955   50.9381 H   0  0  0  0  0  0  0  0  0  0  0  0
   59.1967   28.2741   50.1105 H   0  0  0  0  0  0  0  0  0  0  0  0
   60.7133   29.6077   48.5764 H   0  0  0  0  0  0  0  0  0  0  0  0
   58.9843   29.5978   48.0858 H   0  0  0  0  0  0  0  0  0  0  0  0
   55.5097   26.9128   44.9400 H   0  0  0  0  0  0  0  0  0  0  0  0
  1  2  1  0
  2  3  2  0
  2  4  2  0
  2  5  1  0
  5  6  1  0
  6  7  2  0
  7  8  1  0
  8  9  2  0
  9 10  1  0
 10 11  1  0
 11 12  1  0
 12 13  2  0
 12 14  1  0
 14 15  2  0
 15 16  1  0
 16 17  2  0
 17 18  1  0
 18 19  2  0
 19 20  1  0
 20 21  2  0
 20 22  1  0
 22 23  1  0
 23 24  2  0
 24 25  1  0
 25 26  2  0
 26 27  1  0
 27 28  2  0
 28 29  1  0
 29 30  1  0
 30 31  1  0
 31 32  1  0
 32 33  1  0
 33 34  1  0
 10 35  2  0
 35  6  1  0
 19 14  1  0
 28 23  1  0
 34 29  1  0
  1 36  1  0
  1 37  1  0
  1 38  1  0
  7 39  1  0
  8 40  1  0
  9 41  1  0
 15 42  1  0
 16 43  1  0
 17 44  1  0
 18 45  1  0
 24 46  1  0
 25 47  1  0
 26 48  1  0
 27 49  1  0
 30 50  1  0
 30 51  1  0
 31 52  1  0
 31 53  1  0
 33 54  1  0
 33 55  1  0
 34 56  1  0
 34 57  1  0
 35 58  1  0
M  CHG  3   5  -1  11  -1  22  -1
M  END
>  <UniqueID>  (11) 
11

>  <SMILES>  (11) 
CS(=O)(=O)[N-]c1cccc([N-]C(=O)c2ccccc2C(=O)[N-]c2ccccc2N2CCOCC2)c1

>  <Energy>  (11) 
84.24600571550818

>  <Genealogy>  (11) 
CS(=O)(=O)[N-]c1cccc([N-]C(=O)c2ccccc2C(=O)[N-]c2ccccc2N2CCOCC2)c1 (protonated)
CS(=O)(=O)[N-]c1cccc([N-]C(=O)c2ccccc2C(=O)[N-]c2ccccc2N2CCOCC2)c1 (3D coordinates assigned)
CS(=O)(=O)[N-]c1cccc([N-]C(=O)c2ccccc2C(=O)[N-]c2ccccc2N2CCOCC2)c1 (nonaromatic ring conformer: 84.24600571550818 kcal/mol)

>  <smiles>  (11) 
CS(=O)(=O)Nc1cccc(NC(=O)c2ccccc2C(=O)Nc2ccccc2N2CCOCC2)c1

>  <score_type>  (11) 
oracle

>  <origin>  (11) 
adg

>  <m_score__min__energy>  (11) 
-14.31

>  <m_primary>  (11) 
energy

$$$$
11:0
     RDKit          3D

 54 56  0  0  0  0  0  0  0  0999 V2000
   60.9530   31.7010   51.1300 H   0  0  0  0  0  0  0  0  0  0  0  0
   61.3530   30.7700   51.3810 N   0  0  0  0  0  0  0  0  0  0  0  0
   60.6910   29.6610   51.2540 C   0  0  0  0  0  0  0  0  0  0  0  0
   59.8690   33.5280   49.2240 C   0  0  0  0  0  0  0  0  0  0  0  0
   58.8940   33.6620   48.2250 C   0  0  0  0  0  0  0  0  0  0  0  0
   57.8818   33.9957   48.4972 H   0  0  0  0  0  0  0  0  0  0  0  0
   60.4100   27.2330   48.3580 C   0  0  0  0  0  0  0  0  0  0  0  0
   60.6798   26.1909   48.1315 H   0  0  0  0  0  0  0  0  0  0  0  0
   59.7750   28.0160   47.3830 C   0  0  0  0  0  0  0  0  0  0  0  0
   59.4880   27.4220   46.0580 C   0  0  0  0  0  0  0  0  0  0  0  0
   59.2624   26.3459   46.0241 H   0  0  0  0  0  0  0  0  0  0  0  0
   59.4810   28.0920   44.8930 C   0  0  0  0  0  0  0  0  0  0  0  0
   60.2721   27.8541   44.1667 H   0  0  0  0  0  0  0  0  0  0  0  0
   58.4930   29.1240   44.5110 C   0  0  0  0  0  0  0  0  0  0  0  0
   57.2710   28.7820   43.9040 C   0  0  0  0  0  0  0  0  0  0  0  0
   57.0357   27.7263   43.7036 H   0  0  0  0  0  0  0  0  0  0  0  0
   56.3560   29.7760   43.5550 C   0  0  0  0  0  0  0  0  0  0  0  0
   55.3986   29.5012   43.0882 H   0  0  0  0  0  0  0  0  0  0  0  0
   56.6530   31.1190   43.7970 C   0  0  0  0  0  0  0  0  0  0  0  0
   55.9269   31.8990   43.5243 H   0  0  0  0  0  0  0  0  0  0  0  0
   57.8770   31.4770   44.3880 C   0  0  0  0  0  0  0  0  0  0  0  0
   58.2210   32.8930   44.6310 C   0  0  0  0  0  0  0  0  0  0  0  0
   58.5508   33.4944   43.7711 H   0  0  0  0  0  0  0  0  0  0  0  0
   58.1590   33.4970   45.8290 C   0  0  0  0  0  0  0  0  0  0  0  0
   57.2808   34.1246   46.0408 H   0  0  0  0  0  0  0  0  0  0  0  0
   59.1900   33.3770   46.8840 C   0  0  0  0  0  0  0  0  0  0  0  0
   60.4630   32.9060   46.5460 C   0  0  0  0  0  0  0  0  0  0  0  0
   60.6863   32.6409   45.5020 H   0  0  0  0  0  0  0  0  0  0  0  0
   61.4610   32.7680   47.5290 C   0  0  0  0  0  0  0  0  0  0  0  0
   62.7530   32.3200   47.2090 O   0  0  0  0  0  0  0  0  0  0  0  0
   63.9170   33.1370   47.2060 C   0  0  0  0  0  0  0  0  0  0  0  0
   64.2189   33.3489   48.2423 H   0  0  0  0  0  0  0  0  0  0  0  0
   64.7322   32.6119   46.6867 H   0  0  0  0  0  0  0  0  0  0  0  0
   63.7002   34.0822   46.6867 H   0  0  0  0  0  0  0  0  0  0  0  0
   61.1650   33.0840   48.8700 C   0  0  0  0  0  0  0  0  0  0  0  0
   62.1520   32.9520   49.8480 O   0  0  0  0  0  0  0  0  0  0  0  0
   61.9350   32.7870   50.8240 H   0  0  0  0  0  0  0  0  0  0  0  0
   60.3860   29.1040   49.9130 C   0  0  0  0  0  0  0  0  0  0  0  0
   59.4790   33.8430   50.6200 C   0  0  0  0  0  0  0  0  0  0  0  0
   58.7609   34.6560   50.8028 H   0  0  0  0  0  0  0  0  0  0  0  0
   59.9590   33.1890   51.6310 N   0  0  0  0  0  0  0  0  0  0  0  0
   61.2140   33.4480   52.1390 O   0  0  0  0  0  0  0  0  0  0  0  0
   61.9460   32.7480   52.1280 H   0  0  0  0  0  0  0  0  0  0  0  0
   59.7770   29.8970   48.9250 C   0  0  0  0  0  0  0  0  0  0  0  0
   59.5277   30.9459   49.1434 H   0  0  0  0  0  0  0  0  0  0  0  0
   58.8050   30.4770   44.7100 C   0  0  0  0  0  0  0  0  0  0  0  0
   59.7861   30.7556   45.1222 H   0  0  0  0  0  0  0  0  0  0  0  0
   59.4860   29.3620   47.6670 C   0  0  0  0  0  0  0  0  0  0  0  0
   59.0283   29.9978   46.8948 H   0  0  0  0  0  0  0  0  0  0  0  0
   60.7020   27.7680   49.6150 C   0  0  0  0  0  0  0  0  0  0  0  0
   61.1832   27.1381   50.3776 H   0  0  0  0  0  0  0  0  0  0  0  0
   60.2650   28.9740   52.4340 N   0  0  0  0  0  0  0  0  0  0  0  0
   60.5160   29.3410   53.3790 H   0  0  0  0  0  0  0  0  0  0  0  0
   59.6580   28.1270   52.3760 H   0  0  0  0  0  0  0  0  0  0  0  0
  1  2  1  0
  2  3  2  0
  3  4  1  0
  4  5  2  0
  5  6  1  0
  5  7  1  0
  7  8  1  0
  7  9  2  0
  9 10  1  0
 10 11  1  0
 10 12  2  3
 12 13  1  0
 12 14  1  0
 14 15  2  0
 15 16  1  0
 15 17  1  0
 17 18  1  0
 17 19  2  0
 19 20  1  0
 19 21  1  0
 21 22  1  0
 22 23  1  0
 22 24  2  3
 24 25  1  0
 24 26  1  0
 26 27  2  0
 27 28  1  0
 27 29  1  0
 29 30  1  0
 30 31  1  0
 31 32  1  0
 31 33  1  0
 31 34  1  0
 29 35  2  0
 35 36  1  0
 36 37  1  0
 35 38  1  0
 38 39  1  0
 39 40  1  0
 39 41  2  0
 41 42  1  0
 42 43  1  0
 38 44  2  0
 44 45  1  0
 21 46  2  0
 46 47  1  0
  9 48  1  0
 48 49  1  0
 48 50  2  0
 50 51  1  0
  3 52  1  0
 52 53  1  0
 52 54  1  0
 50  4  1  0
 46 14  1  0
 44 26  1  0
M  END
>  <UniqueID>  (12) 
12

>  <SMILES>  (12) 
[H]/N=C(/N)c1ccc(C=Cc2cccc(C=Cc3cc(/C=N/O)c(O)c(OC)c3)c2)cc1

>  <Energy>  (12) 
76.91921487282825

>  <Genealogy>  (12) 
[H]/N=C(/N)c1ccc(C=Cc2cccc(C=Cc3cc(/C=N/O)c(O)c(OC)c3)c2)cc1 (cis-trans isomerization)
[H]/N=C(/N)c1ccc(C=Cc2cccc(C=Cc3cc(/C=N/O)c(O)c(OC)c3)c2)cc1 (3D coordinates assigned)
[H]/N=C(/N)c1ccc(C=Cc2cccc(C=Cc3cc(/C=N/O)c(O)c(OC)c3)c2)cc1 (optimized conformer: 76.91921487282825 kcal/mol)

>  <smiles>  (12) 
COc1cc(C=Cc2cccc(C=Cc3ccc(C(=N)N)cc3)c2)cc(C=NO)c1O

>  <score_type>  (12) 
oracle

>  <origin>  (12) 
adg

>  <m_score__min__energy>  (12) 
-8.0299999999999994

>  <m_primary>  (12) 
energy

$$$$
12:0
     RDKit          3D

 42 44  0  0  0  0  0  0  0  0999 V2000
   58.2500   27.9550   47.1090 C   0  0  0  0  0  0  0  0  0  0  0  0
   58.0090   27.4380   45.8930 C   0  0  0  0  0  0  0  0  0  0  0  0
   58.2430   28.0550   44.6530 C   0  0  0  0  0  0  0  0  0  0  0  0
   58.5720   29.3250   44.3430 C   0  0  0  0  0  0  0  0  0  0  0  0
   58.7990   30.4150   45.3120 C   0  0  0  0  0  0  0  0  0  0  0  0
   59.9410   30.4350   46.1210 C   0  0  0  0  0  0  0  0  0  0  0  0
   60.9070   29.4390   46.0170 O   0  0  0  0  0  0  0  0  0  0  0  0
   60.1140   31.4350   47.0170 N   0  0  0  0  0  0  0  0  0  0  0  0
   59.1880   32.4140   47.1770 C   0  0  0  0  0  0  0  0  0  0  0  0
   59.4110   33.3330   48.0110 O   0  0  0  0  0  0  0  0  0  0  0  0
   58.0290   32.3980   46.4430 N   0  0  0  0  0  0  0  0  0  0  0  0
   57.0350   33.4720   46.6060 C   0  0  0  0  0  0  0  0  0  0  0  0
   57.8340   31.4170   45.5020 C   0  0  0  0  0  0  0  0  0  0  0  0
   56.7890   31.4120   44.7920 O   0  0  0  0  0  0  0  0  0  0  0  0
   58.0530   27.0780   43.6930 C   0  0  0  0  0  0  0  0  0  0  0  0
   57.6570   25.9350   44.3560 C   0  0  0  0  0  0  0  0  0  0  0  0
   57.3720   24.6260   43.6810 C   0  0  0  0  0  0  0  0  0  0  0  0
   57.6100   26.1530   45.6920 N   0  0  0  0  0  0  0  0  0  0  0  0
   57.2440   25.1600   46.7180 C   0  0  0  0  0  0  0  0  0  0  0  0
   55.9880   24.4080   46.3340 C   0  0  0  0  0  0  0  0  0  0  0  0
   55.9920   23.0020   46.3290 C   0  0  0  0  0  0  0  0  0  0  0  0
   54.8440   22.2910   45.9700 C   0  0  0  0  0  0  0  0  0  0  0  0
   53.6830   22.9740   45.6020 C   0  0  0  0  0  0  0  0  0  0  0  0
   52.5410   22.2650   45.2470 O   0  0  0  0  0  0  0  0  0  0  0  0
   53.6710   24.3710   45.5870 C   0  0  0  0  0  0  0  0  0  0  0  0
   54.8160   25.0900   45.9440 C   0  0  0  0  0  0  0  0  0  0  0  0
   54.7790   26.4790   45.9060 O   0  0  0  0  0  0  0  0  0  0  0  0
   58.0220   27.3683   48.0111 H   0  0  0  0  0  0  0  0  0  0  0  0
   58.6754   28.9651   47.2027 H   0  0  0  0  0  0  0  0  0  0  0  0
   58.6806   29.5701   43.2762 H   0  0  0  0  0  0  0  0  0  0  0  0
   56.8655   33.6552   47.6773 H   0  0  0  0  0  0  0  0  0  0  0  0
   57.4076   34.3916   46.1312 H   0  0  0  0  0  0  0  0  0  0  0  0
   56.0893   33.1715   46.1312 H   0  0  0  0  0  0  0  0  0  0  0  0
   58.1913   27.1908   42.6076 H   0  0  0  0  0  0  0  0  0  0  0  0
   57.2031   23.8501   44.4422 H   0  0  0  0  0  0  0  0  0  0  0  0
   56.4744   24.7251   43.0529 H   0  0  0  0  0  0  0  0  0  0  0  0
   58.2296   24.3430   43.0529 H   0  0  0  0  0  0  0  0  0  0  0  0
   58.0699   24.4426   46.8327 H   0  0  0  0  0  0  0  0  0  0  0  0
   57.0549   25.6911   47.6626 H   0  0  0  0  0  0  0  0  0  0  0  0
   56.9057   22.4577   46.6098 H   0  0  0  0  0  0  0  0  0  0  0  0
   54.8548   21.1911   45.9773 H   0  0  0  0  0  0  0  0  0  0  0  0
   52.7569   24.9076   45.2931 H   0  0  0  0  0  0  0  0  0  0  0  0
  1  2  2  0
  2  3  1  0
  3  4  2  3
  4  5  1  0
  5  6  2  0
  6  7  1  0
  6  8  1  0
  8  9  1  0
  9 10  2  0
  9 11  1  0
 11 12  1  0
 11 13  1  0
 13 14  2  0
  3 15  1  0
 15 16  2  0
 16 17  1  0
 16 18  1  0
 18 19  1  0
 19 20  1  0
 20 21  2  0
 21 22  1  0
 22 23  2  0
 23 24  1  0
 23 25  1  0
 25 26  2  0
 26 27  1  0
 18  2  1  0
 26 20  1  0
 13  5  1  0
  1 28  1  0
  1 29  1  0
  4 30  1  0
 12 31  1  0
 12 32  1  0
 12 33  1  0
 15 34  1  0
 17 35  1  0
 17 36  1  0
 17 37  1  0
 19 38  1  0
 19 39  1  0
 21 40  1  0
 22 41  1  0
 25 42  1  0
M  CHG  4   7  -1   8  -1  24  -1  27  -1
M  END
>  <UniqueID>  (13) 
13

>  <SMILES>  (13) 
C=c1c(=Cc2c([O-])[n-]c(=O)n(C)c2=O)cc(C)n1Cc1ccc([O-])cc1[O-]

>  <Energy>  (13) 
91.03562461098966

>  <Genealogy>  (13) 
C=c1c(=Cc2c([O-])[n-]c(=O)n(C)c2=O)cc(C)n1Cc1ccc([O-])cc1[O-] (protonated)
C=c1c(=Cc2c([O-])[n-]c(=O)n(C)c2=O)cc(C)n1Cc1ccc([O-])cc1[O-] (3D coordinates assigned)
C=c1c(=Cc2c([O-])[n-]c(=O)n(C)c2=O)cc(C)n1Cc1ccc([O-])cc1[O-] (optimized conformer: 91.03562461098966 kcal/mol)

>  <smiles>  (13) 
C=c1c(=Cc2c(O)[nH]c(=O)n(C)c2=O)cc(C)n1Cc1ccc(O)cc1O

>  <score_type>  (13) 
oracle

>  <origin>  (13) 
adg

>  <m_score__min__energy>  (13) 
-15.84

>  <m_primary>  (13) 
energy

$$$$
13:0
     RDKit          3D

 62 64  0  0  0  0  0  0  0  0999 V2000
   69.3040   34.6190   50.0860 C   0  0  0  0  0  0  0  0  0  0  0  0
   68.9600   33.4670   51.0260 C   0  0  0  0  0  0  0  0  0  0  0  0
   67.6410   32.9850   50.7650 O   0  0  0  0  0  0  0  0  0  0  0  0
   66.4780   33.6840   51.1250 C   0  0  0  0  0  0  0  0  0  0  0  0
   66.5650   34.8540   51.5950 O   0  0  0  0  0  0  0  0  0  0  0  0
   65.1880   33.0680   50.9480 N   0  0  0  0  0  0  0  0  0  0  0  0
   63.9560   33.7850   51.3060 C   0  0  0  0  0  0  0  0  0  0  0  0
   62.8670   33.5210   50.2610 C   0  0  0  0  0  0  0  0  0  0  0  0
   62.7650   32.0910   49.9230 N   0  0  0  0  0  0  0  0  0  0  0  0
   61.7360   31.6210   49.0260 C   0  0  0  0  0  0  0  0  0  0  0  0
   61.3380   30.4270   49.0980 O   0  0  0  0  0  0  0  0  0  0  0  0
   61.1950   32.4740   47.9490 C   0  0  0  0  0  0  0  0  0  0  0  0
   62.0010   33.4190   47.2930 C   0  0  0  0  0  0  0  0  0  0  0  0
   61.4680   34.2080   46.2710 C   0  0  0  0  0  0  0  0  0  0  0  0
   60.1250   34.0780   45.9120 C   0  0  0  0  0  0  0  0  0  0  0  0
   59.3010   33.1660   46.5870 C   0  0  0  0  0  0  0  0  0  0  0  0
   57.5810   33.0750   46.2090 S   0  0  0  0  0  0  0  0  0  0  0  0
   57.2450   34.0790   45.1410 O   0  0  0  0  0  0  0  0  0  0  0  0
   56.7700   33.4010   47.4360 O   0  0  0  0  0  0  0  0  0  0  0  0
   57.1980   31.4790   45.6270 N   0  0  0  0  0  0  0  0  0  0  0  0
   58.3420   30.9250   44.8970 C   0  0  0  0  0  0  0  0  0  0  0  0
   58.4410   29.4390   45.1400 C   0  0  0  0  0  0  0  0  0  0  0  0
   59.7070   28.8720   45.3610 C   0  0  0  0  0  0  0  0  0  0  0  0
   59.8380   27.5030   45.5960 C   0  0  0  0  0  0  0  0  0  0  0  0
   58.7080   26.6850   45.6060 C   0  0  0  0  0  0  0  0  0  0  0  0
   57.4410   27.2320   45.3860 C   0  0  0  0  0  0  0  0  0  0  0  0
   57.2900   28.6160   45.1590 C   0  0  0  0  0  0  0  0  0  0  0  0
   56.0270   29.2030   44.9590 O   0  0  0  0  0  0  0  0  0  0  0  0
   55.6010   29.9010   43.7860 C   0  0  0  0  0  0  0  0  0  0  0  0
   56.3540   29.4020   42.5560 C   0  0  0  0  0  0  0  0  0  0  0  0
   59.8390   32.3690   47.6070 C   0  0  0  0  0  0  0  0  0  0  0  0
   63.6830   31.1270   50.5490 C   0  0  0  0  0  0  0  0  0  0  0  0
   65.1210   31.6640   50.5130 C   0  0  0  0  0  0  0  0  0  0  0  0
   69.5694   35.5079   50.6772 H   0  0  0  0  0  0  0  0  0  0  0  0
   70.1559   34.3328   49.4516 H   0  0  0  0  0  0  0  0  0  0  0  0
   68.4347   34.8467   49.4516 H   0  0  0  0  0  0  0  0  0  0  0  0
   69.6805   32.6495   50.8755 H   0  0  0  0  0  0  0  0  0  0  0  0
   69.0078   33.8284   52.0638 H   0  0  0  0  0  0  0  0  0  0  0  0
   63.6069   33.4386   52.2899 H   0  0  0  0  0  0  0  0  0  0  0  0
   64.1661   34.8642   51.3404 H   0  0  0  0  0  0  0  0  0  0  0  0
   61.9005   33.8617   50.6607 H   0  0  0  0  0  0  0  0  0  0  0  0
   63.1331   34.0695   49.3454 H   0  0  0  0  0  0  0  0  0  0  0  0
   63.0549   33.5380   47.5849 H   0  0  0  0  0  0  0  0  0  0  0  0
   62.1080   34.9336   45.7477 H   0  0  0  0  0  0  0  0  0  0  0  0
   59.7125   34.6922   45.0980 H   0  0  0  0  0  0  0  0  0  0  0  0
   56.4010   31.5890   44.9570 H   0  0  0  0  0  0  0  0  0  0  0  0
   58.2109   31.1098   43.8206 H   0  0  0  0  0  0  0  0  0  0  0  0
   59.2639   31.4101   45.2502 H   0  0  0  0  0  0  0  0  0  0  0  0
   60.6016   29.5120   45.3487 H   0  0  0  0  0  0  0  0  0  0  0  0
   60.8328   27.0684   45.7735 H   0  0  0  0  0  0  0  0  0  0  0  0
   58.8147   25.6054   45.7877 H   0  0  0  0  0  0  0  0  0  0  0  0
   56.5557   26.5791   45.3899 H   0  0  0  0  0  0  0  0  0  0  0  0
   54.5231   29.7372   43.6402 H   0  0  0  0  0  0  0  0  0  0  0  0
   55.8107   30.9728   43.9174 H   0  0  0  0  0  0  0  0  0  0  0  0
   57.2317   28.8204   42.8744 H   0  0  0  0  0  0  0  0  0  0  0  0
   55.6904   28.7643   41.9535 H   0  0  0  0  0  0  0  0  0  0  0  0
   56.6827   30.2617   41.9535 H   0  0  0  0  0  0  0  0  0  0  0  0
   59.1937   31.6570   48.1423 H   0  0  0  0  0  0  0  0  0  0  0  0
   63.3818   30.9646   51.5944 H   0  0  0  0  0  0  0  0  0  0  0  0
   63.6402   30.1782   49.9942 H   0  0  0  0  0  0  0  0  0  0  0  0
   65.7465   31.0535   51.1809 H   0  0  0  0  0  0  0  0  0  0  0  0
   65.4822   31.6086   49.4755 H   0  0  0  0  0  0  0  0  0  0  0  0
  1  2  1  0
  2  3  1  0
  3  4  1  0
  4  5  2  0
  4  6  1  0
  6  7  1  0
  7  8  1  0
  8  9  1  0
  9 10  1  0
 10 11  2  0
 10 12  1  0
 12 13  2  0
 13 14  1  0
 14 15  2  0
 15 16  1  0
 16 17  1  0
 17 18  2  0
 17 19  2  0
 17 20  1  0
 20 21  1  0
 21 22  1  0
 22 23  2  0
 23 24  1  0
 24 25  2  0
 25 26  1  0
 26 27  2  0
 27 28  1  0
 28 29  1  0
 29 30  1  0
 16 31  2  0
  9 32  1  0
 32 33  1  0
 33  6  1  0
 31 12  1  0
 27 22  1  0
  1 34  1  0
  1 35  1  0
  1 36  1  0
  2 37  1  0
  2 38  1  0
  7 39  1  0
  7 40  1  0
  8 41  1  0
  8 42  1  0
 13 43  1  0
 14 44  1  0
 15 45  1  0
 20 46  1  0
 21 47  1  0
 21 48  1  0
 23 49  1  0
 24 50  1  0
 25 51  1  0
 26 52  1  0
 29 53  1  0
 29 54  1  0
 30 55  1  0
 30 56  1  0
 30 57  1  0
 31 58  1  0
 32 59  1  0
 32 60  1  0
 33 61  1  0
 33 62  1  0
M  END
>  <UniqueID>  (14) 
14

>  <SMILES>  (14) 
CCOC(=O)N1CCN(C(=O)c2cccc(S(=O)(=O)NCc3ccccc3OCC)c2)CC1

>  <Energy>  (14) 
63.05589020447127

>  <Genealogy>  (14) 
CCOC(=O)N1CCN(C(=O)c2cccc(S(=O)(=O)NCc3ccccc3OCC)c2)CC1 (3D coordinates assigned)
CCOC(=O)N1CCN(C(=O)c2cccc(S(=O)(=O)NCc3ccccc3OCC)c2)CC1 (nonaromatic ring conformer: 63.05589020447127 kcal/mol)

>  <smiles>  (14) 
CCOC(=O)N1CCN(C(=O)c2cccc(S(=O)(=O)NCc3ccccc3OCC)c2)CC1

>  <score_type>  (14) 
oracle

>  <origin>  (14) 
adg

>  <m_score__min__energy>  (14) 
-9.1999999999999993

>  <m_primary>  (14) 
energy

$$$$
14:0
     RDKit          3D

 55 58  0  0  0  0  0  0  0  0999 V2000
   56.1120   32.2950   51.6210 H   0  0  0  0  0  0  0  0  0  0  0  0
   56.7020   32.1740   52.4100 O   0  0  0  0  0  0  0  0  0  0  0  0
   58.0160   32.0180   51.9360 C   0  0  2  0  0  0  0  0  0  0  0  0
   58.5967   31.4310   52.6628 H   0  0  0  0  0  0  0  0  0  0  0  0
   58.7090   33.3960   51.8160 C   0  0  0  0  0  0  0  0  0  0  0  0
   57.9791   34.1337   51.4513 H   0  0  0  0  0  0  0  0  0  0  0  0
   59.0882   33.6818   52.8083 H   0  0  0  0  0  0  0  0  0  0  0  0
   59.8910   33.3410   50.8440 C   0  0  0  0  0  0  0  0  0  0  0  0
   60.3651   34.3329   50.8072 H   0  0  0  0  0  0  0  0  0  0  0  0
   60.5907   32.5744   51.2083 H   0  0  0  0  0  0  0  0  0  0  0  0
   59.4550   32.9420   49.4070 C   0  0  2  0  0  0  0  0  0  0  0  0
   60.2647   32.3149   49.0056 H   0  0  0  0  0  0  0  0  0  0  0  0
   59.2690   34.1320   48.5720 N   0  0  0  0  0  0  0  0  0  0  0  0
   59.1100   34.1740   47.2770 C   0  0  0  0  0  0  0  0  0  0  0  0
   58.5350   33.0670   46.6400 C   0  0  0  0  0  0  0  0  0  0  0  0
   58.2313   32.1905   47.2312 H   0  0  0  0  0  0  0  0  0  0  0  0
   58.3450   33.0730   45.2470 C   0  0  0  0  0  0  0  0  0  0  0  0
   57.7270   31.9210   44.5410 C   0  0  0  0  0  0  0  0  0  0  0  0
   57.3630   30.8190   45.2560 N   0  0  0  0  0  0  0  0  0  0  0  0
   56.7880   29.7270   44.6790 C   0  0  0  0  0  0  0  0  0  0  0  0
   56.4570   28.6930   45.3930 N   0  0  0  0  0  0  0  0  0  0  0  0
   57.4180   27.8160   46.0540 C   0  0  0  0  0  0  0  0  0  0  0  0
   57.7705   27.0548   45.3424 H   0  0  0  0  0  0  0  0  0  0  0  0
   56.9362   27.3204   46.9097 H   0  0  0  0  0  0  0  0  0  0  0  0
   58.5840   28.6300   46.5360 C   0  0  0  0  0  0  0  0  0  0  0  0
   58.6510   29.0580   47.8710 C   0  0  0  0  0  0  0  0  0  0  0  0
   57.8302   28.8229   48.5646 H   0  0  0  0  0  0  0  0  0  0  0  0
   59.7290   29.7630   48.3090 N   0  0  0  0  0  0  0  0  0  0  0  0
   60.7700   30.0700   47.4870 C   0  0  0  0  0  0  0  0  0  0  0  0
   61.9340   30.8440   48.0170 C   0  0  0  0  0  0  0  0  0  0  0  0
   61.9133   30.8303   49.1167 H   0  0  0  0  0  0  0  0  0  0  0  0
   62.8699   30.3877   47.6621 H   0  0  0  0  0  0  0  0  0  0  0  0
   61.8753   31.8835   47.6621 H   0  0  0  0  0  0  0  0  0  0  0  0
   60.7490   29.6470   46.1530 C   0  0  0  0  0  0  0  0  0  0  0  0
   61.5876   29.8855   45.4822 H   0  0  0  0  0  0  0  0  0  0  0  0
   59.6550   28.9200   45.6810 C   0  0  0  0  0  0  0  0  0  0  0  0
   59.6338   28.5745   44.6369 H   0  0  0  0  0  0  0  0  0  0  0  0
   56.5520   29.7180   43.3010 C   0  0  0  0  0  0  0  0  0  0  0  0
   56.0951   28.8400   42.8212 H   0  0  0  0  0  0  0  0  0  0  0  0
   56.9020   30.8340   42.5410 C   0  0  0  0  0  0  0  0  0  0  0  0
   56.7160   30.8409   41.4569 H   0  0  0  0  0  0  0  0  0  0  0  0
   57.4880   31.9420   43.1550 C   0  0  0  0  0  0  0  0  0  0  0  0
   57.7610   32.8255   42.5592 H   0  0  0  0  0  0  0  0  0  0  0  0
   58.7260   34.2130   44.5230 C   0  0  0  0  0  0  0  0  0  0  0  0
   58.5739   34.2509   43.4342 H   0  0  0  0  0  0  0  0  0  0  0  0
   59.2980   35.2980   45.1870 C   0  0  0  0  0  0  0  0  0  0  0  0
   59.6024   36.1883   44.6172 H   0  0  0  0  0  0  0  0  0  0  0  0
   59.4820   35.2630   46.5340 N   0  0  0  0  0  0  0  0  0  0  0  0
   59.9140   36.1040   46.9760 H   0  0  0  0  0  0  0  0  0  0  0  0
   58.1460   32.1190   49.3890 C   0  0  0  0  0  0  0  0  0  0  0  0
   57.2900   32.8098   49.3806 H   0  0  0  0  0  0  0  0  0  0  0  0
   58.1492   31.4868   48.4888 H   0  0  0  0  0  0  0  0  0  0  0  0
   58.0370   31.2070   50.6150 C   0  0  0  0  0  0  0  0  0  0  0  0
   57.1086   30.6216   50.5418 H   0  0  0  0  0  0  0  0  0  0  0  0
   58.9188   30.5496   50.6315 H   0  0  0  0  0  0  0  0  0  0  0  0
  1  2  1  0
  2  3  1  0
  3  4  1  1
  3  5  1  0
  5  6  1  0
  5  7  1  0
  5  8  1  0
  8  9  1  0
  8 10  1  0
  8 11  1  0
 11 12  1  6
 11 13  1  0
 13 14  2  0
 14 15  1  0
 15 16  1  0
 15 17  2  0
 17 18  1  0
 18 19  1  0
 19 20  1  0
 20 21  2  0
 21 22  1  0
 22 23  1  0
 22 24  1  0
 22 25  1  0
 25 26  2  0
 26 27  1  0
 26 28  1  0
 28 29  2  0
 29 30  1  0
 30 31  1  0
 30 32  1  0
 30 33  1  0
 29 34  1  0
 34 35  1  0
 34 36  2  0
 36 37  1  0
 20 38  1  0
 38 39  1  0
 38 40  2  0
 40 41  1  0
 40 42  1  0
 42 43  1  0
 17 44  1  0
 44 45  1  0
 44 46  2  0
 46 47  1  0
 46 48  1  0
 48 49  1  0
 11 50  1  0
 50 51  1  0
 50 52  1  0
 50 53  1  0
 53 54  1  0
 53 55  1  0
 53  3  1  0
 48 14  1  0
 42 18  2  0
 36 25  1  0
M  CHG  1  19  -1
M  END
>  <UniqueID>  (15) 
15

>  <SMILES>  (15) 
Cc1ccc(C/N=c2/cccc(-c3cc[nH]/c(=N\C4CCC(O)CC4)c3)[n-]2)cn1

>  <Energy>  (15) 
66.02593668829667

>  <Genealogy>  (15) 
Cc1ccc(CN=c2cccc(-c3cc[nH]c(=NC4CCC(O)CC4)c3)[n-]2)cn1 (protonated)
Cc1ccc(C/N=c2/cccc(-c3cc[nH]/c(=N\C4CCC(O)CC4)c3)[n-]2)cn1 (cis-trans isomerization)
Cc1ccc(C/N=c2/cccc(-c3cc[nH]/c(=N\C4CCC(O)CC4)c3)[n-]2)cn1 (3D coordinates assigned)
Cc1ccc(C/N=c2/cccc(-c3cc[nH]/c(=N\C4CCC(O)CC4)c3)[n-]2)cn1 (nonaromatic ring conformer: 66.02593668829667 kcal/mol)

>  <smiles>  (15) 
Cc1ccc(CN=c2cccc(-c3cc[nH]c(=NC4CCC(O)CC4)c3)[nH]2)cn1

>  <score_type>  (15) 
oracle

>  <origin>  (15) 
adg

>  <m_score__min__energy>  (15) 
-11.550000000000001

>  <m_primary>  (15) 
energy

$$$$
15:0
     RDKit          3D

 57 59  0  0  0  0  0  0  0  0999 V2000
   57.8380   33.1200   52.2090 C   0  0  0  0  0  0  0  0  0  0  0  0
   58.0250   32.2710   51.1950 C   0  0  0  0  0  0  0  0  0  0  0  0
   59.3590   31.6200   50.9290 C   0  0  0  0  0  0  0  0  0  0  0  0
   59.3010   30.6100   49.7730 C   0  0  2  0  0  0  0  0  0  0  0  0
   59.4780   29.1840   50.2480 C   0  0  0  0  0  0  0  0  0  0  0  0
   59.9590   28.2440   49.4200 C   0  0  0  0  0  0  0  0  0  0  0  0
   60.3340   28.5580   47.9910 C   0  0  1  0  0  0  0  0  0  0  0  0
   59.1990   28.2780   47.1110 N   0  0  0  0  0  0  0  0  0  0  0  0
   58.7910   26.9360   46.7960 C   0  0  0  0  0  0  0  0  0  0  0  0
   59.5110   25.9650   47.1560 O   0  0  0  0  0  0  0  0  0  0  0  0
   57.5360   26.6790   46.0440 C   0  0  0  0  0  0  0  0  0  0  0  0
   57.3550   27.2820   44.8480 C   0  0  0  0  0  0  0  0  0  0  0  0
   57.5440   28.7240   44.5820 C   0  0  0  0  0  0  0  0  0  0  0  0
   56.4260   29.5630   44.5030 C   0  0  0  0  0  0  0  0  0  0  0  0
   56.5890   30.9340   44.2990 C   0  0  0  0  0  0  0  0  0  0  0  0
   57.8870   31.4710   44.1980 C   0  0  0  0  0  0  0  0  0  0  0  0
   58.1090   32.7410   44.0130 N   0  0  0  0  0  0  0  0  0  0  0  0
   57.8960   34.0070   45.1830 S   0  0  0  0  0  0  0  0  0  0  0  0
   57.9040   35.3470   44.4990 O   0  0  0  0  0  0  0  0  0  0  0  0
   56.5910   33.8260   45.9080 O   0  0  0  0  0  0  0  0  0  0  0  0
   59.2210   33.9360   46.3400 C   0  0  0  0  0  0  0  0  0  0  0  0
   58.9600   34.0170   47.7150 C   0  0  0  0  0  0  0  0  0  0  0  0
   60.0110   33.9750   48.6340 C   0  0  0  0  0  0  0  0  0  0  0  0
   61.3360   33.8420   48.1890 C   0  0  0  0  0  0  0  0  0  0  0  0
   62.4680   33.8360   49.1730 C   0  0  0  0  0  0  0  0  0  0  0  0
   61.5970   33.7870   46.8110 C   0  0  0  0  0  0  0  0  0  0  0  0
   60.5440   33.8310   45.8930 C   0  0  0  0  0  0  0  0  0  0  0  0
   58.9560   30.6370   44.3070 N   0  0  0  0  0  0  0  0  0  0  0  0
   58.8210   29.2990   44.5010 C   0  0  0  0  0  0  0  0  0  0  0  0
   56.5080   25.7990   46.6500 C   0  0  0  0  0  0  0  0  0  0  0  0
   55.1430   25.8870   46.2430 N   0  0  0  0  0  0  0  0  0  0  0  0
   56.8320   24.9890   47.5590 O   0  0  0  0  0  0  0  0  0  0  0  0
   60.7450   30.0000   47.8640 C   0  0  0  0  0  0  0  0  0  0  0  0
   61.4960   30.3650   46.9210 O   0  0  0  0  0  0  0  0  0  0  0  0
   60.2790   30.9430   48.7840 O   0  0  0  0  0  0  0  0  0  0  0  0
   56.8495   33.5747   52.3704 H   0  0  0  0  0  0  0  0  0  0  0  0
   58.6725   33.3645   52.8827 H   0  0  0  0  0  0  0  0  0  0  0  0
   57.1783   32.0391   50.5323 H   0  0  0  0  0  0  0  0  0  0  0  0
   60.0895   32.4029   50.6770 H   0  0  0  0  0  0  0  0  0  0  0  0
   59.6503   31.0719   51.8372 H   0  0  0  0  0  0  0  0  0  0  0  0
   58.2984   30.6721   49.3248 H   0  0  0  0  0  0  0  0  0  0  0  0
   59.2101   28.9159   51.2806 H   0  0  0  0  0  0  0  0  0  0  0  0
   60.0836   27.2164   49.7922 H   0  0  0  0  0  0  0  0  0  0  0  0
   61.1841   27.9251   47.6963 H   0  0  0  0  0  0  0  0  0  0  0  0
   58.6460   29.0790   46.7300 H   0  0  0  0  0  0  0  0  0  0  0  0
   57.0419   26.6489   44.0047 H   0  0  0  0  0  0  0  0  0  0  0  0
   55.4154   29.1401   44.6021 H   0  0  0  0  0  0  0  0  0  0  0  0
   55.7100   31.5904   44.2177 H   0  0  0  0  0  0  0  0  0  0  0  0
   57.9239   34.1140   48.0714 H   0  0  0  0  0  0  0  0  0  0  0  0
   59.7997   34.0464   49.7111 H   0  0  0  0  0  0  0  0  0  0  0  0
   62.0644   33.8381   50.1963 H   0  0  0  0  0  0  0  0  0  0  0  0
   63.0802   32.9346   49.0222 H   0  0  0  0  0  0  0  0  0  0  0  0
   63.0897   34.7309   49.0222 H   0  0  0  0  0  0  0  0  0  0  0  0
   62.6339   33.7090   46.4523 H   0  0  0  0  0  0  0  0  0  0  0  0
   60.7554   33.7829   44.8146 H   0  0  0  0  0  0  0  0  0  0  0  0
   59.7151   28.6652   44.5948 H   0  0  0  0  0  0  0  0  0  0  0  0
   54.7890   26.7270   45.7330 H   0  0  0  0  0  0  0  0  0  0  0  0
  1  2  2  0
  2  3  1  0
  3  4  1  0
  4  5  1  0
  5  6  2  0
  6  7  1  0
  7  8  1  0
  8  9  1  0
  9 10  2  0
  9 11  1  0
 11 12  2  3
 12 13  1  0
 13 14  1  0
 14 15  2  0
 15 16  1  0
 16 17  2  3
 17 18  1  0
 18 19  2  0
 18 20  2  0
 18 21  1  0
 21 22  2  0
 22 23  1  0
 23 24  2  0
 24 25  1  0
 24 26  1  0
 26 27  2  0
 16 28  1  0
 28 29  1  0
 11 30  1  0
 30 31  1  0
 30 32  2  0
  7 33  1  0
 33 34  2  0
 33 35  1  0
 35  4  1  0
 29 13  2  0
 27 21  1  0
  1 36  1  0
  1 37  1  0
  2 38  1  0
  3 39  1  0
  3 40  1  0
  4 41  1  6
  5 42  1  0
  6 43  1  0
  7 44  1  6
  8 45  1  0
 12 46  1  0
 14 47  1  0
 15 48  1  0
 22 49  1  0
 23 50  1  0
 25 51  1  0
 25 52  1  0
 25 53  1  0
 26 54  1  0
 27 55  1  0
 29 56  1  0
 31 57  1  0
M  CHG  2  28  -1  31  -1
M  END
>  <UniqueID>  (16) 
16

>  <SMILES>  (16) 
C=CC[C@@H]1C=C[C@@H](NC(=O)C(=Cc2ccc(=NS(=O)(=O)c3ccc(C)cc3)[n-]c2)C([NH-])=O)C(=O)O1

>  <Energy>  (16) 
71.64077059394226

>  <Genealogy>  (16) 
C=CCC1C=CC(NC(=O)C(=Cc2ccc(=NS(=O)(=O)c3ccc(C)cc3)[n-]c2)C([NH-])=O)C(=O)O1 (protonated)
C=CC[C@@H]1C=C[C@@H](NC(=O)C(=Cc2ccc(=NS(=O)(=O)c3ccc(C)cc3)[n-]c2)C([NH-])=O)C(=O)O1 (chirality)
C=CC[C@@H]1C=C[C@@H](NC(=O)C(=Cc2ccc(=NS(=O)(=O)c3ccc(C)cc3)[n-]c2)C([NH-])=O)C(=O)O1 (3D coordinates assigned)
C=CC[C@@H]1C=C[C@@H](NC(=O)C(=Cc2ccc(=NS(=O)(=O)c3ccc(C)cc3)[n-]c2)C([NH-])=O)C(=O)O1 (nonaromatic ring conformer: 71.64077059394226 kcal/mol)

>  <smiles>  (16) 
C=CCC1C=CC(NC(=O)C(=Cc2ccc(=NS(=O)(=O)c3ccc(C)cc3)[nH]c2)C(N)=O)C(=O)O1

>  <score_type>  (16) 
oracle

>  <origin>  (16) 
adg

>  <m_score__min__energy>  (16) 
-13.859999999999999

>  <m_primary>  (16) 
energy

$$$$
16:0
     RDKit          3D

 56 59  0  0  0  0  0  0  0  0999 V2000
   63.9680   33.2770   50.0260 C   0  0  0  0  0  0  0  0  0  0  0  0
   62.8220   34.1090   49.8670 O   0  0  0  0  0  0  0  0  0  0  0  0
   61.9800   34.0910   48.7440 C   0  0  0  0  0  0  0  0  0  0  0  0
   62.5140   33.6860   47.5170 C   0  0  0  0  0  0  0  0  0  0  0  0
   61.7140   33.6450   46.3710 C   0  0  0  0  0  0  0  0  0  0  0  0
   60.3610   34.0090   46.4390 C   0  0  0  0  0  0  0  0  0  0  0  0
   59.4770   33.8960   45.2230 C   0  0  0  0  0  0  0  0  0  0  0  0
   58.0200   34.2610   45.5330 C   0  0  0  0  0  0  0  0  0  0  0  0
   57.2480   33.0830   45.9240 N   0  0  0  0  0  0  0  0  0  0  0  0
   57.8270   31.8500   46.3670 C   0  0  0  0  0  0  0  0  0  0  0  0
   58.4460   31.8090   47.4650 O   0  0  0  0  0  0  0  0  0  0  0  0
   57.6970   30.6280   45.5430 C   0  0  0  0  0  0  0  0  0  0  0  0
   57.3490   30.7140   44.1830 C   0  0  0  0  0  0  0  0  0  0  0  0
   57.2170   29.5580   43.4110 C   0  0  0  0  0  0  0  0  0  0  0  0
   57.4340   28.3040   43.9810 C   0  0  0  0  0  0  0  0  0  0  0  0
   57.7870   28.1930   45.3350 C   0  0  0  0  0  0  0  0  0  0  0  0
   57.9860   26.8380   45.9590 C   0  0  0  0  0  0  0  0  0  0  0  0
   56.7450   25.9920   45.7970 C   0  0  0  0  0  0  0  0  0  0  0  0
   55.5490   26.6100   45.9920 N   0  0  0  0  0  0  0  0  0  0  0  0
   54.3870   25.9600   45.9110 N   0  0  0  0  0  0  0  0  0  0  0  0
   54.3360   24.6350   45.6390 C   0  0  0  0  0  0  0  0  0  0  0  0
   53.2170   24.0590   45.5920 O   0  0  0  0  0  0  0  0  0  0  0  0
   55.5270   23.9250   45.4240 C   0  0  0  0  0  0  0  0  0  0  0  0
   56.7550   24.6030   45.5070 C   0  0  0  0  0  0  0  0  0  0  0  0
   58.0090   23.7730   45.3140 C   0  0  0  0  0  0  0  0  0  0  0  0
   57.8480   22.8560   44.0930 C   0  0  0  0  0  0  0  0  0  0  0  0
   56.5410   22.0260   44.1030 C   0  0  0  0  0  0  0  0  0  0  0  0
   55.5300   22.4320   45.1920 C   0  0  0  0  0  0  0  0  0  0  0  0
   57.9180   29.3590   46.1100 C   0  0  0  0  0  0  0  0  0  0  0  0
   59.8200   34.4140   47.6680 C   0  0  0  0  0  0  0  0  0  0  0  0
   60.6220   34.4620   48.8130 C   0  0  0  0  0  0  0  0  0  0  0  0
   64.1692   33.1309   51.0975 H   0  0  0  0  0  0  0  0  0  0  0  0
   63.7820   32.3021   49.5516 H   0  0  0  0  0  0  0  0  0  0  0  0
   64.8373   33.7557   49.5516 H   0  0  0  0  0  0  0  0  0  0  0  0
   63.5734   33.3969   47.4526 H   0  0  0  0  0  0  0  0  0  0  0  0
   62.1476   33.3259   45.4117 H   0  0  0  0  0  0  0  0  0  0  0  0
   59.8551   34.5757   44.4452 H   0  0  0  0  0  0  0  0  0  0  0  0
   59.4993   32.8498   44.8840 H   0  0  0  0  0  0  0  0  0  0  0  0
   58.0009   34.9909   46.3557 H   0  0  0  0  0  0  0  0  0  0  0  0
   57.5681   34.6858   44.6245 H   0  0  0  0  0  0  0  0  0  0  0  0
   57.1796   31.6992   43.7241 H   0  0  0  0  0  0  0  0  0  0  0  0
   56.9408   29.6368   42.3492 H   0  0  0  0  0  0  0  0  0  0  0  0
   57.3281   27.3976   43.3667 H   0  0  0  0  0  0  0  0  0  0  0  0
   58.8330   26.3352   45.4694 H   0  0  0  0  0  0  0  0  0  0  0  0
   58.1899   26.9676   47.0321 H   0  0  0  0  0  0  0  0  0  0  0  0
   58.8681   24.4418   45.1567 H   0  0  0  0  0  0  0  0  0  0  0  0
   58.1758   23.1565   46.2096 H   0  0  0  0  0  0  0  0  0  0  0  0
   57.8556   23.4800   43.1872 H   0  0  0  0  0  0  0  0  0  0  0  0
   58.6826   22.1398   44.1179 H   0  0  0  0  0  0  0  0  0  0  0  0
   56.0543   22.1412   43.1233 H   0  0  0  0  0  0  0  0  0  0  0  0
   56.8332   20.9882   44.3212 H   0  0  0  0  0  0  0  0  0  0  0  0
   54.5234   22.1180   44.8786 H   0  0  0  0  0  0  0  0  0  0  0  0
   55.8222   21.9399   46.1314 H   0  0  0  0  0  0  0  0  0  0  0  0
   58.1963   29.2784   47.1712 H   0  0  0  0  0  0  0  0  0  0  0  0
   58.7586   34.6956   47.7318 H   0  0  0  0  0  0  0  0  0  0  0  0
   60.1914   34.7904   49.7705 H   0  0  0  0  0  0  0  0  0  0  0  0
  1  2  1  0
  2  3  1  0
  3  4  2  0
  4  5  1  0
  5  6  2  0
  6  7  1  0
  7  8  1  0
  8  9  1  0
  9 10  1  0
 10 11  2  0
 10 12  1  0
 12 13  2  0
 13 14  1  0
 14 15  2  0
 15 16  1  0
 16 17  1  0
 17 18  1  0
 18 19  2  0
 19 20  1  0
 20 21  1  0
 21 22  2  0
 21 23  1  0
 23 24  2  0
 24 25  1  0
 25 26  1  0
 26 27  1  0
 27 28  1  0
 16 29  2  0
  6 30  1  0
 30 31  2  0
 31  3  1  0
 29 12  1  0
 24 18  1  0
 28 23  1  0
  1 32  1  0
  1 33  1  0
  1 34  1  0
  4 35  1  0
  5 36  1  0
  7 37  1  0
  7 38  1  0
  8 39  1  0
  8 40  1  0
 13 41  1  0
 14 42  1  0
 15 43  1  0
 17 44  1  0
 17 45  1  0
 25 46  1  0
 25 47  1  0
 26 48  1  0
 26 49  1  0
 27 50  1  0
 27 51  1  0
 28 52  1  0
 28 53  1  0
 29 54  1  0
 30 55  1  0
 31 56  1  0
M  CHG  2   9  -1  20  -1
M  END
>  <UniqueID>  (17) 
17

>  <SMILES>  (17) 
COc1ccc(CC[N-]C(=O)c2cccc(Cc3n[n-]c(=O)c4c3CCCC4)c2)cc1

>  <Energy>  (17) 
64.10885590717461

>  <Genealogy>  (17) 
COc1ccc(CC[N-]C(=O)c2cccc(Cc3n[n-]c(=O)c4c3CCCC4)c2)cc1 (protonated)
COc1ccc(CC[N-]C(=O)c2cccc(Cc3n[n-]c(=O)c4c3CCCC4)c2)cc1 (3D coordinates assigned)
COc1ccc(CC[N-]C(=O)c2cccc(Cc3n[n-]c(=O)c4c3CCCC4)c2)cc1 (nonaromatic ring conformer: 64.10885590717461 kcal/mol)

>  <smiles>  (17) 
COc1ccc(CCNC(=O)c2cccc(Cc3n[nH]c(=O)c4c3CCCC4)c2)cc1

>  <score_type>  (17) 
oracle

>  <origin>  (17) 
adg

>  <m_score__min__energy>  (17) 
-14.300000000000001

>  <m_primary>  (17) 
energy

$$$$
17:0
     RDKit          3D

 60 62  0  0  0  0  0  0  0  0999 V2000
   59.7560   28.9410   50.1480 C   0  0  0  0  0  0  0  0  0  0  0  0
   59.3400   28.9860   48.6740 C   0  0  2  0  0  0  0  0  0  0  0  0
   60.1640   28.0800   47.8810 N   0  0  0  0  0  0  0  0  0  0  0  0
   59.7280   27.4580   46.6680 C   0  0  0  0  0  0  0  0  0  0  0  0
   59.1450   26.3390   46.6960 O   0  0  0  0  0  0  0  0  0  0  0  0
   59.9840   28.1330   45.3590 C   0  0  0  0  0  0  0  0  0  0  0  0
   58.8380   29.0440   45.0150 C   0  0  0  0  0  0  0  0  0  0  0  0
   59.0830   30.3290   44.4990 C   0  0  0  0  0  0  0  0  0  0  0  0
   58.0160   31.1570   44.1330 C   0  0  0  0  0  0  0  0  0  0  0  0
   56.6990   30.7060   44.2700 C   0  0  0  0  0  0  0  0  0  0  0  0
   56.4480   29.4250   44.7760 C   0  0  0  0  0  0  0  0  0  0  0  0
   55.1390   28.9720   44.9080 O   0  0  0  0  0  0  0  0  0  0  0  0
   57.5130   28.5940   45.1450 C   0  0  0  0  0  0  0  0  0  0  0  0
   59.4230   30.3880   48.1170 C   0  0  0  0  0  0  0  0  0  0  0  0
   58.3480   30.9680   47.7930 O   0  0  0  0  0  0  0  0  0  0  0  0
   60.6810   31.0680   47.9070 N   0  0  0  0  0  0  0  0  0  0  0  0
   60.9850   31.9400   46.7810 C   0  0  0  0  0  0  0  0  0  0  0  0
   62.4040   32.4490   47.0190 C   0  0  0  0  0  0  0  0  0  0  0  0
   63.0180   31.5140   48.0570 C   0  0  0  0  0  0  0  0  0  0  0  0
   61.8360   30.8490   48.7700 C   0  0  1  0  0  0  0  0  0  0  0  0
   61.5950   31.4600   50.1230 C   0  0  0  0  0  0  0  0  0  0  0  0
   61.8010   30.7890   51.1700 O   0  0  0  0  0  0  0  0  0  0  0  0
   61.0860   32.7920   50.2090 N   0  0  0  0  0  0  0  0  0  0  0  0
   59.7300   33.1710   49.8170 C   0  0  2  0  0  0  0  0  0  0  0  0
   59.7520   34.5040   49.0490 C   0  0  0  0  0  0  0  0  0  0  0  0
   59.1770   34.3950   47.6550 C   0  0  0  0  0  0  0  0  0  0  0  0
   57.9730   33.7050   47.4330 C   0  0  0  0  0  0  0  0  0  0  0  0
   57.4300   33.6280   46.1450 C   0  0  0  0  0  0  0  0  0  0  0  0
   58.0830   34.2400   45.0720 C   0  0  0  0  0  0  0  0  0  0  0  0
   59.2790   34.9310   45.2840 C   0  0  0  0  0  0  0  0  0  0  0  0
   59.8260   35.0100   46.5700 C   0  0  0  0  0  0  0  0  0  0  0  0
   58.8320   33.2430   51.0230 C   0  0  0  0  0  0  0  0  0  0  0  0
   58.9080   34.3690   51.8970 N   0  0  0  0  0  0  0  0  0  0  0  0
   58.0370   32.2990   51.2850 O   0  0  0  0  0  0  0  0  0  0  0  0
   58.8637   29.0375   50.7839 H   0  0  0  0  0  0  0  0  0  0  0  0
   60.2549   27.9836   50.3591 H   0  0  0  0  0  0  0  0  0  0  0  0
   60.4481   29.7695   50.3591 H   0  0  0  0  0  0  0  0  0  0  0  0
   58.2913   28.6593   48.6154 H   0  0  0  0  0  0  0  0  0  0  0  0
   60.9097   28.7231   45.4288 H   0  0  0  0  0  0  0  0  0  0  0  0
   60.0854   27.3694   44.5737 H   0  0  0  0  0  0  0  0  0  0  0  0
   60.1174   30.6846   44.3826 H   0  0  0  0  0  0  0  0  0  0  0  0
   58.2132   32.1641   43.7369 H   0  0  0  0  0  0  0  0  0  0  0  0
   55.8612   31.3573   43.9804 H   0  0  0  0  0  0  0  0  0  0  0  0
   57.3119   27.5863   45.5377 H   0  0  0  0  0  0  0  0  0  0  0  0
   60.9332   31.3781   45.8367 H   0  0  0  0  0  0  0  0  0  0  0  0
   60.2655   32.7686   46.7055 H   0  0  0  0  0  0  0  0  0  0  0  0
   62.9836   32.4160   46.0846 H   0  0  0  0  0  0  0  0  0  0  0  0
   62.4046   33.4926   47.3666 H   0  0  0  0  0  0  0  0  0  0  0  0
   63.6452   30.7554   47.5659 H   0  0  0  0  0  0  0  0  0  0  0  0
   63.6621   32.0592   48.7627 H   0  0  0  0  0  0  0  0  0  0  0  0
   62.0312   29.7799   48.9400 H   0  0  0  0  0  0  0  0  0  0  0  0
   59.3233   32.4002   49.1459 H   0  0  0  0  0  0  0  0  0  0  0  0
   59.1642   35.2429   49.6134 H   0  0  0  0  0  0  0  0  0  0  0  0
   60.8047   34.8063   48.9468 H   0  0  0  0  0  0  0  0  0  0  0  0
   57.4549   33.2232   48.2752 H   0  0  0  0  0  0  0  0  0  0  0  0
   56.4881   33.0850   45.9775 H   0  0  0  0  0  0  0  0  0  0  0  0
   57.6556   34.1779   44.0603 H   0  0  0  0  0  0  0  0  0  0  0  0
   59.7915   35.4137   44.4388 H   0  0  0  0  0  0  0  0  0  0  0  0
   60.7674   35.5554   46.7324 H   0  0  0  0  0  0  0  0  0  0  0  0
   58.5180   35.2910   51.6120 H   0  0  0  0  0  0  0  0  0  0  0  0
  1  2  1  0
  2  3  1  0
  3  4  1  0
  4  5  2  0
  4  6  1  0
  6  7  1  0
  7  8  2  0
  8  9  1  0
  9 10  2  0
 10 11  1  0
 11 12  1  0
 11 13  2  0
  2 14  1  0
 14 15  2  0
 14 16  1  0
 16 17  1  0
 17 18  1  0
 18 19  1  0
 19 20  1  0
 20 21  1  0
 21 22  2  0
 21 23  1  0
 23 24  1  0
 24 25  1  0
 25 26  1  0
 26 27  2  0
 27 28  1  0
 28 29  2  0
 29 30  1  0
 30 31  2  0
 24 32  1  0
 32 33  1  0
 32 34  2  0
 13  7  1  0
 20 16  1  0
 31 26  1  0
  1 35  1  0
  1 36  1  0
  1 37  1  0
  2 38  1  1
  6 39  1  0
  6 40  1  0
  8 41  1  0
  9 42  1  0
 10 43  1  0
 13 44  1  0
 17 45  1  0
 17 46  1  0
 18 47  1  0
 18 48  1  0
 19 49  1  0
 19 50  1  0
 20 51  1  1
 24 52  1  6
 25 53  1  0
 25 54  1  0
 27 55  1  0
 28 56  1  0
 29 57  1  0
 30 58  1  0
 31 59  1  0
 33 60  1  0
M  CHG  4   3  -1  12  -1  23  -1  33  -1
M  END
>  <UniqueID>  (18) 
18

>  <SMILES>  (18) 
C[C@H]([N-]C(=O)Cc1cccc([O-])c1)C(=O)N1CCC[C@H]1C(=O)[N-]C(Cc1ccccc1)C([NH-])=O

>  <Energy>  (18) 
51.20940564305047

>  <Genealogy>  (18) 
CC([N-]C(=O)Cc1cccc([O-])c1)C(=O)N1CCCC1C(=O)[N-]C(Cc1ccccc1)C([NH-])=O (protonated)
C[C@H]([N-]C(=O)Cc1cccc([O-])c1)C(=O)N1CCC[C@H]1C(=O)[N-]C(Cc1ccccc1)C([NH-])=O (chirality)
C[C@H]([N-]C(=O)Cc1cccc([O-])c1)C(=O)N1CCC[C@H]1C(=O)[N-]C(Cc1ccccc1)C([NH-])=O (3D coordinates assigned)
C[C@H]([N-]C(=O)Cc1cccc([O-])c1)C(=O)N1CCC[C@H]1C(=O)[N-]C(Cc1ccccc1)C([NH-])=O (nonaromatic ring conformer: 51.20940564305047 kcal/mol)

>  <smiles>  (18) 
CC(NC(=O)Cc1cccc(O)c1)C(=O)N1CCCC1C(=O)NC(Cc1ccccc1)C(N)=O

>  <score_type>  (18) 
oracle

>  <origin>  (18) 
adg

>  <m_score__min__energy>  (18) 
-17.75

>  <m_primary>  (18) 
energy

$$$$
18:0
     RDKit          3D

 53 56  0  0  0  0  0  0  0  0999 V2000
   57.2072   33.9079   43.8548 H   0  0  0  0  0  0  0  0  0  0  0  0
   57.7330   33.9960   44.8170 C   0  0  0  0  0  0  0  0  0  0  0  0
   58.9740   34.6350   44.8790 C   0  0  0  0  0  0  0  0  0  0  0  0
   59.4228   35.0529   43.9658 H   0  0  0  0  0  0  0  0  0  0  0  0
   59.6460   34.7440   46.1000 C   0  0  0  0  0  0  0  0  0  0  0  0
   60.6195   35.2541   46.1462 H   0  0  0  0  0  0  0  0  0  0  0  0
   59.0830   34.2050   47.2670 C   0  0  0  0  0  0  0  0  0  0  0  0
   59.7870   34.3520   48.5880 C   0  0  0  0  0  0  0  0  0  0  0  0
   59.1426   33.9616   49.3894 H   0  0  0  0  0  0  0  0  0  0  0  0
   60.0013   35.4161   48.7660 H   0  0  0  0  0  0  0  0  0  0  0  0
   61.0730   33.5890   48.5710 C   0  0  0  0  0  0  0  0  0  0  0  0
   62.1660   34.2130   48.4770 O   0  0  0  0  0  0  0  0  0  0  0  0
   61.0440   32.1590   48.5090 N   0  0  0  0  0  0  0  0  0  0  0  0
   60.1470   31.3950   47.9500 C   0  0  0  0  0  0  0  0  0  0  0  0
   60.0970   31.1610   46.5940 C   0  0  0  0  0  0  0  0  0  0  0  0
   60.7248   31.6031   45.8064 H   0  0  0  0  0  0  0  0  0  0  0  0
   59.0730   30.2400   46.4520 C   0  0  0  0  0  0  0  0  0  0  0  0
   58.5830   29.6380   45.1630 C   0  0  0  0  0  0  0  0  0  0  0  0
   59.1985   30.0517   44.3506 H   0  0  0  0  0  0  0  0  0  0  0  0
   57.1220   30.0200   44.8870 C   0  0  0  0  0  0  0  0  0  0  0  0
   56.4873   29.6130   45.6879 H   0  0  0  0  0  0  0  0  0  0  0  0
   57.0491   31.1171   44.8540 H   0  0  0  0  0  0  0  0  0  0  0  0
   56.6440   29.4570   43.5300 C   0  0  0  0  0  0  0  0  0  0  0  0
   55.5826   29.1833   43.6221 H   0  0  0  0  0  0  0  0  0  0  0  0
   56.8113   30.2432   42.7791 H   0  0  0  0  0  0  0  0  0  0  0  0
   57.3950   28.2670   43.0830 N   0  0  0  0  0  0  0  0  0  0  0  0
   58.2640   28.5750   42.5860 H   0  0  0  0  0  0  0  0  0  0  0  0
   57.7720   27.4010   44.2060 C   0  0  0  0  0  0  0  0  0  0  0  0
   56.8652   27.1283   44.7658 H   0  0  0  0  0  0  0  0  0  0  0  0
   58.2676   26.5076   43.7983 H   0  0  0  0  0  0  0  0  0  0  0  0
   58.7580   28.1030   45.1630 C   0  0  0  0  0  0  0  0  0  0  0  0
   58.5887   27.7277   46.1830 H   0  0  0  0  0  0  0  0  0  0  0  0
   59.7783   27.8807   44.8172 H   0  0  0  0  0  0  0  0  0  0  0  0
   58.5190   29.9810   47.6540 N   0  0  0  0  0  0  0  0  0  0  0  0
   59.1700   30.6830   48.5690 N   0  0  0  0  0  0  0  0  0  0  0  0
   58.6750   30.8010   49.9100 C   0  0  0  0  0  0  0  0  0  0  0  0
   58.1280   32.0150   50.3490 C   0  0  0  0  0  0  0  0  0  0  0  0
   58.0567   32.8656   49.6552 H   0  0  0  0  0  0  0  0  0  0  0  0
   57.6730   32.1500   51.6630 C   0  0  0  0  0  0  0  0  0  0  0  0
   57.2416   33.1049   51.9978 H   0  0  0  0  0  0  0  0  0  0  0  0
   57.7640   31.0720   52.5580 C   0  0  0  0  0  0  0  0  0  0  0  0
   57.3090   31.2290   53.9780 C   0  0  0  0  0  0  0  0  0  0  0  0
   58.1262   30.9470   54.6582 H   0  0  0  0  0  0  0  0  0  0  0  0
   57.0264   32.2766   54.1588 H   0  0  0  0  0  0  0  0  0  0  0  0
   56.4405   30.5786   54.1588 H   0  0  0  0  0  0  0  0  0  0  0  0
   58.3520   29.8710   52.1320 C   0  0  0  0  0  0  0  0  0  0  0  0
   58.4538   29.0311   52.8351 H   0  0  0  0  0  0  0  0  0  0  0  0
   58.8090   29.7380   50.8170 C   0  0  0  0  0  0  0  0  0  0  0  0
   59.2755   28.7963   50.4920 H   0  0  0  0  0  0  0  0  0  0  0  0
   57.8280   33.5760   47.2000 C   0  0  0  0  0  0  0  0  0  0  0  0
   57.3702   33.1668   48.1127 H   0  0  0  0  0  0  0  0  0  0  0  0
   57.1600   33.4690   45.9770 C   0  0  0  0  0  0  0  0  0  0  0  0
   56.1814   32.9690   45.9277 H   0  0  0  0  0  0  0  0  0  0  0  0
  1  2  1  0
  2  3  2  0
  3  4  1  0
  3  5  1  0
  5  6  1  0
  5  7  2  0
  7  8  1  0
  8  9  1  0
  8 10  1  0
  8 11  1  0
 11 12  2  0
 11 13  1  0
 13 14  2  0
 14 15  1  0
 15 16  1  0
 15 17  2  0
 17 18  1  0
 18 19  1  0
 18 20  1  0
 20 21  1  0
 20 22  1  0
 20 23  1  0
 23 24  1  0
 23 25  1  0
 23 26  1  0
 26 27  1  0
 26 28  1  0
 28 29  1  0
 28 30  1  0
 28 31  1  0
 31 32  1  0
 31 33  1  0
 17 34  1  0
 34 35  1  0
 35 36  1  0
 36 37  2  0
 37 38  1  0
 37 39  1  0
 39 40  1  0
 39 41  2  0
 41 42  1  0
 42 43  1  0
 42 44  1  0
 42 45  1  0
 41 46  1  0
 46 47  1  0
 46 48  2  0
 48 49  1  0
  7 50  1  0
 50 51  1  0
 50 52  2  0
 52 53  1  0
 52  2  1  0
 35 14  1  0
 48 36  1  0
 31 18  1  0
M  CHG  1  34  -1
M  END
>  <UniqueID>  (19) 
19

>  <SMILES>  (19) 
Cc1ccc(-n2[n-]c(C3CCNCC3)c/c2=N/C(=O)Cc2ccccc2)cc1

>  <Energy>  (19) 
103.82131765970243

>  <Genealogy>  (19) 
Cc1ccc(-n2[n-]c(C3CCNCC3)cc2=NC(=O)Cc2ccccc2)cc1 (protonated)
Cc1ccc(-n2[n-]c(C3CCNCC3)c/c2=N/C(=O)Cc2ccccc2)cc1 (cis-trans isomerization)
Cc1ccc(-n2[n-]c(C3CCNCC3)c/c2=N/C(=O)Cc2ccccc2)cc1 (3D coordinates assigned)
Cc1ccc(-n2[n-]c(C3CCNCC3)c/c2=N/C(=O)Cc2ccccc2)cc1 (nonaromatic ring conformer: 103.82131765970243 kcal/mol)

>  <smiles>  (19) 
Cc1ccc(-n2[nH]c(C3CCNCC3)cc2=NC(=O)Cc2ccccc2)cc1

>  <score_type>  (19) 
oracle

>  <origin>  (19) 
adg

>  <m_score__min__energy>  (19) 
-9.5899999999999999

>  <m_primary>  (19) 
energy

$$$$
19:0
     RDKit          3D

 31 32  0  0  0  0  0  0  0  0999 V2000
   54.7310   30.7510   51.2310 O   0  0  0  0  0  0  0  0  0  0  0  0
   53.8470   30.1660   51.9200 C   0  0  0  0  0  0  0  0  0  0  0  0
   52.4290   30.1580   51.4350 C   0  0  0  0  0  0  0  0  0  0  0  0
   51.6140   31.2410   52.0790 C   0  0  0  0  0  0  0  0  0  0  0  0
   51.4160   31.3520   53.4050 N   0  0  0  0  0  0  0  0  0  0  0  0
   50.6890   32.4860   53.5150 C   0  0  0  0  0  0  0  0  0  0  0  0
   50.2900   32.9320   54.6220 O   0  0  0  0  0  0  0  0  0  0  0  0
   50.4250   33.1090   52.3450 N   0  0  0  0  0  0  0  0  0  0  0  0
   51.0230   32.3090   51.4470 C   0  0  0  0  0  0  0  0  0  0  0  0
   51.0390   32.5590   50.0780 O   0  0  0  0  0  0  0  0  0  0  0  0
   54.1890   29.5200   53.1140 O   0  0  0  0  0  0  0  0  0  0  0  0
   54.3000   30.2000   54.3600 C   0  0  0  0  0  0  0  0  0  0  0  0
   55.7740   30.3770   54.7270 C   0  0  0  0  0  0  0  0  0  0  0  0
   56.6180   30.6080   53.5000 C   0  0  0  0  0  0  0  0  0  0  0  0
   56.7520   31.9000   52.9640 C   0  0  0  0  0  0  0  0  0  0  0  0
   57.5160   32.1080   51.8130 C   0  0  0  0  0  0  0  0  0  0  0  0
   58.1500   31.0280   51.1820 C   0  0  0  0  0  0  0  0  0  0  0  0
   58.9250   31.2250   50.0390 O   0  0  0  0  0  0  0  0  0  0  0  0
   58.0050   29.7370   51.7030 C   0  0  0  0  0  0  0  0  0  0  0  0
   57.2390   29.5260   52.8530 C   0  0  0  0  0  0  0  0  0  0  0  0
   52.4244   30.3090   50.3454 H   0  0  0  0  0  0  0  0  0  0  0  0
   51.9818   29.1890   51.7015 H   0  0  0  0  0  0  0  0  0  0  0  0
   53.8229   31.1879   54.2801 H   0  0  0  0  0  0  0  0  0  0  0  0
   53.8009   29.6080   55.1413 H   0  0  0  0  0  0  0  0  0  0  0  0
   55.8748   31.2415   55.3996 H   0  0  0  0  0  0  0  0  0  0  0  0
   56.1224   29.4580   55.2210 H   0  0  0  0  0  0  0  0  0  0  0  0
   56.2537   32.7504   53.4523 H   0  0  0  0  0  0  0  0  0  0  0  0
   57.6206   33.1223   51.4003 H   0  0  0  0  0  0  0  0  0  0  0  0
   59.6480   30.5680   49.7710 H   0  0  0  0  0  0  0  0  0  0  0  0
   58.4950   28.8866   51.2063 H   0  0  0  0  0  0  0  0  0  0  0  0
   57.1217   28.5082   53.2535 H   0  0  0  0  0  0  0  0  0  0  0  0
  1  2  2  0
  2  3  1  0
  3  4  1  0
  4  5  1  0
  5  6  1  0
  6  7  2  0
  6  8  1  0
  8  9  1  0
  9 10  1  0
  2 11  1  0
 11 12  1  0
 12 13  1  0
 13 14  1  0
 14 15  2  0
 15 16  1  0
 16 17  2  0
 17 18  1  0
 17 19  1  0
 19 20  2  0
  9  4  2  0
 20 14  1  0
  3 21  1  0
  3 22  1  0
 12 23  1  0
 12 24  1  0
 13 25  1  0
 13 26  1  0
 15 27  1  0
 16 28  1  0
 18 29  1  0
 19 30  1  0
 20 31  1  0
M  CHG  3   5  -1   8  -1  10  -1
M  END
>  <UniqueID>  (20) 
20

>  <SMILES>  (20) 
O=C(Cc1[n-]c(=O)[n-]c1[O-])OCCc1ccc(O)cc1

>  <Energy>  (20) 
52.35389966372278

>  <Genealogy>  (20) 
O=C(Cc1[n-]c(=O)[n-]c1[O-])OCCc1ccc(O)cc1 (protonated)
O=C(Cc1[n-]c(=O)[n-]c1[O-])OCCc1ccc(O)cc1 (3D coordinates assigned)
O=C(Cc1[n-]c(=O)[n-]c1[O-])OCCc1ccc(O)cc1 (optimized conformer: 52.35389966372278 kcal/mol)

>  <smiles>  (20) 
O=C(Cc1[nH]c(=O)[nH]c1O)OCCc1ccc(O)cc1

>  <score_type>  (20) 
oracle

>  <origin>  (20) 
adg

>  <m_score__min__energy>  (20) 
-14.51

>  <m_primary>  (20) 
energy

$$$$
20:0
     RDKit          3D

 56 59  0  0  0  0  0  0  0  0999 V2000
   59.4150   25.9690   46.3710 C   0  0  0  0  0  0  0  0  0  0  0  0
   58.9490   27.4210   46.5660 C   0  0  2  0  0  0  0  0  0  0  0  0
   59.4760   28.0360   47.8710 C   0  0  0  0  0  0  0  0  0  0  0  0
   60.3630   27.3220   48.7120 C   0  0  0  0  0  0  0  0  0  0  0  0
   60.8220   27.8780   49.9090 C   0  0  0  0  0  0  0  0  0  0  0  0
   60.3990   29.1450   50.3020 C   0  0  0  0  0  0  0  0  0  0  0  0
   59.5190   29.8650   49.4960 C   0  0  0  0  0  0  0  0  0  0  0  0
   59.0590   29.3250   48.2910 C   0  0  0  0  0  0  0  0  0  0  0  0
   58.2000   30.0660   47.5490 F   0  0  0  0  0  0  0  0  0  0  0  0
   57.4840   27.4540   46.5060 N   0  0  0  0  0  0  0  0  0  0  0  0
   57.0940   28.3280   45.4580 C   0  0  0  0  0  0  0  0  0  0  0  0
   55.8940   28.6250   45.2190 O   0  0  0  0  0  0  0  0  0  0  0  0
   58.1910   28.8540   44.7320 N   0  0  0  0  0  0  0  0  0  0  0  0
   58.1920   30.1460   44.0480 C   0  0  0  0  0  0  0  0  0  0  0  0
   56.8200   30.7460   44.1020 C   0  0  0  0  0  0  0  0  0  0  0  0
   55.8850   30.2410   43.4240 O   0  0  0  0  0  0  0  0  0  0  0  0
   56.5900   31.8970   44.9230 N   0  0  0  0  0  0  0  0  0  0  0  0
   57.5900   32.8110   45.3900 C   0  0  0  0  0  0  0  0  0  0  0  0
   58.1380   33.7290   44.4870 C   0  0  0  0  0  0  0  0  0  0  0  0
   59.1540   34.5980   44.8920 C   0  0  0  0  0  0  0  0  0  0  0  0
   59.6410   34.5470   46.2000 C   0  0  0  0  0  0  0  0  0  0  0  0
   59.1150   33.6210   47.1100 C   0  0  0  0  0  0  0  0  0  0  0  0
   59.7420   33.5230   48.7520 S   0  0  0  0  0  0  0  0  0  0  0  0
   59.8650   34.9150   49.3060 O   0  0  0  0  0  0  0  0  0  0  0  0
   58.7990   32.7290   49.6140 O   0  0  0  0  0  0  0  0  0  0  0  0
   61.3080   32.7500   48.7350 N   0  0  0  0  0  0  0  0  0  0  0  0
   62.3980   33.7520   48.6960 C   0  0  0  0  0  0  0  0  0  0  0  0
   63.0570   33.8380   47.3070 C   0  0  0  0  0  0  0  0  0  0  0  0
   63.5970   32.6010   46.8660 O   0  0  0  0  0  0  0  0  0  0  0  0
   62.8400   31.4660   47.2740 C   0  0  0  0  0  0  0  0  0  0  0  0
   61.3770   31.7790   47.6280 C   0  0  0  0  0  0  0  0  0  0  0  0
   58.0990   32.7460   46.7000 C   0  0  0  0  0  0  0  0  0  0  0  0
   59.3230   28.2850   45.3830 C   0  0  0  0  0  0  0  0  0  0  0  0
   60.5060   28.5010   45.0020 O   0  0  0  0  0  0  0  0  0  0  0  0
   59.5663   25.4974   47.3532 H   0  0  0  0  0  0  0  0  0  0  0  0
   58.6509   25.4109   45.8101 H   0  0  0  0  0  0  0  0  0  0  0  0
   60.3612   25.9598   45.8101 H   0  0  0  0  0  0  0  0  0  0  0  0
   60.6956   26.3152   48.4191 H   0  0  0  0  0  0  0  0  0  0  0  0
   61.5203   27.3124   50.5434 H   0  0  0  0  0  0  0  0  0  0  0  0
   60.7589   29.5771   51.2474 H   0  0  0  0  0  0  0  0  0  0  0  0
   59.1841   30.8647   49.8099 H   0  0  0  0  0  0  0  0  0  0  0  0
   56.8300   26.9090   47.1120 H   0  0  0  0  0  0  0  0  0  0  0  0
   58.9062   30.8210   44.5422 H   0  0  0  0  0  0  0  0  0  0  0  0
   58.4862   30.0025   42.9978 H   0  0  0  0  0  0  0  0  0  0  0  0
   57.7666   33.7665   43.4523 H   0  0  0  0  0  0  0  0  0  0  0  0
   59.5715   35.3242   44.1790 H   0  0  0  0  0  0  0  0  0  0  0  0
   60.4389   35.2351   46.5161 H   0  0  0  0  0  0  0  0  0  0  0  0
   61.9829   34.7377   48.9532 H   0  0  0  0  0  0  0  0  0  0  0  0
   63.1684   33.4424   49.4176 H   0  0  0  0  0  0  0  0  0  0  0  0
   62.2996   34.1675   46.5806 H   0  0  0  0  0  0  0  0  0  0  0  0
   63.8921   34.5497   47.3851 H   0  0  0  0  0  0  0  0  0  0  0  0
   62.8473   30.7333   46.4536 H   0  0  0  0  0  0  0  0  0  0  0  0
   63.3124   31.0836   48.1908 H   0  0  0  0  0  0  0  0  0  0  0  0
   60.8736   32.2004   46.7454 H   0  0  0  0  0  0  0  0  0  0  0  0
   60.8806   30.8485   47.9407 H   0  0  0  0  0  0  0  0  0  0  0  0
   57.6976   32.0046   47.4065 H   0  0  0  0  0  0  0  0  0  0  0  0
  2  1  1  6
  2  3  1  0
  3  4  2  0
  4  5  1  0
  5  6  2  0
  6  7  1  0
  7  8  2  0
  8  9  1  0
  2 10  1  0
 10 11  1  0
 11 12  2  0
 11 13  1  0
 13 14  1  0
 14 15  1  0
 15 16  2  0
 15 17  1  0
 17 18  1  0
 18 19  2  0
 19 20  1  0
 20 21  2  0
 21 22  1  0
 22 23  1  0
 23 24  2  0
 23 25  2  0
 23 26  1  0
 26 27  1  0
 27 28  1  0
 28 29  1  0
 29 30  1  0
 30 31  1  0
 22 32  2  0
 13 33  1  0
 33 34  2  0
 33  2  1  0
  8  3  1  0
 32 18  1  0
 31 26  1  0
  1 35  1  0
  1 36  1  0
  1 37  1  0
  4 38  1  0
  5 39  1  0
  6 40  1  0
  7 41  1  0
 10 42  1  0
 14 43  1  0
 14 44  1  0
 19 45  1  0
 20 46  1  0
 21 47  1  0
 27 48  1  0
 27 49  1  0
 28 50  1  0
 28 51  1  0
 30 52  1  0
 30 53  1  0
 31 54  1  0
 31 55  1  0
 32 56  1  0
M  CHG  1  17  -1
M  END
>  <UniqueID>  (21) 
21

>  <SMILES>  (21) 
C[C@]1(c2ccccc2F)NC(=O)N(CC(=O)[N-]c2cccc(S(=O)(=O)N3CCOCC3)c2)C1=O

>  <Energy>  (21) 
89.50745474706923

>  <Genealogy>  (21) 
CC1(c2ccccc2F)NC(=O)N(CC(=O)[N-]c2cccc(S(=O)(=O)N3CCOCC3)c2)C1=O (protonated)
C[C@]1(c2ccccc2F)NC(=O)N(CC(=O)[N-]c2cccc(S(=O)(=O)N3CCOCC3)c2)C1=O (chirality)
C[C@]1(c2ccccc2F)NC(=O)N(CC(=O)[N-]c2cccc(S(=O)(=O)N3CCOCC3)c2)C1=O (3D coordinates assigned)
C[C@]1(c2ccccc2F)NC(=O)N(CC(=O)[N-]c2cccc(S(=O)(=O)N3CCOCC3)c2)C1=O (nonaromatic ring conformer: 89.50745474706923 kcal/mol)

>  <smiles>  (21) 
CC1(c2ccccc2F)NC(=O)N(CC(=O)Nc2cccc(S(=O)(=O)N3CCOCC3)c2)C1=O

>  <score_type>  (21) 
oracle

>  <origin>  (21) 
adg

>  <m_score__min__energy>  (21) 
-12.119999999999999

>  <m_primary>  (21) 
energy

$$$$
21:0
     RDKit          3D

 28 29  0  0  0  0  0  0  0  0999 V2000
   54.3619   30.2852   43.6608 H   0  0  0  0  0  0  0  0  0  0  0  0
   55.3850   30.0020   43.9490 C   0  0  0  0  0  0  0  0  0  0  0  0
   55.5850   29.0390   44.8870 N   0  0  0  0  0  0  0  0  0  0  0  0
   56.8310   28.6500   45.2770 C   0  0  0  0  0  0  0  0  0  0  0  0
   57.0040   27.7300   46.1840 N   0  0  0  0  0  0  0  0  0  0  0  0
   56.3920   26.4310   46.3060 C   0  0  0  0  0  0  0  0  0  0  0  0
   55.1740   26.3210   46.0050 O   0  0  0  0  0  0  0  0  0  0  0  0
   57.1060   25.2140   46.8300 C   0  0  0  0  0  0  0  0  0  0  0  0
   56.4056   24.3659   46.8439 H   0  0  0  0  0  0  0  0  0  0  0  0
   57.4699   25.4348   47.8443 H   0  0  0  0  0  0  0  0  0  0  0  0
   58.5410   24.7840   45.7830 S   0  0  0  0  0  0  0  0  0  0  0  0
   57.8860   23.1980   45.2750 C   0  0  0  0  0  0  0  0  0  0  0  0
   58.1050   22.0970   46.0400 N   0  0  0  0  0  0  0  0  0  0  0  0
   57.6200   20.8800   45.6730 C   0  0  0  0  0  0  0  0  0  0  0  0
   57.8660   19.7400   46.4970 N   0  0  0  0  0  0  0  0  0  0  0  0
   57.2120   19.4850   47.2700 H   0  0  0  0  0  0  0  0  0  0  0  0
   58.7090   19.1450   46.3320 H   0  0  0  0  0  0  0  0  0  0  0  0
   56.8850   20.7570   44.4900 C   0  0  0  0  0  0  0  0  0  0  0  0
   56.4855   19.7819   44.1744 H   0  0  0  0  0  0  0  0  0  0  0  0
   56.6700   21.9000   43.7190 C   0  0  0  0  0  0  0  0  0  0  0  0
   56.0110   21.8270   42.6490 O   0  0  0  0  0  0  0  0  0  0  0  0
   57.1710   23.0950   44.1240 N   0  0  0  0  0  0  0  0  0  0  0  0
   57.9540   29.2690   44.7000 C   0  0  0  0  0  0  0  0  0  0  0  0
   59.5910   28.8180   45.1650 Cl  0  0  0  0  0  0  0  0  0  0  0  0
   57.7670   30.2620   43.7320 C   0  0  0  0  0  0  0  0  0  0  0  0
   58.6375   30.7515   43.2708 H   0  0  0  0  0  0  0  0  0  0  0  0
   56.4770   30.6310   43.3520 C   0  0  0  0  0  0  0  0  0  0  0  0
   56.3226   31.4093   42.5901 H   0  0  0  0  0  0  0  0  0  0  0  0
  1  2  1  0
  2  3  1  0
  3  4  1  0
  4  5  2  0
  5  6  1  0
  6  7  2  0
  6  8  1  0
  8  9  1  0
  8 10  1  0
  8 11  1  0
 11 12  1  0
 12 13  2  0
 13 14  1  0
 14 15  1  0
 15 16  1  0
 15 17  1  0
 14 18  2  0
 18 19  1  0
 18 20  1  0
 20 21  2  0
 20 22  1  0
  4 23  1  0
 23 24  1  0
 23 25  2  0
 25 26  1  0
 25 27  1  0
 27 28  1  0
 27  2  2  0
 22 12  1  0
M  CHG  2   3  -1  22  -1
M  END
>  <UniqueID>  (22) 
22

>  <SMILES>  (22) 
Nc1cc(=O)[n-]c(SCC(=O)/N=c2\[n-]cccc2Cl)n1

>  <Energy>  (22) 
30.519795117770162

>  <Genealogy>  (22) 
Nc1cc(=O)[n-]c(SCC(=O)N=c2[n-]cccc2Cl)n1 (protonated)
Nc1cc(=O)[n-]c(SCC(=O)/N=c2\[n-]cccc2Cl)n1 (cis-trans isomerization)
Nc1cc(=O)[n-]c(SCC(=O)/N=c2\[n-]cccc2Cl)n1 (3D coordinates assigned)
Nc1cc(=O)[n-]c(SCC(=O)/N=c2\[n-]cccc2Cl)n1 (optimized conformer: 30.519795117770162 kcal/mol)

>  <smiles>  (22) 
Nc1cc(=O)[nH]c(SCC(=O)N=c2[nH]cccc2Cl)n1

>  <score_type>  (22) 
oracle

>  <origin>  (22) 
adg

>  <m_score__min__energy>  (22) 
-10.98

>  <m_primary>  (22) 
energy

$$$$
22:0
     RDKit          3D

 62 65  0  0  0  0  0  0  0  0999 V2000
   64.4680   32.4970   49.2810 C   0  0  0  0  0  0  0  0  0  0  0  0
   63.3270   33.0720   48.4940 C   0  0  0  0  0  0  0  0  0  0  0  0
   63.4490   33.2530   47.1060 C   0  0  0  0  0  0  0  0  0  0  0  0
   62.3890   33.7980   46.3710 C   0  0  0  0  0  0  0  0  0  0  0  0
   61.2020   34.1820   47.0170 C   0  0  0  0  0  0  0  0  0  0  0  0
   59.8520   34.7880   46.0540 S   0  0  0  0  0  0  0  0  0  0  0  0
   59.8730   36.2940   45.9790 O   0  0  0  0  0  0  0  0  0  0  0  0
   59.9410   34.2290   44.6590 O   0  0  0  0  0  0  0  0  0  0  0  0
   58.3780   34.2590   46.7900 N   0  0  0  0  0  0  0  0  0  0  0  0
   58.1900   32.9120   47.2250 C   0  0  0  0  0  0  0  0  0  0  0  0
   57.7350   32.6700   48.3770 O   0  0  0  0  0  0  0  0  0  0  0  0
   58.5280   31.7840   46.3000 C   0  0  0  0  0  0  0  0  0  0  0  0
   59.8120   31.2360   46.6020 O   0  0  0  0  0  0  0  0  0  0  0  0
   60.0500   30.0500   47.3230 C   0  0  0  0  0  0  0  0  0  0  0  0
   60.1730   30.0380   48.7290 C   0  0  0  0  0  0  0  0  0  0  0  0
   60.3900   28.8380   49.4090 C   0  0  0  0  0  0  0  0  0  0  0  0
   60.4940   27.6410   48.7030 C   0  0  0  0  0  0  0  0  0  0  0  0
   60.3980   27.6400   47.3110 C   0  0  0  0  0  0  0  0  0  0  0  0
   60.1830   28.8390   46.6110 C   0  0  0  0  0  0  0  0  0  0  0  0
   60.1790   28.8310   45.1000 C   0  0  0  0  0  0  0  0  0  0  0  0
   59.1500   27.8400   44.5300 C   0  0  0  0  0  0  0  0  0  0  0  0
   57.7480   28.3820   44.6070 C   0  0  0  0  0  0  0  0  0  0  0  0
   57.4440   29.6310   44.2070 N   0  0  0  0  0  0  0  0  0  0  0  0
   56.1650   29.7900   44.6010 C   0  0  0  0  0  0  0  0  0  0  0  0
   55.5170   30.8490   44.3960 O   0  0  0  0  0  0  0  0  0  0  0  0
   55.6400   28.7290   45.2450 N   0  0  0  0  0  0  0  0  0  0  0  0
   56.6400   27.8280   45.2450 C   0  0  0  0  0  0  0  0  0  0  0  0
   56.5130   26.5180   45.9110 C   0  0  0  0  0  0  0  0  0  0  0  0
   55.3700   26.1570   46.3090 O   0  0  0  0  0  0  0  0  0  0  0  0
   57.6950   25.6030   46.1060 C   0  0  0  0  0  0  0  0  0  0  0  0
   57.5790   24.3590   45.2610 C   0  0  0  0  0  0  0  0  0  0  0  0
   56.6560   24.3110   44.1990 C   0  0  0  0  0  0  0  0  0  0  0  0
   56.5820   23.1740   43.3810 C   0  0  0  0  0  0  0  0  0  0  0  0
   57.4290   22.0810   43.6130 C   0  0  0  0  0  0  0  0  0  0  0  0
   58.3540   22.1250   44.6620 C   0  0  0  0  0  0  0  0  0  0  0  0
   58.4350   23.2630   45.4800 C   0  0  0  0  0  0  0  0  0  0  0  0
   61.0870   34.0310   48.4090 C   0  0  0  0  0  0  0  0  0  0  0  0
   62.1470   33.4840   49.1440 C   0  0  0  0  0  0  0  0  0  0  0  0
   64.2611   32.6013   50.3563 H   0  0  0  0  0  0  0  0  0  0  0  0
   64.5855   31.4321   49.0318 H   0  0  0  0  0  0  0  0  0  0  0  0
   65.3938   33.0362   49.0318 H   0  0  0  0  0  0  0  0  0  0  0  0
   64.3799   32.9657   46.5952 H   0  0  0  0  0  0  0  0  0  0  0  0
   62.4862   33.9261   45.2828 H   0  0  0  0  0  0  0  0  0  0  0  0
   57.7680   30.9954   46.4029 H   0  0  0  0  0  0  0  0  0  0  0  0
   58.5477   32.1714   45.2706 H   0  0  0  0  0  0  0  0  0  0  0  0
   60.0974   30.9797   49.2924 H   0  0  0  0  0  0  0  0  0  0  0  0
   60.4791   28.8374   50.5054 H   0  0  0  0  0  0  0  0  0  0  0  0
   60.6519   26.6961   49.2436 H   0  0  0  0  0  0  0  0  0  0  0  0
   60.4913   26.6938   46.7578 H   0  0  0  0  0  0  0  0  0  0  0  0
   59.9352   29.8416   44.7405 H   0  0  0  0  0  0  0  0  0  0  0  0
   61.1768   28.5167   44.7600 H   0  0  0  0  0  0  0  0  0  0  0  0
   59.3960   27.6379   43.4771 H   0  0  0  0  0  0  0  0  0  0  0  0
   59.1936   26.9195   45.1306 H   0  0  0  0  0  0  0  0  0  0  0  0
   58.6128   26.1407   45.8258 H   0  0  0  0  0  0  0  0  0  0  0  0
   57.7248   25.2997   47.1629 H   0  0  0  0  0  0  0  0  0  0  0  0
   55.9914   25.1670   44.0103 H   0  0  0  0  0  0  0  0  0  0  0  0
   55.8569   23.1397   42.5545 H   0  0  0  0  0  0  0  0  0  0  0  0
   57.3664   21.1899   42.9711 H   0  0  0  0  0  0  0  0  0  0  0  0
   59.0180   21.2675   44.8458 H   0  0  0  0  0  0  0  0  0  0  0  0
   59.1713   23.2985   46.2965 H   0  0  0  0  0  0  0  0  0  0  0  0
   60.1649   34.3422   48.9218 H   0  0  0  0  0  0  0  0  0  0  0  0
   62.0573   33.3756   50.2350 H   0  0  0  0  0  0  0  0  0  0  0  0
  1  2  1  0
  2  3  2  0
  3  4  1  0
  4  5  2  0
  5  6  1  0
  6  7  2  0
  6  8  2  0
  6  9  1  0
  9 10  1  0
 10 11  2  0
 10 12  1  0
 12 13  1  0
 13 14  1  0
 14 15  2  0
 15 16  1  0
 16 17  2  0
 17 18  1  0
 18 19  2  0
 19 20  1  0
 20 21  1  0
 21 22  1  0
 22 23  1  0
 23 24  1  0
 24 25  2  0
 24 26  1  0
 26 27  1  0
 27 28  1  0
 28 29  2  0
 28 30  1  0
 30 31  1  0
 31 32  2  0
 32 33  1  0
 33 34  2  0
 34 35  1  0
 35 36  2  0
  5 37  1  0
 37 38  2  0
 38  2  1  0
 19 14  1  0
 27 22  2  0
 36 31  1  0
  1 39  1  0
  1 40  1  0
  1 41  1  0
  3 42  1  0
  4 43  1  0
 12 44  1  0
 12 45  1  0
 15 46  1  0
 16 47  1  0
 17 48  1  0
 18 49  1  0
 20 50  1  0
 20 51  1  0
 21 52  1  0
 21 53  1  0
 30 54  1  0
 30 55  1  0
 32 56  1  0
 33 57  1  0
 34 58  1  0
 35 59  1  0
 36 60  1  0
 37 61  1  0
 38 62  1  0
M  CHG  3   9  -1  23  -1  26  -1
M  END
>  <UniqueID>  (23) 
23

>  <SMILES>  (23) 
Cc1ccc(S(=O)(=O)[N-]C(=O)COc2ccccc2CCc2[n-]c(=O)[n-]c2C(=O)Cc2ccccc2)cc1

>  <Energy>  (23) 
90.58873360271221

>  <Genealogy>  (23) 
Cc1ccc(S(=O)(=O)[N-]C(=O)COc2ccccc2CCc2[n-]c(=O)[n-]c2C(=O)Cc2ccccc2)cc1 (protonated)
Cc1ccc(S(=O)(=O)[N-]C(=O)COc2ccccc2CCc2[n-]c(=O)[n-]c2C(=O)Cc2ccccc2)cc1 (3D coordinates assigned)
Cc1ccc(S(=O)(=O)[N-]C(=O)COc2ccccc2CCc2[n-]c(=O)[n-]c2C(=O)Cc2ccccc2)cc1 (optimized conformer: 90.58873360271221 kcal/mol)

>  <smiles>  (23) 
Cc1ccc(S(=O)(=O)NC(=O)COc2ccccc2CCc2[nH]c(=O)[nH]c2C(=O)Cc2ccccc2)cc1

>  <score_type>  (23) 
oracle

>  <origin>  (23) 
adg

>  <m_score__min__energy>  (23) 
-15.140000000000001

>  <m_primary>  (23) 
energy

$$$$
23:0
     RDKit          3D

 51 53  0  0  0  0  0  0  0  0999 V2000
   58.9420   33.6990   44.6410 C   0  0  0  0  0  0  0  0  0  0  0  0
   57.3170   33.6190   45.3550 S   0  0  0  0  0  0  0  0  0  0  0  0
   56.6460   32.3520   44.9060 O   0  0  0  0  0  0  0  0  0  0  0  0
   56.5210   34.8100   44.9020 O   0  0  0  0  0  0  0  0  0  0  0  0
   57.4610   33.6290   47.0830 N   0  0  0  0  0  0  0  0  0  0  0  0
   58.6010   33.1650   47.8200 C   0  0  0  0  0  0  0  0  0  0  0  0
   59.5380   34.1050   48.2610 C   0  0  0  0  0  0  0  0  0  0  0  0
   60.6710   33.6960   48.9660 C   0  0  0  0  0  0  0  0  0  0  0  0
   60.8750   32.3430   49.2430 C   0  0  0  0  0  0  0  0  0  0  0  0
   59.9380   31.3820   48.8260 C   0  0  0  0  0  0  0  0  0  0  0  0
   60.1800   29.9490   49.1070 C   0  0  0  0  0  0  0  0  0  0  0  0
   59.7580   29.0200   48.2050 N   0  0  0  0  0  0  0  0  0  0  0  0
   59.9300   27.6820   48.3880 C   0  0  0  0  0  0  0  0  0  0  0  0
   59.4340   26.7340   47.3680 C   0  0  0  0  0  0  0  0  0  0  0  0
   60.2470   25.9810   46.7640 O   0  0  0  0  0  0  0  0  0  0  0  0
   58.0320   26.6630   47.0560 N   0  0  0  0  0  0  0  0  0  0  0  0
   57.4910   25.6650   46.1290 C   0  0  2  0  0  0  0  0  0  0  0  0
   57.8080   26.0610   44.6740 C   0  0  0  0  0  0  0  0  0  0  0  0
   58.1340   27.5290   44.5490 C   0  0  0  0  0  0  0  0  0  0  0  0
   57.1130   28.4670   44.3140 C   0  0  0  0  0  0  0  0  0  0  0  0
   57.4210   29.8240   44.1780 C   0  0  0  0  0  0  0  0  0  0  0  0
   58.7480   30.2540   44.2690 C   0  0  0  0  0  0  0  0  0  0  0  0
   59.7690   29.3260   44.4940 C   0  0  0  0  0  0  0  0  0  0  0  0
   59.4650   27.9680   44.6310 C   0  0  0  0  0  0  0  0  0  0  0  0
   56.0070   25.5390   46.3390 C   0  0  0  0  0  0  0  0  0  0  0  0
   55.1430   26.6310   46.0310 N   0  0  0  0  0  0  0  0  0  0  0  0
   55.5210   24.4600   46.7720 O   0  0  0  0  0  0  0  0  0  0  0  0
   60.5710   27.2270   49.5500 C   0  0  0  0  0  0  0  0  0  0  0  0
   61.0310   28.1530   50.4860 C   0  0  0  0  0  0  0  0  0  0  0  0
   60.8440   29.5190   50.2710 C   0  0  0  0  0  0  0  0  0  0  0  0
   61.3480   30.4060   51.1670 F   0  0  0  0  0  0  0  0  0  0  0  0
   58.8070   31.8020   48.0990 C   0  0  0  0  0  0  0  0  0  0  0  0
   59.6936   33.7360   45.4433 H   0  0  0  0  0  0  0  0  0  0  0  0
   59.1134   32.8082   44.0188 H   0  0  0  0  0  0  0  0  0  0  0  0
   59.0251   34.6023   44.0188 H   0  0  0  0  0  0  0  0  0  0  0  0
   59.3810   35.1733   48.0509 H   0  0  0  0  0  0  0  0  0  0  0  0
   61.4053   34.4419   49.3043 H   0  0  0  0  0  0  0  0  0  0  0  0
   61.7748   32.0270   49.7911 H   0  0  0  0  0  0  0  0  0  0  0  0
   57.3750   27.3300   47.5220 H   0  0  0  0  0  0  0  0  0  0  0  0
   57.9610   24.6901   46.3255 H   0  0  0  0  0  0  0  0  0  0  0  0
   58.6707   25.4742   44.3256 H   0  0  0  0  0  0  0  0  0  0  0  0
   56.9165   25.8564   44.0629 H   0  0  0  0  0  0  0  0  0  0  0  0
   56.0681   28.1319   44.2369 H   0  0  0  0  0  0  0  0  0  0  0  0
   56.6180   30.5542   43.9992 H   0  0  0  0  0  0  0  0  0  0  0  0
   58.9887   31.3221   44.1636 H   0  0  0  0  0  0  0  0  0  0  0  0
   60.8133   29.6646   44.5634 H   0  0  0  0  0  0  0  0  0  0  0  0
   60.2720   27.2407   44.8037 H   0  0  0  0  0  0  0  0  0  0  0  0
   55.1570   27.0780   45.0880 H   0  0  0  0  0  0  0  0  0  0  0  0
   60.7096   26.1493   49.7214 H   0  0  0  0  0  0  0  0  0  0  0  0
   61.5424   27.8057   51.3959 H   0  0  0  0  0  0  0  0  0  0  0  0
   58.0783   31.0573   47.7463 H   0  0  0  0  0  0  0  0  0  0  0  0
  1  2  1  0
  2  3  2  0
  2  4  2  0
  2  5  1  0
  5  6  1  0
  6  7  2  0
  7  8  1  0
  8  9  2  0
  9 10  1  0
 10 11  1  0
 11 12  2  0
 12 13  1  0
 13 14  1  0
 14 15  2  0
 14 16  1  0
 16 17  1  0
 17 18  1  0
 18 19  1  0
 19 20  2  0
 20 21  1  0
 21 22  2  0
 22 23  1  0
 23 24  2  0
 17 25  1  0
 25 26  1  0
 25 27  2  0
 13 28  2  0
 28 29  1  0
 29 30  2  0
 30 31  1  0
 10 32  2  0
 32  6  1  0
 30 11  1  0
 24 19  1  0
  1 33  1  0
  1 34  1  0
  1 35  1  0
  7 36  1  0
  8 37  1  0
  9 38  1  0
 16 39  1  0
 17 40  1  1
 18 41  1  0
 18 42  1  0
 20 43  1  0
 21 44  1  0
 22 45  1  0
 23 46  1  0
 24 47  1  0
 26 48  1  0
 28 49  1  0
 29 50  1  0
 32 51  1  0
M  CHG  2   5  -1  26  -1
M  END
>  <UniqueID>  (24) 
24

>  <SMILES>  (24) 
CS(=O)(=O)[N-]c1cccc(-c2nc(C(=O)N[C@H](Cc3ccccc3)C([NH-])=O)ccc2F)c1

>  <Energy>  (24) 
53.592089529088724

>  <Genealogy>  (24) 
CS(=O)(=O)[N-]c1cccc(-c2nc(C(=O)NC(Cc3ccccc3)C([NH-])=O)ccc2F)c1 (protonated)
CS(=O)(=O)[N-]c1cccc(-c2nc(C(=O)N[C@H](Cc3ccccc3)C([NH-])=O)ccc2F)c1 (chirality)
CS(=O)(=O)[N-]c1cccc(-c2nc(C(=O)N[C@H](Cc3ccccc3)C([NH-])=O)ccc2F)c1 (3D coordinates assigned)
CS(=O)(=O)[N-]c1cccc(-c2nc(C(=O)N[C@H](Cc3ccccc3)C([NH-])=O)ccc2F)c1 (optimized conformer: 53.592089529088724 kcal/mol)

>  <smiles>  (24) 
CS(=O)(=O)Nc1cccc(-c2nc(C(=O)NC(Cc3ccccc3)C(N)=O)ccc2F)c1

>  <score_type>  (24) 
oracle

>  <origin>  (24) 
adg

>  <m_score__min__energy>  (24) 
-13.69

>  <m_primary>  (24) 
energy

$$$$
24:0
     RDKit          3D

 47 49  0  0  0  0  0  0  0  0999 V2000
   58.4289   32.5223   42.1695 H   0  0  0  0  0  0  0  0  0  0  0  0
   58.1600   32.6160   43.2320 C   0  0  0  0  0  0  0  0  0  0  0  0
   58.6590   33.8380   44.2740 S   0  0  0  0  0  0  0  0  0  0  0  0
   57.8220   33.1960   45.5930 C   0  0  0  0  0  0  0  0  0  0  0  0
   57.7950   33.6820   46.7980 N   0  0  0  0  0  0  0  0  0  0  0  0
   58.8770   34.3510   47.4590 C   0  0  0  0  0  0  0  0  0  0  0  0
   59.1890   35.5150   47.0920 O   0  0  0  0  0  0  0  0  0  0  0  0
   59.6900   33.6660   48.5240 C   0  0  0  0  0  0  0  0  0  0  0  0
   59.6677   34.2727   49.4413 H   0  0  0  0  0  0  0  0  0  0  0  0
   59.2588   32.6718   48.7130 H   0  0  0  0  0  0  0  0  0  0  0  0
   61.1180   33.4970   48.0780 C   0  0  0  0  0  0  0  0  0  0  0  0
   61.5040   33.8430   46.7730 C   0  0  0  0  0  0  0  0  0  0  0  0
   60.7629   34.2586   46.0744 H   0  0  0  0  0  0  0  0  0  0  0  0
   62.8280   33.6610   46.3580 C   0  0  0  0  0  0  0  0  0  0  0  0
   63.1274   33.9404   45.3371 H   0  0  0  0  0  0  0  0  0  0  0  0
   63.7690   33.1250   47.2390 C   0  0  0  0  0  0  0  0  0  0  0  0
   64.8100   32.9849   46.9123 H   0  0  0  0  0  0  0  0  0  0  0  0
   63.3900   32.7660   48.5360 C   0  0  0  0  0  0  0  0  0  0  0  0
   64.1321   32.3408   49.2277 H   0  0  0  0  0  0  0  0  0  0  0  0
   62.0690   32.9470   48.9540 C   0  0  0  0  0  0  0  0  0  0  0  0
   61.7724   32.6577   49.9730 H   0  0  0  0  0  0  0  0  0  0  0  0
   57.1760   32.0600   45.2650 N   0  0  0  0  0  0  0  0  0  0  0  0
   57.3450   31.7420   43.9520 C   0  0  0  0  0  0  0  0  0  0  0  0
   56.6180   30.5900   43.3250 C   0  0  0  0  0  0  0  0  0  0  0  0
   57.3370   29.9808   42.7576 H   0  0  0  0  0  0  0  0  0  0  0  0
   55.8376   30.9953   42.6642 H   0  0  0  0  0  0  0  0  0  0  0  0
   55.9520   29.7210   44.3620 C   0  0  0  0  0  0  0  0  0  0  0  0
   54.7680   29.3390   44.1670 O   0  0  0  0  0  0  0  0  0  0  0  0
   56.6050   29.3400   45.5830 N   0  0  0  0  0  0  0  0  0  0  0  0
   57.4830   28.2170   45.7380 C   0  0  0  0  0  0  0  0  0  0  0  0
   56.9540   26.9380   45.9680 C   0  0  0  0  0  0  0  0  0  0  0  0
   55.8648   26.8011   46.0377 H   0  0  0  0  0  0  0  0  0  0  0  0
   57.8030   25.8370   46.1090 C   0  0  0  0  0  0  0  0  0  0  0  0
   57.3809   24.8357   46.2800 H   0  0  0  0  0  0  0  0  0  0  0  0
   59.1850   26.0070   46.0330 C   0  0  0  0  0  0  0  0  0  0  0  0
   59.8514   25.1384   46.1394 H   0  0  0  0  0  0  0  0  0  0  0  0
   59.7250   27.2780   45.8220 C   0  0  0  0  0  0  0  0  0  0  0  0
   60.8164   27.4067   45.7753 H   0  0  0  0  0  0  0  0  0  0  0  0
   58.8840   28.3930   45.6690 C   0  0  0  0  0  0  0  0  0  0  0  0
   59.5040   29.7460   45.4210 C   0  0  0  0  0  0  0  0  0  0  0  0
   58.7163   30.4571   45.1316 H   0  0  0  0  0  0  0  0  0  0  0  0
   60.2474   29.6534   44.6155 H   0  0  0  0  0  0  0  0  0  0  0  0
   60.1510   30.2180   46.5870 O   0  0  0  0  0  0  0  0  0  0  0  0
   59.2040   30.4670   47.6030 C   0  0  0  0  0  0  0  0  0  0  0  0
   59.6801   30.3418   48.5867 H   0  0  0  0  0  0  0  0  0  0  0  0
   58.8252   31.4953   47.5072 H   0  0  0  0  0  0  0  0  0  0  0  0
   58.3684   29.7580   47.5072 H   0  0  0  0  0  0  0  0  0  0  0  0
  1  2  1  0
  2  3  1  0
  3  4  1  0
  4  5  2  0
  5  6  1  0
  6  7  2  0
  6  8  1  0
  8  9  1  0
  8 10  1  0
  8 11  1  0
 11 12  2  0
 12 13  1  0
 12 14  1  0
 14 15  1  0
 14 16  2  0
 16 17  1  0
 16 18  1  0
 18 19  1  0
 18 20  2  0
 20 21  1  0
  4 22  1  0
 22 23  1  0
 23 24  1  0
 24 25  1  0
 24 26  1  0
 24 27  1  0
 27 28  2  0
 27 29  1  0
 29 30  1  0
 30 31  2  0
 31 32  1  0
 31 33  1  0
 33 34  1  0
 33 35  2  0
 35 36  1  0
 35 37  1  0
 37 38  1  0
 37 39  2  0
 39 40  1  0
 40 41  1  0
 40 42  1  0
 40 43  1  0
 43 44  1  0
 44 45  1  0
 44 46  1  0
 44 47  1  0
 23  2  2  0
 39 30  1  0
 20 11  1  0
M  CHG  2  22  -1  29  -1
M  END
>  <UniqueID>  (25) 
25

>  <SMILES>  (25) 
COCc1ccccc1[N-]C(=O)Cc1cs/c(=N\C(=O)Cc2ccccc2)[n-]1

>  <Energy>  (25) 
86.93785965803865

>  <Genealogy>  (25) 
COCc1ccccc1[N-]C(=O)Cc1csc(=NC(=O)Cc2ccccc2)[n-]1 (protonated)
COCc1ccccc1[N-]C(=O)Cc1cs/c(=N\C(=O)Cc2ccccc2)[n-]1 (cis-trans isomerization)
COCc1ccccc1[N-]C(=O)Cc1cs/c(=N\C(=O)Cc2ccccc2)[n-]1 (3D coordinates assigned)
COCc1ccccc1[N-]C(=O)Cc1cs/c(=N\C(=O)Cc2ccccc2)[n-]1 (optimized conformer: 86.93785965803865 kcal/mol)

>  <smiles>  (25) 
COCc1ccccc1NC(=O)Cc1csc(=NC(=O)Cc2ccccc2)[nH]1

>  <score_type>  (25) 
oracle

>  <origin>  (25) 
adg

>  <m_score__min__energy>  (25) 
-12.34

>  <m_primary>  (25) 
energy

$$$$
25:0
     RDKit          3D

 47 51  0  0  0  0  0  0  0  0999 V2000
   62.5030   31.2570   52.0520 H   0  0  0  0  0  0  0  0  0  0  0  0
   62.2810   31.0180   51.1150 O   0  0  0  0  0  0  0  0  0  0  0  0
   60.9490   31.4040   50.9000 C   0  0  2  0  0  0  0  0  0  0  0  0
   60.3384   31.1369   51.7751 H   0  0  0  0  0  0  0  0  0  0  0  0
   60.3750   30.6630   49.6810 C   0  0  0  0  0  0  0  0  0  0  0  0
   60.4579   29.5795   49.8518 H   0  0  0  0  0  0  0  0  0  0  0  0
   60.9491   30.9693   48.7941 H   0  0  0  0  0  0  0  0  0  0  0  0
   58.8930   31.0180   49.4380 C   0  0  0  0  0  0  0  0  0  0  0  0
   58.2701   30.3058   49.9990 H   0  0  0  0  0  0  0  0  0  0  0  0
   58.7261   30.9624   48.3522 H   0  0  0  0  0  0  0  0  0  0  0  0
   58.5090   32.4530   49.8780 C   0  0  1  0  0  0  0  0  0  0  0  0
   57.7375   32.8386   49.1953 H   0  0  0  0  0  0  0  0  0  0  0  0
   57.9720   32.4220   51.2430 N   0  0  0  0  0  0  0  0  0  0  0  0
   57.3300   31.4240   51.7730 C   0  0  0  0  0  0  0  0  0  0  0  0
   55.9800   31.5110   51.9310 N   0  0  0  0  0  0  0  0  0  0  0  0
   55.3280   30.4620   52.4850 C   0  0  0  0  0  0  0  0  0  0  0  0
   53.9810   30.3240   52.7340 C   0  0  0  0  0  0  0  0  0  0  0  0
   53.0210   31.2320   52.5100 C   0  0  0  0  0  0  0  0  0  0  0  0
   52.7838   31.9419   53.3161 H   0  0  0  0  0  0  0  0  0  0  0  0
   52.2640   31.3380   51.2510 C   0  0  0  0  0  0  0  0  0  0  0  0
   52.2620   30.3770   50.3100 N   0  0  0  0  0  0  0  0  0  0  0  0
   51.3950   30.8440   49.3860 C   0  0  0  0  0  0  0  0  0  0  0  0
   51.1300   30.2170   48.3280 O   0  0  0  0  0  0  0  0  0  0  0  0
   50.8250   32.0290   49.6910 N   0  0  0  0  0  0  0  0  0  0  0  0
   51.3770   32.3240   50.8790 C   0  0  0  0  0  0  0  0  0  0  0  0
   51.0330   33.4430   51.6280 O   0  0  0  0  0  0  0  0  0  0  0  0
   53.8840   29.0590   53.3150 C   0  0  0  0  0  0  0  0  0  0  0  0
   52.9508   28.5919   53.6628 H   0  0  0  0  0  0  0  0  0  0  0  0
   55.1130   28.4930   53.3860 N   0  0  0  0  0  0  0  0  0  0  0  0
   55.9740   29.3590   52.8750 N   0  0  0  0  0  0  0  0  0  0  0  0
   57.3250   29.2460   52.7310 C   0  0  0  0  0  0  0  0  0  0  0  0
   57.9970   28.1910   53.0940 N   0  0  0  0  0  0  0  0  0  0  0  0
   59.4140   28.1410   53.4450 C   0  0  0  0  0  0  0  0  0  0  0  0
   59.3551   28.7096   54.3848 H   0  0  0  0  0  0  0  0  0  0  0  0
   60.1120   26.8640   53.0160 C   0  0  0  0  0  0  0  0  0  0  0  0
   60.9344   26.4561   53.6220 H   0  0  0  0  0  0  0  0  0  0  0  0
   59.7852   25.8423   52.7726 H   0  0  0  0  0  0  0  0  0  0  0  0
   60.3140   28.1470   52.2240 C   0  0  0  0  0  0  0  0  0  0  0  0
   61.2826   28.6672   52.2570 H   0  0  0  0  0  0  0  0  0  0  0  0
   60.1939   28.4381   51.1700 H   0  0  0  0  0  0  0  0  0  0  0  0
   57.9930   30.2940   52.1750 N   0  0  0  0  0  0  0  0  0  0  0  0
   59.7250   33.3960   49.7970 C   0  0  0  0  0  0  0  0  0  0  0  0
   59.4121   34.4037   50.1077 H   0  0  0  0  0  0  0  0  0  0  0  0
   60.0867   33.3892   48.7582 H   0  0  0  0  0  0  0  0  0  0  0  0
   60.8860   32.9360   50.7030 C   0  0  0  0  0  0  0  0  0  0  0  0
   60.7657   33.4086   51.6890 H   0  0  0  0  0  0  0  0  0  0  0  0
   61.8205   33.2356   50.2061 H   0  0  0  0  0  0  0  0  0  0  0  0
  1  2  1  0
  2  3  1  0
  3  4  1  1
  3  5  1  0
  5  6  1  0
  5  7  1  0
  5  8  1  0
  8  9  1  0
  8 10  1  0
  8 11  1  0
 11 12  1  6
 11 13  1  0
 13 14  2  0
 14 15  1  0
 15 16  2  0
 16 17  1  0
 17 18  2  0
 18 19  1  0
 18 20  1  0
 20 21  1  0
 21 22  1  0
 22 23  2  0
 22 24  1  0
 24 25  1  0
 25 26  1  0
 17 27  1  0
 27 28  1  0
 27 29  2  0
 29 30  1  0
 30 31  1  0
 31 32  2  3
 32 33  1  0
 33 34  1  0
 33 35  1  0
 35 36  1  0
 35 37  1  0
 35 38  1  0
 38 39  1  0
 38 40  1  0
 31 41  1  0
 11 42  1  0
 42 43  1  0
 42 44  1  0
 42 45  1  0
 45 46  1  0
 45 47  1  0
 45  3  1  0
 41 14  1  0
 30 16  1  0
 38 33  1  0
 25 20  2  0
M  CHG  4  21  -1  24  -1  26  -1  41  -1
M  END
>  <UniqueID>  (26) 
26

>  <SMILES>  (26) 
O=c1[n-]c([O-])c(/C=c2\cnn3c(=NC4CC4)[n-]/c(=N\C4CCC(O)CC4)nc23)[n-]1

>  <Energy>  (26) 
394.57483646769657

>  <Genealogy>  (26) 
O=c1[n-]c([O-])c(C=c2cnn3c(=NC4CC4)[n-]c(=NC4CCC(O)CC4)nc23)[n-]1 (protonated)
O=c1[n-]c([O-])c(/C=c2\cnn3c(=NC4CC4)[n-]/c(=N\C4CCC(O)CC4)nc23)[n-]1 (cis-trans isomerization)
O=c1[n-]c([O-])c(/C=c2\cnn3c(=NC4CC4)[n-]/c(=N\C4CCC(O)CC4)nc23)[n-]1 (3D coordinates assigned)
O=c1[n-]c([O-])c(/C=c2\cnn3c(=NC4CC4)[n-]/c(=N\C4CCC(O)CC4)nc23)[n-]1 (nonaromatic ring conformer: 394.57483646769657 kcal/mol)

>  <smiles>  (26) 
O=c1[nH]c(O)c(C=c2cnn3c(=NC4CC4)[nH]c(=NC4CCC(O)CC4)nc23)[nH]1

>  <score_type>  (26) 
oracle

>  <origin>  (26) 
adg

>  <m_score__min__energy>  (26) 
-17.690000000000001

>  <m_primary>  (26) 
energy

$$$$
26:0
     RDKit          3D

 60 64  0  0  1  0  0  0  0  0999 V2000
   60.6590   33.7950   54.6020 C   0  0  0  0  0  0  0  0  0  0  0  0
   60.6000   34.5530   49.4100 N   0  0  0  0  0  0  0  0  0  0  0  0
   59.9050   33.8670   50.2240 C   0  0  0  0  0  0  0  0  0  0  0  0
   57.8200   32.0330   53.9470 N   0  0  0  0  0  0  0  0  0  0  0  0
   57.1810   31.1610   53.1620 C   0  0  0  0  0  0  0  0  0  0  0  0
   56.2630   30.1840   53.5930 N   0  0  0  0  0  0  0  0  0  0  0  0
   55.2240   29.6940   52.6630 C   0  0  0  0  0  0  0  0  0  0  0  0
   55.0770   28.2180   53.0470 C   0  0  0  0  0  0  0  0  0  0  0  0
   54.2690   28.1570   54.3710 C   0  0  0  0  0  0  0  0  0  0  0  0
   52.9270   28.3710   54.0420 N   0  0  0  0  0  0  0  0  0  0  0  0
   52.2910   29.6110   54.2260 C   0  0  0  0  0  0  0  0  0  0  0  0
   51.9890   30.3070   52.9700 C   0  0  0  0  0  0  0  0  0  0  0  0
   51.3630   31.5520   53.0750 C   0  0  0  0  0  0  0  0  0  0  0  0
   51.0600   32.3330   52.0000 C   0  0  0  0  0  0  0  0  0  0  0  0
   51.3850   31.8800   50.7360 C   0  0  0  0  0  0  0  0  0  0  0  0
   51.0730   32.6830   49.6560 O   0  0  0  0  0  0  0  0  0  0  0  0
   52.0080   30.6460   50.6000 C   0  0  0  0  0  0  0  0  0  0  0  0
   52.2970   29.8860   51.7120 C   0  0  0  0  0  0  0  0  0  0  0  0
   54.8350   29.1730   55.3230 C   0  0  0  0  0  0  0  0  0  0  0  0
   56.2370   29.5820   54.9060 C   0  0  0  0  0  0  0  0  0  0  0  0
   57.4310   31.2360   51.8390 N   0  0  0  0  0  0  0  0  0  0  0  0
   58.2830   32.1540   51.3820 C   0  0  0  0  0  0  0  0  0  0  0  0
   58.7990   32.4800   49.6390 S   0  0  0  0  0  0  0  0  0  0  0  0
   58.6820   32.9670   53.5200 C   0  0  0  0  0  0  0  0  0  0  0  0
   59.2290   33.7430   54.3760 N   0  0  0  0  0  0  0  0  0  0  0  0
   61.6560   33.9070   48.7130 C   0  0  0  0  0  0  0  0  0  0  0  0
   62.8330   33.6680   49.4320 C   0  0  0  0  0  0  0  0  0  0  0  0
   62.9870   34.1500   51.1060 Cl  0  0  0  0  0  0  0  0  0  0  0  0
   63.8950   33.0310   48.7780 C   0  0  0  0  0  0  0  0  0  0  0  0
   63.7320   32.6690   47.4580 C   0  0  0  0  0  0  0  0  0  0  0  0
   62.5810   32.9000   46.7540 C   0  0  0  0  0  0  0  0  0  0  0  0
   61.5230   33.5370   47.4120 C   0  0  0  0  0  0  0  0  0  0  0  0
   60.0150   33.8580   46.5420 Cl  0  0  0  0  0  0  0  0  0  0  0  0
   59.7600   33.9050   51.5230 N   0  0  0  0  0  0  0  0  0  0  0  0
   58.9640   33.0700   52.1310 C   0  0  0  0  0  0  0  0  0  0  0  0
   60.8592   33.8023   55.6836 H   0  0  0  0  0  0  0  0  0  0  0  0
   61.1344   32.9135   54.1470 H   0  0  0  0  0  0  0  0  0  0  0  0
   61.0691   34.7087   54.1470 H   0  0  0  0  0  0  0  0  0  0  0  0
   57.6290   31.9780   54.9710 H   0  0  0  0  0  0  0  0  0  0  0  0
   54.2776   30.2354   52.8085 H   0  0  0  0  0  0  0  0  0  0  0  0
   55.4888   29.8399   51.6054 H   0  0  0  0  0  0  0  0  0  0  0  0
   54.5404   27.6757   52.2545 H   0  0  0  0  0  0  0  0  0  0  0  0
   56.0649   27.7513   53.1749 H   0  0  0  0  0  0  0  0  0  0  0  0
   54.3392   27.1846   54.8803 H   0  0  0  0  0  0  0  0  0  0  0  0
   52.5640   27.8940   53.2060 H   0  0  0  0  0  0  0  0  0  0  0  0
   51.3475   29.4415   54.7655 H   0  0  0  0  0  0  0  0  0  0  0  0
   52.9860   30.2500   54.7905 H   0  0  0  0  0  0  0  0  0  0  0  0
   51.1011   31.9209   54.0777 H   0  0  0  0  0  0  0  0  0  0  0  0
   50.5657   33.3062   52.1363 H   0  0  0  0  0  0  0  0  0  0  0  0
   51.6450   32.6950   48.8220 H   0  0  0  0  0  0  0  0  0  0  0  0
   52.2720   30.2737   49.5991 H   0  0  0  0  0  0  0  0  0  0  0  0
   52.7904   28.9117   51.5801 H   0  0  0  0  0  0  0  0  0  0  0  0
   54.1869   30.0618   55.3288 H   0  0  0  0  0  0  0  0  0  0  0  0
   54.8824   28.7266   56.3272 H   0  0  0  0  0  0  0  0  0  0  0  0
   56.6261   30.3073   55.6358 H   0  0  0  0  0  0  0  0  0  0  0  0
   56.8574   28.6743   54.8732 H   0  0  0  0  0  0  0  0  0  0  0  0
   64.8378   32.8243   49.3057 H   0  0  0  0  0  0  0  0  0  0  0  0
   64.5676   32.1701   46.9453 H   0  0  0  0  0  0  0  0  0  0  0  0
   62.4904   32.5937   45.7014 H   0  0  0  0  0  0  0  0  0  0  0  0
   60.3250   34.6540   52.0800 H   0  0  0  0  0  0  0  0  0  0  0  0
  1  2  1  0
  2  3  2  0
  3  4  1  0
  4  5  1  0
  5  6  1  0
  6  7  1  0
  7  8  1  0
  8  9  1  0
  9 10  1  0
 10 11  1  0
 11 12  1  0
 12 13  2  0
 13 14  1  0
 14 15  2  0
 15 16  1  0
 15 17  1  0
 17 18  2  0
  9 19  1  0
 19 20  1  0
  5 21  2  0
 21 22  1  0
 22 23  1  0
 23 24  1  0
 24 25  2  0
 25 26  1  0
 26 27  2  0
 27 28  1  0
 27 29  1  0
 29 30  2  0
 30 31  1  0
 31 32  2  0
 32 33  1  0
 24 34  1  0
 34 35  1  0
 35  3  1  0
 20  6  1  0
 35 22  2  0
 18 12  1  0
 32 26  1  0
  1 36  1  0
  1 37  1  0
  1 38  1  0
  4 39  1  0
  7 40  1  0
  7 41  1  0
  8 42  1  0
  8 43  1  0
  9 44  1  0
 10 45  1  0
 11 46  1  0
 11 47  1  0
 13 48  1  0
 14 49  1  0
 16 50  1  0
 17 51  1  0
 18 52  1  0
 19 53  1  0
 19 54  1  0
 20 55  1  0
 20 56  1  0
 29 57  1  0
 30 58  1  0
 31 59  1  0
 34 60  1  0
M  END
>  <smiles>  (27) 
CN=c1[nH]c(N2CCC(NCc3ccc(O)cc3)CC2)nc2sc(=Nc3c(Cl)cccc3Cl)[nH]c12

>  <score_type>  (27) 
oracle

>  <origin>  (27) 
adg

>  <m_score__min__energy>  (27) 
-9.0899999999999999

>  <m_primary>  (27) 
energy

$$$$
27:0
     RDKit          3D

 38 40  0  0  0  0  0  0  0  0999 V2000
   56.5960   23.7370   43.5810 C   0  0  0  0  0  0  0  0  0  0  0  0
   55.5750   23.7390   44.4440 C   0  0  0  0  0  0  0  0  0  0  0  0
   54.3430   23.3190   44.1050 N   0  0  0  0  0  0  0  0  0  0  0  0
   53.6450   23.3270   45.2530 C   0  0  0  0  0  0  0  0  0  0  0  0
   52.4420   22.9680   45.3300 O   0  0  0  0  0  0  0  0  0  0  0  0
   54.3550   23.7460   46.3200 N   0  0  0  0  0  0  0  0  0  0  0  0
   55.5750   24.0310   45.8130 C   0  0  0  0  0  0  0  0  0  0  0  0
   56.5550   24.5190   46.5930 C   0  0  0  0  0  0  0  0  0  0  0  0
   57.1530   25.8070   46.4120 N   0  0  0  0  0  0  0  0  0  0  0  0
   56.5250   26.9430   46.0710 C   0  0  0  0  0  0  0  0  0  0  0  0
   55.1440   27.0880   45.9970 O   0  0  0  0  0  0  0  0  0  0  0  0
   57.4630   27.9170   45.8080 C   0  0  0  0  0  0  0  0  0  0  0  0
   57.1610   29.3260   45.4770 C   0  0  0  0  0  0  0  0  0  0  0  0
   57.3370   29.9040   44.2800 C   0  0  0  0  0  0  0  0  0  0  0  0
   57.4120   31.3640   44.0580 C   0  0  0  0  0  0  0  0  0  0  0  0
   57.0190   32.2750   44.9600 C   0  0  0  0  0  0  0  0  0  0  0  0
   57.9180   33.2170   45.6640 C   0  0  0  0  0  0  0  0  0  0  0  0
   58.1250   33.1400   47.0530 C   0  0  0  0  0  0  0  0  0  0  0  0
   59.0100   34.0190   47.6840 C   0  0  0  0  0  0  0  0  0  0  0  0
   59.7100   34.9680   46.9330 C   0  0  0  0  0  0  0  0  0  0  0  0
   59.5320   35.0310   45.5490 C   0  0  0  0  0  0  0  0  0  0  0  0
   58.6470   34.1530   44.9140 C   0  0  0  0  0  0  0  0  0  0  0  0
   58.7010   27.3940   45.9650 N   0  0  0  0  0  0  0  0  0  0  0  0
   58.4660   26.1080   46.3060 C   0  0  0  0  0  0  0  0  0  0  0  0
   59.3880   25.2710   46.4890 O   0  0  0  0  0  0  0  0  0  0  0  0
   57.5875   24.0895   43.9013 H   0  0  0  0  0  0  0  0  0  0  0  0
   56.4446   23.3828   42.5507 H   0  0  0  0  0  0  0  0  0  0  0  0
   54.0080   23.0030   43.1660 H   0  0  0  0  0  0  0  0  0  0  0  0
   56.9191   23.8912   47.4196 H   0  0  0  0  0  0  0  0  0  0  0  0
   56.7565   29.9553   46.2834 H   0  0  0  0  0  0  0  0  0  0  0  0
   57.4321   29.2470   43.4029 H   0  0  0  0  0  0  0  0  0  0  0  0
   57.8129   31.7231   43.0986 H   0  0  0  0  0  0  0  0  0  0  0  0
   55.9456   32.3263   45.1950 H   0  0  0  0  0  0  0  0  0  0  0  0
   57.5880   32.3846   47.6455 H   0  0  0  0  0  0  0  0  0  0  0  0
   59.1559   33.9640   48.7729 H   0  0  0  0  0  0  0  0  0  0  0  0
   60.4003   35.6644   47.4315 H   0  0  0  0  0  0  0  0  0  0  0  0
   60.0888   35.7724   44.9572 H   0  0  0  0  0  0  0  0  0  0  0  0
   58.5219   34.1964   43.8220 H   0  0  0  0  0  0  0  0  0  0  0  0
  1  2  2  0
  2  3  1  0
  3  4  1  0
  4  5  2  0
  4  6  1  0
  6  7  1  0
  7  8  2  3
  8  9  1  0
  9 10  1  0
 10 11  1  0
 10 12  2  0
 12 13  1  0
 13 14  2  3
 14 15  1  0
 15 16  2  3
 16 17  1  0
 17 18  2  0
 18 19  1  0
 19 20  2  0
 20 21  1  0
 21 22  2  0
 12 23  1  0
 23 24  1  0
 24 25  2  0
  7  2  1  0
 24  9  1  0
 22 17  1  0
  1 26  1  0
  1 27  1  0
  3 28  1  0
  8 29  1  0
 13 30  1  0
 14 31  1  0
 15 32  1  0
 16 33  1  0
 18 34  1  0
 19 35  1  0
 20 36  1  0
 21 37  1  0
 22 38  1  0
M  CHG  3   6  -1  11  -1  23  -1
M  END
>  <UniqueID>  (28) 
27

>  <SMILES>  (28) 
C=c1[nH]c(=O)[n-]c1=Cn1c([O-])c(C=CC=Cc2ccccc2)[n-]c1=O

>  <Energy>  (28) 
123.84551731552646

>  <Genealogy>  (28) 
C=c1[nH]c(=O)[n-]c1=Cn1c([O-])c(C=CC=Cc2ccccc2)[n-]c1=O (protonated)
C=c1[nH]c(=O)[n-]c1=Cn1c([O-])c(C=CC=Cc2ccccc2)[n-]c1=O (3D coordinates assigned)
C=c1[nH]c(=O)[n-]c1=Cn1c([O-])c(C=CC=Cc2ccccc2)[n-]c1=O (optimized conformer: 123.84551731552646 kcal/mol)

>  <smiles>  (28) 
C=c1[nH]c(=O)[nH]c1=Cn1c(O)c(C=CC=Cc2ccccc2)[nH]c1=O

>  <score_type>  (28) 
oracle

>  <origin>  (28) 
adg

>  <m_score__min__energy>  (28) 
-15.31

>  <m_primary>  (28) 
energy

$$$$
28:0
     RDKit          3D

 38 40  0  0  0  0  0  0  0  0999 V2000
   56.4752   21.9097   42.8439 H   0  0  0  0  0  0  0  0  0  0  0  0
   56.5910   22.6370   43.6610 C   0  0  0  0  0  0  0  0  0  0  0  0
   57.8520   22.8790   44.2020 C   0  0  0  0  0  0  0  0  0  0  0  0
   58.7317   22.3541   43.8012 H   0  0  0  0  0  0  0  0  0  0  0  0
   58.0000   23.7850   45.2500 C   0  0  0  0  0  0  0  0  0  0  0  0
   58.9991   23.9731   45.6700 H   0  0  0  0  0  0  0  0  0  0  0  0
   56.8860   24.4610   45.7760 C   0  0  0  0  0  0  0  0  0  0  0  0
   57.1020   25.3410   46.9480 C   0  0  0  0  0  0  0  0  0  0  0  0
   56.9440   24.8620   48.1030 O   0  0  0  0  0  0  0  0  0  0  0  0
   57.5030   26.7170   46.8240 N   0  0  0  0  0  0  0  0  0  0  0  0
   57.4830   27.4490   45.7480 C   0  0  0  0  0  0  0  0  0  0  0  0
   57.0800   28.7430   45.8350 N   0  0  0  0  0  0  0  0  0  0  0  0
   57.0430   29.5300   44.7310 C   0  0  0  0  0  0  0  0  0  0  0  0
   56.6070   30.8550   44.8510 O   0  0  0  0  0  0  0  0  0  0  0  0
   57.4050   31.9380   45.2500 C   0  0  0  0  0  0  0  0  0  0  0  0
   58.1790   31.9050   46.4250 C   0  0  0  0  0  0  0  0  0  0  0  0
   58.1758   31.0054   47.0580 H   0  0  0  0  0  0  0  0  0  0  0  0
   58.9520   33.0110   46.7910 C   0  0  0  0  0  0  0  0  0  0  0  0
   59.5535   32.9782   47.7114 H   0  0  0  0  0  0  0  0  0  0  0  0
   58.9640   34.1620   45.9900 C   0  0  0  0  0  0  0  0  0  0  0  0
   59.7620   35.3630   46.4040 C   0  0  0  0  0  0  0  0  0  0  0  0
   59.7987   35.4182   47.5020 H   0  0  0  0  0  0  0  0  0  0  0  0
   60.7843   35.2787   46.0068 H   0  0  0  0  0  0  0  0  0  0  0  0
   59.2882   36.2728   46.0068 H   0  0  0  0  0  0  0  0  0  0  0  0
   58.1630   34.2080   44.8390 C   0  0  0  0  0  0  0  0  0  0  0  0
   58.1432   35.1180   44.2214 H   0  0  0  0  0  0  0  0  0  0  0  0
   57.3900   33.1020   44.4740 C   0  0  0  0  0  0  0  0  0  0  0  0
   56.7652   33.1472   43.5698 H   0  0  0  0  0  0  0  0  0  0  0  0
   57.3900   29.0100   43.5230 N   0  0  0  0  0  0  0  0  0  0  0  0
   57.7860   27.7170   43.4270 C   0  0  0  0  0  0  0  0  0  0  0  0
   58.1110   27.2390   42.3090 O   0  0  0  0  0  0  0  0  0  0  0  0
   57.8280   26.9380   44.5350 N   0  0  0  0  0  0  0  0  0  0  0  0
   55.6040   24.2480   45.1990 C   0  0  0  0  0  0  0  0  0  0  0  0
   54.3950   24.9970   45.6260 C   0  0  0  0  0  0  0  0  0  0  0  0
   53.2750   24.4270   45.7070 O   0  0  0  0  0  0  0  0  0  0  0  0
   54.4940   26.3360   45.9860 O   0  0  0  0  0  0  0  0  0  0  0  0
   55.4740   23.3150   44.1530 C   0  0  0  0  0  0  0  0  0  0  0  0
   54.4826   23.1181   43.7189 H   0  0  0  0  0  0  0  0  0  0  0  0
  1  2  1  0
  2  3  2  0
  3  4  1  0
  3  5  1  0
  5  6  1  0
  5  7  2  0
  7  8  1  0
  8  9  2  0
  8 10  1  0
 10 11  2  0
 11 12  1  0
 12 13  1  0
 13 14  1  0
 14 15  1  0
 15 16  2  0
 16 17  1  0
 16 18  1  0
 18 19  1  0
 18 20  2  0
 20 21  1  0
 21 22  1  0
 21 23  1  0
 21 24  1  0
 20 25  1  0
 25 26  1  0
 25 27  2  0
 27 28  1  0
 13 29  2  0
 29 30  1  0
 30 31  2  0
 30 32  1  0
  7 33  1  0
 33 34  1  0
 34 35  2  0
 34 36  1  0
 33 37  2  0
 37 38  1  0
 37  2  1  0
 32 11  1  0
 27 15  1  0
M  CHG  3  12  -1  32  -1  36  -1
M  END
>  <UniqueID>  (29) 
28

>  <SMILES>  (29) 
Cc1ccc(Oc2nc(=O)[n-]/c(=N/C(=O)c3ccccc3C(=O)[O-])[n-]2)cc1

>  <Energy>  (29) 
59.420248989940674

>  <Genealogy>  (29) 
Cc1ccc(Oc2nc(=O)[n-]c(=NC(=O)c3ccccc3C(=O)[O-])[n-]2)cc1 (protonated)
Cc1ccc(Oc2nc(=O)[n-]/c(=N/C(=O)c3ccccc3C(=O)[O-])[n-]2)cc1 (cis-trans isomerization)
Cc1ccc(Oc2nc(=O)[n-]/c(=N/C(=O)c3ccccc3C(=O)[O-])[n-]2)cc1 (3D coordinates assigned)
Cc1ccc(Oc2nc(=O)[n-]/c(=N/C(=O)c3ccccc3C(=O)[O-])[n-]2)cc1 (optimized conformer: 59.420248989940674 kcal/mol)

>  <smiles>  (29) 
Cc1ccc(Oc2nc(=O)[nH]c(=NC(=O)c3ccccc3C(=O)O)[nH]2)cc1

>  <score_type>  (29) 
oracle

>  <origin>  (29) 
adg

>  <m_score__min__energy>  (29) 
-13.699999999999999

>  <m_primary>  (29) 
energy

$$$$
29:0
     RDKit          3D

 39 42  0  0  0  0  0  0  0  0999 V2000
   60.1853   29.7477   53.7103 H   0  0  0  0  0  0  0  0  0  0  0  0
   59.2610   29.8320   53.1200 C   0  0  0  0  0  0  0  0  0  0  0  0
   58.1320   29.9130   53.7650 N   0  0  0  0  0  0  0  0  0  0  0  0
   57.0370   28.9860   53.7150 C   0  0  0  0  0  0  0  0  0  0  0  0
   57.0640   27.7710   54.4380 C   0  0  0  0  0  0  0  0  0  0  0  0
   57.9608   27.4994   55.0142 H   0  0  0  0  0  0  0  0  0  0  0  0
   55.9510   26.9040   54.4270 C   0  0  0  0  0  0  0  0  0  0  0  0
   55.9945   25.9522   54.9767 H   0  0  0  0  0  0  0  0  0  0  0  0
   54.7880   27.2480   53.7190 C   0  0  0  0  0  0  0  0  0  0  0  0
   53.9165   26.5771   53.7012 H   0  0  0  0  0  0  0  0  0  0  0  0
   54.7710   28.4640   53.0400 C   0  0  0  0  0  0  0  0  0  0  0  0
   55.8530   29.3090   53.0370 C   0  0  0  0  0  0  0  0  0  0  0  0
   55.4990   30.4040   52.2610 C   0  0  0  0  0  0  0  0  0  0  0  0
   56.3600   31.5880   51.9290 C   0  0  0  0  0  0  0  0  0  0  0  0
   56.7052   32.0627   52.8593 H   0  0  0  0  0  0  0  0  0  0  0  0
   57.2292   31.2562   51.3422 H   0  0  0  0  0  0  0  0  0  0  0  0
   55.7765   32.3127   51.3422 H   0  0  0  0  0  0  0  0  0  0  0  0
   54.1780   30.1730   51.8650 C   0  0  0  0  0  0  0  0  0  0  0  0
   53.3600   31.0630   50.9660 C   0  0  0  0  0  0  0  0  0  0  0  0
   53.9925   31.8904   50.6118 H   0  0  0  0  0  0  0  0  0  0  0  0
   52.9953   30.4577   50.1230 H   0  0  0  0  0  0  0  0  0  0  0  0
   52.1730   31.6310   51.6820 C   0  0  0  0  0  0  0  0  0  0  0  0
   51.9260   31.4540   52.9920 N   0  0  0  0  0  0  0  0  0  0  0  0
   50.7450   32.0850   53.1740 C   0  0  0  0  0  0  0  0  0  0  0  0
   50.1740   32.1450   54.2940 O   0  0  0  0  0  0  0  0  0  0  0  0
   50.2220   32.6430   52.0600 N   0  0  0  0  0  0  0  0  0  0  0  0
   51.1360   32.3410   51.1240 C   0  0  0  0  0  0  0  0  0  0  0  0
   51.0210   32.7010   49.7870 O   0  0  0  0  0  0  0  0  0  0  0  0
   53.7530   28.9700   52.3250 N   0  0  0  0  0  0  0  0  0  0  0  0
   52.8260   28.5190   52.1610 H   0  0  0  0  0  0  0  0  0  0  0  0
   59.3810   29.8460   51.6490 C   0  0  0  0  0  0  0  0  0  0  0  0
   60.5210   30.2160   50.9630 C   0  0  0  0  0  0  0  0  0  0  0  0
   61.4929   30.4915   51.3983 H   0  0  0  0  0  0  0  0  0  0  0  0
   60.1970   30.1710   49.6210 C   0  0  0  0  0  0  0  0  0  0  0  0
   60.8654   30.3911   48.7756 H   0  0  0  0  0  0  0  0  0  0  0  0
   58.8710   29.7960   49.5480 C   0  0  0  0  0  0  0  0  0  0  0  0
   58.3023   29.6692   48.6150 H   0  0  0  0  0  0  0  0  0  0  0  0
   58.3750   29.6080   50.7850 N   0  0  0  0  0  0  0  0  0  0  0  0
   57.3840   29.3730   51.0140 H   0  0  0  0  0  0  0  0  0  0  0  0
  1  2  1  0
  2  3  2  0
  3  4  1  0
  4  5  2  0
  5  6  1  0
  5  7  1  0
  7  8  1  0
  7  9  2  0
  9 10  1  0
  9 11  1  0
 11 12  2  0
 12 13  1  0
 13 14  1  0
 14 15  1  0
 14 16  1  0
 14 17  1  0
 13 18  2  0
 18 19  1  0
 19 20  1  0
 19 21  1  0
 19 22  1  0
 22 23  1  0
 23 24  1  0
 24 25  2  0
 24 26  1  0
 26 27  1  0
 27 28  1  0
 18 29  1  0
 29 30  1  0
  2 31  1  0
 31 32  2  0
 32 33  1  0
 32 34  1  0
 34 35  1  0
 34 36  2  0
 36 37  1  0
 36 38  1  0
 38 39  1  0
 12  4  1  0
 27 22  2  0
 38 31  1  0
 29 11  1  0
M  CHG  3  23  -1  26  -1  28  -1
M  END
>  <UniqueID>  (30) 
29

>  <SMILES>  (30) 
Cc1c(Cc2[n-]c(=O)[n-]c2[O-])[nH]c2cccc(/N=C\c3ccc[nH]3)c12

>  <Energy>  (30) 
139.01550259626143

>  <Genealogy>  (30) 
Cc1c(Cc2[n-]c(=O)[n-]c2[O-])[nH]c2cccc(N=Cc3ccc[nH]3)c12 (protonated)
Cc1c(Cc2[n-]c(=O)[n-]c2[O-])[nH]c2cccc(/N=C\c3ccc[nH]3)c12 (cis-trans isomerization)
Cc1c(Cc2[n-]c(=O)[n-]c2[O-])[nH]c2cccc(/N=C\c3ccc[nH]3)c12 (3D coordinates assigned)
Cc1c(Cc2[n-]c(=O)[n-]c2[O-])[nH]c2cccc(/N=C\c3ccc[nH]3)c12 (optimized conformer: 139.01550259626143 kcal/mol)

>  <smiles>  (30) 
Cc1c(Cc2[nH]c(=O)[nH]c2O)[nH]c2cccc(N=Cc3ccc[nH]3)c12

>  <score_type>  (30) 
oracle

>  <origin>  (30) 
adg

>  <m_score__min__energy>  (30) 
-15.99

>  <m_primary>  (30) 
energy

$$$$
30:0
     RDKit          3D

 36 38  0  0  0  0  0  0  0  0999 V2000
   56.1630   30.2540   44.7560 O   0  0  0  0  0  0  0  0  0  0  0  0
   57.1920   29.6790   45.2000 C   0  0  0  0  0  0  0  0  0  0  0  0
   58.4050   30.4360   45.3170 N   0  0  0  0  0  0  0  0  0  0  0  0
   58.5100   31.8170   45.6990 C   0  0  0  0  0  0  0  0  0  0  0  0
   58.0840   32.8420   44.8330 C   0  0  0  0  0  0  0  0  0  0  0  0
   58.1430   34.1790   45.2380 C   0  0  0  0  0  0  0  0  0  0  0  0
   58.6090   34.5050   46.5150 C   0  0  0  0  0  0  0  0  0  0  0  0
   59.0160   33.4960   47.3890 C   0  0  0  0  0  0  0  0  0  0  0  0
   58.9730   32.1510   46.9890 C   0  0  0  0  0  0  0  0  0  0  0  0
   59.4170   31.1340   47.9010 N   0  0  0  0  0  0  0  0  0  0  0  0
   60.5440   30.2780   47.5330 C   0  0  0  0  0  0  0  0  0  0  0  0
   60.3960   28.9130   48.2140 C   0  0  0  0  0  0  0  0  0  0  0  0
   60.1810   29.0660   49.6060 O   0  0  0  0  0  0  0  0  0  0  0  0
   58.9410   29.7130   49.8330 C   0  0  0  0  0  0  0  0  0  0  0  0
   58.9740   31.1470   49.2970 C   0  0  0  0  0  0  0  0  0  0  0  0
   57.0970   28.2650   45.6240 C   0  0  0  0  0  0  0  0  0  0  0  0
   58.2220   27.5530   46.0710 C   0  0  0  0  0  0  0  0  0  0  0  0
   58.0580   26.2240   46.4660 C   0  0  0  0  0  0  0  0  0  0  0  0
   59.0470   25.5560   46.8700 O   0  0  0  0  0  0  0  0  0  0  0  0
   56.8260   25.6500   46.4240 N   0  0  0  0  0  0  0  0  0  0  0  0
   55.7430   26.3560   46.0050 C   0  0  0  0  0  0  0  0  0  0  0  0
   54.6090   25.8100   45.9790 O   0  0  0  0  0  0  0  0  0  0  0  0
   55.8830   27.6500   45.6140 N   0  0  0  0  0  0  0  0  0  0  0  0
   57.7027   32.5897   43.8325 H   0  0  0  0  0  0  0  0  0  0  0  0
   57.8222   34.9756   44.5506 H   0  0  0  0  0  0  0  0  0  0  0  0
   58.6549   35.5576   46.8312 H   0  0  0  0  0  0  0  0  0  0  0  0
   59.3724   33.7559   48.3967 H   0  0  0  0  0  0  0  0  0  0  0  0
   60.5600   30.1428   46.4415 H   0  0  0  0  0  0  0  0  0  0  0  0
   61.4828   30.7494   47.8592 H   0  0  0  0  0  0  0  0  0  0  0  0
   59.5401   28.3810   47.7732 H   0  0  0  0  0  0  0  0  0  0  0  0
   61.3227   28.3404   48.0612 H   0  0  0  0  0  0  0  0  0  0  0  0
   58.1431   29.1545   49.3217 H   0  0  0  0  0  0  0  0  0  0  0  0
   58.7507   29.7440   50.9160 H   0  0  0  0  0  0  0  0  0  0  0  0
   57.9669   31.5851   49.3585 H   0  0  0  0  0  0  0  0  0  0  0  0
   59.6716   31.7483   49.8985 H   0  0  0  0  0  0  0  0  0  0  0  0
   59.2114   28.0323   46.1091 H   0  0  0  0  0  0  0  0  0  0  0  0
  1  2  2  0
  2  3  1  0
  3  4  1  0
  4  5  2  0
  5  6  1  0
  6  7  2  0
  7  8  1  0
  8  9  2  0
  9 10  1  0
 10 11  1  0
 11 12  1  0
 12 13  1  0
 13 14  1  0
 14 15  1  0
  2 16  1  0
 16 17  2  0
 17 18  1  0
 18 19  2  0
 18 20  1  0
 20 21  1  0
 21 22  2  0
 21 23  1  0
  9  4  1  0
 15 10  1  0
 23 16  1  0
  5 24  1  0
  6 25  1  0
  7 26  1  0
  8 27  1  0
 11 28  1  0
 11 29  1  0
 12 30  1  0
 12 31  1  0
 14 32  1  0
 14 33  1  0
 15 34  1  0
 15 35  1  0
 17 36  1  0
M  CHG  3   3  -1  20  -1  23  -1
M  END
>  <UniqueID>  (31) 
30

>  <SMILES>  (31) 
O=C([N-]c1ccccc1N1CCOCC1)c1cc(=O)[n-]c(=O)[n-]1

>  <Energy>  (31) 
51.475531627220406

>  <Genealogy>  (31) 
O=C([N-]c1ccccc1N1CCOCC1)c1cc(=O)[n-]c(=O)[n-]1 (protonated)
O=C([N-]c1ccccc1N1CCOCC1)c1cc(=O)[n-]c(=O)[n-]1 (3D coordinates assigned)
O=C([N-]c1ccccc1N1CCOCC1)c1cc(=O)[n-]c(=O)[n-]1 (nonaromatic ring conformer: 51.475531627220406 kcal/mol)

>  <smiles>  (31) 
O=C(Nc1ccccc1N1CCOCC1)c1cc(=O)[nH]c(=O)[nH]1

>  <score_type>  (31) 
oracle

>  <origin>  (31) 
adg

>  <m_score__min__energy>  (31) 
-12.93

>  <m_primary>  (31) 
energy

$$$$
31:0
     RDKit          3D

 75 79  0  0  0  0  0  0  0  0999 V2000
   55.4190   29.6420   54.7830 C   0  0  0  0  0  0  0  0  0  0  0  0
   56.1220   29.7830   53.4760 C   0  0  0  0  0  0  0  0  0  0  0  0
   55.5890   29.3230   52.4270 O   0  0  0  0  0  0  0  0  0  0  0  0
   57.3910   30.3720   53.4360 O   0  0  0  0  0  0  0  0  0  0  0  0
   58.0810   30.6820   52.2240 C   0  0  1  0  0  0  0  0  0  0  0  0
   57.7970   32.1510   51.7970 C   0  0  0  0  0  0  0  0  0  0  0  0
   59.0120   33.0720   52.0010 C   0  0  0  0  0  0  0  0  0  0  0  0
   60.2520   32.5940   51.1750 C   0  0  1  0  0  0  0  0  0  0  0  0
   61.4890   33.3260   51.7360 C   0  0  0  0  0  0  0  0  0  0  0  0
   60.4040   31.0780   51.3670 C   0  0  0  0  0  0  0  0  0  0  0  0
   61.1310   30.3350   50.5080 C   0  0  0  0  0  0  0  0  0  0  0  0
   61.9230   30.9720   49.4060 C   0  0  0  0  0  0  0  0  0  0  0  0
   61.1810   32.1660   48.7500 C   0  0  2  0  0  0  0  0  0  0  0  0
   60.1610   32.8560   49.6540 C   0  0  0  0  0  0  0  0  0  0  0  0
   59.2600   33.7100   49.0920 C   0  0  0  0  0  0  0  0  0  0  0  0
   58.9230   33.7510   47.6050 C   0  0  0  0  0  0  0  0  0  0  0  0
   59.8880   32.9730   46.6610 C   0  0  2  0  0  0  0  0  0  0  0  0
   60.9640   33.8890   46.0500 C   0  0  0  0  0  0  0  0  0  0  0  0
   59.1510   32.1870   45.5830 C   0  0  0  0  0  0  0  0  0  0  0  0
   58.5280   32.7940   44.3210 C   0  0  2  0  0  0  0  0  0  0  0  0
   57.3640   33.7430   44.6470 C   0  0  0  0  0  0  0  0  0  0  0  0
   58.1090   31.7600   43.2430 C   0  0  0  0  0  0  0  0  0  0  0  0
   56.6820   31.2140   43.4160 C   0  0  0  0  0  0  0  0  0  0  0  0
   56.7060   29.9290   44.1920 C   0  0  0  0  0  0  0  0  0  0  0  0
   55.7230   29.6380   44.9280 O   0  0  0  0  0  0  0  0  0  0  0  0
   57.7870   29.0010   44.0090 N   0  0  0  0  0  0  0  0  0  0  0  0
   57.9490   27.7870   44.7630 C   0  0  0  0  0  0  0  0  0  0  0  0
   57.9150   26.5230   44.1430 C   0  0  0  0  0  0  0  0  0  0  0  0
   58.0360   25.3590   44.9080 C   0  0  0  0  0  0  0  0  0  0  0  0
   58.1760   25.4430   46.2960 C   0  0  0  0  0  0  0  0  0  0  0  0
   58.1870   26.6920   46.9220 C   0  0  0  0  0  0  0  0  0  0  0  0
   58.0700   27.8580   46.1600 C   0  0  0  0  0  0  0  0  0  0  0  0
   59.3270   30.8810   45.7980 C   0  0  0  0  0  0  0  0  0  0  0  0
   60.1350   30.6780   46.9810 C   0  0  0  0  0  0  0  0  0  0  0  0
   60.5200   31.8610   47.4360 C   0  0  0  0  0  0  0  0  0  0  0  0
   59.5800   30.3890   52.4310 C   0  0  0  0  0  0  0  0  0  0  0  0
   56.1376   29.7861   55.6033 H   0  0  0  0  0  0  0  0  0  0  0  0
   54.6237   30.3985   54.8551 H   0  0  0  0  0  0  0  0  0  0  0  0
   54.9770   28.6373   54.8551 H   0  0  0  0  0  0  0  0  0  0  0  0
   57.7218   30.0538   51.3956 H   0  0  0  0  0  0  0  0  0  0  0  0
   57.5220   32.1614   50.7320 H   0  0  0  0  0  0  0  0  0  0  0  0
   56.9815   32.5302   52.4304 H   0  0  0  0  0  0  0  0  0  0  0  0
   58.7438   34.0902   51.6827 H   0  0  0  0  0  0  0  0  0  0  0  0
   59.2827   33.0480   53.0669 H   0  0  0  0  0  0  0  0  0  0  0  0
   61.4584   33.3079   52.8354 H   0  0  0  0  0  0  0  0  0  0  0  0
   62.4026   32.8230   51.3863 H   0  0  0  0  0  0  0  0  0  0  0  0
   61.4878   34.3689   51.3863 H   0  0  0  0  0  0  0  0  0  0  0  0
   61.1431   29.2406   50.6180 H   0  0  0  0  0  0  0  0  0  0  0  0
   62.8753   31.3342   49.8207 H   0  0  0  0  0  0  0  0  0  0  0  0
   62.0821   30.2110   48.6278 H   0  0  0  0  0  0  0  0  0  0  0  0
   62.0162   32.8574   48.5644 H   0  0  0  0  0  0  0  0  0  0  0  0
   58.7408   34.4174   49.7554 H   0  0  0  0  0  0  0  0  0  0  0  0
   57.9153   33.3289   47.4772 H   0  0  0  0  0  0  0  0  0  0  0  0
   59.0110   34.8074   47.3114 H   0  0  0  0  0  0  0  0  0  0  0  0
   61.5337   34.3740   46.8564 H   0  0  0  0  0  0  0  0  0  0  0  0
   61.6458   33.2899   45.4285 H   0  0  0  0  0  0  0  0  0  0  0  0
   60.4814   34.6577   45.4285 H   0  0  0  0  0  0  0  0  0  0  0  0
   59.3446   33.3792   43.8731 H   0  0  0  0  0  0  0  0  0  0  0  0
   57.2568   33.8304   45.7383 H   0  0  0  0  0  0  0  0  0  0  0  0
   57.5686   34.7350   44.2180 H   0  0  0  0  0  0  0  0  0  0  0  0
   56.4335   33.3428   44.2180 H   0  0  0  0  0  0  0  0  0  0  0  0
   58.1767   32.2427   42.2569 H   0  0  0  0  0  0  0  0  0  0  0  0
   58.7906   30.9026   43.3448 H   0  0  0  0  0  0  0  0  0  0  0  0
   56.0737   31.9535   43.9574 H   0  0  0  0  0  0  0  0  0  0  0  0
   56.2488   31.0241   42.4229 H   0  0  0  0  0  0  0  0  0  0  0  0
   58.4670   29.1850   43.2340 H   0  0  0  0  0  0  0  0  0  0  0  0
   57.7927   26.4512   43.0522 H   0  0  0  0  0  0  0  0  0  0  0  0
   58.0210   24.3751   44.4164 H   0  0  0  0  0  0  0  0  0  0  0  0
   58.2775   24.5262   46.8953 H   0  0  0  0  0  0  0  0  0  0  0  0
   58.2878   26.7578   48.0154 H   0  0  0  0  0  0  0  0  0  0  0  0
   58.0727   28.8385   46.6586 H   0  0  0  0  0  0  0  0  0  0  0  0
   58.9178   30.0773   45.1682 H   0  0  0  0  0  0  0  0  0  0  0  0
   60.3872   29.7048   47.4275 H   0  0  0  0  0  0  0  0  0  0  0  0
   59.7484   29.3035   52.3734 H   0  0  0  0  0  0  0  0  0  0  0  0
   59.8843   30.7670   53.4182 H   0  0  0  0  0  0  0  0  0  0  0  0
  1  2  1  0
  2  3  2  0
  2  4  1  0
  4  5  1  0
  5  6  1  0
  6  7  1  0
  7  8  1  0
  8  9  1  1
  8 10  1  0
 10 11  2  0
 11 12  1  0
 12 13  1  0
 13 14  1  0
 14 15  2  0
 15 16  1  0
 16 17  1  0
 17 18  1  6
 17 19  1  0
 19 20  1  0
 20 21  1  0
 20 22  1  0
 22 23  1  0
 23 24  1  0
 24 25  2  0
 24 26  1  0
 26 27  1  0
 27 28  2  0
 28 29  1  0
 29 30  2  0
 30 31  1  0
 31 32  2  0
 19 33  2  0
 33 34  1  0
 34 35  2  0
 10 36  1  0
 36  5  1  0
 14  8  1  0
 35 17  1  0
 35 13  1  0
 32 27  1  0
  1 37  1  0
  1 38  1  0
  1 39  1  0
  5 40  1  6
  6 41  1  0
  6 42  1  0
  7 43  1  0
  7 44  1  0
  9 45  1  0
  9 46  1  0
  9 47  1  0
 11 48  1  0
 12 49  1  0
 12 50  1  0
 13 51  1  6
 15 52  1  0
 16 53  1  0
 16 54  1  0
 18 55  1  0
 18 56  1  0
 18 57  1  0
 20 58  1  6
 21 59  1  0
 21 60  1  0
 21 61  1  0
 22 62  1  0
 22 63  1  0
 23 64  1  0
 23 65  1  0
 26 66  1  0
 28 67  1  0
 29 68  1  0
 30 69  1  0
 31 70  1  0
 32 71  1  0
 33 72  1  0
 34 73  1  0
 36 74  1  0
 36 75  1  0
M  END
>  <UniqueID>  (32) 
31

>  <SMILES>  (32) 
CC(=O)O[C@H]1CC[C@@]2(C)C(=CCC3C4=CC=C(C(C)CCC(=O)Nc5ccccc5)C4(C)CC=C32)C1

>  <Energy>  (32) 
113.23250571768226

>  <Genealogy>  (32) 
CC(=O)O[C@H]1CC[C@@]2(C)C(=CCC3C4=CC=C(C(C)CCC(=O)Nc5ccccc5)C4(C)CC=C32)C1 (chirality)
CC(=O)O[C@H]1CC[C@@]2(C)C(=CCC3C4=CC=C(C(C)CCC(=O)Nc5ccccc5)C4(C)CC=C32)C1 (3D coordinates assigned)
CC(=O)O[C@H]1CC[C@@]2(C)C(=CCC3C4=CC=C(C(C)CCC(=O)Nc5ccccc5)C4(C)CC=C32)C1 (nonaromatic ring conformer: 113.23250571768226 kcal/mol)

>  <smiles>  (32) 
CC(=O)OC1CCC2(C)C(=CCC3C2=CCC2(C)C(C(C)CCC(=O)Nc4ccccc4)=CC=C32)C1

>  <score_type>  (32) 
oracle

>  <origin>  (32) 
adg

>  <m_score__min__energy>  (32) 
-10.890000000000001

>  <m_primary>  (32) 
energy

$$$$
32:0
     RDKit          3D

 44 46  0  0  0  0  0  0  0  0999 V2000
   54.7690   27.3240   46.3320 H   0  0  0  0  0  0  0  0  0  0  0  0
   54.8850   26.3430   45.9930 N   0  0  0  0  0  0  0  0  0  0  0  0
   55.8930   25.4930   46.5400 C   0  0  0  0  0  0  0  0  0  0  0  0
   55.6290   24.2820   46.7580 O   0  0  0  0  0  0  0  0  0  0  0  0
   57.2320   25.9660   46.7440 N   0  0  0  0  0  0  0  0  0  0  0  0
   57.6790   27.1910   46.7130 C   0  0  0  0  0  0  0  0  0  0  0  0
   58.3570   27.6520   47.8000 N   0  0  0  0  0  0  0  0  0  0  0  0
   58.8490   28.9150   47.8680 C   0  0  0  0  0  0  0  0  0  0  0  0
   59.3942   29.2440   48.7649 H   0  0  0  0  0  0  0  0  0  0  0  0
   58.6650   29.7960   46.8040 C   0  0  0  0  0  0  0  0  0  0  0  0
   59.0678   30.8181   46.8584 H   0  0  0  0  0  0  0  0  0  0  0  0
   57.9650   29.3760   45.6640 C   0  0  0  0  0  0  0  0  0  0  0  0
   57.7440   30.3240   44.5420 C   0  0  0  0  0  0  0  0  0  0  0  0
   58.2570   31.5840   44.6220 N   0  0  0  0  0  0  0  0  0  0  0  0
   58.1060   32.5090   43.6360 C   0  0  0  0  0  0  0  0  0  0  0  0
   58.6350   33.6880   43.8050 N   0  0  0  0  0  0  0  0  0  0  0  0
   58.4300   34.5990   44.9340 C   0  0  0  0  0  0  0  0  0  0  0  0
   57.3512   34.7040   45.1213 H   0  0  0  0  0  0  0  0  0  0  0  0
   58.8722   35.5748   44.6843 H   0  0  0  0  0  0  0  0  0  0  0  0
   59.0980   34.0700   46.1770 C   0  0  0  0  0  0  0  0  0  0  0  0
   58.3200   33.6030   47.2490 C   0  0  0  0  0  0  0  0  0  0  0  0
   57.2224   33.6313   47.1823 H   0  0  0  0  0  0  0  0  0  0  0  0
   58.9340   33.1030   48.3990 C   0  0  0  0  0  0  0  0  0  0  0  0
   58.3190   32.7341   49.2331 H   0  0  0  0  0  0  0  0  0  0  0  0
   60.3290   33.0700   48.4930 C   0  0  0  0  0  0  0  0  0  0  0  0
   60.8090   32.6672   49.3971 H   0  0  0  0  0  0  0  0  0  0  0  0
   61.1160   33.5490   47.4380 C   0  0  0  0  0  0  0  0  0  0  0  0
   62.8730   33.4890   47.5350 S   0  0  0  0  0  0  0  0  0  0  0  0
   63.4670   34.1820   46.3410 O   0  0  0  0  0  0  0  0  0  0  0  0
   63.3450   34.1820   48.7820 O   0  0  0  0  0  0  0  0  0  0  0  0
   63.4000   31.7910   47.5670 C   0  0  0  0  0  0  0  0  0  0  0  0
   63.5031   31.4587   48.6105 H   0  0  0  0  0  0  0  0  0  0  0  0
   62.6537   31.1657   47.0551 H   0  0  0  0  0  0  0  0  0  0  0  0
   64.3692   31.6982   47.0551 H   0  0  0  0  0  0  0  0  0  0  0  0
   60.4980   34.0490   46.2830 C   0  0  0  0  0  0  0  0  0  0  0  0
   61.1142   34.4275   45.4541 H   0  0  0  0  0  0  0  0  0  0  0  0
   57.3870   32.1590   42.4760 C   0  0  0  0  0  0  0  0  0  0  0  0
   57.2412   32.8939   41.6706 H   0  0  0  0  0  0  0  0  0  0  0  0
   56.8620   30.8730   42.3580 C   0  0  0  0  0  0  0  0  0  0  0  0
   56.3069   30.5879   41.4522 H   0  0  0  0  0  0  0  0  0  0  0  0
   57.0390   29.9470   43.3860 C   0  0  0  0  0  0  0  0  0  0  0  0
   56.6302   28.9301   43.2928 H   0  0  0  0  0  0  0  0  0  0  0  0
   57.4520   28.0650   45.6300 C   0  0  0  0  0  0  0  0  0  0  0  0
   56.8743   27.7228   44.7587 H   0  0  0  0  0  0  0  0  0  0  0  0
  1  2  1  0
  2  3  1  0
  3  4  2  0
  3  5  1  0
  5  6  2  0
  6  7  1  0
  7  8  1  0
  8  9  1  0
  8 10  2  0
 10 11  1  0
 10 12  1  0
 12 13  1  0
 13 14  1  0
 14 15  1  0
 15 16  2  3
 16 17  1  0
 17 18  1  0
 17 19  1  0
 17 20  1  0
 20 21  2  0
 21 22  1  0
 21 23  1  0
 23 24  1  0
 23 25  2  0
 25 26  1  0
 25 27  1  0
 27 28  1  0
 28 29  2  0
 28 30  2  0
 28 31  1  0
 31 32  1  0
 31 33  1  0
 31 34  1  0
 27 35  2  0
 35 36  1  0
 15 37  1  0
 37 38  1  0
 37 39  2  0
 39 40  1  0
 39 41  1  0
 41 42  1  0
 12 43  2  0
 43 44  1  0
 43  6  1  0
 41 13  2  0
 35 20  1  0
M  CHG  3   2  -1   7  -1  14  -1
M  END
>  <UniqueID>  (33) 
32

>  <SMILES>  (33) 
CS(=O)(=O)c1cccc(CN=c2cccc(-c3cc[n-]/c(=N/C([NH-])=O)c3)[n-]2)c1

>  <Energy>  (33) 
57.47992637390382

>  <Genealogy>  (33) 
CS(=O)(=O)c1cccc(CN=c2cccc(-c3cc[n-]c(=NC([NH-])=O)c3)[n-]2)c1 (protonated)
CS(=O)(=O)c1cccc(CN=c2cccc(-c3cc[n-]/c(=N/C([NH-])=O)c3)[n-]2)c1 (cis-trans isomerization)
CS(=O)(=O)c1cccc(CN=c2cccc(-c3cc[n-]/c(=N/C([NH-])=O)c3)[n-]2)c1 (3D coordinates assigned)
CS(=O)(=O)c1cccc(CN=c2cccc(-c3cc[n-]/c(=N/C([NH-])=O)c3)[n-]2)c1 (optimized conformer: 57.47992637390382 kcal/mol)

>  <smiles>  (33) 
CS(=O)(=O)c1cccc(CN=c2cccc(-c3cc[nH]c(=NC(N)=O)c3)[nH]2)c1

>  <score_type>  (33) 
oracle

>  <origin>  (33) 
adg

>  <m_score__min__energy>  (33) 
-13.539999999999999

>  <m_primary>  (33) 
energy

$$$$
33:0
     RDKit          3D

 46 48  0  0  0  0  0  0  0  0999 V2000
   60.7320   29.0570   45.3650 O   0  0  0  0  0  0  0  0  0  0  0  0
   60.3630   29.8530   46.2700 C   0  0  0  0  0  0  0  0  0  0  0  0
   61.3830   30.6260   47.0390 C   0  0  0  0  0  0  0  0  0  0  0  0
   60.7000   31.4060   48.0690 N   0  0  0  0  0  0  0  0  0  0  0  0
   60.3590   30.4190   49.4580 S   0  0  0  0  0  0  0  0  0  0  0  0
   59.2140   29.5000   49.1440 O   0  0  0  0  0  0  0  0  0  0  0  0
   61.5740   29.5950   49.7890 O   0  0  0  0  0  0  0  0  0  0  0  0
   59.9140   31.4400   50.8310 C   0  0  0  0  0  0  0  0  0  0  0  0
   60.2360   31.0300   52.1340 C   0  0  0  0  0  0  0  0  0  0  0  0
   59.9050   31.8300   53.2280 C   0  0  0  0  0  0  0  0  0  0  0  0
   59.2470   33.0450   53.0310 C   0  0  0  0  0  0  0  0  0  0  0  0
   58.9180   33.4630   51.7390 C   0  0  0  0  0  0  0  0  0  0  0  0
   59.2440   32.6630   50.6250 C   0  0  0  0  0  0  0  0  0  0  0  0
   58.9260   33.0490   49.3100 O   0  0  0  0  0  0  0  0  0  0  0  0
   59.5710   34.0860   48.5700 C   0  0  0  0  0  0  0  0  0  0  0  0
   59.0930   34.0990   47.1410 C   0  0  0  0  0  0  0  0  0  0  0  0
   59.6900   34.9760   46.2180 C   0  0  0  0  0  0  0  0  0  0  0  0
   59.2390   35.0250   44.8970 C   0  0  0  0  0  0  0  0  0  0  0  0
   58.1860   34.2040   44.4860 C   0  0  0  0  0  0  0  0  0  0  0  0
   57.5800   33.3350   45.3960 C   0  0  0  0  0  0  0  0  0  0  0  0
   58.0230   33.2840   46.7210 C   0  0  0  0  0  0  0  0  0  0  0  0
   57.4070   32.4440   47.5910 F   0  0  0  0  0  0  0  0  0  0  0  0
   58.9700   30.0160   46.5770 N   0  0  0  0  0  0  0  0  0  0  0  0
   57.9640   29.0170   46.3200 C   0  0  0  0  0  0  0  0  0  0  0  0
   58.0130   27.7550   46.9380 C   0  0  0  0  0  0  0  0  0  0  0  0
   57.0030   26.8200   46.7050 C   0  0  0  0  0  0  0  0  0  0  0  0
   55.9420   27.1540   45.8640 C   0  0  0  0  0  0  0  0  0  0  0  0
   54.9290   26.2350   45.6210 O   0  0  0  0  0  0  0  0  0  0  0  0
   55.8940   28.3830   45.2850 N   0  0  0  0  0  0  0  0  0  0  0  0
   56.8630   29.3150   45.4950 C   0  0  0  0  0  0  0  0  0  0  0  0
   56.7650   30.4420   44.9390 O   0  0  0  0  0  0  0  0  0  0  0  0
   62.0949   29.9327   47.5107 H   0  0  0  0  0  0  0  0  0  0  0  0
   61.9330   31.2973   46.3631 H   0  0  0  0  0  0  0  0  0  0  0  0
   60.7525   30.0720   52.2937 H   0  0  0  0  0  0  0  0  0  0  0  0
   60.1627   31.5031   54.2462 H   0  0  0  0  0  0  0  0  0  0  0  0
   58.9869   33.6747   53.8946 H   0  0  0  0  0  0  0  0  0  0  0  0
   58.4012   34.4226   51.5901 H   0  0  0  0  0  0  0  0  0  0  0  0
   59.3436   35.0564   49.0354 H   0  0  0  0  0  0  0  0  0  0  0  0
   60.6556   33.9030   48.5778 H   0  0  0  0  0  0  0  0  0  0  0  0
   60.5168   35.6271   46.5381 H   0  0  0  0  0  0  0  0  0  0  0  0
   59.7134   35.7107   44.1795 H   0  0  0  0  0  0  0  0  0  0  0  0
   57.8338   34.2421   43.4446 H   0  0  0  0  0  0  0  0  0  0  0  0
   56.7519   32.6889   45.0693 H   0  0  0  0  0  0  0  0  0  0  0  0
   58.6730   30.9220   47.0040 H   0  0  0  0  0  0  0  0  0  0  0  0
   58.8494   27.5038   47.6068 H   0  0  0  0  0  0  0  0  0  0  0  0
   57.0437   25.8289   47.1804 H   0  0  0  0  0  0  0  0  0  0  0  0
  1  2  2  0
  2  3  1  0
  3  4  1  0
  4  5  1  0
  5  6  2  0
  5  7  2  0
  5  8  1  0
  8  9  2  0
  9 10  1  0
 10 11  2  0
 11 12  1  0
 12 13  2  0
 13 14  1  0
 14 15  1  0
 15 16  1  0
 16 17  2  0
 17 18  1  0
 18 19  2  0
 19 20  1  0
 20 21  2  0
 21 22  1  0
  2 23  1  0
 23 24  1  0
 24 25  2  0
 25 26  1  0
 26 27  2  0
 27 28  1  0
 27 29  1  0
 29 30  1  0
 30 31  2  0
 13  8  1  0
 21 16  1  0
 30 24  1  0
  3 32  1  0
  3 33  1  0
  9 34  1  0
 10 35  1  0
 11 36  1  0
 12 37  1  0
 15 38  1  0
 15 39  1  0
 17 40  1  0
 18 41  1  0
 19 42  1  0
 20 43  1  0
 23 44  1  0
 25 45  1  0
 26 46  1  0
M  CHG  3   4  -1  28  -1  29  -1
M  END
>  <UniqueID>  (34) 
33

>  <SMILES>  (34) 
O=C(C[N-]S(=O)(=O)c1ccccc1OCc1ccccc1F)Nc1ccc([O-])[n-]c1=O

>  <Energy>  (34) 
49.68636010600881

>  <Genealogy>  (34) 
O=C(C[N-]S(=O)(=O)c1ccccc1OCc1ccccc1F)Nc1ccc([O-])[n-]c1=O (protonated)
O=C(C[N-]S(=O)(=O)c1ccccc1OCc1ccccc1F)Nc1ccc([O-])[n-]c1=O (3D coordinates assigned)
O=C(C[N-]S(=O)(=O)c1ccccc1OCc1ccccc1F)Nc1ccc([O-])[n-]c1=O (optimized conformer: 49.68636010600881 kcal/mol)

>  <smiles>  (34) 
O=C(CNS(=O)(=O)c1ccccc1OCc1ccccc1F)Nc1ccc(O)[nH]c1=O

>  <score_type>  (34) 
oracle

>  <origin>  (34) 
adg

>  <m_score__min__energy>  (34) 
-14.699999999999999

>  <m_primary>  (34) 
energy

$$$$
34:0
     RDKit          3D

 46 48  0  0  0  0  0  0  0  0999 V2000
   58.1690   33.2260   46.9370 C   0  0  0  0  0  0  0  0  0  0  0  0
   57.3840   33.5020   45.8890 C   0  0  0  0  0  0  0  0  0  0  0  0
   57.9260   33.5330   44.4910 C   0  0  0  0  0  0  0  0  0  0  0  0
   57.4060   32.3890   43.7390 N   0  0  0  0  0  0  0  0  0  0  0  0
   57.3740   31.1500   44.1450 C   0  0  0  0  0  0  0  0  0  0  0  0
   58.5330   30.3480   44.2220 C   0  0  0  0  0  0  0  0  0  0  0  0
   58.4250   29.0240   44.6660 C   0  0  0  0  0  0  0  0  0  0  0  0
   57.1750   28.5040   45.0250 C   0  0  0  0  0  0  0  0  0  0  0  0
   57.0260   26.8350   45.5750 S   0  0  0  0  0  0  0  0  0  0  0  0
   57.3610   25.9050   44.4440 O   0  0  0  0  0  0  0  0  0  0  0  0
   55.6150   26.5550   46.0160 O   0  0  0  0  0  0  0  0  0  0  0  0
   58.1010   26.5280   46.9030 N   0  0  0  0  0  0  0  0  0  0  0  0
   58.8100   27.5410   47.6280 C   0  0  0  0  0  0  0  0  0  0  0  0
   60.0400   27.2160   48.2180 C   0  0  0  0  0  0  0  0  0  0  0  0
   60.7370   28.1630   48.9760 C   0  0  0  0  0  0  0  0  0  0  0  0
   60.2200   29.4580   49.1370 C   0  0  0  0  0  0  0  0  0  0  0  0
   60.9420   30.4690   49.9910 C   0  0  0  0  0  0  0  0  0  0  0  0
   62.0480   31.1280   49.2060 C   0  0  0  0  0  0  0  0  0  0  0  0
   61.9240   31.3140   47.8220 C   0  0  0  0  0  0  0  0  0  0  0  0
   62.9340   31.9810   47.1220 C   0  0  0  0  0  0  0  0  0  0  0  0
   64.0280   32.4530   47.7780 N   0  0  0  0  0  0  0  0  0  0  0  0
   64.1730   32.2860   49.1200 C   0  0  0  0  0  0  0  0  0  0  0  0
   63.1860   31.6240   49.8590 C   0  0  0  0  0  0  0  0  0  0  0  0
   59.0040   29.7940   48.5190 C   0  0  0  0  0  0  0  0  0  0  0  0
   58.2980   28.8410   47.7800 C   0  0  0  0  0  0  0  0  0  0  0  0
   56.0460   29.3300   44.9320 C   0  0  0  0  0  0  0  0  0  0  0  0
   56.1740   30.6150   44.5030 N   0  0  0  0  0  0  0  0  0  0  0  0
   57.7456   33.2098   47.9521 H   0  0  0  0  0  0  0  0  0  0  0  0
   59.2376   33.0153   46.7833 H   0  0  0  0  0  0  0  0  0  0  0  0
   56.3171   33.7108   46.0567 H   0  0  0  0  0  0  0  0  0  0  0  0
   57.6163   34.4666   43.9985 H   0  0  0  0  0  0  0  0  0  0  0  0
   59.0243   33.4814   44.5229 H   0  0  0  0  0  0  0  0  0  0  0  0
   59.5123   30.7592   43.9359 H   0  0  0  0  0  0  0  0  0  0  0  0
   59.3228   28.3919   44.7328 H   0  0  0  0  0  0  0  0  0  0  0  0
   60.4602   26.2083   48.0837 H   0  0  0  0  0  0  0  0  0  0  0  0
   61.6932   27.8919   49.4473 H   0  0  0  0  0  0  0  0  0  0  0  0
   60.2283   31.2363   50.3254 H   0  0  0  0  0  0  0  0  0  0  0  0
   61.3792   29.9545   50.8594 H   0  0  0  0  0  0  0  0  0  0  0  0
   61.0377   30.9376   47.2902 H   0  0  0  0  0  0  0  0  0  0  0  0
   62.8434   32.1248   46.0352 H   0  0  0  0  0  0  0  0  0  0  0  0
   64.7700   32.9560   47.2410 H   0  0  0  0  0  0  0  0  0  0  0  0
   65.0696   32.6728   49.6265 H   0  0  0  0  0  0  0  0  0  0  0  0
   63.3019   31.4935   50.9451 H   0  0  0  0  0  0  0  0  0  0  0  0
   58.6048   30.8143   48.6175 H   0  0  0  0  0  0  0  0  0  0  0  0
   57.3377   29.1094   47.3154 H   0  0  0  0  0  0  0  0  0  0  0  0
   55.0552   28.9387   45.2062 H   0  0  0  0  0  0  0  0  0  0  0  0
  1  2  2  0
  2  3  1  0
  3  4  1  0
  4  5  2  3
  5  6  1  0
  6  7  2  0
  7  8  1  0
  8  9  1  0
  9 10  2  0
  9 11  2  0
  9 12  1  0
 12 13  1  0
 13 14  2  0
 14 15  1  0
 15 16  2  0
 16 17  1  0
 17 18  1  0
 18 19  2  0
 19 20  1  0
 20 21  2  0
 21 22  1  0
 22 23  2  0
 16 24  1  0
 24 25  2  0
  8 26  2  0
 26 27  1  0
 27  5  1  0
 25 13  1  0
 23 18  1  0
  1 28  1  0
  1 29  1  0
  2 30  1  0
  3 31  1  0
  3 32  1  0
  6 33  1  0
  7 34  1  0
 14 35  1  0
 15 36  1  0
 17 37  1  0
 17 38  1  0
 19 39  1  0
 20 40  1  0
 21 41  1  0
 22 42  1  0
 23 43  1  0
 24 44  1  0
 25 45  1  0
 26 46  1  0
M  CHG  3  12  -1  21   1  27  -1
M  END
>  <UniqueID>  (35) 
34

>  <SMILES>  (35) 
C=CCN=c1ccc(S(=O)(=O)[N-]c2ccc(Cc3cc[nH+]cc3)cc2)c[n-]1

>  <Energy>  (35) 
50.409996019843454

>  <Genealogy>  (35) 
C=CCN=c1ccc(S(=O)(=O)[N-]c2ccc(Cc3cc[nH+]cc3)cc2)c[n-]1 (protonated)
C=CCN=c1ccc(S(=O)(=O)[N-]c2ccc(Cc3cc[nH+]cc3)cc2)c[n-]1 (3D coordinates assigned)
C=CCN=c1ccc(S(=O)(=O)[N-]c2ccc(Cc3cc[nH+]cc3)cc2)c[n-]1 (optimized conformer: 50.409996019843454 kcal/mol)

>  <smiles>  (35) 
C=CCN=c1ccc(S(=O)(=O)Nc2ccc(Cc3ccncc3)cc2)c[nH]1

>  <score_type>  (35) 
oracle

>  <origin>  (35) 
adg

>  <m_score__min__energy>  (35) 
-9.9299999999999997

>  <m_primary>  (35) 
energy

$$$$
35:0
     RDKit          3D

 27 28  0  0  0  0  0  0  0  0999 V2000
   54.9370   30.4820   51.2480 O   0  0  0  0  0  0  0  0  0  0  0  0
   54.1790   30.3020   52.2380 C   0  0  0  0  0  0  0  0  0  0  0  0
   53.0100   31.2060   52.4560 C   0  0  0  0  0  0  0  0  0  0  0  0
   52.2320   31.3180   51.1830 C   0  0  0  0  0  0  0  0  0  0  0  0
   52.2200   30.3760   50.2220 N   0  0  0  0  0  0  0  0  0  0  0  0
   51.3090   30.8450   49.3410 C   0  0  0  0  0  0  0  0  0  0  0  0
   51.0140   30.2330   48.2820 O   0  0  0  0  0  0  0  0  0  0  0  0
   50.7310   32.0150   49.6880 N   0  0  0  0  0  0  0  0  0  0  0  0
   51.3220   32.2960   50.8600 C   0  0  0  0  0  0  0  0  0  0  0  0
   51.0240   33.4140   51.6280 O   0  0  0  0  0  0  0  0  0  0  0  0
   54.3690   29.1790   53.1040 N   0  0  0  0  0  0  0  0  0  0  0  0
   53.3300   28.6760   53.9940 C   0  0  0  0  0  0  0  0  0  0  0  0
   52.4740   27.6730   53.2660 C   0  0  0  0  0  0  0  0  0  0  0  0
   51.2870   28.0720   52.6290 C   0  0  0  0  0  0  0  0  0  0  0  0
   50.4790   27.1270   51.9900 C   0  0  0  0  0  0  0  0  0  0  0  0
   50.8480   25.7780   51.9850 C   0  0  0  0  0  0  0  0  0  0  0  0
   52.0280   25.3730   52.6150 C   0  0  0  0  0  0  0  0  0  0  0  0
   52.5210   23.5270   52.6260 Br  0  0  0  0  0  0  0  0  0  0  0  0
   52.8430   26.3170   53.2480 C   0  0  0  0  0  0  0  0  0  0  0  0
   52.3662   30.7913   53.2456 H   0  0  0  0  0  0  0  0  0  0  0  0
   53.3641   32.2015   52.7621 H   0  0  0  0  0  0  0  0  0  0  0  0
   53.7977   28.1929   54.8646 H   0  0  0  0  0  0  0  0  0  0  0  0
   52.7013   29.5147   54.3278 H   0  0  0  0  0  0  0  0  0  0  0  0
   50.9924   29.1318   52.6331 H   0  0  0  0  0  0  0  0  0  0  0  0
   49.5519   27.4448   51.4905 H   0  0  0  0  0  0  0  0  0  0  0  0
   50.2091   25.0353   51.4849 H   0  0  0  0  0  0  0  0  0  0  0  0
   53.7766   25.9969   53.7337 H   0  0  0  0  0  0  0  0  0  0  0  0
  1  2  2  0
  2  3  1  0
  3  4  1  0
  4  5  1  0
  5  6  1  0
  6  7  2  0
  6  8  1  0
  8  9  1  0
  9 10  1  0
  2 11  1  0
 11 12  1  0
 12 13  1  0
 13 14  2  0
 14 15  1  0
 15 16  2  0
 16 17  1  0
 17 18  1  0
 17 19  2  0
  9  4  2  0
 19 13  1  0
  3 20  1  0
  3 21  1  0
 12 22  1  0
 12 23  1  0
 14 24  1  0
 15 25  1  0
 16 26  1  0
 19 27  1  0
M  CHG  4   5  -1   8  -1  10  -1  11  -1
M  END
>  <UniqueID>  (36) 
35

>  <SMILES>  (36) 
O=C(Cc1[n-]c(=O)[n-]c1[O-])[N-]Cc1cccc(Br)c1

>  <Energy>  (36) 
50.727546683951005

>  <Genealogy>  (36) 
O=C(Cc1[n-]c(=O)[n-]c1[O-])[N-]Cc1cccc(Br)c1 (protonated)
O=C(Cc1[n-]c(=O)[n-]c1[O-])[N-]Cc1cccc(Br)c1 (3D coordinates assigned)
O=C(Cc1[n-]c(=O)[n-]c1[O-])[N-]Cc1cccc(Br)c1 (optimized conformer: 50.727546683951005 kcal/mol)

>  <smiles>  (36) 
O=C(Cc1[nH]c(=O)[nH]c1O)NCc1cccc(Br)c1

>  <score_type>  (36) 
oracle

>  <origin>  (36) 
adg

>  <m_score__min__energy>  (36) 
-16.66

>  <m_primary>  (36) 
energy

$$$$
36:0
     RDKit          3D

 33 35  0  0  0  0  0  0  0  0999 V2000
   60.8300   35.6596   46.9904 H   0  0  0  0  0  0  0  0  0  0  0  0
   60.0110   34.9280   46.9280 C   0  0  0  0  0  0  0  0  0  0  0  0
   59.1870   34.9230   45.8480 N   0  0  0  0  0  0  0  0  0  0  0  0
   58.1650   34.0360   45.7380 C   0  0  0  0  0  0  0  0  0  0  0  0
   57.5147   34.0567   44.8510 H   0  0  0  0  0  0  0  0  0  0  0  0
   57.9360   33.0970   46.7470 C   0  0  0  0  0  0  0  0  0  0  0  0
   57.1084   32.3783   46.6547 H   0  0  0  0  0  0  0  0  0  0  0  0
   58.7690   33.0740   47.8830 C   0  0  0  0  0  0  0  0  0  0  0  0
   58.5660   32.0930   48.9810 C   0  0  0  0  0  0  0  0  0  0  0  0
   57.6360   32.3030   49.9560 N   0  0  0  0  0  0  0  0  0  0  0  0
   57.6000   31.2990   50.8560 C   0  0  0  0  0  0  0  0  0  0  0  0
   56.7780   31.3110   51.8650 N   0  0  0  0  0  0  0  0  0  0  0  0
   56.0530   30.2000   52.4180 C   0  0  0  0  0  0  0  0  0  0  0  0
   56.4430   29.0120   52.2540 O   0  0  0  0  0  0  0  0  0  0  0  0
   54.7810   30.4580   53.1600 C   0  0  0  0  0  0  0  0  0  0  0  0
   54.5850   29.6225   53.8481 H   0  0  0  0  0  0  0  0  0  0  0  0
   54.8786   31.3949   53.7281 H   0  0  0  0  0  0  0  0  0  0  0  0
   53.6370   30.5850   52.1930 C   0  0  0  0  0  0  0  0  0  0  0  0
   53.5630   29.7430   51.0700 C   0  0  0  0  0  0  0  0  0  0  0  0
   54.3303   28.9708   50.9121 H   0  0  0  0  0  0  0  0  0  0  0  0
   52.5170   29.8840   50.1530 C   0  0  0  0  0  0  0  0  0  0  0  0
   52.4582   29.2168   49.2804 H   0  0  0  0  0  0  0  0  0  0  0  0
   51.5460   30.8710   50.3430 C   0  0  0  0  0  0  0  0  0  0  0  0
   50.7224   30.9780   49.6218 H   0  0  0  0  0  0  0  0  0  0  0  0
   51.6210   31.7230   51.4500 C   0  0  0  0  0  0  0  0  0  0  0  0
   50.6590   32.7090   51.6340 O   0  0  0  0  0  0  0  0  0  0  0  0
   52.6660   31.5840   52.3710 C   0  0  0  0  0  0  0  0  0  0  0  0
   52.7269   32.2595   53.2370 H   0  0  0  0  0  0  0  0  0  0  0  0
   58.7200   30.0970   50.4830 S   0  0  0  0  0  0  0  0  0  0  0  0
   59.2770   30.8940   49.1110 C   0  0  0  0  0  0  0  0  0  0  0  0
   60.0647   30.5350   48.4323 H   0  0  0  0  0  0  0  0  0  0  0  0
   59.8200   34.0060   47.9590 C   0  0  0  0  0  0  0  0  0  0  0  0
   60.4912   34.0084   48.8305 H   0  0  0  0  0  0  0  0  0  0  0  0
  1  2  1  0
  2  3  2  0
  3  4  1  0
  4  5  1  0
  4  6  2  0
  6  7  1  0
  6  8  1  0
  8  9  1  0
  9 10  1  0
 10 11  1  0
 11 12  2  0
 12 13  1  0
 13 14  2  0
 13 15  1  0
 15 16  1  0
 15 17  1  0
 15 18  1  0
 18 19  2  0
 19 20  1  0
 19 21  1  0
 21 22  1  0
 21 23  2  0
 23 24  1  0
 23 25  1  0
 25 26  1  0
 25 27  2  0
 27 28  1  0
 11 29  1  0
 29 30  1  0
 30 31  1  0
  8 32  2  0
 32 33  1  0
 32  2  1  0
 30  9  2  0
 27 18  1  0
M  CHG  2  10  -1  26  -1
M  END
>  <UniqueID>  (37) 
36

>  <SMILES>  (37) 
O=C(Cc1cccc([O-])c1)/N=c1/[n-]c(-c2ccncc2)cs1

>  <Energy>  (37) 
70.3823983062601

>  <Genealogy>  (37) 
O=C(Cc1cccc([O-])c1)N=c1[n-]c(-c2ccncc2)cs1 (protonated)
O=C(Cc1cccc([O-])c1)/N=c1/[n-]c(-c2ccncc2)cs1 (cis-trans isomerization)
O=C(Cc1cccc([O-])c1)/N=c1/[n-]c(-c2ccncc2)cs1 (3D coordinates assigned)
O=C(Cc1cccc([O-])c1)/N=c1/[n-]c(-c2ccncc2)cs1 (optimized conformer: 70.3823983062601 kcal/mol)

>  <smiles>  (37) 
O=C(Cc1cccc(O)c1)N=c1[nH]c(-c2ccncc2)cs1

>  <score_type>  (37) 
oracle

>  <origin>  (37) 
adg

>  <m_score__min__energy>  (37) 
-12.970000000000001

>  <m_primary>  (37) 
energy

$$$$
37:0
     RDKit          3D

 50 52  0  0  0  0  0  0  0  0999 V2000
   60.3670   27.1170   47.1360 C   0  0  0  0  0  0  0  0  0  0  0  0
   60.4370   27.2630   48.9480 S   0  0  0  0  0  0  0  0  0  0  0  0
   60.2630   29.0430   48.9220 C   0  0  0  0  0  0  0  0  0  0  0  0
   59.3150   29.6410   49.6810 N   0  0  0  0  0  0  0  0  0  0  0  0
   59.1400   30.9900   49.6690 C   0  0  0  0  0  0  0  0  0  0  0  0
   58.0630   31.5600   50.5440 C   0  0  0  0  0  0  0  0  0  0  0  0
   59.9380   31.7870   48.8180 C   0  0  0  0  0  0  0  0  0  0  0  0
   59.7080   33.5820   48.7240 S   0  0  0  0  0  0  0  0  0  0  0  0
   59.0870   33.5650   47.0370 C   0  0  0  0  0  0  0  0  0  0  0  0
   59.2730   34.6760   46.2080 C   0  0  0  0  0  0  0  0  0  0  0  0
   58.7950   34.6590   44.8960 C   0  0  0  0  0  0  0  0  0  0  0  0
   58.1150   33.5390   44.4120 C   0  0  0  0  0  0  0  0  0  0  0  0
   57.8880   32.4260   45.2430 C   0  0  0  0  0  0  0  0  0  0  0  0
   57.1520   31.2420   44.7390 C   0  0  0  0  0  0  0  0  0  0  0  0
   55.8940   31.2060   44.8320 O   0  0  0  0  0  0  0  0  0  0  0  0
   57.8770   30.1430   44.1620 N   0  0  0  0  0  0  0  0  0  0  0  0
   57.8120   28.8850   44.4900 C   0  0  0  0  0  0  0  0  0  0  0  0
   56.9380   28.4350   45.4120 N   0  0  0  0  0  0  0  0  0  0  0  0
   57.0520   27.0920   45.6060 C   0  0  0  0  0  0  0  0  0  0  0  0
   56.1630   26.3520   46.5530 C   0  0  0  0  0  0  0  0  0  0  0  0
   54.8230   26.2620   45.9840 N   0  0  0  0  0  0  0  0  0  0  0  0
   54.4410   24.6070   45.6190 S   0  0  0  0  0  0  0  0  0  0  0  0
   52.7130   24.4330   45.2230 C   0  0  0  0  0  0  0  0  0  0  0  0
   54.7470   23.7630   46.8230 O   0  0  0  0  0  0  0  0  0  0  0  0
   55.2730   24.1320   44.4620 O   0  0  0  0  0  0  0  0  0  0  0  0
   58.0160   26.4590   44.8230 C   0  0  0  0  0  0  0  0  0  0  0  0
   58.7570   27.6300   43.8720 S   0  0  0  0  0  0  0  0  0  0  0  0
   58.3710   32.4580   46.5650 C   0  0  0  0  0  0  0  0  0  0  0  0
   60.9620   31.1430   48.0830 C   0  0  0  0  0  0  0  0  0  0  0  0
   61.9090   31.8880   47.1890 C   0  0  0  0  0  0  0  0  0  0  0  0
   61.0790   29.7910   48.1410 N   0  0  0  0  0  0  0  0  0  0  0  0
   59.9063   26.1561   46.8631 H   0  0  0  0  0  0  0  0  0  0  0  0
   59.7663   27.9416   46.7246 H   0  0  0  0  0  0  0  0  0  0  0  0
   61.3861   27.1650   46.7246 H   0  0  0  0  0  0  0  0  0  0  0  0
   58.3344   31.4164   51.6003 H   0  0  0  0  0  0  0  0  0  0  0  0
   57.9526   32.6346   50.3367 H   0  0  0  0  0  0  0  0  0  0  0  0
   57.1123   31.0470   50.3367 H   0  0  0  0  0  0  0  0  0  0  0  0
   59.7967   35.5647   46.5901 H   0  0  0  0  0  0  0  0  0  0  0  0
   58.9543   35.5293   44.2424 H   0  0  0  0  0  0  0  0  0  0  0  0
   57.7540   33.5268   43.3730 H   0  0  0  0  0  0  0  0  0  0  0  0
   56.5616   25.3399   46.7167 H   0  0  0  0  0  0  0  0  0  0  0  0
   56.1209   26.8865   47.5135 H   0  0  0  0  0  0  0  0  0  0  0  0
   52.1279   24.3741   46.1526 H   0  0  0  0  0  0  0  0  0  0  0  0
   52.3820   25.3024   44.6359 H   0  0  0  0  0  0  0  0  0  0  0  0
   52.5620   23.5151   44.6359 H   0  0  0  0  0  0  0  0  0  0  0  0
   58.2501   25.3842   44.8269 H   0  0  0  0  0  0  0  0  0  0  0  0
   58.1841   31.6049   47.2338 H   0  0  0  0  0  0  0  0  0  0  0  0
   62.6261   32.4522   47.8034 H   0  0  0  0  0  0  0  0  0  0  0  0
   62.4529   31.1731   46.5541 H   0  0  0  0  0  0  0  0  0  0  0  0
   61.3423   32.5849   46.5541 H   0  0  0  0  0  0  0  0  0  0  0  0
  1  2  1  0
  2  3  1  0
  3  4  2  0
  4  5  1  0
  5  6  1  0
  5  7  2  0
  7  8  1  0
  8  9  1  0
  9 10  2  0
 10 11  1  0
 11 12  2  0
 12 13  1  0
 13 14  1  0
 14 15  2  0
 14 16  1  0
 16 17  2  3
 17 18  1  0
 18 19  1  0
 19 20  1  0
 20 21  1  0
 21 22  1  0
 22 23  1  0
 22 24  2  0
 22 25  2  0
 19 26  2  0
 26 27  1  0
 13 28  2  0
  7 29  1  0
 29 30  1  0
 29 31  2  0
 31  3  1  0
 28  9  1  0
 27 17  1  0
  1 32  1  0
  1 33  1  0
  1 34  1  0
  6 35  1  0
  6 36  1  0
  6 37  1  0
 10 38  1  0
 11 39  1  0
 12 40  1  0
 20 41  1  0
 20 42  1  0
 23 43  1  0
 23 44  1  0
 23 45  1  0
 26 46  1  0
 28 47  1  0
 30 48  1  0
 30 49  1  0
 30 50  1  0
M  CHG  2  18  -1  21  -1
M  END
>  <UniqueID>  (38) 
37

>  <SMILES>  (38) 
CSc1nc(C)c(Sc2cccc(C(=O)N=c3[n-]c(C[N-]S(C)(=O)=O)cs3)c2)c(C)n1

>  <Energy>  (38) 
72.11579574215679

>  <Genealogy>  (38) 
CSc1nc(C)c(Sc2cccc(C(=O)N=c3[n-]c(C[N-]S(C)(=O)=O)cs3)c2)c(C)n1 (protonated)
CSc1nc(C)c(Sc2cccc(C(=O)N=c3[n-]c(C[N-]S(C)(=O)=O)cs3)c2)c(C)n1 (3D coordinates assigned)
CSc1nc(C)c(Sc2cccc(C(=O)N=c3[n-]c(C[N-]S(C)(=O)=O)cs3)c2)c(C)n1 (optimized conformer: 72.11579574215679 kcal/mol)

>  <smiles>  (38) 
CSc1nc(C)c(Sc2cccc(C(=O)N=c3[nH]c(CNS(C)(=O)=O)cs3)c2)c(C)n1

>  <score_type>  (38) 
oracle

>  <origin>  (38) 
adg

>  <m_score__min__energy>  (38) 
-13.58

>  <m_primary>  (38) 
energy

$$$$
38:0
     RDKit          3D

 43 44  0  0  0  0  0  0  0  0999 V2000
   57.3060   24.4180   43.9880 C   0  0  0  0  0  0  0  0  0  0  0  0
   58.0860   24.0040   45.2340 C   0  0  0  0  0  0  0  0  0  0  0  0
   57.2400   24.0840   46.5170 C   0  0  0  0  0  0  0  0  0  0  0  0
   57.7850   25.0680   47.5660 C   0  0  0  0  0  0  0  0  0  0  0  0
   58.0580   26.3820   46.9850 N   0  0  0  0  0  0  0  0  0  0  0  0
   59.3350   26.9850   46.7950 C   0  0  0  0  0  0  0  0  0  0  0  0
   60.4060   26.5710   47.3110 O   0  0  0  0  0  0  0  0  0  0  0  0
   59.2060   28.0960   45.8710 C   0  0  0  0  0  0  0  0  0  0  0  0
   60.1450   28.8200   45.4480 O   0  0  0  0  0  0  0  0  0  0  0  0
   57.8440   28.2200   45.4620 N   0  0  0  0  0  0  0  0  0  0  0  0
   57.3960   28.8110   44.2030 C   0  0  0  0  0  0  0  0  0  0  0  0
   56.2870   29.7800   44.4670 C   0  0  0  0  0  0  0  0  0  0  0  0
   55.1190   29.3530   44.6700 O   0  0  0  0  0  0  0  0  0  0  0  0
   56.5650   31.1840   44.4920 N   0  0  0  0  0  0  0  0  0  0  0  0
   57.5460   31.8230   45.3180 C   0  0  0  0  0  0  0  0  0  0  0  0
   57.8110   33.2000   45.2180 C   0  0  0  0  0  0  0  0  0  0  0  0
   58.7210   33.8070   46.0870 C   0  0  0  0  0  0  0  0  0  0  0  0
   59.3680   33.0460   47.0660 C   0  0  0  0  0  0  0  0  0  0  0  0
   59.1000   31.6770   47.1850 C   0  0  0  0  0  0  0  0  0  0  0  0
   59.8910   30.7100   48.4280 S   0  0  0  0  0  0  0  0  0  0  0  0
   61.1120   29.7210   47.7060 N   0  0  0  0  0  0  0  0  0  0  0  0
   58.8860   29.8310   49.1200 O   0  0  0  0  0  0  0  0  0  0  0  0
   60.5160   31.6240   49.4450 O   0  0  0  0  0  0  0  0  0  0  0  0
   58.1800   31.0740   46.3170 C   0  0  0  0  0  0  0  0  0  0  0  0
   57.1860   27.1460   46.1460 C   0  0  0  0  0  0  0  0  0  0  0  0
   55.9630   26.8790   45.9940 O   0  0  0  0  0  0  0  0  0  0  0  0
   56.3713   24.9141   44.2885 H   0  0  0  0  0  0  0  0  0  0  0  0
   57.9135   25.1124   43.3890 H   0  0  0  0  0  0  0  0  0  0  0  0
   57.0713   23.5257   43.3890 H   0  0  0  0  0  0  0  0  0  0  0  0
   58.4322   22.9679   45.1046 H   0  0  0  0  0  0  0  0  0  0  0  0
   58.9281   24.7027   45.3467 H   0  0  0  0  0  0  0  0  0  0  0  0
   56.2231   24.4004   46.2415 H   0  0  0  0  0  0  0  0  0  0  0  0
   57.2632   23.0846   46.9761 H   0  0  0  0  0  0  0  0  0  0  0  0
   57.0417   25.1808   48.3690 H   0  0  0  0  0  0  0  0  0  0  0  0
   58.7300   24.6632   47.9574 H   0  0  0  0  0  0  0  0  0  0  0  0
   58.2362   29.3378   43.7270 H   0  0  0  0  0  0  0  0  0  0  0  0
   57.0332   28.0152   43.5359 H   0  0  0  0  0  0  0  0  0  0  0  0
   57.2997   33.8020   44.4524 H   0  0  0  0  0  0  0  0  0  0  0  0
   58.9287   34.8838   46.0012 H   0  0  0  0  0  0  0  0  0  0  0  0
   60.0896   33.5245   47.7445 H   0  0  0  0  0  0  0  0  0  0  0  0
   60.6930   28.7730   47.5660 H   0  0  0  0  0  0  0  0  0  0  0  0
   61.3010   30.1120   46.7560 H   0  0  0  0  0  0  0  0  0  0  0  0
   57.9538   30.0026   46.4213 H   0  0  0  0  0  0  0  0  0  0  0  0
  1  2  1  0
  2  3  1  0
  3  4  1  0
  4  5  1  0
  5  6  1  0
  6  7  2  0
  6  8  1  0
  8  9  2  0
  8 10  1  0
 10 11  1  0
 11 12  1  0
 12 13  2  0
 12 14  1  0
 14 15  1  0
 15 16  2  0
 16 17  1  0
 17 18  2  0
 18 19  1  0
 19 20  1  0
 20 21  1  0
 20 22  2  0
 20 23  2  0
 19 24  2  0
 10 25  1  0
 25 26  2  0
 25  5  1  0
 24 15  1  0
  1 27  1  0
  1 28  1  0
  1 29  1  0
  2 30  1  0
  2 31  1  0
  3 32  1  0
  3 33  1  0
  4 34  1  0
  4 35  1  0
 11 36  1  0
 11 37  1  0
 16 38  1  0
 17 39  1  0
 18 40  1  0
 21 41  1  0
 21 42  1  0
 24 43  1  0
M  CHG  1  14  -1
M  END
>  <UniqueID>  (39) 
38

>  <SMILES>  (39) 
CCCCN1C(=O)C(=O)N(CC(=O)[N-]c2cccc(S(N)(=O)=O)c2)C1=O

>  <Energy>  (39) 
64.4708194634315

>  <Genealogy>  (39) 
CCCCN1C(=O)C(=O)N(CC(=O)[N-]c2cccc(S(N)(=O)=O)c2)C1=O (protonated)
CCCCN1C(=O)C(=O)N(CC(=O)[N-]c2cccc(S(N)(=O)=O)c2)C1=O (3D coordinates assigned)
CCCCN1C(=O)C(=O)N(CC(=O)[N-]c2cccc(S(N)(=O)=O)c2)C1=O (nonaromatic ring conformer: 64.4708194634315 kcal/mol)

>  <smiles>  (39) 
CCCCN1C(=O)C(=O)N(CC(=O)Nc2cccc(S(N)(=O)=O)c2)C1=O

>  <score_type>  (39) 
oracle

>  <origin>  (39) 
adg

>  <m_score__min__energy>  (39) 
-9.1899999999999995

>  <m_primary>  (39) 
energy

$$$$
39:0
     RDKit          3D

 29 30  0  0  0  0  0  0  0  0999 V2000
   56.1780   27.7250   45.5900 N   0  0  0  0  0  0  0  0  0  0  0  0
   56.2000   26.5370   46.1020 C   0  0  0  0  0  0  0  0  0  0  0  0
   55.1750   25.6720   46.0350 N   0  0  0  0  0  0  0  0  0  0  0  0
   55.5710   24.6290   46.7580 N   0  0  0  0  0  0  0  0  0  0  0  0
   56.7860   24.8430   47.2510 N   0  0  0  0  0  0  0  0  0  0  0  0
   57.1980   26.0250   46.8370 N   0  0  0  0  0  0  0  0  0  0  0  0
   58.4020   26.6010   47.1850 O   0  0  0  0  0  0  0  0  0  0  0  0
   59.4330   26.7920   46.2250 C   0  0  0  0  0  0  0  0  0  0  0  0
   59.4130   28.2110   45.7570 C   0  0  0  0  0  0  0  0  0  0  0  0
   60.2670   28.6030   44.9160 O   0  0  0  0  0  0  0  0  0  0  0  0
   58.4380   29.1220   46.2840 N   0  0  0  0  0  0  0  0  0  0  0  0
   58.3710   30.4950   45.8720 C   0  0  0  0  0  0  0  0  0  0  0  0
   59.2630   31.4090   46.4510 C   0  0  0  0  0  0  0  0  0  0  0  0
   59.1960   32.7660   46.1330 C   0  0  0  0  0  0  0  0  0  0  0  0
   58.2410   33.2240   45.2270 C   0  0  0  0  0  0  0  0  0  0  0  0
   57.3630   32.3230   44.6200 C   0  0  0  0  0  0  0  0  0  0  0  0
   57.4230   30.9480   44.9150 C   0  0  0  0  0  0  0  0  0  0  0  0
   56.5380   30.0140   44.1750 C   0  0  0  0  0  0  0  0  0  0  0  0
   55.1630   29.8930   44.5330 N   0  0  0  0  0  0  0  0  0  0  0  0
   56.9810   29.3410   43.2070 O   0  0  0  0  0  0  0  0  0  0  0  0
   56.0940   27.8870   44.5630 H   0  0  0  0  0  0  0  0  0  0  0  0
   60.4080   26.5696   46.6832 H   0  0  0  0  0  0  0  0  0  0  0  0
   59.2708   26.1190   45.3702 H   0  0  0  0  0  0  0  0  0  0  0  0
   57.6310   28.7300   46.8220 H   0  0  0  0  0  0  0  0  0  0  0  0
   60.0226   31.0529   47.1625 H   0  0  0  0  0  0  0  0  0  0  0  0
   59.8973   33.4747   46.5976 H   0  0  0  0  0  0  0  0  0  0  0  0
   58.1786   34.2963   44.9897 H   0  0  0  0  0  0  0  0  0  0  0  0
   56.6155   32.6926   43.9026 H   0  0  0  0  0  0  0  0  0  0  0  0
   54.7710   28.9810   44.8600 H   0  0  0  0  0  0  0  0  0  0  0  0
  1  2  2  3
  2  3  1  0
  3  4  2  0
  4  5  1  0
  5  6  1  0
  6  7  1  0
  7  8  1  0
  8  9  1  0
  9 10  2  0
  9 11  1  0
 11 12  1  0
 12 13  2  0
 13 14  1  0
 14 15  2  0
 15 16  1  0
 16 17  2  0
 17 18  1  0
 18 19  1  0
 18 20  2  0
  6  2  1  0
 17 12  1  0
  1 21  1  0
  8 22  1  0
  8 23  1  0
 11 24  1  0
 13 25  1  0
 14 26  1  0
 15 27  1  0
 16 28  1  0
 19 29  1  0
M  CHG  2   5  -1  19  -1
M  END
>  <UniqueID>  (40) 
39

>  <SMILES>  (40) 
N=c1nn[n-]n1OCC(=O)Nc1ccccc1C([NH-])=O

>  <Energy>  (40) 
85.02113893100405

>  <Genealogy>  (40) 
N=c1nn[n-]n1OCC(=O)Nc1ccccc1C([NH-])=O (protonated)
N=c1nn[n-]n1OCC(=O)Nc1ccccc1C([NH-])=O (3D coordinates assigned)
N=c1nn[n-]n1OCC(=O)Nc1ccccc1C([NH-])=O (optimized conformer: 85.02113893100405 kcal/mol)

>  <smiles>  (40) 
N=c1nn[nH]n1OCC(=O)Nc1ccccc1C(N)=O

>  <score_type>  (40) 
oracle

>  <origin>  (40) 
adg

>  <m_score__min__energy>  (40) 
-11.35

>  <m_primary>  (40) 
energy

$$$$
40:0
     RDKit          3D

 65 67  0  0  0  0  0  0  0  0999 V2000
   64.5010   32.4720   49.3670 C   0  0  0  0  0  0  0  0  0  0  0  0
   63.7620   33.6470   49.6150 O   0  0  0  0  0  0  0  0  0  0  0  0
   62.4250   33.3200   49.9420 C   0  0  0  0  0  0  0  0  0  0  0  0
   61.8720   32.4380   48.9610 O   0  0  0  0  0  0  0  0  0  0  0  0
   60.9380   32.8530   47.9990 C   0  0  0  0  0  0  0  0  0  0  0  0
   61.3740   33.6740   46.9420 C   0  0  0  0  0  0  0  0  0  0  0  0
   62.7190   34.1590   46.9000 N   0  0  0  0  0  0  0  0  0  0  0  0
   60.4900   34.0070   45.9070 C   0  0  0  0  0  0  0  0  0  0  0  0
   59.1680   33.5460   45.9220 C   0  0  0  0  0  0  0  0  0  0  0  0
   58.2350   33.8580   44.7820 C   0  0  0  0  0  0  0  0  0  0  0  0
   58.1080   32.7320   43.9120 O   0  0  0  0  0  0  0  0  0  0  0  0
   57.8880   31.4090   44.3310 C   0  0  0  0  0  0  0  0  0  0  0  0
   58.9980   30.6250   44.6650 C   0  0  0  0  0  0  0  0  0  0  0  0
   58.8360   29.2920   45.0510 C   0  0  0  0  0  0  0  0  0  0  0  0
   57.5550   28.7220   45.1170 C   0  0  0  0  0  0  0  0  0  0  0  0
   57.3860   27.2750   45.5050 C   0  0  0  0  0  0  0  0  0  0  0  0
   57.7760   27.0760   46.8630 O   0  0  0  0  0  0  0  0  0  0  0  0
   59.1140   26.9710   47.2700 C   0  0  0  0  0  0  0  0  0  0  0  0
   60.1120   26.3340   46.3640 C   0  0  0  0  0  0  0  0  0  0  0  0
   59.4890   27.4290   48.3850 O   0  0  0  0  0  0  0  0  0  0  0  0
   56.4340   29.5130   44.8030 C   0  0  0  0  0  0  0  0  0  0  0  0
   55.1510   28.9800   44.8690 O   0  0  0  0  0  0  0  0  0  0  0  0
   56.6000   30.8470   44.4170 C   0  0  0  0  0  0  0  0  0  0  0  0
   58.7120   32.8020   47.0150 C   0  0  0  0  0  0  0  0  0  0  0  0
   59.5800   32.4570   48.0640 C   0  0  0  0  0  0  0  0  0  0  0  0
   59.0320   31.7380   49.2370 C   0  0  0  0  0  0  0  0  0  0  0  0
   59.1400   30.3420   49.3270 C   0  0  0  0  0  0  0  0  0  0  0  0
   58.6130   29.6630   50.4280 C   0  0  0  0  0  0  0  0  0  0  0  0
   57.9620   30.3690   51.4530 C   0  0  0  0  0  0  0  0  0  0  0  0
   57.4050   29.6470   52.6150 C   0  0  0  0  0  0  0  0  0  0  0  0
   56.2590   29.1270   52.5180 O   0  0  0  0  0  0  0  0  0  0  0  0
   58.1350   29.5320   53.8520 N   0  0  0  0  0  0  0  0  0  0  0  0
   57.9000   28.3710   54.7120 C   0  0  0  0  0  0  0  0  0  0  0  0
   58.9580   30.6500   54.3260 C   0  0  0  0  0  0  0  0  0  0  0  0
   57.8830   31.7680   51.3780 C   0  0  0  0  0  0  0  0  0  0  0  0
   58.4120   32.4480   50.2780 C   0  0  0  0  0  0  0  0  0  0  0  0
   64.7903   32.0121   50.3234 H   0  0  0  0  0  0  0  0  0  0  0  0
   63.8843   31.7655   48.7920 H   0  0  0  0  0  0  0  0  0  0  0  0
   65.4049   32.7218   48.7920 H   0  0  0  0  0  0  0  0  0  0  0  0
   62.4026   32.8277   50.9254 H   0  0  0  0  0  0  0  0  0  0  0  0
   61.8283   34.2437   49.9674 H   0  0  0  0  0  0  0  0  0  0  0  0
   63.0800   34.6920   46.0760 H   0  0  0  0  0  0  0  0  0  0  0  0
   63.3930   33.9350   47.6670 H   0  0  0  0  0  0  0  0  0  0  0  0
   60.8380   34.6366   45.0748 H   0  0  0  0  0  0  0  0  0  0  0  0
   57.2449   34.1161   45.1858 H   0  0  0  0  0  0  0  0  0  0  0  0
   58.6453   34.7031   44.2098 H   0  0  0  0  0  0  0  0  0  0  0  0
   60.0066   31.0619   44.6233 H   0  0  0  0  0  0  0  0  0  0  0  0
   59.7179   28.6854   45.3048 H   0  0  0  0  0  0  0  0  0  0  0  0
   56.3308   26.9883   45.3851 H   0  0  0  0  0  0  0  0  0  0  0  0
   58.0219   26.6547   44.8563 H   0  0  0  0  0  0  0  0  0  0  0  0
   60.8887   25.8382   46.9648 H   0  0  0  0  0  0  0  0  0  0  0  0
   59.6086   25.5898   45.7294 H   0  0  0  0  0  0  0  0  0  0  0  0
   60.5750   27.1039   45.7294 H   0  0  0  0  0  0  0  0  0  0  0  0
   55.7188   31.4609   44.1791 H   0  0  0  0  0  0  0  0  0  0  0  0
   57.6600   32.4829   47.0536 H   0  0  0  0  0  0  0  0  0  0  0  0
   59.6423   29.7793   48.5263 H   0  0  0  0  0  0  0  0  0  0  0  0
   58.7083   28.5691   50.4927 H   0  0  0  0  0  0  0  0  0  0  0  0
   57.9620   28.6774   55.7667 H   0  0  0  0  0  0  0  0  0  0  0  0
   56.9004   27.9598   54.5078 H   0  0  0  0  0  0  0  0  0  0  0  0
   58.6610   27.6034   54.5078 H   0  0  0  0  0  0  0  0  0  0  0  0
   58.9650   30.6596   55.4259 H   0  0  0  0  0  0  0  0  0  0  0  0
   59.9863   30.5319   53.9537 H   0  0  0  0  0  0  0  0  0  0  0  0
   58.5397   31.5968   53.9537 H   0  0  0  0  0  0  0  0  0  0  0  0
   57.4017   32.3327   52.1901 H   0  0  0  0  0  0  0  0  0  0  0  0
   58.3425   33.5446   50.2272 H   0  0  0  0  0  0  0  0  0  0  0  0
  1  2  1  0
  2  3  1  0
  3  4  1  0
  4  5  1  0
  5  6  2  0
  6  7  1  0
  6  8  1  0
  8  9  2  0
  9 10  1  0
 10 11  1  0
 11 12  1  0
 12 13  2  0
 13 14  1  0
 14 15  2  0
 15 16  1  0
 16 17  1  0
 17 18  1  0
 18 19  1  0
 18 20  2  0
 15 21  1  0
 21 22  1  0
 21 23  2  0
  9 24  1  0
 24 25  2  0
 25 26  1  0
 26 27  2  0
 27 28  1  0
 28 29  2  0
 29 30  1  0
 30 31  2  0
 30 32  1  0
 32 33  1  0
 32 34  1  0
 29 35  1  0
 35 36  2  0
 25  5  1  0
 36 26  1  0
 23 12  1  0
  1 37  1  0
  1 38  1  0
  1 39  1  0
  3 40  1  0
  3 41  1  0
  7 42  1  0
  7 43  1  0
  8 44  1  0
 10 45  1  0
 10 46  1  0
 13 47  1  0
 14 48  1  0
 16 49  1  0
 16 50  1  0
 19 51  1  0
 19 52  1  0
 19 53  1  0
 23 54  1  0
 24 55  1  0
 27 56  1  0
 28 57  1  0
 33 58  1  0
 33 59  1  0
 33 60  1  0
 34 61  1  0
 34 62  1  0
 34 63  1  0
 35 64  1  0
 36 65  1  0
M  CHG  1  22  -1
M  END
>  <UniqueID>  (41) 
40

>  <SMILES>  (41) 
COCOc1c(N)cc(COc2ccc(COC(C)=O)c([O-])c2)cc1-c1ccc(C(=O)N(C)C)cc1

>  <Energy>  (41) 
78.72664450830194

>  <Genealogy>  (41) 
COCOc1c(N)cc(COc2ccc(COC(C)=O)c([O-])c2)cc1-c1ccc(C(=O)N(C)C)cc1 (protonated)
COCOc1c(N)cc(COc2ccc(COC(C)=O)c([O-])c2)cc1-c1ccc(C(=O)N(C)C)cc1 (3D coordinates assigned)
COCOc1c(N)cc(COc2ccc(COC(C)=O)c([O-])c2)cc1-c1ccc(C(=O)N(C)C)cc1 (optimized conformer: 78.72664450830194 kcal/mol)

>  <smiles>  (41) 
COCOc1c(N)cc(COc2ccc(COC(C)=O)c(O)c2)cc1-c1ccc(C(=O)N(C)C)cc1

>  <score_type>  (41) 
oracle

>  <origin>  (41) 
adg

>  <m_score__min__energy>  (41) 
-11.859999999999999

>  <m_primary>  (41) 
energy

$$$$
41:0
     RDKit          3D

 74 78  0  0  0  0  0  0  0  0999 V2000
   59.6750   28.3670   52.3740 C   0  0  0  0  0  0  0  0  0  0  0  0
   60.3530   29.4750   51.6160 C   0  0  0  0  0  0  0  0  0  0  0  0
   61.7060   29.4930   51.6530 N   0  0  0  0  0  0  0  0  0  0  0  0
   62.4700   30.4430   51.0570 C   0  0  0  0  0  0  0  0  0  0  0  0
   61.8480   31.5010   50.3650 C   0  0  0  0  0  0  0  0  0  0  0  0
   60.4220   31.5100   50.2740 C   0  0  0  0  0  0  0  0  0  0  0  0
   59.7170   32.6160   49.5790 C   0  0  0  0  0  0  0  0  0  0  0  0
   59.8690   33.7900   50.0120 O   0  0  0  0  0  0  0  0  0  0  0  0
   58.8800   32.3770   48.4270 N   0  0  0  0  0  0  0  0  0  0  0  0
   58.3710   33.5320   47.6700 C   0  0  0  0  0  0  0  0  0  0  0  0
   57.4360   33.1100   46.5290 C   0  0  0  0  0  0  0  0  0  0  0  0
   58.0060   31.9800   45.7810 N   0  0  0  0  0  0  0  0  0  0  0  0
   57.7970   31.8710   44.3570 C   0  0  0  0  0  0  0  0  0  0  0  0
   56.9870   30.8480   43.8300 C   0  0  0  0  0  0  0  0  0  0  0  0
   56.7820   30.7440   42.4510 C   0  0  0  0  0  0  0  0  0  0  0  0
   57.3790   31.6620   41.5830 C   0  0  0  0  0  0  0  0  0  0  0  0
   58.1820   32.6840   42.0940 C   0  0  0  0  0  0  0  0  0  0  0  0
   58.3920   32.7900   43.4720 C   0  0  0  0  0  0  0  0  0  0  0  0
   58.6470   30.8700   46.5050 C   0  0  0  0  0  0  0  0  0  0  0  0
   58.4870   31.0190   48.0190 C   0  0  0  0  0  0  0  0  0  0  0  0
   59.6600   30.4600   50.8670 C   0  0  0  0  0  0  0  0  0  0  0  0
   58.1320   30.4240   50.7450 C   0  0  0  0  0  0  0  0  0  0  0  0
   57.3800   30.9430   51.9870 C   0  0  0  0  0  0  0  0  0  0  0  0
   55.9600   30.4530   52.1320 C   0  0  0  0  0  0  0  0  0  0  0  0
   55.7220   29.2370   52.3560 O   0  0  0  0  0  0  0  0  0  0  0  0
   54.8500   31.3560   52.0360 N   0  0  0  0  0  0  0  0  0  0  0  0
   53.5940   31.0890   51.3380 C   0  0  0  0  0  0  0  0  0  0  0  0
   52.4120   31.3690   52.2320 C   0  0  0  0  0  0  0  0  0  0  0  0
   52.3530   30.8050   53.5180 C   0  0  0  0  0  0  0  0  0  0  0  0
   51.2570   31.0520   54.3480 C   0  0  0  0  0  0  0  0  0  0  0  0
   50.2150   31.8720   53.9090 C   0  0  0  0  0  0  0  0  0  0  0  0
   50.2700   32.4500   52.6390 C   0  0  0  0  0  0  0  0  0  0  0  0
   51.3630   32.2070   51.8000 C   0  0  0  0  0  0  0  0  0  0  0  0
   51.4020   32.8010   50.5430 O   0  0  0  0  0  0  0  0  0  0  0  0
   62.6890   32.4990   49.8140 C   0  0  0  0  0  0  0  0  0  0  0  0
   62.1940   33.5230   49.2670 O   0  0  0  0  0  0  0  0  0  0  0  0
   64.0510   32.3710   49.8780 N   0  0  0  0  0  0  0  0  0  0  0  0
   64.9130   33.4120   49.2830 C   0  0  0  0  0  0  0  0  0  0  0  0
   64.6180   31.3250   50.5570 C   0  0  0  0  0  0  0  0  0  0  0  0
   65.8770   31.2380   50.6300 O   0  0  0  0  0  0  0  0  0  0  0  0
   63.8340   30.3810   51.1650 N   0  0  0  0  0  0  0  0  0  0  0  0
   64.4570   29.2520   51.8820 C   0  0  0  0  0  0  0  0  0  0  0  0
   59.7825   28.5427   53.4545 H   0  0  0  0  0  0  0  0  0  0  0  0
   58.6072   28.3427   52.1109 H   0  0  0  0  0  0  0  0  0  0  0  0
   60.1394   27.4052   52.1109 H   0  0  0  0  0  0  0  0  0  0  0  0
   57.8178   34.1897   48.3566 H   0  0  0  0  0  0  0  0  0  0  0  0
   59.2330   34.0514   47.2259 H   0  0  0  0  0  0  0  0  0  0  0  0
   56.4647   32.8112   46.9499 H   0  0  0  0  0  0  0  0  0  0  0  0
   57.3093   33.9604   45.8428 H   0  0  0  0  0  0  0  0  0  0  0  0
   56.5114   30.1245   44.5085 H   0  0  0  0  0  0  0  0  0  0  0  0
   56.1500   29.9385   42.0488 H   0  0  0  0  0  0  0  0  0  0  0  0
   57.2166   31.5798   40.4982 H   0  0  0  0  0  0  0  0  0  0  0  0
   58.6504   33.4074   41.4104 H   0  0  0  0  0  0  0  0  0  0  0  0
   59.0264   33.5969   43.8675 H   0  0  0  0  0  0  0  0  0  0  0  0
   58.1850   29.9232   46.1886 H   0  0  0  0  0  0  0  0  0  0  0  0
   59.7215   30.8804   46.2697 H   0  0  0  0  0  0  0  0  0  0  0  0
   57.4367   30.8437   48.2949 H   0  0  0  0  0  0  0  0  0  0  0  0
   59.1294   30.2851   48.5276 H   0  0  0  0  0  0  0  0  0  0  0  0
   57.8413   31.0431   49.8835 H   0  0  0  0  0  0  0  0  0  0  0  0
   57.8519   29.3667   50.6283 H   0  0  0  0  0  0  0  0  0  0  0  0
   57.9408   30.6291   52.8797 H   0  0  0  0  0  0  0  0  0  0  0  0
   57.3148   32.0347   51.8692 H   0  0  0  0  0  0  0  0  0  0  0  0
   53.5328   31.7323   50.4478 H   0  0  0  0  0  0  0  0  0  0  0  0
   53.5717   30.0283   51.0475 H   0  0  0  0  0  0  0  0  0  0  0  0
   53.1746   30.1654   53.8729 H   0  0  0  0  0  0  0  0  0  0  0  0
   51.2144   30.5996   55.3498 H   0  0  0  0  0  0  0  0  0  0  0  0
   49.3515   32.0624   54.5633 H   0  0  0  0  0  0  0  0  0  0  0  0
   49.4505   33.0991   52.2968 H   0  0  0  0  0  0  0  0  0  0  0  0
   65.3935   33.9923   50.0845 H   0  0  0  0  0  0  0  0  0  0  0  0
   65.6856   32.9367   48.6607 H   0  0  0  0  0  0  0  0  0  0  0  0
   64.3020   34.0824   48.6607 H   0  0  0  0  0  0  0  0  0  0  0  0
   64.3683   29.4127   52.9666 H   0  0  0  0  0  0  0  0  0  0  0  0
   63.9472   28.3169   51.6070 H   0  0  0  0  0  0  0  0  0  0  0  0
   65.5199   29.1847   51.6070 H   0  0  0  0  0  0  0  0  0  0  0  0
  1  2  1  0
  2  3  2  0
  3  4  1  0
  4  5  2  0
  5  6  1  0
  6  7  1  0
  7  8  2  0
  7  9  1  0
  9 10  1  0
 10 11  1  0
 11 12  1  0
 12 13  1  0
 13 14  2  0
 14 15  1  0
 15 16  2  0
 16 17  1  0
 17 18  2  0
 12 19  1  0
 19 20  1  0
  6 21  2  0
 21 22  1  0
 22 23  1  0
 23 24  1  0
 24 25  2  0
 24 26  1  0
 26 27  1  0
 27 28  1  0
 28 29  2  0
 29 30  1  0
 30 31  2  0
 31 32  1  0
 32 33  2  0
 33 34  1  0
  5 35  1  0
 35 36  2  0
 35 37  1  0
 37 38  1  0
 37 39  1  0
 39 40  2  0
 39 41  1  0
 41 42  1  0
 21  2  1  0
 33 28  1  0
 41  4  1  0
 20  9  1  0
 18 13  1  0
  1 43  1  0
  1 44  1  0
  1 45  1  0
 10 46  1  0
 10 47  1  0
 11 48  1  0
 11 49  1  0
 14 50  1  0
 15 51  1  0
 16 52  1  0
 17 53  1  0
 18 54  1  0
 19 55  1  0
 19 56  1  0
 20 57  1  0
 20 58  1  0
 22 59  1  0
 22 60  1  0
 23 61  1  0
 23 62  1  0
 27 63  1  0
 27 64  1  0
 29 65  1  0
 30 66  1  0
 31 67  1  0
 32 68  1  0
 38 69  1  0
 38 70  1  0
 38 71  1  0
 42 72  1  0
 42 73  1  0
 42 74  1  0
M  CHG  2  26  -1  34  -1
M  END
>  <UniqueID>  (42) 
41

>  <SMILES>  (42) 
Cc1nc2c(c(C(=O)N3CCN(c4ccccc4)CC3)c1CCC(=O)[N-]Cc1ccccc1[O-])c(=O)n(C)c(=O)n2C

>  <Energy>  (42) 
108.52427249046066

>  <Genealogy>  (42) 
Cc1nc2c(c(C(=O)N3CCN(c4ccccc4)CC3)c1CCC(=O)[N-]Cc1ccccc1[O-])c(=O)n(C)c(=O)n2C (protonated)
Cc1nc2c(c(C(=O)N3CCN(c4ccccc4)CC3)c1CCC(=O)[N-]Cc1ccccc1[O-])c(=O)n(C)c(=O)n2C (3D coordinates assigned)
Cc1nc2c(c(C(=O)N3CCN(c4ccccc4)CC3)c1CCC(=O)[N-]Cc1ccccc1[O-])c(=O)n(C)c(=O)n2C (nonaromatic ring conformer: 108.52427249046066 kcal/mol)

>  <smiles>  (42) 
Cc1nc2c(c(C(=O)N3CCN(c4ccccc4)CC3)c1CCC(=O)NCc1ccccc1O)c(=O)n(C)c(=O)n2C

>  <score_type>  (42) 
oracle

>  <origin>  (42) 
adg

>  <m_score__min__energy>  (42) 
-14.73

>  <m_primary>  (42) 
energy

$$$$
42:0
     RDKit          3D

 55 59  0  0  0  0  0  0  0  0999 V2000
   55.2146   24.6240   44.9641 H   0  0  0  0  0  0  0  0  0  0  0  0
   55.4730   25.3210   45.7750 C   0  0  0  0  0  0  0  0  0  0  0  0
   54.8150   26.3350   45.9400 O   0  0  0  0  0  0  0  0  0  0  0  0
   56.6340   25.0240   46.6770 C   0  0  0  0  0  0  0  0  0  0  0  0
   56.3387   25.2146   47.7193 H   0  0  0  0  0  0  0  0  0  0  0  0
   56.9208   23.9701   46.5466 H   0  0  0  0  0  0  0  0  0  0  0  0
   56.3750   30.0410   44.8910 N   0  0  0  0  0  0  0  0  0  0  0  0
   57.0740   29.2810   45.6870 C   0  0  0  0  0  0  0  0  0  0  0  0
   57.8440   29.8700   46.6350 N   0  0  0  0  0  0  0  0  0  0  0  0
   58.5970   29.1260   47.4840 C   0  0  0  0  0  0  0  0  0  0  0  0
   59.3420   29.6800   48.3960 N   0  0  0  0  0  0  0  0  0  0  0  0
   60.0990   30.9400   48.3170 C   0  0  2  0  0  0  0  0  0  0  0  0
   59.1480   32.1620   48.1690 C   0  0  0  0  0  0  0  0  0  0  0  0
   58.5804   32.0717   47.2311 H   0  0  0  0  0  0  0  0  0  0  0  0
   58.4532   32.1872   49.0214 H   0  0  0  0  0  0  0  0  0  0  0  0
   59.9740   33.4670   48.1450 C   0  0  1  0  0  0  0  0  0  0  0  0
   59.2965   34.3259   48.0295 H   0  0  0  0  0  0  0  0  0  0  0  0
   60.7590   33.6050   49.4670 C   0  0  0  0  0  0  0  0  0  0  0  0
   61.3431   34.5370   49.4510 H   0  0  0  0  0  0  0  0  0  0  0  0
   60.0541   33.6283   50.3111 H   0  0  0  0  0  0  0  0  0  0  0  0
   61.7130   32.4030   49.6270 C   0  0  2  0  0  0  0  0  0  0  0  0
   62.2693   32.4996   50.5711 H   0  0  0  0  0  0  0  0  0  0  0  0
   62.7060   32.3720   48.4440 C   0  0  0  0  0  0  0  0  0  0  0  0
   63.2871   33.3059   48.4287 H   0  0  0  0  0  0  0  0  0  0  0  0
   63.3882   31.5170   48.5607 H   0  0  0  0  0  0  0  0  0  0  0  0
   61.9260   32.2300   47.1200 C   0  0  2  0  0  0  0  0  0  0  0  0
   62.6332   32.2100   46.2777 H   0  0  0  0  0  0  0  0  0  0  0  0
   60.9650   33.4300   46.9590 C   0  0  0  0  0  0  0  0  0  0  0  0
   61.5462   34.3637   46.9389 H   0  0  0  0  0  0  0  0  0  0  0  0
   60.4040   33.3237   46.0188 H   0  0  0  0  0  0  0  0  0  0  0  0
   61.1130   30.9170   47.1380 C   0  0  0  0  0  0  0  0  0  0  0  0
   60.5668   30.8129   46.1889 H   0  0  0  0  0  0  0  0  0  0  0  0
   61.7994   30.0671   47.2665 H   0  0  0  0  0  0  0  0  0  0  0  0
   60.8930   31.0960   49.6410 C   0  0  0  0  0  0  0  0  0  0  0  0
   61.5757   30.2413   49.7568 H   0  0  0  0  0  0  0  0  0  0  0  0
   60.1829   31.1298   50.4804 H   0  0  0  0  0  0  0  0  0  0  0  0
   58.5740   27.7750   47.3810 N   0  0  0  0  0  0  0  0  0  0  0  0
   57.8060   27.1640   46.4400 C   0  0  0  0  0  0  0  0  0  0  0  0
   57.7820   25.8670   46.3420 N   0  0  0  0  0  0  0  0  0  0  0  0
   56.8820   30.8780   43.8040 C   0  0  0  0  0  0  0  0  0  0  0  0
   57.6733   30.3328   43.2686 H   0  0  0  0  0  0  0  0  0  0  0  0
   56.0499   31.1132   43.1241 H   0  0  0  0  0  0  0  0  0  0  0  0
   57.4470   32.1690   44.3380 C   0  0  0  0  0  0  0  0  0  0  0  0
   56.9300   32.7430   45.5130 C   0  0  0  0  0  0  0  0  0  0  0  0
   56.1017   32.2519   46.0447 H   0  0  0  0  0  0  0  0  0  0  0  0
   57.4660   33.9370   46.0080 C   0  0  0  0  0  0  0  0  0  0  0  0
   57.0547   34.3852   46.9245 H   0  0  0  0  0  0  0  0  0  0  0  0
   58.5230   34.5610   45.3400 C   0  0  0  0  0  0  0  0  0  0  0  0
   58.9401   35.5019   45.7284 H   0  0  0  0  0  0  0  0  0  0  0  0
   59.0500   33.9900   44.1790 C   0  0  0  0  0  0  0  0  0  0  0  0
   59.8846   34.4798   43.6560 H   0  0  0  0  0  0  0  0  0  0  0  0
   58.5180   32.7970   43.6810 C   0  0  0  0  0  0  0  0  0  0  0  0
   58.9402   32.3478   42.7700 H   0  0  0  0  0  0  0  0  0  0  0  0
   57.0540   27.9180   45.5920 N   0  0  0  0  0  0  0  0  0  0  0  0
   56.4660   27.4290   44.8830 H   0  0  0  0  0  0  0  0  0  0  0  0
  1  2  1  0
  2  3  2  0
  2  4  1  0
  4  5  1  0
  4  6  1  0
  4  7  1  0
  7  8  2  0
  8  9  1  0
  9 10  1  0
 10 11  2  3
 11 12  1  0
 12 13  1  0
 13 14  1  0
 13 15  1  0
 13 16  1  0
 16 17  1  6
 16 18  1  0
 18 19  1  0
 18 20  1  0
 18 21  1  0
 21 22  1  1
 21 23  1  0
 23 24  1  0
 23 25  1  0
 23 26  1  0
 26 27  1  6
 26 28  1  0
 28 29  1  0
 28 30  1  0
 26 31  1  0
 31 32  1  0
 31 33  1  0
 21 34  1  0
 34 35  1  0
 34 36  1  0
 10 37  1  0
 37 38  1  0
 38 39  2  0
 39 40  1  0
 40 41  1  0
 40 42  1  0
 40 43  1  0
 43 44  2  0
 44 45  1  0
 44 46  1  0
 46 47  1  0
 46 48  2  0
 48 49  1  0
 48 50  1  0
 50 51  1  0
 50 52  2  0
 52 53  1  0
 38 54  1  0
 54 55  1  0
 54  8  1  0
 12 31  1  6
 52 43  1  0
 34 12  1  0
 28 16  1  0
M  CHG  2   9  -1  37  -1
M  END
>  <UniqueID>  (43) 
42

>  <SMILES>  (43) 
O=CC/N=c1\[n-]c(=NC23CC4CC(CC(C4)C2)C3)[n-]/c(=N/Cc2ccccc2)[nH]1

>  <Energy>  (43) 
58.16925680418255

>  <Genealogy>  (43) 
O=CCN=c1[n-]c(=NC23CC4CC(CC(C4)C2)C3)[n-]c(=NCc2ccccc2)[nH]1 (protonated)
O=CC/N=c1\[n-]c(=NC23CC4CC(CC(C4)C2)C3)[n-]/c(=N/Cc2ccccc2)[nH]1 (cis-trans isomerization)
O=CC/N=c1\[n-]c(=NC23CC4CC(CC(C4)C2)C3)[n-]/c(=N/Cc2ccccc2)[nH]1 (3D coordinates assigned)
O=CC/N=c1\[n-]c(=NC23CC4CC(CC(C4)C2)C3)[n-]/c(=N/Cc2ccccc2)[nH]1 (nonaromatic ring conformer: 58.16925680418255 kcal/mol)

>  <smiles>  (43) 
O=CCN=c1[nH]c(=NCc2ccccc2)[nH]c(=NC23CC4CC(CC(C4)C2)C3)[nH]1

>  <score_type>  (43) 
oracle

>  <origin>  (43) 
adg

>  <m_score__min__energy>  (43) 
-12.15

>  <m_primary>  (43) 
energy

$$$$
43:0
     RDKit          3D

 52 54  0  0  0  0  0  0  0  0999 V2000
   64.6970   32.3900   47.1100 H   0  0  0  0  0  0  0  0  0  0  0  0
   64.0040   32.9120   46.5860 O   0  0  0  0  0  0  0  0  0  0  0  0
   62.7790   33.2690   47.1480 C   0  0  0  0  0  0  0  0  0  0  0  0
   62.5240   33.0230   48.5040 C   0  0  0  0  0  0  0  0  0  0  0  0
   63.5490   32.3650   49.3730 C   0  0  0  0  0  0  0  0  0  0  0  0
   63.2933   32.5291   50.4302 H   0  0  0  0  0  0  0  0  0  0  0  0
   63.5684   31.2852   49.1638 H   0  0  0  0  0  0  0  0  0  0  0  0
   64.5388   32.7969   49.1638 H   0  0  0  0  0  0  0  0  0  0  0  0
   61.3240   33.3750   49.0350 N   0  0  0  0  0  0  0  0  0  0  0  0
   60.3470   33.9690   48.3010 C   0  0  0  0  0  0  0  0  0  0  0  0
   59.2690   34.2860   48.8690 O   0  0  0  0  0  0  0  0  0  0  0  0
   60.5530   34.2360   46.9280 C   0  0  0  0  0  0  0  0  0  0  0  0
   59.5160   34.8890   46.0860 C   0  0  0  0  0  0  0  0  0  0  0  0
   59.6750   36.0790   45.7010 O   0  0  0  0  0  0  0  0  0  0  0  0
   58.2980   34.1880   45.7790 N   0  0  0  0  0  0  0  0  0  0  0  0
   58.1440   33.0620   45.1410 C   0  0  0  0  0  0  0  0  0  0  0  0
   57.9000   33.1100   43.8020 N   0  0  0  0  0  0  0  0  0  0  0  0
   57.7020   31.9930   43.0560 C   0  0  0  0  0  0  0  0  0  0  0  0
   57.5114   32.0803   41.9762 H   0  0  0  0  0  0  0  0  0  0  0  0
   57.7400   30.7350   43.6570 C   0  0  0  0  0  0  0  0  0  0  0  0
   57.5746   29.8281   43.0569 H   0  0  0  0  0  0  0  0  0  0  0  0
   57.9900   30.6370   45.0280 C   0  0  0  0  0  0  0  0  0  0  0  0
   58.0030   29.3160   45.6820 C   0  0  0  0  0  0  0  0  0  0  0  0
   56.9720   28.4520   45.5840 N   0  0  0  0  0  0  0  0  0  0  0  0
   57.3730   27.3750   46.2890 C   0  0  0  0  0  0  0  0  0  0  0  0
   56.7813   26.4601   46.4404 H   0  0  0  0  0  0  0  0  0  0  0  0
   58.6350   27.5950   46.7900 C   0  0  0  0  0  0  0  0  0  0  0  0
   59.2185   26.8885   47.3986 H   0  0  0  0  0  0  0  0  0  0  0  0
   59.0330   28.8200   46.4090 N   0  0  0  0  0  0  0  0  0  0  0  0
   60.3850   29.3650   46.5690 C   0  0  0  0  0  0  0  0  0  0  0  0
   61.0501   28.5704   46.9380 H   0  0  0  0  0  0  0  0  0  0  0  0
   60.7270   29.7368   45.5918 H   0  0  0  0  0  0  0  0  0  0  0  0
   60.4020   30.5330   47.5640 C   0  0  0  0  0  0  0  0  0  0  0  0
   61.4473   30.7707   47.8106 H   0  0  0  0  0  0  0  0  0  0  0  0
   59.8942   31.3844   47.0874 H   0  0  0  0  0  0  0  0  0  0  0  0
   59.6520   30.2120   48.8620 C   0  0  0  0  0  0  0  0  0  0  0  0
   58.9670   29.3687   48.6902 H   0  0  0  0  0  0  0  0  0  0  0  0
   60.3758   29.9442   49.6458 H   0  0  0  0  0  0  0  0  0  0  0  0
   58.8830   31.3870   49.2890 N   0  0  0  0  0  0  0  0  0  0  0  0
   59.5460   32.1920   49.3590 H   0  0  0  0  0  0  0  0  0  0  0  0
   58.2690   31.1890   50.6110 C   0  0  0  0  0  0  0  0  0  0  0  0
   57.2203   30.8837   50.4808 H   0  0  0  0  0  0  0  0  0  0  0  0
   58.8276   30.4089   51.1489 H   0  0  0  0  0  0  0  0  0  0  0  0
   58.3190   32.4840   51.4260 C   0  0  0  0  0  0  0  0  0  0  0  0
   57.5579   33.1794   51.0424 H   0  0  0  0  0  0  0  0  0  0  0  0
   58.1241   32.2404   52.4808 H   0  0  0  0  0  0  0  0  0  0  0  0
   59.5800   33.0900   51.3350 O   0  0  0  0  0  0  0  0  0  0  0  0
   59.9040   32.9390   50.4080 H   0  0  0  0  0  0  0  0  0  0  0  0
   58.1720   31.8040   45.7820 C   0  0  0  0  0  0  0  0  0  0  0  0
   58.3359   31.7405   46.8679 H   0  0  0  0  0  0  0  0  0  0  0  0
   61.7910   33.8770   46.3660 C   0  0  0  0  0  0  0  0  0  0  0  0
   61.9844   34.0761   45.3016 H   0  0  0  0  0  0  0  0  0  0  0  0
  1  2  1  0
  2  3  1  0
  3  4  2  0
  4  5  1  0
  5  6  1  0
  5  7  1  0
  5  8  1  0
  4  9  1  0
  9 10  1  0
 10 11  2  0
 10 12  1  0
 12 13  1  0
 13 14  2  0
 13 15  1  0
 15 16  2  0
 16 17  1  0
 17 18  1  0
 18 19  1  0
 18 20  2  0
 20 21  1  0
 20 22  1  0
 22 23  1  0
 23 24  2  0
 24 25  1  0
 25 26  1  0
 25 27  2  0
 27 28  1  0
 27 29  1  0
 29 30  1  0
 30 31  1  0
 30 32  1  0
 30 33  1  0
 33 34  1  0
 33 35  1  0
 33 36  1  0
 36 37  1  0
 36 38  1  0
 36 39  1  0
 39 40  1  0
 39 41  1  0
 41 42  1  0
 41 43  1  0
 41 44  1  0
 44 45  1  0
 44 46  1  0
 44 47  1  0
 47 48  1  0
 22 49  2  0
 49 50  1  0
 12 51  2  0
 51 52  1  0
 51  3  1  0
 49 16  1  0
 29 23  1  0
M  CHG  2   9  -1  17  -1
M  END
>  <UniqueID>  (44) 
43

>  <SMILES>  (44) 
Cc1[n-]c(=O)c(C(=O)/N=c2\cc(-c3nccn3CCCNCCO)cc[n-]2)cc1O

>  <Energy>  (44) 
92.10134191501949

>  <Genealogy>  (44) 
Cc1[n-]c(=O)c(C(=O)N=c2cc(-c3nccn3CCCNCCO)cc[n-]2)cc1O (protonated)
Cc1[n-]c(=O)c(C(=O)/N=c2\cc(-c3nccn3CCCNCCO)cc[n-]2)cc1O (cis-trans isomerization)
Cc1[n-]c(=O)c(C(=O)/N=c2\cc(-c3nccn3CCCNCCO)cc[n-]2)cc1O (3D coordinates assigned)
Cc1[n-]c(=O)c(C(=O)/N=c2\cc(-c3nccn3CCCNCCO)cc[n-]2)cc1O (optimized conformer: 92.10134191501949 kcal/mol)

>  <smiles>  (44) 
Cc1[nH]c(=O)c(C(=O)N=c2cc(-c3nccn3CCCNCCO)cc[nH]2)cc1O

>  <score_type>  (44) 
oracle

>  <origin>  (44) 
adg

>  <m_score__min__energy>  (44) 
-11.300000000000001

>  <m_primary>  (44) 
energy

$$$$
44:0
     RDKit          3D

 33 35  0  0  0  0  0  0  0  0999 V2000
   59.6510   30.0820   45.8660 C   0  0  0  0  0  0  0  0  0  0  0  0
   58.3440   30.4840   45.3490 N   0  0  0  0  0  0  0  0  0  0  0  0
   57.3870   29.6940   44.8230 C   0  0  0  0  0  0  0  0  0  0  0  0
   57.5580   27.9310   44.5190 S   0  0  0  0  0  0  0  0  0  0  0  0
   57.3510   27.4550   46.2710 C   0  0  0  0  0  0  0  0  0  0  0  0
   56.6090   26.1580   46.3980 C   0  0  0  0  0  0  0  0  0  0  0  0
   57.2230   25.0350   46.9640 C   0  0  0  0  0  0  0  0  0  0  0  0
   56.5000   23.8420   47.0260 C   0  0  0  0  0  0  0  0  0  0  0  0
   57.0190   22.8130   47.5300 O   0  0  0  0  0  0  0  0  0  0  0  0
   55.2330   23.7910   46.5380 N   0  0  0  0  0  0  0  0  0  0  0  0
   54.6540   24.8880   45.9850 C   0  0  0  0  0  0  0  0  0  0  0  0
   53.4830   24.8200   45.5320 O   0  0  0  0  0  0  0  0  0  0  0  0
   55.3410   26.0580   45.9170 N   0  0  0  0  0  0  0  0  0  0  0  0
   56.2750   30.3910   44.5260 N   0  0  0  0  0  0  0  0  0  0  0  0
   56.5170   31.6530   44.8470 N   0  0  0  0  0  0  0  0  0  0  0  0
   57.7740   31.7090   45.3300 C   0  0  0  0  0  0  0  0  0  0  0  0
   58.4110   32.9680   45.7700 C   0  0  0  0  0  0  0  0  0  0  0  0
   58.6360   33.9960   44.8380 C   0  0  0  0  0  0  0  0  0  0  0  0
   59.2570   35.1850   45.2350 C   0  0  0  0  0  0  0  0  0  0  0  0
   59.6710   35.3510   46.5600 C   0  0  0  0  0  0  0  0  0  0  0  0
   59.4730   34.3250   47.4890 C   0  0  0  0  0  0  0  0  0  0  0  0
   60.0170   34.5230   49.1430 Cl  0  0  0  0  0  0  0  0  0  0  0  0
   58.8510   33.1340   47.0940 C   0  0  0  0  0  0  0  0  0  0  0  0
   59.6283   30.0890   46.9657 H   0  0  0  0  0  0  0  0  0  0  0  0
   59.8901   29.0688   45.5106 H   0  0  0  0  0  0  0  0  0  0  0  0
   60.4181   30.7857   45.5106 H   0  0  0  0  0  0  0  0  0  0  0  0
   58.3435   27.3470   46.7329 H   0  0  0  0  0  0  0  0  0  0  0  0
   56.7697   28.2392   46.7780 H   0  0  0  0  0  0  0  0  0  0  0  0
   58.2512   25.0908   47.3510 H   0  0  0  0  0  0  0  0  0  0  0  0
   58.3224   33.8649   43.7918 H   0  0  0  0  0  0  0  0  0  0  0  0
   59.4198   35.9904   44.5037 H   0  0  0  0  0  0  0  0  0  0  0  0
   60.1528   36.2894   46.8718 H   0  0  0  0  0  0  0  0  0  0  0  0
   58.7062   32.3242   47.8242 H   0  0  0  0  0  0  0  0  0  0  0  0
  1  2  1  0
  2  3  1  0
  3  4  1  0
  4  5  1  0
  5  6  1  0
  6  7  2  0
  7  8  1  0
  8  9  2  0
  8 10  1  0
 10 11  1  0
 11 12  2  0
 11 13  1  0
  3 14  2  0
 14 15  1  0
 15 16  2  0
 16 17  1  0
 17 18  2  0
 18 19  1  0
 19 20  2  0
 20 21  1  0
 21 22  1  0
 21 23  2  0
 16  2  1  0
 23 17  1  0
 13  6  1  0
  1 24  1  0
  1 25  1  0
  1 26  1  0
  5 27  1  0
  5 28  1  0
  7 29  1  0
 18 30  1  0
 19 31  1  0
 20 32  1  0
 23 33  1  0
M  CHG  2  10  -1  13  -1
M  END
>  <UniqueID>  (45) 
44

>  <SMILES>  (45) 
Cn1c(SCc2cc(=O)[n-]c(=O)[n-]2)nnc1-c1cccc(Cl)c1

>  <Energy>  (45) 
69.36702857412607

>  <Genealogy>  (45) 
Cn1c(SCc2cc(=O)[n-]c(=O)[n-]2)nnc1-c1cccc(Cl)c1 (protonated)
Cn1c(SCc2cc(=O)[n-]c(=O)[n-]2)nnc1-c1cccc(Cl)c1 (3D coordinates assigned)
Cn1c(SCc2cc(=O)[n-]c(=O)[n-]2)nnc1-c1cccc(Cl)c1 (optimized conformer: 69.36702857412607 kcal/mol)

>  <smiles>  (45) 
Cn1c(SCc2cc(=O)[nH]c(=O)[nH]2)nnc1-c1cccc(Cl)c1

>  <score_type>  (45) 
oracle

>  <origin>  (45) 
adg

>  <m_score__min__energy>  (45) 
-12.869999999999999

>  <m_primary>  (45) 
energy

$$$$
45:0
     RDKit          3D

 40 42  0  0  0  0  0  0  0  0999 V2000
   64.1420   33.1360   47.7010 N   0  0  0  0  0  0  0  0  0  0  0  0
   62.8960   33.4780   47.7200 C   0  0  0  0  0  0  0  0  0  0  0  0
   62.2180   33.8690   46.6210 N   0  0  0  0  0  0  0  0  0  0  0  0
   60.9250   34.1690   46.9210 C   0  0  0  0  0  0  0  0  0  0  0  0
   59.9730   34.6880   45.8890 C   0  0  0  0  0  0  0  0  0  0  0  0
   58.6110   34.6450   46.4050 N   0  0  0  0  0  0  0  0  0  0  0  0
   57.6450   33.6730   45.9920 C   0  0  0  0  0  0  0  0  0  0  0  0
   56.6040   33.4760   46.6730 O   0  0  0  0  0  0  0  0  0  0  0  0
   57.9110   32.8370   44.7820 C   0  0  0  0  0  0  0  0  0  0  0  0
   58.3780   31.4720   45.2090 C   0  0  0  0  0  0  0  0  0  0  0  0
   59.2040   31.3300   46.3350 C   0  0  0  0  0  0  0  0  0  0  0  0
   59.6910   30.0720   46.6980 C   0  0  0  0  0  0  0  0  0  0  0  0
   59.3740   28.9400   45.9270 C   0  0  0  0  0  0  0  0  0  0  0  0
   59.8570   27.6340   46.2740 N   0  0  0  0  0  0  0  0  0  0  0  0
   59.1520   26.6630   47.0600 C   0  0  0  0  0  0  0  0  0  0  0  0
   59.5020   26.4820   48.2560 O   0  0  0  0  0  0  0  0  0  0  0  0
   58.0060   25.8950   46.5150 C   0  0  0  0  0  0  0  0  0  0  0  0
   56.7350   26.4860   46.4680 C   0  0  0  0  0  0  0  0  0  0  0  0
   55.6440   25.7650   45.9780 C   0  0  0  0  0  0  0  0  0  0  0  0
   54.3790   26.3400   45.9500 O   0  0  0  0  0  0  0  0  0  0  0  0
   55.8350   24.4610   45.5210 C   0  0  0  0  0  0  0  0  0  0  0  0
   57.0740   23.9070   45.5460 N   0  0  0  0  0  0  0  0  0  0  0  0
   58.1560   24.5820   46.0210 C   0  0  0  0  0  0  0  0  0  0  0  0
   59.2860   24.0280   45.9910 O   0  0  0  0  0  0  0  0  0  0  0  0
   58.5360   29.0790   44.8140 C   0  0  0  0  0  0  0  0  0  0  0  0
   58.0520   30.3390   44.4470 C   0  0  0  0  0  0  0  0  0  0  0  0
   60.5830   34.0330   48.2670 C   0  0  0  0  0  0  0  0  0  0  0  0
   61.9430   33.4950   49.1000 S   0  0  0  0  0  0  0  0  0  0  0  0
   64.5430   32.6020   46.8980 H   0  0  0  0  0  0  0  0  0  0  0  0
   60.2360   35.7266   45.6396 H   0  0  0  0  0  0  0  0  0  0  0  0
   60.0389   34.0612   44.9875 H   0  0  0  0  0  0  0  0  0  0  0  0
   56.9874   32.7408   44.1924 H   0  0  0  0  0  0  0  0  0  0  0  0
   58.6888   33.3158   44.1690 H   0  0  0  0  0  0  0  0  0  0  0  0
   59.4691   32.2135   46.9344 H   0  0  0  0  0  0  0  0  0  0  0  0
   60.3251   29.9667   47.5907 H   0  0  0  0  0  0  0  0  0  0  0  0
   56.5972   27.5197   46.8179 H   0  0  0  0  0  0  0  0  0  0  0  0
   54.9812   23.8813   45.1402 H   0  0  0  0  0  0  0  0  0  0  0  0
   58.2568   28.1928   44.2252 H   0  0  0  0  0  0  0  0  0  0  0  0
   57.4132   30.4425   43.5575 H   0  0  0  0  0  0  0  0  0  0  0  0
   59.5965   34.2411   48.7070 H   0  0  0  0  0  0  0  0  0  0  0  0
  1  2  2  3
  2  3  1  0
  3  4  1  0
  4  5  1  0
  5  6  1  0
  6  7  1  0
  7  8  2  0
  7  9  1  0
  9 10  1  0
 10 11  2  0
 11 12  1  0
 12 13  2  0
 13 14  1  0
 14 15  1  0
 15 16  2  0
 15 17  1  0
 17 18  2  0
 18 19  1  0
 19 20  1  0
 19 21  2  0
 21 22  1  0
 22 23  1  0
 23 24  2  0
 13 25  1  0
 25 26  2  0
  4 27  2  0
 27 28  1  0
 28  2  1  0
 26 10  1  0
 23 17  1  0
  1 29  1  0
  5 30  1  0
  5 31  1  0
  9 32  1  0
  9 33  1  0
 11 34  1  0
 12 35  1  0
 18 36  1  0
 21 37  1  0
 25 38  1  0
 26 39  1  0
 27 40  1  0
M  CHG  5   3  -1   6  -1  14  -1  20  -1  22  -1
M  END
>  <UniqueID>  (46) 
45

>  <SMILES>  (46) 
N=c1[n-]c(C[N-]C(=O)Cc2ccc([N-]C(=O)c3cc([O-])c[n-]c3=O)cc2)cs1

>  <Energy>  (46) 
74.6038259623134

>  <Genealogy>  (46) 
N=c1[n-]c(C[N-]C(=O)Cc2ccc([N-]C(=O)c3cc([O-])c[n-]c3=O)cc2)cs1 (protonated)
N=c1[n-]c(C[N-]C(=O)Cc2ccc([N-]C(=O)c3cc([O-])c[n-]c3=O)cc2)cs1 (3D coordinates assigned)
N=c1[n-]c(C[N-]C(=O)Cc2ccc([N-]C(=O)c3cc([O-])c[n-]c3=O)cc2)cs1 (optimized conformer: 74.6038259623134 kcal/mol)

>  <smiles>  (46) 
N=c1[nH]c(CNC(=O)Cc2ccc(NC(=O)c3cc(O)c[nH]c3=O)cc2)cs1

>  <score_type>  (46) 
oracle

>  <origin>  (46) 
adg

>  <m_score__min__energy>  (46) 
-17.489999999999998

>  <m_primary>  (46) 
energy

$$$$
46:0
     RDKit          3D

 47 49  0  0  0  0  0  0  0  0999 V2000
   65.1790   33.3820   50.3640 C   0  0  0  0  0  0  0  0  0  0  0  0
   64.5410   31.7180   49.9970 S   0  0  0  0  0  0  0  0  0  0  0  0
   63.3920   32.3020   48.7490 C   0  0  0  0  0  0  0  0  0  0  0  0
   63.7470   33.3680   47.9140 C   0  0  0  0  0  0  0  0  0  0  0  0
   62.8490   33.8270   46.9450 C   0  0  0  0  0  0  0  0  0  0  0  0
   61.5900   33.2220   46.8020 C   0  0  0  0  0  0  0  0  0  0  0  0
   60.6150   33.7360   45.7670 C   0  0  0  0  0  0  0  0  0  0  0  0
   59.4930   34.4790   46.3860 N   0  0  2  0  0  0  0  0  0  0  0  0
   59.8500   34.9870   47.7230 C   0  0  0  0  0  0  0  0  0  0  0  0
   58.3280   33.6220   46.4980 C   0  0  0  0  0  0  0  0  0  0  0  0
   57.4990   33.8150   47.4320 O   0  0  0  0  0  0  0  0  0  0  0  0
   58.0620   32.5310   45.5230 C   0  0  0  0  0  0  0  0  0  0  0  0
   57.7230   32.8080   44.1850 C   0  0  0  0  0  0  0  0  0  0  0  0
   57.4690   31.7660   43.2910 C   0  0  0  0  0  0  0  0  0  0  0  0
   57.5430   30.4380   43.7160 C   0  0  0  0  0  0  0  0  0  0  0  0
   57.8700   30.1400   45.0480 C   0  0  0  0  0  0  0  0  0  0  0  0
   57.9450   28.7710   45.4870 N   0  0  0  0  0  0  0  0  0  0  0  0
   56.8720   27.9310   45.5710 C   0  0  0  0  0  0  0  0  0  0  0  0
   55.5790   28.3310   45.2480 O   0  0  0  0  0  0  0  0  0  0  0  0
   57.1670   26.6470   46.0230 C   0  0  0  0  0  0  0  0  0  0  0  0
   56.2010   25.5160   46.1550 C   0  0  0  0  0  0  0  0  0  0  0  0
   58.8250   26.5470   46.3050 S   0  0  0  0  0  0  0  0  0  0  0  0
   59.0910   28.1470   45.8620 C   0  0  0  0  0  0  0  0  0  0  0  0
   60.2250   28.6950   45.8530 O   0  0  0  0  0  0  0  0  0  0  0  0
   58.1230   31.1900   45.9450 C   0  0  0  0  0  0  0  0  0  0  0  0
   61.2380   32.1590   47.6490 C   0  0  0  0  0  0  0  0  0  0  0  0
   62.1350   31.7010   48.6180 C   0  0  0  0  0  0  0  0  0  0  0  0
   65.2327   33.5220   51.4537 H   0  0  0  0  0  0  0  0  0  0  0  0
   66.1836   33.4935   49.9301 H   0  0  0  0  0  0  0  0  0  0  0  0
   64.5064   34.1365   49.9301 H   0  0  0  0  0  0  0  0  0  0  0  0
   64.7326   33.8448   48.0200 H   0  0  0  0  0  0  0  0  0  0  0  0
   63.1304   34.6661   46.2917 H   0  0  0  0  0  0  0  0  0  0  0  0
   61.1487   34.4071   45.0780 H   0  0  0  0  0  0  0  0  0  0  0  0
   60.1969   32.8701   45.2328 H   0  0  0  0  0  0  0  0  0  0  0  0
   59.2680   35.2930   45.7670 H   0  0  0  0  0  0  0  0  0  0  0  0
   59.3980   34.3438   48.4924 H   0  0  0  0  0  0  0  0  0  0  0  0
   60.9440   34.9817   47.8371 H   0  0  0  0  0  0  0  0  0  0  0  0
   59.4744   36.0146   47.8371 H   0  0  0  0  0  0  0  0  0  0  0  0
   57.6579   33.8511   43.8420 H   0  0  0  0  0  0  0  0  0  0  0  0
   57.2092   31.9925   42.2464 H   0  0  0  0  0  0  0  0  0  0  0  0
   57.3444   29.6228   43.0047 H   0  0  0  0  0  0  0  0  0  0  0  0
   56.0233   25.3080   47.2204 H   0  0  0  0  0  0  0  0  0  0  0  0
   55.2511   25.7867   45.6709 H   0  0  0  0  0  0  0  0  0  0  0  0
   56.6170   24.6201   45.6709 H   0  0  0  0  0  0  0  0  0  0  0  0
   58.3723   30.9613   46.9917 H   0  0  0  0  0  0  0  0  0  0  0  0
   60.2508   31.6841   47.5494 H   0  0  0  0  0  0  0  0  0  0  0  0
   61.8528   30.8676   49.2781 H   0  0  0  0  0  0  0  0  0  0  0  0
  1  2  1  0
  2  3  1  0
  3  4  2  0
  4  5  1  0
  5  6  2  0
  6  7  1  0
  7  8  1  0
  8  9  1  0
  8 10  1  0
 10 11  2  0
 10 12  1  0
 12 13  2  0
 13 14  1  0
 14 15  2  0
 15 16  1  0
 16 17  1  0
 17 18  1  0
 18 19  1  0
 18 20  2  0
 20 21  1  0
 20 22  1  0
 22 23  1  0
 23 24  2  0
 16 25  2  0
  6 26  1  0
 26 27  2  0
 27  3  1  0
 25 12  1  0
 23 17  1  0
  1 28  1  0
  1 29  1  0
  1 30  1  0
  4 31  1  0
  5 32  1  0
  7 33  1  0
  7 34  1  0
  8 35  1  6
  9 36  1  0
  9 37  1  0
  9 38  1  0
 13 39  1  0
 14 40  1  0
 15 41  1  0
 21 42  1  0
 21 43  1  0
 21 44  1  0
 25 45  1  0
 26 46  1  0
 27 47  1  0
M  CHG  2   8   1  19  -1
M  END
>  <UniqueID>  (47) 
46

>  <SMILES>  (47) 
CSc1ccc(C[N@H+](C)C(=O)c2cccc(-n3c([O-])c(C)sc3=O)c2)cc1

>  <Energy>  (47) 
86.64585289809794

>  <Genealogy>  (47) 
CSc1ccc(C[NH+](C)C(=O)c2cccc(-n3c([O-])c(C)sc3=O)c2)cc1 (protonated)
CSc1ccc(C[N@H+](C)C(=O)c2cccc(-n3c([O-])c(C)sc3=O)c2)cc1 (chirality)
CSc1ccc(C[N@H+](C)C(=O)c2cccc(-n3c([O-])c(C)sc3=O)c2)cc1 (3D coordinates assigned)
CSc1ccc(C[N@H+](C)C(=O)c2cccc(-n3c([O-])c(C)sc3=O)c2)cc1 (optimized conformer: 86.64585289809794 kcal/mol)

>  <smiles>  (47) 
CSc1ccc(CN(C)C(=O)c2cccc(-n3c(O)c(C)sc3=O)c2)cc1

>  <score_type>  (47) 
oracle

>  <origin>  (47) 
adg

>  <m_score__min__energy>  (47) 
-11.789999999999999

>  <m_primary>  (47) 
energy

$$$$
47:0
     RDKit          3D

 53 57  0  0  0  0  0  0  0  0999 V2000
   56.5034   29.4576   44.7574 H   0  0  0  0  0  0  0  0  0  0  0  0
   57.0740   30.3940   44.6710 C   0  0  0  0  0  0  0  0  0  0  0  0
   57.7740   30.8640   45.7380 N   0  0  0  0  0  0  0  0  0  0  0  0
   58.4830   32.0270   45.6800 C   0  0  0  0  0  0  0  0  0  0  0  0
   59.1500   32.4590   46.7070 N   0  0  0  0  0  0  0  0  0  0  0  0
   60.3570   31.8800   47.2240 C   0  0  0  0  0  0  0  0  0  0  0  0
   60.5200   30.6620   47.8970 C   0  0  0  0  0  0  0  0  0  0  0  0
   59.4670   29.6290   48.1890 C   0  0  0  0  0  0  0  0  0  0  0  0
   58.5332   30.1381   48.4696 H   0  0  0  0  0  0  0  0  0  0  0  0
   59.8236   28.9912   49.0112 H   0  0  0  0  0  0  0  0  0  0  0  0
   59.2170   28.7830   47.0220 N   0  0  0  0  0  0  0  0  0  0  0  0
   58.6700   29.2180   46.2500 H   0  0  0  0  0  0  0  0  0  0  0  0
   59.7160   27.4340   46.8800 C   0  0  0  0  0  0  0  0  0  0  0  0
   60.6660   26.7820   48.0600 S   0  0  0  0  0  0  0  0  0  0  0  0
   59.5090   26.6750   45.6570 N   0  0  1  0  0  0  0  0  0  0  0  0
   60.4130   26.7130   45.1260 H   0  0  0  0  0  0  0  0  0  0  0  0
   59.2500   25.2300   45.8810 C   0  0  0  0  0  0  0  0  0  0  0  0
   59.6450   24.6725   45.0189 H   0  0  0  0  0  0  0  0  0  0  0  0
   59.7452   24.9665   46.8272 H   0  0  0  0  0  0  0  0  0  0  0  0
   57.7870   24.8720   46.0460 C   0  0  0  0  0  0  0  0  0  0  0  0
   57.4550   23.5680   46.4430 C   0  0  0  0  0  0  0  0  0  0  0  0
   58.2530   22.8331   46.6249 H   0  0  0  0  0  0  0  0  0  0  0  0
   56.1200   23.1960   46.6090 C   0  0  0  0  0  0  0  0  0  0  0  0
   55.8701   22.1728   46.9263 H   0  0  0  0  0  0  0  0  0  0  0  0
   55.1030   24.1200   46.3730 C   0  0  0  0  0  0  0  0  0  0  0  0
   54.0525   23.8274   46.5173 H   0  0  0  0  0  0  0  0  0  0  0  0
   55.4130   25.4160   45.9540 C   0  0  0  0  0  0  0  0  0  0  0  0
   54.3820   26.3230   45.7330 O   0  0  0  0  0  0  0  0  0  0  0  0
   56.7570   25.7970   45.7640 C   0  0  0  0  0  0  0  0  0  0  0  0
   57.0860   27.2050   45.3510 C   0  0  0  0  0  0  0  0  0  0  0  0
   56.3674   27.5296   44.5840 H   0  0  0  0  0  0  0  0  0  0  0  0
   57.0263   27.8485   46.2412 H   0  0  0  0  0  0  0  0  0  0  0  0
   58.5020   27.3060   44.7800 C   0  0  0  0  0  0  0  0  0  0  0  0
   58.5242   26.8066   43.8002 H   0  0  0  0  0  0  0  0  0  0  0  0
   58.7537   28.3734   44.6941 H   0  0  0  0  0  0  0  0  0  0  0  0
   61.7910   30.5580   48.3570 N   0  0  0  0  0  0  0  0  0  0  0  0
   62.1980   29.7690   48.9090 H   0  0  0  0  0  0  0  0  0  0  0  0
   62.4090   31.7030   48.0160 C   0  0  0  0  0  0  0  0  0  0  0  0
   63.7180   32.0770   48.3140 C   0  0  0  0  0  0  0  0  0  0  0  0
   64.3909   31.4005   48.8613 H   0  0  0  0  0  0  0  0  0  0  0  0
   64.1520   33.3490   47.8920 C   0  0  0  0  0  0  0  0  0  0  0  0
   65.1811   33.6738   48.1050 H   0  0  0  0  0  0  0  0  0  0  0  0
   63.2740   34.2100   47.1970 C   0  0  0  0  0  0  0  0  0  0  0  0
   63.6232   35.2018   46.8740 H   0  0  0  0  0  0  0  0  0  0  0  0
   61.9550   33.8070   46.9150 C   0  0  0  0  0  0  0  0  0  0  0  0
   61.2603   34.4692   46.3775 H   0  0  0  0  0  0  0  0  0  0  0  0
   61.5600   32.5410   47.3400 C   0  0  0  0  0  0  0  0  0  0  0  0
   58.5240   32.7490   44.4820 C   0  0  0  0  0  0  0  0  0  0  0  0
   59.1092   33.6780   44.4146 H   0  0  0  0  0  0  0  0  0  0  0  0
   57.8160   32.2810   43.3720 C   0  0  0  0  0  0  0  0  0  0  0  0
   57.8393   32.8425   42.4264 H   0  0  0  0  0  0  0  0  0  0  0  0
   57.0790   31.0990   43.4660 C   0  0  0  0  0  0  0  0  0  0  0  0
   56.5093   30.7278   42.6013 H   0  0  0  0  0  0  0  0  0  0  0  0
  1  2  1  0
  2  3  1  0
  3  4  1  0
  4  5  2  0
  5  6  1  0
  6  7  2  0
  7  8  1  0
  8  9  1  0
  8 10  1  0
  8 11  1  0
 11 12  1  0
 11 13  1  0
 13 14  2  0
 13 15  1  0
 15 16  1  6
 15 17  1  0
 17 18  1  0
 17 19  1  0
 17 20  1  0
 20 21  2  0
 21 22  1  0
 21 23  1  0
 23 24  1  0
 23 25  2  0
 25 26  1  0
 25 27  1  0
 27 28  1  0
 27 29  2  0
 29 30  1  0
 30 31  1  0
 30 32  1  0
 30 33  1  0
 33 34  1  0
 33 35  1  0
  7 36  1  0
 36 37  1  0
 36 38  1  0
 38 39  2  0
 39 40  1  0
 39 41  1  0
 41 42  1  0
 41 43  2  0
 43 44  1  0
 43 45  1  0
 45 46  1  0
 45 47  2  0
  4 48  1  0
 48 49  1  0
 48 50  2  0
 50 51  1  0
 50 52  1  0
 52 53  1  0
 52  2  2  0
 47  6  1  0
 33 15  1  0
 47 38  1  0
 29 20  1  0
M  CHG  3   3  -1  15   1  28  -1
M  END
>  <UniqueID>  (48) 
47

>  <SMILES>  (48) 
[O-]c1cccc2c1CC[N@@H+](C(=S)NCc1[nH]c3ccccc3c1/N=c1/cccc[n-]1)C2

>  <Energy>  (48) 
104.87911601910386

>  <Genealogy>  (48) 
[O-]c1cccc2c1CC[NH+](C(=S)NCc1[nH]c3ccccc3c1N=c1cccc[n-]1)C2 (protonated)
[O-]c1cccc2c1CC[N@@H+](C(=S)NCc1[nH]c3ccccc3c1N=c1cccc[n-]1)C2 (chirality)
[O-]c1cccc2c1CC[N@@H+](C(=S)NCc1[nH]c3ccccc3c1/N=c1/cccc[n-]1)C2 (cis-trans isomerization)
[O-]c1cccc2c1CC[N@@H+](C(=S)NCc1[nH]c3ccccc3c1/N=c1/cccc[n-]1)C2 (3D coordinates assigned)
[O-]c1cccc2c1CC[N@@H+](C(=S)NCc1[nH]c3ccccc3c1/N=c1/cccc[n-]1)C2 (nonaromatic ring conformer: 104.87911601910386 kcal/mol)

>  <smiles>  (48) 
Oc1cccc2c1CCN(C(=S)NCc1[nH]c3ccccc3c1N=c1cccc[nH]1)C2

>  <score_type>  (48) 
oracle

>  <origin>  (48) 
adg

>  <m_score__min__energy>  (48) 
-12.85

>  <m_primary>  (48) 
energy

$$$$
48:0
     RDKit          3D

 67 71  0  0  0  0  0  0  0  0999 V2000
   55.1390   29.8950   44.8430 O   0  0  0  0  0  0  0  0  0  0  0  0
   56.0050   28.9840   44.7420 C   0  0  0  0  0  0  0  0  0  0  0  0
   57.1480   29.1130   43.7780 C   0  0  0  0  0  0  0  0  0  0  0  0
   58.4050   29.4420   44.4650 N   0  0  0  0  0  0  0  0  0  0  0  0
   59.4830   28.6150   44.5130 C   0  0  0  0  0  0  0  0  0  0  0  0
   59.5180   27.4800   43.9630 O   0  0  0  0  0  0  0  0  0  0  0  0
   60.7650   29.2640   45.3950 S   0  0  0  0  0  0  0  0  0  0  0  0
   59.9110   30.6730   45.7270 C   0  0  0  0  0  0  0  0  0  0  0  0
   60.3330   31.7800   46.4580 C   0  0  0  0  0  0  0  0  0  0  0  0
   59.4550   32.8710   46.5910 C   0  0  0  0  0  0  0  0  0  0  0  0
   59.9290   34.2750   47.5480 S   0  0  0  0  0  0  0  0  0  0  0  0
   59.1160   34.3150   48.8100 O   0  0  0  0  0  0  0  0  0  0  0  0
   59.6440   35.5300   46.7690 O   0  0  0  0  0  0  0  0  0  0  0  0
   61.6290   34.2220   47.9460 N   0  0  0  0  0  0  0  0  0  0  0  0
   62.4270   33.8230   46.7660 C   0  0  0  0  0  0  0  0  0  0  0  0
   63.8530   33.4340   47.1700 C   0  0  0  0  0  0  0  0  0  0  0  0
   63.8530   32.2250   48.1260 C   0  0  0  0  0  0  0  0  0  0  0  0
   62.5190   32.0540   48.8720 C   0  0  0  0  0  0  0  0  0  0  0  0
   61.8840   33.4220   49.1730 C   0  0  0  0  0  0  0  0  0  0  0  0
   58.1830   32.8270   45.9820 C   0  0  0  0  0  0  0  0  0  0  0  0
   57.7720   31.6940   45.2620 C   0  0  0  0  0  0  0  0  0  0  0  0
   58.6530   30.6050   45.1430 C   0  0  0  0  0  0  0  0  0  0  0  0
   55.9370   27.8420   45.6020 N   0  0  0  0  0  0  0  0  0  0  0  0
   57.1000   27.2260   46.1690 C   0  0  0  0  0  0  0  0  0  0  0  0
   57.5550   26.0050   45.6620 C   0  0  0  0  0  0  0  0  0  0  0  0
   58.7190   25.4220   46.1730 C   0  0  0  0  0  0  0  0  0  0  0  0
   59.4460   26.0690   47.1770 C   0  0  0  0  0  0  0  0  0  0  0  0
   59.0080   27.3040   47.6770 C   0  0  0  0  0  0  0  0  0  0  0  0
   59.9670   28.1790   48.8680 S   0  0  0  0  0  0  0  0  0  0  0  0
   60.7570   27.2120   49.7080 O   0  0  0  0  0  0  0  0  0  0  0  0
   60.9140   29.0810   48.1260 O   0  0  0  0  0  0  0  0  0  0  0  0
   58.9170   29.1300   49.8970 N   0  0  0  0  0  0  0  0  0  0  0  0
   59.4850   29.2290   51.2600 C   0  0  0  0  0  0  0  0  0  0  0  0
   58.8200   30.3520   52.0610 C   0  0  0  0  0  0  0  0  0  0  0  0
   59.0680   31.7210   51.4000 C   0  0  0  0  0  0  0  0  0  0  0  0
   59.3540   31.6120   49.8930 C   0  0  0  0  0  0  0  0  0  0  0  0
   58.5840   30.4370   49.2700 C   0  0  0  0  0  0  0  0  0  0  0  0
   57.8430   27.8820   47.1650 C   0  0  0  0  0  0  0  0  0  0  0  0
   57.2729   28.1596   43.2437 H   0  0  0  0  0  0  0  0  0  0  0  0
   56.9159   29.9297   43.0787 H   0  0  0  0  0  0  0  0  0  0  0  0
   61.3305   31.8011   46.9212 H   0  0  0  0  0  0  0  0  0  0  0  0
   61.9440   32.9625   46.2800 H   0  0  0  0  0  0  0  0  0  0  0  0
   62.4805   34.6775   46.0753 H   0  0  0  0  0  0  0  0  0  0  0  0
   64.4240   33.1761   46.2659 H   0  0  0  0  0  0  0  0  0  0  0  0
   64.3123   34.2879   47.6894 H   0  0  0  0  0  0  0  0  0  0  0  0
   64.0474   31.3142   47.5406 H   0  0  0  0  0  0  0  0  0  0  0  0
   64.6340   32.4000   48.8806 H   0  0  0  0  0  0  0  0  0  0  0  0
   61.8298   31.4655   48.2486 H   0  0  0  0  0  0  0  0  0  0  0  0
   62.7103   31.5364   49.8236 H   0  0  0  0  0  0  0  0  0  0  0  0
   60.9275   33.2590   49.6912 H   0  0  0  0  0  0  0  0  0  0  0  0
   62.5942   33.9869   49.7947 H   0  0  0  0  0  0  0  0  0  0  0  0
   57.5063   33.6895   46.0723 H   0  0  0  0  0  0  0  0  0  0  0  0
   56.7753   31.6589   44.7978 H   0  0  0  0  0  0  0  0  0  0  0  0
   56.9961   25.5017   44.8593 H   0  0  0  0  0  0  0  0  0  0  0  0
   59.0634   24.4523   45.7842 H   0  0  0  0  0  0  0  0  0  0  0  0
   60.3624   25.6089   47.5751 H   0  0  0  0  0  0  0  0  0  0  0  0
   59.3281   28.2744   51.7835 H   0  0  0  0  0  0  0  0  0  0  0  0
   60.5582   29.4540   51.1728 H   0  0  0  0  0  0  0  0  0  0  0  0
   57.7368   30.1667   52.1097 H   0  0  0  0  0  0  0  0  0  0  0  0
   59.2536   30.3665   53.0718 H   0  0  0  0  0  0  0  0  0  0  0  0
   58.1755   32.3476   51.5439 H   0  0  0  0  0  0  0  0  0  0  0  0
   59.9570   32.1618   51.8748 H   0  0  0  0  0  0  0  0  0  0  0  0
   59.0460   32.5458   49.3999 H   0  0  0  0  0  0  0  0  0  0  0  0
   60.4312   31.4391   49.7523 H   0  0  0  0  0  0  0  0  0  0  0  0
   57.5061   30.6200   49.3911 H   0  0  0  0  0  0  0  0  0  0  0  0
   58.8724   30.3779   48.2101 H   0  0  0  0  0  0  0  0  0  0  0  0
   57.5053   28.8576   47.5446 H   0  0  0  0  0  0  0  0  0  0  0  0
  1  2  2  0
  2  3  1  0
  3  4  1  0
  4  5  1  0
  5  6  2  0
  5  7  1  0
  7  8  1  0
  8  9  2  0
  9 10  1  0
 10 11  1  0
 11 12  2  0
 11 13  2  0
 11 14  1  0
 14 15  1  0
 15 16  1  0
 16 17  1  0
 17 18  1  0
 18 19  1  0
 10 20  2  0
 20 21  1  0
 21 22  2  0
  2 23  1  0
 23 24  1  0
 24 25  2  0
 25 26  1  0
 26 27  2  0
 27 28  1  0
 28 29  1  0
 29 30  2  0
 29 31  2  0
 29 32  1  0
 32 33  1  0
 33 34  1  0
 34 35  1  0
 35 36  1  0
 36 37  1  0
 28 38  2  0
 22  4  1  0
 38 24  1  0
 22  8  1  0
 37 32  1  0
 19 14  1  0
  3 39  1  0
  3 40  1  0
  9 41  1  0
 15 42  1  0
 15 43  1  0
 16 44  1  0
 16 45  1  0
 17 46  1  0
 17 47  1  0
 18 48  1  0
 18 49  1  0
 19 50  1  0
 19 51  1  0
 20 52  1  0
 21 53  1  0
 25 54  1  0
 26 55  1  0
 27 56  1  0
 33 57  1  0
 33 58  1  0
 34 59  1  0
 34 60  1  0
 35 61  1  0
 35 62  1  0
 36 63  1  0
 36 64  1  0
 37 65  1  0
 37 66  1  0
 38 67  1  0
M  CHG  1  23  -1
M  END
>  <UniqueID>  (49) 
48

>  <SMILES>  (49) 
O=C(Cn1c(=O)sc2cc(S(=O)(=O)N3CCCCC3)ccc21)[N-]c1cccc(S(=O)(=O)N2CCCCC2)c1

>  <Energy>  (49) 
121.1632083665224

>  <Genealogy>  (49) 
O=C(Cn1c(=O)sc2cc(S(=O)(=O)N3CCCCC3)ccc21)[N-]c1cccc(S(=O)(=O)N2CCCCC2)c1 (protonated)
O=C(Cn1c(=O)sc2cc(S(=O)(=O)N3CCCCC3)ccc21)[N-]c1cccc(S(=O)(=O)N2CCCCC2)c1 (3D coordinates assigned)
O=C(Cn1c(=O)sc2cc(S(=O)(=O)N3CCCCC3)ccc21)[N-]c1cccc(S(=O)(=O)N2CCCCC2)c1 (nonaromatic ring conformer: 121.1632083665224 kcal/mol)

>  <smiles>  (49) 
O=C(Cn1c(=O)sc2cc(S(=O)(=O)N3CCCCC3)ccc21)Nc1cccc(S(=O)(=O)N2CCCCC2)c1

>  <score_type>  (49) 
oracle

>  <origin>  (49) 
adg

>  <m_score__min__energy>  (49) 
-13.279999999999999

>  <m_primary>  (49) 
energy

$$$$
49:0
     RDKit          3D

 50 54  0  0  0  0  0  0  0  0999 V2000
   65.2780   33.8990   50.8070 C   0  0  0  0  0  0  0  0  0  0  0  0
   64.0740   33.3220   50.1250 C   0  0  0  0  0  0  0  0  0  0  0  0
   62.7930   33.8160   50.4170 C   0  0  0  0  0  0  0  0  0  0  0  0
   61.6660   33.2540   49.8090 C   0  0  0  0  0  0  0  0  0  0  0  0
   61.8030   32.1760   48.9200 C   0  0  0  0  0  0  0  0  0  0  0  0
   60.6120   31.5900   48.2630 C   0  0  0  0  0  0  0  0  0  0  0  0
   60.2000   30.3040   48.6390 C   0  0  0  0  0  0  0  0  0  0  0  0
   59.1450   29.7130   48.0260 N   0  0  0  0  0  0  0  0  0  0  0  0
   58.4560   30.3250   47.0290 C   0  0  0  0  0  0  0  0  0  0  0  0
   58.8200   31.6150   46.6060 C   0  0  0  0  0  0  0  0  0  0  0  0
   59.8840   32.2710   47.2590 C   0  0  0  0  0  0  0  0  0  0  0  0
   60.2040   33.6890   46.8350 C   0  0  0  0  0  0  0  0  0  0  0  0
   58.9270   34.5290   46.6260 C   0  0  0  0  0  0  0  0  0  0  0  0
   57.7400   33.7630   45.9870 C   0  0  0  0  0  0  0  0  0  0  0  0
   58.1190   32.3620   45.4850 C   0  0  2  0  0  0  0  0  0  0  0  0
   56.9150   31.6850   44.9970 N   0  0  0  0  0  0  0  0  0  0  0  0
   56.8730   30.5160   44.1650 C   0  0  0  0  0  0  0  0  0  0  0  0
   56.7310   30.6630   42.9230 O   0  0  0  0  0  0  0  0  0  0  0  0
   56.9240   29.1500   44.7130 C   0  0  0  0  0  0  0  0  0  0  0  0
   58.0320   28.2980   44.6850 C   0  0  0  0  0  0  0  0  0  0  0  0
   57.5890   27.1270   45.2600 C   0  0  0  0  0  0  0  0  0  0  0  0
   58.2330   25.9190   45.5020 C   0  0  0  0  0  0  0  0  0  0  0  0
   57.4790   24.8950   46.1040 C   0  0  0  0  0  0  0  0  0  0  0  0
   56.1220   25.1210   46.4300 C   0  0  0  0  0  0  0  0  0  0  0  0
   55.5350   26.3270   46.1650 N   0  0  0  0  0  0  0  0  0  0  0  0
   56.2760   27.3050   45.5880 C   0  0  0  0  0  0  0  0  0  0  0  0
   55.8470   28.5310   45.2530 N   0  0  0  0  0  0  0  0  0  0  0  0
   63.0840   31.6800   48.6320 C   0  0  0  0  0  0  0  0  0  0  0  0
   64.2100   32.2430   49.2400 C   0  0  0  0  0  0  0  0  0  0  0  0
   65.1470   33.8362   51.8974 H   0  0  0  0  0  0  0  0  0  0  0  0
   66.1733   33.3321   50.5120 H   0  0  0  0  0  0  0  0  0  0  0  0
   65.3970   34.9520   50.5120 H   0  0  0  0  0  0  0  0  0  0  0  0
   62.6752   34.6482   51.1266 H   0  0  0  0  0  0  0  0  0  0  0  0
   60.6669   33.6587   50.0284 H   0  0  0  0  0  0  0  0  0  0  0  0
   60.7366   29.7704   49.4373 H   0  0  0  0  0  0  0  0  0  0  0  0
   57.6101   29.8096   46.5507 H   0  0  0  0  0  0  0  0  0  0  0  0
   60.8180   34.1633   47.6147 H   0  0  0  0  0  0  0  0  0  0  0  0
   60.7436   33.6449   45.8774 H   0  0  0  0  0  0  0  0  0  0  0  0
   58.6019   34.9066   47.6067 H   0  0  0  0  0  0  0  0  0  0  0  0
   59.1952   35.3281   45.9193 H   0  0  0  0  0  0  0  0  0  0  0  0
   56.9450   33.6604   46.7403 H   0  0  0  0  0  0  0  0  0  0  0  0
   57.4112   34.3438   45.1126 H   0  0  0  0  0  0  0  0  0  0  0  0
   58.8205   32.4103   44.6391 H   0  0  0  0  0  0  0  0  0  0  0  0
   59.0359   28.5147   44.2909 H   0  0  0  0  0  0  0  0  0  0  0  0
   59.2893   25.7698   45.2337 H   0  0  0  0  0  0  0  0  0  0  0  0
   57.9438   23.9218   46.3203 H   0  0  0  0  0  0  0  0  0  0  0  0
   55.5335   24.3198   46.9008 H   0  0  0  0  0  0  0  0  0  0  0  0
   54.8870   28.9220   45.3840 H   0  0  0  0  0  0  0  0  0  0  0  0
   63.2024   30.8453   47.9254 H   0  0  0  0  0  0  0  0  0  0  0  0
   65.2089   31.8369   49.0227 H   0  0  0  0  0  0  0  0  0  0  0  0
  1  2  1  0
  2  3  2  0
  3  4  1  0
  4  5  2  0
  5  6  1  0
  6  7  2  0
  7  8  1  0
  8  9  2  0
  9 10  1  0
 10 11  2  0
 11 12  1  0
 12 13  1  0
 13 14  1  0
 14 15  1  0
 15 16  1  0
 16 17  1  0
 17 18  2  0
 17 19  1  0
 19 20  2  0
 20 21  1  0
 21 22  2  0
 22 23  1  0
 23 24  2  0
 24 25  1  0
 25 26  2  0
 26 27  1  0
  5 28  1  0
 28 29  2  0
 29  2  1  0
 11  6  1  0
 27 19  1  0
 15 10  1  0
 26 21  1  0
  1 30  1  0
  1 31  1  0
  1 32  1  0
  3 33  1  0
  4 34  1  0
  7 35  1  0
  9 36  1  0
 12 37  1  0
 12 38  1  0
 13 39  1  0
 13 40  1  0
 14 41  1  0
 14 42  1  0
 15 43  1  6
 20 44  1  0
 22 45  1  0
 23 46  1  0
 24 47  1  0
 27 48  1  0
 28 49  1  0
 29 50  1  0
M  CHG  1  16  -1
M  END
>  <UniqueID>  (50) 
49

>  <SMILES>  (50) 
Cc1ccc(-c2cncc3c2CCC[C@@H]3[N-]C(=O)c2cc3cccnc3[nH]2)cc1

>  <Energy>  (50) 
109.26689921874467

>  <Genealogy>  (50) 
Cc1ccc(-c2cncc3c2CCCC3[N-]C(=O)c2cc3cccnc3[nH]2)cc1 (protonated)
Cc1ccc(-c2cncc3c2CCC[C@@H]3[N-]C(=O)c2cc3cccnc3[nH]2)cc1 (chirality)
Cc1ccc(-c2cncc3c2CCC[C@@H]3[N-]C(=O)c2cc3cccnc3[nH]2)cc1 (3D coordinates assigned)
Cc1ccc(-c2cncc3c2CCC[C@@H]3[N-]C(=O)c2cc3cccnc3[nH]2)cc1 (nonaromatic ring conformer: 109.26689921874467 kcal/mol)

>  <smiles>  (50) 
Cc1ccc(-c2cncc3c2CCCC3NC(=O)c2cc3cccnc3[nH]2)cc1

>  <score_type>  (50) 
oracle

>  <origin>  (50) 
adg

>  <m_score__min__energy>  (50) 
-11.66

>  <m_primary>  (50) 
energy

$$$$
50:0
     RDKit          3D

 58 60  0  0  0  0  0  0  0  0999 V2000
   57.3540   33.5750   47.1020 C   0  0  0  0  0  0  0  0  0  0  0  0
   57.6990   33.3060   45.8360 C   0  0  0  0  0  0  0  0  0  0  0  0
   58.6430   34.2220   45.1220 C   0  0  0  0  0  0  0  0  0  0  0  0
   57.2110   32.1860   45.1410 O   0  0  0  0  0  0  0  0  0  0  0  0
   57.3330   31.9840   43.7340 C   0  0  0  0  0  0  0  0  0  0  0  0
   57.4650   30.4900   43.4480 C   0  0  0  0  0  0  0  0  0  0  0  0
   56.1990   29.7330   43.8620 C   0  0  0  0  0  0  0  0  0  0  0  0
   56.3280   29.2260   45.2260 N   0  0  0  0  0  0  0  0  0  0  0  0
   56.8900   27.9360   45.4840 C   0  0  0  0  0  0  0  0  0  0  0  0
   58.1650   27.3860   45.4720 C   0  0  0  0  0  0  0  0  0  0  0  0
   59.4930   27.8390   45.1880 N   0  0  0  0  0  0  0  0  0  0  0  0
   59.9920   29.1540   45.5780 C   0  0  0  0  0  0  0  0  0  0  0  0
   59.5430   29.4720   46.9770 C   0  0  0  0  0  0  0  0  0  0  0  0
   59.7580   28.5490   48.0140 C   0  0  0  0  0  0  0  0  0  0  0  0
   59.3700   28.8530   49.3200 C   0  0  0  0  0  0  0  0  0  0  0  0
   58.7700   30.0890   49.6170 C   0  0  0  0  0  0  0  0  0  0  0  0
   58.3780   30.4220   51.0070 C   0  0  0  0  0  0  0  0  0  0  0  0
   57.7490   29.5700   51.6950 O   0  0  0  0  0  0  0  0  0  0  0  0
   58.6740   31.7100   51.5790 N   0  0  0  0  0  0  0  0  0  0  0  0
   60.0340   32.2630   51.5130 C   0  0  0  0  0  0  0  0  0  0  0  0
   60.0020   33.7870   51.2690 C   0  0  0  0  0  0  0  0  0  0  0  0
   58.7240   34.4180   51.6570 N   0  0  0  0  0  0  0  0  0  0  0  0
   58.1260   33.7690   52.8280 C   0  0  0  0  0  0  0  0  0  0  0  0
   57.6800   32.3530   52.4470 C   0  0  0  0  0  0  0  0  0  0  0  0
   58.5870   31.0250   48.5850 C   0  0  0  0  0  0  0  0  0  0  0  0
   58.9720   30.7190   47.2750 C   0  0  0  0  0  0  0  0  0  0  0  0
   57.6430   26.1790   45.8960 C   0  0  0  0  0  0  0  0  0  0  0  0
   58.1300   25.0520   46.1730 O   0  0  0  0  0  0  0  0  0  0  0  0
   56.3740   26.7140   45.8810 C   0  0  0  0  0  0  0  0  0  0  0  0
   55.2240   26.2740   46.1420 O   0  0  0  0  0  0  0  0  0  0  0  0
   56.6609   32.9088   47.6366 H   0  0  0  0  0  0  0  0  0  0  0  0
   57.7637   34.4621   47.6071 H   0  0  0  0  0  0  0  0  0  0  0  0
   59.2293   34.7909   45.8585 H   0  0  0  0  0  0  0  0  0  0  0  0
   59.3222   33.6296   44.4913 H   0  0  0  0  0  0  0  0  0  0  0  0
   58.0713   34.9187   44.4913 H   0  0  0  0  0  0  0  0  0  0  0  0
   56.4393   32.3775   43.2275 H   0  0  0  0  0  0  0  0  0  0  0  0
   58.2244   32.5104   43.3622 H   0  0  0  0  0  0  0  0  0  0  0  0
   57.6341   30.3444   42.3709 H   0  0  0  0  0  0  0  0  0  0  0  0
   58.3118   30.0973   44.0300 H   0  0  0  0  0  0  0  0  0  0  0  0
   55.3367   30.4139   43.8091 H   0  0  0  0  0  0  0  0  0  0  0  0
   56.0539   28.8829   43.1791 H   0  0  0  0  0  0  0  0  0  0  0  0
   55.8570   29.7350   46.0080 H   0  0  0  0  0  0  0  0  0  0  0  0
   60.0990   27.2290   44.5920 H   0  0  0  0  0  0  0  0  0  0  0  0
   61.0913   29.1546   45.5378 H   0  0  0  0  0  0  0  0  0  0  0  0
   59.5966   29.9132   44.8871 H   0  0  0  0  0  0  0  0  0  0  0  0
   60.2345   27.5819   47.7958 H   0  0  0  0  0  0  0  0  0  0  0  0
   59.5351   28.1196   50.1230 H   0  0  0  0  0  0  0  0  0  0  0  0
   60.5503   32.0619   52.4633 H   0  0  0  0  0  0  0  0  0  0  0  0
   60.5654   31.7859   50.6763 H   0  0  0  0  0  0  0  0  0  0  0  0
   60.8108   34.2504   51.8530 H   0  0  0  0  0  0  0  0  0  0  0  0
   60.1261   33.9447   50.1875 H   0  0  0  0  0  0  0  0  0  0  0  0
   58.9160   35.4190   51.9070 H   0  0  0  0  0  0  0  0  0  0  0  0
   58.8683   33.7154   53.6380 H   0  0  0  0  0  0  0  0  0  0  0  0
   57.2570   34.3507   53.1692 H   0  0  0  0  0  0  0  0  0  0  0  0
   57.5590   31.7544   53.3619 H   0  0  0  0  0  0  0  0  0  0  0  0
   56.7260   32.4178   51.9033 H   0  0  0  0  0  0  0  0  0  0  0  0
   58.1384   32.0042   48.8083 H   0  0  0  0  0  0  0  0  0  0  0  0
   58.8264   31.4595   46.4747 H   0  0  0  0  0  0  0  0  0  0  0  0
  1  2  2  0
  2  3  1  0
  2  4  1  0
  4  5  1  0
  5  6  1  0
  6  7  1  0
  7  8  1  0
  8  9  1  0
  9 10  2  0
 10 11  1  0
 11 12  1  0
 12 13  1  0
 13 14  2  0
 14 15  1  0
 15 16  2  0
 16 17  1  0
 17 18  2  0
 17 19  1  0
 19 20  1  0
 20 21  1  0
 21 22  1  0
 22 23  1  0
 23 24  1  0
 16 25  1  0
 25 26  2  0
 10 27  1  0
 27 28  2  0
 27 29  1  0
 29 30  2  0
 29  9  1  0
 26 13  1  0
 24 19  1  0
  1 31  1  0
  1 32  1  0
  3 33  1  0
  3 34  1  0
  3 35  1  0
  5 36  1  0
  5 37  1  0
  6 38  1  0
  6 39  1  0
  7 40  1  0
  7 41  1  0
  8 42  1  0
 11 43  1  0
 12 44  1  0
 12 45  1  0
 14 46  1  0
 15 47  1  0
 20 48  1  0
 20 49  1  0
 21 50  1  0
 21 51  1  0
 22 52  1  0
 23 53  1  0
 23 54  1  0
 24 55  1  0
 24 56  1  0
 25 57  1  0
 26 58  1  0
M  END
>  <UniqueID>  (51) 
50

>  <SMILES>  (51) 
C=C(C)OCCCNc1c(NCc2ccc(C(=O)N3CCNCC3)cc2)c(=O)c1=O

>  <Energy>  (51) 
48.08025421853489

>  <Genealogy>  (51) 
C=C(C)OCCCNc1c(NCc2ccc(C(=O)N3CCNCC3)cc2)c(=O)c1=O (3D coordinates assigned)
C=C(C)OCCCNc1c(NCc2ccc(C(=O)N3CCNCC3)cc2)c(=O)c1=O (nonaromatic ring conformer: 48.08025421853489 kcal/mol)

>  <smiles>  (51) 
C=C(C)OCCCNc1c(NCc2ccc(C(=O)N3CCNCC3)cc2)c(=O)c1=O

>  <score_type>  (51) 
oracle

>  <origin>  (51) 
adg

>  <m_score__min__energy>  (51) 
-8.8599999999999994

>  <m_primary>  (51) 
energy

$$$$
51:0
     RDKit          3D

 77 81  0  0  0  0  0  0  0  0999 V2000
   62.0200   26.9120   51.4540 C   0  0  0  0  0  0  0  0  0  0  0  0
   61.2650   28.0530   50.8400 C   0  0  0  0  0  0  0  0  0  0  0  0
   61.3160   29.4030   51.2000 C   0  0  0  0  0  0  0  0  0  0  0  0
   62.1240   29.9460   52.3130 C   0  0  0  0  0  0  0  0  0  0  0  0
   63.5040   30.1510   52.1480 C   0  0  0  0  0  0  0  0  0  0  0  0
   64.2730   30.6590   53.1990 C   0  0  0  0  0  0  0  0  0  0  0  0
   63.6700   30.9610   54.4230 C   0  0  0  0  0  0  0  0  0  0  0  0
   62.3000   30.7430   54.6000 C   0  0  0  0  0  0  0  0  0  0  0  0
   61.5300   30.2320   53.5520 C   0  0  0  0  0  0  0  0  0  0  0  0
   60.5530   30.1500   50.3500 N   0  0  0  0  0  0  0  0  0  0  0  0
   60.5030   31.6180   50.2530 C   0  0  0  0  0  0  0  0  0  0  0  0
   61.3360   32.0960   49.0910 C   0  0  0  0  0  0  0  0  0  0  0  0
   62.6820   31.7070   48.9650 C   0  0  0  0  0  0  0  0  0  0  0  0
   63.4630   32.2000   47.9130 C   0  0  0  0  0  0  0  0  0  0  0  0
   62.9120   33.0960   46.9920 C   0  0  0  0  0  0  0  0  0  0  0  0
   61.5770   33.4950   47.1150 C   0  0  0  0  0  0  0  0  0  0  0  0
   61.0370   34.4280   46.2280 O   0  0  0  0  0  0  0  0  0  0  0  0
   59.6580   34.4970   46.0030 C   0  0  0  0  0  0  0  0  0  0  0  0
   58.8850   34.9660   46.8910 O   0  0  0  0  0  0  0  0  0  0  0  0
   59.1160   34.0060   44.7710 N   0  0  0  0  0  0  0  0  0  0  0  0
   57.6860   33.7530   44.6090 C   0  0  0  0  0  0  0  0  0  0  0  0
   57.2070   32.7660   45.6850 C   0  0  0  0  0  0  0  0  0  0  0  0
   57.3670   31.3580   45.2580 N   0  0  0  0  0  0  0  0  0  0  0  0
   58.7890   30.9450   45.3080 C   0  0  0  0  0  0  0  0  0  0  0  0
   59.0270   29.6350   44.5250 C   0  0  0  0  0  0  0  0  0  0  0  0
   57.8100   28.9560   44.2840 O   0  0  0  0  0  0  0  0  0  0  0  0
   56.9950   29.7330   43.4210 C   0  0  0  0  0  0  0  0  0  0  0  0
   56.8540   31.1980   43.8860 C   0  0  0  0  0  0  0  0  0  0  0  0
   60.7870   32.9820   48.1500 C   0  0  0  0  0  0  0  0  0  0  0  0
   60.0340   29.2720   49.4590 C   0  0  0  0  0  0  0  0  0  0  0  0
   59.1980   29.5420   48.3690 C   0  0  0  0  0  0  0  0  0  0  0  0
   58.8060   28.4680   47.5490 C   0  0  0  0  0  0  0  0  0  0  0  0
   59.2460   27.1510   47.8210 C   0  0  0  0  0  0  0  0  0  0  0  0
   58.8740   26.0360   46.9290 C   0  0  0  0  0  0  0  0  0  0  0  0
   59.6590   25.7060   46.0010 O   0  0  0  0  0  0  0  0  0  0  0  0
   57.6540   25.2990   47.0930 N   0  0  0  0  0  0  0  0  0  0  0  0
   56.6110   25.1330   46.0800 C   0  0  2  0  0  0  0  0  0  0  0  0
   57.2350   24.8560   44.7110 C   0  0  0  0  0  0  0  0  0  0  0  0
   55.7790   26.3790   46.0210 C   0  0  0  0  0  0  0  0  0  0  0  0
   56.3300   27.5110   45.9690 O   0  0  0  0  0  0  0  0  0  0  0  0
   54.3940   26.2890   45.9900 O   0  0  0  0  0  0  0  0  0  0  0  0
   60.1000   26.9110   48.9180 C   0  0  0  0  0  0  0  0  0  0  0  0
   60.4590   27.9940   49.7240 C   0  0  0  0  0  0  0  0  0  0  0  0
   61.9703   26.9871   52.5503 H   0  0  0  0  0  0  0  0  0  0  0  0
   61.5727   25.9603   51.1310 H   0  0  0  0  0  0  0  0  0  0  0  0
   63.0708   26.9516   51.1310 H   0  0  0  0  0  0  0  0  0  0  0  0
   63.9818   29.9105   51.1868 H   0  0  0  0  0  0  0  0  0  0  0  0
   65.3524   30.8210   53.0627 H   0  0  0  0  0  0  0  0  0  0  0  0
   64.2729   31.3701   55.2471 H   0  0  0  0  0  0  0  0  0  0  0  0
   61.8277   30.9743   55.5661 H   0  0  0  0  0  0  0  0  0  0  0  0
   60.4546   30.0533   53.6985 H   0  0  0  0  0  0  0  0  0  0  0  0
   59.4603   31.9364   50.1068 H   0  0  0  0  0  0  0  0  0  0  0  0
   60.9035   32.0510   51.1815 H   0  0  0  0  0  0  0  0  0  0  0  0
   63.1225   31.0128   49.6958 H   0  0  0  0  0  0  0  0  0  0  0  0
   64.5111   31.8821   47.8109 H   0  0  0  0  0  0  0  0  0  0  0  0
   63.5290   33.4876   46.1698 H   0  0  0  0  0  0  0  0  0  0  0  0
   59.7700   33.7550   43.9930 H   0  0  0  0  0  0  0  0  0  0  0  0
   57.1340   34.6992   44.7096 H   0  0  0  0  0  0  0  0  0  0  0  0
   57.5039   33.3218   43.6136 H   0  0  0  0  0  0  0  0  0  0  0  0
   57.7935   32.9278   46.6014 H   0  0  0  0  0  0  0  0  0  0  0  0
   56.1363   32.9480   45.8598 H   0  0  0  0  0  0  0  0  0  0  0  0
   59.4079   31.7412   44.8687 H   0  0  0  0  0  0  0  0  0  0  0  0
   59.0609   30.7722   46.3597 H   0  0  0  0  0  0  0  0  0  0  0  0
   59.5018   29.8737   43.5619 H   0  0  0  0  0  0  0  0  0  0  0  0
   59.6772   28.9826   45.1263 H   0  0  0  0  0  0  0  0  0  0  0  0
   57.4412   29.7253   42.4156 H   0  0  0  0  0  0  0  0  0  0  0  0
   55.9896   29.2868   43.4260 H   0  0  0  0  0  0  0  0  0  0  0  0
   57.4254   31.8491   43.2081 H   0  0  0  0  0  0  0  0  0  0  0  0
   55.7893   31.4741   43.8709 H   0  0  0  0  0  0  0  0  0  0  0  0
   59.7294   33.2746   48.2269 H   0  0  0  0  0  0  0  0  0  0  0  0
   58.8567   30.5665   48.1592 H   0  0  0  0  0  0  0  0  0  0  0  0
   58.1496   28.6544   46.6862 H   0  0  0  0  0  0  0  0  0  0  0  0
   55.9763   24.2766   46.3515 H   0  0  0  0  0  0  0  0  0  0  0  0
   58.2328   24.4131   44.8457 H   0  0  0  0  0  0  0  0  0  0  0  0
   56.5960   24.1570   44.1515 H   0  0  0  0  0  0  0  0  0  0  0  0
   57.3248   25.7988   44.1515 H   0  0  0  0  0  0  0  0  0  0  0  0
   60.4730   25.8987   49.1328 H   0  0  0  0  0  0  0  0  0  0  0  0
  1  2  1  0
  2  3  2  0
  3  4  1  0
  4  5  2  0
  5  6  1  0
  6  7  2  0
  7  8  1  0
  8  9  2  0
  3 10  1  0
 10 11  1  0
 11 12  1  0
 12 13  2  0
 13 14  1  0
 14 15  2  0
 15 16  1  0
 16 17  1  0
 17 18  1  0
 18 19  2  0
 18 20  1  0
 20 21  1  0
 21 22  1  0
 22 23  1  0
 23 24  1  0
 24 25  1  0
 25 26  1  0
 26 27  1  0
 27 28  1  0
 16 29  2  0
 10 30  1  0
 30 31  2  0
 31 32  1  0
 32 33  2  0
 33 34  1  0
 34 35  2  0
 34 36  1  0
 36 37  1  0
 37 38  1  0
 37 39  1  0
 39 40  2  0
 39 41  1  0
 33 42  1  0
 42 43  2  0
 43  2  1  0
  9  4  1  0
 29 12  1  0
 43 30  1  0
 28 23  1  0
  1 44  1  0
  1 45  1  0
  1 46  1  0
  5 47  1  0
  6 48  1  0
  7 49  1  0
  8 50  1  0
  9 51  1  0
 11 52  1  0
 11 53  1  0
 13 54  1  0
 14 55  1  0
 15 56  1  0
 20 57  1  0
 21 58  1  0
 21 59  1  0
 22 60  1  0
 22 61  1  0
 24 62  1  0
 24 63  1  0
 25 64  1  0
 25 65  1  0
 27 66  1  0
 27 67  1  0
 28 68  1  0
 28 69  1  0
 29 70  1  0
 31 71  1  0
 32 72  1  0
 37 73  1  1
 38 74  1  0
 38 75  1  0
 38 76  1  0
 42 77  1  0
M  CHG  2  36  -1  41  -1
M  END
>  <UniqueID>  (52) 
51

>  <SMILES>  (52) 
Cc1c(-c2ccccc2)n(Cc2cccc(OC(=O)NCCN3CCOCC3)c2)c2ccc(C(=O)[N-][C@H](C)C(=O)[O-])cc12

>  <Energy>  (52) 
132.9142220993876

>  <Genealogy>  (52) 
Cc1c(-c2ccccc2)n(Cc2cccc(OC(=O)NCCN3CCOCC3)c2)c2ccc(C(=O)[N-]C(C)C(=O)[O-])cc12 (protonated)
Cc1c(-c2ccccc2)n(Cc2cccc(OC(=O)NCCN3CCOCC3)c2)c2ccc(C(=O)[N-][C@H](C)C(=O)[O-])cc12 (chirality)
Cc1c(-c2ccccc2)n(Cc2cccc(OC(=O)NCCN3CCOCC3)c2)c2ccc(C(=O)[N-][C@H](C)C(=O)[O-])cc12 (3D coordinates assigned)
Cc1c(-c2ccccc2)n(Cc2cccc(OC(=O)NCCN3CCOCC3)c2)c2ccc(C(=O)[N-][C@H](C)C(=O)[O-])cc12 (nonaromatic ring conformer: 132.9142220993876 kcal/mol)

>  <smiles>  (52) 
Cc1c(-c2ccccc2)n(Cc2cccc(OC(=O)NCCN3CCOCC3)c2)c2ccc(C(=O)NC(C)C(=O)O)cc12

>  <score_type>  (52) 
oracle

>  <origin>  (52) 
adg

>  <m_score__min__energy>  (52) 
-15.81

>  <m_primary>  (52) 
energy

$$$$
52:0
     RDKit          3D

 60 62  0  0  1  0  0  0  0  0999 V2000
   62.4950   33.6530   46.7080 C   0  0  0  0  0  0  0  0  0  0  0  0
   62.9420   32.5660   47.5160 N   0  0  0  0  0  0  0  0  0  0  0  0
   63.7430   31.6110   46.8360 C   0  0  0  0  0  0  0  0  0  0  0  0
   63.6030   33.0370   48.7000 C   0  0  0  0  0  0  0  0  0  0  0  0
   63.1150   32.2430   49.8540 C   0  0  0  0  0  0  0  0  0  0  0  0
   63.3100   32.5200   51.0470 O   0  0  0  0  0  0  0  0  0  0  0  0
   62.3600   31.0650   49.5510 N   0  0  0  0  0  0  0  0  0  0  0  0
   61.7910   30.2390   50.5600 C   0  0  0  0  0  0  0  0  0  0  0  0
   61.9620   30.5590   51.7530 O   0  0  0  0  0  0  0  0  0  0  0  0
   61.0070   29.0200   50.2650 C   0  0  0  0  0  0  0  0  0  0  0  0
   61.0640   28.6820   48.8840 O   0  0  0  0  0  0  0  0  0  0  0  0
   60.3050   29.3770   47.9580 C   0  0  0  0  0  0  0  0  0  0  0  0
   58.9640   29.1780   47.6930 C   0  0  0  0  0  0  0  0  0  0  0  0
   58.6680   30.1030   46.7000 C   0  0  0  0  0  0  0  0  0  0  0  0
   57.4790   30.2190   46.2060 N   0  0  0  0  0  0  0  0  0  0  0  0
   57.2240   30.4250   44.8260 C   0  0  0  0  0  0  0  0  0  0  0  0
   56.6000   29.3440   44.1790 C   0  0  0  0  0  0  0  0  0  0  0  0
   56.3060   29.3930   42.8340 C   0  0  0  0  0  0  0  0  0  0  0  0
   56.6420   30.5140   42.1790 N   0  0  0  0  0  0  0  0  0  0  0  0
   57.2460   31.5700   42.7830 C   0  0  0  0  0  0  0  0  0  0  0  0
   57.5020   32.5790   42.0240 N   0  0  0  0  0  0  0  0  0  0  0  0
   57.5600   31.5710   44.1300 C   0  0  0  0  0  0  0  0  0  0  0  0
   58.1410   32.6910   44.8290 C   0  0  0  0  0  0  0  0  0  0  0  0
   58.8960   33.4510   44.1260 O   0  0  0  0  0  0  0  0  0  0  0  0
   57.9820   33.0480   46.1700 N   0  0  0  0  0  0  0  0  0  0  0  0
   58.6110   34.1990   46.8060 C   0  0  0  0  0  0  0  0  0  0  0  0
   59.1050   33.8350   48.1510 C   0  0  0  0  0  0  0  0  0  0  0  0
   60.0600   34.5210   48.8520 C   0  0  0  0  0  0  0  0  0  0  0  0
   60.5010   34.1710   50.1120 C   0  0  0  0  0  0  0  0  0  0  0  0
   59.9330   33.0380   50.7120 C   0  0  0  0  0  0  0  0  0  0  0  0
   58.9690   32.3190   50.0420 C   0  0  0  0  0  0  0  0  0  0  0  0
   58.5640   32.7100   48.7860 C   0  0  0  0  0  0  0  0  0  0  0  0
   59.7580   30.8120   46.3870 N   0  0  0  0  0  0  0  0  0  0  0  0
   60.7360   30.3610   47.1570 N   0  0  0  0  0  0  0  0  0  0  0  0
   62.1566   34.4758   47.3549 H   0  0  0  0  0  0  0  0  0  0  0  0
   63.3225   34.0023   46.0730 H   0  0  0  0  0  0  0  0  0  0  0  0
   61.6612   33.3192   46.0730 H   0  0  0  0  0  0  0  0  0  0  0  0
   64.2690   30.9838   47.5708 H   0  0  0  0  0  0  0  0  0  0  0  0
   63.1021   30.9775   46.2052 H   0  0  0  0  0  0  0  0  0  0  0  0
   64.4784   32.1318   46.2052 H   0  0  0  0  0  0  0  0  0  0  0  0
   64.6905   32.9096   48.5943 H   0  0  0  0  0  0  0  0  0  0  0  0
   63.3860   34.1041   48.8557 H   0  0  0  0  0  0  0  0  0  0  0  0
   62.1900   30.7750   48.5440 H   0  0  0  0  0  0  0  0  0  0  0  0
   61.4118   28.1839   50.8541 H   0  0  0  0  0  0  0  0  0  0  0  0
   59.9569   29.2141   50.5286 H   0  0  0  0  0  0  0  0  0  0  0  0
   58.2843   28.4514   48.1622 H   0  0  0  0  0  0  0  0  0  0  0  0
   56.3422   28.4439   44.7564 H   0  0  0  0  0  0  0  0  0  0  0  0
   55.8180   28.5513   42.3208 H   0  0  0  0  0  0  0  0  0  0  0  0
   56.4060   30.5230   41.1480 H   0  0  0  0  0  0  0  0  0  0  0  0
   58.2230   33.2520   42.3170 H   0  0  0  0  0  0  0  0  0  0  0  0
   57.3720   32.4720   46.7720 H   0  0  0  0  0  0  0  0  0  0  0  0
   59.4558   34.5382   46.1886 H   0  0  0  0  0  0  0  0  0  0  0  0
   57.8683   35.0046   46.9033 H   0  0  0  0  0  0  0  0  0  0  0  0
   60.5050   35.4094   48.3801 H   0  0  0  0  0  0  0  0  0  0  0  0
   61.2724   34.7612   50.6284 H   0  0  0  0  0  0  0  0  0  0  0  0
   60.2569   32.7245   51.7154 H   0  0  0  0  0  0  0  0  0  0  0  0
   58.5216   31.4304   50.5113 H   0  0  0  0  0  0  0  0  0  0  0  0
   57.7933   32.1220   48.2660 H   0  0  0  0  0  0  0  0  0  0  0  0
   59.7620   31.5640   45.6640 H   0  0  0  0  0  0  0  0  0  0  0  0
   61.7040   30.7660   47.0980 H   0  0  0  0  0  0  0  0  0  0  0  0
  1  2  1  0
  2  3  1  0
  2  4  1  0
  4  5  1  0
  5  6  2  0
  5  7  1  0
  7  8  1  0
  8  9  2  0
  8 10  1  0
 10 11  1  0
 11 12  1  0
 12 13  2  0
 13 14  1  0
 14 15  2  0
 15 16  1  0
 16 17  1  0
 17 18  2  0
 18 19  1  0
 19 20  1  0
 20 21  2  3
 20 22  1  0
 22 23  1  0
 23 24  2  0
 23 25  1  0
 25 26  1  0
 26 27  1  0
 27 28  2  0
 28 29  1  0
 29 30  2  0
 30 31  1  0
 31 32  2  0
 14 33  1  0
 33 34  1  0
 34 12  1  0
 22 16  2  0
 32 27  1  0
  1 35  1  0
  1 36  1  0
  1 37  1  0
  3 38  1  0
  3 39  1  0
  3 40  1  0
  4 41  1  0
  4 42  1  0
  7 43  1  0
 10 44  1  0
 10 45  1  0
 13 46  1  0
 17 47  1  0
 18 48  1  0
 19 49  1  0
 21 50  1  0
 25 51  1  0
 26 52  1  0
 26 53  1  0
 28 54  1  0
 29 55  1  0
 30 56  1  0
 31 57  1  0
 32 58  1  0
 33 59  1  0
 34 60  1  0
M  END
>  <smiles>  (53) 
CN(C)CC(=O)NC(=O)COc1cc(=Nc2cc[nH]c(=N)c2C(=O)NCc2ccccc2)[nH][nH]1

>  <score_type>  (53) 
oracle

>  <origin>  (53) 
adg

>  <m_score__min__energy>  (53) 
-8.75

>  <m_primary>  (53) 
energy

$$$$
53:0
     RDKit          3D

 50 53  0  0  0  0  0  0  0  0999 V2000
   62.6570   35.2430   50.8360 H   0  0  0  0  0  0  0  0  0  0  0  0
   62.9490   34.9520   49.8770 N   0  0  0  0  0  0  0  0  0  0  0  0
   62.1930   34.2520   49.0910 C   0  0  0  0  0  0  0  0  0  0  0  0
   62.5890   34.0340   47.8080 N   0  0  0  0  0  0  0  0  0  0  0  0
   61.8320   33.3160   46.9360 C   0  0  0  0  0  0  0  0  0  0  0  0
   62.1774   33.1546   45.9042 H   0  0  0  0  0  0  0  0  0  0  0  0
   60.6050   32.7820   47.3640 C   0  0  0  0  0  0  0  0  0  0  0  0
   59.6910   32.0440   46.4580 C   0  0  0  0  0  0  0  0  0  0  0  0
   59.8200   30.6490   46.3320 C   0  0  0  0  0  0  0  0  0  0  0  0
   60.6559   30.1321   46.8259 H   0  0  0  0  0  0  0  0  0  0  0  0
   58.8970   29.9150   45.5860 C   0  0  0  0  0  0  0  0  0  0  0  0
   59.0087   28.8242   45.4980 H   0  0  0  0  0  0  0  0  0  0  0  0
   57.8330   30.5570   44.9510 C   0  0  0  0  0  0  0  0  0  0  0  0
   56.6080   29.5910   44.1380 S   0  0  0  0  0  0  0  0  0  0  0  0
   57.2550   28.8180   43.0220 O   0  0  0  0  0  0  0  0  0  0  0  0
   55.5180   30.4580   43.5720 O   0  0  0  0  0  0  0  0  0  0  0  0
   55.9280   28.4810   45.2810 N   0  0  0  0  0  0  0  0  0  0  0  0
   56.5010   27.2100   45.6280 C   0  0  0  0  0  0  0  0  0  0  0  0
   57.8920   26.9960   45.6250 C   0  0  0  0  0  0  0  0  0  0  0  0
   58.5713   27.8156   45.3480 H   0  0  0  0  0  0  0  0  0  0  0  0
   58.4140   25.7480   45.9720 C   0  0  0  0  0  0  0  0  0  0  0  0
   59.5020   25.5867   45.9601 H   0  0  0  0  0  0  0  0  0  0  0  0
   57.5600   24.7040   46.3340 C   0  0  0  0  0  0  0  0  0  0  0  0
   58.0950   23.4720   46.6950 O   0  0  0  0  0  0  0  0  0  0  0  0
   57.9300   22.6390   46.1390 H   0  0  0  0  0  0  0  0  0  0  0  0
   56.1740   24.9060   46.3320 C   0  0  0  0  0  0  0  0  0  0  0  0
   55.4987   24.0821   46.6061 H   0  0  0  0  0  0  0  0  0  0  0  0
   55.6470   26.1540   45.9820 C   0  0  0  0  0  0  0  0  0  0  0  0
   54.2690   26.3380   45.9820 O   0  0  0  0  0  0  0  0  0  0  0  0
   57.7090   31.9490   45.0440 C   0  0  0  0  0  0  0  0  0  0  0  0
   56.8865   32.4621   44.5242 H   0  0  0  0  0  0  0  0  0  0  0  0
   58.6280   32.6890   45.7960 C   0  0  0  0  0  0  0  0  0  0  0  0
   58.5197   33.7811   45.8707 H   0  0  0  0  0  0  0  0  0  0  0  0
   60.2260   32.9880   48.6530 N   0  0  0  0  0  0  0  0  0  0  0  0
   60.9740   33.7110   49.5290 C   0  0  0  0  0  0  0  0  0  0  0  0
   60.5140   33.9320   50.8350 O   0  0  0  0  0  0  0  0  0  0  0  0
   60.2090   32.8780   51.7510 C   0  0  0  0  0  0  0  0  0  0  0  0
   61.0358   32.7759   52.4693 H   0  0  0  0  0  0  0  0  0  0  0  0
   59.2728   33.1279   52.2717 H   0  0  0  0  0  0  0  0  0  0  0  0
   60.0200   31.5690   51.0290 C   0  0  0  0  0  0  0  0  0  0  0  0
   61.1190   30.7290   50.7630 C   0  0  0  0  0  0  0  0  0  0  0  0
   62.1244   31.0199   51.1014 H   0  0  0  0  0  0  0  0  0  0  0  0
   60.9390   29.5290   50.0720 C   0  0  0  0  0  0  0  0  0  0  0  0
   61.8023   28.8808   49.8608 H   0  0  0  0  0  0  0  0  0  0  0  0
   59.6620   29.1520   49.6490 C   0  0  0  0  0  0  0  0  0  0  0  0
   59.5197   28.2046   49.1085 H   0  0  0  0  0  0  0  0  0  0  0  0
   58.5640   29.9780   49.9120 C   0  0  0  0  0  0  0  0  0  0  0  0
   57.5595   29.6787   49.5783 H   0  0  0  0  0  0  0  0  0  0  0  0
   58.7410   31.1830   50.5980 C   0  0  0  0  0  0  0  0  0  0  0  0
   57.8754   31.8308   50.8007 H   0  0  0  0  0  0  0  0  0  0  0  0
  1  2  1  0
  2  3  2  0
  3  4  1  0
  4  5  1  0
  5  6  1  0
  5  7  2  0
  7  8  1  0
  8  9  2  0
  9 10  1  0
  9 11  1  0
 11 12  1  0
 11 13  2  0
 13 14  1  0
 14 15  2  0
 14 16  2  0
 14 17  1  0
 17 18  1  0
 18 19  2  0
 19 20  1  0
 19 21  1  0
 21 22  1  0
 21 23  2  0
 23 24  1  0
 24 25  1  0
 23 26  1  0
 26 27  1  0
 26 28  2  0
 28 29  1  0
 13 30  1  0
 30 31  1  0
 30 32  2  0
 32 33  1  0
  7 34  1  0
 34 35  2  0
 35 36  1  0
 36 37  1  0
 37 38  1  0
 37 39  1  0
 37 40  1  0
 40 41  2  0
 41 42  1  0
 41 43  1  0
 43 44  1  0
 43 45  2  0
 45 46  1  0
 45 47  1  0
 47 48  1  0
 47 49  2  0
 49 50  1  0
 35  3  1  0
 49 40  1  0
 32  8  1  0
 28 18  1  0
M  CHG  3   4  -1  17  -1  29  -1
M  END
>  <UniqueID>  (54) 
52

>  <SMILES>  (54) 
[H]/N=c1/[n-]cc(-c2ccc(S(=O)(=O)[N-]c3ccc(O)cc3[O-])cc2)nc1OCc1ccccc1

>  <Energy>  (54) 
59.8393320185032

>  <Genealogy>  (54) 
N=c1[n-]cc(-c2ccc(S(=O)(=O)[N-]c3ccc(O)cc3[O-])cc2)nc1OCc1ccccc1 (protonated)
[H]/N=c1/[n-]cc(-c2ccc(S(=O)(=O)[N-]c3ccc(O)cc3[O-])cc2)nc1OCc1ccccc1 (cis-trans isomerization)
[H]/N=c1/[n-]cc(-c2ccc(S(=O)(=O)[N-]c3ccc(O)cc3[O-])cc2)nc1OCc1ccccc1 (3D coordinates assigned)
[H]/N=c1/[n-]cc(-c2ccc(S(=O)(=O)[N-]c3ccc(O)cc3[O-])cc2)nc1OCc1ccccc1 (optimized conformer: 59.8393320185032 kcal/mol)

>  <smiles>  (54) 
N=c1[nH]cc(-c2ccc(S(=O)(=O)Nc3ccc(O)cc3O)cc2)nc1OCc1ccccc1

>  <score_type>  (54) 
oracle

>  <origin>  (54) 
adg

>  <m_score__min__energy>  (54) 
-14.94

>  <m_primary>  (54) 
energy

$$$$
54:0
     RDKit          3D

 45 46  0  0  0  0  0  0  0  0999 V2000
   58.1050   31.6630   44.2820 C   0  0  0  0  0  0  0  0  0  0  0  0
   58.2560   30.7460   45.4670 C   0  0  0  0  0  0  0  0  0  0  0  0
   59.1320   30.9960   46.5320 C   0  0  0  0  0  0  0  0  0  0  0  0
   59.9870   32.1790   46.7460 C   0  0  0  0  0  0  0  0  0  0  0  0
   61.1980   32.0010   47.0480 O   0  0  0  0  0  0  0  0  0  0  0  0
   59.4710   33.5200   46.6420 N   0  0  0  0  0  0  0  0  0  0  0  0
   60.3600   34.5960   46.2030 C   0  0  0  0  0  0  0  0  0  0  0  0
   58.1180   33.8560   47.0950 C   0  0  0  0  0  0  0  0  0  0  0  0
   59.1190   29.6700   47.5600 S   0  0  0  0  0  0  0  0  0  0  0  0
   57.9700   28.7770   46.7140 C   0  0  0  0  0  0  0  0  0  0  0  0
   57.4660   27.4850   47.1030 N   0  0  0  0  0  0  0  0  0  0  0  0
   58.2920   26.3840   47.5160 C   0  0  0  0  0  0  0  0  0  0  0  0
   59.4510   26.5790   47.9720 O   0  0  0  0  0  0  0  0  0  0  0  0
   57.7860   24.9790   47.3900 C   0  0  0  0  0  0  0  0  0  0  0  0
   56.3570   24.9790   47.0960 N   0  0  0  0  0  0  0  0  0  0  0  0
   55.8040   25.5480   45.9070 C   0  0  0  0  0  0  0  0  0  0  0  0
   54.7960   26.2980   46.0000 O   0  0  0  0  0  0  0  0  0  0  0  0
   56.3380   25.2060   44.6570 O   0  0  0  0  0  0  0  0  0  0  0  0
   56.7810   23.9310   44.2760 C   0  0  0  0  0  0  0  0  0  0  0  0
   57.9890   23.4620   44.8090 C   0  0  0  0  0  0  0  0  0  0  0  0
   58.4780   22.2010   44.4530 C   0  0  0  0  0  0  0  0  0  0  0  0
   57.7650   21.4030   43.5530 C   0  0  0  0  0  0  0  0  0  0  0  0
   56.5690   21.8690   43.0010 C   0  0  0  0  0  0  0  0  0  0  0  0
   56.0790   23.1300   43.3550 C   0  0  0  0  0  0  0  0  0  0  0  0
   57.5860   29.5030   45.5770 C   0  0  0  0  0  0  0  0  0  0  0  0
   56.6120   29.0180   44.5750 C   0  0  0  0  0  0  0  0  0  0  0  0
   56.9960   28.6330   43.4400 O   0  0  0  0  0  0  0  0  0  0  0  0
   55.2540   29.0110   44.8680 O   0  0  0  0  0  0  0  0  0  0  0  0
   57.9356   32.6915   44.6335 H   0  0  0  0  0  0  0  0  0  0  0  0
   59.0207   31.6296   43.6735 H   0  0  0  0  0  0  0  0  0  0  0  0
   57.2483   31.3377   43.6735 H   0  0  0  0  0  0  0  0  0  0  0  0
   60.7810   35.1055   47.0823 H   0  0  0  0  0  0  0  0  0  0  0  0
   61.1761   34.1736   45.5983 H   0  0  0  0  0  0  0  0  0  0  0  0
   59.7913   35.3178   45.5983 H   0  0  0  0  0  0  0  0  0  0  0  0
   58.0906   33.8628   48.1946 H   0  0  0  0  0  0  0  0  0  0  0  0
   57.8405   34.8503   46.7152 H   0  0  0  0  0  0  0  0  0  0  0  0
   57.4076   33.1070   46.7152 H   0  0  0  0  0  0  0  0  0  0  0  0
   56.4420   27.3050   47.0430 H   0  0  0  0  0  0  0  0  0  0  0  0
   58.3238   24.4714   46.5757 H   0  0  0  0  0  0  0  0  0  0  0  0
   57.9554   24.4515   48.3403 H   0  0  0  0  0  0  0  0  0  0  0  0
   58.5564   24.0896   45.5119 H   0  0  0  0  0  0  0  0  0  0  0  0
   59.4236   21.8369   44.8811 H   0  0  0  0  0  0  0  0  0  0  0  0
   58.1458   20.4079   43.2794 H   0  0  0  0  0  0  0  0  0  0  0  0
   56.0125   21.2435   42.2875 H   0  0  0  0  0  0  0  0  0  0  0  0
   55.1415   23.4976   42.9123 H   0  0  0  0  0  0  0  0  0  0  0  0
  1  2  1  0
  2  3  2  0
  3  4  1  0
  4  5  2  0
  4  6  1  0
  6  7  1  0
  6  8  1  0
  3  9  1  0
  9 10  1  0
 10 11  1  0
 11 12  1  0
 12 13  2  0
 12 14  1  0
 14 15  1  0
 15 16  1  0
 16 17  2  0
 16 18  1  0
 18 19  1  0
 19 20  2  0
 20 21  1  0
 21 22  2  0
 22 23  1  0
 23 24  2  0
 10 25  2  0
 25 26  1  0
 26 27  2  0
 26 28  1  0
 25  2  1  0
 24 19  1  0
  1 29  1  0
  1 30  1  0
  1 31  1  0
  7 32  1  0
  7 33  1  0
  7 34  1  0
  8 35  1  0
  8 36  1  0
  8 37  1  0
 11 38  1  0
 14 39  1  0
 14 40  1  0
 20 41  1  0
 21 42  1  0
 22 43  1  0
 23 44  1  0
 24 45  1  0
M  CHG  2  15  -1  28  -1
M  END
>  <UniqueID>  (55) 
53

>  <SMILES>  (55) 
Cc1c(C(=O)N(C)C)sc(NC(=O)C[N-]C(=O)Oc2ccccc2)c1C(=O)[O-]

>  <Energy>  (55) 
79.96027880048466

>  <Genealogy>  (55) 
Cc1c(C(=O)N(C)C)sc(NC(=O)C[N-]C(=O)Oc2ccccc2)c1C(=O)[O-] (protonated)
Cc1c(C(=O)N(C)C)sc(NC(=O)C[N-]C(=O)Oc2ccccc2)c1C(=O)[O-] (3D coordinates assigned)
Cc1c(C(=O)N(C)C)sc(NC(=O)C[N-]C(=O)Oc2ccccc2)c1C(=O)[O-] (optimized conformer: 79.96027880048466 kcal/mol)

>  <smiles>  (55) 
Cc1c(C(=O)N(C)C)sc(NC(=O)CNC(=O)Oc2ccccc2)c1C(=O)O

>  <score_type>  (55) 
oracle

>  <origin>  (55) 
adg

>  <m_score__min__energy>  (55) 
-11.67

>  <m_primary>  (55) 
energy

$$$$
55:0
     RDKit          3D

 77 81  0  0  0  0  0  0  0  0999 V2000
   61.1180   25.6540   53.3790 N   0  0  0  0  0  0  0  0  0  0  0  0
   61.5070   25.9780   51.7260 S   0  0  0  0  0  0  0  0  0  0  0  0
   62.7570   25.2310   51.3500 O   0  0  0  0  0  0  0  0  0  0  0  0
   60.3810   25.5060   50.8490 O   0  0  0  0  0  0  0  0  0  0  0  0
   61.7470   27.7080   51.5010 C   0  0  0  0  0  0  0  0  0  0  0  0
   62.8710   28.3380   52.0480 C   0  0  0  0  0  0  0  0  0  0  0  0
   63.0770   29.7050   51.8470 C   0  0  0  0  0  0  0  0  0  0  0  0
   62.1640   30.4510   51.0940 C   0  0  0  0  0  0  0  0  0  0  0  0
   61.0190   29.8350   50.5520 C   0  0  0  0  0  0  0  0  0  0  0  0
   60.0800   30.5620   49.7370 N   0  0  0  0  0  0  0  0  0  0  0  0
   59.3590   31.7280   50.1630 C   0  0  0  0  0  0  0  0  0  0  0  0
   59.2110   31.9720   51.3930 O   0  0  0  0  0  0  0  0  0  0  0  0
   58.7860   32.6770   49.1500 C   0  0  0  0  0  0  0  0  0  0  0  0
   59.6310   34.3000   49.1790 S   0  0  0  0  0  0  0  0  0  0  0  0
   61.0970   33.7340   48.2980 C   0  0  0  0  0  0  0  0  0  0  0  0
   62.0360   32.9350   48.9640 C   0  0  0  0  0  0  0  0  0  0  0  0
   63.2120   32.5460   48.3210 C   0  0  0  0  0  0  0  0  0  0  0  0
   63.4610   32.9690   47.0140 C   0  0  0  0  0  0  0  0  0  0  0  0
   62.5340   33.7750   46.3450 C   0  0  0  0  0  0  0  0  0  0  0  0
   61.3240   34.1200   46.9610 C   0  0  0  0  0  0  0  0  0  0  0  0
   60.2560   34.7040   46.1990 N   0  0  0  0  0  0  0  0  0  0  0  0
   58.9580   34.1260   46.0350 C   0  0  0  0  0  0  0  0  0  0  0  0
   57.9510   34.7980   46.4040 O   0  0  0  0  0  0  0  0  0  0  0  0
   58.7720   32.7430   45.5380 C   0  0  0  0  0  0  0  0  0  0  0  0
   57.8890   32.5030   44.4700 C   0  0  0  0  0  0  0  0  0  0  0  0
   57.6930   31.2070   43.9890 C   0  0  0  0  0  0  0  0  0  0  0  0
   58.3830   30.1350   44.5600 C   0  0  0  0  0  0  0  0  0  0  0  0
   59.2690   30.3500   45.6230 C   0  0  0  0  0  0  0  0  0  0  0  0
   60.2130   29.0000   46.2640 S   0  0  0  0  0  0  0  0  0  0  0  0
   61.0890   28.4420   45.1720 O   0  0  0  0  0  0  0  0  0  0  0  0
   61.1030   29.5090   47.3640 O   0  0  0  0  0  0  0  0  0  0  0  0
   59.1920   27.7320   46.9150 N   0  0  0  0  0  0  0  0  0  0  0  0
   59.6400   26.3950   46.4690 C   0  0  0  0  0  0  0  0  0  0  0  0
   58.4760   25.3990   46.3860 C   0  0  0  0  0  0  0  0  0  0  0  0
   57.4950   25.8420   45.3740 N   0  0  0  0  0  0  0  0  0  0  0  0
   56.2650   25.0280   45.4460 C   0  0  0  0  0  0  0  0  0  0  0  0
   56.4540   23.7160   44.7260 C   0  0  0  0  0  0  0  0  0  0  0  0
   56.8050   22.5640   45.4470 C   0  0  0  0  0  0  0  0  0  0  0  0
   57.0050   21.3490   44.7830 C   0  0  0  0  0  0  0  0  0  0  0  0
   56.8540   21.2730   43.3950 C   0  0  0  0  0  0  0  0  0  0  0  0
   56.4970   22.4160   42.6690 C   0  0  0  0  0  0  0  0  0  0  0  0
   56.3010   23.6330   43.3290 C   0  0  0  0  0  0  0  0  0  0  0  0
   57.2130   27.3030   45.4210 C   0  0  0  0  0  0  0  0  0  0  0  0
   57.7570   28.0020   46.6860 C   0  0  0  0  0  0  0  0  0  0  0  0
   59.4380   31.6490   46.1310 C   0  0  0  0  0  0  0  0  0  0  0  0
   60.8290   28.4550   50.7480 C   0  0  0  0  0  0  0  0  0  0  0  0
   60.6530   24.7200   53.4040 H   0  0  0  0  0  0  0  0  0  0  0  0
   63.5939   27.7552   52.6376 H   0  0  0  0  0  0  0  0  0  0  0  0
   63.9598   30.1963   52.2821 H   0  0  0  0  0  0  0  0  0  0  0  0
   62.3410   31.5233   50.9244 H   0  0  0  0  0  0  0  0  0  0  0  0
   59.9020   30.2090   48.7680 H   0  0  0  0  0  0  0  0  0  0  0  0
   58.8965   32.2366   48.1481 H   0  0  0  0  0  0  0  0  0  0  0  0
   57.7267   32.8402   49.3974 H   0  0  0  0  0  0  0  0  0  0  0  0
   61.8453   32.6129   49.9984 H   0  0  0  0  0  0  0  0  0  0  0  0
   63.9406   31.9079   48.8425 H   0  0  0  0  0  0  0  0  0  0  0  0
   64.3900   32.6672   46.5082 H   0  0  0  0  0  0  0  0  0  0  0  0
   62.7560   34.1394   45.3311 H   0  0  0  0  0  0  0  0  0  0  0  0
   57.3484   33.3432   44.0099 H   0  0  0  0  0  0  0  0  0  0  0  0
   56.9937   31.0297   43.1586 H   0  0  0  0  0  0  0  0  0  0  0  0
   58.2296   29.1169   44.1728 H   0  0  0  0  0  0  0  0  0  0  0  0
   60.1001   26.4878   45.4742 H   0  0  0  0  0  0  0  0  0  0  0  0
   60.3621   26.0143   47.2063 H   0  0  0  0  0  0  0  0  0  0  0  0
   58.8647   24.4088   46.1059 H   0  0  0  0  0  0  0  0  0  0  0  0
   57.9800   25.3449   47.3663 H   0  0  0  0  0  0  0  0  0  0  0  0
   56.0236   24.8301   46.5008 H   0  0  0  0  0  0  0  0  0  0  0  0
   55.4447   25.5814   44.9655 H   0  0  0  0  0  0  0  0  0  0  0  0
   56.9234   22.6168   46.5393 H   0  0  0  0  0  0  0  0  0  0  0  0
   57.2819   20.4508   45.3545 H   0  0  0  0  0  0  0  0  0  0  0  0
   57.0153   20.3175   42.8745 H   0  0  0  0  0  0  0  0  0  0  0  0
   56.3706   22.3564   41.5779 H   0  0  0  0  0  0  0  0  0  0  0  0
   56.0260   24.5296   42.7541 H   0  0  0  0  0  0  0  0  0  0  0  0
   57.6731   27.7736   44.5396 H   0  0  0  0  0  0  0  0  0  0  0  0
   56.1191   27.4180   45.4366 H   0  0  0  0  0  0  0  0  0  0  0  0
   57.6164   29.0874   46.5762 H   0  0  0  0  0  0  0  0  0  0  0  0
   57.2026   27.6050   47.5491 H   0  0  0  0  0  0  0  0  0  0  0  0
   60.0946   31.8147   46.9978 H   0  0  0  0  0  0  0  0  0  0  0  0
   59.9528   27.9573   50.3069 H   0  0  0  0  0  0  0  0  0  0  0  0
  1  2  1  0
  2  3  2  0
  2  4  2  0
  2  5  1  0
  5  6  2  0
  6  7  1  0
  7  8  2  0
  8  9  1  0
  9 10  1  0
 10 11  1  0
 11 12  2  0
 11 13  1  0
 13 14  1  0
 14 15  1  0
 15 16  2  0
 16 17  1  0
 17 18  2  0
 18 19  1  0
 19 20  2  0
 20 21  1  0
 21 22  1  0
 22 23  2  0
 22 24  1  0
 24 25  2  0
 25 26  1  0
 26 27  2  0
 27 28  1  0
 28 29  1  0
 29 30  2  0
 29 31  2  0
 29 32  1  0
 32 33  1  0
 33 34  1  0
 34 35  1  0
 35 36  1  0
 36 37  1  0
 37 38  2  0
 38 39  1  0
 39 40  2  0
 40 41  1  0
 41 42  2  0
 35 43  1  0
 43 44  1  0
 28 45  2  0
  9 46  2  0
 46  5  1  0
 20 15  1  0
 45 24  1  0
 44 32  1  0
 42 37  1  0
  1 47  1  0
  6 48  1  0
  7 49  1  0
  8 50  1  0
 10 51  1  0
 13 52  1  0
 13 53  1  0
 16 54  1  0
 17 55  1  0
 18 56  1  0
 19 57  1  0
 25 58  1  0
 26 59  1  0
 27 60  1  0
 33 61  1  0
 33 62  1  0
 34 63  1  0
 34 64  1  0
 36 65  1  0
 36 66  1  0
 38 67  1  0
 39 68  1  0
 40 69  1  0
 41 70  1  0
 42 71  1  0
 43 72  1  0
 43 73  1  0
 44 74  1  0
 44 75  1  0
 45 76  1  0
 46 77  1  0
M  CHG  2   1  -1  21  -1
M  END
>  <UniqueID>  (56) 
54

>  <SMILES>  (56) 
[NH-]S(=O)(=O)c1cccc(NC(=O)CSc2ccccc2[N-]C(=O)c2cccc(S(=O)(=O)N3CCN(Cc4ccccc4)CC3)c2)c1

>  <Energy>  (56) 
107.0143686027022

>  <Genealogy>  (56) 
[NH-]S(=O)(=O)c1cccc(NC(=O)CSc2ccccc2[N-]C(=O)c2cccc(S(=O)(=O)N3CCN(Cc4ccccc4)CC3)c2)c1 (protonated)
[NH-]S(=O)(=O)c1cccc(NC(=O)CSc2ccccc2[N-]C(=O)c2cccc(S(=O)(=O)N3CCN(Cc4ccccc4)CC3)c2)c1 (3D coordinates assigned)
[NH-]S(=O)(=O)c1cccc(NC(=O)CSc2ccccc2[N-]C(=O)c2cccc(S(=O)(=O)N3CCN(Cc4ccccc4)CC3)c2)c1 (nonaromatic ring conformer: 107.0143686027022 kcal/mol)

>  <smiles>  (56) 
NS(=O)(=O)c1cccc(NC(=O)CSc2ccccc2NC(=O)c2cccc(S(=O)(=O)N3CCN(Cc4ccccc4)CC3)c2)c1

>  <score_type>  (56) 
oracle

>  <origin>  (56) 
adg

>  <m_score__min__energy>  (56) 
-13

>  <m_primary>  (56) 
energy

$$$$
56:0
     RDKit          3D

 43 45  0  0  0  0  0  0  0  0999 V2000
   60.7680   27.0560   49.2240 C   0  0  0  0  0  0  0  0  0  0  0  0
   60.6310   27.3060   47.8300 O   0  0  0  0  0  0  0  0  0  0  0  0
   59.4300   27.6660   47.1960 C   0  0  0  0  0  0  0  0  0  0  0  0
   58.5210   26.6950   46.7330 C   0  0  0  0  0  0  0  0  0  0  0  0
   57.3400   27.0770   46.0960 C   0  0  0  0  0  0  0  0  0  0  0  0
   57.0330   28.4280   45.9190 C   0  0  0  0  0  0  0  0  0  0  0  0
   55.8210   28.7740   45.2330 N   0  0  0  0  0  0  0  0  0  0  0  0
   55.6850   29.7160   44.1610 C   0  0  0  0  0  0  0  0  0  0  0  0
   54.8420   29.5200   43.2430 O   0  0  0  0  0  0  0  0  0  0  0  0
   56.5770   30.8880   44.1110 C   0  0  0  0  0  0  0  0  0  0  0  0
   57.3600   31.1690   42.9790 C   0  0  0  0  0  0  0  0  0  0  0  0
   58.1650   32.2630   42.9770 N   0  0  0  0  0  0  0  0  0  0  0  0
   58.2290   33.0940   44.0500 C   0  0  0  0  0  0  0  0  0  0  0  0
   57.4520   32.8200   45.1760 C   0  0  0  0  0  0  0  0  0  0  0  0
   56.6460   31.7270   45.1810 N   0  0  0  0  0  0  0  0  0  0  0  0
   57.9460   29.4010   46.3550 C   0  0  0  0  0  0  0  0  0  0  0  0
   59.1320   29.0310   47.0070 C   0  0  0  0  0  0  0  0  0  0  0  0
   60.2500   30.3020   47.5210 S   0  0  0  0  0  0  0  0  0  0  0  0
   60.5810   30.0920   48.9730 O   0  0  0  0  0  0  0  0  0  0  0  0
   61.5300   30.2320   46.7330 O   0  0  0  0  0  0  0  0  0  0  0  0
   59.5080   31.8710   47.3190 N   0  0  0  0  0  0  0  0  0  0  0  0
   60.4890   32.8270   46.7740 C   0  0  0  0  0  0  0  0  0  0  0  0
   60.0010   34.2710   46.9760 C   0  0  0  0  0  0  0  0  0  0  0  0
   59.7430   34.6300   48.3300 O   0  0  0  0  0  0  0  0  0  0  0  0
   59.6440   33.5190   49.2060 C   0  0  0  0  0  0  0  0  0  0  0  0
   58.8860   32.3350   48.5800 C   0  0  0  0  0  0  0  0  0  0  0  0
   60.3150   27.8826   49.7910 H   0  0  0  0  0  0  0  0  0  0  0  0
   60.2598   26.1144   49.4793 H   0  0  0  0  0  0  0  0  0  0  0  0
   61.8351   26.9777   49.4793 H   0  0  0  0  0  0  0  0  0  0  0  0
   58.7439   25.6272   46.8747 H   0  0  0  0  0  0  0  0  0  0  0  0
   56.6445   26.3074   45.7299 H   0  0  0  0  0  0  0  0  0  0  0  0
   57.3215   30.5079   42.1007 H   0  0  0  0  0  0  0  0  0  0  0  0
   58.8875   33.9749   44.0311 H   0  0  0  0  0  0  0  0  0  0  0  0
   57.4919   33.4837   46.0523 H   0  0  0  0  0  0  0  0  0  0  0  0
   57.7292   30.4657   46.1835 H   0  0  0  0  0  0  0  0  0  0  0  0
   61.4506   32.6939   47.2913 H   0  0  0  0  0  0  0  0  0  0  0  0
   60.6095   32.6389   45.6969 H   0  0  0  0  0  0  0  0  0  0  0  0
   60.7711   34.9508   46.5825 H   0  0  0  0  0  0  0  0  0  0  0  0
   59.0404   34.3504   46.4460 H   0  0  0  0  0  0  0  0  0  0  0  0
   60.6591   33.1872   49.4697 H   0  0  0  0  0  0  0  0  0  0  0  0
   59.0792   33.8439   50.0923 H   0  0  0  0  0  0  0  0  0  0  0  0
   58.8778   31.5014   49.2977 H   0  0  0  0  0  0  0  0  0  0  0  0
   57.8663   32.6750   48.3462 H   0  0  0  0  0  0  0  0  0  0  0  0
  1  2  1  0
  2  3  1  0
  3  4  2  0
  4  5  1  0
  5  6  2  0
  6  7  1  0
  7  8  1  0
  8  9  2  0
  8 10  1  0
 10 11  2  0
 11 12  1  0
 12 13  2  0
 13 14  1  0
 14 15  2  0
  6 16  1  0
 16 17  2  0
 17 18  1  0
 18 19  2  0
 18 20  2  0
 18 21  1  0
 21 22  1  0
 22 23  1  0
 23 24  1  0
 24 25  1  0
 25 26  1  0
 17  3  1  0
 26 21  1  0
 15 10  1  0
  1 27  1  0
  1 28  1  0
  1 29  1  0
  4 30  1  0
  5 31  1  0
 11 32  1  0
 13 33  1  0
 14 34  1  0
 16 35  1  0
 22 36  1  0
 22 37  1  0
 23 38  1  0
 23 39  1  0
 25 40  1  0
 25 41  1  0
 26 42  1  0
 26 43  1  0
M  CHG  1   7  -1
M  END
>  <UniqueID>  (57) 
55

>  <SMILES>  (57) 
COc1ccc([N-]C(=O)c2cnccn2)cc1S(=O)(=O)N1CCOCC1

>  <Energy>  (57) 
62.189853983946165

>  <Genealogy>  (57) 
COc1ccc([N-]C(=O)c2cnccn2)cc1S(=O)(=O)N1CCOCC1 (protonated)
COc1ccc([N-]C(=O)c2cnccn2)cc1S(=O)(=O)N1CCOCC1 (3D coordinates assigned)
COc1ccc([N-]C(=O)c2cnccn2)cc1S(=O)(=O)N1CCOCC1 (nonaromatic ring conformer: 62.189853983946165 kcal/mol)

>  <smiles>  (57) 
COc1ccc(NC(=O)c2cnccn2)cc1S(=O)(=O)N1CCOCC1

>  <score_type>  (57) 
oracle

>  <origin>  (57) 
adg

>  <m_score__min__energy>  (57) 
-10.02

>  <m_primary>  (57) 
energy

$$$$
57:0
     RDKit          3D

 39 41  0  0  0  0  0  0  0  0999 V2000
   57.4650   28.4450   43.7520 C   0  0  0  0  0  0  0  0  0  0  0  0
   56.5080   29.8490   44.2820 S   0  0  0  0  0  0  0  0  0  0  0  0
   56.3300   30.8210   43.1510 O   0  0  0  0  0  0  0  0  0  0  0  0
   55.1550   29.3690   44.7230 O   0  0  0  0  0  0  0  0  0  0  0  0
   57.2850   30.6290   45.6220 N   0  0  0  0  0  0  0  0  0  0  0  0
   57.8260   31.9600   45.6310 C   0  0  0  0  0  0  0  0  0  0  0  0
   57.2920   32.9760   44.8190 C   0  0  0  0  0  0  0  0  0  0  0  0
   57.8260   34.2630   44.8570 C   0  0  0  0  0  0  0  0  0  0  0  0
   58.8960   34.5530   45.7010 C   0  0  0  0  0  0  0  0  0  0  0  0
   59.4500   33.5570   46.5210 C   0  0  0  0  0  0  0  0  0  0  0  0
   60.5730   33.9150   47.4210 C   0  0  0  0  0  0  0  0  0  0  0  0
   61.7000   34.1840   46.9280 O   0  0  0  0  0  0  0  0  0  0  0  0
   60.3830   34.0890   48.8340 N   0  0  0  0  0  0  0  0  0  0  0  0
   61.2550   33.8480   49.7700 C   0  0  0  0  0  0  0  0  0  0  0  0
   62.5990   33.8480   49.6040 N   0  0  0  0  0  0  0  0  0  0  0  0
   63.2640   33.5690   50.7610 C   0  0  0  0  0  0  0  0  0  0  0  0
   64.7440   33.4860   50.8250 C   0  0  0  0  0  0  0  0  0  0  0  0
   65.4820   34.3790   51.6250 C   0  0  0  0  0  0  0  0  0  0  0  0
   66.8760   34.2950   51.6790 C   0  0  0  0  0  0  0  0  0  0  0  0
   67.5480   33.3200   50.9410 C   0  0  0  0  0  0  0  0  0  0  0  0
   66.8280   32.4250   50.1460 C   0  0  0  0  0  0  0  0  0  0  0  0
   65.4340   32.5050   50.0880 C   0  0  0  0  0  0  0  0  0  0  0  0
   62.4310   33.3690   51.8670 C   0  0  0  0  0  0  0  0  0  0  0  0
   60.8330   33.5390   51.3630 S   0  0  0  0  0  0  0  0  0  0  0  0
   58.9080   32.2510   46.4850 C   0  0  0  0  0  0  0  0  0  0  0  0
   59.5650   30.8650   47.6500 Br  0  0  0  0  0  0  0  0  0  0  0  0
   57.8361   27.9006   44.6329 H   0  0  0  0  0  0  0  0  0  0  0  0
   56.8330   27.7775   43.1478 H   0  0  0  0  0  0  0  0  0  0  0  0
   58.3173   28.7892   43.1478 H   0  0  0  0  0  0  0  0  0  0  0  0
   56.4478   32.7539   44.1497 H   0  0  0  0  0  0  0  0  0  0  0  0
   57.4014   35.0520   44.2188 H   0  0  0  0  0  0  0  0  0  0  0  0
   59.3105   35.5716   45.7251 H   0  0  0  0  0  0  0  0  0  0  0  0
   63.0860   34.1000   48.7170 H   0  0  0  0  0  0  0  0  0  0  0  0
   64.9579   35.1480   52.2115 H   0  0  0  0  0  0  0  0  0  0  0  0
   67.4445   34.9989   52.3045 H   0  0  0  0  0  0  0  0  0  0  0  0
   68.6452   33.2561   50.9852 H   0  0  0  0  0  0  0  0  0  0  0  0
   67.3589   31.6565   49.5650 H   0  0  0  0  0  0  0  0  0  0  0  0
   64.8719   31.7964   49.4620 H   0  0  0  0  0  0  0  0  0  0  0  0
   62.7629   33.1400   52.8904 H   0  0  0  0  0  0  0  0  0  0  0  0
  1  2  1  0
  2  3  2  0
  2  4  2  0
  2  5  1  0
  5  6  1  0
  6  7  2  0
  7  8  1  0
  8  9  2  0
  9 10  1  0
 10 11  1  0
 11 12  2  0
 11 13  1  0
 13 14  2  3
 14 15  1  0
 15 16  1  0
 16 17  1  0
 17 18  2  0
 18 19  1  0
 19 20  2  0
 20 21  1  0
 21 22  2  0
 16 23  2  0
 23 24  1  0
 10 25  2  0
 25 26  1  0
 25  6  1  0
 24 14  1  0
 22 17  1  0
  1 27  1  0
  1 28  1  0
  1 29  1  0
  7 30  1  0
  8 31  1  0
  9 32  1  0
 15 33  1  0
 18 34  1  0
 19 35  1  0
 20 36  1  0
 21 37  1  0
 22 38  1  0
 23 39  1  0
M  CHG  1   5  -1
M  END
>  <UniqueID>  (58) 
56

>  <SMILES>  (58) 
CS(=O)(=O)[N-]c1cccc(C(=O)N=c2[nH]c(-c3ccccc3)cs2)c1Br

>  <Energy>  (58) 
84.97559226440785

>  <Genealogy>  (58) 
CS(=O)(=O)[N-]c1cccc(C(=O)N=c2[nH]c(-c3ccccc3)cs2)c1Br (protonated)
CS(=O)(=O)[N-]c1cccc(C(=O)N=c2[nH]c(-c3ccccc3)cs2)c1Br (3D coordinates assigned)
CS(=O)(=O)[N-]c1cccc(C(=O)N=c2[nH]c(-c3ccccc3)cs2)c1Br (optimized conformer: 84.97559226440785 kcal/mol)

>  <smiles>  (58) 
CS(=O)(=O)Nc1cccc(C(=O)N=c2[nH]c(-c3ccccc3)cs2)c1Br

>  <score_type>  (58) 
oracle

>  <origin>  (58) 
adg

>  <m_score__min__energy>  (58) 
-11.26

>  <m_primary>  (58) 
energy

$$$$
58:0
     RDKit          3D

 54 57  0  0  0  0  0  0  0  0999 V2000
   53.6940   20.2690   45.6940 N   0  0  0  0  0  0  0  0  0  0  0  0
   53.2570   21.7850   46.4010 S   0  0  0  0  0  0  0  0  0  0  0  0
   52.2870   21.5480   47.5250 O   0  0  0  0  0  0  0  0  0  0  0  0
   52.5940   22.6500   45.3660 O   0  0  0  0  0  0  0  0  0  0  0  0
   54.7000   22.5880   47.0080 C   0  0  0  0  0  0  0  0  0  0  0  0
   55.3740   22.0880   48.1300 C   0  0  0  0  0  0  0  0  0  0  0  0
   56.5280   22.7230   48.5960 C   0  0  0  0  0  0  0  0  0  0  0  0
   57.0210   23.8540   47.9400 C   0  0  0  0  0  0  0  0  0  0  0  0
   56.3620   24.3580   46.8070 C   0  0  0  0  0  0  0  0  0  0  0  0
   56.8810   25.5490   46.0950 C   0  0  0  0  0  0  0  0  0  0  0  0
   58.2110   25.5640   45.6490 C   0  0  0  0  0  0  0  0  0  0  0  0
   58.7410   26.7000   45.0390 C   0  0  0  0  0  0  0  0  0  0  0  0
   57.9610   27.8540   44.8830 C   0  0  0  0  0  0  0  0  0  0  0  0
   58.6110   29.1130   44.3690 C   0  0  0  0  0  0  0  0  0  0  0  0
   58.4360   30.2190   45.3260 N   0  0  0  0  0  0  0  0  0  0  0  0
   59.5700   30.3500   46.2610 C   0  0  0  0  0  0  0  0  0  0  0  0
   59.0970   30.7270   47.6510 C   0  0  0  0  0  0  0  0  0  0  0  0
   58.9380   29.7070   48.6080 C   0  0  0  0  0  0  0  0  0  0  0  0
   58.6060   30.0120   49.9300 C   0  0  0  0  0  0  0  0  0  0  0  0
   58.4140   31.3370   50.3140 C   0  0  0  0  0  0  0  0  0  0  0  0
   58.5310   32.3620   49.3750 C   0  0  0  0  0  0  0  0  0  0  0  0
   58.8520   32.0740   48.0360 C   0  0  0  0  0  0  0  0  0  0  0  0
   58.9330   33.2000   47.0760 C   0  0  0  0  0  0  0  0  0  0  0  0
   58.0160   33.2890   46.0150 C   0  0  0  0  0  0  0  0  0  0  0  0
   58.0940   34.3460   45.1020 C   0  0  0  0  0  0  0  0  0  0  0  0
   59.0970   35.3100   45.2320 C   0  0  0  0  0  0  0  0  0  0  0  0
   60.0310   35.2120   46.2660 C   0  0  0  0  0  0  0  0  0  0  0  0
   59.9560   34.1570   47.1800 C   0  0  0  0  0  0  0  0  0  0  0  0
   56.6120   27.8330   45.2900 C   0  0  0  0  0  0  0  0  0  0  0  0
   55.8060   28.9550   45.1240 O   0  0  0  0  0  0  0  0  0  0  0  0
   56.0770   26.6890   45.8970 C   0  0  0  0  0  0  0  0  0  0  0  0
   54.7580   26.7100   46.3410 O   0  0  0  0  0  0  0  0  0  0  0  0
   55.1970   23.7200   46.3490 C   0  0  0  0  0  0  0  0  0  0  0  0
   52.9440   19.5880   45.9490 H   0  0  0  0  0  0  0  0  0  0  0  0
   54.9938   21.1935   48.6451 H   0  0  0  0  0  0  0  0  0  0  0  0
   57.0499   22.3315   49.4817 H   0  0  0  0  0  0  0  0  0  0  0  0
   57.9287   24.3514   48.3125 H   0  0  0  0  0  0  0  0  0  0  0  0
   58.8409   24.6720   45.7817 H   0  0  0  0  0  0  0  0  0  0  0  0
   59.7798   26.6906   44.6772 H   0  0  0  0  0  0  0  0  0  0  0  0
   59.6856   28.9300   44.2216 H   0  0  0  0  0  0  0  0  0  0  0  0
   58.1365   29.3918   43.4166 H   0  0  0  0  0  0  0  0  0  0  0  0
   57.5840   30.0030   45.8950 H   0  0  0  0  0  0  0  0  0  0  0  0
   60.1047   29.3901   46.3125 H   0  0  0  0  0  0  0  0  0  0  0  0
   60.2338   31.1459   45.8924 H   0  0  0  0  0  0  0  0  0  0  0  0
   59.0769   28.6570   48.3111 H   0  0  0  0  0  0  0  0  0  0  0  0
   58.4960   29.2046   50.6689 H   0  0  0  0  0  0  0  0  0  0  0  0
   58.1697   31.5756   51.3596 H   0  0  0  0  0  0  0  0  0  0  0  0
   58.3707   33.4053   49.6845 H   0  0  0  0  0  0  0  0  0  0  0  0
   57.2335   32.5242   45.9019 H   0  0  0  0  0  0  0  0  0  0  0  0
   57.3652   34.4183   44.2812 H   0  0  0  0  0  0  0  0  0  0  0  0
   59.1511   36.1465   44.5197 H   0  0  0  0  0  0  0  0  0  0  0  0
   60.8264   35.9658   46.3611 H   0  0  0  0  0  0  0  0  0  0  0  0
   60.7017   34.0758   47.9846 H   0  0  0  0  0  0  0  0  0  0  0  0
   54.6710   24.1124   45.4661 H   0  0  0  0  0  0  0  0  0  0  0  0
  1  2  1  0
  2  3  2  0
  2  4  2  0
  2  5  1  0
  5  6  2  0
  6  7  1  0
  7  8  2  0
  8  9  1  0
  9 10  1  0
 10 11  2  0
 11 12  1  0
 12 13  2  0
 13 14  1  0
 14 15  1  0
 15 16  1  0
 16 17  1  0
 17 18  2  0
 18 19  1  0
 19 20  2  0
 20 21  1  0
 21 22  2  0
 22 23  1  0
 23 24  2  0
 24 25  1  0
 25 26  2  0
 26 27  1  0
 27 28  2  0
 13 29  1  0
 29 30  1  0
 29 31  2  0
 31 32  1  0
  9 33  2  0
 33  5  1  0
 31 10  1  0
 22 17  1  0
 28 23  1  0
  1 34  1  0
  6 35  1  0
  7 36  1  0
  8 37  1  0
 11 38  1  0
 12 39  1  0
 14 40  1  0
 14 41  1  0
 15 42  1  0
 16 43  1  0
 16 44  1  0
 18 45  1  0
 19 46  1  0
 20 47  1  0
 21 48  1  0
 24 49  1  0
 25 50  1  0
 26 51  1  0
 27 52  1  0
 28 53  1  0
 33 54  1  0
M  CHG  3   1  -1  30  -1  32  -1
M  END
>  <UniqueID>  (59) 
57

>  <SMILES>  (59) 
[NH-]S(=O)(=O)c1cccc(-c2ccc(CNCc3ccccc3-c3ccccc3)c([O-])c2[O-])c1

>  <Energy>  (59) 
68.38472428015956

>  <Genealogy>  (59) 
[NH-]S(=O)(=O)c1cccc(-c2ccc(CNCc3ccccc3-c3ccccc3)c([O-])c2[O-])c1 (protonated)
[NH-]S(=O)(=O)c1cccc(-c2ccc(CNCc3ccccc3-c3ccccc3)c([O-])c2[O-])c1 (3D coordinates assigned)
[NH-]S(=O)(=O)c1cccc(-c2ccc(CNCc3ccccc3-c3ccccc3)c([O-])c2[O-])c1 (optimized conformer: 68.38472428015956 kcal/mol)

>  <smiles>  (59) 
NS(=O)(=O)c1cccc(-c2ccc(CNCc3ccccc3-c3ccccc3)c(O)c2O)c1

>  <score_type>  (59) 
oracle

>  <origin>  (59) 
adg

>  <m_score__min__energy>  (59) 
-18.350000000000001

>  <m_primary>  (59) 
energy

$$$$
59:0
     RDKit          3D

 38 41  0  0  0  0  0  0  0  0999 V2000
   60.7720   34.6110   46.3540 C   0  0  0  0  0  0  0  0  0  0  0  0
   59.9440   33.3820   46.1240 C   0  0  0  0  0  0  0  0  0  0  0  0
   58.7590   33.4600   45.3780 C   0  0  0  0  0  0  0  0  0  0  0  0
   57.9640   32.3250   45.1900 C   0  0  0  0  0  0  0  0  0  0  0  0
   58.3380   31.0940   45.7590 C   0  0  0  0  0  0  0  0  0  0  0  0
   57.5670   29.9280   45.5890 C   0  0  0  0  0  0  0  0  0  0  0  0
   56.5230   29.9650   44.8780 O   0  0  0  0  0  0  0  0  0  0  0  0
   57.9750   28.7170   46.1910 C   0  0  0  0  0  0  0  0  0  0  0  0
   57.1830   27.4690   46.0390 C   0  0  0  0  0  0  0  0  0  0  0  0
   57.6930   26.1790   46.0220 C   0  0  0  0  0  0  0  0  0  0  0  0
   56.6150   25.3360   45.8380 C   0  0  0  0  0  0  0  0  0  0  0  0
   56.6620   23.8560   45.7480 C   0  0  0  0  0  0  0  0  0  0  0  0
   56.2540   23.1880   44.5800 C   0  0  0  0  0  0  0  0  0  0  0  0
   56.3080   21.7920   44.5050 C   0  0  0  0  0  0  0  0  0  0  0  0
   55.9030   21.1500   43.3400 O   0  0  0  0  0  0  0  0  0  0  0  0
   56.7720   21.0440   45.5920 C   0  0  0  0  0  0  0  0  0  0  0  0
   56.8160   19.6530   45.4980 O   0  0  0  0  0  0  0  0  0  0  0  0
   57.1880   21.7030   46.7600 C   0  0  0  0  0  0  0  0  0  0  0  0
   57.6540   20.9780   47.8510 O   0  0  0  0  0  0  0  0  0  0  0  0
   57.1360   23.0990   46.8330 C   0  0  0  0  0  0  0  0  0  0  0  0
   55.5070   26.1610   45.7600 C   0  0  0  0  0  0  0  0  0  0  0  0
   54.1920   25.7360   45.6130 O   0  0  0  0  0  0  0  0  0  0  0  0
   55.8430   27.4580   45.8760 N   0  0  0  0  0  0  0  0  0  0  0  0
   59.1700   28.7060   46.9380 C   0  0  0  0  0  0  0  0  0  0  0  0
   59.6150   27.5440   47.5560 O   0  0  0  0  0  0  0  0  0  0  0  0
   59.8990   29.8430   47.0820 N   0  0  0  0  0  0  0  0  0  0  0  0
   59.5230   31.0210   46.5230 C   0  0  0  0  0  0  0  0  0  0  0  0
   60.3140   32.1620   46.7070 C   0  0  0  0  0  0  0  0  0  0  0  0
   60.8856   34.7796   47.4351 H   0  0  0  0  0  0  0  0  0  0  0  0
   61.7638   34.4756   45.8978 H   0  0  0  0  0  0  0  0  0  0  0  0
   60.2740   35.4793   45.8978 H   0  0  0  0  0  0  0  0  0  0  0  0
   58.4528   34.4205   44.9378 H   0  0  0  0  0  0  0  0  0  0  0  0
   57.0419   32.3951   44.5944 H   0  0  0  0  0  0  0  0  0  0  0  0
   58.7474   25.8858   46.1331 H   0  0  0  0  0  0  0  0  0  0  0  0
   55.8896   23.7673   43.7188 H   0  0  0  0  0  0  0  0  0  0  0  0
   57.0120   19.1780   44.6250 H   0  0  0  0  0  0  0  0  0  0  0  0
   57.4694   23.6092   47.7487 H   0  0  0  0  0  0  0  0  0  0  0  0
   61.2305   32.1005   47.3122 H   0  0  0  0  0  0  0  0  0  0  0  0
  1  2  1  0
  2  3  2  0
  3  4  1  0
  4  5  2  0
  5  6  1  0
  6  7  2  0
  6  8  1  0
  8  9  1  0
  9 10  2  0
 10 11  1  0
 11 12  1  0
 12 13  2  0
 13 14  1  0
 14 15  1  0
 14 16  2  0
 16 17  1  0
 16 18  1  0
 18 19  1  0
 18 20  2  0
 11 21  2  0
 21 22  1  0
 21 23  1  0
  8 24  2  0
 24 25  1  0
 24 26  1  0
 26 27  1  0
 27 28  2  0
 28  2  1  0
 27  5  1  0
 23  9  1  0
 20 12  1  0
  1 29  1  0
  1 30  1  0
  1 31  1  0
  3 32  1  0
  4 33  1  0
 10 34  1  0
 13 35  1  0
 17 36  1  0
 20 37  1  0
 28 38  1  0
M  CHG  6  15  -1  19  -1  22  -1  23  -1  25  -1  26  -1
M  END
>  <UniqueID>  (60) 
58

>  <SMILES>  (60) 
Cc1ccc2c(=O)c(-c3cc(-c4cc([O-])c(O)c([O-])c4)c([O-])[n-]3)c([O-])[n-]c2c1

>  <Energy>  (60) 
82.8214016688749

>  <Genealogy>  (60) 
Cc1ccc2c(=O)c(-c3cc(-c4cc([O-])c(O)c([O-])c4)c([O-])[n-]3)c([O-])[n-]c2c1 (protonated)
Cc1ccc2c(=O)c(-c3cc(-c4cc([O-])c(O)c([O-])c4)c([O-])[n-]3)c([O-])[n-]c2c1 (3D coordinates assigned)
Cc1ccc2c(=O)c(-c3cc(-c4cc([O-])c(O)c([O-])c4)c([O-])[n-]3)c([O-])[n-]c2c1 (optimized conformer: 82.8214016688749 kcal/mol)

>  <smiles>  (60) 
Cc1ccc2c(=O)c(-c3cc(-c4cc(O)c(O)c(O)c4)c(O)[nH]3)c(O)[nH]c2c1

>  <score_type>  (60) 
oracle

>  <origin>  (60) 
adg

>  <m_score__min__energy>  (60) 
-19.760000000000002

>  <m_primary>  (60) 
energy

$$$$
60:0
     RDKit          3D

 43 46  0  0  0  0  0  0  0  0999 V2000
   64.8650   32.8890   48.4193 H   0  0  0  0  0  0  0  0  0  0  0  0
   63.8460   33.2580   48.2310 C   0  0  0  0  0  0  0  0  0  0  0  0
   63.0290   33.6320   49.3020 C   0  0  0  0  0  0  0  0  0  0  0  0
   63.4055   33.5546   50.3327 H   0  0  0  0  0  0  0  0  0  0  0  0
   61.7350   34.1040   49.0660 C   0  0  0  0  0  0  0  0  0  0  0  0
   61.0925   34.3895   49.9120 H   0  0  0  0  0  0  0  0  0  0  0  0
   61.2520   34.2150   47.7500 C   0  0  0  0  0  0  0  0  0  0  0  0
   59.8470   34.6860   47.4950 C   0  0  0  0  0  0  0  0  0  0  0  0
   59.8720   35.5619   46.8300 H   0  0  0  0  0  0  0  0  0  0  0  0
   59.3786   34.9564   48.4529 H   0  0  0  0  0  0  0  0  0  0  0  0
   59.0490   33.5980   46.8500 C   0  0  0  0  0  0  0  0  0  0  0  0
   57.9160   33.8190   45.6230 S   0  0  0  0  0  0  0  0  0  0  0  0
   57.4730   32.1880   45.6080 C   0  0  0  0  0  0  0  0  0  0  0  0
   56.5870   31.6300   44.8350 N   0  0  0  0  0  0  0  0  0  0  0  0
   56.5310   30.2560   44.4160 C   0  0  0  0  0  0  0  0  0  0  0  0
   55.4670   29.5850   44.5000 O   0  0  0  0  0  0  0  0  0  0  0  0
   57.7530   29.6270   43.8270 C   0  0  0  0  0  0  0  0  0  0  0  0
   57.7824   29.8306   42.7464 H   0  0  0  0  0  0  0  0  0  0  0  0
   58.6454   30.0501   44.3113 H   0  0  0  0  0  0  0  0  0  0  0  0
   57.7280   28.1730   44.0480 N   0  0  0  0  0  0  0  0  0  0  0  0
   57.7980   27.3370   42.9680 C   0  0  0  0  0  0  0  0  0  0  0  0
   57.8950   27.7604   41.9574 H   0  0  0  0  0  0  0  0  0  0  0  0
   57.7490   25.9900   43.1300 N   0  0  0  0  0  0  0  0  0  0  0  0
   57.6200   25.4330   44.3590 C   0  0  0  0  0  0  0  0  0  0  0  0
   57.5720   24.0410   44.4960 C   0  0  0  0  0  0  0  0  0  0  0  0
   57.6429   23.3983   43.6061 H   0  0  0  0  0  0  0  0  0  0  0  0
   57.4340   23.4670   45.7630 C   0  0  0  0  0  0  0  0  0  0  0  0
   57.3977   22.3727   45.8689 H   0  0  0  0  0  0  0  0  0  0  0  0
   57.3420   24.2810   46.8960 C   0  0  0  0  0  0  0  0  0  0  0  0
   57.2331   23.8252   47.8912 H   0  0  0  0  0  0  0  0  0  0  0  0
   57.3880   25.6730   46.7680 C   0  0  0  0  0  0  0  0  0  0  0  0
   57.3140   26.3098   47.6619 H   0  0  0  0  0  0  0  0  0  0  0  0
   57.5290   26.2600   45.4960 C   0  0  0  0  0  0  0  0  0  0  0  0
   57.5820   27.6530   45.3100 C   0  0  0  0  0  0  0  0  0  0  0  0
   57.4900   28.4240   46.3070 O   0  0  0  0  0  0  0  0  0  0  0  0
   58.1660   31.4870   46.5310 N   0  0  0  0  0  0  0  0  0  0  0  0
   58.0450   30.4630   46.6980 H   0  0  0  0  0  0  0  0  0  0  0  0
   59.0360   32.2610   47.2310 C   0  0  0  0  0  0  0  0  0  0  0  0
   59.6764   31.8632   48.0320 H   0  0  0  0  0  0  0  0  0  0  0  0
   62.0740   33.8250   46.6800 C   0  0  0  0  0  0  0  0  0  0  0  0
   61.6983   33.8911   45.6483 H   0  0  0  0  0  0  0  0  0  0  0  0
   63.3680   33.3530   46.9210 C   0  0  0  0  0  0  0  0  0  0  0  0
   64.0104   33.0562   46.0788 H   0  0  0  0  0  0  0  0  0  0  0  0
  1  2  1  0
  2  3  2  0
  3  4  1  0
  3  5  1  0
  5  6  1  0
  5  7  2  0
  7  8  1  0
  8  9  1  0
  8 10  1  0
  8 11  1  0
 11 12  1  0
 12 13  1  0
 13 14  2  0
 14 15  1  0
 15 16  2  0
 15 17  1  0
 17 18  1  0
 17 19  1  0
 17 20  1  0
 20 21  1  0
 21 22  1  0
 21 23  2  0
 23 24  1  0
 24 25  2  0
 25 26  1  0
 25 27  1  0
 27 28  1  0
 27 29  2  0
 29 30  1  0
 29 31  1  0
 31 32  1  0
 31 33  2  0
 33 34  1  0
 34 35  2  0
 13 36  1  0
 36 37  1  0
 36 38  1  0
 38 39  1  0
  7 40  1  0
 40 41  1  0
 40 42  2  0
 42 43  1  0
 42  2  1  0
 38 11  2  0
 34 20  1  0
 33 24  1  0
M  END
>  <UniqueID>  (61) 
59

>  <SMILES>  (61) 
O=C(Cn1cnc2ccccc2c1=O)/N=c1/[nH]cc(Cc2ccccc2)s1

>  <Energy>  (61) 
83.78932829250697

>  <Genealogy>  (61) 
O=C(Cn1cnc2ccccc2c1=O)/N=c1/[nH]cc(Cc2ccccc2)s1 (cis-trans isomerization)
O=C(Cn1cnc2ccccc2c1=O)/N=c1/[nH]cc(Cc2ccccc2)s1 (3D coordinates assigned)
O=C(Cn1cnc2ccccc2c1=O)/N=c1/[nH]cc(Cc2ccccc2)s1 (optimized conformer: 83.78932829250697 kcal/mol)

>  <smiles>  (61) 
O=C(Cn1cnc2ccccc2c1=O)N=c1[nH]cc(Cc2ccccc2)s1

>  <score_type>  (61) 
oracle

>  <origin>  (61) 
adg

>  <m_score__min__energy>  (61) 
-8.6799999999999997

>  <m_primary>  (61) 
energy

$$$$
61:0
     RDKit          3D

 63 66  0  0  0  0  0  0  0  0999 V2000
   56.5990   19.9990   43.4820 H   0  0  0  0  0  0  0  0  0  0  0  0
   56.0960   20.8070   43.9130 N   0  0  0  0  0  0  0  0  0  0  0  0
   56.2740   22.1310   43.4150 C   0  0  0  0  0  0  0  0  0  0  0  0
   55.8040   22.4330   42.2860 O   0  0  0  0  0  0  0  0  0  0  0  0
   57.0030   23.1280   44.2250 C   0  0  0  0  0  0  0  0  0  0  0  0
   56.6860   24.4730   44.2970 C   0  0  0  0  0  0  0  0  0  0  0  0
   55.8706   25.0062   43.7863 H   0  0  0  0  0  0  0  0  0  0  0  0
   57.6370   24.9920   45.1640 C   0  0  0  0  0  0  0  0  0  0  0  0
   57.7380   26.2260   45.5650 N   0  0  0  0  0  0  0  0  0  0  0  0
   56.6770   27.1930   45.5950 C   0  0  0  0  0  0  0  0  0  0  0  0
   55.5440   26.8300   46.0080 O   0  0  0  0  0  0  0  0  0  0  0  0
   56.8980   28.6130   45.2270 C   0  0  0  0  0  0  0  0  0  0  0  0
   55.8740   29.3820   44.6520 C   0  0  0  0  0  0  0  0  0  0  0  0
   54.8877   28.9306   44.4690 H   0  0  0  0  0  0  0  0  0  0  0  0
   56.0950   30.6820   44.3200 N   0  0  0  0  0  0  0  0  0  0  0  0
   57.2980   31.2890   44.5110 C   0  0  0  0  0  0  0  0  0  0  0  0
   57.4170   32.5440   44.1790 N   0  0  0  0  0  0  0  0  0  0  0  0
   57.8270   33.6260   45.0300 C   0  0  0  0  0  0  0  0  0  0  0  0
   57.5270   34.8020   44.6940 O   0  0  0  0  0  0  0  0  0  0  0  0
   58.6580   33.3970   46.2400 C   0  0  0  0  0  0  0  0  0  0  0  0
   58.0670   33.0150   47.4510 C   0  0  0  0  0  0  0  0  0  0  0  0
   56.9752   32.8960   47.5122 H   0  0  0  0  0  0  0  0  0  0  0  0
   58.8510   32.7850   48.5770 C   0  0  0  0  0  0  0  0  0  0  0  0
   58.3684   32.4992   49.5232 H   0  0  0  0  0  0  0  0  0  0  0  0
   60.2510   32.9120   48.5250 C   0  0  0  0  0  0  0  0  0  0  0  0
   61.0270   32.6230   49.7990 C   0  0  0  0  0  0  0  0  0  0  0  0
   60.4649   33.0167   50.6586 H   0  0  0  0  0  0  0  0  0  0  0  0
   62.0117   33.1076   49.7246 H   0  0  0  0  0  0  0  0  0  0  0  0
   61.2330   31.1690   49.9820 N   0  0  0  0  0  0  0  0  0  0  0  0
   60.0010   30.5120   50.4850 C   0  0  0  0  0  0  0  0  0  0  0  0
   59.1304   30.9375   49.9645 H   0  0  0  0  0  0  0  0  0  0  0  0
   59.9323   30.6882   51.5686 H   0  0  0  0  0  0  0  0  0  0  0  0
   60.0360   28.9960   50.2430 C   0  0  0  0  0  0  0  0  0  0  0  0
   59.1111   28.5528   50.6407 H   0  0  0  0  0  0  0  0  0  0  0  0
   60.9248   28.5944   50.7516 H   0  0  0  0  0  0  0  0  0  0  0  0
   60.1460   28.6580   48.8010 N   0  0  0  0  0  0  0  0  0  0  0  0
   58.8530   28.2210   48.2530 C   0  0  0  0  0  0  0  0  0  0  0  0
   58.1646   27.9883   49.0788 H   0  0  0  0  0  0  0  0  0  0  0  0
   58.4261   29.0248   47.6352 H   0  0  0  0  0  0  0  0  0  0  0  0
   59.0013   27.3231   47.6352 H   0  0  0  0  0  0  0  0  0  0  0  0
   60.7130   29.7500   47.9780 C   0  0  0  0  0  0  0  0  0  0  0  0
   59.9044   30.4363   47.6861 H   0  0  0  0  0  0  0  0  0  0  0  0
   61.1854   29.3069   47.0889 H   0  0  0  0  0  0  0  0  0  0  0  0
   61.7790   30.5340   48.7550 C   0  0  0  0  0  0  0  0  0  0  0  0
   62.1857   31.3199   48.1016 H   0  0  0  0  0  0  0  0  0  0  0  0
   62.5593   29.8230   49.0642 H   0  0  0  0  0  0  0  0  0  0  0  0
   60.8660   33.3260   47.3100 C   0  0  0  0  0  0  0  0  0  0  0  0
   62.3650   33.5390   47.2000 C   0  0  0  0  0  0  0  0  0  0  0  0
   63.0100   32.3150   47.1620 F   0  0  0  0  0  0  0  0  0  0  0  0
   62.6530   34.2490   46.0500 F   0  0  0  0  0  0  0  0  0  0  0  0
   62.8700   34.2480   48.2750 F   0  0  0  0  0  0  0  0  0  0  0  0
   60.0520   33.5470   46.1780 C   0  0  0  0  0  0  0  0  0  0  0  0
   60.5201   33.8429   45.2276 H   0  0  0  0  0  0  0  0  0  0  0  0
   58.3530   30.5500   45.0840 C   0  0  0  0  0  0  0  0  0  0  0  0
   59.3305   31.0238   45.2573 H   0  0  0  0  0  0  0  0  0  0  0  0
   58.1490   29.2130   45.4300 C   0  0  0  0  0  0  0  0  0  0  0  0
   58.9732   28.6277   45.8637 H   0  0  0  0  0  0  0  0  0  0  0  0
   58.4620   24.0210   45.5950 N   0  0  0  0  0  0  0  0  0  0  0  0
   58.0780   22.8930   45.0170 N   0  0  0  0  0  0  0  0  0  0  0  0
   58.7500   21.6170   45.2450 C   0  0  0  0  0  0  0  0  0  0  0  0
   58.8433   21.4399   46.3266 H   0  0  0  0  0  0  0  0  0  0  0  0
   58.1618   20.8064   44.7901 H   0  0  0  0  0  0  0  0  0  0  0  0
   59.7512   21.6434   44.7901 H   0  0  0  0  0  0  0  0  0  0  0  0
  1  2  1  0
  2  3  1  0
  3  4  2  0
  3  5  1  0
  5  6  2  0
  6  7  1  0
  6  8  1  0
  8  9  2  3
  9 10  1  0
 10 11  2  0
 10 12  1  0
 12 13  2  0
 13 14  1  0
 13 15  1  0
 15 16  1  0
 16 17  2  0
 17 18  1  0
 18 19  2  0
 18 20  1  0
 20 21  2  0
 21 22  1  0
 21 23  1  0
 23 24  1  0
 23 25  2  0
 25 26  1  0
 26 27  1  0
 26 28  1  0
 26 29  1  0
 29 30  1  0
 30 31  1  0
 30 32  1  0
 30 33  1  0
 33 34  1  0
 33 35  1  0
 33 36  1  0
 36 37  1  0
 37 38  1  0
 37 39  1  0
 37 40  1  0
 36 41  1  0
 41 42  1  0
 41 43  1  0
 41 44  1  0
 44 45  1  0
 44 46  1  0
 25 47  1  0
 47 48  1  0
 48 49  1  0
 48 50  1  0
 48 51  1  0
 47 52  2  0
 52 53  1  0
 16 54  1  0
 54 55  1  0
 54 56  2  0
 56 57  1  0
  8 58  1  0
 58 59  1  0
 59 60  1  0
 60 61  1  0
 60 62  1  0
 60 63  1  0
 59  5  1  0
 56 12  1  0
 52 20  1  0
 44 29  1  0
M  CHG  3   2  -1  15  -1  58  -1
M  END
>  <UniqueID>  (62) 
60

>  <SMILES>  (62) 
CN1CCN(Cc2ccc(C(=O)/N=c3\ccc(C(=O)N=c4cc(C([NH-])=O)n(C)[n-]4)c[n-]3)cc2C(F)(F)F)CC1

>  <Energy>  (62) 
132.52077877963544

>  <Genealogy>  (62) 
CN1CCN(Cc2ccc(C(=O)N=c3ccc(C(=O)N=c4cc(C([NH-])=O)n(C)[n-]4)c[n-]3)cc2C(F)(F)F)CC1 (protonated)
CN1CCN(Cc2ccc(C(=O)/N=c3\ccc(C(=O)N=c4cc(C([NH-])=O)n(C)[n-]4)c[n-]3)cc2C(F)(F)F)CC1 (cis-trans isomerization)
CN1CCN(Cc2ccc(C(=O)/N=c3\ccc(C(=O)N=c4cc(C([NH-])=O)n(C)[n-]4)c[n-]3)cc2C(F)(F)F)CC1 (3D coordinates assigned)
CN1CCN(Cc2ccc(C(=O)/N=c3\ccc(C(=O)N=c4cc(C([NH-])=O)n(C)[n-]4)c[n-]3)cc2C(F)(F)F)CC1 (nonaromatic ring conformer: 132.52077877963544 kcal/mol)

>  <smiles>  (62) 
CN1CCN(Cc2ccc(C(=O)N=c3ccc(C(=O)N=c4cc(C(N)=O)n(C)[nH]4)c[nH]3)cc2C(F)(F)F)CC1

>  <score_type>  (62) 
oracle

>  <origin>  (62) 
adg

>  <m_score__min__energy>  (62) 
-15.51

>  <m_primary>  (62) 
energy

$$$$
62:0
     RDKit          3D

 53 55  0  0  0  0  0  0  0  0999 V2000
   63.3900   33.7980   46.7550 C   0  0  0  0  0  0  0  0  0  0  0  0
   63.4130   33.1710   48.1460 C   0  0  0  0  0  0  0  0  0  0  0  0
   62.2150   33.5840   48.9520 C   0  0  0  0  0  0  0  0  0  0  0  0
   62.2160   34.7020   49.5330 O   0  0  0  0  0  0  0  0  0  0  0  0
   61.0810   32.7150   49.1030 N   0  0  0  0  0  0  0  0  0  0  0  0
   60.1350   32.8090   50.2150 C   0  0  0  0  0  0  0  0  0  0  0  0
   59.1860   31.5960   50.0700 C   0  0  0  0  0  0  0  0  0  0  0  0
   59.6320   30.9560   48.8040 C   0  0  0  0  0  0  0  0  0  0  0  0
   59.0670   29.8570   48.1550 C   0  0  0  0  0  0  0  0  0  0  0  0
   59.6210   29.4390   46.9290 C   0  0  0  0  0  0  0  0  0  0  0  0
   58.9620   28.0360   46.0900 S   0  0  0  0  0  0  0  0  0  0  0  0
   59.7330   26.8030   46.4740 O   0  0  0  0  0  0  0  0  0  0  0  0
   57.5290   27.8440   46.4980 O   0  0  0  0  0  0  0  0  0  0  0  0
   59.0370   28.2660   44.3690 N   0  0  0  0  0  0  0  0  0  0  0  0
   57.7360   27.9510   43.7690 C   0  0  0  0  0  0  0  0  0  0  0  0
   57.0260   29.2330   43.3200 C   0  0  0  0  0  0  0  0  0  0  0  0
   56.2680   29.8710   44.4450 C   0  0  0  0  0  0  0  0  0  0  0  0
   55.2040   29.3440   44.8640 O   0  0  0  0  0  0  0  0  0  0  0  0
   56.7500   31.0880   45.0230 N   0  0  0  0  0  0  0  0  0  0  0  0
   57.4890   32.1020   44.2820 C   0  0  0  0  0  0  0  0  0  0  0  0
   58.1360   33.0820   45.2240 C   0  0  0  0  0  0  0  0  0  0  0  0
   59.0240   34.0590   44.7380 C   0  0  0  0  0  0  0  0  0  0  0  0
   59.6270   34.9620   45.6190 C   0  0  0  0  0  0  0  0  0  0  0  0
   59.3470   34.8990   46.9870 C   0  0  0  0  0  0  0  0  0  0  0  0
   58.4640   33.9330   47.4780 C   0  0  0  0  0  0  0  0  0  0  0  0
   57.8580   33.0270   46.6010 C   0  0  0  0  0  0  0  0  0  0  0  0
   60.7150   30.1400   46.3780 C   0  0  0  0  0  0  0  0  0  0  0  0
   61.2580   31.2480   47.0480 C   0  0  0  0  0  0  0  0  0  0  0  0
   60.7110   31.6170   48.2820 C   0  0  0  0  0  0  0  0  0  0  0  0
   63.3498   34.8934   46.8472 H   0  0  0  0  0  0  0  0  0  0  0  0
   64.2993   33.5092   46.2076 H   0  0  0  0  0  0  0  0  0  0  0  0
   62.5043   33.4434   46.2076 H   0  0  0  0  0  0  0  0  0  0  0  0
   63.4163   32.0757   48.0450 H   0  0  0  0  0  0  0  0  0  0  0  0
   64.3176   33.5172   48.6673 H   0  0  0  0  0  0  0  0  0  0  0  0
   60.6687   32.7642   51.1758 H   0  0  0  0  0  0  0  0  0  0  0  0
   59.5811   33.7591   50.1940 H   0  0  0  0  0  0  0  0  0  0  0  0
   59.2969   30.9062   50.9196 H   0  0  0  0  0  0  0  0  0  0  0  0
   58.1240   31.8822   50.0545 H   0  0  0  0  0  0  0  0  0  0  0  0
   58.2070   29.3282   48.5918 H   0  0  0  0  0  0  0  0  0  0  0  0
   59.7390   27.5820   44.0020 H   0  0  0  0  0  0  0  0  0  0  0  0
   57.8883   27.2976   42.8973 H   0  0  0  0  0  0  0  0  0  0  0  0
   57.1121   27.4437   44.5196 H   0  0  0  0  0  0  0  0  0  0  0  0
   57.7775   29.9449   42.9478 H   0  0  0  0  0  0  0  0  0  0  0  0
   56.3079   28.9682   42.5299 H   0  0  0  0  0  0  0  0  0  0  0  0
   58.2679   31.6127   43.6787 H   0  0  0  0  0  0  0  0  0  0  0  0
   56.7885   32.6460   43.6313 H   0  0  0  0  0  0  0  0  0  0  0  0
   59.2446   34.1127   43.6617 H   0  0  0  0  0  0  0  0  0  0  0  0
   60.3225   35.7228   45.2351 H   0  0  0  0  0  0  0  0  0  0  0  0
   59.8222   35.6106   47.6782 H   0  0  0  0  0  0  0  0  0  0  0  0
   58.2454   33.8851   48.5550 H   0  0  0  0  0  0  0  0  0  0  0  0
   57.1619   32.2693   46.9900 H   0  0  0  0  0  0  0  0  0  0  0  0
   61.1446   29.8166   45.4184 H   0  0  0  0  0  0  0  0  0  0  0  0
   62.0950   31.8135   46.6125 H   0  0  0  0  0  0  0  0  0  0  0  0
  1  2  1  0
  2  3  1  0
  3  4  2  0
  3  5  1  0
  5  6  1  0
  6  7  1  0
  7  8  1  0
  8  9  2  0
  9 10  1  0
 10 11  1  0
 11 12  2  0
 11 13  2  0
 11 14  1  0
 14 15  1  0
 15 16  1  0
 16 17  1  0
 17 18  2  0
 17 19  1  0
 19 20  1  0
 20 21  1  0
 21 22  2  0
 22 23  1  0
 23 24  2  0
 24 25  1  0
 25 26  2  0
 10 27  2  0
 27 28  1  0
 28 29  2  0
 29  5  1  0
 29  8  1  0
 26 21  1  0
  1 30  1  0
  1 31  1  0
  1 32  1  0
  2 33  1  0
  2 34  1  0
  6 35  1  0
  6 36  1  0
  7 37  1  0
  7 38  1  0
  9 39  1  0
 14 40  1  0
 15 41  1  0
 15 42  1  0
 16 43  1  0
 16 44  1  0
 20 45  1  0
 20 46  1  0
 22 47  1  0
 23 48  1  0
 24 49  1  0
 25 50  1  0
 26 51  1  0
 27 52  1  0
 28 53  1  0
M  CHG  1  19  -1
M  END
>  <UniqueID>  (63) 
61

>  <SMILES>  (63) 
CCC(=O)N1CCc2cc(S(=O)(=O)NCCC(=O)[N-]Cc3ccccc3)ccc21

>  <Energy>  (63) 
61.65384816881401

>  <Genealogy>  (63) 
CCC(=O)N1CCc2cc(S(=O)(=O)NCCC(=O)[N-]Cc3ccccc3)ccc21 (protonated)
CCC(=O)N1CCc2cc(S(=O)(=O)NCCC(=O)[N-]Cc3ccccc3)ccc21 (3D coordinates assigned)
CCC(=O)N1CCc2cc(S(=O)(=O)NCCC(=O)[N-]Cc3ccccc3)ccc21 (nonaromatic ring conformer: 61.65384816881401 kcal/mol)

>  <smiles>  (63) 
CCC(=O)N1CCc2cc(S(=O)(=O)NCCC(=O)NCc3ccccc3)ccc21

>  <score_type>  (63) 
oracle

>  <origin>  (63) 
adg

>  <m_score__min__energy>  (63) 
-12.390000000000001

>  <m_primary>  (63) 
energy

$$$$
63:0
     RDKit          3D

 34 36  0  0  0  0  0  0  0  0999 V2000
   50.1864   32.8695   52.4625 H   0  0  0  0  0  0  0  0  0  0  0  0
   51.0620   32.2800   52.1530 C   0  0  0  0  0  0  0  0  0  0  0  0
   51.5560   32.1310   50.8770 C   0  0  0  0  0  0  0  0  0  0  0  0
   51.0100   32.7230   49.7460 O   0  0  0  0  0  0  0  0  0  0  0  0
   52.6430   31.3380   50.8430 N   0  0  0  0  0  0  0  0  0  0  0  0
   52.8410   30.9700   52.1260 C   0  0  0  0  0  0  0  0  0  0  0  0
   53.9560   30.1110   52.5660 C   0  0  0  0  0  0  0  0  0  0  0  0
   53.8070   28.8610   52.5800 O   0  0  0  0  0  0  0  0  0  0  0  0
   55.1820   30.6680   53.0610 N   0  0  0  0  0  0  0  0  0  0  0  0
   56.2720   30.8330   52.3710 C   0  0  0  0  0  0  0  0  0  0  0  0
   56.8620   29.8190   51.7060 N   0  0  0  0  0  0  0  0  0  0  0  0
   57.9430   30.1980   51.0250 N   0  0  0  0  0  0  0  0  0  0  0  0
   58.2150   31.5180   51.1360 C   0  0  0  0  0  0  0  0  0  0  0  0
   59.3490   32.1780   50.4730 C   0  0  0  0  0  0  0  0  0  0  0  0
   59.7540   33.2900   50.9060 O   0  0  0  0  0  0  0  0  0  0  0  0
   60.0110   31.5470   49.3640 N   0  0  0  0  0  0  0  0  0  0  0  0
   59.8080   30.5390   49.1780 H   0  0  0  0  0  0  0  0  0  0  0  0
   60.9960   32.2080   48.5510 C   0  0  0  0  0  0  0  0  0  0  0  0
   62.3650   31.9470   48.7460 C   0  0  0  0  0  0  0  0  0  0  0  0
   62.6773   31.2126   49.5030 H   0  0  0  0  0  0  0  0  0  0  0  0
   63.3310   32.6120   47.9870 C   0  0  0  0  0  0  0  0  0  0  0  0
   64.3978   32.3922   48.1406 H   0  0  0  0  0  0  0  0  0  0  0  0
   62.9440   33.5540   47.0350 C   0  0  0  0  0  0  0  0  0  0  0  0
   63.7063   34.0755   46.4376 H   0  0  0  0  0  0  0  0  0  0  0  0
   61.5910   33.8370   46.8380 C   0  0  0  0  0  0  0  0  0  0  0  0
   61.2934   34.5892   46.0926 H   0  0  0  0  0  0  0  0  0  0  0  0
   60.6070   33.1680   47.5850 C   0  0  0  0  0  0  0  0  0  0  0  0
   59.1560   33.4930   47.3550 C   0  0  0  0  0  0  0  0  0  0  0  0
   58.6477   33.6068   48.3239 H   0  0  0  0  0  0  0  0  0  0  0  0
   59.0761   34.4313   46.7865 H   0  0  0  0  0  0  0  0  0  0  0  0
   58.6834   32.6784   46.7865 H   0  0  0  0  0  0  0  0  0  0  0  0
   57.0820   32.2950   52.1150 S   0  0  0  0  0  0  0  0  0  0  0  0
   51.8930   31.5370   52.9610 C   0  0  0  0  0  0  0  0  0  0  0  0
   51.8187   31.4176   54.0520 H   0  0  0  0  0  0  0  0  0  0  0  0
  1  2  1  0
  2  3  2  0
  3  4  1  0
  3  5  1  0
  5  6  1  0
  6  7  1  0
  7  8  2  0
  7  9  1  0
  9 10  2  0
 10 11  1  0
 11 12  1  0
 12 13  2  0
 13 14  1  0
 14 15  2  0
 14 16  1  0
 16 17  1  0
 16 18  1  0
 18 19  2  0
 19 20  1  0
 19 21  1  0
 21 22  1  0
 21 23  2  0
 23 24  1  0
 23 25  1  0
 25 26  1  0
 25 27  2  0
 27 28  1  0
 28 29  1  0
 28 30  1  0
 28 31  1  0
 13 32  1  0
  6 33  2  0
 33 34  1  0
 33  2  1  0
 32 10  1  0
 27 18  1  0
M  CHG  3   4  -1   5  -1  11  -1
M  END
>  <UniqueID>  (64) 
62

>  <SMILES>  (64) 
Cc1ccccc1NC(=O)c1n[n-]/c(=N/C(=O)c2ccc([O-])[n-]2)s1

>  <Energy>  (64) 
105.88858806692247

>  <Genealogy>  (64) 
Cc1ccccc1NC(=O)c1n[n-]c(=NC(=O)c2ccc([O-])[n-]2)s1 (protonated)
Cc1ccccc1NC(=O)c1n[n-]/c(=N/C(=O)c2ccc([O-])[n-]2)s1 (cis-trans isomerization)
Cc1ccccc1NC(=O)c1n[n-]/c(=N/C(=O)c2ccc([O-])[n-]2)s1 (3D coordinates assigned)
Cc1ccccc1NC(=O)c1n[n-]/c(=N/C(=O)c2ccc([O-])[n-]2)s1 (optimized conformer: 105.88858806692247 kcal/mol)

>  <smiles>  (64) 
Cc1ccccc1NC(=O)c1n[nH]c(=NC(=O)c2ccc(O)[nH]2)s1

>  <score_type>  (64) 
oracle

>  <origin>  (64) 
adg

>  <m_score__min__energy>  (64) 
-15.23

>  <m_primary>  (64) 
energy

$$$$
64:0
     RDKit          3D

 39 40  0  0  0  0  0  0  0  0999 V2000
   56.8620   30.5000   45.0370 O   0  0  0  0  0  0  0  0  0  0  0  0
   57.9960   30.7820   45.5100 C   0  0  0  0  0  0  0  0  0  0  0  0
   58.1380   31.9260   46.4660 C   0  0  0  0  0  0  0  0  0  0  0  0
   57.5140   33.1990   45.8950 C   0  0  0  0  0  0  0  0  0  0  0  0
   58.8040   34.4740   45.6450 S   0  0  0  0  0  0  0  0  0  0  0  0
   59.3330   34.6240   47.3930 C   0  0  0  0  0  0  0  0  0  0  0  0
   60.7740   34.2280   47.5650 C   0  0  0  0  0  0  0  0  0  0  0  0
   61.5430   33.8350   46.4570 C   0  0  0  0  0  0  0  0  0  0  0  0
   62.8690   33.4250   46.6290 C   0  0  0  0  0  0  0  0  0  0  0  0
   63.4390   33.4130   47.9040 C   0  0  0  0  0  0  0  0  0  0  0  0
   62.6850   33.8100   49.0130 C   0  0  0  0  0  0  0  0  0  0  0  0
   63.4650   33.7920   50.7560 Br  0  0  0  0  0  0  0  0  0  0  0  0
   61.3550   34.2180   48.8440 C   0  0  0  0  0  0  0  0  0  0  0  0
   59.1510   30.0210   45.1280 N   0  0  0  0  0  0  0  0  0  0  0  0
   59.0490   28.7450   44.4270 C   0  0  0  0  0  0  0  0  0  0  0  0
   58.3200   27.7480   45.2850 C   0  0  0  0  0  0  0  0  0  0  0  0
   59.0300   26.8340   46.0810 C   0  0  0  0  0  0  0  0  0  0  0  0
   58.3430   25.8900   46.8500 C   0  0  0  0  0  0  0  0  0  0  0  0
   56.9460   25.8470   46.8240 C   0  0  0  0  0  0  0  0  0  0  0  0
   56.2320   26.7470   46.0260 C   0  0  0  0  0  0  0  0  0  0  0  0
   54.8440   26.6990   45.9950 O   0  0  0  0  0  0  0  0  0  0  0  0
   56.9170   27.6950   45.2570 C   0  0  0  0  0  0  0  0  0  0  0  0
   57.6339   31.6706   47.4097 H   0  0  0  0  0  0  0  0  0  0  0  0
   59.2092   32.1078   46.6376 H   0  0  0  0  0  0  0  0  0  0  0  0
   57.0373   32.9696   44.9306 H   0  0  0  0  0  0  0  0  0  0  0  0
   56.7628   33.5805   46.6022 H   0  0  0  0  0  0  0  0  0  0  0  0
   59.2073   35.6677   47.7169 H   0  0  0  0  0  0  0  0  0  0  0  0
   58.7130   33.9496   48.0020 H   0  0  0  0  0  0  0  0  0  0  0  0
   61.1004   33.8498   45.4501 H   0  0  0  0  0  0  0  0  0  0  0  0
   63.4640   33.1114   45.7586 H   0  0  0  0  0  0  0  0  0  0  0  0
   64.4824   33.0908   48.0361 H   0  0  0  0  0  0  0  0  0  0  0  0
   60.7634   34.5318   49.7167 H   0  0  0  0  0  0  0  0  0  0  0  0
   60.0950   30.3390   45.4390 H   0  0  0  0  0  0  0  0  0  0  0  0
   58.4979   28.8886   43.4859 H   0  0  0  0  0  0  0  0  0  0  0  0
   60.0596   28.3677   44.2115 H   0  0  0  0  0  0  0  0  0  0  0  0
   60.1295   26.8611   46.0993 H   0  0  0  0  0  0  0  0  0  0  0  0
   58.9027   25.1799   47.4765 H   0  0  0  0  0  0  0  0  0  0  0  0
   56.4077   25.1047   47.4317 H   0  0  0  0  0  0  0  0  0  0  0  0
   56.3543   28.4010   44.6285 H   0  0  0  0  0  0  0  0  0  0  0  0
  1  2  2  0
  2  3  1  0
  3  4  1  0
  4  5  1  0
  5  6  1  0
  6  7  1  0
  7  8  2  0
  8  9  1  0
  9 10  2  0
 10 11  1  0
 11 12  1  0
 11 13  2  0
  2 14  1  0
 14 15  1  0
 15 16  1  0
 16 17  2  0
 17 18  1  0
 18 19  2  0
 19 20  1  0
 20 21  1  0
 20 22  2  0
 13  7  1  0
 22 16  1  0
  3 23  1  0
  3 24  1  0
  4 25  1  0
  4 26  1  0
  6 27  1  0
  6 28  1  0
  8 29  1  0
  9 30  1  0
 10 31  1  0
 13 32  1  0
 14 33  1  0
 15 34  1  0
 15 35  1  0
 17 36  1  0
 18 37  1  0
 19 38  1  0
 22 39  1  0
M  CHG  1  21  -1
M  END
>  <UniqueID>  (65) 
63

>  <SMILES>  (65) 
O=C(CCSCc1cccc(Br)c1)NCc1cccc([O-])c1

>  <Energy>  (65) 
28.17786850611174

>  <Genealogy>  (65) 
O=C(CCSCc1cccc(Br)c1)NCc1cccc([O-])c1 (protonated)
O=C(CCSCc1cccc(Br)c1)NCc1cccc([O-])c1 (3D coordinates assigned)
O=C(CCSCc1cccc(Br)c1)NCc1cccc([O-])c1 (optimized conformer: 28.17786850611174 kcal/mol)

>  <smiles>  (65) 
O=C(CCSCc1cccc(Br)c1)NCc1cccc(O)c1

>  <score_type>  (65) 
oracle

>  <origin>  (65) 
adg

>  <m_score__min__energy>  (65) 
-12.640000000000001

>  <m_primary>  (65) 
energy

$$$$
65:0
     RDKit          3D

 25 26  0  0  0  0  0  0  0  0999 V2000
   58.7000   27.3420   53.6450 N   0  0  0  0  0  0  0  0  0  0  0  0
   58.4660   28.5860   54.2950 C   0  0  0  0  0  0  0  0  0  0  0  0
   59.4420   29.3290   54.5880 O   0  0  0  0  0  0  0  0  0  0  0  0
   57.1570   28.9360   54.6490 O   0  0  0  0  0  0  0  0  0  0  0  0
   56.1680   29.3890   53.7630 C   0  0  0  0  0  0  0  0  0  0  0  0
   54.7970   29.1590   53.9830 C   0  0  0  0  0  0  0  0  0  0  0  0
   53.8470   29.6400   53.0770 C   0  0  0  0  0  0  0  0  0  0  0  0
   54.2500   30.3730   51.9500 C   0  0  0  0  0  0  0  0  0  0  0  0
   53.2300   30.8560   50.9560 C   0  0  0  0  0  0  0  0  0  0  0  0
   52.1050   31.5420   51.6660 C   0  0  0  0  0  0  0  0  0  0  0  0
   51.8510   31.4120   52.9800 N   0  0  0  0  0  0  0  0  0  0  0  0
   50.7240   32.1360   53.1560 C   0  0  0  0  0  0  0  0  0  0  0  0
   49.9970   32.2980   54.6100 S   0  0  0  0  0  0  0  0  0  0  0  0
   50.2400   32.7040   52.0310 N   0  0  0  0  0  0  0  0  0  0  0  0
   51.1220   32.3140   51.0970 C   0  0  0  0  0  0  0  0  0  0  0  0
   51.0260   32.6510   49.7520 O   0  0  0  0  0  0  0  0  0  0  0  0
   55.6170   30.6070   51.7350 C   0  0  0  0  0  0  0  0  0  0  0  0
   56.5660   30.1270   52.6430 C   0  0  0  0  0  0  0  0  0  0  0  0
   57.9030   26.7370   53.3430 H   0  0  0  0  0  0  0  0  0  0  0  0
   54.4715   28.5983   54.8717 H   0  0  0  0  0  0  0  0  0  0  0  0
   52.7784   29.4430   53.2483 H   0  0  0  0  0  0  0  0  0  0  0  0
   53.7061   31.5627   50.2604 H   0  0  0  0  0  0  0  0  0  0  0  0
   52.8327   29.9940   50.4000 H   0  0  0  0  0  0  0  0  0  0  0  0
   55.9433   31.1704   50.8484 H   0  0  0  0  0  0  0  0  0  0  0  0
   57.6338   30.3313   52.4754 H   0  0  0  0  0  0  0  0  0  0  0  0
  1  2  1  0
  2  3  2  0
  2  4  1  0
  4  5  1  0
  5  6  2  0
  6  7  1  0
  7  8  2  0
  8  9  1  0
  9 10  1  0
 10 11  1  0
 11 12  1  0
 12 13  2  0
 12 14  1  0
 14 15  1  0
 15 16  1  0
  8 17  1  0
 17 18  2  0
 18  5  1  0
 15 10  2  0
  1 19  1  0
  6 20  1  0
  7 21  1  0
  9 22  1  0
  9 23  1  0
 17 24  1  0
 18 25  1  0
M  CHG  4   1  -1  11  -1  14  -1  16  -1
M  END
>  <UniqueID>  (66) 
64

>  <SMILES>  (66) 
[NH-]C(=O)Oc1ccc(Cc2[n-]c(=S)[n-]c2[O-])cc1

>  <Energy>  (66) 
56.34646668262499

>  <Genealogy>  (66) 
[NH-]C(=O)Oc1ccc(Cc2[n-]c(=S)[n-]c2[O-])cc1 (protonated)
[NH-]C(=O)Oc1ccc(Cc2[n-]c(=S)[n-]c2[O-])cc1 (3D coordinates assigned)
[NH-]C(=O)Oc1ccc(Cc2[n-]c(=S)[n-]c2[O-])cc1 (optimized conformer: 56.34646668262499 kcal/mol)

>  <smiles>  (66) 
NC(=O)Oc1ccc(Cc2[nH]c(=S)[nH]c2O)cc1

>  <score_type>  (66) 
oracle

>  <origin>  (66) 
adg

>  <m_score__min__energy>  (66) 
-15.25

>  <m_primary>  (66) 
energy

$$$$
66:0
     RDKit          3D

 56 59  0  0  0  0  0  0  0  0999 V2000
   56.2500   22.7770   41.9360 H   0  0  0  0  0  0  0  0  0  0  0  0
   55.8560   22.2880   42.7690 N   0  0  0  0  0  0  0  0  0  0  0  0
   55.7430   22.8090   43.9530 C   0  0  0  0  0  0  0  0  0  0  0  0
   54.8820   22.2250   44.8280 N   0  0  0  0  0  0  0  0  0  0  0  0
   54.7150   22.6770   46.0960 C   0  0  0  0  0  0  0  0  0  0  0  0
   53.9888   22.1881   46.7621 H   0  0  0  0  0  0  0  0  0  0  0  0
   55.4600   23.7570   46.5550 C   0  0  0  0  0  0  0  0  0  0  0  0
   55.3349   24.1124   47.5884 H   0  0  0  0  0  0  0  0  0  0  0  0
   56.3710   24.3930   45.7000 C   0  0  0  0  0  0  0  0  0  0  0  0
   57.1920   25.4990   46.2530 C   0  0  0  0  0  0  0  0  0  0  0  0
   58.2270   25.2260   47.1610 C   0  0  0  0  0  0  0  0  0  0  0  0
   58.4089   24.1921   47.4896 H   0  0  0  0  0  0  0  0  0  0  0  0
   59.0270   26.2620   47.6490 C   0  0  0  0  0  0  0  0  0  0  0  0
   59.8389   26.0406   48.3574 H   0  0  0  0  0  0  0  0  0  0  0  0
   58.7990   27.5790   47.2400 C   0  0  0  0  0  0  0  0  0  0  0  0
   59.4384   28.3886   47.6217 H   0  0  0  0  0  0  0  0  0  0  0  0
   57.7600   27.8740   46.3460 C   0  0  0  0  0  0  0  0  0  0  0  0
   57.5510   29.2330   45.9260 N   0  0  0  0  0  0  0  0  0  0  0  0
   58.1780   29.9720   46.3110 H   0  0  0  0  0  0  0  0  0  0  0  0
   56.4760   29.6460   45.0710 C   0  0  0  0  0  0  0  0  0  0  0  0
   55.5220   28.8600   44.8190 O   0  0  0  0  0  0  0  0  0  0  0  0
   56.5060   30.9590   44.5000 N   0  0  0  0  0  0  0  0  0  0  0  0
   57.2660   32.0760   44.9830 C   0  0  0  0  0  0  0  0  0  0  0  0
   56.6580   33.2940   45.3340 C   0  0  0  0  0  0  0  0  0  0  0  0
   55.5707   33.4165   45.2207 H   0  0  0  0  0  0  0  0  0  0  0  0
   57.4310   34.3510   45.8270 C   0  0  0  0  0  0  0  0  0  0  0  0
   56.9508   35.3067   46.0842 H   0  0  0  0  0  0  0  0  0  0  0  0
   58.8160   34.1980   45.9950 C   0  0  0  0  0  0  0  0  0  0  0  0
   59.6510   35.3470   46.4920 C   0  0  0  0  0  0  0  0  0  0  0  0
   60.3644   35.6410   45.7080 H   0  0  0  0  0  0  0  0  0  0  0  0
   58.9861   36.1884   46.7368 H   0  0  0  0  0  0  0  0  0  0  0  0
   60.4240   34.9470   47.7510 C   0  0  0  0  0  0  0  0  0  0  0  0
   61.2711   34.3053   47.4672 H   0  0  0  0  0  0  0  0  0  0  0  0
   60.7886   35.8574   48.2492 H   0  0  0  0  0  0  0  0  0  0  0  0
   59.5550   34.2170   48.6750 N   0  0  0  0  0  0  0  0  0  0  0  0
   59.6110   32.9350   48.8900 C   0  0  0  0  0  0  0  0  0  0  0  0
   58.5370   32.2620   49.3970 N   0  0  0  0  0  0  0  0  0  0  0  0
   58.5690   30.9200   49.6210 C   0  0  0  0  0  0  0  0  0  0  0  0
   57.6847   30.4099   50.0307 H   0  0  0  0  0  0  0  0  0  0  0  0
   59.7240   30.1900   49.3310 C   0  0  0  0  0  0  0  0  0  0  0  0
   59.7562   29.1051   49.5099 H   0  0  0  0  0  0  0  0  0  0  0  0
   60.8380   30.8540   48.8110 C   0  0  0  0  0  0  0  0  0  0  0  0
   61.7545   30.2924   48.5772 H   0  0  0  0  0  0  0  0  0  0  0  0
   60.7860   32.2350   48.5880 C   0  0  0  0  0  0  0  0  0  0  0  0
   61.6591   32.7651   48.1797 H   0  0  0  0  0  0  0  0  0  0  0  0
   59.4200   32.9800   45.6510 C   0  0  0  0  0  0  0  0  0  0  0  0
   60.5071   32.8566   45.7649 H   0  0  0  0  0  0  0  0  0  0  0  0
   58.6470   31.9220   45.1640 C   0  0  0  0  0  0  0  0  0  0  0  0
   59.1261   30.9620   44.9212 H   0  0  0  0  0  0  0  0  0  0  0  0
   56.9770   26.8240   45.8330 C   0  0  0  0  0  0  0  0  0  0  0  0
   56.1893   27.0412   45.0966 H   0  0  0  0  0  0  0  0  0  0  0  0
   56.4930   23.9490   44.3540 C   0  0  0  0  0  0  0  0  0  0  0  0
   57.3860   24.6730   43.3660 C   0  0  0  0  0  0  0  0  0  0  0  0
   58.1271   25.2738   43.9136 H   0  0  0  0  0  0  0  0  0  0  0  0
   57.9051   23.9376   42.7337 H   0  0  0  0  0  0  0  0  0  0  0  0
   56.7738   25.3329   42.7337 H   0  0  0  0  0  0  0  0  0  0  0  0
  1  2  1  0
  2  3  2  0
  3  4  1  0
  4  5  1  0
  5  6  1  0
  5  7  2  0
  7  8  1  0
  7  9  1  0
  9 10  1  0
 10 11  2  0
 11 12  1  0
 11 13  1  0
 13 14  1  0
 13 15  2  0
 15 16  1  0
 15 17  1  0
 17 18  1  0
 18 19  1  0
 18 20  1  0
 20 21  2  0
 20 22  1  0
 22 23  1  0
 23 24  2  0
 24 25  1  0
 24 26  1  0
 26 27  1  0
 26 28  2  0
 28 29  1  0
 29 30  1  0
 29 31  1  0
 29 32  1  0
 32 33  1  0
 32 34  1  0
 32 35  1  0
 35 36  2  0
 36 37  1  0
 37 38  1  0
 38 39  1  0
 38 40  2  0
 40 41  1  0
 40 42  1  0
 42 43  1  0
 42 44  2  0
 44 45  1  0
 28 46  1  0
 46 47  1  0
 46 48  2  0
 48 49  1  0
 17 50  2  0
 50 51  1  0
  9 52  2  0
 52 53  1  0
 53 54  1  0
 53 55  1  0
 53 56  1  0
 52  3  1  0
 50 10  1  0
 48 23  1  0
 44 36  1  0
M  CHG  3   4  -1  22  -1  37  -1
M  END
>  <UniqueID>  (67) 
65

>  <SMILES>  (67) 
[H]/N=c1/[n-]ccc(-c2cccc(NC(=O)[N-]c3ccc(CC/N=c4/cccc[n-]4)cc3)c2)c1C

>  <Energy>  (67) 
77.01875718427698

>  <Genealogy>  (67) 
Cc1c(-c2cccc(NC(=O)[N-]c3ccc(CCN=c4cccc[n-]4)cc3)c2)cc[n-]c1=N (protonated)
[H]/N=c1/[n-]ccc(-c2cccc(NC(=O)[N-]c3ccc(CC/N=c4/cccc[n-]4)cc3)c2)c1C (cis-trans isomerization)
[H]/N=c1/[n-]ccc(-c2cccc(NC(=O)[N-]c3ccc(CC/N=c4/cccc[n-]4)cc3)c2)c1C (3D coordinates assigned)
[H]/N=c1/[n-]ccc(-c2cccc(NC(=O)[N-]c3ccc(CC/N=c4/cccc[n-]4)cc3)c2)c1C (optimized conformer: 77.01875718427698 kcal/mol)

>  <smiles>  (67) 
Cc1c(-c2cccc(NC(=O)Nc3ccc(CCN=c4cccc[nH]4)cc3)c2)cc[nH]c1=N

>  <score_type>  (67) 
oracle

>  <origin>  (67) 
adg

>  <m_score__min__energy>  (67) 
-14.289999999999999

>  <m_primary>  (67) 
energy

$$$$
67:0
     RDKit          3D

 40 42  0  0  0  0  0  0  0  0999 V2000
   58.5109   27.6779   42.7793 H   0  0  0  0  0  0  0  0  0  0  0  0
   58.0610   26.8700   43.3750 C   0  0  0  0  0  0  0  0  0  0  0  0
   57.5177   26.0548   42.8747 H   0  0  0  0  0  0  0  0  0  0  0  0
   58.1750   26.8790   44.7140 C   0  0  0  0  0  0  0  0  0  0  0  0
   57.6570   25.9220   45.6050 C   0  0  0  0  0  0  0  0  0  0  0  0
   57.0920   24.7170   45.3860 C   0  0  0  0  0  0  0  0  0  0  0  0
   57.7700   23.8610   45.2532 H   0  0  0  0  0  0  0  0  0  0  0  0
   55.6420   24.4470   45.3090 C   0  0  0  0  0  0  0  0  0  0  0  0
   54.6970   25.4430   45.6130 C   0  0  0  0  0  0  0  0  0  0  0  0
   55.1030   26.7040   46.0330 O   0  0  0  0  0  0  0  0  0  0  0  0
   53.3710   25.1760   45.4920 N   0  0  0  0  0  0  0  0  0  0  0  0
   52.9360   23.9640   45.0630 C   0  0  0  0  0  0  0  0  0  0  0  0
   51.7020   23.7390   44.9610 O   0  0  0  0  0  0  0  0  0  0  0  0
   53.8310   22.9960   44.7350 N   0  0  0  0  0  0  0  0  0  0  0  0
   55.1680   23.2130   44.8400 C   0  0  0  0  0  0  0  0  0  0  0  0
   55.9710   22.2940   44.5220 O   0  0  0  0  0  0  0  0  0  0  0  0
   57.8670   26.4230   46.8770 C   0  0  0  0  0  0  0  0  0  0  0  0
   57.5547   25.9578   47.8236 H   0  0  0  0  0  0  0  0  0  0  0  0
   58.5420   27.6160   46.7330 C   0  0  0  0  0  0  0  0  0  0  0  0
   59.0360   28.4470   47.8790 C   0  0  0  0  0  0  0  0  0  0  0  0
   58.7517   27.9688   48.8280 H   0  0  0  0  0  0  0  0  0  0  0  0
   60.1314   28.5320   47.8249 H   0  0  0  0  0  0  0  0  0  0  0  0
   58.5873   29.4499   47.8249 H   0  0  0  0  0  0  0  0  0  0  0  0
   58.7370   27.8980   45.4230 N   0  0  0  0  0  0  0  0  0  0  0  0
   59.4840   29.0610   44.9130 C   0  0  0  0  0  0  0  0  0  0  0  0
   60.3843   29.2108   45.5270 H   0  0  0  0  0  0  0  0  0  0  0  0
   59.7663   28.8722   43.8667 H   0  0  0  0  0  0  0  0  0  0  0  0
   58.6310   30.3020   44.9720 C   0  0  0  0  0  0  0  0  0  0  0  0
   57.4600   30.3950   44.2030 C   0  0  0  0  0  0  0  0  0  0  0  0
   57.1701   29.5640   43.5431 H   0  0  0  0  0  0  0  0  0  0  0  0
   56.6620   31.5390   44.2730 C   0  0  0  0  0  0  0  0  0  0  0  0
   55.7460   31.6058   43.6676 H   0  0  0  0  0  0  0  0  0  0  0  0
   57.0220   32.5980   45.1080 C   0  0  0  0  0  0  0  0  0  0  0  0
   56.3870   33.4948   45.1586 H   0  0  0  0  0  0  0  0  0  0  0  0
   58.1920   32.5250   45.8850 C   0  0  0  0  0  0  0  0  0  0  0  0
   58.5760   33.6430   46.7750 C   0  0  0  0  0  0  0  0  0  0  0  0
   58.5870   33.4920   48.0260 O   0  0  0  0  0  0  0  0  0  0  0  0
   58.9350   34.8760   46.2420 O   0  0  0  0  0  0  0  0  0  0  0  0
   58.9920   31.3720   45.8070 C   0  0  0  0  0  0  0  0  0  0  0  0
   59.9117   31.3069   46.4070 H   0  0  0  0  0  0  0  0  0  0  0  0
  1  2  1  0
  2  3  1  0
  2  4  2  0
  4  5  1  0
  5  6  2  0
  6  7  1  0
  6  8  1  0
  8  9  2  0
  9 10  1  0
  9 11  1  0
 11 12  1  0
 12 13  2  0
 12 14  1  0
 14 15  1  0
 15 16  2  0
  5 17  1  0
 17 18  1  0
 17 19  2  0
 19 20  1  0
 20 21  1  0
 20 22  1  0
 20 23  1  0
 19 24  1  0
 24 25  1  0
 25 26  1  0
 25 27  1  0
 25 28  1  0
 28 29  2  0
 29 30  1  0
 29 31  1  0
 31 32  1  0
 31 33  2  0
 33 34  1  0
 33 35  1  0
 35 36  1  0
 36 37  2  0
 36 38  1  0
 35 39  2  0
 39 40  1  0
 24  4  1  0
 39 28  1  0
 15  8  1  0
M  CHG  4  10  -1  11  -1  14  -1  38  -1
M  END
>  <UniqueID>  (68) 
66

>  <SMILES>  (68) 
C=c1/c(=C\c2c([O-])[n-]c(=O)[n-]c2=O)cc(C)n1Cc1cccc(C(=O)[O-])c1

>  <Energy>  (68) 
85.83132885805435

>  <Genealogy>  (68) 
C=c1c(=Cc2c([O-])[n-]c(=O)[n-]c2=O)cc(C)n1Cc1cccc(C(=O)[O-])c1 (protonated)
C=c1/c(=C\c2c([O-])[n-]c(=O)[n-]c2=O)cc(C)n1Cc1cccc(C(=O)[O-])c1 (cis-trans isomerization)
C=c1/c(=C\c2c([O-])[n-]c(=O)[n-]c2=O)cc(C)n1Cc1cccc(C(=O)[O-])c1 (3D coordinates assigned)
C=c1/c(=C\c2c([O-])[n-]c(=O)[n-]c2=O)cc(C)n1Cc1cccc(C(=O)[O-])c1 (optimized conformer: 85.83132885805435 kcal/mol)

>  <smiles>  (68) 
C=c1c(=Cc2c(O)[nH]c(=O)[nH]c2=O)cc(C)n1Cc1cccc(C(=O)O)c1

>  <score_type>  (68) 
oracle

>  <origin>  (68) 
adg

>  <m_score__min__energy>  (68) 
-16.469999999999999

>  <m_primary>  (68) 
energy

$$$$
68:0
     RDKit          3D

 32 33  0  0  0  0  0  0  0  0999 V2000
   57.0870   27.2760   47.0940 O   0  0  0  0  0  0  0  0  0  0  0  0
   56.5470   26.7830   46.0690 C   0  0  0  0  0  0  0  0  0  0  0  0
   55.1620   26.7060   45.9900 O   0  0  0  0  0  0  0  0  0  0  0  0
   57.3890   26.3290   44.9210 C   0  0  0  0  0  0  0  0  0  0  0  0
   57.7740   27.5030   44.0670 C   0  0  0  0  0  0  0  0  0  0  0  0
   57.8370   27.3610   42.8150 O   0  0  0  0  0  0  0  0  0  0  0  0
   58.0150   28.8360   44.6540 C   0  0  0  0  0  0  0  0  0  0  0  0
   59.1600   29.0270   45.4390 C   0  0  0  0  0  0  0  0  0  0  0  0
   59.4230   30.2830   46.0000 C   0  0  0  0  0  0  0  0  0  0  0  0
   60.6450   30.4950   46.8550 C   0  0  0  0  0  0  0  0  0  0  0  0
   60.3150   31.3610   48.0470 C   0  0  0  0  0  0  0  0  0  0  0  0
   59.2810   30.9660   48.9160 C   0  0  0  0  0  0  0  0  0  0  0  0
   58.9710   31.7280   50.0450 C   0  0  0  0  0  0  0  0  0  0  0  0
   59.6920   32.8910   50.3250 C   0  0  0  0  0  0  0  0  0  0  0  0
   59.3020   33.8450   51.7440 Cl  0  0  0  0  0  0  0  0  0  0  0  0
   60.7260   33.2920   49.4740 C   0  0  0  0  0  0  0  0  0  0  0  0
   61.0450   32.5360   48.3400 C   0  0  0  0  0  0  0  0  0  0  0  0
   62.3580   33.0980   47.3120 Cl  0  0  0  0  0  0  0  0  0  0  0  0
   58.5550   31.3120   45.7830 N   0  0  0  0  0  0  0  0  0  0  0  0
   57.4230   31.1540   45.0430 C   0  0  0  0  0  0  0  0  0  0  0  0
   56.6400   32.1290   44.8850 O   0  0  0  0  0  0  0  0  0  0  0  0
   57.1240   29.9100   44.4660 C   0  0  0  0  0  0  0  0  0  0  0  0
   55.6040   29.7060   43.5910 Cl  0  0  0  0  0  0  0  0  0  0  0  0
   58.2988   25.8453   45.3061 H   0  0  0  0  0  0  0  0  0  0  0  0
   56.8140   25.6149   44.3132 H   0  0  0  0  0  0  0  0  0  0  0  0
   59.8523   28.1904   45.6146 H   0  0  0  0  0  0  0  0  0  0  0  0
   61.0135   29.5202   47.2071 H   0  0  0  0  0  0  0  0  0  0  0  0
   61.4162   30.9982   46.2533 H   0  0  0  0  0  0  0  0  0  0  0  0
   58.7117   30.0489   48.7043 H   0  0  0  0  0  0  0  0  0  0  0  0
   58.1577   31.4116   50.7146 H   0  0  0  0  0  0  0  0  0  0  0  0
   61.2928   34.2079   49.6971 H   0  0  0  0  0  0  0  0  0  0  0  0
   58.7560   32.2500   46.2000 H   0  0  0  0  0  0  0  0  0  0  0  0
  1  2  2  0
  2  3  1  0
  2  4  1  0
  4  5  1  0
  5  6  2  0
  5  7  1  0
  7  8  1  0
  8  9  2  0
  9 10  1  0
 10 11  1  0
 11 12  2  0
 12 13  1  0
 13 14  2  0
 14 15  1  0
 14 16  1  0
 16 17  2  0
 17 18  1  0
  9 19  1  0
 19 20  1  0
 20 21  2  0
 20 22  1  0
 22 23  1  0
 22  7  2  0
 17 11  1  0
  4 24  1  0
  4 25  1  0
  8 26  1  0
 10 27  1  0
 10 28  1  0
 12 29  1  0
 13 30  1  0
 16 31  1  0
 19 32  1  0
M  CHG  1   3  -1
M  END
>  <UniqueID>  (69) 
67

>  <SMILES>  (69) 
O=C([O-])CC(=O)c1cc(Cc2ccc(Cl)cc2Cl)[nH]c(=O)c1Cl

>  <Energy>  (69) 
38.447802009906695

>  <Genealogy>  (69) 
O=C([O-])CC(=O)c1cc(Cc2ccc(Cl)cc2Cl)[nH]c(=O)c1Cl (protonated)
O=C([O-])CC(=O)c1cc(Cc2ccc(Cl)cc2Cl)[nH]c(=O)c1Cl (3D coordinates assigned)
O=C([O-])CC(=O)c1cc(Cc2ccc(Cl)cc2Cl)[nH]c(=O)c1Cl (optimized conformer: 38.447802009906695 kcal/mol)

>  <smiles>  (69) 
O=C(O)CC(=O)c1cc(Cc2ccc(Cl)cc2Cl)[nH]c(=O)c1Cl

>  <score_type>  (69) 
oracle

>  <origin>  (69) 
adg

>  <m_score__min__energy>  (69) 
-10.369999999999999

>  <m_primary>  (69) 
energy

$$$$
69:0
     RDKit          3D

 46 49  0  0  0  0  0  0  0  0999 V2000
   57.1620   31.4270   42.4700 O   0  0  0  0  0  0  0  0  0  0  0  0
   57.3040   31.4750   43.7200 C   0  0  0  0  0  0  0  0  0  0  0  0
   57.2740   32.7560   44.3660 N   0  0  0  0  0  0  0  0  0  0  0  0
   58.0760   33.1560   45.4860 C   0  0  0  0  0  0  0  0  0  0  0  0
   57.7610   32.6620   46.7570 C   0  0  0  0  0  0  0  0  0  0  0  0
   58.5280   33.0260   47.8680 C   0  0  0  0  0  0  0  0  0  0  0  0
   59.6160   33.9020   47.7230 C   0  0  0  0  0  0  0  0  0  0  0  0
   60.4610   34.2840   48.9190 C   0  0  0  0  0  0  0  0  0  0  0  0
   61.6770   33.4390   49.0400 N   0  0  0  0  0  0  0  0  0  0  0  0
   61.4780   32.1720   48.2850 C   0  0  0  0  0  0  0  0  0  0  0  0
   62.8090   31.4950   47.9380 C   0  0  0  0  0  0  0  0  0  0  0  0
   63.6530   32.3900   47.0140 C   0  0  0  0  0  0  0  0  0  0  0  0
   63.3490   33.8860   47.2020 C   0  0  0  0  0  0  0  0  0  0  0  0
   62.9110   34.1820   48.6430 C   0  0  0  0  0  0  0  0  0  0  0  0
   59.9090   34.4260   46.4550 C   0  0  0  0  0  0  0  0  0  0  0  0
   59.1420   34.0610   45.3450 C   0  0  0  0  0  0  0  0  0  0  0  0
   57.4460   30.2130   44.4840 C   0  0  0  0  0  0  0  0  0  0  0  0
   58.7000   29.8700   45.0580 C   0  0  0  0  0  0  0  0  0  0  0  0
   58.8530   28.6770   45.7890 C   0  0  0  0  0  0  0  0  0  0  0  0
   57.7420   27.8500   45.9190 C   0  0  0  0  0  0  0  0  0  0  0  0
   57.6660   26.6770   46.5660 N   0  0  0  0  0  0  0  0  0  0  0  0
   56.3710   26.3260   46.3590 C   0  0  0  0  0  0  0  0  0  0  0  0
   55.8800   25.2610   46.8190 O   0  0  0  0  0  0  0  0  0  0  0  0
   55.6420   27.2030   45.6240 N   0  0  0  0  0  0  0  0  0  0  0  0
   56.5420   28.1620   45.3600 C   0  0  0  0  0  0  0  0  0  0  0  0
   56.3490   29.3300   44.6280 C   0  0  0  0  0  0  0  0  0  0  0  0
   56.9047   31.9831   46.8827 H   0  0  0  0  0  0  0  0  0  0  0  0
   58.2778   32.6241   48.8609 H   0  0  0  0  0  0  0  0  0  0  0  0
   60.7689   35.3348   48.8141 H   0  0  0  0  0  0  0  0  0  0  0  0
   59.8536   34.1331   49.8236 H   0  0  0  0  0  0  0  0  0  0  0  0
   61.7850   33.1710   50.0470 H   0  0  0  0  0  0  0  0  0  0  0  0
   60.8787   31.4833   48.8986 H   0  0  0  0  0  0  0  0  0  0  0  0
   60.9647   32.4150   47.3429 H   0  0  0  0  0  0  0  0  0  0  0  0
   63.3691   31.3043   48.8653 H   0  0  0  0  0  0  0  0  0  0  0  0
   62.5982   30.5496   47.4166 H   0  0  0  0  0  0  0  0  0  0  0  0
   64.7173   32.2166   47.2313 H   0  0  0  0  0  0  0  0  0  0  0  0
   63.4033   32.1268   45.9756 H   0  0  0  0  0  0  0  0  0  0  0  0
   64.2541   34.4683   46.9744 H   0  0  0  0  0  0  0  0  0  0  0  0
   62.5300   34.1650   46.5227 H   0  0  0  0  0  0  0  0  0  0  0  0
   63.7268   33.8965   49.3234 H   0  0  0  0  0  0  0  0  0  0  0  0
   62.6835   35.2565   48.7047 H   0  0  0  0  0  0  0  0  0  0  0  0
   60.7471   35.1281   46.3337 H   0  0  0  0  0  0  0  0  0  0  0  0
   59.3738   34.4841   44.3564 H   0  0  0  0  0  0  0  0  0  0  0  0
   59.5599   30.5438   44.9297 H   0  0  0  0  0  0  0  0  0  0  0  0
   59.8184   28.4077   46.2422 H   0  0  0  0  0  0  0  0  0  0  0  0
   55.3733   29.5600   44.1750 H   0  0  0  0  0  0  0  0  0  0  0  0
  1  2  2  0
  2  3  1  0
  3  4  1  0
  4  5  2  0
  5  6  1  0
  6  7  2  0
  7  8  1  0
  8  9  1  0
  9 10  1  0
 10 11  1  0
 11 12  1  0
 12 13  1  0
 13 14  1  0
  7 15  1  0
 15 16  2  0
  2 17  1  0
 17 18  2  0
 18 19  1  0
 19 20  2  0
 20 21  1  0
 21 22  1  0
 22 23  2  0
 22 24  1  0
 24 25  1  0
 25 26  2  0
 16  4  1  0
 26 17  1  0
 14  9  1  0
 25 20  1  0
  5 27  1  0
  6 28  1  0
  8 29  1  0
  8 30  1  0
  9 31  1  0
 10 32  1  0
 10 33  1  0
 11 34  1  0
 11 35  1  0
 12 36  1  0
 12 37  1  0
 13 38  1  0
 13 39  1  0
 14 40  1  0
 14 41  1  0
 15 42  1  0
 16 43  1  0
 18 44  1  0
 19 45  1  0
 26 46  1  0
M  CHG  4   3  -1   9   1  21  -1  24  -1
M  END
>  <UniqueID>  (70) 
68

>  <SMILES>  (70) 
O=C([N-]c1ccc(C[NH+]2CCCCC2)cc1)c1ccc2[n-]c(=O)[n-]c2c1

>  <Energy>  (70) 
99.30342600093651

>  <Genealogy>  (70) 
O=C([N-]c1ccc(C[NH+]2CCCCC2)cc1)c1ccc2[n-]c(=O)[n-]c2c1 (protonated)
O=C([N-]c1ccc(C[NH+]2CCCCC2)cc1)c1ccc2[n-]c(=O)[n-]c2c1 (3D coordinates assigned)
O=C([N-]c1ccc(C[NH+]2CCCCC2)cc1)c1ccc2[n-]c(=O)[n-]c2c1 (nonaromatic ring conformer: 99.30342600093651 kcal/mol)

>  <smiles>  (70) 
O=C(Nc1ccc(CN2CCCCC2)cc1)c1ccc2[nH]c(=O)[nH]c2c1

>  <score_type>  (70) 
oracle

>  <origin>  (70) 
adg

>  <m_score__min__energy>  (70) 
-12.199999999999999

>  <m_primary>  (70) 
energy

$$$$
70:0
     RDKit          3D

 58 61  0  0  0  0  0  0  0  0999 V2000
   64.0580   33.3010   48.3560 N   0  0  0  0  0  0  0  0  0  0  0  0
   63.3780   32.2840   49.1050 C   0  0  0  0  0  0  0  0  0  0  0  0
   64.0750   31.5880   50.1060 C   0  0  0  0  0  0  0  0  0  0  0  0
   63.4550   30.5510   50.8060 C   0  0  0  0  0  0  0  0  0  0  0  0
   62.1380   30.1930   50.5080 C   0  0  0  0  0  0  0  0  0  0  0  0
   61.4330   30.8790   49.5170 C   0  0  0  0  0  0  0  0  0  0  0  0
   62.0350   31.9380   48.8230 C   0  0  0  0  0  0  0  0  0  0  0  0
   61.2710   32.6410   47.8350 N   0  0  0  0  0  0  0  0  0  0  0  0
   61.0590   34.0570   47.9050 C   0  0  0  0  0  0  0  0  0  0  0  0
   61.5880   34.7350   48.8290 O   0  0  0  0  0  0  0  0  0  0  0  0
   60.1800   34.7400   46.9030 C   0  0  0  0  0  0  0  0  0  0  0  0
   59.2780   33.7450   46.2200 C   0  0  0  0  0  0  0  0  0  0  0  0
   59.0860   33.8020   44.8300 C   0  0  0  0  0  0  0  0  0  0  0  0
   58.2240   32.9010   44.1980 C   0  0  0  0  0  0  0  0  0  0  0  0
   57.5500   31.9240   44.9510 C   0  0  0  0  0  0  0  0  0  0  0  0
   56.6550   30.9900   44.3330 N   0  0  0  0  0  0  0  0  0  0  0  0
   56.3610   29.6710   44.8180 C   0  0  0  0  0  0  0  0  0  0  0  0
   55.1530   29.3360   44.9490 O   0  0  0  0  0  0  0  0  0  0  0  0
   57.4280   28.6760   45.0970 C   0  0  0  0  0  0  0  0  0  0  0  0
   58.7760   29.0340   44.9450 C   0  0  0  0  0  0  0  0  0  0  0  0
   59.7870   28.1230   45.2540 C   0  0  0  0  0  0  0  0  0  0  0  0
   59.4690   26.8530   45.7360 C   0  0  0  0  0  0  0  0  0  0  0  0
   58.1280   26.4790   45.9090 C   0  0  0  0  0  0  0  0  0  0  0  0
   57.7490   25.2080   46.4560 N   0  0  0  0  0  0  0  0  0  0  0  0
   58.2500   23.6450   45.8830 S   0  0  0  0  0  0  0  0  0  0  0  0
   59.7500   23.5890   45.9310 O   0  0  0  0  0  0  0  0  0  0  0  0
   57.7100   22.5560   46.7710 O   0  0  0  0  0  0  0  0  0  0  0  0
   57.7500   23.3830   44.1820 C   0  0  0  0  0  0  0  0  0  0  0  0
   56.4600   24.1370   43.8550 C   0  0  0  0  0  0  0  0  0  0  0  0
   55.2170   23.7010   44.6130 C   0  0  0  0  0  0  0  0  0  0  0  0
   55.3950   23.3050   43.1560 C   0  0  0  0  0  0  0  0  0  0  0  0
   57.1160   27.3890   45.5780 C   0  0  0  0  0  0  0  0  0  0  0  0
   57.7690   31.8430   46.3300 C   0  0  0  0  0  0  0  0  0  0  0  0
   58.6170   32.7550   46.9650 C   0  0  0  0  0  0  0  0  0  0  0  0
   64.9450   33.1020   47.8410 H   0  0  0  0  0  0  0  0  0  0  0  0
   63.7120   34.2870   48.3660 H   0  0  0  0  0  0  0  0  0  0  0  0
   65.1146   31.8611   50.3398 H   0  0  0  0  0  0  0  0  0  0  0  0
   64.0047   30.0149   51.5937 H   0  0  0  0  0  0  0  0  0  0  0  0
   61.6556   29.3694   51.0549 H   0  0  0  0  0  0  0  0  0  0  0  0
   60.3994   30.5869   49.2795 H   0  0  0  0  0  0  0  0  0  0  0  0
   60.6750   32.0790   47.1850 H   0  0  0  0  0  0  0  0  0  0  0  0
   59.5639   35.4926   47.4168 H   0  0  0  0  0  0  0  0  0  0  0  0
   60.8154   35.2203   46.1443 H   0  0  0  0  0  0  0  0  0  0  0  0
   59.6169   34.5599   44.2352 H   0  0  0  0  0  0  0  0  0  0  0  0
   58.0729   32.9567   43.1098 H   0  0  0  0  0  0  0  0  0  0  0  0
   59.0374   30.0383   44.5803 H   0  0  0  0  0  0  0  0  0  0  0  0
   60.8406   28.4079   45.1168 H   0  0  0  0  0  0  0  0  0  0  0  0
   60.2723   26.1426   45.9812 H   0  0  0  0  0  0  0  0  0  0  0  0
   58.5501   23.7375   43.5155 H   0  0  0  0  0  0  0  0  0  0  0  0
   57.5678   22.3079   44.0373 H   0  0  0  0  0  0  0  0  0  0  0  0
   56.9514   25.1037   43.6705 H   0  0  0  0  0  0  0  0  0  0  0  0
   55.2937   22.9395   45.4031 H   0  0  0  0  0  0  0  0  0  0  0  0
   54.4353   24.2191   45.1879 H   0  0  0  0  0  0  0  0  0  0  0  0
   55.6009   22.2572   42.8919 H   0  0  0  0  0  0  0  0  0  0  0  0
   54.7962   23.4179   42.2402 H   0  0  0  0  0  0  0  0  0  0  0  0
   56.0626   27.0947   45.6953 H   0  0  0  0  0  0  0  0  0  0  0  0
   57.2714   31.0576   46.9179 H   0  0  0  0  0  0  0  0  0  0  0  0
   58.7672   32.6969   48.0531 H   0  0  0  0  0  0  0  0  0  0  0  0
  1  2  1  0
  2  3  2  0
  3  4  1  0
  4  5  2  0
  5  6  1  0
  6  7  2  0
  7  8  1  0
  8  9  1  0
  9 10  2  0
  9 11  1  0
 11 12  1  0
 12 13  2  0
 13 14  1  0
 14 15  2  0
 15 16  1  0
 16 17  1  0
 17 18  2  0
 17 19  1  0
 19 20  2  0
 20 21  1  0
 21 22  2  0
 22 23  1  0
 23 24  1  0
 24 25  1  0
 25 26  2  0
 25 27  2  0
 25 28  1  0
 28 29  1  0
 29 30  1  0
 30 31  1  0
 23 32  2  0
 15 33  1  0
 33 34  2  0
  7  2  1  0
 34 12  1  0
 32 19  1  0
 31 29  1  0
  1 35  1  0
  1 36  1  0
  3 37  1  0
  4 38  1  0
  5 39  1  0
  6 40  1  0
  8 41  1  0
 11 42  1  0
 11 43  1  0
 13 44  1  0
 14 45  1  0
 20 46  1  0
 21 47  1  0
 22 48  1  0
 28 49  1  0
 28 50  1  0
 29 51  1  0
 30 52  1  0
 30 53  1  0
 31 54  1  0
 31 55  1  0
 32 56  1  0
 33 57  1  0
 34 58  1  0
M  CHG  2  16  -1  24  -1
M  END
>  <UniqueID>  (71) 
69

>  <SMILES>  (71) 
Nc1ccccc1NC(=O)Cc1ccc([N-]C(=O)c2cccc([N-]S(=O)(=O)CC3CC3)c2)cc1

>  <Energy>  (71) 
333.287011003283

>  <Genealogy>  (71) 
Nc1ccccc1NC(=O)Cc1ccc([N-]C(=O)c2cccc([N-]S(=O)(=O)CC3CC3)c2)cc1 (protonated)
Nc1ccccc1NC(=O)Cc1ccc([N-]C(=O)c2cccc([N-]S(=O)(=O)CC3CC3)c2)cc1 (3D coordinates assigned)
Nc1ccccc1NC(=O)Cc1ccc([N-]C(=O)c2cccc([N-]S(=O)(=O)CC3CC3)c2)cc1 (nonaromatic ring conformer: 333.287011003283 kcal/mol)

>  <smiles>  (71) 
Nc1ccccc1NC(=O)Cc1ccc(NC(=O)c2cccc(NS(=O)(=O)CC3CC3)c2)cc1

>  <score_type>  (71) 
oracle

>  <origin>  (71) 
adg

>  <m_score__min__energy>  (71) 
-13.41

>  <m_primary>  (71) 
energy

$$$$
71:0
     RDKit          3D

 23 24  0  0  0  0  0  0  0  0999 V2000
   57.2780   32.1030   41.2620 C   0  0  0  0  0  0  0  0  0  0  0  0
   57.0120   31.2320   42.4320 C   0  0  0  0  0  0  0  0  0  0  0  0
   56.3190   30.0830   42.3430 N   0  0  0  0  0  0  0  0  0  0  0  0
   56.2370   29.5120   43.5310 N   0  0  0  0  0  0  0  0  0  0  0  0
   56.8950   30.3200   44.4140 C   0  0  0  0  0  0  0  0  0  0  0  0
   56.9720   30.0220   45.6240 O   0  0  0  0  0  0  0  0  0  0  0  0
   57.4030   31.4180   43.7660 C   0  0  0  0  0  0  0  0  0  0  0  0
   58.1300   32.5700   44.2030 C   0  0  0  0  0  0  0  0  0  0  0  0
   58.6690   33.2770   43.2670 O   0  0  0  0  0  0  0  0  0  0  0  0
   58.3430   33.0530   45.5420 C   0  0  0  0  0  0  0  0  0  0  0  0
   58.9040   34.3120   45.7990 C   0  0  0  0  0  0  0  0  0  0  0  0
   59.0200   34.4920   47.1650 C   0  0  0  0  0  0  0  0  0  0  0  0
   58.5360   33.3560   47.7340 C   0  0  0  0  0  0  0  0  0  0  0  0
   58.1420   32.5190   46.7510 N   0  0  0  0  0  0  0  0  0  0  0  0
   57.5828   33.1011   41.6097 H   0  0  0  0  0  0  0  0  0  0  0  0
   58.0832   31.6647   40.6541 H   0  0  0  0  0  0  0  0  0  0  0  0
   56.3653   32.1894   40.6541 H   0  0  0  0  0  0  0  0  0  0  0  0
   55.9020   29.6820   41.4750 H   0  0  0  0  0  0  0  0  0  0  0  0
   55.7480   28.6040   43.7390 H   0  0  0  0  0  0  0  0  0  0  0  0
   59.2048   35.0424   45.0335 H   0  0  0  0  0  0  0  0  0  0  0  0
   59.4218   35.3741   47.6851 H   0  0  0  0  0  0  0  0  0  0  0  0
   58.4757   33.1532   48.8135 H   0  0  0  0  0  0  0  0  0  0  0  0
   57.7550   31.5870   46.9630 H   0  0  0  0  0  0  0  0  0  0  0  0
  1  2  1  0
  2  3  1  0
  3  4  1  0
  4  5  1  0
  5  6  2  0
  5  7  1  0
  7  8  1  0
  8  9  2  0
  8 10  1  0
 10 11  2  0
 11 12  1  0
 12 13  2  0
 13 14  1  0
  7  2  2  0
 14 10  1  0
  1 15  1  0
  1 16  1  0
  1 17  1  0
  3 18  1  0
  4 19  1  0
 11 20  1  0
 12 21  1  0
 13 22  1  0
 14 23  1  0
M  END
>  <smiles>  (72) 
Cc1[nH][nH]c(=O)c1C(=O)c1ccc[nH]1

>  <score_type>  (72) 
oracle

>  <origin>  (72) 
adg

>  <m_score__min__energy>  (72) 
-5.8200000000000003

>  <m_primary>  (72) 
energy

$$$$
72:0
     RDKit          3D

 50 52  0  0  0  0  0  0  0  0999 V2000
   54.1840   28.9410   44.1070 H   0  0  0  0  0  0  0  0  0  0  0  0
   54.7620   29.6840   43.6570 N   0  0  0  0  0  0  0  0  0  0  0  0
   56.0050   30.0930   44.2250 C   0  0  0  0  0  0  0  0  0  0  0  0
   56.5580   31.1420   43.8020 O   0  0  0  0  0  0  0  0  0  0  0  0
   56.6560   29.2410   45.2440 C   0  0  0  0  0  0  0  0  0  0  0  0
   56.0930   28.0300   45.4970 N   0  0  0  0  0  0  0  0  0  0  0  0
   56.6380   27.1250   46.3490 C   0  0  0  0  0  0  0  0  0  0  0  0
   55.9530   25.8360   46.5620 C   0  0  0  0  0  0  0  0  0  0  0  0
   56.3000   25.0750   47.5070 O   0  0  0  0  0  0  0  0  0  0  0  0
   54.8840   25.4530   45.6880 N   0  0  0  0  0  0  0  0  0  0  0  0
   54.8990   24.2410   44.8760 C   0  0  0  0  0  0  0  0  0  0  0  0
   54.0581   23.5961   45.1711 H   0  0  0  0  0  0  0  0  0  0  0  0
   54.8065   24.5195   43.8159 H   0  0  0  0  0  0  0  0  0  0  0  0
   56.1900   23.4950   45.0750 C   0  0  0  0  0  0  0  0  0  0  0  0
   57.2580   23.6910   44.1850 C   0  0  0  0  0  0  0  0  0  0  0  0
   57.1427   24.3789   43.3344 H   0  0  0  0  0  0  0  0  0  0  0  0
   58.4670   23.0160   44.3750 C   0  0  0  0  0  0  0  0  0  0  0  0
   59.2979   23.1736   43.6716 H   0  0  0  0  0  0  0  0  0  0  0  0
   58.6260   22.1410   45.4550 C   0  0  0  0  0  0  0  0  0  0  0  0
   59.8410   21.4780   45.6200 O   0  0  0  0  0  0  0  0  0  0  0  0
   59.8930   20.4710   45.7290 H   0  0  0  0  0  0  0  0  0  0  0  0
   57.5630   21.9450   46.3530 C   0  0  0  0  0  0  0  0  0  0  0  0
   57.7030   21.0840   47.4350 O   0  0  0  0  0  0  0  0  0  0  0  0
   56.3530   22.6230   46.1640 C   0  0  0  0  0  0  0  0  0  0  0  0
   55.5251   22.4720   46.8724 H   0  0  0  0  0  0  0  0  0  0  0  0
   57.8430   27.4250   46.9940 C   0  0  0  0  0  0  0  0  0  0  0  0
   58.3103   26.6849   47.6602 H   0  0  0  0  0  0  0  0  0  0  0  0
   58.4560   28.6750   46.7890 C   0  0  0  0  0  0  0  0  0  0  0  0
   59.5610   29.0090   47.4020 N   0  0  0  0  0  0  0  0  0  0  0  0
   59.7320   29.3470   48.8160 C   0  0  0  0  0  0  0  0  0  0  0  0
   59.4073   28.4952   49.4316 H   0  0  0  0  0  0  0  0  0  0  0  0
   60.7937   29.5703   48.9977 H   0  0  0  0  0  0  0  0  0  0  0  0
   58.9210   30.5520   49.1800 C   0  0  0  0  0  0  0  0  0  0  0  0
   58.1590   30.5090   50.1830 O   0  0  0  0  0  0  0  0  0  0  0  0
   59.0430   31.7480   48.3960 N   0  0  0  0  0  0  0  0  0  0  0  0
   60.2540   32.3870   47.9630 C   0  0  0  0  0  0  0  0  0  0  0  0
   61.4600   32.2710   48.6810 C   0  0  0  0  0  0  0  0  0  0  0  0
   61.4950   31.6632   49.5971 H   0  0  0  0  0  0  0  0  0  0  0  0
   62.6140   32.9250   48.2350 C   0  0  0  0  0  0  0  0  0  0  0  0
   64.1150   32.7660   49.1300 Cl  0  0  0  0  0  0  0  0  0  0  0  0
   62.5700   33.7130   47.0820 C   0  0  0  0  0  0  0  0  0  0  0  0
   63.4798   34.2196   46.7274 H   0  0  0  0  0  0  0  0  0  0  0  0
   61.3710   33.8580   46.3790 C   0  0  0  0  0  0  0  0  0  0  0  0
   61.3352   34.4882   45.4781 H   0  0  0  0  0  0  0  0  0  0  0  0
   60.2150   33.2020   46.8200 C   0  0  0  0  0  0  0  0  0  0  0  0
   59.0280   33.3600   46.1140 O   0  0  0  0  0  0  0  0  0  0  0  0
   57.8500   29.6060   45.9160 C   0  0  0  0  0  0  0  0  0  0  0  0
   58.4140   30.9190   45.7700 N   0  0  0  0  0  0  0  0  0  0  0  0
   59.2650   31.2060   46.3000 H   0  0  0  0  0  0  0  0  0  0  0  0
   58.0940   31.5660   45.0160 H   0  0  0  0  0  0  0  0  0  0  0  0
  1  2  1  0
  2  3  1  0
  3  4  2  0
  3  5  1  0
  5  6  1  0
  6  7  1  0
  7  8  1  0
  8  9  2  0
  8 10  1  0
 10 11  1  0
 11 12  1  0
 11 13  1  0
 11 14  1  0
 14 15  2  0
 15 16  1  0
 15 17  1  0
 17 18  1  0
 17 19  2  0
 19 20  1  0
 20 21  1  0
 19 22  1  0
 22 23  1  0
 22 24  2  0
 24 25  1  0
  7 26  2  0
 26 27  1  0
 26 28  1  0
 28 29  2  0
 29 30  1  0
 30 31  1  0
 30 32  1  0
 30 33  1  0
 33 34  2  0
 33 35  1  0
 35 36  1  0
 36 37  2  0
 37 38  1  0
 37 39  1  0
 39 40  1  0
 39 41  2  0
 41 42  1  0
 41 43  1  0
 43 44  1  0
 43 45  2  0
 45 46  1  0
 28 47  1  0
 47 48  1  0
 48 49  1  0
 48 50  1  0
 47  5  2  0
 24 14  1  0
 45 36  1  0
M  CHG  6   2  -1   6  -1  10  -1  23  -1  35  -1  46  -1
M  END
>  <UniqueID>  (73) 
70

>  <SMILES>  (73) 
[NH-]C(=O)c1[n-]c(C(=O)[N-]Cc2ccc(O)c([O-])c2)c/c(=N\CC(=O)[N-]c2cc(Cl)ccc2[O-])c1N

>  <Energy>  (73) 
60.766666595495785

>  <Genealogy>  (73) 
[NH-]C(=O)c1[n-]c(C(=O)[N-]Cc2ccc(O)c([O-])c2)cc(=NCC(=O)[N-]c2cc(Cl)ccc2[O-])c1N (protonated)
[NH-]C(=O)c1[n-]c(C(=O)[N-]Cc2ccc(O)c([O-])c2)c/c(=N\CC(=O)[N-]c2cc(Cl)ccc2[O-])c1N (cis-trans isomerization)
[NH-]C(=O)c1[n-]c(C(=O)[N-]Cc2ccc(O)c([O-])c2)c/c(=N\CC(=O)[N-]c2cc(Cl)ccc2[O-])c1N (3D coordinates assigned)
[NH-]C(=O)c1[n-]c(C(=O)[N-]Cc2ccc(O)c([O-])c2)c/c(=N\CC(=O)[N-]c2cc(Cl)ccc2[O-])c1N (optimized conformer: 60.766666595495785 kcal/mol)

>  <smiles>  (73) 
NC(=O)c1[nH]c(C(=O)NCc2ccc(O)c(O)c2)cc(=NCC(=O)Nc2cc(Cl)ccc2O)c1N

>  <score_type>  (73) 
oracle

>  <origin>  (73) 
adg

>  <m_score__min__energy>  (73) 
-18.75

>  <m_primary>  (73) 
energy

$$$$
73:0
     RDKit          3D

 61 65  0  0  0  0  0  0  0  0999 V2000
   53.6360   24.4640   45.4540 C   0  0  0  0  0  0  0  0  0  0  0  0
   54.5990   25.4790   45.7250 O   0  0  0  0  0  0  0  0  0  0  0  0
   55.9880   25.2860   45.6750 C   0  0  0  0  0  0  0  0  0  0  0  0
   56.5740   24.1840   45.0240 C   0  0  0  0  0  0  0  0  0  0  0  0
   57.9630   24.0420   44.9950 C   0  0  0  0  0  0  0  0  0  0  0  0
   58.7800   24.9860   45.6220 C   0  0  0  0  0  0  0  0  0  0  0  0
   58.2150   26.0890   46.2860 C   0  0  0  0  0  0  0  0  0  0  0  0
   59.0590   27.0680   46.9330 N   0  0  0  0  0  0  0  0  0  0  0  0
   59.4770   28.2790   46.2090 C   0  0  0  0  0  0  0  0  0  0  0  0
   59.5870   29.4790   47.1620 C   0  0  0  0  0  0  0  0  0  0  0  0
   60.2290   29.1220   48.4390 N   0  0  0  0  0  0  0  0  0  0  0  0
   60.2640   30.0680   49.5330 C   0  0  0  0  0  0  0  0  0  0  0  0
   60.4200   29.6520   50.7140 O   0  0  0  0  0  0  0  0  0  0  0  0
   60.0490   31.5470   49.3090 C   0  0  0  0  0  0  0  0  0  0  0  0
   60.9940   32.1340   48.2490 C   0  0  0  0  0  0  0  0  0  0  0  0
   60.3980   33.2930   47.4990 C   0  0  0  0  0  0  0  0  0  0  0  0
   60.7450   34.5940   47.6530 N   0  0  0  0  0  0  0  0  0  0  0  0
   60.0350   35.3100   46.7800 N   0  0  0  0  0  0  0  0  0  0  0  0
   59.2770   34.4270   46.1060 C   0  0  0  0  0  0  0  0  0  0  0  0
   58.3850   34.6820   45.0750 C   0  0  0  0  0  0  0  0  0  0  0  0
   57.7360   33.5740   44.5050 C   0  0  0  0  0  0  0  0  0  0  0  0
   58.0050   32.2640   44.9880 C   0  0  0  0  0  0  0  0  0  0  0  0
   57.3690   31.1070   44.4130 N   0  0  0  0  0  0  0  0  0  0  0  0
   57.0120   30.9740   43.0090 C   0  0  0  0  0  0  0  0  0  0  0  0
   56.5680   29.5280   42.8310 C   0  0  0  0  0  0  0  0  0  0  0  0
   56.3100   28.9910   44.2360 C   0  0  0  0  0  0  0  0  0  0  0  0
   57.0670   29.9130   45.1820 C   0  0  0  0  0  0  0  0  0  0  0  0
   58.8960   32.1060   46.0120 N   0  0  0  0  0  0  0  0  0  0  0  0
   59.4850   33.1810   46.5260 N   0  0  0  0  0  0  0  0  0  0  0  0
   60.7430   27.7570   48.6190 C   0  0  0  0  0  0  0  0  0  0  0  0
   59.6560   26.7510   48.2420 C   0  0  0  0  0  0  0  0  0  0  0  0
   56.8130   26.2310   46.2980 C   0  0  0  0  0  0  0  0  0  0  0  0
   53.2525   24.0598   46.4024 H   0  0  0  0  0  0  0  0  0  0  0  0
   52.8045   24.8926   44.8752 H   0  0  0  0  0  0  0  0  0  0  0  0
   54.1077   23.6562   44.8752 H   0  0  0  0  0  0  0  0  0  0  0  0
   55.9358   23.4323   44.5366 H   0  0  0  0  0  0  0  0  0  0  0  0
   58.4154   23.1838   44.4766 H   0  0  0  0  0  0  0  0  0  0  0  0
   59.8731   24.8655   45.5960 H   0  0  0  0  0  0  0  0  0  0  0  0
   60.4567   28.0991   45.7424 H   0  0  0  0  0  0  0  0  0  0  0  0
   58.7217   28.5078   45.4427 H   0  0  0  0  0  0  0  0  0  0  0  0
   60.1826   30.2647   46.6742 H   0  0  0  0  0  0  0  0  0  0  0  0
   58.5674   29.8271   47.3838 H   0  0  0  0  0  0  0  0  0  0  0  0
   59.0112   31.7052   48.9804 H   0  0  0  0  0  0  0  0  0  0  0  0
   60.2596   32.0592   50.2594 H   0  0  0  0  0  0  0  0  0  0  0  0
   61.9113   32.4767   48.7501 H   0  0  0  0  0  0  0  0  0  0  0  0
   61.1953   31.3394   47.5154 H   0  0  0  0  0  0  0  0  0  0  0  0
   58.1943   35.7054   44.7197 H   0  0  0  0  0  0  0  0  0  0  0  0
   57.0187   33.7201   43.6839 H   0  0  0  0  0  0  0  0  0  0  0  0
   56.1913   31.6611   42.7553 H   0  0  0  0  0  0  0  0  0  0  0  0
   57.8570   31.2229   42.3502 H   0  0  0  0  0  0  0  0  0  0  0  0
   55.6483   29.4819   42.2294 H   0  0  0  0  0  0  0  0  0  0  0  0
   57.3310   28.9340   42.3065 H   0  0  0  0  0  0  0  0  0  0  0  0
   55.2336   29.0118   44.4616 H   0  0  0  0  0  0  0  0  0  0  0  0
   56.6437   27.9477   44.3366 H   0  0  0  0  0  0  0  0  0  0  0  0
   56.4429   30.1653   46.0520 H   0  0  0  0  0  0  0  0  0  0  0  0
   57.9811   29.4369   45.5663 H   0  0  0  0  0  0  0  0  0  0  0  0
   61.6211   27.6075   47.9736 H   0  0  0  0  0  0  0  0  0  0  0  0
   61.0319   27.6090   49.6700 H   0  0  0  0  0  0  0  0  0  0  0  0
   60.0991   25.7451   48.1988 H   0  0  0  0  0  0  0  0  0  0  0  0
   58.8635   26.7969   49.0035 H   0  0  0  0  0  0  0  0  0  0  0  0
   56.3601   27.0964   46.8039 H   0  0  0  0  0  0  0  0  0  0  0  0
  1  2  1  0
  2  3  1  0
  3  4  2  0
  4  5  1  0
  5  6  2  0
  6  7  1  0
  7  8  1  0
  8  9  1  0
  9 10  1  0
 10 11  1  0
 11 12  1  0
 12 13  2  0
 12 14  1  0
 14 15  1  0
 15 16  1  0
 16 17  2  0
 17 18  1  0
 18 19  2  0
 19 20  1  0
 20 21  2  0
 21 22  1  0
 22 23  1  0
 23 24  1  0
 24 25  1  0
 25 26  1  0
 26 27  1  0
 22 28  2  0
 28 29  1  0
 11 30  1  0
 30 31  1  0
  7 32  2  0
 32  3  1  0
 31  8  1  0
 29 16  1  0
 29 19  1  0
 27 23  1  0
  1 33  1  0
  1 34  1  0
  1 35  1  0
  4 36  1  0
  5 37  1  0
  6 38  1  0
  9 39  1  0
  9 40  1  0
 10 41  1  0
 10 42  1  0
 14 43  1  0
 14 44  1  0
 15 45  1  0
 15 46  1  0
 20 47  1  0
 21 48  1  0
 24 49  1  0
 24 50  1  0
 25 51  1  0
 25 52  1  0
 26 53  1  0
 26 54  1  0
 27 55  1  0
 27 56  1  0
 30 57  1  0
 30 58  1  0
 31 59  1  0
 31 60  1  0
 32 61  1  0
M  END
>  <UniqueID>  (74) 
71

>  <SMILES>  (74) 
COc1cccc(N2CCN(C(=O)CCc3nnc4ccc(N5CCCC5)nn34)CC2)c1

>  <Energy>  (74) 
111.08821276525944

>  <Genealogy>  (74) 
COc1cccc(N2CCN(C(=O)CCc3nnc4ccc(N5CCCC5)nn34)CC2)c1 (3D coordinates assigned)
COc1cccc(N2CCN(C(=O)CCc3nnc4ccc(N5CCCC5)nn34)CC2)c1 (nonaromatic ring conformer: 111.08821276525944 kcal/mol)

>  <smiles>  (74) 
COc1cccc(N2CCN(C(=O)CCc3nnc4ccc(N5CCCC5)nn34)CC2)c1

>  <score_type>  (74) 
oracle

>  <origin>  (74) 
adg

>  <m_score__min__energy>  (74) 
-9.1300000000000008

>  <m_primary>  (74) 
energy

$$$$
74:0
     RDKit          3D

 70 73  0  0  0  0  0  0  0  0999 V2000
   58.9273   34.1289   44.9117 H   0  0  0  0  0  0  0  0  0  0  0  0
   59.1250   33.9230   45.9740 C   0  0  0  0  0  0  0  0  0  0  0  0
   58.2580   32.9240   46.6380 C   0  0  0  0  0  0  0  0  0  0  0  0
   57.4880   33.2590   47.5780 O   0  0  0  0  0  0  0  0  0  0  0  0
   58.1950   31.5400   46.1160 C   0  0  0  0  0  0  0  0  0  0  0  0
   58.8970   30.4890   46.7320 C   0  0  0  0  0  0  0  0  0  0  0  0
   59.6260   30.7330   47.9500 N   0  0  0  0  0  0  0  0  0  0  0  0
   61.0830   30.5950   47.9950 C   0  0  0  0  0  0  0  0  0  0  0  0
   61.5456   31.5929   48.0081 H   0  0  0  0  0  0  0  0  0  0  0  0
   61.4268   30.0433   47.1076 H   0  0  0  0  0  0  0  0  0  0  0  0
   61.4850   29.8280   49.2620 C   0  0  0  0  0  0  0  0  0  0  0  0
   62.5815   29.8513   49.3470 H   0  0  0  0  0  0  0  0  0  0  0  0
   61.0896   28.8072   49.1545 H   0  0  0  0  0  0  0  0  0  0  0  0
   60.9030   30.3870   50.5240 N   0  0  0  0  0  0  0  0  0  0  0  0
   61.6940   30.8500   51.0340 H   0  0  0  0  0  0  0  0  0  0  0  0
   60.4030   29.2880   51.3920 C   0  0  0  0  0  0  0  0  0  0  0  0
   59.3074   29.3636   51.4552 H   0  0  0  0  0  0  0  0  0  0  0  0
   60.8831   29.4041   52.3748 H   0  0  0  0  0  0  0  0  0  0  0  0
   60.7660   27.8910   50.8700 C   0  0  0  0  0  0  0  0  0  0  0  0
   60.9414   27.2159   51.7206 H   0  0  0  0  0  0  0  0  0  0  0  0
   59.9391   27.5021   50.2577 H   0  0  0  0  0  0  0  0  0  0  0  0
   61.6776   27.9538   50.2577 H   0  0  0  0  0  0  0  0  0  0  0  0
   59.8720   31.4390   50.2990 C   0  0  0  0  0  0  0  0  0  0  0  0
   60.3809   32.3802   50.0436 H   0  0  0  0  0  0  0  0  0  0  0  0
   59.2849   31.5291   51.2248 H   0  0  0  0  0  0  0  0  0  0  0  0
   58.8960   31.0870   49.1670 C   0  0  0  0  0  0  0  0  0  0  0  0
   58.2513   31.9545   48.9625 H   0  0  0  0  0  0  0  0  0  0  0  0
   58.2869   30.2257   49.4786 H   0  0  0  0  0  0  0  0  0  0  0  0
   58.8270   29.2220   46.2070 N   0  0  0  0  0  0  0  0  0  0  0  0
   59.5690   28.1190   46.8460 C   0  0  0  0  0  0  0  0  0  0  0  0
   59.5027   28.2176   47.9396 H   0  0  0  0  0  0  0  0  0  0  0  0
   59.1336   27.1571   46.5375 H   0  0  0  0  0  0  0  0  0  0  0  0
   60.6241   28.1597   46.5375 H   0  0  0  0  0  0  0  0  0  0  0  0
   58.1150   28.9880   45.0560 C   0  0  0  0  0  0  0  0  0  0  0  0
   58.1270   27.8380   44.5330 O   0  0  0  0  0  0  0  0  0  0  0  0
   57.3880   29.9900   44.4680 N   0  0  0  0  0  0  0  0  0  0  0  0
   56.6210   29.7110   43.2400 C   0  0  0  0  0  0  0  0  0  0  0  0
   55.6186   29.3464   43.5087 H   0  0  0  0  0  0  0  0  0  0  0  0
   56.5291   30.6333   42.6476 H   0  0  0  0  0  0  0  0  0  0  0  0
   57.1431   28.9452   42.6476 H   0  0  0  0  0  0  0  0  0  0  0  0
   57.4330   31.2600   44.9760 C   0  0  0  0  0  0  0  0  0  0  0  0
   56.8050   32.1960   44.4050 O   0  0  0  0  0  0  0  0  0  0  0  0
   60.1310   34.6010   46.5500 C   0  0  0  0  0  0  0  0  0  0  0  0
   60.0424   35.6967   46.5908 H   0  0  0  0  0  0  0  0  0  0  0  0
   61.3460   33.9980   47.1330 C   0  0  0  0  0  0  0  0  0  0  0  0
   62.5070   33.8240   46.3660 C   0  0  0  0  0  0  0  0  0  0  0  0
   62.5084   34.1073   45.3031 H   0  0  0  0  0  0  0  0  0  0  0  0
   63.6610   33.2930   46.9450 C   0  0  0  0  0  0  0  0  0  0  0  0
   64.5643   33.1484   46.3342 H   0  0  0  0  0  0  0  0  0  0  0  0
   63.6720   32.9450   48.2970 C   0  0  0  0  0  0  0  0  0  0  0  0
   64.5803   32.5168   48.7460 H   0  0  0  0  0  0  0  0  0  0  0  0
   62.5220   33.1410   49.0880 C   0  0  0  0  0  0  0  0  0  0  0  0
   62.4790   32.8150   50.4530 O   0  0  0  0  0  0  0  0  0  0  0  0
   63.3550   33.3340   51.4540 C   0  0  0  0  0  0  0  0  0  0  0  0
   63.3264   34.4332   51.4230 H   0  0  0  0  0  0  0  0  0  0  0  0
   63.0217   32.9689   52.4367 H   0  0  0  0  0  0  0  0  0  0  0  0
   64.7770   32.8680   51.2210 C   0  0  0  0  0  0  0  0  0  0  0  0
   65.7820   33.8380   51.0500 C   0  0  0  0  0  0  0  0  0  0  0  0
   65.5161   34.9053   51.0605 H   0  0  0  0  0  0  0  0  0  0  0  0
   67.1140   33.4590   50.8670 C   0  0  0  0  0  0  0  0  0  0  0  0
   67.8895   34.2269   50.7290 H   0  0  0  0  0  0  0  0  0  0  0  0
   67.4620   32.1090   50.8590 C   0  0  0  0  0  0  0  0  0  0  0  0
   68.5106   31.8127   50.7085 H   0  0  0  0  0  0  0  0  0  0  0  0
   66.4800   31.1320   51.0420 C   0  0  0  0  0  0  0  0  0  0  0  0
   66.7600   30.0683   51.0379 H   0  0  0  0  0  0  0  0  0  0  0  0
   65.1390   31.4990   51.2310 C   0  0  0  0  0  0  0  0  0  0  0  0
   64.1650   30.4520   51.4360 C   0  0  0  0  0  0  0  0  0  0  0  0
   63.3870   29.6110   51.5990 N   0  0  0  0  0  0  0  0  0  0  0  0
   61.3720   33.6810   48.4980 C   0  0  0  0  0  0  0  0  0  0  0  0
   60.4780   33.8585   49.1138 H   0  0  0  0  0  0  0  0  0  0  0  0
  1  2  1  0
  2  3  1  0
  3  4  2  0
  3  5  1  0
  5  6  2  0
  6  7  1  0
  7  8  1  0
  8  9  1  0
  8 10  1  0
  8 11  1  0
 11 12  1  0
 11 13  1  0
 11 14  1  0
 14 15  1  0
 14 16  1  0
 16 17  1  0
 16 18  1  0
 16 19  1  0
 19 20  1  0
 19 21  1  0
 19 22  1  0
 14 23  1  0
 23 24  1  0
 23 25  1  0
 23 26  1  0
 26 27  1  0
 26 28  1  0
  6 29  1  0
 29 30  1  0
 30 31  1  0
 30 32  1  0
 30 33  1  0
 29 34  1  0
 34 35  2  0
 34 36  1  0
 36 37  1  0
 37 38  1  0
 37 39  1  0
 37 40  1  0
 36 41  1  0
 41 42  2  0
  2 43  2  0
 43 44  1  0
 43 45  1  0
 45 46  2  0
 46 47  1  0
 46 48  1  0
 48 49  1  0
 48 50  2  0
 50 51  1  0
 50 52  1  0
 52 53  1  0
 53 54  1  0
 54 55  1  0
 54 56  1  0
 54 57  1  0
 57 58  2  0
 58 59  1  0
 58 60  1  0
 60 61  1  0
 60 62  2  0
 62 63  1  0
 62 64  1  0
 64 65  1  0
 64 66  2  0
 66 67  1  0
 67 68  3  0
 52 69  2  0
 69 70  1  0
 41  5  1  0
 69 45  1  0
 26  7  1  0
 66 57  1  0
M  CHG  1  14   1
M  END
>  <UniqueID>  (75) 
72

>  <SMILES>  (75) 
CC[NH+]1CCN(c2c(C(=O)/C=C\c3cccc(OCc4ccccc4C#N)c3)c(=O)n(C)c(=O)n2C)CC1

>  <Energy>  (75) 
108.31887078614979

>  <Genealogy>  (75) 
CC[NH+]1CCN(c2c(C(=O)C=Cc3cccc(OCc4ccccc4C#N)c3)c(=O)n(C)c(=O)n2C)CC1 (protonated)
CC[NH+]1CCN(c2c(C(=O)/C=C\c3cccc(OCc4ccccc4C#N)c3)c(=O)n(C)c(=O)n2C)CC1 (cis-trans isomerization)
CC[NH+]1CCN(c2c(C(=O)/C=C\c3cccc(OCc4ccccc4C#N)c3)c(=O)n(C)c(=O)n2C)CC1 (3D coordinates assigned)
CC[NH+]1CCN(c2c(C(=O)/C=C\c3cccc(OCc4ccccc4C#N)c3)c(=O)n(C)c(=O)n2C)CC1 (nonaromatic ring conformer: 108.31887078614979 kcal/mol)

>  <smiles>  (75) 
CCN1CCN(c2c(C(=O)C=Cc3cccc(OCc4ccccc4C#N)c3)c(=O)n(C)c(=O)n2C)CC1

>  <score_type>  (75) 
oracle

>  <origin>  (75) 
adg

>  <m_score__min__energy>  (75) 
-8.9000000000000004

>  <m_primary>  (75) 
energy

$$$$
75:0
     RDKit          3D

 43 45  0  0  0  0  0  0  0  0999 V2000
   57.6459   24.5624   45.3217 H   0  0  0  0  0  0  0  0  0  0  0  0
   57.1520   25.5440   45.2720 C   0  0  0  0  0  0  0  0  0  0  0  0
   55.9110   25.7140   46.0540 C   0  0  0  0  0  0  0  0  0  0  0  0
   55.1640   26.7160   45.8960 O   0  0  0  0  0  0  0  0  0  0  0  0
   55.5250   24.7140   46.9350 O   0  0  0  0  0  0  0  0  0  0  0  0
   57.7300   26.4820   44.5060 C   0  0  0  0  0  0  0  0  0  0  0  0
   58.3668   26.1391   43.6772 H   0  0  0  0  0  0  0  0  0  0  0  0
   57.5770   27.9380   44.6900 C   0  0  0  0  0  0  0  0  0  0  0  0
   57.1650   28.7280   43.6070 C   0  0  0  0  0  0  0  0  0  0  0  0
   56.9659   28.2606   42.6314 H   0  0  0  0  0  0  0  0  0  0  0  0
   57.0070   30.1060   43.7640 C   0  0  0  0  0  0  0  0  0  0  0  0
   56.6669   30.7177   42.9154 H   0  0  0  0  0  0  0  0  0  0  0  0
   57.2800   30.7160   45.0000 C   0  0  0  0  0  0  0  0  0  0  0  0
   57.0740   32.1220   45.1960 N   0  0  0  0  0  0  0  0  0  0  0  0
   57.6150   32.8760   46.2900 C   0  0  0  0  0  0  0  0  0  0  0  0
   56.8260   33.4880   47.0590 O   0  0  0  0  0  0  0  0  0  0  0  0
   59.0750   32.9700   46.5130 C   0  0  0  0  0  0  0  0  0  0  0  0
   59.7570   31.9460   47.1920 C   0  0  0  0  0  0  0  0  0  0  0  0
   59.2130   31.0436   47.5080 H   0  0  0  0  0  0  0  0  0  0  0  0
   61.1190   32.0660   47.4680 C   0  0  0  0  0  0  0  0  0  0  0  0
   61.6430   31.2549   47.9949 H   0  0  0  0  0  0  0  0  0  0  0  0
   61.8260   33.2150   47.0780 C   0  0  0  0  0  0  0  0  0  0  0  0
   63.2600   33.3700   47.4160 C   0  0  0  0  0  0  0  0  0  0  0  0
   64.1280   33.2040   46.5180 O   0  0  0  0  0  0  0  0  0  0  0  0
   63.7000   33.6590   48.7510 N   0  0  0  0  0  0  0  0  0  0  0  0
   64.4950   32.8040   49.5850 C   0  0  0  0  0  0  0  0  0  0  0  0
   65.8210   33.0770   49.7320 N   0  0  0  0  0  0  0  0  0  0  0  0
   66.6290   32.3190   50.5200 C   0  0  0  0  0  0  0  0  0  0  0  0
   67.6977   32.5645   50.6076 H   0  0  0  0  0  0  0  0  0  0  0  0
   66.1050   31.2300   51.2180 C   0  0  0  0  0  0  0  0  0  0  0  0
   66.7560   30.6106   51.8525 H   0  0  0  0  0  0  0  0  0  0  0  0
   64.7470   30.9360   51.1020 C   0  0  0  0  0  0  0  0  0  0  0  0
   64.3195   30.0835   51.6502 H   0  0  0  0  0  0  0  0  0  0  0  0
   63.9300   31.7250   50.2890 C   0  0  0  0  0  0  0  0  0  0  0  0
   62.8559   31.5049   50.2001 H   0  0  0  0  0  0  0  0  0  0  0  0
   61.1570   34.2130   46.3490 C   0  0  0  0  0  0  0  0  0  0  0  0
   61.7101   35.0966   45.9978 H   0  0  0  0  0  0  0  0  0  0  0  0
   59.7920   34.0900   46.0670 C   0  0  0  0  0  0  0  0  0  0  0  0
   59.2788   34.8754   45.4928 H   0  0  0  0  0  0  0  0  0  0  0  0
   57.7670   29.9400   46.0570 C   0  0  0  0  0  0  0  0  0  0  0  0
   58.0376   30.4188   47.0096 H   0  0  0  0  0  0  0  0  0  0  0  0
   57.9110   28.5560   45.9060 C   0  0  0  0  0  0  0  0  0  0  0  0
   58.2873   27.9499   46.7432 H   0  0  0  0  0  0  0  0  0  0  0  0
  1  2  1  0
  2  3  1  0
  3  4  2  0
  3  5  1  0
  2  6  2  0
  6  7  1  0
  6  8  1  0
  8  9  2  0
  9 10  1  0
  9 11  1  0
 11 12  1  0
 11 13  2  0
 13 14  1  0
 14 15  1  0
 15 16  2  0
 15 17  1  0
 17 18  2  0
 18 19  1  0
 18 20  1  0
 20 21  1  0
 20 22  2  0
 22 23  1  0
 23 24  2  0
 23 25  1  0
 25 26  1  0
 26 27  2  0
 27 28  1  0
 28 29  1  0
 28 30  2  0
 30 31  1  0
 30 32  1  0
 32 33  1  0
 32 34  2  0
 34 35  1  0
 22 36  1  0
 36 37  1  0
 36 38  2  0
 38 39  1  0
 13 40  1  0
 40 41  1  0
 40 42  2  0
 42 43  1  0
 42  8  1  0
 38 17  1  0
 34 26  1  0
M  CHG  3   5  -1  14  -1  25  -1
M  END
>  <UniqueID>  (76) 
73

>  <SMILES>  (76) 
O=C([O-])/C=C\c1ccc([N-]C(=O)c2ccc(C(=O)[N-]c3ccccn3)cc2)cc1

>  <Energy>  (76) 
65.20294229374062

>  <Genealogy>  (76) 
O=C([O-])C=Cc1ccc([N-]C(=O)c2ccc(C(=O)[N-]c3ccccn3)cc2)cc1 (protonated)
O=C([O-])/C=C\c1ccc([N-]C(=O)c2ccc(C(=O)[N-]c3ccccn3)cc2)cc1 (cis-trans isomerization)
O=C([O-])/C=C\c1ccc([N-]C(=O)c2ccc(C(=O)[N-]c3ccccn3)cc2)cc1 (3D coordinates assigned)
O=C([O-])/C=C\c1ccc([N-]C(=O)c2ccc(C(=O)[N-]c3ccccn3)cc2)cc1 (optimized conformer: 65.20294229374062 kcal/mol)

>  <smiles>  (76) 
O=C(O)C=Cc1ccc(NC(=O)c2ccc(C(=O)Nc3ccccn3)cc2)cc1

>  <score_type>  (76) 
oracle

>  <origin>  (76) 
adg

>  <m_score__min__energy>  (76) 
-14.279999999999999

>  <m_primary>  (76) 
energy

$$$$
76:0
     RDKit          3D

 33 34  0  0  0  0  0  0  0  0999 V2000
   56.1310   24.1230   44.5710 C   0  0  0  0  0  0  0  0  0  0  0  0
   55.2760   24.7420   46.0040 S   0  0  0  0  0  0  0  0  0  0  0  0
   55.8550   24.1500   47.2580 O   0  0  0  0  0  0  0  0  0  0  0  0
   53.8290   24.3480   45.9080 O   0  0  0  0  0  0  0  0  0  0  0  0
   55.3780   26.4730   46.0600 N   0  0  0  0  0  0  0  0  0  0  0  0
   56.5550   27.2550   45.8140 C   0  0  0  0  0  0  0  0  0  0  0  0
   57.8400   26.8010   46.1620 C   0  0  0  0  0  0  0  0  0  0  0  0
   58.9600   27.5920   45.9050 C   0  0  0  0  0  0  0  0  0  0  0  0
   58.8150   28.8420   45.3010 C   0  0  0  0  0  0  0  0  0  0  0  0
   57.5430   29.3130   44.9500 C   0  0  0  0  0  0  0  0  0  0  0  0
   57.3590   30.8930   44.1880 S   0  0  0  0  0  0  0  0  0  0  0  0
   56.2160   30.8350   43.2130 O   0  0  0  0  0  0  0  0  0  0  0  0
   58.6330   31.2410   43.4720 O   0  0  0  0  0  0  0  0  0  0  0  0
   57.0270   32.1010   45.3880 N   0  0  0  0  0  0  0  0  0  0  0  0
   57.9110   33.1680   45.7570 C   0  0  0  0  0  0  0  0  0  0  0  0
   58.3920   34.0980   44.8140 C   0  0  0  0  0  0  0  0  0  0  0  0
   59.2530   35.1250   45.2130 C   0  0  0  0  0  0  0  0  0  0  0  0
   59.6410   35.2340   46.5500 C   0  0  0  0  0  0  0  0  0  0  0  0
   59.1690   34.3170   47.4920 C   0  0  0  0  0  0  0  0  0  0  0  0
   58.3070   33.2870   47.0990 C   0  0  0  0  0  0  0  0  0  0  0  0
   57.8450   32.3810   48.0460 O   0  0  0  0  0  0  0  0  0  0  0  0
   56.4130   28.5150   45.2090 C   0  0  0  0  0  0  0  0  0  0  0  0
   55.1440   28.9700   44.8650 O   0  0  0  0  0  0  0  0  0  0  0  0
   56.9835   23.5058   44.8909 H   0  0  0  0  0  0  0  0  0  0  0  0
   55.4423   23.5128   43.9682 H   0  0  0  0  0  0  0  0  0  0  0  0
   56.4957   24.9678   43.9682 H   0  0  0  0  0  0  0  0  0  0  0  0
   57.9624   25.8174   46.6391 H   0  0  0  0  0  0  0  0  0  0  0  0
   59.9615   27.2291   46.1795 H   0  0  0  0  0  0  0  0  0  0  0  0
   59.7027   29.4596   45.0998 H   0  0  0  0  0  0  0  0  0  0  0  0
   58.0890   34.0158   43.7598 H   0  0  0  0  0  0  0  0  0  0  0  0
   59.6253   35.8482   44.4725 H   0  0  0  0  0  0  0  0  0  0  0  0
   60.3187   36.0425   46.8615 H   0  0  0  0  0  0  0  0  0  0  0  0
   59.4755   34.4046   48.5448 H   0  0  0  0  0  0  0  0  0  0  0  0
  1  2  1  0
  2  3  2  0
  2  4  2  0
  2  5  1  0
  5  6  1  0
  6  7  2  0
  7  8  1  0
  8  9  2  0
  9 10  1  0
 10 11  1  0
 11 12  2  0
 11 13  2  0
 11 14  1  0
 14 15  1  0
 15 16  2  0
 16 17  1  0
 17 18  2  0
 18 19  1  0
 19 20  2  0
 20 21  1  0
 10 22  2  0
 22 23  1  0
 22  6  1  0
 20 15  1  0
  1 24  1  0
  1 25  1  0
  1 26  1  0
  7 27  1  0
  8 28  1  0
  9 29  1  0
 16 30  1  0
 17 31  1  0
 18 32  1  0
 19 33  1  0
M  CHG  4   5  -1  14  -1  21  -1  23  -1
M  END
>  <UniqueID>  (77) 
74

>  <SMILES>  (77) 
CS(=O)(=O)[N-]c1cccc(S(=O)(=O)[N-]c2ccccc2[O-])c1[O-]

>  <Energy>  (77) 
38.36163122340165

>  <Genealogy>  (77) 
CS(=O)(=O)[N-]c1cccc(S(=O)(=O)[N-]c2ccccc2[O-])c1[O-] (protonated)
CS(=O)(=O)[N-]c1cccc(S(=O)(=O)[N-]c2ccccc2[O-])c1[O-] (3D coordinates assigned)
CS(=O)(=O)[N-]c1cccc(S(=O)(=O)[N-]c2ccccc2[O-])c1[O-] (optimized conformer: 38.36163122340165 kcal/mol)

>  <smiles>  (77) 
CS(=O)(=O)Nc1cccc(S(=O)(=O)Nc2ccccc2O)c1O

>  <score_type>  (77) 
oracle

>  <origin>  (77) 
adg

>  <m_score__min__energy>  (77) 
-17.440000000000001

>  <m_primary>  (77) 
energy

$$$$
77:0
     RDKit          3D

 54 57  0  0  0  0  0  0  0  0999 V2000
   60.4520   28.1420   49.4630 C   0  0  0  0  0  0  0  0  0  0  0  0
   60.0130   29.2570   48.6980 O   0  0  0  0  0  0  0  0  0  0  0  0
   60.7040   30.4710   48.6660 C   0  0  0  0  0  0  0  0  0  0  0  0
   61.9340   30.5510   49.2310 N   0  0  0  0  0  0  0  0  0  0  0  0
   62.6270   31.7220   49.2130 C   0  0  0  0  0  0  0  0  0  0  0  0
   63.9710   31.8140   49.8340 C   0  0  0  0  0  0  0  0  0  0  0  0
   64.2770   31.0740   50.9900 C   0  0  0  0  0  0  0  0  0  0  0  0
   65.5470   31.1750   51.5590 C   0  0  0  0  0  0  0  0  0  0  0  0
   66.5040   32.0060   50.9780 C   0  0  0  0  0  0  0  0  0  0  0  0
   66.1750   32.7290   49.8310 C   0  0  0  0  0  0  0  0  0  0  0  0
   64.9310   32.6220   49.2860 N   0  0  0  0  0  0  0  0  0  0  0  0
   62.0750   32.8110   48.6220 N   0  0  0  0  0  0  0  0  0  0  0  0
   60.8450   32.7400   48.0490 C   0  0  0  0  0  0  0  0  0  0  0  0
   60.2340   33.9600   47.4080 C   0  0  0  0  0  0  0  0  0  0  0  0
   60.3710   33.8830   45.8710 C   0  0  0  0  0  0  0  0  0  0  0  0
   59.2580   34.6840   45.1810 C   0  0  0  0  0  0  0  0  0  0  0  0
   57.9040   34.1550   45.4920 N   0  0  0  0  0  0  0  0  0  0  0  0
   57.4380   33.2290   44.4370 C   0  0  0  0  0  0  0  0  0  0  0  0
   57.6810   31.8020   44.8240 C   0  0  0  0  0  0  0  0  0  0  0  0
   58.9090   31.2470   45.1390 C   0  0  0  0  0  0  0  0  0  0  0  0
   58.6280   29.9120   45.3490 C   0  0  0  0  0  0  0  0  0  0  0  0
   59.6210   28.8490   45.7000 C   0  0  0  0  0  0  0  0  0  0  0  0
   57.3060   29.7100   45.1620 N   0  0  0  0  0  0  0  0  0  0  0  0
   56.6000   28.4370   45.2410 C   0  0  0  0  0  0  0  0  0  0  0  0
   56.7240   30.8510   44.8320 N   0  0  0  0  0  0  0  0  0  0  0  0
   57.7890   33.5390   46.8420 C   0  0  0  0  0  0  0  0  0  0  0  0
   58.7660   34.1560   47.8530 C   0  0  0  0  0  0  0  0  0  0  0  0
   60.1600   31.5680   48.0760 N   0  0  0  0  0  0  0  0  0  0  0  0
   60.3608   28.3737   50.5344 H   0  0  0  0  0  0  0  0  0  0  0  0
   59.8317   27.2658   49.2232 H   0  0  0  0  0  0  0  0  0  0  0  0
   61.5031   27.9238   49.2232 H   0  0  0  0  0  0  0  0  0  0  0  0
   63.5188   30.4187   51.4435 H   0  0  0  0  0  0  0  0  0  0  0  0
   65.7927   30.6002   52.4641 H   0  0  0  0  0  0  0  0  0  0  0  0
   67.5080   32.0907   51.4194 H   0  0  0  0  0  0  0  0  0  0  0  0
   66.9227   33.3877   49.3651 H   0  0  0  0  0  0  0  0  0  0  0  0
   64.7280   33.1810   48.4280 H   0  0  0  0  0  0  0  0  0  0  0  0
   60.7860   34.8480   47.7497 H   0  0  0  0  0  0  0  0  0  0  0  0
   61.3473   34.2947   45.5754 H   0  0  0  0  0  0  0  0  0  0  0  0
   60.2888   32.8302   45.5632 H   0  0  0  0  0  0  0  0  0  0  0  0
   59.3147   35.7298   45.5173 H   0  0  0  0  0  0  0  0  0  0  0  0
   59.4092   34.6017   44.0946 H   0  0  0  0  0  0  0  0  0  0  0  0
   56.3600   33.3793   44.2780 H   0  0  0  0  0  0  0  0  0  0  0  0
   57.9988   33.4406   43.5146 H   0  0  0  0  0  0  0  0  0  0  0  0
   59.8835   31.7527   45.2064 H   0  0  0  0  0  0  0  0  0  0  0  0
   59.6983   28.7663   46.7942 H   0  0  0  0  0  0  0  0  0  0  0  0
   59.2910   27.8865   45.2819 H   0  0  0  0  0  0  0  0  0  0  0  0
   60.6037   29.1128   45.2819 H   0  0  0  0  0  0  0  0  0  0  0  0
   56.4497   28.1660   46.2964 H   0  0  0  0  0  0  0  0  0  0  0  0
   55.6234   28.5278   44.7431 H   0  0  0  0  0  0  0  0  0  0  0  0
   57.1942   27.6566   44.7431 H   0  0  0  0  0  0  0  0  0  0  0  0
   56.7624   33.6834   47.2097 H   0  0  0  0  0  0  0  0  0  0  0  0
   58.0366   32.4716   46.7454 H   0  0  0  0  0  0  0  0  0  0  0  0
   58.5588   35.2328   47.9401 H   0  0  0  0  0  0  0  0  0  0  0  0
   58.6269   33.6531   48.8214 H   0  0  0  0  0  0  0  0  0  0  0  0
  1  2  1  0
  2  3  1  0
  3  4  2  0
  4  5  1  0
  5  6  1  0
  6  7  2  0
  7  8  1  0
  8  9  2  0
  9 10  1  0
 10 11  2  0
  5 12  2  0
 12 13  1  0
 13 14  1  0
 14 15  1  0
 15 16  1  0
 16 17  1  0
 17 18  1  0
 18 19  1  0
 19 20  1  0
 20 21  2  0
 21 22  1  0
 21 23  1  0
 23 24  1  0
 23 25  1  0
 17 26  1  0
 26 27  1  0
 13 28  2  0
 28  3  1  0
 11  6  1  0
 27 14  1  0
 25 19  2  0
  1 29  1  0
  1 30  1  0
  1 31  1  0
  7 32  1  0
  8 33  1  0
  9 34  1  0
 10 35  1  0
 11 36  1  0
 14 37  1  0
 15 38  1  0
 15 39  1  0
 16 40  1  0
 16 41  1  0
 18 42  1  0
 18 43  1  0
 20 44  1  0
 22 45  1  0
 22 46  1  0
 22 47  1  0
 24 48  1  0
 24 49  1  0
 24 50  1  0
 26 51  1  0
 26 52  1  0
 27 53  1  0
 27 54  1  0
M  CHG  1  11   1
M  END
>  <UniqueID>  (78) 
75

>  <SMILES>  (78) 
COc1nc(-c2cccc[nH+]2)nc(C2CCN(Cc3cc(C)n(C)n3)CC2)n1

>  <Energy>  (78) 
91.22324977343727

>  <Genealogy>  (78) 
COc1nc(-c2cccc[nH+]2)nc(C2CCN(Cc3cc(C)n(C)n3)CC2)n1 (protonated)
COc1nc(-c2cccc[nH+]2)nc(C2CCN(Cc3cc(C)n(C)n3)CC2)n1 (3D coordinates assigned)
COc1nc(-c2cccc[nH+]2)nc(C2CCN(Cc3cc(C)n(C)n3)CC2)n1 (nonaromatic ring conformer: 91.22324977343727 kcal/mol)

>  <smiles>  (78) 
COc1nc(-c2ccccn2)nc(C2CCN(Cc3cc(C)n(C)n3)CC2)n1

>  <score_type>  (78) 
oracle

>  <origin>  (78) 
adg

>  <m_score__min__energy>  (78) 
-6.8700000000000001

>  <m_primary>  (78) 
energy

$$$$
78:0
     RDKit          3D

 64 67  0  0  0  0  0  0  0  0999 V2000
   55.4240   30.0940   45.6310 H   0  0  0  0  0  0  0  0  0  0  0  0
   55.4750   29.2990   45.0060 O   0  0  0  0  0  0  0  0  0  0  0  0
   56.3320   28.2350   45.2780 C   0  0  0  0  0  0  0  0  0  0  0  0
   55.9270   27.0520   45.7660 N   0  0  0  0  0  0  0  0  0  0  0  0
   57.0850   26.3700   45.9150 C   0  0  0  0  0  0  0  0  0  0  0  0
   57.1460   24.9890   46.4930 C   0  0  0  0  0  0  0  0  0  0  0  0
   57.7562   25.0123   47.4079 H   0  0  0  0  0  0  0  0  0  0  0  0
   56.1183   24.6638   46.7122 H   0  0  0  0  0  0  0  0  0  0  0  0
   57.7640   23.9880   45.5090 C   0  0  0  0  0  0  0  0  0  0  0  0
   58.7630   24.3465   45.2201 H   0  0  0  0  0  0  0  0  0  0  0  0
   57.8182   23.0111   46.0117 H   0  0  0  0  0  0  0  0  0  0  0  0
   56.9080   23.8170   44.2320 C   0  0  0  0  0  0  0  0  0  0  0  0
   56.6185   24.8151   43.8716 H   0  0  0  0  0  0  0  0  0  0  0  0
   57.5237   23.2701   43.5027 H   0  0  0  0  0  0  0  0  0  0  0  0
   55.6790   23.0220   44.4430 N   0  0  0  0  0  0  0  0  0  0  0  0
   54.4380   23.7090   44.0090 C   0  0  0  0  0  0  0  0  0  0  0  0
   54.6953   24.7267   43.6801 H   0  0  0  0  0  0  0  0  0  0  0  0
   53.9981   23.1176   43.1924 H   0  0  0  0  0  0  0  0  0  0  0  0
   53.3930   23.8040   45.1290 C   0  0  0  0  0  0  0  0  0  0  0  0
   53.7838   24.4458   45.9323 H   0  0  0  0  0  0  0  0  0  0  0  0
   52.4688   24.2298   44.7113 H   0  0  0  0  0  0  0  0  0  0  0  0
   53.0880   22.4670   45.6830 N   0  0  0  0  0  0  0  0  0  0  0  0
   52.2670   22.5990   46.8960 C   0  0  0  0  0  0  0  0  0  0  0  0
   52.9069   22.4961   47.7848 H   0  0  0  0  0  0  0  0  0  0  0  0
   51.7826   23.5866   46.9052 H   0  0  0  0  0  0  0  0  0  0  0  0
   51.4975   21.8130   46.9052 H   0  0  0  0  0  0  0  0  0  0  0  0
   54.2870   21.6240   45.9250 C   0  0  0  0  0  0  0  0  0  0  0  0
   54.2303   21.2202   46.9466 H   0  0  0  0  0  0  0  0  0  0  0  0
   54.2860   20.8277   45.1661 H   0  0  0  0  0  0  0  0  0  0  0  0
   55.6070   22.3950   45.7770 C   0  0  0  0  0  0  0  0  0  0  0  0
   55.6613   23.1759   46.5498 H   0  0  0  0  0  0  0  0  0  0  0  0
   56.4483   21.6958   45.8930 H   0  0  0  0  0  0  0  0  0  0  0  0
   58.1890   27.0700   45.5690 N   0  0  0  0  0  0  0  0  0  0  0  0
   57.7000   28.2430   45.1320 C   0  0  0  0  0  0  0  0  0  0  0  0
   58.5430   29.3900   44.7510 C   0  0  0  0  0  0  0  0  0  0  0  0
   59.5123   29.1639   44.2828 H   0  0  0  0  0  0  0  0  0  0  0  0
   58.2310   30.7080   44.9260 C   0  0  0  0  0  0  0  0  0  0  0  0
   57.4430   31.4240   43.9730 C   0  0  0  0  0  0  0  0  0  0  0  0
   57.0020   30.9110   42.8110 C   0  0  0  0  0  0  0  0  0  0  0  0
   57.2111   29.8609   42.5588 H   0  0  0  0  0  0  0  0  0  0  0  0
   56.4322   31.5414   42.1125 H   0  0  0  0  0  0  0  0  0  0  0  0
   57.1430   32.7250   44.2070 N   0  0  0  0  0  0  0  0  0  0  0  0
   57.5630   33.3890   45.3050 C   0  0  0  0  0  0  0  0  0  0  0  0
   57.2380   34.5990   45.4440 O   0  0  0  0  0  0  0  0  0  0  0  0
   58.3220   32.7540   46.2470 N   0  0  0  0  0  0  0  0  0  0  0  0
   58.7340   33.4760   47.4690 C   0  0  0  0  0  0  0  0  0  0  0  0
   57.8561   33.9668   47.9145 H   0  0  0  0  0  0  0  0  0  0  0  0
   59.1650   32.7579   48.1821 H   0  0  0  0  0  0  0  0  0  0  0  0
   59.7870   34.5350   47.1280 C   0  0  0  0  0  0  0  0  0  0  0  0
   59.7400   34.7573   46.0517 H   0  0  0  0  0  0  0  0  0  0  0  0
   59.5791   35.4419   47.7148 H   0  0  0  0  0  0  0  0  0  0  0  0
   61.1680   34.0430   47.4710 C   0  0  0  0  0  0  0  0  0  0  0  0
   61.5010   33.7410   48.8010 C   0  0  0  0  0  0  0  0  0  0  0  0
   60.7567   33.8836   49.5983 H   0  0  0  0  0  0  0  0  0  0  0  0
   62.7770   33.2590   49.1160 C   0  0  0  0  0  0  0  0  0  0  0  0
   63.0359   33.0298   50.1602 H   0  0  0  0  0  0  0  0  0  0  0  0
   63.7220   33.0690   48.1040 C   0  0  0  0  0  0  0  0  0  0  0  0
   64.7259   32.6947   48.3531 H   0  0  0  0  0  0  0  0  0  0  0  0
   63.3930   33.3540   46.7760 C   0  0  0  0  0  0  0  0  0  0  0  0
   64.1365   33.1992   45.9802 H   0  0  0  0  0  0  0  0  0  0  0  0
   62.1190   33.8360   46.4580 C   0  0  0  0  0  0  0  0  0  0  0  0
   61.8609   34.0537   45.4111 H   0  0  0  0  0  0  0  0  0  0  0  0
   58.6250   31.4230   46.0970 C   0  0  0  0  0  0  0  0  0  0  0  0
   59.2120   30.8240   47.0410 O   0  0  0  0  0  0  0  0  0  0  0  0
  1  2  1  0
  2  3  1  0
  3  4  1  0
  4  5  1  0
  5  6  1  0
  6  7  1  0
  6  8  1  0
  6  9  1  0
  9 10  1  0
  9 11  1  0
  9 12  1  0
 12 13  1  0
 12 14  1  0
 12 15  1  0
 15 16  1  0
 16 17  1  0
 16 18  1  0
 16 19  1  0
 19 20  1  0
 19 21  1  0
 19 22  1  0
 22 23  1  0
 23 24  1  0
 23 25  1  0
 23 26  1  0
 22 27  1  0
 27 28  1  0
 27 29  1  0
 27 30  1  0
 30 31  1  0
 30 32  1  0
  5 33  2  0
 33 34  1  0
 34 35  1  0
 35 36  1  0
 35 37  2  0
 37 38  1  0
 38 39  2  0
 39 40  1  0
 39 41  1  0
 38 42  1  0
 42 43  1  0
 43 44  2  0
 43 45  1  0
 45 46  1  0
 46 47  1  0
 46 48  1  0
 46 49  1  0
 49 50  1  0
 49 51  1  0
 49 52  1  0
 52 53  2  0
 53 54  1  0
 53 55  1  0
 55 56  1  0
 55 57  2  0
 57 58  1  0
 57 59  1  0
 59 60  1  0
 59 61  2  0
 61 62  1  0
 45 63  1  0
 63 64  2  0
 34  3  2  0
 63 37  1  0
 30 15  1  0
 61 52  1  0
M  CHG  2   4  -1  42  -1
M  END
>  <UniqueID>  (79) 
76

>  <SMILES>  (79) 
C=c1[n-]c(=O)n(CCc2ccccc2)c(=O)/c1=C\c1nc(CCCN2CCN(C)CC2)[n-]c1O

>  <Energy>  (79) 
126.78175045028235

>  <Genealogy>  (79) 
C=c1[n-]c(=O)n(CCc2ccccc2)c(=O)c1=Cc1nc(CCCN2CCN(C)CC2)[n-]c1O (protonated)
C=c1[n-]c(=O)n(CCc2ccccc2)c(=O)/c1=C\c1nc(CCCN2CCN(C)CC2)[n-]c1O (cis-trans isomerization)
C=c1[n-]c(=O)n(CCc2ccccc2)c(=O)/c1=C\c1nc(CCCN2CCN(C)CC2)[n-]c1O (3D coordinates assigned)
C=c1[n-]c(=O)n(CCc2ccccc2)c(=O)/c1=C\c1nc(CCCN2CCN(C)CC2)[n-]c1O (nonaromatic ring conformer: 126.78175045028235 kcal/mol)

>  <smiles>  (79) 
C=c1[nH]c(=O)n(CCc2ccccc2)c(=O)c1=Cc1nc(CCCN2CCN(C)CC2)[nH]c1O

>  <score_type>  (79) 
oracle

>  <origin>  (79) 
adg

>  <m_score__min__energy>  (79) 
-12.949999999999999

>  <m_primary>  (79) 
energy

$$$$
79:0
     RDKit          3D

 58 61  0  0  0  0  0  0  0  0999 V2000
   59.0305   30.6221   48.1895 H   0  0  0  0  0  0  0  0  0  0  0  0
   58.8110   30.3060   47.1590 C   0  0  0  0  0  0  0  0  0  0  0  0
   58.8380   29.2389   46.8935 H   0  0  0  0  0  0  0  0  0  0  0  0
   58.5100   31.2230   46.2250 C   0  0  0  0  0  0  0  0  0  0  0  0
   58.2090   30.9700   44.8760 C   0  0  0  0  0  0  0  0  0  0  0  0
   57.9510   29.8170   44.2280 C   0  0  0  0  0  0  0  0  0  0  0  0
   58.0591   29.8180   43.1333 H   0  0  0  0  0  0  0  0  0  0  0  0
   57.5370   28.5580   44.8640 C   0  0  0  0  0  0  0  0  0  0  0  0
   58.5760   27.3850   45.4920 S   0  0  0  0  0  0  0  0  0  0  0  0
   57.3150   26.4960   46.1570 C   0  0  0  0  0  0  0  0  0  0  0  0
   57.4880   25.3790   46.7980 N   0  0  0  0  0  0  0  0  0  0  0  0
   56.4520   24.4780   47.2210 C   0  0  0  0  0  0  0  0  0  0  0  0
   55.2840   24.5580   46.7490 O   0  0  0  0  0  0  0  0  0  0  0  0
   56.7740   23.4000   48.2110 C   0  0  0  0  0  0  0  0  0  0  0  0
   57.8209   23.5103   48.5300 H   0  0  0  0  0  0  0  0  0  0  0  0
   56.0883   23.5032   49.0649 H   0  0  0  0  0  0  0  0  0  0  0  0
   56.5820   22.0000   47.6100 C   0  0  0  0  0  0  0  0  0  0  0  0
   57.2712   21.3013   48.1069 H   0  0  0  0  0  0  0  0  0  0  0  0
   55.5353   21.7005   47.7670 H   0  0  0  0  0  0  0  0  0  0  0  0
   56.8570   21.9860   46.1280 C   0  0  0  0  0  0  0  0  0  0  0  0
   58.1720   21.8510   45.6510 C   0  0  0  0  0  0  0  0  0  0  0  0
   59.0025   21.7283   46.3617 H   0  0  0  0  0  0  0  0  0  0  0  0
   58.4290   21.8720   44.2770 C   0  0  0  0  0  0  0  0  0  0  0  0
   59.4595   21.7602   43.9087 H   0  0  0  0  0  0  0  0  0  0  0  0
   57.3770   22.0350   43.3710 C   0  0  0  0  0  0  0  0  0  0  0  0
   57.5800   22.0490   42.2900 H   0  0  0  0  0  0  0  0  0  0  0  0
   56.0690   22.1800   43.8370 C   0  0  0  0  0  0  0  0  0  0  0  0
   55.2430   22.3110   43.1225 H   0  0  0  0  0  0  0  0  0  0  0  0
   55.8070   22.1590   45.2100 C   0  0  0  0  0  0  0  0  0  0  0  0
   54.7755   22.2783   45.5731 H   0  0  0  0  0  0  0  0  0  0  0  0
   56.1110   27.0780   45.9490 N   0  0  0  0  0  0  0  0  0  0  0  0
   56.2400   28.2350   45.2480 C   0  0  0  0  0  0  0  0  0  0  0  0
   55.1410   29.0280   44.9420 O   0  0  0  0  0  0  0  0  0  0  0  0
   58.1780   32.2000   44.2470 C   0  0  0  0  0  0  0  0  0  0  0  0
   58.0172   32.3833   43.1744 H   0  0  0  0  0  0  0  0  0  0  0  0
   58.3870   33.1530   45.2200 C   0  0  0  0  0  0  0  0  0  0  0  0
   58.3600   34.6310   44.9730 C   0  0  0  0  0  0  0  0  0  0  0  0
   58.3503   35.1635   45.9355 H   0  0  0  0  0  0  0  0  0  0  0  0
   59.2530   34.9236   44.4011 H   0  0  0  0  0  0  0  0  0  0  0  0
   57.4570   34.8907   44.4011 H   0  0  0  0  0  0  0  0  0  0  0  0
   58.5890   32.5680   46.4260 N   0  0  0  0  0  0  0  0  0  0  0  0
   58.7980   33.2910   47.6910 C   0  0  0  0  0  0  0  0  0  0  0  0
   58.4543   34.3295   47.5757 H   0  0  0  0  0  0  0  0  0  0  0  0
   58.2274   32.7895   48.4865 H   0  0  0  0  0  0  0  0  0  0  0  0
   60.2590   33.2900   48.0630 C   0  0  0  0  0  0  0  0  0  0  0  0
   60.6580   33.6010   49.3730 C   0  0  0  0  0  0  0  0  0  0  0  0
   59.8994   33.8293   50.1362 H   0  0  0  0  0  0  0  0  0  0  0  0
   62.0120   33.6220   49.7120 C   0  0  0  0  0  0  0  0  0  0  0  0
   62.3146   33.8794   50.7378 H   0  0  0  0  0  0  0  0  0  0  0  0
   62.9890   33.3170   48.7530 C   0  0  0  0  0  0  0  0  0  0  0  0
   64.4430   33.3820   49.1120 C   0  0  0  0  0  0  0  0  0  0  0  0
   64.5505   33.3868   50.2067 H   0  0  0  0  0  0  0  0  0  0  0  0
   64.9628   32.5062   48.6964 H   0  0  0  0  0  0  0  0  0  0  0  0
   64.8826   34.3007   48.6964 H   0  0  0  0  0  0  0  0  0  0  0  0
   62.5940   33.0170   47.4400 C   0  0  0  0  0  0  0  0  0  0  0  0
   63.3541   32.7976   46.6757 H   0  0  0  0  0  0  0  0  0  0  0  0
   61.2380   32.9960   47.1000 C   0  0  0  0  0  0  0  0  0  0  0  0
   60.9361   32.7476   46.0718 H   0  0  0  0  0  0  0  0  0  0  0  0
  1  2  1  0
  2  3  1  0
  2  4  2  0
  4  5  1  0
  5  6  2  0
  6  7  1  0
  6  8  1  0
  8  9  1  0
  9 10  1  0
 10 11  2  3
 11 12  1  0
 12 13  2  0
 12 14  1  0
 14 15  1  0
 14 16  1  0
 14 17  1  0
 17 18  1  0
 17 19  1  0
 17 20  1  0
 20 21  2  0
 21 22  1  0
 21 23  1  0
 23 24  1  0
 23 25  2  0
 25 26  1  0
 25 27  1  0
 27 28  1  0
 27 29  2  0
 29 30  1  0
 10 31  1  0
 31 32  1  0
 32 33  1  0
  5 34  1  0
 34 35  1  0
 34 36  2  0
 36 37  1  0
 37 38  1  0
 37 39  1  0
 37 40  1  0
 36 41  1  0
 41 42  1  0
 42 43  1  0
 42 44  1  0
 42 45  1  0
 45 46  2  0
 46 47  1  0
 46 48  1  0
 48 49  1  0
 48 50  2  0
 50 51  1  0
 51 52  1  0
 51 53  1  0
 51 54  1  0
 50 55  1  0
 55 56  1  0
 55 57  2  0
 57 58  1  0
 41  4  1  0
 57 45  1  0
 32  8  2  0
 29 20  1  0
M  CHG  2  31  -1  33  -1
M  END
>  <UniqueID>  (80) 
77

>  <SMILES>  (80) 
C=c1/c(=C\c2sc(=NC(=O)CCc3ccccc3)[n-]c2[O-])cc(C)n1Cc1ccc(C)cc1

>  <Energy>  (80) 
129.36986936258182

>  <Genealogy>  (80) 
C=c1c(=Cc2sc(=NC(=O)CCc3ccccc3)[n-]c2[O-])cc(C)n1Cc1ccc(C)cc1 (protonated)
C=c1/c(=C\c2sc(=NC(=O)CCc3ccccc3)[n-]c2[O-])cc(C)n1Cc1ccc(C)cc1 (cis-trans isomerization)
C=c1/c(=C\c2sc(=NC(=O)CCc3ccccc3)[n-]c2[O-])cc(C)n1Cc1ccc(C)cc1 (3D coordinates assigned)
C=c1/c(=C\c2sc(=NC(=O)CCc3ccccc3)[n-]c2[O-])cc(C)n1Cc1ccc(C)cc1 (optimized conformer: 129.36986936258182 kcal/mol)

>  <smiles>  (80) 
C=c1c(=Cc2sc(=NC(=O)CCc3ccccc3)[nH]c2O)cc(C)n1Cc1ccc(C)cc1

>  <score_type>  (80) 
oracle

>  <origin>  (80) 
adg

>  <m_score__min__energy>  (80) 
-15.15

>  <m_primary>  (80) 
energy

$$$$
80:0
     RDKit          3D

 28 29  0  0  0  0  0  0  0  0999 V2000
   60.2690   28.6650   44.8150 C   0  0  0  0  0  0  0  0  0  0  0  0
   58.8360   28.3640   45.1160 C   0  0  0  0  0  0  0  0  0  0  0  0
   57.7980   29.1250   44.7090 N   0  0  0  0  0  0  0  0  0  0  0  0
   56.7030   28.4860   45.1610 C   0  0  0  0  0  0  0  0  0  0  0  0
   55.5280   28.8800   44.9310 O   0  0  0  0  0  0  0  0  0  0  0  0
   57.0060   27.3630   45.8460 N   0  0  0  0  0  0  0  0  0  0  0  0
   56.1230   26.4200   46.4050 N   0  0  0  0  0  0  0  0  0  0  0  0
   55.2060   25.6260   45.6410 C   0  0  0  0  0  0  0  0  0  0  0  0
   53.9920   25.9620   45.6170 O   0  0  0  0  0  0  0  0  0  0  0  0
   55.6580   24.4660   44.8400 C   0  0  0  0  0  0  0  0  0  0  0  0
   57.0180   24.1220   44.7590 C   0  0  0  0  0  0  0  0  0  0  0  0
   57.4210   23.0260   43.9940 C   0  0  0  0  0  0  0  0  0  0  0  0
   56.4600   22.2840   43.3030 C   0  0  0  0  0  0  0  0  0  0  0  0
   56.8050   21.2930   42.6080 O   0  0  0  0  0  0  0  0  0  0  0  0
   55.1490   22.6350   43.3760 N   0  0  0  0  0  0  0  0  0  0  0  0
   54.7320   23.6970   44.1150 C   0  0  0  0  0  0  0  0  0  0  0  0
   58.3460   27.2540   45.7900 C   0  0  0  0  0  0  0  0  0  0  0  0
   59.1480   26.1720   46.4440 C   0  0  0  0  0  0  0  0  0  0  0  0
   60.8248   28.7818   45.7570 H   0  0  0  0  0  0  0  0  0  0  0  0
   60.7029   27.8384   44.2332 H   0  0  0  0  0  0  0  0  0  0  0  0
   60.3337   29.5963   44.2332 H   0  0  0  0  0  0  0  0  0  0  0  0
   57.8330   30.0070   44.1510 H   0  0  0  0  0  0  0  0  0  0  0  0
   57.7675   24.7182   45.3001 H   0  0  0  0  0  0  0  0  0  0  0  0
   58.4841   22.7496   43.9359 H   0  0  0  0  0  0  0  0  0  0  0  0
   53.6633   23.9559   44.1456 H   0  0  0  0  0  0  0  0  0  0  0  0
   59.0746   26.2710   47.5371 H   0  0  0  0  0  0  0  0  0  0  0  0
   58.7577   25.1902   46.1377 H   0  0  0  0  0  0  0  0  0  0  0  0
   60.2008   26.2599   46.1377 H   0  0  0  0  0  0  0  0  0  0  0  0
  1  2  1  0
  2  3  1  0
  3  4  1  0
  4  5  2  0
  4  6  1  0
  6  7  1  0
  7  8  1  0
  8  9  2  0
  8 10  1  0
 10 11  1  0
 11 12  2  0
 12 13  1  0
 13 14  2  0
 13 15  1  0
 15 16  1  0
  6 17  1  0
 17 18  1  0
 17  2  2  0
 16 10  2  0
  1 19  1  0
  1 20  1  0
  1 21  1  0
  3 22  1  0
 11 23  1  0
 12 24  1  0
 16 25  1  0
 18 26  1  0
 18 27  1  0
 18 28  1  0
M  CHG  2   7  -1  15  -1
M  END
>  <UniqueID>  (81) 
78

>  <SMILES>  (81) 
Cc1[nH]c(=O)n([N-]C(=O)c2ccc(=O)[n-]c2)c1C

>  <Energy>  (81) 
67.63214759182127

>  <Genealogy>  (81) 
Cc1[nH]c(=O)n([N-]C(=O)c2ccc(=O)[n-]c2)c1C (protonated)
Cc1[nH]c(=O)n([N-]C(=O)c2ccc(=O)[n-]c2)c1C (3D coordinates assigned)
Cc1[nH]c(=O)n([N-]C(=O)c2ccc(=O)[n-]c2)c1C (optimized conformer: 67.63214759182127 kcal/mol)

>  <smiles>  (81) 
Cc1[nH]c(=O)n(NC(=O)c2ccc(=O)[nH]c2)c1C

>  <score_type>  (81) 
oracle

>  <origin>  (81) 
adg

>  <m_score__min__energy>  (81) 
-10.27

>  <m_primary>  (81) 
energy

$$$$
81:0
     RDKit          3D

 54 57  0  0  0  0  0  0  0  0999 V2000
   58.3340   26.2420   46.8010 H   0  0  0  0  0  0  0  0  0  0  0  0
   57.9860   25.3000   46.9320 O   0  0  0  0  0  0  0  0  0  0  0  0
   56.6700   24.9530   46.6350 C   0  0  0  0  0  0  0  0  0  0  0  0
   56.2210   23.6620   46.9430 C   0  0  0  0  0  0  0  0  0  0  0  0
   56.8853   22.9629   47.4721 H   0  0  0  0  0  0  0  0  0  0  0  0
   54.9370   23.2600   46.5820 C   0  0  0  0  0  0  0  0  0  0  0  0
   54.5804   22.2493   46.8297 H   0  0  0  0  0  0  0  0  0  0  0  0
   54.1100   24.1520   45.9040 C   0  0  0  0  0  0  0  0  0  0  0  0
   53.1030   23.8388   45.5911 H   0  0  0  0  0  0  0  0  0  0  0  0
   54.5460   25.4080   45.6290 N   0  0  0  0  0  0  0  0  0  0  0  0
   55.7820   25.8530   45.9880 C   0  0  0  0  0  0  0  0  0  0  0  0
   56.0870   27.0890   45.6950 N   0  0  0  0  0  0  0  0  0  0  0  0
   57.3390   27.6200   45.2430 C   0  0  0  0  0  0  0  0  0  0  0  0
   58.1640   26.8400   44.6990 O   0  0  0  0  0  0  0  0  0  0  0  0
   57.6440   29.0700   45.3190 C   0  0  0  0  0  0  0  0  0  0  0  0
   58.7530   29.6250   45.9690 C   0  0  0  0  0  0  0  0  0  0  0  0
   59.8690   28.9000   46.6700 C   0  0  0  0  0  0  0  0  0  0  0  0
   60.5025   28.3994   45.9230 H   0  0  0  0  0  0  0  0  0  0  0  0
   60.4649   29.6264   47.2421 H   0  0  0  0  0  0  0  0  0  0  0  0
   59.3120   27.8780   47.6100 C   0  0  0  0  0  0  0  0  0  0  0  0
   58.1440   28.0000   48.0620 O   0  0  0  0  0  0  0  0  0  0  0  0
   60.0790   26.7800   47.9780 O   0  0  0  0  0  0  0  0  0  0  0  0
   58.6080   30.9950   45.8520 C   0  0  0  0  0  0  0  0  0  0  0  0
   59.4010   32.0400   46.3310 C   0  0  0  0  0  0  0  0  0  0  0  0
   60.3293   31.8380   46.8856 H   0  0  0  0  0  0  0  0  0  0  0  0
   58.9770   33.3610   46.0830 C   0  0  0  0  0  0  0  0  0  0  0  0
   59.9300   34.7270   46.6600 S   0  0  0  0  0  0  0  0  0  0  0  0
   59.9910   35.7640   45.5740 O   0  0  0  0  0  0  0  0  0  0  0  0
   59.2760   35.3450   47.8650 O   0  0  0  0  0  0  0  0  0  0  0  0
   61.5500   34.2270   47.0580 N   0  0  0  0  0  0  0  0  0  0  0  0
   61.7240   34.0830   48.5040 C   0  0  0  0  0  0  0  0  0  0  0  0
   62.7920   33.9403   48.7253 H   0  0  0  0  0  0  0  0  0  0  0  0
   61.3467   34.9925   48.9944 H   0  0  0  0  0  0  0  0  0  0  0  0
   60.9510   32.9010   49.0260 C   0  0  0  0  0  0  0  0  0  0  0  0
   59.6800   33.0840   49.5960 C   0  0  0  0  0  0  0  0  0  0  0  0
   59.2490   34.0940   49.6608 H   0  0  0  0  0  0  0  0  0  0  0  0
   58.9610   31.9880   50.0810 C   0  0  0  0  0  0  0  0  0  0  0  0
   57.9666   32.1373   50.5270 H   0  0  0  0  0  0  0  0  0  0  0  0
   59.5040   30.7020   50.0000 C   0  0  0  0  0  0  0  0  0  0  0  0
   58.8050   29.6400   50.4700 F   0  0  0  0  0  0  0  0  0  0  0  0
   60.7680   30.5120   49.4350 C   0  0  0  0  0  0  0  0  0  0  0  0
   61.1942   29.4999   49.3709 H   0  0  0  0  0  0  0  0  0  0  0  0
   61.4920   31.6060   48.9510 C   0  0  0  0  0  0  0  0  0  0  0  0
   62.4881   31.4526   48.5102 H   0  0  0  0  0  0  0  0  0  0  0  0
   57.7860   33.5980   45.3630 C   0  0  0  0  0  0  0  0  0  0  0  0
   57.4645   34.6316   45.1671 H   0  0  0  0  0  0  0  0  0  0  0  0
   57.0070   32.5260   44.8940 C   0  0  0  0  0  0  0  0  0  0  0  0
   56.0752   32.7056   44.3377 H   0  0  0  0  0  0  0  0  0  0  0  0
   57.4490   31.2250   45.1540 C   0  0  0  0  0  0  0  0  0  0  0  0
   56.8610   30.0600   44.8040 N   0  0  0  0  0  0  0  0  0  0  0  0
   55.6230   29.9110   44.0360 C   0  0  0  0  0  0  0  0  0  0  0  0
   54.7731   29.8087   44.7268 H   0  0  0  0  0  0  0  0  0  0  0  0
   55.4757   30.7979   43.4022 H   0  0  0  0  0  0  0  0  0  0  0  0
   55.6903   29.0145   43.4022 H   0  0  0  0  0  0  0  0  0  0  0  0
  1  2  1  0
  2  3  1  0
  3  4  2  0
  4  5  1  0
  4  6  1  0
  6  7  1  0
  6  8  2  0
  8  9  1  0
  8 10  1  0
 10 11  1  0
 11 12  2  0
 12 13  1  0
 13 14  2  0
 13 15  1  0
 15 16  2  0
 16 17  1  0
 17 18  1  0
 17 19  1  0
 17 20  1  0
 20 21  2  0
 20 22  1  0
 16 23  1  0
 23 24  2  0
 24 25  1  0
 24 26  1  0
 26 27  1  0
 27 28  2  0
 27 29  2  0
 27 30  1  0
 30 31  1  0
 31 32  1  0
 31 33  1  0
 31 34  1  0
 34 35  2  0
 35 36  1  0
 35 37  1  0
 37 38  1  0
 37 39  2  0
 39 40  1  0
 39 41  1  0
 41 42  1  0
 41 43  2  0
 43 44  1  0
 26 45  2  0
 45 46  1  0
 45 47  1  0
 47 48  1  0
 47 49  2  0
 49 50  1  0
 50 51  1  0
 51 52  1  0
 51 53  1  0
 51 54  1  0
 11  3  1  0
 50 15  1  0
 49 23  1  0
 43 34  1  0
M  CHG  3  10  -1  22  -1  30  -1
M  END
>  <UniqueID>  (82) 
79

>  <SMILES>  (82) 
Cn1c(C(=O)/N=c2/[n-]cccc2O)c(CC(=O)[O-])c2cc(S(=O)(=O)[N-]Cc3ccc(F)cc3)ccc21

>  <Energy>  (82) 
103.9690281216386

>  <Genealogy>  (82) 
Cn1c(C(=O)N=c2[n-]cccc2O)c(CC(=O)[O-])c2cc(S(=O)(=O)[N-]Cc3ccc(F)cc3)ccc21 (protonated)
Cn1c(C(=O)/N=c2/[n-]cccc2O)c(CC(=O)[O-])c2cc(S(=O)(=O)[N-]Cc3ccc(F)cc3)ccc21 (cis-trans isomerization)
Cn1c(C(=O)/N=c2/[n-]cccc2O)c(CC(=O)[O-])c2cc(S(=O)(=O)[N-]Cc3ccc(F)cc3)ccc21 (3D coordinates assigned)
Cn1c(C(=O)/N=c2/[n-]cccc2O)c(CC(=O)[O-])c2cc(S(=O)(=O)[N-]Cc3ccc(F)cc3)ccc21 (optimized conformer: 103.9690281216386 kcal/mol)

>  <smiles>  (82) 
Cn1c(C(=O)N=c2[nH]cccc2O)c(CC(=O)O)c2cc(S(=O)(=O)NCc3ccc(F)cc3)ccc21

>  <score_type>  (82) 
oracle

>  <origin>  (82) 
adg

>  <m_score__min__energy>  (82) 
-14.92

>  <m_primary>  (82) 
energy

$$$$
82:0
     RDKit          3D

 54 57  0  0  1  0  0  0  0  0999 V2000
   57.7470   27.0930   46.8140 C   0  0  0  0  0  0  0  0  0  0  0  0
   57.6610   26.5050   45.6480 C   0  0  0  0  0  0  0  0  0  0  0  0
   58.0660   26.9060   44.4170 C   0  0  0  0  0  0  0  0  0  0  0  0
   58.6540   28.0400   44.1120 C   0  0  0  0  0  0  0  0  0  0  0  0
   58.2870   29.3460   44.6080 C   0  0  0  0  0  0  0  0  0  0  0  0
   57.0090   29.8930   44.4110 C   0  0  0  0  0  0  0  0  0  0  0  0
   56.0360   29.1470   43.7600 O   0  0  0  0  0  0  0  0  0  0  0  0
   56.7660   31.1450   44.8700 N   0  0  0  0  0  0  0  0  0  0  0  0
   57.7330   31.8570   45.5050 C   0  0  0  0  0  0  0  0  0  0  0  0
   57.4380   33.5040   46.1140 S   0  0  0  0  0  0  0  0  0  0  0  0
   58.8820   34.5670   45.8360 C   0  0  0  0  0  0  0  0  0  0  0  0
   59.9750   34.2350   46.7570 C   0  0  0  0  0  0  0  0  0  0  0  0
   61.2200   33.8220   46.3120 C   0  0  0  0  0  0  0  0  0  0  0  0
   62.2150   33.5230   47.2140 C   0  0  0  0  0  0  0  0  0  0  0  0
   62.0020   33.6240   48.5660 C   0  0  0  0  0  0  0  0  0  0  0  0
   60.7540   34.0370   49.0150 C   0  0  0  0  0  0  0  0  0  0  0  0
   60.5190   34.1450   50.3450 F   0  0  0  0  0  0  0  0  0  0  0  0
   59.7440   34.3410   48.1160 C   0  0  0  0  0  0  0  0  0  0  0  0
   58.9730   31.3410   45.7020 N   0  0  0  0  0  0  0  0  0  0  0  0
   59.2780   30.0920   45.2650 C   0  0  0  0  0  0  0  0  0  0  0  0
   60.4350   29.6090   45.4490 O   0  0  0  0  0  0  0  0  0  0  0  0
   57.7780   25.9410   43.4630 C   0  0  0  0  0  0  0  0  0  0  0  0
   57.1720   24.9230   44.1700 C   0  0  0  0  0  0  0  0  0  0  0  0
   56.7030   23.6740   43.5160 C   0  0  0  0  0  0  0  0  0  0  0  0
   57.1070   25.2680   45.4680 N   0  0  0  0  0  0  0  0  0  0  0  0
   56.5260   24.4080   46.4740 C   0  0  0  0  0  0  0  0  0  0  0  0
   55.1550   23.9900   46.2450 C   0  0  0  0  0  0  0  0  0  0  0  0
   54.6780   22.8390   46.8890 C   0  0  0  0  0  0  0  0  0  0  0  0
   53.3850   22.3900   46.7090 C   0  0  0  0  0  0  0  0  0  0  0  0
   52.4910   23.0440   45.8890 C   0  0  0  0  0  0  0  0  0  0  0  0
   52.9460   24.1760   45.2490 C   0  0  0  0  0  0  0  0  0  0  0  0
   54.2380   24.6220   45.4310 C   0  0  0  0  0  0  0  0  0  0  0  0
   57.3519   26.5949   47.7116 H   0  0  0  0  0  0  0  0  0  0  0  0
   58.2144   28.0853   46.8964 H   0  0  0  0  0  0  0  0  0  0  0  0
   59.5037   27.9907   43.4151 H   0  0  0  0  0  0  0  0  0  0  0  0
   56.2630   28.2740   43.3140 H   0  0  0  0  0  0  0  0  0  0  0  0
   59.2318   34.4326   44.8018 H   0  0  0  0  0  0  0  0  0  0  0  0
   58.5836   35.6107   46.0139 H   0  0  0  0  0  0  0  0  0  0  0  0
   61.4140   33.7327   45.2329 H   0  0  0  0  0  0  0  0  0  0  0  0
   63.1987   33.1972   46.8449 H   0  0  0  0  0  0  0  0  0  0  0  0
   62.8034   33.3828   49.2798 H   0  0  0  0  0  0  0  0  0  0  0  0
   58.7595   34.6663   48.4834 H   0  0  0  0  0  0  0  0  0  0  0  0
   59.7080   31.9070   46.1950 H   0  0  0  0  0  0  0  0  0  0  0  0
   57.9863   25.9790   42.3836 H   0  0  0  0  0  0  0  0  0  0  0  0
   56.4268   22.9384   44.2858 H   0  0  0  0  0  0  0  0  0  0  0  0
   55.8267   23.8952   42.8890 H   0  0  0  0  0  0  0  0  0  0  0  0
   57.5083   23.2637   42.8890 H   0  0  0  0  0  0  0  0  0  0  0  0
   57.1465   23.5021   46.5403 H   0  0  0  0  0  0  0  0  0  0  0  0
   56.5010   25.0079   47.3957 H   0  0  0  0  0  0  0  0  0  0  0  0
   55.3516   22.2795   47.5548 H   0  0  0  0  0  0  0  0  0  0  0  0
   53.0581   21.4818   47.2366 H   0  0  0  0  0  0  0  0  0  0  0  0
   51.4623   22.6793   45.7519 H   0  0  0  0  0  0  0  0  0  0  0  0
   52.2691   24.7318   44.5835 H   0  0  0  0  0  0  0  0  0  0  0  0
   54.5546   25.5309   44.8983 H   0  0  0  0  0  0  0  0  0  0  0  0
  1  2  2  0
  2  3  1  0
  3  4  2  0
  4  5  1  0
  5  6  2  0
  6  7  1  0
  6  8  1  0
  8  9  2  0
  9 10  1  0
 10 11  1  0
 11 12  1  0
 12 13  2  0
 13 14  1  0
 14 15  2  0
 15 16  1  0
 16 17  1  0
 16 18  2  0
  9 19  1  0
 19 20  1  0
 20 21  2  0
  3 22  1  0
 22 23  2  0
 23 24  1  0
 23 25  1  0
 25 26  1  0
 26 27  1  0
 27 28  2  0
 28 29  1  0
 29 30  2  0
 30 31  1  0
 31 32  2  0
 25  2  1  0
 32 27  1  0
 20  5  1  0
 18 12  1  0
  1 33  1  0
  1 34  1  0
  4 35  1  0
  7 36  1  0
 11 37  1  0
 11 38  1  0
 13 39  1  0
 14 40  1  0
 15 41  1  0
 18 42  1  0
 19 43  1  0
 22 44  1  0
 24 45  1  0
 24 46  1  0
 24 47  1  0
 26 48  1  0
 26 49  1  0
 28 50  1  0
 29 51  1  0
 30 52  1  0
 31 53  1  0
 32 54  1  0
M  END
>  <smiles>  (83) 
C=c1c(=Cc2c(O)nc(SCc3cccc(F)c3)[nH]c2=O)cc(C)n1Cc1ccccc1

>  <score_type>  (83) 
oracle

>  <origin>  (83) 
adg

>  <m_score__min__energy>  (83) 
-10.51

>  <m_primary>  (83) 
energy

$$$$
83:0
     RDKit          3D

 35 36  0  0  0  0  0  0  0  0999 V2000
   63.4280   33.4880   46.7310 C   0  0  0  0  0  0  0  0  0  0  0  0
   62.8100   33.8270   48.0540 C   0  0  0  0  0  0  0  0  0  0  0  0
   63.5210   33.7670   49.0910 O   0  0  0  0  0  0  0  0  0  0  0  0
   61.4260   34.1790   48.1820 N   0  0  0  0  0  0  0  0  0  0  0  0
   60.3630   33.8150   47.2900 C   0  0  0  0  0  0  0  0  0  0  0  0
   59.5020   34.8140   46.8220 C   0  0  0  0  0  0  0  0  0  0  0  0
   58.4710   34.4990   45.9350 C   0  0  0  0  0  0  0  0  0  0  0  0
   58.3050   33.1860   45.4910 C   0  0  0  0  0  0  0  0  0  0  0  0
   59.1760   32.1760   45.9200 C   0  0  0  0  0  0  0  0  0  0  0  0
   58.9760   30.8770   45.4280 O   0  0  0  0  0  0  0  0  0  0  0  0
   58.1640   30.5330   44.3050 C   0  0  0  0  0  0  0  0  0  0  0  0
   56.8200   30.0040   44.7360 C   0  0  0  0  0  0  0  0  0  0  0  0
   55.8130   30.7510   44.6200 O   0  0  0  0  0  0  0  0  0  0  0  0
   56.6540   28.7130   45.3460 N   0  0  0  0  0  0  0  0  0  0  0  0
   57.3970   27.6550   45.1960 C   0  0  0  0  0  0  0  0  0  0  0  0
   57.1890   26.3850   45.9250 C   0  0  0  0  0  0  0  0  0  0  0  0
   55.9050   25.9600   46.3050 C   0  0  0  0  0  0  0  0  0  0  0  0
   54.7820   26.7150   45.9890 O   0  0  0  0  0  0  0  0  0  0  0  0
   55.7520   24.8020   46.9990 N   0  0  0  0  0  0  0  0  0  0  0  0
   56.8260   24.0510   47.3540 C   0  0  0  0  0  0  0  0  0  0  0  0
   56.6110   22.6630   48.1840 S   0  0  0  0  0  0  0  0  0  0  0  0
   58.0790   24.4600   47.0290 N   0  0  0  0  0  0  0  0  0  0  0  0
   58.2850   25.6080   46.3350 C   0  0  0  0  0  0  0  0  0  0  0  0
   59.4620   25.9620   46.0560 O   0  0  0  0  0  0  0  0  0  0  0  0
   60.2130   32.4990   46.8170 C   0  0  0  0  0  0  0  0  0  0  0  0
   64.3816   32.9649   46.8950 H   0  0  0  0  0  0  0  0  0  0  0  0
   62.7460   32.8377   46.1636 H   0  0  0  0  0  0  0  0  0  0  0  0
   63.6099   34.4126   46.1636 H   0  0  0  0  0  0  0  0  0  0  0  0
   59.6384   35.8535   47.1550 H   0  0  0  0  0  0  0  0  0  0  0  0
   57.7880   35.2871   45.5852 H   0  0  0  0  0  0  0  0  0  0  0  0
   57.4848   32.9427   44.7996 H   0  0  0  0  0  0  0  0  0  0  0  0
   58.0133   31.4291   43.6851 H   0  0  0  0  0  0  0  0  0  0  0  0
   58.6786   29.7448   43.7358 H   0  0  0  0  0  0  0  0  0  0  0  0
   58.2322   27.7087   44.4822 H   0  0  0  0  0  0  0  0  0  0  0  0
   60.9105   31.7163   47.1499 H   0  0  0  0  0  0  0  0  0  0  0  0
  1  2  1  0
  2  3  2  0
  2  4  1  0
  4  5  1  0
  5  6  2  0
  6  7  1  0
  7  8  2  0
  8  9  1  0
  9 10  1  0
 10 11  1  0
 11 12  1  0
 12 13  2  0
 12 14  1  0
 14 15  2  3
 15 16  1  0
 16 17  2  0
 17 18  1  0
 17 19  1  0
 19 20  1  0
 20 21  2  0
 20 22  1  0
 22 23  1  0
 23 24  2  0
  9 25  2  0
 25  5  1  0
 23 16  1  0
  1 26  1  0
  1 27  1  0
  1 28  1  0
  6 29  1  0
  7 30  1  0
  8 31  1  0
 11 32  1  0
 11 33  1  0
 15 34  1  0
 25 35  1  0
M  CHG  4   4  -1  18  -1  19  -1  22  -1
M  END
>  <UniqueID>  (84) 
80

>  <SMILES>  (84) 
CC(=O)[N-]c1cccc(OCC(=O)N=Cc2c([O-])[n-]c(=S)[n-]c2=O)c1

>  <Energy>  (84) 
51.50588926193572

>  <Genealogy>  (84) 
CC(=O)[N-]c1cccc(OCC(=O)N=Cc2c([O-])[n-]c(=S)[n-]c2=O)c1 (protonated)
CC(=O)[N-]c1cccc(OCC(=O)N=Cc2c([O-])[n-]c(=S)[n-]c2=O)c1 (3D coordinates assigned)
CC(=O)[N-]c1cccc(OCC(=O)N=Cc2c([O-])[n-]c(=S)[n-]c2=O)c1 (optimized conformer: 51.50588926193572 kcal/mol)

>  <smiles>  (84) 
CC(=O)Nc1cccc(OCC(=O)N=Cc2c(O)[nH]c(=S)[nH]c2=O)c1

>  <score_type>  (84) 
oracle

>  <origin>  (84) 
adg

>  <m_score__min__energy>  (84) 
-16.199999999999999

>  <m_primary>  (84) 
energy

$$$$
84:0
     RDKit          3D

 55 58  0  0  0  0  0  0  0  0999 V2000
   56.6880   34.5900   44.8940 O   0  0  0  0  0  0  0  0  0  0  0  0
   57.8350   34.0680   44.8510 C   0  0  0  0  0  0  0  0  0  0  0  0
   58.1130   33.0130   43.8150 C   0  0  0  0  0  0  0  0  0  0  0  0
   58.3500   31.7570   44.4430 O   0  0  0  0  0  0  0  0  0  0  0  0
   57.3240   30.8830   44.8130 C   0  0  0  0  0  0  0  0  0  0  0  0
   56.1280   31.1550   44.5100 O   0  0  0  0  0  0  0  0  0  0  0  0
   57.6350   29.6590   45.5940 C   0  0  0  0  0  0  0  0  0  0  0  0
   58.8430   29.5790   46.3140 C   0  0  0  0  0  0  0  0  0  0  0  0
   59.1680   28.4320   47.0460 C   0  0  0  0  0  0  0  0  0  0  0  0
   60.4080   28.3820   47.7550 N   0  0  0  0  0  0  0  0  0  0  0  0
   60.7840   29.4490   49.0710 S   0  0  0  0  0  0  0  0  0  0  0  0
   61.5440   28.6890   50.1210 O   0  0  0  0  0  0  0  0  0  0  0  0
   59.5040   29.9500   49.6760 O   0  0  0  0  0  0  0  0  0  0  0  0
   61.7320   30.8290   48.5470 C   0  0  0  0  0  0  0  0  0  0  0  0
   61.6340   31.4530   47.3110 C   0  0  0  0  0  0  0  0  0  0  0  0
   62.5090   32.5380   47.1800 C   0  0  0  0  0  0  0  0  0  0  0  0
   63.2930   32.7620   48.3070 C   0  0  0  0  0  0  0  0  0  0  0  0
   62.8950   31.6140   49.4730 S   0  0  0  0  0  0  0  0  0  0  0  0
   58.3030   27.3310   47.0280 C   0  0  0  0  0  0  0  0  0  0  0  0
   57.1000   27.3980   46.3270 C   0  0  0  0  0  0  0  0  0  0  0  0
   56.7540   28.5540   45.6210 C   0  0  0  0  0  0  0  0  0  0  0  0
   55.5310   28.5900   44.9620 O   0  0  0  0  0  0  0  0  0  0  0  0
   58.8320   34.5130   45.7870 N   0  0  0  0  0  0  0  0  0  0  0  0
   59.0380   33.9980   47.1080 C   0  0  0  0  0  0  0  0  0  0  0  0
   58.3000   32.8880   47.5310 C   0  0  0  0  0  0  0  0  0  0  0  0
   58.4100   32.4280   48.8460 C   0  0  0  0  0  0  0  0  0  0  0  0
   59.2860   33.0540   49.7460 C   0  0  0  0  0  0  0  0  0  0  0  0
   59.3530   32.6090   51.1150 N   0  0  0  0  0  0  0  0  0  0  0  0
   60.5930   32.7740   51.8820 C   0  0  0  0  0  0  0  0  0  0  0  0
   60.6380   31.7460   53.0170 C   0  0  0  0  0  0  0  0  0  0  0  0
   59.4530   31.8030   53.7920 O   0  0  0  0  0  0  0  0  0  0  0  0
   58.3440   31.4160   53.0020 C   0  0  0  0  0  0  0  0  0  0  0  0
   58.1110   32.4180   51.8670 C   0  0  0  0  0  0  0  0  0  0  0  0
   60.0810   34.1210   49.3000 C   0  0  0  0  0  0  0  0  0  0  0  0
   59.9600   34.5880   47.9880 C   0  0  0  0  0  0  0  0  0  0  0  0
   57.2460   32.9257   43.1437 H   0  0  0  0  0  0  0  0  0  0  0  0
   59.0056   33.3009   43.2403 H   0  0  0  0  0  0  0  0  0  0  0  0
   59.5401   30.4298   46.3005 H   0  0  0  0  0  0  0  0  0  0  0  0
   60.9426   31.1295   46.5189 H   0  0  0  0  0  0  0  0  0  0  0  0
   62.5707   33.1552   46.2715 H   0  0  0  0  0  0  0  0  0  0  0  0
   64.0464   33.5557   48.4179 H   0  0  0  0  0  0  0  0  0  0  0  0
   58.5733   26.4116   47.5680 H   0  0  0  0  0  0  0  0  0  0  0  0
   56.4179   26.5350   46.3293 H   0  0  0  0  0  0  0  0  0  0  0  0
   57.6300   32.3747   46.8256 H   0  0  0  0  0  0  0  0  0  0  0  0
   57.8064   31.5702   49.1775 H   0  0  0  0  0  0  0  0  0  0  0  0
   61.4567   32.6235   51.2177 H   0  0  0  0  0  0  0  0  0  0  0  0
   60.6266   33.7880   52.3070 H   0  0  0  0  0  0  0  0  0  0  0  0
   60.7405   30.7384   52.5877 H   0  0  0  0  0  0  0  0  0  0  0  0
   61.4963   31.9735   53.6662 H   0  0  0  0  0  0  0  0  0  0  0  0
   58.5364   30.4219   52.5721 H   0  0  0  0  0  0  0  0  0  0  0  0
   57.4480   31.3895   53.6395 H   0  0  0  0  0  0  0  0  0  0  0  0
   57.3312   32.0329   51.1935 H   0  0  0  0  0  0  0  0  0  0  0  0
   57.7900   33.3809   52.2911 H   0  0  0  0  0  0  0  0  0  0  0  0
   60.8017   34.5914   49.9851 H   0  0  0  0  0  0  0  0  0  0  0  0
   60.5898   35.4214   47.6432 H   0  0  0  0  0  0  0  0  0  0  0  0
  1  2  2  0
  2  3  1  0
  3  4  1  0
  4  5  1  0
  5  6  2  0
  5  7  1  0
  7  8  2  0
  8  9  1  0
  9 10  1  0
 10 11  1  0
 11 12  2  0
 11 13  2  0
 11 14  1  0
 14 15  2  0
 15 16  1  0
 16 17  2  0
 17 18  1  0
  9 19  2  0
 19 20  1  0
 20 21  2  0
 21 22  1  0
  2 23  1  0
 23 24  1  0
 24 25  2  0
 25 26  1  0
 26 27  2  0
 27 28  1  0
 28 29  1  0
 29 30  1  0
 30 31  1  0
 31 32  1  0
 32 33  1  0
 27 34  1  0
 34 35  2  0
 21  7  1  0
 35 24  1  0
 18 14  1  0
 33 28  1  0
  3 36  1  0
  3 37  1  0
  8 38  1  0
 15 39  1  0
 16 40  1  0
 17 41  1  0
 19 42  1  0
 20 43  1  0
 25 44  1  0
 26 45  1  0
 29 46  1  0
 29 47  1  0
 30 48  1  0
 30 49  1  0
 32 50  1  0
 32 51  1  0
 33 52  1  0
 33 53  1  0
 34 54  1  0
 35 55  1  0
M  CHG  3  10  -1  22  -1  23  -1
M  END
>  <UniqueID>  (85) 
81

>  <SMILES>  (85) 
O=C(COC(=O)c1cc([N-]S(=O)(=O)c2cccs2)ccc1[O-])[N-]c1ccc(N2CCOCC2)cc1

>  <Energy>  (85) 
99.29298680243288

>  <Genealogy>  (85) 
O=C(COC(=O)c1cc([N-]S(=O)(=O)c2cccs2)ccc1[O-])[N-]c1ccc(N2CCOCC2)cc1 (protonated)
O=C(COC(=O)c1cc([N-]S(=O)(=O)c2cccs2)ccc1[O-])[N-]c1ccc(N2CCOCC2)cc1 (3D coordinates assigned)
O=C(COC(=O)c1cc([N-]S(=O)(=O)c2cccs2)ccc1[O-])[N-]c1ccc(N2CCOCC2)cc1 (nonaromatic ring conformer: 99.29298680243288 kcal/mol)

>  <smiles>  (85) 
O=C(COC(=O)c1cc(NS(=O)(=O)c2cccs2)ccc1O)Nc1ccc(N2CCOCC2)cc1

>  <score_type>  (85) 
oracle

>  <origin>  (85) 
adg

>  <m_score__min__energy>  (85) 
-15.279999999999999

>  <m_primary>  (85) 
energy

$$$$
85:0
     RDKit          3D

 33 35  0  0  0  0  0  0  0  0999 V2000
   59.7550   33.5100   51.1940 C   0  0  0  0  0  0  0  0  0  0  0  0
   58.9650   33.3290   52.3660 O   0  0  0  0  0  0  0  0  0  0  0  0
   58.1230   32.2300   52.5940 C   0  0  0  0  0  0  0  0  0  0  0  0
   57.1610   31.8160   51.6540 C   0  0  0  0  0  0  0  0  0  0  0  0
   56.3440   30.7130   51.9180 C   0  0  0  0  0  0  0  0  0  0  0  0
   56.4830   29.9970   53.1180 C   0  0  0  0  0  0  0  0  0  0  0  0
   55.6180   28.8350   53.4160 C   0  0  0  0  0  0  0  0  0  0  0  0
   56.1110   27.6350   53.7900 N   0  0  0  0  0  0  0  0  0  0  0  0
   55.0770   26.8390   54.0280 N   0  0  0  0  0  0  0  0  0  0  0  0
   53.9750   27.5690   53.7910 C   0  0  0  0  0  0  0  0  0  0  0  0
   52.8060   27.1090   53.8870 O   0  0  0  0  0  0  0  0  0  0  0  0
   54.2650   28.8260   53.4060 N   0  0  0  0  0  0  0  0  0  0  0  0
   53.3420   29.8330   52.9490 C   0  0  0  0  0  0  0  0  0  0  0  0
   53.3770   30.2810   51.6180 C   0  0  0  0  0  0  0  0  0  0  0  0
   52.4800   31.2590   51.1790 C   0  0  0  0  0  0  0  0  0  0  0  0
   51.5360   31.7910   52.0620 C   0  0  0  0  0  0  0  0  0  0  0  0
   50.6440   32.7620   51.6260 O   0  0  0  0  0  0  0  0  0  0  0  0
   51.4880   31.3420   53.3870 C   0  0  0  0  0  0  0  0  0  0  0  0
   52.3850   30.3650   53.8280 C   0  0  0  0  0  0  0  0  0  0  0  0
   57.4270   30.4240   54.0630 C   0  0  0  0  0  0  0  0  0  0  0  0
   58.2480   31.5290   53.8020 C   0  0  0  0  0  0  0  0  0  0  0  0
   59.1930   31.9390   54.7410 O   0  0  0  0  0  0  0  0  0  0  0  0
   60.7897   33.7471   51.4823 H   0  0  0  0  0  0  0  0  0  0  0  0
   59.7431   32.5859   50.5975 H   0  0  0  0  0  0  0  0  0  0  0  0
   59.3420   34.3368   50.5975 H   0  0  0  0  0  0  0  0  0  0  0  0
   57.0514   32.3635   50.7062 H   0  0  0  0  0  0  0  0  0  0  0  0
   55.5877   30.4040   51.1814 H   0  0  0  0  0  0  0  0  0  0  0  0
   54.1138   29.8602   50.9180 H   0  0  0  0  0  0  0  0  0  0  0  0
   52.5170   31.6104   50.1373 H   0  0  0  0  0  0  0  0  0  0  0  0
   50.7437   31.7584   54.0817 H   0  0  0  0  0  0  0  0  0  0  0  0
   52.3410   30.0112   54.8686 H   0  0  0  0  0  0  0  0  0  0  0  0
   57.5238   29.8865   55.0179 H   0  0  0  0  0  0  0  0  0  0  0  0
   59.7860   32.7450   54.5790 H   0  0  0  0  0  0  0  0  0  0  0  0
  1  2  1  0
  2  3  1  0
  3  4  2  0
  4  5  1  0
  5  6  2  0
  6  7  1  0
  7  8  2  0
  8  9  1  0
  9 10  1  0
 10 11  2  0
 10 12  1  0
 12 13  1  0
 13 14  2  0
 14 15  1  0
 15 16  2  0
 16 17  1  0
 16 18  1  0
 18 19  2  0
  6 20  1  0
 20 21  2  0
 21 22  1  0
 21  3  1  0
 12  7  1  0
 19 13  1  0
  1 23  1  0
  1 24  1  0
  1 25  1  0
  4 26  1  0
  5 27  1  0
 14 28  1  0
 15 29  1  0
 18 30  1  0
 19 31  1  0
 20 32  1  0
 22 33  1  0
M  CHG  2   9  -1  17  -1
M  END
>  <UniqueID>  (86) 
82

>  <SMILES>  (86) 
COc1ccc(-c2n[n-]c(=O)n2-c2ccc([O-])cc2)cc1O

>  <Energy>  (86) 
80.38697433165372

>  <Genealogy>  (86) 
COc1ccc(-c2n[n-]c(=O)n2-c2ccc([O-])cc2)cc1O (protonated)
COc1ccc(-c2n[n-]c(=O)n2-c2ccc([O-])cc2)cc1O (3D coordinates assigned)
COc1ccc(-c2n[n-]c(=O)n2-c2ccc([O-])cc2)cc1O (optimized conformer: 80.38697433165372 kcal/mol)

>  <smiles>  (86) 
COc1ccc(-c2n[nH]c(=O)n2-c2ccc(O)cc2)cc1O

>  <score_type>  (86) 
oracle

>  <origin>  (86) 
adg

>  <m_score__min__energy>  (86) 
-10.130000000000001

>  <m_primary>  (86) 
energy

$$$$
86:0
     RDKit          3D

 35 36  0  0  0  0  0  0  0  0999 V2000
   60.3022   30.1578   45.0406 H   0  0  0  0  0  0  0  0  0  0  0  0
   59.2290   29.9210   44.9950 C   0  0  0  0  0  0  0  0  0  0  0  0
   58.7240   28.9100   45.7490 N   0  0  0  0  0  0  0  0  0  0  0  0
   57.4050   28.5680   45.7320 C   0  0  0  0  0  0  0  0  0  0  0  0
   57.0230   27.5880   46.5050 N   0  0  0  0  0  0  0  0  0  0  0  0
   57.3360   26.1960   46.3850 C   0  0  0  0  0  0  0  0  0  0  0  0
   57.8050   25.5620   47.3690 O   0  0  0  0  0  0  0  0  0  0  0  0
   57.0950   25.4920   45.0880 C   0  0  0  0  0  0  0  0  0  0  0  0
   58.0023   24.9430   44.7957 H   0  0  0  0  0  0  0  0  0  0  0  0
   56.8452   26.2313   44.3128 H   0  0  0  0  0  0  0  0  0  0  0  0
   55.9480   24.5210   45.2420 C   0  0  0  0  0  0  0  0  0  0  0  0
   54.6720   24.9800   45.6240 C   0  0  0  0  0  0  0  0  0  0  0  0
   54.4340   26.3360   45.8270 O   0  0  0  0  0  0  0  0  0  0  0  0
   53.6250   24.0750   45.8120 C   0  0  0  0  0  0  0  0  0  0  0  0
   52.6301   24.4469   46.0982 H   0  0  0  0  0  0  0  0  0  0  0  0
   53.8260   22.7030   45.6410 C   0  0  0  0  0  0  0  0  0  0  0  0
   52.7380   21.8420   45.8450 O   0  0  0  0  0  0  0  0  0  0  0  0
   51.6160   22.1410   46.6700 C   0  0  0  0  0  0  0  0  0  0  0  0
   51.9076   22.0633   47.7278 H   0  0  0  0  0  0  0  0  0  0  0  0
   51.2682   23.1632   46.4597 H   0  0  0  0  0  0  0  0  0  0  0  0
   50.8057   21.4275   46.4597 H   0  0  0  0  0  0  0  0  0  0  0  0
   55.1010   22.2360   45.2780 C   0  0  0  0  0  0  0  0  0  0  0  0
   55.2675   21.1569   45.1447 H   0  0  0  0  0  0  0  0  0  0  0  0
   56.1680   23.1350   45.0830 C   0  0  0  0  0  0  0  0  0  0  0  0
   57.4560   22.6890   44.7410 O   0  0  0  0  0  0  0  0  0  0  0  0
   57.7430   21.7480   43.7130 C   0  0  0  0  0  0  0  0  0  0  0  0
   58.0355   20.7888   44.1651 H   0  0  0  0  0  0  0  0  0  0  0  0
   56.8486   21.6018   43.0896 H   0  0  0  0  0  0  0  0  0  0  0  0
   58.5667   22.1259   43.0896 H   0  0  0  0  0  0  0  0  0  0  0  0
   56.5180   29.3170   44.9150 C   0  0  0  0  0  0  0  0  0  0  0  0
   55.1480   29.0850   44.8920 O   0  0  0  0  0  0  0  0  0  0  0  0
   57.0300   30.3540   44.1280 C   0  0  0  0  0  0  0  0  0  0  0  0
   56.3566   30.9318   43.4778 H   0  0  0  0  0  0  0  0  0  0  0  0
   58.3880   30.6580   44.1640 C   0  0  0  0  0  0  0  0  0  0  0  0
   58.7925   31.4710   43.5433 H   0  0  0  0  0  0  0  0  0  0  0  0
  1  2  1  0
  2  3  1  0
  3  4  1  0
  4  5  2  0
  5  6  1  0
  6  7  2  0
  6  8  1  0
  8  9  1  0
  8 10  1  0
  8 11  1  0
 11 12  2  0
 12 13  1  0
 12 14  1  0
 14 15  1  0
 14 16  2  0
 16 17  1  0
 17 18  1  0
 18 19  1  0
 18 20  1  0
 18 21  1  0
 16 22  1  0
 22 23  1  0
 22 24  2  0
 24 25  1  0
 25 26  1  0
 26 27  1  0
 26 28  1  0
 26 29  1  0
  4 30  1  0
 30 31  1  0
 30 32  2  0
 32 33  1  0
 32 34  1  0
 34 35  1  0
 34  2  2  0
 24 11  1  0
M  CHG  3   3  -1  13  -1  31  -1
M  END
>  <UniqueID>  (87) 
83

>  <SMILES>  (87) 
COc1cc([O-])c(CC(=O)/N=c2/[n-]cccc2[O-])c(OC)c1

>  <Energy>  (87) 
45.34633552411215

>  <Genealogy>  (87) 
COc1cc([O-])c(CC(=O)N=c2[n-]cccc2[O-])c(OC)c1 (protonated)
COc1cc([O-])c(CC(=O)/N=c2/[n-]cccc2[O-])c(OC)c1 (cis-trans isomerization)
COc1cc([O-])c(CC(=O)/N=c2/[n-]cccc2[O-])c(OC)c1 (3D coordinates assigned)
COc1cc([O-])c(CC(=O)/N=c2/[n-]cccc2[O-])c(OC)c1 (optimized conformer: 45.34633552411215 kcal/mol)

>  <smiles>  (87) 
COc1cc(O)c(CC(=O)N=c2[nH]cccc2O)c(OC)c1

>  <score_type>  (87) 
oracle

>  <origin>  (87) 
adg

>  <m_score__min__energy>  (87) 
-14.67

>  <m_primary>  (87) 
energy

$$$$
87:0
     RDKit          3D

 51 53  0  0  0  0  0  0  0  0999 V2000
   58.2610   31.1450   43.4280 O   0  0  0  0  0  0  0  0  0  0  0  0
   57.4010   31.6260   44.2130 C   0  0  0  0  0  0  0  0  0  0  0  0
   57.3770   33.1110   44.4770 C   0  0  0  0  0  0  0  0  0  0  0  0
   58.2190   33.4810   45.6710 C   0  0  0  0  0  0  0  0  0  0  0  0
   58.0850   32.7800   46.8820 C   0  0  0  0  0  0  0  0  0  0  0  0
   58.8490   33.1440   47.9940 C   0  0  0  0  0  0  0  0  0  0  0  0
   59.7460   34.2130   47.9090 C   0  0  0  0  0  0  0  0  0  0  0  0
   59.8760   34.9220   46.7120 C   0  0  0  0  0  0  0  0  0  0  0  0
   59.1140   34.5620   45.5960 C   0  0  0  0  0  0  0  0  0  0  0  0
   56.4210   30.7420   44.7760 N   0  0  0  0  0  0  0  0  0  0  0  0
   56.2330   29.3380   44.4230 C   0  0  0  0  0  0  0  0  0  0  0  0
   56.6840   28.4520   45.5410 C   0  0  0  0  0  0  0  0  0  0  0  0
   57.5420   28.8750   46.3600 O   0  0  0  0  0  0  0  0  0  0  0  0
   56.1870   27.1110   45.6230 N   0  0  0  0  0  0  0  0  0  0  0  0
   56.9590   25.9040   45.5390 C   0  0  0  0  0  0  0  0  0  0  0  0
   58.2330   25.8840   46.1150 C   0  0  0  0  0  0  0  0  0  0  0  0
   59.0240   24.7350   46.0410 C   0  0  0  0  0  0  0  0  0  0  0  0
   58.5560   23.5950   45.3750 C   0  0  0  0  0  0  0  0  0  0  0  0
   59.3520   22.4540   45.3010 O   0  0  0  0  0  0  0  0  0  0  0  0
   57.2840   23.6100   44.7770 C   0  0  0  0  0  0  0  0  0  0  0  0
   56.6990   22.1910   43.9040 S   0  0  0  0  0  0  0  0  0  0  0  0
   55.8760   22.6560   42.7350 O   0  0  0  0  0  0  0  0  0  0  0  0
   57.8610   21.3890   43.3870 O   0  0  0  0  0  0  0  0  0  0  0  0
   55.7220   21.2210   44.9870 N   0  0  0  0  0  0  0  0  0  0  0  0
   56.3410   19.9100   45.2520 C   0  0  0  0  0  0  0  0  0  0  0  0
   57.5470   20.0150   46.2170 C   0  0  0  0  0  0  0  0  0  0  0  0
   57.5800   21.2230   46.9560 O   0  0  0  0  0  0  0  0  0  0  0  0
   56.2880   21.5510   47.4130 C   0  0  0  0  0  0  0  0  0  0  0  0
   55.3870   21.9500   46.2300 C   0  0  0  0  0  0  0  0  0  0  0  0
   56.4940   24.7680   44.8520 C   0  0  0  0  0  0  0  0  0  0  0  0
   57.7644   33.6363   43.5916 H   0  0  0  0  0  0  0  0  0  0  0  0
   56.3379   33.4041   44.6875 H   0  0  0  0  0  0  0  0  0  0  0  0
   57.3762   31.9419   46.9546 H   0  0  0  0  0  0  0  0  0  0  0  0
   58.7445   32.5886   48.9377 H   0  0  0  0  0  0  0  0  0  0  0  0
   60.3493   34.4959   48.7842 H   0  0  0  0  0  0  0  0  0  0  0  0
   60.5793   35.7653   46.6473 H   0  0  0  0  0  0  0  0  0  0  0  0
   59.2154   35.1263   44.6572 H   0  0  0  0  0  0  0  0  0  0  0  0
   55.1670   29.1545   44.2232 H   0  0  0  0  0  0  0  0  0  0  0  0
   56.8308   29.1131   43.5274 H   0  0  0  0  0  0  0  0  0  0  0  0
   58.6146   26.7783   46.6294 H   0  0  0  0  0  0  0  0  0  0  0  0
   60.0198   24.7254   46.5083 H   0  0  0  0  0  0  0  0  0  0  0  0
   58.9470   21.5250   45.2520 H   0  0  0  0  0  0  0  0  0  0  0  0
   55.5865   19.2463   45.6994 H   0  0  0  0  0  0  0  0  0  0  0  0
   56.7090   19.5116   44.2950 H   0  0  0  0  0  0  0  0  0  0  0  0
   57.4990   19.1752   46.9258 H   0  0  0  0  0  0  0  0  0  0  0  0
   58.4568   19.9905   45.5992 H   0  0  0  0  0  0  0  0  0  0  0  0
   55.8518   20.6797   47.9234 H   0  0  0  0  0  0  0  0  0  0  0  0
   56.3599   22.3994   48.1095 H   0  0  0  0  0  0  0  0  0  0  0  0
   54.3416   21.7328   46.4947 H   0  0  0  0  0  0  0  0  0  0  0  0
   55.5436   23.0220   46.0394 H   0  0  0  0  0  0  0  0  0  0  0  0
   55.5052   24.7872   44.3705 H   0  0  0  0  0  0  0  0  0  0  0  0
  1  2  2  0
  2  3  1  0
  3  4  1  0
  4  5  2  0
  5  6  1  0
  6  7  2  0
  7  8  1  0
  8  9  2  0
  2 10  1  0
 10 11  1  0
 11 12  1  0
 12 13  2  0
 12 14  1  0
 14 15  1  0
 15 16  2  0
 16 17  1  0
 17 18  2  0
 18 19  1  0
 18 20  1  0
 20 21  1  0
 21 22  2  0
 21 23  2  0
 21 24  1  0
 24 25  1  0
 25 26  1  0
 26 27  1  0
 27 28  1  0
 28 29  1  0
 20 30  2  0
  9  4  1  0
 30 15  1  0
 29 24  1  0
  3 31  1  0
  3 32  1  0
  5 33  1  0
  6 34  1  0
  7 35  1  0
  8 36  1  0
  9 37  1  0
 11 38  1  0
 11 39  1  0
 16 40  1  0
 17 41  1  0
 19 42  1  0
 25 43  1  0
 25 44  1  0
 26 45  1  0
 26 46  1  0
 28 47  1  0
 28 48  1  0
 29 49  1  0
 29 50  1  0
 30 51  1  0
M  CHG  2  10  -1  14  -1
M  END
>  <UniqueID>  (88) 
84

>  <SMILES>  (88) 
O=C(Cc1ccccc1)[N-]CC(=O)[N-]c1ccc(O)c(S(=O)(=O)N2CCOCC2)c1

>  <Energy>  (88) 
63.436092960730555

>  <Genealogy>  (88) 
O=C(Cc1ccccc1)[N-]CC(=O)[N-]c1ccc(O)c(S(=O)(=O)N2CCOCC2)c1 (protonated)
O=C(Cc1ccccc1)[N-]CC(=O)[N-]c1ccc(O)c(S(=O)(=O)N2CCOCC2)c1 (3D coordinates assigned)
O=C(Cc1ccccc1)[N-]CC(=O)[N-]c1ccc(O)c(S(=O)(=O)N2CCOCC2)c1 (nonaromatic ring conformer: 63.436092960730555 kcal/mol)

>  <smiles>  (88) 
O=C(Cc1ccccc1)NCC(=O)Nc1ccc(O)c(S(=O)(=O)N2CCOCC2)c1

>  <score_type>  (88) 
oracle

>  <origin>  (88) 
adg

>  <m_score__min__energy>  (88) 
-12.4

>  <m_primary>  (88) 
energy

$$$$
88:0
     RDKit          3D

 61 65  0  0  0  0  0  0  0  0999 V2000
   56.6280   33.4840   45.6710 O   0  0  0  0  0  0  0  0  0  0  0  0
   57.8260   33.4960   45.2950 C   0  0  0  0  0  0  0  0  0  0  0  0
   58.2740   33.4740   43.8960 C   0  0  0  0  0  0  0  0  0  0  0  0
   58.3620   32.2070   43.3140 O   0  0  0  0  0  0  0  0  0  0  0  0
   57.8040   31.0680   43.9090 C   0  0  0  0  0  0  0  0  0  0  0  0
   56.4530   30.7970   43.7690 C   0  0  0  0  0  0  0  0  0  0  0  0
   55.9490   29.6640   44.3690 C   0  0  0  0  0  0  0  0  0  0  0  0
   56.7330   28.8040   45.0950 C   0  0  0  0  0  0  0  0  0  0  0  0
   56.1510   27.7080   45.6030 N   0  0  0  0  0  0  0  0  0  0  0  0
   56.9920   26.8650   46.2800 C   0  0  0  0  0  0  0  0  0  0  0  0
   56.4410   25.8360   46.7530 O   0  0  0  0  0  0  0  0  0  0  0  0
   58.2800   27.1020   46.4320 N   0  0  0  0  0  0  0  0  0  0  0  0
   58.8840   28.2250   45.9170 C   0  0  0  0  0  0  0  0  0  0  0  0
   60.2950   28.3960   46.2610 C   0  0  0  0  0  0  0  0  0  0  0  0
   60.5060   28.6950   47.6820 C   0  0  0  0  0  0  0  0  0  0  0  0
   60.9650   30.0090   47.9480 C   0  0  0  0  0  0  0  0  0  0  0  0
   61.2300   30.4560   49.2090 C   0  0  0  0  0  0  0  0  0  0  0  0
   61.0620   29.6380   50.3090 C   0  0  0  0  0  0  0  0  0  0  0  0
   60.6170   28.3600   50.0610 C   0  0  0  0  0  0  0  0  0  0  0  0
   60.3450   27.9060   48.7620 C   0  0  0  0  0  0  0  0  0  0  0  0
   59.9050   26.6090   48.6700 O   0  0  0  0  0  0  0  0  0  0  0  0
   58.0720   29.0710   45.2390 C   0  0  0  0  0  0  0  0  0  0  0  0
   58.5700   30.1950   44.6410 C   0  0  0  0  0  0  0  0  0  0  0  0
   58.8320   33.5350   46.3090 N   0  0  0  0  0  0  0  0  0  0  0  0
   58.4710   33.5250   47.7080 C   0  0  0  0  0  0  0  0  0  0  0  0
   59.5820   33.2070   48.6480 C   0  0  0  0  0  0  0  0  0  0  0  0
   60.8680   33.8520   48.2590 N   0  0  0  0  0  0  0  0  0  0  0  0
   61.9370   33.6430   49.1390 C   0  0  0  0  0  0  0  0  0  0  0  0
   61.7400   33.8140   50.5170 C   0  0  0  0  0  0  0  0  0  0  0  0
   62.7440   33.6520   51.4410 C   0  0  0  0  0  0  0  0  0  0  0  0
   64.0040   33.3090   51.0480 C   0  0  0  0  0  0  0  0  0  0  0  0
   64.2460   33.1310   49.7240 C   0  0  0  0  0  0  0  0  0  0  0  0
   63.2210   33.2950   48.7810 C   0  0  0  0  0  0  0  0  0  0  0  0
   63.6790   33.0070   47.1200 Cl  0  0  0  0  0  0  0  0  0  0  0  0
   60.8030   34.5980   47.0550 C   0  0  0  0  0  0  0  0  0  0  0  0
   60.2510   33.6080   46.0000 C   0  0  0  0  0  0  0  0  0  0  0  0
   57.5652   34.0710   43.3034 H   0  0  0  0  0  0  0  0  0  0  0  0
   59.2974   33.8772   43.8995 H   0  0  0  0  0  0  0  0  0  0  0  0
   55.7994   31.4691   43.1936 H   0  0  0  0  0  0  0  0  0  0  0  0
   54.8773   29.4405   44.2618 H   0  0  0  0  0  0  0  0  0  0  0  0
   55.1410   27.4790   45.5120 H   0  0  0  0  0  0  0  0  0  0  0  0
   60.8310   27.4675   46.0147 H   0  0  0  0  0  0  0  0  0  0  0  0
   60.6729   29.2532   45.6845 H   0  0  0  0  0  0  0  0  0  0  0  0
   61.1137   30.6969   47.1026 H   0  0  0  0  0  0  0  0  0  0  0  0
   61.5842   31.4875   49.3526 H   0  0  0  0  0  0  0  0  0  0  0  0
   61.2729   29.9898   51.3297 H   0  0  0  0  0  0  0  0  0  0  0  0
   60.4700   27.6731   50.9075 H   0  0  0  0  0  0  0  0  0  0  0  0
   59.0370   26.4750   48.1330 H   0  0  0  0  0  0  0  0  0  0  0  0
   59.6427   30.4117   44.7524 H   0  0  0  0  0  0  0  0  0  0  0  0
   58.0816   34.5209   47.9660 H   0  0  0  0  0  0  0  0  0  0  0  0
   57.7313   32.7195   47.8264 H   0  0  0  0  0  0  0  0  0  0  0  0
   59.3032   33.5563   49.6531 H   0  0  0  0  0  0  0  0  0  0  0  0
   59.7361   32.1181   48.6235 H   0  0  0  0  0  0  0  0  0  0  0  0
   60.7369   34.0902   50.8741 H   0  0  0  0  0  0  0  0  0  0  0  0
   62.5290   33.8006   52.5095 H   0  0  0  0  0  0  0  0  0  0  0  0
   64.8073   33.1793   51.7881 H   0  0  0  0  0  0  0  0  0  0  0  0
   65.2563   32.8553   49.3875 H   0  0  0  0  0  0  0  0  0  0  0  0
   60.1270   35.4582   47.1691 H   0  0  0  0  0  0  0  0  0  0  0  0
   61.7838   35.0045   46.7671 H   0  0  0  0  0  0  0  0  0  0  0  0
   60.4119   33.9899   44.9810 H   0  0  0  0  0  0  0  0  0  0  0  0
   60.7469   32.6267   46.0341 H   0  0  0  0  0  0  0  0  0  0  0  0
  1  2  2  0
  2  3  1  0
  3  4  1  0
  4  5  1  0
  5  6  2  0
  6  7  1  0
  7  8  2  0
  8  9  1  0
  9 10  1  0
 10 11  2  0
 10 12  1  0
 12 13  2  0
 13 14  1  0
 14 15  1  0
 15 16  2  0
 16 17  1  0
 17 18  2  0
 18 19  1  0
 19 20  2  0
 20 21  1  0
 13 22  1  0
 22 23  2  0
  2 24  1  0
 24 25  1  0
 25 26  1  0
 26 27  1  0
 27 28  1  0
 28 29  2  0
 29 30  1  0
 30 31  2  0
 31 32  1  0
 32 33  2  0
 33 34  1  0
 27 35  1  0
 35 36  1  0
 23  5  1  0
 36 24  1  0
 22  8  1  0
 33 28  1  0
 20 15  1  0
  3 37  1  0
  3 38  1  0
  6 39  1  0
  7 40  1  0
  9 41  1  0
 14 42  1  0
 14 43  1  0
 16 44  1  0
 17 45  1  0
 18 46  1  0
 19 47  1  0
 21 48  1  0
 23 49  1  0
 25 50  1  0
 25 51  1  0
 26 52  1  0
 26 53  1  0
 29 54  1  0
 30 55  1  0
 31 56  1  0
 32 57  1  0
 35 58  1  0
 35 59  1  0
 36 60  1  0
 36 61  1  0
M  END
>  <smiles>  (89) 
O=C(COc1ccc2[nH]c(=O)nc(Cc3ccccc3O)c2c1)N1CCN(c2ccccc2Cl)CC1

>  <score_type>  (89) 
oracle

>  <origin>  (89) 
adg

>  <m_score__min__energy>  (89) 
-9.9399999999999995

>  <m_primary>  (89) 
energy

$$$$
89:0
     RDKit          3D

 40 41  0  0  0  0  0  0  0  0999 V2000
   58.5858   28.0318   43.1867 H   0  0  0  0  0  0  0  0  0  0  0  0
   58.6280   28.5230   44.1700 C   0  0  0  0  0  0  0  0  0  0  0  0
   59.7700   29.2450   44.5190 O   0  0  0  0  0  0  0  0  0  0  0  0
   61.0170   28.6010   44.7370 C   0  0  0  0  0  0  0  0  0  0  0  0
   61.1975   28.5078   45.8181 H   0  0  0  0  0  0  0  0  0  0  0  0
   60.9975   27.6002   44.2809 H   0  0  0  0  0  0  0  0  0  0  0  0
   61.8218   29.1962   44.2809 H   0  0  0  0  0  0  0  0  0  0  0  0
   57.5780   28.4110   45.0020 C   0  0  0  0  0  0  0  0  0  0  0  0
   56.4680   29.3960   45.0280 C   0  0  0  0  0  0  0  0  0  0  0  0
   56.6860   30.6260   45.1970 O   0  0  0  0  0  0  0  0  0  0  0  0
   55.1560   28.9660   44.8680 O   0  0  0  0  0  0  0  0  0  0  0  0
   57.5070   27.2380   45.9060 C   0  0  0  0  0  0  0  0  0  0  0  0
   56.5890   26.2180   45.6010 C   0  0  0  0  0  0  0  0  0  0  0  0
   55.9264   26.3237   44.7294 H   0  0  0  0  0  0  0  0  0  0  0  0
   56.5110   25.0730   46.3940 C   0  0  0  0  0  0  0  0  0  0  0  0
   55.7850   24.2837   46.1493 H   0  0  0  0  0  0  0  0  0  0  0  0
   57.3520   24.9280   47.4960 C   0  0  0  0  0  0  0  0  0  0  0  0
   57.2973   24.0185   48.1123 H   0  0  0  0  0  0  0  0  0  0  0  0
   58.2630   25.9340   47.8190 C   0  0  0  0  0  0  0  0  0  0  0  0
   58.9293   25.8067   48.6849 H   0  0  0  0  0  0  0  0  0  0  0  0
   58.3390   27.1090   47.0500 C   0  0  0  0  0  0  0  0  0  0  0  0
   59.3280   28.1820   47.4560 C   0  0  0  0  0  0  0  0  0  0  0  0
   60.0572   27.7512   48.1579 H   0  0  0  0  0  0  0  0  0  0  0  0
   59.8331   28.5513   46.5513 H   0  0  0  0  0  0  0  0  0  0  0  0
   58.6670   29.2800   48.0860 O   0  0  0  0  0  0  0  0  0  0  0  0
   58.8760   30.6360   47.7780 C   0  0  0  0  0  0  0  0  0  0  0  0
   59.0570   31.6130   48.7750 C   0  0  0  0  0  0  0  0  0  0  0  0
   59.0315   31.3308   49.8379 H   0  0  0  0  0  0  0  0  0  0  0  0
   59.2690   32.9420   48.4060 C   0  0  0  0  0  0  0  0  0  0  0  0
   59.4113   33.7126   49.1780 H   0  0  0  0  0  0  0  0  0  0  0  0
   59.3000   33.2910   47.0550 C   0  0  0  0  0  0  0  0  0  0  0  0
   59.5690   34.9960   46.5660 S   0  0  0  0  0  0  0  0  0  0  0  0
   58.8770   34.7540   44.9010 C   0  0  0  0  0  0  0  0  0  0  0  0
   57.8416   34.3919   44.9833 H   0  0  0  0  0  0  0  0  0  0  0  0
   58.8890   35.7097   44.3565 H   0  0  0  0  0  0  0  0  0  0  0  0
   59.4820   34.0141   44.3565 H   0  0  0  0  0  0  0  0  0  0  0  0
   59.1070   32.3000   46.0900 C   0  0  0  0  0  0  0  0  0  0  0  0
   59.1207   32.5642   45.0223 H   0  0  0  0  0  0  0  0  0  0  0  0
   58.9020   31.0080   46.4670 N   0  0  0  0  0  0  0  0  0  0  0  0
   58.7650   30.2830   45.7280 H   0  0  0  0  0  0  0  0  0  0  0  0
  1  2  1  0
  2  3  1  0
  3  4  1  0
  4  5  1  0
  4  6  1  0
  4  7  1  0
  2  8  2  0
  8  9  1  0
  9 10  2  0
  9 11  1  0
  8 12  1  0
 12 13  2  0
 13 14  1  0
 13 15  1  0
 15 16  1  0
 15 17  2  0
 17 18  1  0
 17 19  1  0
 19 20  1  0
 19 21  2  0
 21 22  1  0
 22 23  1  0
 22 24  1  0
 22 25  1  0
 25 26  1  0
 26 27  2  0
 27 28  1  0
 27 29  1  0
 29 30  1  0
 29 31  2  0
 31 32  1  0
 32 33  1  0
 33 34  1  0
 33 35  1  0
 33 36  1  0
 31 37  1  0
 37 38  1  0
 37 39  2  0
 39 40  1  0
 21 12  1  0
 39 26  1  0
M  CHG  2  11  -1  39   1
M  END
>  <UniqueID>  (90) 
85

>  <SMILES>  (90) 
CO/C=C(\C(=O)[O-])c1ccccc1COc1ccc(SC)c[nH+]1

>  <Energy>  (90) 
41.26899219319342

>  <Genealogy>  (90) 
COC=C(C(=O)[O-])c1ccccc1COc1ccc(SC)c[nH+]1 (protonated)
CO/C=C(\C(=O)[O-])c1ccccc1COc1ccc(SC)c[nH+]1 (cis-trans isomerization)
CO/C=C(\C(=O)[O-])c1ccccc1COc1ccc(SC)c[nH+]1 (3D coordinates assigned)
CO/C=C(\C(=O)[O-])c1ccccc1COc1ccc(SC)c[nH+]1 (optimized conformer: 41.26899219319342 kcal/mol)

>  <smiles>  (90) 
COC=C(C(=O)O)c1ccccc1COc1ccc(SC)cn1

>  <score_type>  (90) 
oracle

>  <origin>  (90) 
adg

>  <m_score__min__energy>  (90) 
-8.5999999999999996

>  <m_primary>  (90) 
energy

$$$$
90:0
     RDKit          3D

 63 66  0  0  0  0  0  0  0  0999 V2000
   60.5250   29.4750   50.9850 N   0  0  0  0  0  0  0  0  0  0  0  0
   59.4340   30.2810   51.4490 C   0  0  0  0  0  0  0  0  0  0  0  0
   58.1580   29.7080   51.5600 C   0  0  0  0  0  0  0  0  0  0  0  0
   57.0870   30.4530   52.0660 C   0  0  0  0  0  0  0  0  0  0  0  0
   57.2870   31.7710   52.4840 C   0  0  0  0  0  0  0  0  0  0  0  0
   58.5520   32.3530   52.3790 C   0  0  0  0  0  0  0  0  0  0  0  0
   59.6230   31.6310   51.8310 C   0  0  0  0  0  0  0  0  0  0  0  0
   60.8770   32.3010   51.6390 N   0  0  0  0  0  0  0  0  0  0  0  0
   61.5990   32.3140   50.3990 C   0  0  0  0  0  0  0  0  0  0  0  0
   62.6220   31.5900   50.2810 O   0  0  0  0  0  0  0  0  0  0  0  0
   61.1730   33.1670   49.2670 C   0  0  0  0  0  0  0  0  0  0  0  0
   62.0380   33.3910   48.1810 C   0  0  0  0  0  0  0  0  0  0  0  0
   61.6450   34.2110   47.1210 C   0  0  0  0  0  0  0  0  0  0  0  0
   60.3800   34.8190   47.1230 C   0  0  0  0  0  0  0  0  0  0  0  0
   59.9750   35.7090   45.9760 C   0  0  0  0  0  0  0  0  0  0  0  0
   58.9560   35.0950   45.1240 N   0  0  0  0  0  0  0  0  0  0  0  0
   58.9450   33.7290   44.6850 C   0  0  0  0  0  0  0  0  0  0  0  0
   58.9070   33.4590   43.4500 O   0  0  0  0  0  0  0  0  0  0  0  0
   58.9710   32.6330   45.6790 C   0  0  0  0  0  0  0  0  0  0  0  0
   57.7740   32.1410   46.2350 C   0  0  0  0  0  0  0  0  0  0  0  0
   57.7960   31.0570   47.1160 C   0  0  0  0  0  0  0  0  0  0  0  0
   59.0050   30.4250   47.4400 C   0  0  0  0  0  0  0  0  0  0  0  0
   59.0180   29.2360   48.3640 C   0  0  0  0  0  0  0  0  0  0  0  0
   60.3260   28.5880   48.3410 N   0  0  0  0  0  0  0  0  0  0  0  0
   60.5070   27.1710   48.4040 C   0  0  0  0  0  0  0  0  0  0  0  0
   60.6100   26.6000   49.5220 O   0  0  0  0  0  0  0  0  0  0  0  0
   60.6840   26.4190   47.1500 C   0  0  0  0  0  0  0  0  0  0  0  0
   59.6870   25.9440   46.3880 C   0  0  0  0  0  0  0  0  0  0  0  0
   58.5070   26.7240   45.9550 C   0  0  0  0  0  0  0  0  0  0  0  0
   57.2130   26.3010   46.3110 C   0  0  0  0  0  0  0  0  0  0  0  0
   56.0940   27.0550   45.9470 C   0  0  0  0  0  0  0  0  0  0  0  0
   54.8210   26.6200   46.3020 O   0  0  0  0  0  0  0  0  0  0  0  0
   56.2580   28.2500   45.2400 C   0  0  0  0  0  0  0  0  0  0  0  0
   55.1480   29.0080   44.8850 O   0  0  0  0  0  0  0  0  0  0  0  0
   57.5410   28.6910   44.8990 C   0  0  0  0  0  0  0  0  0  0  0  0
   58.6660   27.9410   45.2590 C   0  0  0  0  0  0  0  0  0  0  0  0
   60.3980   28.5950   44.7500 Br  0  0  0  0  0  0  0  0  0  0  0  0
   60.2020   30.9310   46.9110 C   0  0  0  0  0  0  0  0  0  0  0  0
   60.1870   32.0300   46.0450 C   0  0  0  0  0  0  0  0  0  0  0  0
   59.5080   34.5890   48.2010 C   0  0  0  0  0  0  0  0  0  0  0  0
   59.9000   33.7620   49.2640 C   0  0  0  0  0  0  0  0  0  0  0  0
   60.3590   28.5540   50.5240 H   0  0  0  0  0  0  0  0  0  0  0  0
   61.4990   29.8570   50.9660 H   0  0  0  0  0  0  0  0  0  0  0  0
   57.9984   28.6656   51.2470 H   0  0  0  0  0  0  0  0  0  0  0  0
   56.0867   30.0005   52.1347 H   0  0  0  0  0  0  0  0  0  0  0  0
   56.4477   32.3505   52.8960 H   0  0  0  0  0  0  0  0  0  0  0  0
   58.7098   33.3841   52.7282 H   0  0  0  0  0  0  0  0  0  0  0  0
   63.0306   32.9172   48.1664 H   0  0  0  0  0  0  0  0  0  0  0  0
   62.3316   34.3815   46.2787 H   0  0  0  0  0  0  0  0  0  0  0  0
   59.5748   36.6493   46.3831 H   0  0  0  0  0  0  0  0  0  0  0  0
   60.8674   35.8841   45.3571 H   0  0  0  0  0  0  0  0  0  0  0  0
   56.8156   32.6134   45.9738 H   0  0  0  0  0  0  0  0  0  0  0  0
   56.8563   30.6960   47.5595 H   0  0  0  0  0  0  0  0  0  0  0  0
   58.7972   29.5706   49.3884 H   0  0  0  0  0  0  0  0  0  0  0  0
   58.2570   28.5157   48.0294 H   0  0  0  0  0  0  0  0  0  0  0  0
   61.7139   26.2322   46.8118 H   0  0  0  0  0  0  0  0  0  0  0  0
   59.7520   24.8958   46.0607 H   0  0  0  0  0  0  0  0  0  0  0  0
   57.0811   25.3692   46.8805 H   0  0  0  0  0  0  0  0  0  0  0  0
   57.6662   29.6328   44.3446 H   0  0  0  0  0  0  0  0  0  0  0  0
   61.1594   30.4602   47.1791 H   0  0  0  0  0  0  0  0  0  0  0  0
   61.1336   32.4250   45.6477 H   0  0  0  0  0  0  0  0  0  0  0  0
   58.5138   35.0596   48.2111 H   0  0  0  0  0  0  0  0  0  0  0  0
   59.2078   33.5784   50.0990 H   0  0  0  0  0  0  0  0  0  0  0  0
  1  2  1  0
  2  3  2  0
  3  4  1  0
  4  5  2  0
  5  6  1  0
  6  7  2  0
  7  8  1  0
  8  9  1  0
  9 10  2  0
  9 11  1  0
 11 12  2  0
 12 13  1  0
 13 14  2  0
 14 15  1  0
 15 16  1  0
 16 17  1  0
 17 18  2  0
 17 19  1  0
 19 20  2  0
 20 21  1  0
 21 22  2  0
 22 23  1  0
 23 24  1  0
 24 25  1  0
 25 26  2  0
 25 27  1  0
 27 28  2  3
 28 29  1  0
 29 30  2  0
 30 31  1  0
 31 32  1  0
 31 33  2  0
 33 34  1  0
 33 35  1  0
 35 36  2  0
 36 37  1  0
 22 38  1  0
 38 39  2  0
 14 40  1  0
 40 41  2  0
  7  2  1  0
 41 11  1  0
 39 19  1  0
 36 29  1  0
  1 42  1  0
  1 43  1  0
  3 44  1  0
  4 45  1  0
  5 46  1  0
  6 47  1  0
 12 48  1  0
 13 49  1  0
 15 50  1  0
 15 51  1  0
 20 52  1  0
 21 53  1  0
 23 54  1  0
 23 55  1  0
 27 56  1  0
 28 57  1  0
 30 58  1  0
 35 59  1  0
 38 60  1  0
 39 61  1  0
 40 62  1  0
 41 63  1  0
M  CHG  5   8  -1  16  -1  24  -1  32  -1  34  -1
M  END
>  <UniqueID>  (91) 
86

>  <SMILES>  (91) 
Nc1ccccc1[N-]C(=O)c1ccc(C[N-]C(=O)c2ccc(C[N-]C(=O)C=Cc3cc([O-])c([O-])cc3Br)cc2)cc1

>  <Energy>  (91) 
87.02796383705201

>  <Genealogy>  (91) 
Nc1ccccc1[N-]C(=O)c1ccc(C[N-]C(=O)c2ccc(C[N-]C(=O)C=Cc3cc([O-])c([O-])cc3Br)cc2)cc1 (protonated)
Nc1ccccc1[N-]C(=O)c1ccc(C[N-]C(=O)c2ccc(C[N-]C(=O)C=Cc3cc([O-])c([O-])cc3Br)cc2)cc1 (3D coordinates assigned)
Nc1ccccc1[N-]C(=O)c1ccc(C[N-]C(=O)c2ccc(C[N-]C(=O)C=Cc3cc([O-])c([O-])cc3Br)cc2)cc1 (optimized conformer: 87.02796383705201 kcal/mol)

>  <smiles>  (91) 
Nc1ccccc1NC(=O)c1ccc(CNC(=O)c2ccc(CNC(=O)C=Cc3cc(O)c(O)cc3Br)cc2)cc1

>  <score_type>  (91) 
oracle

>  <origin>  (91) 
adg

>  <m_score__min__energy>  (91) 
-24.449999999999999

>  <m_primary>  (91) 
energy

$$$$
91:0
     RDKit          3D

 32 33  0  0  0  0  0  0  0  0999 V2000
   56.6420   30.6170   42.5200 C   0  0  0  0  0  0  0  0  0  0  0  0
   57.3690   30.8830   44.1220 S   0  0  0  0  0  0  0  0  0  0  0  0
   58.7310   31.4980   43.9720 O   0  0  0  0  0  0  0  0  0  0  0  0
   56.5170   31.8690   44.8730 O   0  0  0  0  0  0  0  0  0  0  0  0
   57.4610   29.3510   44.9850 N   0  0  0  0  0  0  0  0  0  0  0  0
   58.6560   28.8620   45.4750 C   0  0  0  0  0  0  0  0  0  0  0  0
   59.9890   29.5670   45.3060 C   0  0  0  0  0  0  0  0  0  0  0  0
   60.2460   30.5900   46.3910 C   0  0  0  0  0  0  0  0  0  0  0  0
   59.2230   31.4340   46.8670 C   0  0  0  0  0  0  0  0  0  0  0  0
   59.4960   32.3960   47.8440 C   0  0  0  0  0  0  0  0  0  0  0  0
   60.7920   32.5370   48.3460 C   0  0  0  0  0  0  0  0  0  0  0  0
   61.8180   31.7180   47.8700 C   0  0  0  0  0  0  0  0  0  0  0  0
   63.0780   31.8620   48.3520 F   0  0  0  0  0  0  0  0  0  0  0  0
   61.5490   30.7540   46.8940 C   0  0  0  0  0  0  0  0  0  0  0  0
   58.6730   27.6560   46.1840 C   0  0  0  0  0  0  0  0  0  0  0  0
   57.4930   26.9490   46.3550 C   0  0  0  0  0  0  0  0  0  0  0  0
   57.5050   25.8630   46.9950 O   0  0  0  0  0  0  0  0  0  0  0  0
   56.3350   27.4210   45.8270 N   0  0  0  0  0  0  0  0  0  0  0  0
   55.1810   26.6780   45.9970 O   0  0  0  0  0  0  0  0  0  0  0  0
   56.3140   28.6020   45.1370 C   0  0  0  0  0  0  0  0  0  0  0  0
   55.2280   28.9940   44.6290 O   0  0  0  0  0  0  0  0  0  0  0  0
   55.6153   30.2413   42.6411 H   0  0  0  0  0  0  0  0  0  0  0  0
   56.6220   31.5661   41.9642 H   0  0  0  0  0  0  0  0  0  0  0  0
   57.2392   29.8792   41.9642 H   0  0  0  0  0  0  0  0  0  0  0  0
   60.7915   28.8151   45.3330 H   0  0  0  0  0  0  0  0  0  0  0  0
   59.9654   30.0995   44.3438 H   0  0  0  0  0  0  0  0  0  0  0  0
   58.2030   31.3353   46.4673 H   0  0  0  0  0  0  0  0  0  0  0  0
   58.6889   33.0430   48.2181 H   0  0  0  0  0  0  0  0  0  0  0  0
   61.0043   33.2931   49.1162 H   0  0  0  0  0  0  0  0  0  0  0  0
   62.3634   30.1184   46.5163 H   0  0  0  0  0  0  0  0  0  0  0  0
   59.6151   27.2720   46.6023 H   0  0  0  0  0  0  0  0  0  0  0  0
   55.0780   26.0030   46.7460 H   0  0  0  0  0  0  0  0  0  0  0  0
  1  2  1  0
  2  3  2  0
  2  4  2  0
  2  5  1  0
  5  6  1  0
  6  7  1  0
  7  8  1  0
  8  9  2  0
  9 10  1  0
 10 11  2  0
 11 12  1  0
 12 13  1  0
 12 14  2  0
  6 15  2  0
 15 16  1  0
 16 17  2  0
 16 18  1  0
 18 19  1  0
 18 20  1  0
 20 21  2  0
 20  5  1  0
 14  8  1  0
  1 22  1  0
  1 23  1  0
  1 24  1  0
  7 25  1  0
  7 26  1  0
  9 27  1  0
 10 28  1  0
 11 29  1  0
 14 30  1  0
 15 31  1  0
 19 32  1  0
M  END
>  <UniqueID>  (92) 
87

>  <SMILES>  (92) 
CS(=O)(=O)n1c(Cc2cccc(F)c2)cc(=O)n(O)c1=O

>  <Energy>  (92) 
40.564401797156826

>  <Genealogy>  (92) 
CS(=O)(=O)n1c(Cc2cccc(F)c2)cc(=O)n(O)c1=O (3D coordinates assigned)
CS(=O)(=O)n1c(Cc2cccc(F)c2)cc(=O)n(O)c1=O (optimized conformer: 40.564401797156826 kcal/mol)

>  <smiles>  (92) 
CS(=O)(=O)n1c(Cc2cccc(F)c2)cc(=O)n(O)c1=O

>  <score_type>  (92) 
oracle

>  <origin>  (92) 
adg

>  <m_score__min__energy>  (92) 
-7.7400000000000002

>  <m_primary>  (92) 
energy

$$$$
92:0
     RDKit          3D

 54 57  0  0  0  0  0  0  0  0999 V2000
   59.5990   34.1270   50.4850 O   0  0  0  0  0  0  0  0  0  0  0  0
   59.3750   32.9520   50.0910 C   0  0  0  0  0  0  0  0  0  0  0  0
   58.4720   32.7440   48.9990 N   0  0  0  0  0  0  0  0  0  0  0  0
   58.6540   33.2420   47.6660 C   0  0  0  0  0  0  0  0  0  0  0  0
   59.2680   34.4830   47.4200 C   0  0  0  0  0  0  0  0  0  0  0  0
   59.4120   34.9480   46.1120 C   0  0  0  0  0  0  0  0  0  0  0  0
   58.9280   34.1930   45.0410 C   0  0  0  0  0  0  0  0  0  0  0  0
   58.2710   32.9740   45.2720 C   0  0  0  0  0  0  0  0  0  0  0  0
   57.7420   32.1600   44.1170 C   0  0  0  0  0  0  0  0  0  0  0  0
   57.2880   30.7940   44.5690 C   0  0  0  0  0  0  0  0  0  0  0  0
   55.9690   30.4850   44.4430 N   0  0  0  0  0  0  0  0  0  0  0  0
   55.4800   29.2980   44.8010 N   0  0  0  0  0  0  0  0  0  0  0  0
   56.2770   28.3260   45.3080 C   0  0  0  0  0  0  0  0  0  0  0  0
   55.7690   27.2240   45.6480 O   0  0  0  0  0  0  0  0  0  0  0  0
   57.6510   28.5630   45.4490 C   0  0  0  0  0  0  0  0  0  0  0  0
   58.1710   29.8150   45.0780 C   0  0  0  0  0  0  0  0  0  0  0  0
   59.6480   30.0490   45.3020 C   0  0  0  0  0  0  0  0  0  0  0  0
   60.4650   28.8450   44.8050 C   0  0  0  0  0  0  0  0  0  0  0  0
   59.9060   27.4700   45.2510 C   0  0  0  0  0  0  0  0  0  0  0  0
   58.5890   27.5400   46.0440 C   0  0  0  0  0  0  0  0  0  0  0  0
   58.1450   32.5030   46.5920 C   0  0  0  0  0  0  0  0  0  0  0  0
   59.9790   31.8410   50.7650 N   0  0  0  0  0  0  0  0  0  0  0  0
   61.1500   32.0130   51.6230 C   0  0  0  0  0  0  0  0  0  0  0  0
   62.4390   31.5780   50.9110 C   0  0  0  0  0  0  0  0  0  0  0  0
   62.5080   32.1190   49.5030 C   0  0  0  0  0  0  0  0  0  0  0  0
   63.1590   33.3390   49.2450 C   0  0  0  0  0  0  0  0  0  0  0  0
   63.2570   33.8250   47.9390 C   0  0  0  0  0  0  0  0  0  0  0  0
   62.7130   33.0970   46.8770 C   0  0  0  0  0  0  0  0  0  0  0  0
   62.0650   31.8850   47.1220 C   0  0  0  0  0  0  0  0  0  0  0  0
   61.9600   31.3940   48.4280 C   0  0  0  0  0  0  0  0  0  0  0  0
   61.3260   30.2120   48.6430 F   0  0  0  0  0  0  0  0  0  0  0  0
   59.6359   35.0891   48.2610 H   0  0  0  0  0  0  0  0  0  0  0  0
   59.9080   35.9117   45.9239 H   0  0  0  0  0  0  0  0  0  0  0  0
   59.0624   34.5555   44.0112 H   0  0  0  0  0  0  0  0  0  0  0  0
   56.8896   32.6896   43.6665 H   0  0  0  0  0  0  0  0  0  0  0  0
   58.5524   32.0308   43.3844 H   0  0  0  0  0  0  0  0  0  0  0  0
   59.9594   30.9495   44.7524 H   0  0  0  0  0  0  0  0  0  0  0  0
   59.8281   30.1811   46.3791 H   0  0  0  0  0  0  0  0  0  0  0  0
   60.4823   28.8701   43.7054 H   0  0  0  0  0  0  0  0  0  0  0  0
   61.4670   28.9380   45.2493 H   0  0  0  0  0  0  0  0  0  0  0  0
   59.7325   26.8620   44.3509 H   0  0  0  0  0  0  0  0  0  0  0  0
   60.6549   27.0342   45.9287 H   0  0  0  0  0  0  0  0  0  0  0  0
   58.1041   26.5528   46.0234 H   0  0  0  0  0  0  0  0  0  0  0  0
   58.8187   27.8358   47.0783 H   0  0  0  0  0  0  0  0  0  0  0  0
   57.6411   31.5438   46.7817 H   0  0  0  0  0  0  0  0  0  0  0  0
   59.5770   30.8890   50.6120 H   0  0  0  0  0  0  0  0  0  0  0  0
   61.2362   33.0737   51.9015 H   0  0  0  0  0  0  0  0  0  0  0  0
   61.0194   31.3828   52.5151 H   0  0  0  0  0  0  0  0  0  0  0  0
   63.3037   31.9513   51.4793 H   0  0  0  0  0  0  0  0  0  0  0  0
   62.4476   30.4793   50.8574 H   0  0  0  0  0  0  0  0  0  0  0  0
   63.5934   33.9136   50.0764 H   0  0  0  0  0  0  0  0  0  0  0  0
   63.7632   34.7824   47.7460 H   0  0  0  0  0  0  0  0  0  0  0  0
   62.7954   33.4789   45.8487 H   0  0  0  0  0  0  0  0  0  0  0  0
   61.6355   31.3141   46.2855 H   0  0  0  0  0  0  0  0  0  0  0  0
  1  2  2  0
  2  3  1  0
  3  4  1  0
  4  5  2  0
  5  6  1  0
  6  7  2  0
  7  8  1  0
  8  9  1  0
  9 10  1  0
 10 11  2  0
 11 12  1  0
 12 13  1  0
 13 14  2  0
 13 15  1  0
 15 16  2  0
 16 17  1  0
 17 18  1  0
 18 19  1  0
 19 20  1  0
  8 21  2  0
  2 22  1  0
 22 23  1  0
 23 24  1  0
 24 25  1  0
 25 26  2  0
 26 27  1  0
 27 28  2  0
 28 29  1  0
 29 30  2  0
 30 31  1  0
 21  4  1  0
 30 25  1  0
 16 10  1  0
 20 15  1  0
  5 32  1  0
  6 33  1  0
  7 34  1  0
  9 35  1  0
  9 36  1  0
 17 37  1  0
 17 38  1  0
 18 39  1  0
 18 40  1  0
 19 41  1  0
 19 42  1  0
 20 43  1  0
 20 44  1  0
 21 45  1  0
 22 46  1  0
 23 47  1  0
 23 48  1  0
 24 49  1  0
 24 50  1  0
 26 51  1  0
 27 52  1  0
 28 53  1  0
 29 54  1  0
M  CHG  2   3  -1  12  -1
M  END
>  <UniqueID>  (93) 
88

>  <SMILES>  (93) 
O=C([N-]c1cccc(Cc2n[n-]c(=O)c3c2CCCC3)c1)NCCc1ccccc1F

>  <Energy>  (93) 
62.77916515463238

>  <Genealogy>  (93) 
O=C([N-]c1cccc(Cc2n[n-]c(=O)c3c2CCCC3)c1)NCCc1ccccc1F (protonated)
O=C([N-]c1cccc(Cc2n[n-]c(=O)c3c2CCCC3)c1)NCCc1ccccc1F (3D coordinates assigned)
O=C([N-]c1cccc(Cc2n[n-]c(=O)c3c2CCCC3)c1)NCCc1ccccc1F (nonaromatic ring conformer: 62.77916515463238 kcal/mol)

>  <smiles>  (93) 
O=C(NCCc1ccccc1F)Nc1cccc(Cc2n[nH]c(=O)c3c2CCCC3)c1

>  <score_type>  (93) 
oracle

>  <origin>  (93) 
adg

>  <m_score__min__energy>  (93) 
-13.779999999999999

>  <m_primary>  (93) 
energy

$$$$
93:0
     RDKit          3D

 47 49  0  0  0  0  0  0  0  0999 V2000
   58.4650   30.0580   46.5570 C   0  0  0  0  0  0  0  0  0  0  0  0
   58.2500   31.5260   46.3150 C   0  0  0  0  0  0  0  0  0  0  0  0
   58.9400   32.4690   47.0030 C   0  0  0  0  0  0  0  0  0  0  0  0
   60.0730   32.1290   47.8970 C   0  0  0  0  0  0  0  0  0  0  0  0
   61.1710   31.7630   47.4010 O   0  0  0  0  0  0  0  0  0  0  0  0
   59.9850   32.3020   49.3170 N   0  0  0  0  0  0  0  0  0  0  0  0
   59.0340   31.6750   50.1900 C   0  0  0  0  0  0  0  0  0  0  0  0
   58.0990   32.4730   50.8550 C   0  0  0  0  0  0  0  0  0  0  0  0
   57.1780   31.8990   51.7360 C   0  0  0  0  0  0  0  0  0  0  0  0
   57.2040   30.5190   51.9920 C   0  0  0  0  0  0  0  0  0  0  0  0
   56.2270   29.9300   52.9330 C   0  0  0  0  0  0  0  0  0  0  0  0
   56.1760   28.6760   53.0490 O   0  0  0  0  0  0  0  0  0  0  0  0
   55.3370   30.7260   53.7270 N   0  0  0  0  0  0  0  0  0  0  0  0
   54.0270   30.3290   54.2440 C   0  0  0  0  0  0  0  0  0  0  0  0
   53.2560   29.4830   53.2240 C   0  0  0  0  0  0  0  0  0  0  0  0
   52.5530   30.3260   52.1910 C   0  0  0  0  0  0  0  0  0  0  0  0
   52.5210   29.9250   50.8450 C   0  0  0  0  0  0  0  0  0  0  0  0
   51.8550   30.7040   49.8930 C   0  0  0  0  0  0  0  0  0  0  0  0
   51.2240   31.8930   50.2750 C   0  0  0  0  0  0  0  0  0  0  0  0
   50.5730   32.6660   49.3230 O   0  0  0  0  0  0  0  0  0  0  0  0
   51.2550   32.3010   51.6140 C   0  0  0  0  0  0  0  0  0  0  0  0
   50.6360   33.4850   51.9980 O   0  0  0  0  0  0  0  0  0  0  0  0
   51.9130   31.5180   52.5690 C   0  0  0  0  0  0  0  0  0  0  0  0
   58.1270   29.7140   51.3060 C   0  0  0  0  0  0  0  0  0  0  0  0
   59.0500   30.2900   50.4290 C   0  0  0  0  0  0  0  0  0  0  0  0
   58.5220   34.2180   46.8500 S   0  0  0  0  0  0  0  0  0  0  0  0
   58.2120   34.1280   45.0690 C   0  0  0  0  0  0  0  0  0  0  0  0
   57.0340   33.1900   44.8610 C   0  0  0  0  0  0  0  0  0  0  0  0
   57.3440   31.8640   45.2940 O   0  0  0  0  0  0  0  0  0  0  0  0
   58.4932   29.8651   47.6396 H   0  0  0  0  0  0  0  0  0  0  0  0
   57.6409   29.4872   46.1042 H   0  0  0  0  0  0  0  0  0  0  0  0
   59.4182   29.7475   46.1042 H   0  0  0  0  0  0  0  0  0  0  0  0
   58.0878   33.5596   50.6840 H   0  0  0  0  0  0  0  0  0  0  0  0
   56.4280   32.5327   52.2319 H   0  0  0  0  0  0  0  0  0  0  0  0
   54.1681   29.7411   55.1629 H   0  0  0  0  0  0  0  0  0  0  0  0
   53.4451   31.2398   54.4488 H   0  0  0  0  0  0  0  0  0  0  0  0
   53.9643   28.8150   52.7120 H   0  0  0  0  0  0  0  0  0  0  0  0
   52.4891   28.9151   53.7712 H   0  0  0  0  0  0  0  0  0  0  0  0
   53.0217   28.9947   50.5385 H   0  0  0  0  0  0  0  0  0  0  0  0
   51.8273   30.3812   48.8418 H   0  0  0  0  0  0  0  0  0  0  0  0
   51.9292   31.8376   53.6214 H   0  0  0  0  0  0  0  0  0  0  0  0
   58.1237   28.6248   51.4595 H   0  0  0  0  0  0  0  0  0  0  0  0
   59.7930   29.6561   49.9230 H   0  0  0  0  0  0  0  0  0  0  0  0
   57.9707   35.1275   44.6781 H   0  0  0  0  0  0  0  0  0  0  0  0
   59.1016   33.7591   44.5374 H   0  0  0  0  0  0  0  0  0  0  0  0
   56.1733   33.5627   45.4357 H   0  0  0  0  0  0  0  0  0  0  0  0
   56.8002   33.1589   43.7866 H   0  0  0  0  0  0  0  0  0  0  0  0
  1  2  1  0
  2  3  2  0
  3  4  1  0
  4  5  2  0
  4  6  1  0
  6  7  1  0
  7  8  2  0
  8  9  1  0
  9 10  2  0
 10 11  1  0
 11 12  2  0
 11 13  1  0
 13 14  1  0
 14 15  1  0
 15 16  1  0
 16 17  2  0
 17 18  1  0
 18 19  2  0
 19 20  1  0
 19 21  1  0
 21 22  1  0
 21 23  2  0
 10 24  1  0
 24 25  2  0
  3 26  1  0
 26 27  1  0
 27 28  1  0
 28 29  1  0
 29  2  1  0
 25  7  1  0
 23 16  1  0
  1 30  1  0
  1 31  1  0
  1 32  1  0
  8 33  1  0
  9 34  1  0
 14 35  1  0
 14 36  1  0
 15 37  1  0
 15 38  1  0
 17 39  1  0
 18 40  1  0
 23 41  1  0
 24 42  1  0
 25 43  1  0
 27 44  1  0
 27 45  1  0
 28 46  1  0
 28 47  1  0
M  CHG  4   6  -1  13  -1  20  -1  22  -1
M  END
>  <UniqueID>  (94) 
89

>  <SMILES>  (94) 
CC1=C(C(=O)[N-]c2ccc(C(=O)[N-]CCc3ccc([O-])c([O-])c3)cc2)SCCO1

>  <Energy>  (94) 
60.67388936385241

>  <Genealogy>  (94) 
CC1=C(C(=O)[N-]c2ccc(C(=O)[N-]CCc3ccc([O-])c([O-])c3)cc2)SCCO1 (protonated)
CC1=C(C(=O)[N-]c2ccc(C(=O)[N-]CCc3ccc([O-])c([O-])c3)cc2)SCCO1 (3D coordinates assigned)
CC1=C(C(=O)[N-]c2ccc(C(=O)[N-]CCc3ccc([O-])c([O-])c3)cc2)SCCO1 (nonaromatic ring conformer: 60.67388936385241 kcal/mol)

>  <smiles>  (94) 
CC1=C(C(=O)Nc2ccc(C(=O)NCCc3ccc(O)c(O)c3)cc2)SCCO1

>  <score_type>  (94) 
oracle

>  <origin>  (94) 
adg

>  <m_score__min__energy>  (94) 
-19.100000000000001

>  <m_primary>  (94) 
energy

$$$$
