0:0
     RDKit          3D

 38 40  0  0  0  0  0  0  0  0999 V2000
   55.0810   29.3030   44.5200 N   0  0  0  0  0  0  0  0  0  0  0  0
   56.8000   29.2720   44.6980 S   0  0  0  0  0  0  0  0  0  0  0  0
   57.3890   28.3530   43.6650 O   0  0  0  0  0  0  0  0  0  0  0  0
   57.1560   28.7550   46.0640 O   0  0  0  0  0  0  0  0  0  0  0  0
   57.4410   30.8990   44.4950 C   0  0  0  0  0  0  0  0  0  0  0  0
   57.6290   31.4350   43.2140 C   0  0  0  0  0  0  0  0  0  0  0  0
   58.1500   32.7230   43.0620 C   0  0  0  0  0  0  0  0  0  0  0  0
   58.4680   33.4870   44.1870 C   0  0  0  0  0  0  0  0  0  0  0  0
   58.2480   32.9820   45.4740 C   0  0  0  0  0  0  0  0  0  0  0  0
   58.6140   33.7900   46.6050 N   0  0  0  0  0  0  0  0  0  0  0  0
   59.2110   33.3900   47.6900 C   0  0  0  0  0  0  0  0  0  0  0  0
   59.3360   32.0560   47.9220 N   0  0  0  0  0  0  0  0  0  0  0  0
   59.9670   31.5790   49.0300 C   0  0  0  0  0  0  0  0  0  0  0  0
   60.0770   30.1160   49.2200 C   0  0  0  0  0  0  0  0  0  0  0  0
   60.2330   29.6620   50.3870 O   0  0  0  0  0  0  0  0  0  0  0  0
   60.0490   29.1680   48.0850 C   0  0  0  0  0  0  0  0  0  0  0  0
   59.5040   27.8860   48.2780 C   0  0  0  0  0  0  0  0  0  0  0  0
   59.4170   26.9850   47.2150 C   0  0  0  0  0  0  0  0  0  0  0  0
   59.8670   27.3530   45.9470 C   0  0  0  0  0  0  0  0  0  0  0  0
   60.4090   28.6240   45.7400 C   0  0  0  0  0  0  0  0  0  0  0  0
   60.5110   29.5340   46.7990 C   0  0  0  0  0  0  0  0  0  0  0  0
   61.0940   30.7790   46.5470 O   0  0  0  0  0  0  0  0  0  0  0  0
   60.5240   32.4890   49.9410 C   0  0  0  0  0  0  0  0  0  0  0  0
   60.3970   33.8530   49.6860 C   0  0  0  0  0  0  0  0  0  0  0  0
   59.7500   34.2770   48.5700 N   0  0  0  0  0  0  0  0  0  0  0  0
   57.7560   31.6710   45.6230 C   0  0  0  0  0  0  0  0  0  0  0  0
   54.6760   29.3460   45.4830 H   0  0  0  0  0  0  0  0  0  0  0  0
   57.3660   30.8409   42.3263 H   0  0  0  0  0  0  0  0  0  0  0  0
   58.3098   33.1355   42.0549 H   0  0  0  0  0  0  0  0  0  0  0  0
   58.8945   34.4931   44.0609 H   0  0  0  0  0  0  0  0  0  0  0  0
   59.1434   27.5908   49.2744 H   0  0  0  0  0  0  0  0  0  0  0  0
   58.9929   25.9832   47.3777 H   0  0  0  0  0  0  0  0  0  0  0  0
   59.7952   26.6427   45.1102 H   0  0  0  0  0  0  0  0  0  0  0  0
   60.7582   28.9118   44.7374 H   0  0  0  0  0  0  0  0  0  0  0  0
   60.6170   31.6550   46.7130 H   0  0  0  0  0  0  0  0  0  0  0  0
   61.0505   32.1328   50.8387 H   0  0  0  0  0  0  0  0  0  0  0  0
   60.8207   34.5859   50.3884 H   0  0  0  0  0  0  0  0  0  0  0  0
   57.6179   31.2499   46.6298 H   0  0  0  0  0  0  0  0  0  0  0  0
  1  2  1  0
  2  3  2  0
  2  4  2  0
  2  5  1  0
  5  6  2  0
  6  7  1  0
  7  8  2  0
  8  9  1  0
  9 10  1  0
 10 11  2  3
 11 12  1  0
 12 13  2  0
 13 14  1  0
 14 15  2  0
 14 16  1  0
 16 17  2  0
 17 18  1  0
 18 19  2  0
 19 20  1  0
 20 21  2  0
 21 22  1  0
 13 23  1  0
 23 24  2  0
 24 25  1  0
  9 26  2  0
 26  5  1  0
 25 11  1  0
 21 16  1  0
  1 27  1  0
  6 28  1  0
  7 29  1  0
  8 30  1  0
 17 31  1  0
 18 32  1  0
 19 33  1  0
 20 34  1  0
 22 35  1  0
 23 36  1  0
 24 37  1  0
 26 38  1  0
M  CHG  2   1  -1  25  -1
M  END
>  <UniqueID>  (1) 
1

>  <SMILES>  (1) 
[NH-]S(=O)(=O)c1cccc(N=c2nc(C(=O)c3ccccc3O)cc[n-]2)c1

>  <Energy>  (1) 
55.54967003124128

>  <Genealogy>  (1) 
[NH-]S(=O)(=O)c1cccc(N=c2nc(C(=O)c3ccccc3O)cc[n-]2)c1 (protonated)
[NH-]S(=O)(=O)c1cccc(N=c2nc(C(=O)c3ccccc3O)cc[n-]2)c1 (3D coordinates assigned)
[NH-]S(=O)(=O)c1cccc(N=c2nc(C(=O)c3ccccc3O)cc[n-]2)c1 (optimized conformer: 55.54967003124128 kcal/mol)

>  <smiles>  (1) 
NS(=O)(=O)c1cccc(N=c2nc(C(=O)c3ccccc3O)cc[nH]2)c1

>  <score_type>  (1) 
oracle

>  <origin>  (1) 
adg

>  <m_score__min__energy>  (1) 
-12.99

>  <m_primary>  (1) 
energy

$$$$
1:0
     RDKit          3D

 50 52  0  0  0  0  0  0  0  0999 V2000
   60.7410   26.6260   46.5450 C   0  0  0  0  0  0  0  0  0  0  0  0
   60.3460   27.4180   47.7850 C   0  0  0  0  0  0  0  0  0  0  0  0
   59.2990   28.3950   47.4540 N   0  0  0  0  0  0  0  0  0  0  0  0
   59.3360   29.7400   48.0550 C   0  0  0  0  0  0  0  0  0  0  0  0
   60.7440   30.3220   47.9960 C   0  0  0  0  0  0  0  0  0  0  0  0
   58.1950   27.9920   46.6150 C   0  0  0  0  0  0  0  0  0  0  0  0
   57.7970   26.7950   46.6410 O   0  0  0  0  0  0  0  0  0  0  0  0
   57.5200   28.9510   45.7170 C   0  0  0  0  0  0  0  0  0  0  0  0
   58.1810   30.1290   45.3340 C   0  0  0  0  0  0  0  0  0  0  0  0
   57.5280   31.0860   44.5470 C   0  0  0  0  0  0  0  0  0  0  0  0
   58.1650   32.3380   44.2790 N   0  0  0  0  0  0  0  0  0  0  0  0
   57.9170   33.6670   45.3600 S   0  0  0  0  0  0  0  0  0  0  0  0
   57.7930   34.9430   44.5770 O   0  0  0  0  0  0  0  0  0  0  0  0
   56.6540   33.4560   46.1490 O   0  0  0  0  0  0  0  0  0  0  0  0
   59.3140   33.7730   46.4270 C   0  0  0  0  0  0  0  0  0  0  0  0
   60.5990   33.8440   45.8760 C   0  0  0  0  0  0  0  0  0  0  0  0
   61.7240   33.8000   46.7030 C   0  0  0  0  0  0  0  0  0  0  0  0
   61.5830   33.6730   48.0980 C   0  0  0  0  0  0  0  0  0  0  0  0
   62.7720   33.5800   48.9800 C   0  0  0  0  0  0  0  0  0  0  0  0
   63.9830   32.9480   48.6930 C   0  0  0  0  0  0  0  0  0  0  0  0
   64.9110   33.0100   49.7400 C   0  0  0  0  0  0  0  0  0  0  0  0
   64.4490   33.6850   50.8600 C   0  0  0  0  0  0  0  0  0  0  0  0
   62.8840   34.2060   50.5440 S   0  0  0  0  0  0  0  0  0  0  0  0
   60.2870   33.6070   48.6420 C   0  0  0  0  0  0  0  0  0  0  0  0
   59.1630   33.6550   47.8130 C   0  0  0  0  0  0  0  0  0  0  0  0
   56.2230   30.8390   44.0980 C   0  0  0  0  0  0  0  0  0  0  0  0
   55.5770   29.6480   44.4360 C   0  0  0  0  0  0  0  0  0  0  0  0
   56.2160   28.7060   45.2480 C   0  0  0  0  0  0  0  0  0  0  0  0
   55.5400   27.5430   45.6020 O   0  0  0  0  0  0  0  0  0  0  0  0
   61.2128   25.6800   46.8490 H   0  0  0  0  0  0  0  0  0  0  0  0
   59.8440   26.4122   45.9453 H   0  0  0  0  0  0  0  0  0  0  0  0
   61.4514   27.2139   45.9453 H   0  0  0  0  0  0  0  0  0  0  0  0
   59.9675   26.7263   48.5521 H   0  0  0  0  0  0  0  0  0  0  0  0
   61.2288   27.9540   48.1636 H   0  0  0  0  0  0  0  0  0  0  0  0
   58.6498   30.4000   47.5040 H   0  0  0  0  0  0  0  0  0  0  0  0
   59.0306   29.6633   49.1090 H   0  0  0  0  0  0  0  0  0  0  0  0
   61.1197   30.4773   49.0181 H   0  0  0  0  0  0  0  0  0  0  0  0
   61.4072   29.6243   47.4637 H   0  0  0  0  0  0  0  0  0  0  0  0
   60.7210   31.2843   47.4637 H   0  0  0  0  0  0  0  0  0  0  0  0
   59.2191   30.3015   45.6543 H   0  0  0  0  0  0  0  0  0  0  0  0
   59.0380   32.3460   43.7050 H   0  0  0  0  0  0  0  0  0  0  0  0
   60.7234   33.9349   44.7868 H   0  0  0  0  0  0  0  0  0  0  0  0
   62.7289   33.8652   46.2603 H   0  0  0  0  0  0  0  0  0  0  0  0
   64.1890   32.4484   47.7349 H   0  0  0  0  0  0  0  0  0  0  0  0
   65.9147   32.5640   49.6796 H   0  0  0  0  0  0  0  0  0  0  0  0
   65.0094   33.8502   51.7920 H   0  0  0  0  0  0  0  0  0  0  0  0
   60.1573   33.5167   49.7306 H   0  0  0  0  0  0  0  0  0  0  0  0
   58.1558   33.5998   48.2517 H   0  0  0  0  0  0  0  0  0  0  0  0
   55.7063   31.5859   43.4774 H   0  0  0  0  0  0  0  0  0  0  0  0
   54.5616   29.4502   44.0620 H   0  0  0  0  0  0  0  0  0  0  0  0
  1  2  1  0
  2  3  1  0
  3  4  1  0
  4  5  1  0
  3  6  1  0
  6  7  2  0
  6  8  1  0
  8  9  2  0
  9 10  1  0
 10 11  1  0
 11 12  1  0
 12 13  2  0
 12 14  2  0
 12 15  1  0
 15 16  2  0
 16 17  1  0
 17 18  2  0
 18 19  1  0
 19 20  2  0
 20 21  1  0
 21 22  2  0
 22 23  1  0
 18 24  1  0
 24 25  2  0
 10 26  2  0
 26 27  1  0
 27 28  2  0
 28 29  1  0
 28  8  1  0
 25 15  1  0
 23 19  1  0
  1 30  1  0
  1 31  1  0
  1 32  1  0
  2 33  1  0
  2 34  1  0
  4 35  1  0
  4 36  1  0
  5 37  1  0
  5 38  1  0
  5 39  1  0
  9 40  1  0
 11 41  1  0
 16 42  1  0
 17 43  1  0
 20 44  1  0
 21 45  1  0
 22 46  1  0
 24 47  1  0
 25 48  1  0
 26 49  1  0
 27 50  1  0
M  CHG  1  29  -1
M  END
>  <UniqueID>  (2) 
2

>  <SMILES>  (2) 
CCN(CC)C(=O)c1cc(NS(=O)(=O)c2ccc(-c3cccs3)cc2)ccc1[O-]

>  <Energy>  (2) 
81.23094785620047

>  <Genealogy>  (2) 
CCN(CC)C(=O)c1cc(NS(=O)(=O)c2ccc(-c3cccs3)cc2)ccc1[O-] (protonated)
CCN(CC)C(=O)c1cc(NS(=O)(=O)c2ccc(-c3cccs3)cc2)ccc1[O-] (3D coordinates assigned)
CCN(CC)C(=O)c1cc(NS(=O)(=O)c2ccc(-c3cccs3)cc2)ccc1[O-] (optimized conformer: 81.23094785620047 kcal/mol)

>  <smiles>  (2) 
CCN(CC)C(=O)c1cc(NS(=O)(=O)c2ccc(-c3cccs3)cc2)ccc1O

>  <score_type>  (2) 
oracle

>  <origin>  (2) 
adg

>  <m_score__min__energy>  (2) 
-12.33

>  <m_primary>  (2) 
energy

$$$$
2:0
     RDKit          3D

 45 48  0  0  0  0  0  0  0  0999 V2000
   59.9550   21.9030   45.2400 N   0  0  0  0  0  0  0  0  0  0  0  0
   58.8910   22.6000   44.5140 C   0  0  1  0  0  0  0  0  0  0  0  0
   57.8000   21.5980   44.0800 C   0  0  0  0  0  0  0  0  0  0  0  0
   56.4190   22.2590   43.9250 C   0  0  0  0  0  0  0  0  0  0  0  0
   56.5560   23.7410   43.5600 C   0  0  0  0  0  0  0  0  0  0  0  0
   57.2540   24.5150   44.6210 N   0  0  0  0  0  0  0  0  0  0  0  0
   57.8120   25.7760   44.0850 C   0  0  0  0  0  0  0  0  0  0  0  0
   58.0380   26.7790   45.1880 C   0  0  0  0  0  0  0  0  0  0  0  0
   58.2950   26.3510   46.4990 C   0  0  0  0  0  0  0  0  0  0  0  0
   58.5320   27.2840   47.5090 C   0  0  0  0  0  0  0  0  0  0  0  0
   58.5180   28.6510   47.2210 C   0  0  0  0  0  0  0  0  0  0  0  0
   58.2680   29.1010   45.9120 C   0  0  0  0  0  0  0  0  0  0  0  0
   58.2570   30.5530   45.6020 C   0  0  0  0  0  0  0  0  0  0  0  0
   57.4170   31.0700   44.5780 C   0  0  0  0  0  0  0  0  0  0  0  0
   57.4030   32.4060   44.2900 N   0  0  0  0  0  0  0  0  0  0  0  0
   58.2060   33.2400   44.9930 C   0  0  0  0  0  0  0  0  0  0  0  0
   58.3090   34.5670   44.8300 N   0  0  0  0  0  0  0  0  0  0  0  0
   59.2240   34.9710   45.7420 C   0  0  0  0  0  0  0  0  0  0  0  0
   59.6980   33.8910   46.4830 C   0  0  0  0  0  0  0  0  0  0  0  0
   59.0280   32.7940   45.9840 C   0  0  0  0  0  0  0  0  0  0  0  0
   59.0840   31.4480   46.3210 C   0  0  0  0  0  0  0  0  0  0  0  0
   58.0290   28.1530   44.9000 C   0  0  0  0  0  0  0  0  0  0  0  0
   58.2820   23.7370   45.3620 C   0  0  0  0  0  0  0  0  0  0  0  0
   59.7690   20.8740   45.1950 H   0  0  0  0  0  0  0  0  0  0  0  0
   60.8710   22.0740   44.7630 H   0  0  0  0  0  0  0  0  0  0  0  0
   59.3318   23.0568   43.6157 H   0  0  0  0  0  0  0  0  0  0  0  0
   58.0901   21.1571   43.1149 H   0  0  0  0  0  0  0  0  0  0  0  0
   57.7175   20.8332   44.8663 H   0  0  0  0  0  0  0  0  0  0  0  0
   55.8607   21.7431   43.1299 H   0  0  0  0  0  0  0  0  0  0  0  0
   55.8849   22.1826   44.8836 H   0  0  0  0  0  0  0  0  0  0  0  0
   57.1288   23.8247   42.6246 H   0  0  0  0  0  0  0  0  0  0  0  0
   55.5442   24.1574   43.4463 H   0  0  0  0  0  0  0  0  0  0  0  0
   58.7711   25.5633   43.5902 H   0  0  0  0  0  0  0  0  0  0  0  0
   57.0939   26.1999   43.3676 H   0  0  0  0  0  0  0  0  0  0  0  0
   58.3097   25.2760   46.7316 H   0  0  0  0  0  0  0  0  0  0  0  0
   58.7305   26.9421   48.5355 H   0  0  0  0  0  0  0  0  0  0  0  0
   58.7037   29.3803   48.0233 H   0  0  0  0  0  0  0  0  0  0  0  0
   56.7697   30.3856   44.0100 H   0  0  0  0  0  0  0  0  0  0  0  0
   57.7950   35.1630   44.1440 H   0  0  0  0  0  0  0  0  0  0  0  0
   59.5496   36.0127   45.8795 H   0  0  0  0  0  0  0  0  0  0  0  0
   60.4445   33.9093   47.2907 H   0  0  0  0  0  0  0  0  0  0  0  0
   59.7492   31.0895   47.1204 H   0  0  0  0  0  0  0  0  0  0  0  0
   57.8330   28.4922   43.8721 H   0  0  0  0  0  0  0  0  0  0  0  0
   59.0886   24.4199   45.6670 H   0  0  0  0  0  0  0  0  0  0  0  0
   57.7894   23.2772   46.2314 H   0  0  0  0  0  0  0  0  0  0  0  0
  1  2  1  0
  2  3  1  0
  3  4  1  0
  4  5  1  0
  5  6  1  0
  6  7  1  0
  7  8  1  0
  8  9  2  0
  9 10  1  0
 10 11  2  0
 11 12  1  0
 12 13  1  0
 13 14  2  0
 14 15  1  0
 15 16  2  0
 16 17  1  0
 17 18  1  0
 18 19  2  0
 19 20  1  0
 20 21  2  0
 12 22  2  0
  6 23  1  0
 23  2  1  0
 22  8  1  0
 21 13  1  0
 20 16  1  0
  1 24  1  0
  1 25  1  0
  2 26  1  6
  3 27  1  0
  3 28  1  0
  4 29  1  0
  4 30  1  0
  5 31  1  0
  5 32  1  0
  7 33  1  0
  7 34  1  0
  9 35  1  0
 10 36  1  0
 11 37  1  0
 14 38  1  0
 17 39  1  0
 18 40  1  0
 19 41  1  0
 21 42  1  0
 22 43  1  0
 23 44  1  0
 23 45  1  0
M  END
>  <UniqueID>  (3) 
3

>  <SMILES>  (3) 
N[C@H]1CCCN(Cc2cccc(-c3cnc4[nH]ccc4c3)c2)C1

>  <Energy>  (3) 
95.18753277507346

>  <Genealogy>  (3) 
N[C@H]1CCCN(Cc2cccc(-c3cnc4[nH]ccc4c3)c2)C1 (chirality)
N[C@H]1CCCN(Cc2cccc(-c3cnc4[nH]ccc4c3)c2)C1 (3D coordinates assigned)
N[C@H]1CCCN(Cc2cccc(-c3cnc4[nH]ccc4c3)c2)C1 (nonaromatic ring conformer: 95.18753277507346 kcal/mol)

>  <smiles>  (3) 
NC1CCCN(Cc2cccc(-c3cnc4[nH]ccc4c3)c2)C1

>  <score_type>  (3) 
oracle

>  <origin>  (3) 
adg

>  <m_score__min__energy>  (3) 
-8.8399999999999999

>  <m_primary>  (3) 
energy

$$$$
3:0
     RDKit          3D

 46 47  0  0  0  0  0  0  0  0999 V2000
   59.1980   34.6330   45.7470 C   0  0  0  0  0  0  0  0  0  0  0  0
   60.0130   34.9640   47.0050 C   0  0  0  0  0  0  0  0  0  0  0  0
   60.6980   33.7560   47.7320 C   0  0  0  0  0  0  0  0  0  0  0  0
   60.8600   32.5870   46.7300 C   0  0  0  0  0  0  0  0  0  0  0  0
   62.0930   34.1940   48.2430 C   0  0  0  0  0  0  0  0  0  0  0  0
   59.8640   33.2600   48.9410 C   0  0  0  0  0  0  0  0  0  0  0  0
   58.9550   32.1890   48.7760 C   0  0  0  0  0  0  0  0  0  0  0  0
   58.1860   31.7140   49.8410 C   0  0  0  0  0  0  0  0  0  0  0  0
   58.2920   32.2960   51.1120 C   0  0  0  0  0  0  0  0  0  0  0  0
   57.4870   31.7950   52.2530 C   0  0  0  0  0  0  0  0  0  0  0  0
   57.9230   31.9380   53.4280 O   0  0  0  0  0  0  0  0  0  0  0  0
   56.2150   31.1610   52.0420 N   0  0  0  0  0  0  0  0  0  0  0  0
   55.5210   30.4340   53.1020 C   0  0  0  0  0  0  0  0  0  0  0  0
   54.0760   30.2370   52.7330 C   0  0  0  0  0  0  0  0  0  0  0  0
   53.4600   28.9880   52.9020 C   0  0  0  0  0  0  0  0  0  0  0  0
   52.1270   28.8080   52.5330 C   0  0  0  0  0  0  0  0  0  0  0  0
   51.3970   29.8670   51.9890 C   0  0  0  0  0  0  0  0  0  0  0  0
   51.9980   31.1240   51.8050 C   0  0  0  0  0  0  0  0  0  0  0  0
   51.2250   32.2430   51.2230 C   0  0  0  0  0  0  0  0  0  0  0  0
   51.0570   32.3270   49.9780 O   0  0  0  0  0  0  0  0  0  0  0  0
   50.6720   33.2200   52.0440 O   0  0  0  0  0  0  0  0  0  0  0  0
   53.3430   31.3000   52.1800 C   0  0  0  0  0  0  0  0  0  0  0  0
   59.1980   33.3480   51.2980 C   0  0  0  0  0  0  0  0  0  0  0  0
   59.9690   33.8260   50.2360 C   0  0  0  0  0  0  0  0  0  0  0  0
   58.2159   34.2341   46.0408 H   0  0  0  0  0  0  0  0  0  0  0  0
   59.0591   35.5460   45.1494 H   0  0  0  0  0  0  0  0  0  0  0  0
   59.7350   33.8817   45.1494 H   0  0  0  0  0  0  0  0  0  0  0  0
   60.8038   35.6713   46.7145 H   0  0  0  0  0  0  0  0  0  0  0  0
   59.2854   35.3637   47.7267 H   0  0  0  0  0  0  0  0  0  0  0  0
   60.9905   31.6453   47.2833 H   0  0  0  0  0  0  0  0  0  0  0  0
   59.9627   32.5193   46.0974 H   0  0  0  0  0  0  0  0  0  0  0  0
   61.7419   32.7659   46.0974 H   0  0  0  0  0  0  0  0  0  0  0  0
   62.0968   34.1952   49.3430 H   0  0  0  0  0  0  0  0  0  0  0  0
   62.8555   33.4920   47.8745 H   0  0  0  0  0  0  0  0  0  0  0  0
   62.3174   35.2058   47.8745 H   0  0  0  0  0  0  0  0  0  0  0  0
   58.8513   31.7195   47.7866 H   0  0  0  0  0  0  0  0  0  0  0  0
   57.4914   30.8762   49.6810 H   0  0  0  0  0  0  0  0  0  0  0  0
   55.7380   31.2500   51.1160 H   0  0  0  0  0  0  0  0  0  0  0  0
   55.9977   29.4527   53.2425 H   0  0  0  0  0  0  0  0  0  0  0  0
   55.5786   31.0149   54.0343 H   0  0  0  0  0  0  0  0  0  0  0  0
   54.0298   28.1484   53.3267 H   0  0  0  0  0  0  0  0  0  0  0  0
   51.6484   27.8272   52.6711 H   0  0  0  0  0  0  0  0  0  0  0  0
   50.3456   29.7164   51.7029 H   0  0  0  0  0  0  0  0  0  0  0  0
   53.8246   32.2788   52.0388 H   0  0  0  0  0  0  0  0  0  0  0  0
   59.3036   33.8037   52.2936 H   0  0  0  0  0  0  0  0  0  0  0  0
   60.6699   34.6562   50.4077 H   0  0  0  0  0  0  0  0  0  0  0  0
  1  2  1  0
  2  3  1  0
  3  4  1  0
  3  5  1  0
  3  6  1  0
  6  7  2  0
  7  8  1  0
  8  9  2  0
  9 10  1  0
 10 11  2  0
 10 12  1  0
 12 13  1  0
 13 14  1  0
 14 15  2  0
 15 16  1  0
 16 17  2  0
 17 18  1  0
 18 19  1  0
 19 20  2  0
 19 21  1  0
 18 22  2  0
  9 23  1  0
 23 24  2  0
 24  6  1  0
 22 14  1  0
  1 25  1  0
  1 26  1  0
  1 27  1  0
  2 28  1  0
  2 29  1  0
  4 30  1  0
  4 31  1  0
  4 32  1  0
  5 33  1  0
  5 34  1  0
  5 35  1  0
  7 36  1  0
  8 37  1  0
 12 38  1  0
 13 39  1  0
 13 40  1  0
 15 41  1  0
 16 42  1  0
 17 43  1  0
 22 44  1  0
 23 45  1  0
 24 46  1  0
M  CHG  1  21  -1
M  END
>  <UniqueID>  (4) 
4

>  <SMILES>  (4) 
CCC(C)(C)c1ccc(C(=O)NCc2cccc(C(=O)[O-])c2)cc1

>  <Energy>  (4) 
50.507721536022764

>  <Genealogy>  (4) 
CCC(C)(C)c1ccc(C(=O)NCc2cccc(C(=O)[O-])c2)cc1 (protonated)
CCC(C)(C)c1ccc(C(=O)NCc2cccc(C(=O)[O-])c2)cc1 (3D coordinates assigned)
CCC(C)(C)c1ccc(C(=O)NCc2cccc(C(=O)[O-])c2)cc1 (optimized conformer: 50.507721536022764 kcal/mol)

>  <smiles>  (4) 
CCC(C)(C)c1ccc(C(=O)NCc2cccc(C(=O)O)c2)cc1

>  <score_type>  (4) 
oracle

>  <origin>  (4) 
adg

>  <m_score__min__energy>  (4) 
-11.92

>  <m_primary>  (4) 
energy

$$$$
4:0
     RDKit          3D

 46 49  0  0  0  0  0  0  0  0999 V2000
   64.6997   33.1195   48.3681 H   0  0  0  0  0  0  0  0  0  0  0  0
   63.6870   33.3250   47.9910 C   0  0  0  0  0  0  0  0  0  0  0  0
   63.2920   33.8050   46.4260 S   0  0  0  0  0  0  0  0  0  0  0  0
   61.6380   33.8760   46.7470 C   0  0  0  0  0  0  0  0  0  0  0  0
   60.6960   34.1980   45.9100 N   0  0  0  0  0  0  0  0  0  0  0  0
   58.9910   33.9000   46.0900 S   0  0  0  0  0  0  0  0  0  0  0  0
   58.6000   34.2580   47.4960 O   0  0  0  0  0  0  0  0  0  0  0  0
   58.1760   34.7420   45.1500 O   0  0  0  0  0  0  0  0  0  0  0  0
   58.6590   32.1920   45.7800 C   0  0  0  0  0  0  0  0  0  0  0  0
   58.1040   31.8030   44.5530 C   0  0  0  0  0  0  0  0  0  0  0  0
   57.8836   32.5629   43.7888 H   0  0  0  0  0  0  0  0  0  0  0  0
   57.8290   30.4610   44.2930 C   0  0  0  0  0  0  0  0  0  0  0  0
   57.3940   30.1707   43.3253 H   0  0  0  0  0  0  0  0  0  0  0  0
   58.1030   29.4770   45.2570 C   0  0  0  0  0  0  0  0  0  0  0  0
   57.8060   28.0480   44.9820 C   0  0  0  0  0  0  0  0  0  0  0  0
   58.0600   27.5000   43.7130 C   0  0  0  0  0  0  0  0  0  0  0  0
   58.4859   28.1330   42.9206 H   0  0  0  0  0  0  0  0  0  0  0  0
   57.7760   26.1580   43.4500 C   0  0  0  0  0  0  0  0  0  0  0  0
   57.9786   25.7424   42.4519 H   0  0  0  0  0  0  0  0  0  0  0  0
   57.2340   25.3360   44.4500 C   0  0  0  0  0  0  0  0  0  0  0  0
   56.9920   25.8720   45.7340 C   0  0  0  0  0  0  0  0  0  0  0  0
   57.2640   27.2250   45.9840 C   0  0  0  0  0  0  0  0  0  0  0  0
   57.0504   27.6474   46.9770 H   0  0  0  0  0  0  0  0  0  0  0  0
   56.3630   25.0260   46.8160 C   0  0  0  0  0  0  0  0  0  0  0  0
   56.7352   25.3637   47.7945 H   0  0  0  0  0  0  0  0  0  0  0  0
   55.2709   25.1399   46.7498 H   0  0  0  0  0  0  0  0  0  0  0  0
   56.7010   23.5410   46.6410 C   0  0  0  0  0  0  0  0  0  0  0  0
   57.7826   23.3990   46.7820 H   0  0  0  0  0  0  0  0  0  0  0  0
   56.1365   22.9622   47.3869 H   0  0  0  0  0  0  0  0  0  0  0  0
   56.3090   23.0510   45.2430 C   0  0  0  0  0  0  0  0  0  0  0  0
   56.6523   22.0137   45.1157 H   0  0  0  0  0  0  0  0  0  0  0  0
   55.2149   23.1089   45.1447 H   0  0  0  0  0  0  0  0  0  0  0  0
   56.9320   23.9090   44.1790 C   0  0  0  0  0  0  0  0  0  0  0  0
   57.1490   23.4140   43.0400 O   0  0  0  0  0  0  0  0  0  0  0  0
   58.6590   29.8670   46.4880 C   0  0  0  0  0  0  0  0  0  0  0  0
   58.8774   29.1048   47.2505 H   0  0  0  0  0  0  0  0  0  0  0  0
   58.9400   31.2200   46.7580 C   0  0  0  0  0  0  0  0  0  0  0  0
   59.4990   31.6300   47.9800 O   0  0  0  0  0  0  0  0  0  0  0  0
   58.8760   31.4710   49.2500 C   0  0  0  0  0  0  0  0  0  0  0  0
   59.6121   31.6589   50.0456 H   0  0  0  0  0  0  0  0  0  0  0  0
   58.0452   32.1859   49.3429 H   0  0  0  0  0  0  0  0  0  0  0  0
   58.4894   30.4454   49.3429 H   0  0  0  0  0  0  0  0  0  0  0  0
   61.3810   33.5420   48.0290 N   0  0  0  0  0  0  0  0  0  0  0  0
   60.4230   33.5170   48.4460 H   0  0  0  0  0  0  0  0  0  0  0  0
   62.5080   33.2340   48.7230 C   0  0  0  0  0  0  0  0  0  0  0  0
   62.4892   32.9358   49.7817 H   0  0  0  0  0  0  0  0  0  0  0  0
  1  2  1  0
  2  3  1  0
  3  4  1  0
  4  5  2  0
  5  6  1  0
  6  7  2  0
  6  8  2  0
  6  9  1  0
  9 10  2  0
 10 11  1  0
 10 12  1  0
 12 13  1  0
 12 14  2  0
 14 15  1  0
 15 16  2  0
 16 17  1  0
 16 18  1  0
 18 19  1  0
 18 20  2  0
 20 21  1  0
 21 22  2  0
 22 23  1  0
 21 24  1  0
 24 25  1  0
 24 26  1  0
 24 27  1  0
 27 28  1  0
 27 29  1  0
 27 30  1  0
 30 31  1  0
 30 32  1  0
 30 33  1  0
 33 34  2  0
 14 35  1  0
 35 36  1  0
 35 37  2  0
 37 38  1  0
 38 39  1  0
 39 40  1  0
 39 41  1  0
 39 42  1  0
  4 43  1  0
 43 44  1  0
 43 45  1  0
 45 46  1  0
 45  2  2  0
 37  9  1  0
 22 15  1  0
 33 20  1  0
M  END
>  <UniqueID>  (5) 
5

>  <SMILES>  (5) 
COc1cc(-c2ccc3c(c2)CCCC3=O)ccc1S(=O)(=O)/N=c1/[nH]ccs1

>  <Energy>  (5) 
89.88903012789015

>  <Genealogy>  (5) 
COc1cc(-c2ccc3c(c2)CCCC3=O)ccc1S(=O)(=O)/N=c1/[nH]ccs1 (cis-trans isomerization)
COc1cc(-c2ccc3c(c2)CCCC3=O)ccc1S(=O)(=O)/N=c1/[nH]ccs1 (3D coordinates assigned)
COc1cc(-c2ccc3c(c2)CCCC3=O)ccc1S(=O)(=O)/N=c1/[nH]ccs1 (nonaromatic ring conformer: 89.88903012789015 kcal/mol)

>  <smiles>  (5) 
COc1cc(-c2ccc3c(c2)CCCC3=O)ccc1S(=O)(=O)N=c1[nH]ccs1

>  <score_type>  (5) 
oracle

>  <origin>  (5) 
adg

>  <m_score__min__energy>  (5) 
-9.3300000000000001

>  <m_primary>  (5) 
energy

$$$$
5:0
     RDKit          3D

 45 49  0  0  0  0  0  0  0  0999 V2000
   63.1850   33.2020   47.7330 C   0  0  0  0  0  0  0  0  0  0  0  0
   61.7600   33.2460   47.2760 C   0  0  0  0  0  0  0  0  0  0  0  0
   61.2830   34.1930   46.4290 N   0  0  0  0  0  0  0  0  0  0  0  0
   59.9630   33.9580   46.3290 C   0  0  0  0  0  0  0  0  0  0  0  0
   58.9990   34.6560   45.6110 C   0  0  0  0  0  0  0  0  0  0  0  0
   59.3010   35.6480   44.8980 O   0  0  0  0  0  0  0  0  0  0  0  0
   57.7030   34.2350   45.7020 N   0  0  0  0  0  0  0  0  0  0  0  0
   57.3570   33.1600   46.4810 C   0  0  0  0  0  0  0  0  0  0  0  0
   58.3090   32.4810   47.1890 N   0  0  0  0  0  0  0  0  0  0  0  0
   59.5970   32.8940   47.0930 C   0  0  0  0  0  0  0  0  0  0  0  0
   60.7260   32.4070   47.7150 C   0  0  0  0  0  0  0  0  0  0  0  0
   60.7880   31.3040   48.7330 C   0  0  0  0  0  0  0  0  0  0  0  0
   60.3890   29.9940   48.1100 C   0  0  0  0  0  0  0  0  0  0  0  0
   60.6620   29.7420   46.7580 C   0  0  0  0  0  0  0  0  0  0  0  0
   60.2670   28.5360   46.1700 C   0  0  0  0  0  0  0  0  0  0  0  0
   59.5840   27.5660   46.9230 C   0  0  0  0  0  0  0  0  0  0  0  0
   59.1710   26.2880   46.3030 C   0  0  0  0  0  0  0  0  0  0  0  0
   57.9520   26.1060   45.7240 N   0  0  0  0  0  0  0  0  0  0  0  0
   58.0100   24.8320   45.3110 C   0  0  0  0  0  0  0  0  0  0  0  0
   57.0230   24.1070   44.6490 C   0  0  0  0  0  0  0  0  0  0  0  0
   57.3000   22.7600   44.3080 C   0  0  0  0  0  0  0  0  0  0  0  0
   56.2820   21.9420   43.6110 C   0  0  0  0  0  0  0  0  0  0  0  0
   55.5170   22.4940   42.5400 N   0  0  0  0  0  0  0  0  0  0  0  0
   56.0780   20.7470   43.9590 O   0  0  0  0  0  0  0  0  0  0  0  0
   58.5650   22.2020   44.6470 C   0  0  0  0  0  0  0  0  0  0  0  0
   59.5340   22.9730   45.3150 C   0  0  0  0  0  0  0  0  0  0  0  0
   59.2120   24.2880   45.6310 C   0  0  0  0  0  0  0  0  0  0  0  0
   59.9740   25.1900   46.2660 N   0  0  0  0  0  0  0  0  0  0  0  0
   59.3040   27.8270   48.2760 C   0  0  0  0  0  0  0  0  0  0  0  0
   59.7020   29.0300   48.8630 C   0  0  0  0  0  0  0  0  0  0  0  0
   63.2176   33.2010   48.8325 H   0  0  0  0  0  0  0  0  0  0  0  0
   63.6645   32.2886   47.3511 H   0  0  0  0  0  0  0  0  0  0  0  0
   63.7199   34.0841   47.3511 H   0  0  0  0  0  0  0  0  0  0  0  0
   61.8230   34.9610   45.9720 H   0  0  0  0  0  0  0  0  0  0  0  0
   56.3054   32.8420   46.5363 H   0  0  0  0  0  0  0  0  0  0  0  0
   61.8149   31.2241   49.1191 H   0  0  0  0  0  0  0  0  0  0  0  0
   60.0932   31.5357   49.5537 H   0  0  0  0  0  0  0  0  0  0  0  0
   61.1897   30.4969   46.1565 H   0  0  0  0  0  0  0  0  0  0  0  0
   60.4927   28.3455   45.1104 H   0  0  0  0  0  0  0  0  0  0  0  0
   56.0558   24.5668   44.3979 H   0  0  0  0  0  0  0  0  0  0  0  0
   55.9780   22.8160   41.6600 H   0  0  0  0  0  0  0  0  0  0  0  0
   58.7872   21.1573   44.3840 H   0  0  0  0  0  0  0  0  0  0  0  0
   60.5143   22.5492   45.5786 H   0  0  0  0  0  0  0  0  0  0  0  0
   58.7674   27.0779   48.8767 H   0  0  0  0  0  0  0  0  0  0  0  0
   59.4755   29.2229   49.9220 H   0  0  0  0  0  0  0  0  0  0  0  0
  1  2  1  0
  2  3  1  0
  3  4  1  0
  4  5  1  0
  5  6  2  0
  5  7  1  0
  7  8  1  0
  8  9  2  0
  9 10  1  0
 10 11  1  0
 11 12  1  0
 12 13  1  0
 13 14  2  0
 14 15  1  0
 15 16  2  0
 16 17  1  0
 17 18  2  0
 18 19  1  0
 19 20  2  0
 20 21  1  0
 21 22  1  0
 22 23  1  0
 22 24  2  0
 21 25  2  0
 25 26  1  0
 26 27  2  0
 27 28  1  0
 16 29  1  0
 29 30  2  0
 11  2  2  0
 30 13  1  0
 10  4  2  0
 28 17  1  0
 27 19  1  0
  1 31  1  0
  1 32  1  0
  1 33  1  0
  3 34  1  0
  8 35  1  0
 12 36  1  0
 12 37  1  0
 14 38  1  0
 15 39  1  0
 20 40  1  0
 23 41  1  0
 25 42  1  0
 26 43  1  0
 29 44  1  0
 30 45  1  0
M  CHG  3   7  -1  23  -1  28  -1
M  END
>  <UniqueID>  (6) 
6

>  <SMILES>  (6) 
Cc1[nH]c2c(=O)[n-]cnc2c1Cc1ccc(-c2nc3cc(C([NH-])=O)ccc3[n-]2)cc1

>  <Energy>  (6) 
121.24310966452765

>  <Genealogy>  (6) 
Cc1[nH]c2c(=O)[n-]cnc2c1Cc1ccc(-c2nc3cc(C([NH-])=O)ccc3[n-]2)cc1 (protonated)
Cc1[nH]c2c(=O)[n-]cnc2c1Cc1ccc(-c2nc3cc(C([NH-])=O)ccc3[n-]2)cc1 (3D coordinates assigned)
Cc1[nH]c2c(=O)[n-]cnc2c1Cc1ccc(-c2nc3cc(C([NH-])=O)ccc3[n-]2)cc1 (optimized conformer: 121.24310966452765 kcal/mol)

>  <smiles>  (6) 
Cc1[nH]c2c(=O)[nH]cnc2c1Cc1ccc(-c2nc3cc(C(N)=O)ccc3[nH]2)cc1

>  <score_type>  (6) 
oracle

>  <origin>  (6) 
adg

>  <m_score__min__energy>  (6) 
-12.69

>  <m_primary>  (6) 
energy

$$$$
6:0
     RDKit          3D

 34 36  0  0  0  0  0  0  0  0999 V2000
   57.7900   31.6220   41.9030 O   0  0  0  0  0  0  0  0  0  0  0  0
   57.4240   31.7830   43.0990 C   0  0  0  0  0  0  0  0  0  0  0  0
   57.4900   33.0750   43.7160 N   0  0  0  0  0  0  0  0  0  0  0  0
   58.0490   33.3840   45.0010 C   0  0  0  0  0  0  0  0  0  0  0  0
   59.1060   34.3040   45.0700 C   0  0  0  0  0  0  0  0  0  0  0  0
   59.6900   34.6200   46.3010 C   0  0  0  0  0  0  0  0  0  0  0  0
   59.2340   34.0050   47.4690 C   0  0  0  0  0  0  0  0  0  0  0  0
   58.1990   33.0680   47.4080 C   0  0  0  0  0  0  0  0  0  0  0  0
   57.6110   32.7510   46.1800 C   0  0  0  0  0  0  0  0  0  0  0  0
   56.9770   30.6240   43.8820 C   0  0  0  0  0  0  0  0  0  0  0  0
   55.6560   30.2570   44.1230 C   0  0  0  0  0  0  0  0  0  0  0  0
   55.5030   29.1380   44.8810 N   0  0  0  0  0  0  0  0  0  0  0  0
   56.6900   28.6090   45.2450 C   0  0  0  0  0  0  0  0  0  0  0  0
   56.7660   27.5350   45.9760 N   0  0  0  0  0  0  0  0  0  0  0  0
   56.0470   26.2990   45.8070 C   0  0  0  0  0  0  0  0  0  0  0  0
   54.8010   26.2540   45.9890 O   0  0  0  0  0  0  0  0  0  0  0  0
   56.7830   25.0690   45.4150 C   0  0  0  0  0  0  0  0  0  0  0  0
   58.1390   24.9150   45.7720 C   0  0  0  0  0  0  0  0  0  0  0  0
   58.8450   23.7650   45.4100 C   0  0  0  0  0  0  0  0  0  0  0  0
   60.1500   23.6370   45.7590 F   0  0  0  0  0  0  0  0  0  0  0  0
   58.2120   22.7510   44.6880 C   0  0  0  0  0  0  0  0  0  0  0  0
   58.8980   21.6350   44.3370 F   0  0  0  0  0  0  0  0  0  0  0  0
   56.8710   22.8870   44.3270 C   0  0  0  0  0  0  0  0  0  0  0  0
   56.1550   24.0360   44.6830 C   0  0  0  0  0  0  0  0  0  0  0  0
   54.8540   24.1290   44.3080 F   0  0  0  0  0  0  0  0  0  0  0  0
   57.9860   29.5100   44.6410 S   0  0  0  0  0  0  0  0  0  0  0  0
   59.4777   34.7797   44.1504 H   0  0  0  0  0  0  0  0  0  0  0  0
   60.5087   35.3531   46.3492 H   0  0  0  0  0  0  0  0  0  0  0  0
   59.6898   34.2583   48.4376 H   0  0  0  0  0  0  0  0  0  0  0  0
   57.8463   32.5790   48.3280 H   0  0  0  0  0  0  0  0  0  0  0  0
   56.8039   32.0050   46.1347 H   0  0  0  0  0  0  0  0  0  0  0  0
   54.8016   30.8280   43.7306 H   0  0  0  0  0  0  0  0  0  0  0  0
   58.6457   25.7083   46.3411 H   0  0  0  0  0  0  0  0  0  0  0  0
   56.3736   22.0867   43.7594 H   0  0  0  0  0  0  0  0  0  0  0  0
  1  2  2  0
  2  3  1  0
  3  4  1  0
  4  5  2  0
  5  6  1  0
  6  7  2  0
  7  8  1  0
  8  9  2  0
  2 10  1  0
 10 11  2  0
 11 12  1  0
 12 13  1  0
 13 14  2  3
 14 15  1  0
 15 16  2  0
 15 17  1  0
 17 18  2  0
 18 19  1  0
 19 20  1  0
 19 21  2  0
 21 22  1  0
 21 23  1  0
 23 24  2  0
 24 25  1  0
 13 26  1  0
  9  4  1  0
 26 10  1  0
 24 17  1  0
  5 27  1  0
  6 28  1  0
  7 29  1  0
  8 30  1  0
  9 31  1  0
 11 32  1  0
 18 33  1  0
 23 34  1  0
M  CHG  2   3  -1  12  -1
M  END
>  <UniqueID>  (7) 
7

>  <SMILES>  (7) 
O=C([N-]c1ccccc1)c1c[n-]c(=NC(=O)c2cc(F)c(F)cc2F)s1

>  <Energy>  (7) 
75.78703360163303

>  <Genealogy>  (7) 
O=C([N-]c1ccccc1)c1c[n-]c(=NC(=O)c2cc(F)c(F)cc2F)s1 (protonated)
O=C([N-]c1ccccc1)c1c[n-]c(=NC(=O)c2cc(F)c(F)cc2F)s1 (3D coordinates assigned)
O=C([N-]c1ccccc1)c1c[n-]c(=NC(=O)c2cc(F)c(F)cc2F)s1 (optimized conformer: 75.78703360163303 kcal/mol)

>  <smiles>  (7) 
O=C(Nc1ccccc1)c1c[nH]c(=NC(=O)c2cc(F)c(F)cc2F)s1

>  <score_type>  (7) 
oracle

>  <origin>  (7) 
adg

>  <m_score__min__energy>  (7) 
-11.1

>  <m_primary>  (7) 
energy

$$$$
7:0
     RDKit          3D

 52 54  0  0  1  0  0  0  0  0999 V2000
   67.6330   28.6020   51.4720 C   0  0  0  0  0  0  0  0  0  0  0  0
   67.4540   29.8700   52.0500 O   0  0  0  0  0  0  0  0  0  0  0  0
   66.7580   30.8530   51.3700 C   0  0  0  0  0  0  0  0  0  0  0  0
   67.3760   31.9660   50.8210 C   0  0  0  0  0  0  0  0  0  0  0  0
   66.6750   32.9440   50.1440 C   0  0  0  0  0  0  0  0  0  0  0  0
   65.3170   32.7730   50.0280 C   0  0  0  0  0  0  0  0  0  0  0  0
   64.4740   33.7160   49.3370 N   0  0  0  0  0  0  0  0  0  0  0  0
   63.5610   33.2540   48.5110 C   0  0  0  0  0  0  0  0  0  0  0  0
   62.3240   33.7890   48.2310 C   0  0  0  0  0  0  0  0  0  0  0  0
   61.7060   32.9550   47.2970 C   0  0  0  0  0  0  0  0  0  0  0  0
   60.3790   33.1460   46.7240 C   0  0  0  0  0  0  0  0  0  0  0  0
   59.8000   34.3880   46.7400 C   0  0  0  0  0  0  0  0  0  0  0  0
   58.5490   34.5180   46.1910 C   0  0  0  0  0  0  0  0  0  0  0  0
   57.8570   33.4610   45.6280 C   0  0  0  0  0  0  0  0  0  0  0  0
   58.4960   32.2200   45.6390 C   0  0  0  0  0  0  0  0  0  0  0  0
   57.7640   31.1090   45.0430 C   0  0  0  0  0  0  0  0  0  0  0  0
   57.0970   30.3470   45.7880 O   0  0  0  0  0  0  0  0  0  0  0  0
   57.7570   30.8330   43.6580 N   0  0  0  0  0  0  0  0  0  0  0  0
   56.9970   29.7090   43.1860 C   0  0  0  0  0  0  0  0  0  0  0  0
   55.5530   29.7170   43.5830 C   0  0  0  0  0  0  0  0  0  0  0  0
   57.6960   28.4700   43.7680 C   0  0  0  0  0  0  0  0  0  0  0  0
   59.7380   32.0480   46.1750 C   0  0  0  0  0  0  0  0  0  0  0  0
   62.5850   31.9490   47.0470 N   0  0  0  0  0  0  0  0  0  0  0  0
   63.6800   32.1250   47.7630 N   0  0  0  0  0  0  0  0  0  0  0  0
   64.6600   31.6670   50.5660 C   0  0  0  0  0  0  0  0  0  0  0  0
   65.3920   30.6890   51.2490 C   0  0  0  0  0  0  0  0  0  0  0  0
   64.7260   29.5760   51.7910 O   0  0  0  0  0  0  0  0  0  0  0  0
   63.3200   29.5580   51.6510 C   0  0  0  0  0  0  0  0  0  0  0  0
   67.7394   27.8486   52.2664 H   0  0  0  0  0  0  0  0  0  0  0  0
   66.7606   28.3568   50.8485 H   0  0  0  0  0  0  0  0  0  0  0  0
   68.5392   28.6079   50.8485 H   0  0  0  0  0  0  0  0  0  0  0  0
   68.4654   32.0739   50.9288 H   0  0  0  0  0  0  0  0  0  0  0  0
   67.1818   33.8216   49.7163 H   0  0  0  0  0  0  0  0  0  0  0  0
   61.8995   34.7067   48.6642 H   0  0  0  0  0  0  0  0  0  0  0  0
   60.3207   35.2521   47.1784 H   0  0  0  0  0  0  0  0  0  0  0  0
   58.0740   35.5101   46.1991 H   0  0  0  0  0  0  0  0  0  0  0  0
   56.8547   33.5916   45.1939 H   0  0  0  0  0  0  0  0  0  0  0  0
   58.2910   31.4300   42.9940 H   0  0  0  0  0  0  0  0  0  0  0  0
   56.9748   29.7297   42.0864 H   0  0  0  0  0  0  0  0  0  0  0  0
   55.4744   29.7174   44.6802 H   0  0  0  0  0  0  0  0  0  0  0  0
   55.0670   30.6179   43.1802 H   0  0  0  0  0  0  0  0  0  0  0  0
   55.0570   28.8216   43.1802 H   0  0  0  0  0  0  0  0  0  0  0  0
   57.6698   28.5165   44.8667 H   0  0  0  0  0  0  0  0  0  0  0  0
   57.1770   27.5621   43.4269 H   0  0  0  0  0  0  0  0  0  0  0  0
   58.7415   28.4447   43.4269 H   0  0  0  0  0  0  0  0  0  0  0  0
   60.2200   31.0592   46.1714 H   0  0  0  0  0  0  0  0  0  0  0  0
   62.4180   31.1460   46.3780 H   0  0  0  0  0  0  0  0  0  0  0  0
   64.4980   31.4750   47.7360 H   0  0  0  0  0  0  0  0  0  0  0  0
   63.5706   31.5636   50.4540 H   0  0  0  0  0  0  0  0  0  0  0  0
   62.8524   29.5520   52.6467 H   0  0  0  0  0  0  0  0  0  0  0  0
   62.9950   30.4521   51.0987 H   0  0  0  0  0  0  0  0  0  0  0  0
   63.0180   28.6559   51.0987 H   0  0  0  0  0  0  0  0  0  0  0  0
  1  2  1  0
  2  3  1  0
  3  4  2  0
  4  5  1  0
  5  6  2  0
  6  7  1  0
  7  8  2  0
  8  9  1  0
  9 10  2  0
 10 11  1  0
 11 12  2  0
 12 13  1  0
 13 14  2  0
 14 15  1  0
 15 16  1  0
 16 17  2  0
 16 18  1  0
 18 19  1  0
 19 20  1  0
 19 21  1  0
 15 22  2  0
 10 23  1  0
 23 24  1  0
  6 25  1  0
 25 26  2  0
 26 27  1  0
 27 28  1  0
 26  3  1  0
 24  8  1  0
 22 11  1  0
  1 29  1  0
  1 30  1  0
  1 31  1  0
  4 32  1  0
  5 33  1  0
  9 34  1  0
 12 35  1  0
 13 36  1  0
 14 37  1  0
 18 38  1  0
 19 39  1  0
 20 40  1  0
 20 41  1  0
 20 42  1  0
 21 43  1  0
 21 44  1  0
 21 45  1  0
 22 46  1  0
 23 47  1  0
 24 48  1  0
 25 49  1  0
 28 50  1  0
 28 51  1  0
 28 52  1  0
M  END
>  <smiles>  (8) 
COc1ccc(N=c2cc(-c3cccc(C(=O)NC(C)C)c3)[nH][nH]2)cc1OC

>  <score_type>  (8) 
oracle

>  <origin>  (8) 
adg

>  <m_score__min__energy>  (8) 
-8.8399999999999999

>  <m_primary>  (8) 
energy

$$$$
8:0
     RDKit          3D

 39 40  0  0  0  0  0  0  0  0999 V2000
   54.8240   26.2920   45.9990 N   0  0  0  0  0  0  0  0  0  0  0  0
   56.4010   25.6440   46.2790 S   0  0  0  0  0  0  0  0  0  0  0  0
   56.3710   24.7610   47.4950 O   0  0  0  0  0  0  0  0  0  0  0  0
   56.8090   24.8310   45.0820 O   0  0  0  0  0  0  0  0  0  0  0  0
   57.5480   26.9540   46.5360 C   0  0  0  0  0  0  0  0  0  0  0  0
   57.3720   28.1880   45.8950 C   0  0  0  0  0  0  0  0  0  0  0  0
   58.2900   29.2240   46.0950 C   0  0  0  0  0  0  0  0  0  0  0  0
   59.4070   29.0310   46.9280 C   0  0  0  0  0  0  0  0  0  0  0  0
   60.3490   30.0890   47.1740 N   0  0  0  0  0  0  0  0  0  0  0  0
   60.9510   30.3480   48.4530 C   0  0  0  0  0  0  0  0  0  0  0  0
   60.4550   29.8620   49.5050 O   0  0  0  0  0  0  0  0  0  0  0  0
   62.1560   31.2330   48.5530 C   0  0  0  0  0  0  0  0  0  0  0  0
   62.4290   31.8710   47.2640 N   0  0  0  0  0  0  0  0  0  0  0  0
   61.9120   33.5340   47.2670 S   0  0  0  0  0  0  0  0  0  0  0  0
   62.8190   34.3350   46.3750 O   0  0  0  0  0  0  0  0  0  0  0  0
   62.0050   34.0640   48.6700 O   0  0  0  0  0  0  0  0  0  0  0  0
   60.2340   33.6690   46.7130 C   0  0  0  0  0  0  0  0  0  0  0  0
   59.9960   33.9070   45.3490 C   0  0  0  0  0  0  0  0  0  0  0  0
   58.6990   34.1040   44.8770 C   0  0  0  0  0  0  0  0  0  0  0  0
   57.6200   34.0650   45.7590 C   0  0  0  0  0  0  0  0  0  0  0  0
   57.8350   33.8070   47.1140 C   0  0  0  0  0  0  0  0  0  0  0  0
   59.1330   33.5860   47.6050 C   0  0  0  0  0  0  0  0  0  0  0  0
   59.3030   33.2660   48.9950 N   0  0  0  0  0  0  0  0  0  0  0  0
   58.8750   32.1860   49.4490 O   0  0  0  0  0  0  0  0  0  0  0  0
   59.7120   34.2410   49.8770 O   0  0  0  0  0  0  0  0  0  0  0  0
   59.5690   27.8000   47.5800 C   0  0  0  0  0  0  0  0  0  0  0  0
   58.6520   26.7650   47.3770 C   0  0  0  0  0  0  0  0  0  0  0  0
   54.7030   27.0960   46.6550 H   0  0  0  0  0  0  0  0  0  0  0  0
   56.5081   28.3423   45.2318 H   0  0  0  0  0  0  0  0  0  0  0  0
   58.1379   30.1939   45.5988 H   0  0  0  0  0  0  0  0  0  0  0  0
   60.5680   30.7430   46.3890 H   0  0  0  0  0  0  0  0  0  0  0  0
   61.9735   32.0096   49.3104 H   0  0  0  0  0  0  0  0  0  0  0  0
   63.0246   30.6220   48.8398 H   0  0  0  0  0  0  0  0  0  0  0  0
   60.8416   33.9382   44.6462 H   0  0  0  0  0  0  0  0  0  0  0  0
   58.5267   34.2905   43.8067 H   0  0  0  0  0  0  0  0  0  0  0  0
   56.5992   34.2375   45.3872 H   0  0  0  0  0  0  0  0  0  0  0  0
   56.9794   33.7764   47.8046 H   0  0  0  0  0  0  0  0  0  0  0  0
   60.4236   27.6480   48.2557 H   0  0  0  0  0  0  0  0  0  0  0  0
   58.7979   25.7977   47.8799 H   0  0  0  0  0  0  0  0  0  0  0  0
  1  2  1  0
  2  3  2  0
  2  4  2  0
  2  5  1  0
  5  6  2  0
  6  7  1  0
  7  8  2  0
  8  9  1  0
  9 10  1  0
 10 11  2  0
 10 12  1  0
 12 13  1  0
 13 14  1  0
 14 15  2  0
 14 16  2  0
 14 17  1  0
 17 18  2  0
 18 19  1  0
 19 20  2  0
 20 21  1  0
 21 22  2  0
 22 23  1  0
 23 24  2  0
 23 25  1  0
  8 26  1  0
 26 27  2  0
 27  5  1  0
 22 17  1  0
  1 28  1  0
  6 29  1  0
  7 30  1  0
  9 31  1  0
 12 32  1  0
 12 33  1  0
 18 34  1  0
 19 35  1  0
 20 36  1  0
 21 37  1  0
 26 38  1  0
 27 39  1  0
M  CHG  4   1  -1  13  -1  23   1  25  -1
M  END
>  <UniqueID>  (9) 
8

>  <SMILES>  (9) 
[NH-]S(=O)(=O)c1ccc(NC(=O)C[N-]S(=O)(=O)c2ccccc2[N+](=O)[O-])cc1

>  <Energy>  (9) 
47.19317157044993

>  <Genealogy>  (9) 
[NH-]S(=O)(=O)c1ccc(NC(=O)C[N-]S(=O)(=O)c2ccccc2[N+](=O)[O-])cc1 (protonated)
[NH-]S(=O)(=O)c1ccc(NC(=O)C[N-]S(=O)(=O)c2ccccc2[N+](=O)[O-])cc1 (3D coordinates assigned)
[NH-]S(=O)(=O)c1ccc(NC(=O)C[N-]S(=O)(=O)c2ccccc2[N+](=O)[O-])cc1 (optimized conformer: 47.19317157044993 kcal/mol)

>  <smiles>  (9) 
NS(=O)(=O)c1ccc(NC(=O)CNS(=O)(=O)c2ccccc2[N+](=O)[O-])cc1

>  <score_type>  (9) 
oracle

>  <origin>  (9) 
adg

>  <m_score__min__energy>  (9) 
-11.380000000000001

>  <m_primary>  (9) 
energy

$$$$
9:0
     RDKit          3D

 38 40  0  0  0  0  0  0  0  0999 V2000
   54.7380   25.2470   45.6300 C   0  0  0  0  0  0  0  0  0  0  0  0
   55.2440   26.5440   45.9310 O   0  0  0  0  0  0  0  0  0  0  0  0
   56.5740   26.9490   45.7330 C   0  0  0  0  0  0  0  0  0  0  0  0
   57.6570   26.1150   46.0780 C   0  0  0  0  0  0  0  0  0  0  0  0
   58.9710   26.5430   45.8770 C   0  0  0  0  0  0  0  0  0  0  0  0
   59.2200   27.8000   45.3310 C   0  0  0  0  0  0  0  0  0  0  0  0
   58.1590   28.6370   44.9830 C   0  0  0  0  0  0  0  0  0  0  0  0
   56.8250   28.2240   45.1820 C   0  0  0  0  0  0  0  0  0  0  0  0
   55.7180   29.0810   44.8270 N   0  0  0  0  0  0  0  0  0  0  0  0
   55.8000   30.1830   43.8680 C   0  0  0  0  0  0  0  0  0  0  0  0
   56.9320   31.1010   44.2190 C   0  0  0  0  0  0  0  0  0  0  0  0
   57.6720   31.8610   43.3400 C   0  0  0  0  0  0  0  0  0  0  0  0
   58.5440   32.5450   44.0440 O   0  0  0  0  0  0  0  0  0  0  0  0
   58.3630   32.2380   45.3130 C   0  0  0  0  0  0  0  0  0  0  0  0
   59.1690   32.8160   46.4130 C   0  0  0  0  0  0  0  0  0  0  0  0
   58.9290   34.1400   46.8270 C   0  0  0  0  0  0  0  0  0  0  0  0
   59.6780   34.7070   47.8620 C   0  0  0  0  0  0  0  0  0  0  0  0
   60.6750   33.9610   48.4960 C   0  0  0  0  0  0  0  0  0  0  0  0
   61.4000   34.5140   49.4990 F   0  0  0  0  0  0  0  0  0  0  0  0
   60.9230   32.6480   48.0940 C   0  0  0  0  0  0  0  0  0  0  0  0
   60.1770   32.0750   47.0590 C   0  0  0  0  0  0  0  0  0  0  0  0
   57.3620   31.3440   45.4690 N   0  0  0  0  0  0  0  0  0  0  0  0
   54.5281   24.7090   46.5662 H   0  0  0  0  0  0  0  0  0  0  0  0
   53.8108   25.3416   45.0457 H   0  0  0  0  0  0  0  0  0  0  0  0
   55.4843   24.6888   45.0457 H   0  0  0  0  0  0  0  0  0  0  0  0
   57.4658   25.1208   46.5082 H   0  0  0  0  0  0  0  0  0  0  0  0
   59.8104   25.8867   46.1502 H   0  0  0  0  0  0  0  0  0  0  0  0
   60.2562   28.1339   45.1736 H   0  0  0  0  0  0  0  0  0  0  0  0
   58.3646   29.6270   44.5499 H   0  0  0  0  0  0  0  0  0  0  0  0
   54.7970   28.9440   45.3010 H   0  0  0  0  0  0  0  0  0  0  0  0
   55.9645   29.7743   42.8601 H   0  0  0  0  0  0  0  0  0  0  0  0
   54.8587   30.7513   43.8976 H   0  0  0  0  0  0  0  0  0  0  0  0
   57.5538   31.8896   42.2467 H   0  0  0  0  0  0  0  0  0  0  0  0
   58.1458   34.7330   46.3320 H   0  0  0  0  0  0  0  0  0  0  0  0
   59.4822   35.7423   48.1780 H   0  0  0  0  0  0  0  0  0  0  0  0
   61.7083   32.0613   48.5931 H   0  0  0  0  0  0  0  0  0  0  0  0
   60.3789   31.0394   46.7479 H   0  0  0  0  0  0  0  0  0  0  0  0
   56.9870   30.9260   46.3480 H   0  0  0  0  0  0  0  0  0  0  0  0
  1  2  1  0
  2  3  1  0
  3  4  2  0
  4  5  1  0
  5  6  2  0
  6  7  1  0
  7  8  2  0
  8  9  1  0
  9 10  1  0
 10 11  1  0
 11 12  2  0
 12 13  1  0
 13 14  1  0
 14 15  1  0
 15 16  2  0
 16 17  1  0
 17 18  2  0
 18 19  1  0
 18 20  1  0
 20 21  2  0
 14 22  2  0
  8  3  1  0
 22 11  1  0
 21 15  1  0
  1 23  1  0
  1 24  1  0
  1 25  1  0
  4 26  1  0
  5 27  1  0
  6 28  1  0
  7 29  1  0
  9 30  1  0
 10 31  1  0
 10 32  1  0
 12 33  1  0
 16 34  1  0
 17 35  1  0
 20 36  1  0
 21 37  1  0
 22 38  1  0
M  CHG  1  22   1
M  END
>  <UniqueID>  (10) 
9

>  <SMILES>  (10) 
COc1ccccc1NCc1coc(-c2ccc(F)cc2)[nH+]1

>  <Energy>  (10) 
71.07728735209348

>  <Genealogy>  (10) 
COc1ccccc1NCc1coc(-c2ccc(F)cc2)[nH+]1 (protonated)
COc1ccccc1NCc1coc(-c2ccc(F)cc2)[nH+]1 (3D coordinates assigned)
COc1ccccc1NCc1coc(-c2ccc(F)cc2)[nH+]1 (optimized conformer: 71.07728735209348 kcal/mol)

>  <smiles>  (10) 
COc1ccccc1NCc1coc(-c2ccc(F)cc2)n1

>  <score_type>  (10) 
oracle

>  <origin>  (10) 
adg

>  <m_score__min__energy>  (10) 
-6.8399999999999999

>  <m_primary>  (10) 
energy

$$$$
10:0
     RDKit          3D

 34 36  0  0  0  0  0  0  0  0999 V2000
   63.3180   32.3440   47.6130 C   0  0  0  0  0  0  0  0  0  0  0  0
   61.8470   32.4840   47.6880 N   0  0  0  0  0  0  0  0  0  0  0  0
   61.2030   33.3400   46.8230 C   0  0  0  0  0  0  0  0  0  0  0  0
   61.8680   34.0250   45.9960 O   0  0  0  0  0  0  0  0  0  0  0  0
   59.8040   33.4860   46.8540 C   0  0  0  0  0  0  0  0  0  0  0  0
   59.1470   34.4550   45.9480 C   0  0  0  0  0  0  0  0  0  0  0  0
   59.6270   35.6150   45.8240 O   0  0  0  0  0  0  0  0  0  0  0  0
   57.9450   34.0770   45.2560 N   0  0  0  0  0  0  0  0  0  0  0  0
   57.7380   32.9550   44.6340 C   0  0  0  0  0  0  0  0  0  0  0  0
   57.2040   31.8530   45.2070 N   0  0  0  0  0  0  0  0  0  0  0  0
   57.1000   30.8290   44.3160 C   0  0  0  0  0  0  0  0  0  0  0  0
   56.5500   29.5220   44.7050 C   0  0  0  0  0  0  0  0  0  0  0  0
   55.1420   29.3470   44.8580 N   0  0  0  0  0  0  0  0  0  0  0  0
   57.3240   28.5490   44.9070 O   0  0  0  0  0  0  0  0  0  0  0  0
   57.5540   31.1200   43.0280 C   0  0  0  0  0  0  0  0  0  0  0  0
   58.0990   32.7120   43.0150 S   0  0  0  0  0  0  0  0  0  0  0  0
   59.0540   32.7290   47.7720 C   0  0  0  0  0  0  0  0  0  0  0  0
   57.6540   32.7720   47.7810 O   0  0  0  0  0  0  0  0  0  0  0  0
   59.7140   31.8890   48.6800 C   0  0  0  0  0  0  0  0  0  0  0  0
   58.9830   31.1520   49.6320 C   0  0  0  0  0  0  0  0  0  0  0  0
   59.6350   30.3160   50.5350 C   0  0  0  0  0  0  0  0  0  0  0  0
   61.0210   30.2000   50.5030 C   0  0  0  0  0  0  0  0  0  0  0  0
   61.7650   30.9180   49.5650 C   0  0  0  0  0  0  0  0  0  0  0  0
   61.1290   31.7740   48.6310 C   0  0  0  0  0  0  0  0  0  0  0  0
   63.7349   32.3043   48.6302 H   0  0  0  0  0  0  0  0  0  0  0  0
   63.5713   31.4177   47.0765 H   0  0  0  0  0  0  0  0  0  0  0  0
   63.7415   33.2059   47.0765 H   0  0  0  0  0  0  0  0  0  0  0  0
   54.5650   28.9450   44.0870 H   0  0  0  0  0  0  0  0  0  0  0  0
   57.5552   30.4295   42.1718 H   0  0  0  0  0  0  0  0  0  0  0  0
   57.0970   33.0420   46.9820 H   0  0  0  0  0  0  0  0  0  0  0  0
   57.8868   31.2376   49.6625 H   0  0  0  0  0  0  0  0  0  0  0  0
   59.0532   29.7465   51.2747 H   0  0  0  0  0  0  0  0  0  0  0  0
   61.5324   29.5402   51.2193 H   0  0  0  0  0  0  0  0  0  0  0  0
   62.8604   30.8181   49.5504 H   0  0  0  0  0  0  0  0  0  0  0  0
  1  2  1  0
  2  3  1  0
  3  4  2  0
  3  5  1  0
  5  6  1  0
  6  7  2  0
  6  8  1  0
  8  9  2  3
  9 10  1  0
 10 11  1  0
 11 12  1  0
 12 13  1  0
 12 14  2  0
 11 15  2  0
 15 16  1  0
  5 17  2  0
 17 18  1  0
 17 19  1  0
 19 20  2  0
 20 21  1  0
 21 22  2  0
 22 23  1  0
 23 24  2  0
 24  2  1  0
 16  9  1  0
 24 19  1  0
  1 25  1  0
  1 26  1  0
  1 27  1  0
 13 28  1  0
 15 29  1  0
 18 30  1  0
 20 31  1  0
 21 32  1  0
 22 33  1  0
 23 34  1  0
M  CHG  2  10  -1  13  -1
M  END
>  <UniqueID>  (11) 
10

>  <SMILES>  (11) 
Cn1c(=O)c(C(=O)N=c2[n-]c(C([NH-])=O)cs2)c(O)c2ccccc21

>  <Energy>  (11) 
85.85288078729742

>  <Genealogy>  (11) 
Cn1c(=O)c(C(=O)N=c2[n-]c(C([NH-])=O)cs2)c(O)c2ccccc21 (protonated)
Cn1c(=O)c(C(=O)N=c2[n-]c(C([NH-])=O)cs2)c(O)c2ccccc21 (3D coordinates assigned)
Cn1c(=O)c(C(=O)N=c2[n-]c(C([NH-])=O)cs2)c(O)c2ccccc21 (optimized conformer: 85.85288078729742 kcal/mol)

>  <smiles>  (11) 
Cn1c(=O)c(C(=O)N=c2[nH]c(C(N)=O)cs2)c(O)c2ccccc21

>  <score_type>  (11) 
oracle

>  <origin>  (11) 
adg

>  <m_score__min__energy>  (11) 
-11.9

>  <m_primary>  (11) 
energy

$$$$
11:0
     RDKit          3D

 49 52  0  0  0  0  0  0  0  0999 V2000
   55.6050   26.2780   45.9280 O   0  0  0  0  0  0  0  0  0  0  0  0
   56.8150   26.5190   45.6580 C   0  0  0  0  0  0  0  0  0  0  0  0
   57.6280   25.5020   45.0470 N   0  0  0  0  0  0  0  0  0  0  0  0
   57.1400   24.1860   44.7380 C   0  0  0  0  0  0  0  0  0  0  0  0
   57.0130   23.7850   43.3960 C   0  0  0  0  0  0  0  0  0  0  0  0
   56.5870   22.4950   43.0770 C   0  0  0  0  0  0  0  0  0  0  0  0
   56.2980   21.5850   44.0910 C   0  0  0  0  0  0  0  0  0  0  0  0
   56.4300   21.9600   45.4290 C   0  0  0  0  0  0  0  0  0  0  0  0
   56.8390   23.2640   45.7740 C   0  0  0  0  0  0  0  0  0  0  0  0
   56.9840   23.6530   47.2310 C   0  0  0  0  0  0  0  0  0  0  0  0
   57.0940   22.5200   48.0170 F   0  0  0  0  0  0  0  0  0  0  0  0
   58.1120   24.4280   47.4410 F   0  0  0  0  0  0  0  0  0  0  0  0
   55.8740   24.3750   47.6250 F   0  0  0  0  0  0  0  0  0  0  0  0
   57.3720   27.8520   45.9860 C   0  0  0  0  0  0  0  0  0  0  0  0
   58.3260   28.0120   47.0090 C   0  0  0  0  0  0  0  0  0  0  0  0
   58.8400   29.2760   47.3120 C   0  0  0  0  0  0  0  0  0  0  0  0
   58.4030   30.4020   46.6020 C   0  0  0  0  0  0  0  0  0  0  0  0
   58.9020   31.6790   46.8840 C   0  0  0  0  0  0  0  0  0  0  0  0
   58.4580   32.7900   46.1500 C   0  0  0  0  0  0  0  0  0  0  0  0
   59.0010   34.1640   46.4740 C   0  0  0  0  0  0  0  0  0  0  0  0
   60.4250   34.2530   46.1460 N   0  0  0  0  0  0  0  0  0  0  0  0
   61.4920   33.8650   47.0330 C   0  0  0  0  0  0  0  0  0  0  0  0
   62.7350   33.4990   46.4910 C   0  0  0  0  0  0  0  0  0  0  0  0
   63.7920   33.1230   47.3250 C   0  0  0  0  0  0  0  0  0  0  0  0
   63.6170   33.1060   48.7130 C   0  0  0  0  0  0  0  0  0  0  0  0
   64.9440   32.6350   49.7590 Cl  0  0  0  0  0  0  0  0  0  0  0  0
   62.3840   33.4620   49.2640 C   0  0  0  0  0  0  0  0  0  0  0  0
   61.3250   33.8380   48.4320 C   0  0  0  0  0  0  0  0  0  0  0  0
   57.4780   32.5940   45.1560 C   0  0  0  0  0  0  0  0  0  0  0  0
   57.0280   33.5670   44.4930 O   0  0  0  0  0  0  0  0  0  0  0  0
   57.0040   31.3450   44.9010 N   0  0  0  0  0  0  0  0  0  0  0  0
   57.4380   30.2550   45.5860 C   0  0  0  0  0  0  0  0  0  0  0  0
   56.9250   28.9890   45.2860 C   0  0  0  0  0  0  0  0  0  0  0  0
   58.6270   25.7100   44.8260 H   0  0  0  0  0  0  0  0  0  0  0  0
   57.2517   24.4948   42.5903 H   0  0  0  0  0  0  0  0  0  0  0  0
   56.4794   22.1966   42.0237 H   0  0  0  0  0  0  0  0  0  0  0  0
   55.9648   20.5680   43.8367 H   0  0  0  0  0  0  0  0  0  0  0  0
   56.2125   21.2301   46.2227 H   0  0  0  0  0  0  0  0  0  0  0  0
   58.6701   27.1339   47.5752 H   0  0  0  0  0  0  0  0  0  0  0  0
   59.5893   29.3869   48.1097 H   0  0  0  0  0  0  0  0  0  0  0  0
   59.6451   31.8124   47.6840 H   0  0  0  0  0  0  0  0  0  0  0  0
   58.4493   34.9161   45.8909 H   0  0  0  0  0  0  0  0  0  0  0  0
   58.8762   34.3464   47.5516 H   0  0  0  0  0  0  0  0  0  0  0  0
   60.6750   34.6620   45.2160 H   0  0  0  0  0  0  0  0  0  0  0  0
   62.8780   33.5083   45.4004 H   0  0  0  0  0  0  0  0  0  0  0  0
   64.7619   32.8403   46.8897 H   0  0  0  0  0  0  0  0  0  0  0  0
   62.2457   33.4466   50.3552 H   0  0  0  0  0  0  0  0  0  0  0  0
   60.3556   34.1144   48.8722 H   0  0  0  0  0  0  0  0  0  0  0  0
   56.1663   28.8806   44.4969 H   0  0  0  0  0  0  0  0  0  0  0  0
  1  2  2  0
  2  3  1  0
  3  4  1  0
  4  5  2  0
  5  6  1  0
  6  7  2  0
  7  8  1  0
  8  9  2  0
  9 10  1  0
 10 11  1  0
 10 12  1  0
 10 13  1  0
  2 14  1  0
 14 15  2  0
 15 16  1  0
 16 17  2  0
 17 18  1  0
 18 19  2  0
 19 20  1  0
 20 21  1  0
 21 22  1  0
 22 23  2  0
 23 24  1  0
 24 25  2  0
 25 26  1  0
 25 27  1  0
 27 28  2  0
 19 29  1  0
 29 30  2  0
 29 31  1  0
 31 32  1  0
 32 33  2  0
  9  4  1  0
 33 14  1  0
 32 17  1  0
 28 22  1  0
  3 34  1  0
  5 35  1  0
  6 36  1  0
  7 37  1  0
  8 38  1  0
 15 39  1  0
 16 40  1  0
 18 41  1  0
 20 42  1  0
 20 43  1  0
 21 44  1  0
 23 45  1  0
 24 46  1  0
 27 47  1  0
 28 48  1  0
 33 49  1  0
M  CHG  1  31  -1
M  END
>  <UniqueID>  (12) 
11

>  <SMILES>  (12) 
O=C(Nc1ccccc1C(F)(F)F)c1ccc2cc(CNc3ccc(Cl)cc3)c(=O)[n-]c2c1

>  <Energy>  (12) 
66.77441079922811

>  <Genealogy>  (12) 
O=C(Nc1ccccc1C(F)(F)F)c1ccc2cc(CNc3ccc(Cl)cc3)c(=O)[n-]c2c1 (protonated)
O=C(Nc1ccccc1C(F)(F)F)c1ccc2cc(CNc3ccc(Cl)cc3)c(=O)[n-]c2c1 (3D coordinates assigned)
O=C(Nc1ccccc1C(F)(F)F)c1ccc2cc(CNc3ccc(Cl)cc3)c(=O)[n-]c2c1 (optimized conformer: 66.77441079922811 kcal/mol)

>  <smiles>  (12) 
O=C(Nc1ccccc1C(F)(F)F)c1ccc2cc(CNc3ccc(Cl)cc3)c(=O)[nH]c2c1

>  <score_type>  (12) 
oracle

>  <origin>  (12) 
adg

>  <m_score__min__energy>  (12) 
-10.380000000000001

>  <m_primary>  (12) 
energy

$$$$
12:0
     RDKit          3D

 47 49  0  0  0  0  0  0  0  0999 V2000
   63.0960   33.5330   49.3180 C   0  0  0  0  0  0  0  0  0  0  0  0
   61.7370   33.9540   49.3950 O   0  0  0  0  0  0  0  0  0  0  0  0
   60.7940   33.8110   48.3640 C   0  0  0  0  0  0  0  0  0  0  0  0
   61.1300   34.0840   47.0230 C   0  0  0  0  0  0  0  0  0  0  0  0
   60.1920   33.9090   46.0060 C   0  0  0  0  0  0  0  0  0  0  0  0
   58.9020   33.4620   46.3070 C   0  0  0  0  0  0  0  0  0  0  0  0
   57.7020   33.2500   45.0350 S   0  0  0  0  0  0  0  0  0  0  0  0
   58.3800   33.3700   43.6990 O   0  0  0  0  0  0  0  0  0  0  0  0
   56.6400   34.3110   45.1360 O   0  0  0  0  0  0  0  0  0  0  0  0
   56.9750   31.6740   45.1680 N   0  0  0  0  0  0  0  0  0  0  0  0
   56.9080   31.0080   43.8640 C   0  0  0  0  0  0  0  0  0  0  0  0
   56.0680   29.7320   43.9400 C   0  0  0  0  0  0  0  0  0  0  0  0
   56.6930   28.6050   45.2420 S   0  0  0  0  0  0  0  0  0  0  0  0
   58.4790   28.8350   44.9070 C   0  0  0  0  0  0  0  0  0  0  0  0
   59.2040   29.2810   46.1470 C   0  0  0  0  0  0  0  0  0  0  0  0
   58.7170   28.9240   47.4150 C   0  0  0  0  0  0  0  0  0  0  0  0
   59.3880   29.3360   48.5700 C   0  0  0  0  0  0  0  0  0  0  0  0
   60.5490   30.1080   48.4680 C   0  0  0  0  0  0  0  0  0  0  0  0
   61.0400   30.4700   47.2100 C   0  0  0  0  0  0  0  0  0  0  0  0
   62.1650   31.2190   47.1120 F   0  0  0  0  0  0  0  0  0  0  0  0
   60.3700   30.0600   46.0520 C   0  0  0  0  0  0  0  0  0  0  0  0
   58.5560   33.1900   47.6340 C   0  0  0  0  0  0  0  0  0  0  0  0
   59.4880   33.3660   48.6740 C   0  0  0  0  0  0  0  0  0  0  0  0
   59.0750   33.0830   50.0720 C   0  0  0  0  0  0  0  0  0  0  0  0
   59.4270   33.8250   51.1980 C   0  0  0  0  0  0  0  0  0  0  0  0
   58.9240   33.3010   52.3960 C   0  0  0  0  0  0  0  0  0  0  0  0
   58.1790   32.1430   52.2290 C   0  0  0  0  0  0  0  0  0  0  0  0
   58.1490   31.7720   50.5900 S   0  0  0  0  0  0  0  0  0  0  0  0
   63.4993   33.4081   50.3338 H   0  0  0  0  0  0  0  0  0  0  0  0
   63.1532   32.5750   48.7804 H   0  0  0  0  0  0  0  0  0  0  0  0
   63.6847   34.2909   48.7804 H   0  0  0  0  0  0  0  0  0  0  0  0
   62.1416   34.4385   46.7761 H   0  0  0  0  0  0  0  0  0  0  0  0
   60.4682   34.1235   44.9631 H   0  0  0  0  0  0  0  0  0  0  0  0
   56.4544   31.6937   43.1332 H   0  0  0  0  0  0  0  0  0  0  0  0
   57.9289   30.7365   43.5574 H   0  0  0  0  0  0  0  0  0  0  0  0
   55.0261   30.0012   44.1681 H   0  0  0  0  0  0  0  0  0  0  0  0
   56.1314   29.2147   42.9713 H   0  0  0  0  0  0  0  0  0  0  0  0
   58.9067   27.8818   44.5629 H   0  0  0  0  0  0  0  0  0  0  0  0
   58.5950   29.6091   44.1342 H   0  0  0  0  0  0  0  0  0  0  0  0
   57.8033   28.3174   47.4996 H   0  0  0  0  0  0  0  0  0  0  0  0
   59.0020   29.0524   49.5603 H   0  0  0  0  0  0  0  0  0  0  0  0
   61.0764   30.4307   49.3778 H   0  0  0  0  0  0  0  0  0  0  0  0
   60.7573   30.3484   45.0637 H   0  0  0  0  0  0  0  0  0  0  0  0
   57.5420   32.8337   47.8684 H   0  0  0  0  0  0  0  0  0  0  0  0
   60.0417   34.7360   51.1506 H   0  0  0  0  0  0  0  0  0  0  0  0
   59.1031   33.7646   53.3773 H   0  0  0  0  0  0  0  0  0  0  0  0
   57.6923   31.5674   53.0301 H   0  0  0  0  0  0  0  0  0  0  0  0
  1  2  1  0
  2  3  1  0
  3  4  2  0
  4  5  1  0
  5  6  2  0
  6  7  1  0
  7  8  2  0
  7  9  2  0
  7 10  1  0
 10 11  1  0
 11 12  1  0
 12 13  1  0
 13 14  1  0
 14 15  1  0
 15 16  2  0
 16 17  1  0
 17 18  2  0
 18 19  1  0
 19 20  1  0
 19 21  2  0
  6 22  1  0
 22 23  2  0
 23 24  1  0
 24 25  2  0
 25 26  1  0
 26 27  2  0
 27 28  1  0
 23  3  1  0
 28 24  1  0
 21 15  1  0
  1 29  1  0
  1 30  1  0
  1 31  1  0
  4 32  1  0
  5 33  1  0
 11 34  1  0
 11 35  1  0
 12 36  1  0
 12 37  1  0
 14 38  1  0
 14 39  1  0
 16 40  1  0
 17 41  1  0
 18 42  1  0
 21 43  1  0
 22 44  1  0
 25 45  1  0
 26 46  1  0
 27 47  1  0
M  CHG  1  10  -1
M  END
>  <UniqueID>  (13) 
12

>  <SMILES>  (13) 
COc1ccc(S(=O)(=O)[N-]CCSCc2cccc(F)c2)cc1-c1cccs1

>  <Energy>  (13) 
73.89660240390592

>  <Genealogy>  (13) 
COc1ccc(S(=O)(=O)[N-]CCSCc2cccc(F)c2)cc1-c1cccs1 (protonated)
COc1ccc(S(=O)(=O)[N-]CCSCc2cccc(F)c2)cc1-c1cccs1 (3D coordinates assigned)
COc1ccc(S(=O)(=O)[N-]CCSCc2cccc(F)c2)cc1-c1cccs1 (optimized conformer: 73.89660240390592 kcal/mol)

>  <smiles>  (13) 
COc1ccc(S(=O)(=O)NCCSCc2cccc(F)c2)cc1-c1cccs1

>  <score_type>  (13) 
oracle

>  <origin>  (13) 
adg

>  <m_score__min__energy>  (13) 
-9.2300000000000004

>  <m_primary>  (13) 
energy

$$$$
13:0
     RDKit          3D

 38 40  0  0  0  0  0  0  0  0999 V2000
   56.6560   30.5300   43.7370 C   0  0  0  0  0  0  0  0  0  0  0  0
   56.7430   31.3940   44.8650 O   0  0  0  0  0  0  0  0  0  0  0  0
   57.9350   31.7020   45.5360 C   0  0  0  0  0  0  0  0  0  0  0  0
   58.2700   33.0160   45.9160 C   0  0  0  0  0  0  0  0  0  0  0  0
   59.4730   33.2730   46.5800 C   0  0  0  0  0  0  0  0  0  0  0  0
   60.3660   32.2260   46.8620 C   0  0  0  0  0  0  0  0  0  0  0  0
   61.6430   32.4820   47.5670 C   0  0  0  0  0  0  0  0  0  0  0  0
   62.7660   32.6330   46.8200 N   0  0  0  0  0  0  0  0  0  0  0  0
   63.9610   32.8390   47.3690 N   0  0  0  0  0  0  0  0  0  0  0  0
   64.1200   32.9210   48.7140 C   0  0  0  0  0  0  0  0  0  0  0  0
   65.2740   33.0980   49.1930 O   0  0  0  0  0  0  0  0  0  0  0  0
   62.9990   32.8150   49.5590 C   0  0  0  0  0  0  0  0  0  0  0  0
   63.1640   32.9360   51.0570 C   0  0  0  0  0  0  0  0  0  0  0  0
   61.7330   32.5720   48.9750 C   0  0  0  0  0  0  0  0  0  0  0  0
   60.5170   32.4760   49.8190 C   0  0  0  0  0  0  0  0  0  0  0  0
   60.0390   33.6020   50.5090 C   0  0  0  0  0  0  0  0  0  0  0  0
   58.9040   33.5010   51.3190 C   0  0  0  0  0  0  0  0  0  0  0  0
   58.2410   32.2780   51.4460 C   0  0  0  0  0  0  0  0  0  0  0  0
   58.7120   31.1520   50.7650 C   0  0  0  0  0  0  0  0  0  0  0  0
   59.8460   31.2490   49.9530 C   0  0  0  0  0  0  0  0  0  0  0  0
   60.0210   30.9150   46.5010 C   0  0  0  0  0  0  0  0  0  0  0  0
   58.8180   30.6590   45.8380 C   0  0  0  0  0  0  0  0  0  0  0  0
   56.5513   29.4898   44.0791 H   0  0  0  0  0  0  0  0  0  0  0  0
   55.7811   30.8063   43.1301 H   0  0  0  0  0  0  0  0  0  0  0  0
   57.5684   30.6263   43.1301 H   0  0  0  0  0  0  0  0  0  0  0  0
   57.5820   33.8438   45.6893 H   0  0  0  0  0  0  0  0  0  0  0  0
   59.7217   34.3007   46.8833 H   0  0  0  0  0  0  0  0  0  0  0  0
   64.7920   32.9340   46.7420 H   0  0  0  0  0  0  0  0  0  0  0  0
   62.3754   32.3577   51.5606 H   0  0  0  0  0  0  0  0  0  0  0  0
   64.1495   32.5449   51.3501 H   0  0  0  0  0  0  0  0  0  0  0  0
   63.0872   33.9934   51.3501 H   0  0  0  0  0  0  0  0  0  0  0  0
   60.5592   34.5663   50.4118 H   0  0  0  0  0  0  0  0  0  0  0  0
   58.5326   34.3857   51.8570 H   0  0  0  0  0  0  0  0  0  0  0  0
   57.3473   32.2011   52.0827 H   0  0  0  0  0  0  0  0  0  0  0  0
   58.1903   30.1891   50.8679 H   0  0  0  0  0  0  0  0  0  0  0  0
   60.2141   30.3616   49.4172 H   0  0  0  0  0  0  0  0  0  0  0  0
   60.7010   30.0844   46.7411 H   0  0  0  0  0  0  0  0  0  0  0  0
   58.5626   29.6283   45.5508 H   0  0  0  0  0  0  0  0  0  0  0  0
  1  2  1  0
  2  3  1  0
  3  4  2  0
  4  5  1  0
  5  6  2  0
  6  7  1  0
  7  8  2  0
  8  9  1  0
  9 10  1  0
 10 11  2  0
 10 12  1  0
 12 13  1  0
 12 14  2  0
 14 15  1  0
 15 16  2  0
 16 17  1  0
 17 18  2  0
 18 19  1  0
 19 20  2  0
  6 21  1  0
 21 22  2  0
 22  3  1  0
 14  7  1  0
 20 15  1  0
  1 23  1  0
  1 24  1  0
  1 25  1  0
  4 26  1  0
  5 27  1  0
  9 28  1  0
 13 29  1  0
 13 30  1  0
 13 31  1  0
 16 32  1  0
 17 33  1  0
 18 34  1  0
 19 35  1  0
 20 36  1  0
 21 37  1  0
 22 38  1  0
M  END
>  <UniqueID>  (14) 
13

>  <SMILES>  (14) 
COc1ccc(-c2n[nH]c(=O)c(C)c2-c2ccccc2)cc1

>  <Energy>  (14) 
55.37008245476122

>  <Genealogy>  (14) 
COc1ccc(-c2n[nH]c(=O)c(C)c2-c2ccccc2)cc1 (3D coordinates assigned)
COc1ccc(-c2n[nH]c(=O)c(C)c2-c2ccccc2)cc1 (optimized conformer: 55.37008245476122 kcal/mol)

>  <smiles>  (14) 
COc1ccc(-c2n[nH]c(=O)c(C)c2-c2ccccc2)cc1

>  <score_type>  (14) 
oracle

>  <origin>  (14) 
adg

>  <m_score__min__energy>  (14) 
-6.96

>  <m_primary>  (14) 
energy

$$$$
14:0
     RDKit          3D

 52 54  0  0  0  0  0  0  0  0999 V2000
   54.2650   25.0650   45.6040 C   0  0  0  0  0  0  0  0  0  0  0  0
   54.9870   26.2630   45.8650 O   0  0  0  0  0  0  0  0  0  0  0  0
   56.3820   26.3430   45.9860 C   0  0  0  0  0  0  0  0  0  0  0  0
   57.1690   25.2030   46.2540 C   0  0  0  0  0  0  0  0  0  0  0  0
   58.5460   25.3260   46.4500 C   0  0  0  0  0  0  0  0  0  0  0  0
   59.1510   26.5820   46.3990 C   0  0  0  0  0  0  0  0  0  0  0  0
   58.3860   27.7150   46.1180 C   0  0  0  0  0  0  0  0  0  0  0  0
   57.0130   27.6010   45.8680 C   0  0  0  0  0  0  0  0  0  0  0  0
   56.2740   28.7930   45.5670 N   0  0  0  0  0  0  0  0  0  0  0  0
   56.5700   29.7420   44.5310 C   0  0  0  0  0  0  0  0  0  0  0  0
   55.9120   29.6930   43.4590 O   0  0  0  0  0  0  0  0  0  0  0  0
   57.6280   30.8000   44.6930 C   0  0  0  0  0  0  0  0  0  0  0  0
   57.1700   32.0930   44.1510 N   0  0  0  0  0  0  0  0  0  0  0  0
   57.8180   32.3540   42.8580 C   0  0  0  0  0  0  0  0  0  0  0  0
   57.5000   33.4030   45.2690 S   0  0  0  0  0  0  0  0  0  0  0  0
   56.3770   33.4820   46.2650 O   0  0  0  0  0  0  0  0  0  0  0  0
   57.5470   34.7100   44.5280 O   0  0  0  0  0  0  0  0  0  0  0  0
   59.0300   33.1880   46.1280 C   0  0  0  0  0  0  0  0  0  0  0  0
   60.1120   34.0260   45.8510 C   0  0  0  0  0  0  0  0  0  0  0  0
   61.3330   33.8440   46.4990 C   0  0  0  0  0  0  0  0  0  0  0  0
   61.4970   32.8310   47.4740 C   0  0  0  0  0  0  0  0  0  0  0  0
   60.3830   32.0190   47.7890 C   0  0  0  0  0  0  0  0  0  0  0  0
   59.1650   32.1940   47.1020 C   0  0  0  0  0  0  0  0  0  0  0  0
   60.5180   31.0540   48.7950 C   0  0  0  0  0  0  0  0  0  0  0  0
   59.5130   30.3730   49.1470 O   0  0  0  0  0  0  0  0  0  0  0  0
   61.7270   30.8570   49.4030 N   0  0  0  0  0  0  0  0  0  0  0  0
   61.8590   29.8340   50.4570 C   0  0  0  0  0  0  0  0  0  0  0  0
   62.7970   31.6550   49.0910 C   0  0  0  0  0  0  0  0  0  0  0  0
   63.8890   31.4910   49.7060 O   0  0  0  0  0  0  0  0  0  0  0  0
   62.6940   32.6320   48.1280 N   0  0  0  0  0  0  0  0  0  0  0  0
   63.8690   33.4690   47.8030 C   0  0  0  0  0  0  0  0  0  0  0  0
   53.9808   24.5934   46.5562 H   0  0  0  0  0  0  0  0  0  0  0  0
   53.3588   25.3014   45.0270 H   0  0  0  0  0  0  0  0  0  0  0  0
   54.8973   24.3741   45.0270 H   0  0  0  0  0  0  0  0  0  0  0  0
   56.6951   24.2118   46.3088 H   0  0  0  0  0  0  0  0  0  0  0  0
   59.1549   24.4309   46.6450 H   0  0  0  0  0  0  0  0  0  0  0  0
   60.2316   26.6794   46.5804 H   0  0  0  0  0  0  0  0  0  0  0  0
   58.8652   28.7048   46.0927 H   0  0  0  0  0  0  0  0  0  0  0  0
   57.8569   30.9190   45.7623 H   0  0  0  0  0  0  0  0  0  0  0  0
   58.5252   30.4860   44.1394 H   0  0  0  0  0  0  0  0  0  0  0  0
   58.8260   32.7600   43.0284 H   0  0  0  0  0  0  0  0  0  0  0  0
   57.8921   31.4156   42.2889 H   0  0  0  0  0  0  0  0  0  0  0  0
   57.2209   33.0818   42.2889 H   0  0  0  0  0  0  0  0  0  0  0  0
   60.0001   34.8363   45.1156 H   0  0  0  0  0  0  0  0  0  0  0  0
   62.1817   34.4975   46.2488 H   0  0  0  0  0  0  0  0  0  0  0  0
   58.3108   31.5412   47.3347 H   0  0  0  0  0  0  0  0  0  0  0  0
   61.7970   30.3148   51.4444 H   0  0  0  0  0  0  0  0  0  0  0  0
   61.0485   29.0972   50.3564 H   0  0  0  0  0  0  0  0  0  0  0  0
   62.8300   29.3270   50.3564 H   0  0  0  0  0  0  0  0  0  0  0  0
   64.3460   33.8088   48.7342 H   0  0  0  0  0  0  0  0  0  0  0  0
   64.5886   32.8789   47.2165 H   0  0  0  0  0  0  0  0  0  0  0  0
   63.5464   34.3419   47.2165 H   0  0  0  0  0  0  0  0  0  0  0  0
  1  2  1  0
  2  3  1  0
  3  4  2  0
  4  5  1  0
  5  6  2  0
  6  7  1  0
  7  8  2  0
  8  9  1  0
  9 10  1  0
 10 11  2  0
 10 12  1  0
 12 13  1  0
 13 14  1  0
 13 15  1  0
 15 16  2  0
 15 17  2  0
 15 18  1  0
 18 19  2  0
 19 20  1  0
 20 21  2  0
 21 22  1  0
 22 23  2  0
 22 24  1  0
 24 25  2  0
 24 26  1  0
 26 27  1  0
 26 28  1  0
 28 29  2  0
 28 30  1  0
 30 31  1  0
  8  3  1  0
 23 18  1  0
 30 21  1  0
  1 32  1  0
  1 33  1  0
  1 34  1  0
  4 35  1  0
  5 36  1  0
  6 37  1  0
  7 38  1  0
 12 39  1  0
 12 40  1  0
 14 41  1  0
 14 42  1  0
 14 43  1  0
 19 44  1  0
 20 45  1  0
 23 46  1  0
 27 47  1  0
 27 48  1  0
 27 49  1  0
 31 50  1  0
 31 51  1  0
 31 52  1  0
M  CHG  1   9  -1
M  END
>  <UniqueID>  (15) 
14

>  <SMILES>  (15) 
COc1ccccc1[N-]C(=O)CN(C)S(=O)(=O)c1ccc2c(c1)c(=O)n(C)c(=O)n2C

>  <Energy>  (15) 
69.75396931241194

>  <Genealogy>  (15) 
COc1ccccc1[N-]C(=O)CN(C)S(=O)(=O)c1ccc2c(c1)c(=O)n(C)c(=O)n2C (protonated)
COc1ccccc1[N-]C(=O)CN(C)S(=O)(=O)c1ccc2c(c1)c(=O)n(C)c(=O)n2C (3D coordinates assigned)
COc1ccccc1[N-]C(=O)CN(C)S(=O)(=O)c1ccc2c(c1)c(=O)n(C)c(=O)n2C (optimized conformer: 69.75396931241194 kcal/mol)

>  <smiles>  (15) 
COc1ccccc1NC(=O)CN(C)S(=O)(=O)c1ccc2c(c1)c(=O)n(C)c(=O)n2C

>  <score_type>  (15) 
oracle

>  <origin>  (15) 
adg

>  <m_score__min__energy>  (15) 
-11.789999999999999

>  <m_primary>  (15) 
energy

$$$$
15:0
     RDKit          3D

 34 35  0  0  0  0  0  0  0  0999 V2000
   54.9570   24.1550   46.6270 O   0  0  0  0  0  0  0  0  0  0  0  0
   55.5080   25.1770   46.1410 C   0  0  0  0  0  0  0  0  0  0  0  0
   54.7680   26.3410   45.9700 O   0  0  0  0  0  0  0  0  0  0  0  0
   56.9640   25.1550   45.7900 C   0  0  0  0  0  0  0  0  0  0  0  0
   57.7830   26.0550   46.7210 C   0  0  0  0  0  0  0  0  0  0  0  0
   57.6950   27.4980   46.3120 C   0  0  0  0  0  0  0  0  0  0  0  0
   58.3780   28.3550   46.9340 O   0  0  0  0  0  0  0  0  0  0  0  0
   56.8680   27.8810   45.2030 N   0  0  0  0  0  0  0  0  0  0  0  0
   56.7620   29.2280   44.7230 C   0  0  0  0  0  0  0  0  0  0  0  0
   55.5850   29.9110   44.5350 C   0  0  0  0  0  0  0  0  0  0  0  0
   55.8720   31.1570   44.1190 N   0  0  0  0  0  0  0  0  0  0  0  0
   57.2220   31.1760   44.0640 C   0  0  0  0  0  0  0  0  0  0  0  0
   58.1600   32.6330   43.6140 S   0  0  0  0  0  0  0  0  0  0  0  0
   57.4600   33.6810   44.9400 C   0  0  0  0  0  0  0  0  0  0  0  0
   58.3090   33.6220   46.1820 C   0  0  0  0  0  0  0  0  0  0  0  0
   59.2620   34.6220   46.4410 C   0  0  0  0  0  0  0  0  0  0  0  0
   60.0010   34.6000   47.6290 C   0  0  0  0  0  0  0  0  0  0  0  0
   59.7960   33.5810   48.5630 C   0  0  0  0  0  0  0  0  0  0  0  0
   60.7940   33.5640   50.1910 Br  0  0  0  0  0  0  0  0  0  0  0  0
   58.8560   32.5770   48.3070 C   0  0  0  0  0  0  0  0  0  0  0  0
   58.1130   32.5980   47.1230 C   0  0  0  0  0  0  0  0  0  0  0  0
   57.8070   30.0150   44.4220 N   0  0  0  0  0  0  0  0  0  0  0  0
   57.3356   24.1230   45.8734 H   0  0  0  0  0  0  0  0  0  0  0  0
   57.0756   25.5313   44.7624 H   0  0  0  0  0  0  0  0  0  0  0  0
   57.3999   25.9505   47.7468 H   0  0  0  0  0  0  0  0  0  0  0  0
   58.8364   25.7438   46.6620 H   0  0  0  0  0  0  0  0  0  0  0  0
   56.2920   27.1460   44.7320 H   0  0  0  0  0  0  0  0  0  0  0  0
   54.5754   29.5058   44.6978 H   0  0  0  0  0  0  0  0  0  0  0  0
   57.4110   34.7218   44.5873 H   0  0  0  0  0  0  0  0  0  0  0  0
   56.4546   33.3086   45.1858 H   0  0  0  0  0  0  0  0  0  0  0  0
   59.4275   35.4247   45.7073 H   0  0  0  0  0  0  0  0  0  0  0  0
   60.7444   35.3860   47.8280 H   0  0  0  0  0  0  0  0  0  0  0  0
   58.7013   31.7700   49.0383 H   0  0  0  0  0  0  0  0  0  0  0  0
   57.3717   31.8091   46.9276 H   0  0  0  0  0  0  0  0  0  0  0  0
  1  2  2  0
  2  3  1  0
  2  4  1  0
  4  5  1  0
  5  6  1  0
  6  7  2  0
  6  8  1  0
  8  9  1  0
  9 10  2  0
 10 11  1  0
 11 12  1  0
 12 13  1  0
 13 14  1  0
 14 15  1  0
 15 16  2  0
 16 17  1  0
 17 18  2  0
 18 19  1  0
 18 20  1  0
 20 21  2  0
 12 22  2  0
 22  9  1  0
 21 15  1  0
  4 23  1  0
  4 24  1  0
  5 25  1  0
  5 26  1  0
  8 27  1  0
 10 28  1  0
 14 29  1  0
 14 30  1  0
 16 31  1  0
 17 32  1  0
 20 33  1  0
 21 34  1  0
M  CHG  2   3  -1  11  -1
M  END
>  <UniqueID>  (16) 
15

>  <SMILES>  (16) 
O=C([O-])CCC(=O)Nc1c[n-]c(SCc2ccc(Br)cc2)n1

>  <Energy>  (16) 
51.951364238129145

>  <Genealogy>  (16) 
O=C([O-])CCC(=O)Nc1c[n-]c(SCc2ccc(Br)cc2)n1 (protonated)
O=C([O-])CCC(=O)Nc1c[n-]c(SCc2ccc(Br)cc2)n1 (3D coordinates assigned)
O=C([O-])CCC(=O)Nc1c[n-]c(SCc2ccc(Br)cc2)n1 (optimized conformer: 51.951364238129145 kcal/mol)

>  <smiles>  (16) 
O=C(O)CCC(=O)Nc1c[nH]c(SCc2ccc(Br)cc2)n1

>  <score_type>  (16) 
oracle

>  <origin>  (16) 
adg

>  <m_score__min__energy>  (16) 
-12.369999999999999

>  <m_primary>  (16) 
energy

$$$$
16:0
     RDKit          3D

 37 39  0  0  0  0  0  0  0  0999 V2000
   56.2330   24.6640   47.1900 O   0  0  0  0  0  0  0  0  0  0  0  0
   56.6600   25.7520   46.7210 C   0  0  0  0  0  0  0  0  0  0  0  0
   57.9790   26.0610   46.8280 N   0  0  0  0  0  0  0  0  0  0  0  0
   58.4850   27.2230   46.3340 C   0  0  0  0  0  0  0  0  0  0  0  0
   57.6470   28.1460   45.6970 C   0  0  0  0  0  0  0  0  0  0  0  0
   58.2120   29.3640   45.1940 N   0  0  0  0  0  0  0  0  0  0  0  0
   57.3060   30.6660   44.4920 S   0  0  0  0  0  0  0  0  0  0  0  0
   55.8430   30.4570   44.7700 O   0  0  0  0  0  0  0  0  0  0  0  0
   57.5210   30.6740   43.0060 O   0  0  0  0  0  0  0  0  0  0  0  0
   57.8620   32.1990   45.1560 C   0  0  0  0  0  0  0  0  0  0  0  0
   56.9450   33.1960   45.5170 C   0  0  0  0  0  0  0  0  0  0  0  0
   57.3980   34.3990   46.0620 C   0  0  0  0  0  0  0  0  0  0  0  0
   58.7670   34.6190   46.2390 C   0  0  0  0  0  0  0  0  0  0  0  0
   59.6960   33.6340   45.8580 C   0  0  0  0  0  0  0  0  0  0  0  0
   61.0770   33.8100   46.0300 O   0  0  0  0  0  0  0  0  0  0  0  0
   61.7680   33.6870   47.2450 C   0  0  0  0  0  0  0  0  0  0  0  0
   61.0920   33.7260   48.4810 C   0  0  0  0  0  0  0  0  0  0  0  0
   61.8020   33.6140   49.6780 C   0  0  0  0  0  0  0  0  0  0  0  0
   63.1930   33.4790   49.6590 C   0  0  0  0  0  0  0  0  0  0  0  0
   64.0830   33.3420   51.1630 Cl  0  0  0  0  0  0  0  0  0  0  0  0
   63.8750   33.4610   48.4380 C   0  0  0  0  0  0  0  0  0  0  0  0
   63.1700   33.5700   47.2330 C   0  0  0  0  0  0  0  0  0  0  0  0
   63.8810   33.5530   46.0320 O   0  0  0  0  0  0  0  0  0  0  0  0
   59.2340   32.4220   45.3330 C   0  0  0  0  0  0  0  0  0  0  0  0
   56.2800   27.8430   45.5770 C   0  0  0  0  0  0  0  0  0  0  0  0
   55.7830   26.6430   46.0910 C   0  0  0  0  0  0  0  0  0  0  0  0
   54.4310   26.3420   45.9730 O   0  0  0  0  0  0  0  0  0  0  0  0
   59.5588   27.4387   46.4356 H   0  0  0  0  0  0  0  0  0  0  0  0
   55.8674   33.0304   45.3707 H   0  0  0  0  0  0  0  0  0  0  0  0
   56.6755   35.1758   46.3529 H   0  0  0  0  0  0  0  0  0  0  0  0
   59.1186   35.5647   46.6773 H   0  0  0  0  0  0  0  0  0  0  0  0
   59.9987   33.8454   48.5028 H   0  0  0  0  0  0  0  0  0  0  0  0
   61.2654   33.6320   50.6381 H   0  0  0  0  0  0  0  0  0  0  0  0
   64.9703   33.3607   48.4242 H   0  0  0  0  0  0  0  0  0  0  0  0
   63.4250   33.6690   45.1350 H   0  0  0  0  0  0  0  0  0  0  0  0
   59.9540   31.6376   45.0569 H   0  0  0  0  0  0  0  0  0  0  0  0
   55.6014   28.5507   45.0784 H   0  0  0  0  0  0  0  0  0  0  0  0
  1  2  2  0
  2  3  1  0
  3  4  1  0
  4  5  2  0
  5  6  1  0
  6  7  1  0
  7  8  2  0
  7  9  2  0
  7 10  1  0
 10 11  2  0
 11 12  1  0
 12 13  2  0
 13 14  1  0
 14 15  1  0
 15 16  1  0
 16 17  2  0
 17 18  1  0
 18 19  2  0
 19 20  1  0
 19 21  1  0
 21 22  2  0
 22 23  1  0
 14 24  2  0
  5 25  1  0
 25 26  2  0
 26 27  1  0
 26  2  1  0
 24 10  1  0
 22 16  1  0
  4 28  1  0
 11 29  1  0
 12 30  1  0
 13 31  1  0
 17 32  1  0
 18 33  1  0
 21 34  1  0
 23 35  1  0
 24 36  1  0
 25 37  1  0
M  CHG  3   3  -1   6  -1  27  -1
M  END
>  <UniqueID>  (17) 
16

>  <SMILES>  (17) 
O=c1[n-]cc([N-]S(=O)(=O)c2cccc(Oc3ccc(Cl)cc3O)c2)cc1[O-]

>  <Energy>  (17) 
50.79480389967547

>  <Genealogy>  (17) 
O=c1[n-]cc([N-]S(=O)(=O)c2cccc(Oc3ccc(Cl)cc3O)c2)cc1[O-] (protonated)
O=c1[n-]cc([N-]S(=O)(=O)c2cccc(Oc3ccc(Cl)cc3O)c2)cc1[O-] (3D coordinates assigned)
O=c1[n-]cc([N-]S(=O)(=O)c2cccc(Oc3ccc(Cl)cc3O)c2)cc1[O-] (optimized conformer: 50.79480389967547 kcal/mol)

>  <smiles>  (17) 
O=c1[nH]cc(NS(=O)(=O)c2cccc(Oc3ccc(Cl)cc3O)c2)cc1O

>  <score_type>  (17) 
oracle

>  <origin>  (17) 
adg

>  <m_score__min__energy>  (17) 
-14.6

>  <m_primary>  (17) 
energy

$$$$
17:0
     RDKit          3D

 37 39  0  0  0  0  0  0  0  0999 V2000
   55.1540   29.3390   44.8290 N   0  0  0  0  0  0  0  0  0  0  0  0
   56.6630   30.1000   44.4650 S   0  0  0  0  0  0  0  0  0  0  0  0
   56.5590   31.5750   44.7390 O   0  0  0  0  0  0  0  0  0  0  0  0
   56.9850   29.9010   43.0100 O   0  0  0  0  0  0  0  0  0  0  0  0
   57.9330   29.3950   45.4600 C   0  0  0  0  0  0  0  0  0  0  0  0
   58.2560   28.0380   45.3300 C   0  0  0  0  0  0  0  0  0  0  0  0
   59.2640   27.4790   46.1190 C   0  0  0  0  0  0  0  0  0  0  0  0
   59.9650   28.2740   47.0290 C   0  0  0  0  0  0  0  0  0  0  0  0
   59.6720   29.6440   47.1480 C   0  0  0  0  0  0  0  0  0  0  0  0
   60.3640   30.4820   48.0890 N   0  0  0  0  0  0  0  0  0  0  0  0
   61.7090   30.9530   47.9140 C   0  0  0  0  0  0  0  0  0  0  0  0
   62.2910   30.8400   46.8010 O   0  0  0  0  0  0  0  0  0  0  0  0
   62.3960   31.6690   49.0300 C   0  0  0  0  0  0  0  0  0  0  0  0
   61.9610   33.4380   48.9670 S   0  0  0  0  0  0  0  0  0  0  0  0
   60.2230   33.1290   48.6470 C   0  0  0  0  0  0  0  0  0  0  0  0
   59.3630   32.6820   49.5850 N   0  0  0  0  0  0  0  0  0  0  0  0
   58.1600   32.6550   49.0280 N   0  0  0  0  0  0  0  0  0  0  0  0
   58.3160   33.0940   47.7660 C   0  0  0  0  0  0  0  0  0  0  0  0
   57.3600   33.2490   46.9630 O   0  0  0  0  0  0  0  0  0  0  0  0
   59.5990   33.3790   47.4780 N   0  0  0  0  0  0  0  0  0  0  0  0
   60.1300   34.0740   46.3040 C   0  0  0  0  0  0  0  0  0  0  0  0
   59.2840   35.2490   45.8360 C   0  0  0  0  0  0  0  0  0  0  0  0
   59.2630   33.9420   45.0620 C   0  0  0  0  0  0  0  0  0  0  0  0
   58.6410   30.1920   46.3690 C   0  0  0  0  0  0  0  0  0  0  0  0
   55.3170   28.7210   45.6540 H   0  0  0  0  0  0  0  0  0  0  0  0
   57.7149   27.4117   44.6054 H   0  0  0  0  0  0  0  0  0  0  0  0
   59.5064   26.4103   46.0236 H   0  0  0  0  0  0  0  0  0  0  0  0
   60.7502   27.8259   47.6556 H   0  0  0  0  0  0  0  0  0  0  0  0
   59.8280   30.8430   48.9110 H   0  0  0  0  0  0  0  0  0  0  0  0
   62.0735   31.2451   49.9925 H   0  0  0  0  0  0  0  0  0  0  0  0
   63.4851   31.5530   48.9278 H   0  0  0  0  0  0  0  0  0  0  0  0
   61.1949   33.9233   46.5347 H   0  0  0  0  0  0  0  0  0  0  0  0
   58.4028   35.5582   46.4172 H   0  0  0  0  0  0  0  0  0  0  0  0
   59.4854   36.3002   45.5821 H   0  0  0  0  0  0  0  0  0  0  0  0
   58.3663   33.3052   45.0826 H   0  0  0  0  0  0  0  0  0  0  0  0
   59.4428   33.6554   44.0153 H   0  0  0  0  0  0  0  0  0  0  0  0
   58.3866   31.2571   46.4732 H   0  0  0  0  0  0  0  0  0  0  0  0
  1  2  1  0
  2  3  2  0
  2  4  2  0
  2  5  1  0
  5  6  2  0
  6  7  1  0
  7  8  2  0
  8  9  1  0
  9 10  1  0
 10 11  1  0
 11 12  2  0
 11 13  1  0
 13 14  1  0
 14 15  1  0
 15 16  2  0
 16 17  1  0
 17 18  1  0
 18 19  2  0
 18 20  1  0
 20 21  1  0
 21 22  1  0
 22 23  1  0
  9 24  2  0
 24  5  1  0
 20 15  1  0
 23 21  1  0
  1 25  1  0
  6 26  1  0
  7 27  1  0
  8 28  1  0
 10 29  1  0
 13 30  1  0
 13 31  1  0
 21 32  1  0
 22 33  1  0
 22 34  1  0
 23 35  1  0
 23 36  1  0
 24 37  1  0
M  CHG  2   1  -1  17  -1
M  END
>  <UniqueID>  (18) 
17

>  <SMILES>  (18) 
[NH-]S(=O)(=O)c1cccc(NC(=O)CSc2n[n-]c(=O)n2C2CC2)c1

>  <Energy>  (18) 
336.8967368838143

>  <Genealogy>  (18) 
[NH-]S(=O)(=O)c1cccc(NC(=O)CSc2n[n-]c(=O)n2C2CC2)c1 (protonated)
[NH-]S(=O)(=O)c1cccc(NC(=O)CSc2n[n-]c(=O)n2C2CC2)c1 (3D coordinates assigned)
[NH-]S(=O)(=O)c1cccc(NC(=O)CSc2n[n-]c(=O)n2C2CC2)c1 (nonaromatic ring conformer: 336.8967368838143 kcal/mol)

>  <smiles>  (18) 
NS(=O)(=O)c1cccc(NC(=O)CSc2n[nH]c(=O)n2C2CC2)c1

>  <score_type>  (18) 
oracle

>  <origin>  (18) 
adg

>  <m_score__min__energy>  (18) 
-11.66

>  <m_primary>  (18) 
energy

$$$$
18:0
     RDKit          3D

 47 49  0  0  1  0  0  0  0  0999 V2000
   63.5080   33.4480   50.4400 C   0  0  0  0  0  0  0  0  0  0  0  0
   62.0800   33.5770   50.4090 O   0  0  0  0  0  0  0  0  0  0  0  0
   61.4160   33.6470   49.1930 C   0  0  0  0  0  0  0  0  0  0  0  0
   62.1600   33.8000   48.0190 C   0  0  0  0  0  0  0  0  0  0  0  0
   61.5350   33.8730   46.7890 C   0  0  0  0  0  0  0  0  0  0  0  0
   60.1440   33.7920   46.7180 C   0  0  0  0  0  0  0  0  0  0  0  0
   57.3620   29.8900   45.7660 N   0  0  0  0  0  0  0  0  0  0  0  0
   57.7190   30.8930   45.0730 C   0  0  0  0  0  0  0  0  0  0  0  0
   58.5110   33.0660   43.5880 N   0  0  0  0  0  0  0  0  0  0  0  0
   57.7730   32.0780   43.0460 C   0  0  0  0  0  0  0  0  0  0  0  0
   57.3530   30.9720   43.7490 C   0  0  0  0  0  0  0  0  0  0  0  0
   56.3910   29.7370   42.9780 Cl  0  0  0  0  0  0  0  0  0  0  0  0
   58.8390   32.9340   44.8910 C   0  0  0  0  0  0  0  0  0  0  0  0
   59.5480   33.8730   45.4290 N   0  0  0  0  0  0  0  0  0  0  0  0
   58.0000   28.6270   45.8450 C   0  0  0  0  0  0  0  0  0  0  0  0
   57.4720   27.5690   45.0890 C   0  0  0  0  0  0  0  0  0  0  0  0
   58.0510   26.3160   45.0990 C   0  0  0  0  0  0  0  0  0  0  0  0
   59.1740   26.1400   45.8830 C   0  0  0  0  0  0  0  0  0  0  0  0
   59.7180   27.1670   46.6410 C   0  0  0  0  0  0  0  0  0  0  0  0
   59.1390   28.4270   46.6330 C   0  0  0  0  0  0  0  0  0  0  0  0
   59.8220   29.7080   47.5710 S   0  0  0  0  0  0  0  0  0  0  0  0
   58.5450   30.5900   48.3520 N   0  0  0  0  0  0  0  0  0  0  0  0
   60.5590   30.6670   46.6620 O   0  0  0  0  0  0  0  0  0  0  0  0
   60.7840   29.1480   48.5620 O   0  0  0  0  0  0  0  0  0  0  0  0
   58.4530   31.8720   45.6210 N   0  0  0  0  0  0  0  0  0  0  0  0
   59.3980   33.6400   47.8720 C   0  0  0  0  0  0  0  0  0  0  0  0
   60.0360   33.5680   49.0970 C   0  0  0  0  0  0  0  0  0  0  0  0
   59.2930   33.4080   50.3470 C   0  0  0  0  0  0  0  0  0  0  0  0
   59.4920   34.2470   51.4690 N   0  0  0  0  0  0  0  0  0  0  0  0
   58.4530   32.4940   50.4210 O   0  0  0  0  0  0  0  0  0  0  0  0
   63.8508   33.4170   51.4848 H   0  0  0  0  0  0  0  0  0  0  0  0
   63.8035   32.5195   49.9295 H   0  0  0  0  0  0  0  0  0  0  0  0
   63.9651   34.3085   49.9295 H   0  0  0  0  0  0  0  0  0  0  0  0
   63.2567   33.8630   48.0754 H   0  0  0  0  0  0  0  0  0  0  0  0
   62.1301   33.9942   45.8719 H   0  0  0  0  0  0  0  0  0  0  0  0
   58.8090   33.8860   43.0260 H   0  0  0  0  0  0  0  0  0  0  0  0
   57.4913   32.1595   41.9858 H   0  0  0  0  0  0  0  0  0  0  0  0
   56.5763   27.7422   44.4744 H   0  0  0  0  0  0  0  0  0  0  0  0
   57.6338   25.4894   44.5052 H   0  0  0  0  0  0  0  0  0  0  0  0
   59.6543   25.1507   45.9075 H   0  0  0  0  0  0  0  0  0  0  0  0
   60.6137   26.9806   47.2518 H   0  0  0  0  0  0  0  0  0  0  0  0
   57.8670   30.8920   47.6200 H   0  0  0  0  0  0  0  0  0  0  0  0
   58.9880   31.4970   48.6820 H   0  0  0  0  0  0  0  0  0  0  0  0
   58.7430   31.8400   46.6150 H   0  0  0  0  0  0  0  0  0  0  0  0
   58.3013   33.5766   47.8161 H   0  0  0  0  0  0  0  0  0  0  0  0
   58.9180   35.1040   51.6700 H   0  0  0  0  0  0  0  0  0  0  0  0
   60.2600   33.9890   52.1290 H   0  0  0  0  0  0  0  0  0  0  0  0
  1  2  1  0
  2  3  1  0
  3  4  2  0
  4  5  1  0
  5  6  2  0
  6  7  1  0
  7  8  2  0
  8  9  1  0
  9 10  1  0
 10 11  2  0
 11 12  1  0
 11 13  1  0
 13 14  2  0
 14 15  1  0
 15 16  2  0
 16 17  1  0
 17 18  2  0
 18 19  1  0
 19 20  2  0
 20 21  1  0
 21 22  1  0
 21 23  2  0
 21 24  2  0
 13 25  1  0
  6 26  1  0
 26 27  2  0
 27 28  1  0
 28 29  1  0
 28 30  2  0
 27  3  1  0
 25  8  1  0
 20 15  1  0
  1 31  1  0
  1 32  1  0
  1 33  1  0
  4 34  1  0
  5 35  1  0
  9 36  1  0
 10 37  1  0
 16 38  1  0
 17 39  1  0
 18 40  1  0
 19 41  1  0
 22 42  1  0
 22 43  1  0
 25 44  1  0
 26 45  1  0
 29 46  1  0
 29 47  1  0
M  END
>  <smiles>  (19) 
COc1ccc(N=c2[nH]cc(Cl)c(=Nc3ccccc3S(N)(=O)=O)[nH]2)cc1C(N)=O

>  <score_type>  (19) 
oracle

>  <origin>  (19) 
adg

>  <m_score__min__energy>  (19) 
-9.2100000000000009

>  <m_primary>  (19) 
energy

$$$$
19:0
     RDKit          3D

 38 40  0  0  0  0  0  0  0  0999 V2000
   57.4130   27.4650   46.0930 C   0  0  0  0  0  0  0  0  0  0  0  0
   58.5480   26.9710   45.1960 C   0  0  0  0  0  0  0  0  0  0  0  0
   58.3930   27.4250   43.7330 C   0  0  0  0  0  0  0  0  0  0  0  0
   57.3940   28.5780   43.5490 C   0  0  0  0  0  0  0  0  0  0  0  0
   57.9570   29.8580   43.9810 N   0  0  0  0  0  0  0  0  0  0  0  0
   57.1220   30.9070   44.4930 C   0  0  0  0  0  0  0  0  0  0  0  0
   55.8700   30.7580   44.5100 O   0  0  0  0  0  0  0  0  0  0  0  0
   57.7220   32.1450   45.0340 C   0  0  0  0  0  0  0  0  0  0  0  0
   57.0680   33.3840   44.8550 C   0  0  0  0  0  0  0  0  0  0  0  0
   57.6400   34.5800   45.3310 C   0  0  0  0  0  0  0  0  0  0  0  0
   58.8730   34.5650   45.9960 C   0  0  0  0  0  0  0  0  0  0  0  0
   59.5130   33.3400   46.1730 C   0  0  0  0  0  0  0  0  0  0  0  0
   58.9570   32.1540   45.7090 C   0  0  0  0  0  0  0  0  0  0  0  0
   59.8510   31.0610   46.1180 C   0  0  0  0  0  0  0  0  0  0  0  0
   59.6710   29.8270   45.9510 O   0  0  0  0  0  0  0  0  0  0  0  0
   60.9720   31.6740   46.8220 C   0  0  0  0  0  0  0  0  0  0  0  0
   62.0910   31.0870   47.4090 C   0  0  0  0  0  0  0  0  0  0  0  0
   63.0240   31.9270   48.0430 C   0  0  0  0  0  0  0  0  0  0  0  0
   62.8200   33.3230   48.0790 C   0  0  0  0  0  0  0  0  0  0  0  0
   61.6810   33.8920   47.4820 C   0  0  0  0  0  0  0  0  0  0  0  0
   60.7710   33.0400   46.8570 C   0  0  0  0  0  0  0  0  0  0  0  0
   57.6987   27.3406   47.1479 H   0  0  0  0  0  0  0  0  0  0  0  0
   57.2202   28.5284   45.8883 H   0  0  0  0  0  0  0  0  0  0  0  0
   56.5033   26.8814   45.8883 H   0  0  0  0  0  0  0  0  0  0  0  0
   59.4996   27.3613   45.5862 H   0  0  0  0  0  0  0  0  0  0  0  0
   58.5232   25.8713   45.2059 H   0  0  0  0  0  0  0  0  0  0  0  0
   59.3759   27.7545   43.3652 H   0  0  0  0  0  0  0  0  0  0  0  0
   58.0015   26.5659   43.1685 H   0  0  0  0  0  0  0  0  0  0  0  0
   57.1236   28.6487   42.4851 H   0  0  0  0  0  0  0  0  0  0  0  0
   56.5096   28.3667   44.1680 H   0  0  0  0  0  0  0  0  0  0  0  0
   58.9810   30.0370   43.8770 H   0  0  0  0  0  0  0  0  0  0  0  0
   56.0983   33.4154   44.3366 H   0  0  0  0  0  0  0  0  0  0  0  0
   57.1140   35.5341   45.1793 H   0  0  0  0  0  0  0  0  0  0  0  0
   59.3243   35.4963   46.3688 H   0  0  0  0  0  0  0  0  0  0  0  0
   62.2405   29.9977   47.3775 H   0  0  0  0  0  0  0  0  0  0  0  0
   63.9185   31.4931   48.5138 H   0  0  0  0  0  0  0  0  0  0  0  0
   63.5568   33.9702   48.5773 H   0  0  0  0  0  0  0  0  0  0  0  0
   61.5126   34.9787   47.5073 H   0  0  0  0  0  0  0  0  0  0  0  0
  1  2  1  0
  2  3  1  0
  3  4  1  0
  4  5  1  0
  5  6  1  0
  6  7  2  0
  6  8  1  0
  8  9  2  0
  9 10  1  0
 10 11  2  0
 11 12  1  0
 12 13  2  0
 13 14  1  0
 14 15  2  0
 14 16  1  0
 16 17  2  0
 17 18  1  0
 18 19  2  0
 19 20  1  0
 20 21  2  0
 13  8  1  0
 21 16  1  0
 21 12  1  0
  1 22  1  0
  1 23  1  0
  1 24  1  0
  2 25  1  0
  2 26  1  0
  3 27  1  0
  3 28  1  0
  4 29  1  0
  4 30  1  0
  5 31  1  0
  9 32  1  0
 10 33  1  0
 11 34  1  0
 17 35  1  0
 18 36  1  0
 19 37  1  0
 20 38  1  0
M  END
>  <UniqueID>  (20) 
18

>  <SMILES>  (20) 
CCCCNC(=O)c1cccc2c1C(=O)c1ccccc1-2

>  <Energy>  (20) 
70.97240629458818

>  <Genealogy>  (20) 
CCCCNC(=O)c1cccc2c1C(=O)c1ccccc1-2 (3D coordinates assigned)
CCCCNC(=O)c1cccc2c1C(=O)c1ccccc1-2 (nonaromatic ring conformer: 70.97240629458818 kcal/mol)

>  <smiles>  (20) 
CCCCNC(=O)c1cccc2c1C(=O)c1ccccc1-2

>  <score_type>  (20) 
oracle

>  <origin>  (20) 
adg

>  <m_score__min__energy>  (20) 
-7.5300000000000002

>  <m_primary>  (20) 
energy

$$$$
20:0
     RDKit          3D

 35 38  0  0  0  0  0  0  0  0999 V2000
   64.1240   32.6300   47.6260 O   0  0  0  0  0  0  0  0  0  0  0  0
   62.8800   32.5880   47.8160 C   0  0  0  0  0  0  0  0  0  0  0  0
   61.8610   33.1940   46.9740 C   0  0  0  0  0  0  0  0  0  0  0  0
   62.0980   33.8500   45.9250 O   0  0  0  0  0  0  0  0  0  0  0  0
   60.4870   32.9230   47.5320 C   0  0  1  0  0  0  0  0  0  0  0  0
   59.8170   34.2220   47.9190 C   0  0  0  0  0  0  0  0  0  0  0  0
   60.2560   34.8870   48.8960 O   0  0  0  0  0  0  0  0  0  0  0  0
   58.7290   34.7460   47.1560 N   0  0  0  0  0  0  0  0  0  0  0  0
   58.1720   34.0220   46.0590 C   0  0  0  0  0  0  0  0  0  0  0  0
   57.2840   34.5670   45.3490 O   0  0  0  0  0  0  0  0  0  0  0  0
   58.6240   32.6900   45.7650 N   0  0  0  0  0  0  0  0  0  0  0  0
   58.0120   31.9370   44.7000 C   0  0  0  0  0  0  0  0  0  0  0  0
   58.0250   32.4330   43.3850 C   0  0  0  0  0  0  0  0  0  0  0  0
   57.4330   31.7010   42.3520 C   0  0  0  0  0  0  0  0  0  0  0  0
   56.8260   30.4720   42.6220 C   0  0  0  0  0  0  0  0  0  0  0  0
   56.8100   29.9720   43.9270 C   0  0  0  0  0  0  0  0  0  0  0  0
   57.4010   30.7000   44.9640 C   0  0  0  0  0  0  0  0  0  0  0  0
   59.6810   32.1010   46.5470 C   0  0  0  0  0  0  0  0  0  0  0  0
   59.9760   30.8840   46.3820 O   0  0  0  0  0  0  0  0  0  0  0  0
   60.8330   32.1100   48.7650 C   0  0  0  0  0  0  0  0  0  0  0  0
   59.9470   31.5640   49.6990 C   0  0  0  0  0  0  0  0  0  0  0  0
   60.4680   30.8340   50.7800 C   0  0  0  0  0  0  0  0  0  0  0  0
   61.8580   30.6590   50.9170 C   0  0  0  0  0  0  0  0  0  0  0  0
   62.7390   31.2100   49.9730 C   0  0  0  0  0  0  0  0  0  0  0  0
   62.1990   31.9300   48.9080 C   0  0  0  0  0  0  0  0  0  0  0  0
   58.3410   35.6850   47.3980 H   0  0  0  0  0  0  0  0  0  0  0  0
   58.5024   33.4000   43.1682 H   0  0  0  0  0  0  0  0  0  0  0  0
   57.4450   32.0933   41.3244 H   0  0  0  0  0  0  0  0  0  0  0  0
   56.3606   29.8978   41.8073 H   0  0  0  0  0  0  0  0  0  0  0  0
   56.3317   29.0043   44.1385 H   0  0  0  0  0  0  0  0  0  0  0  0
   57.3875   30.3029   45.9897 H   0  0  0  0  0  0  0  0  0  0  0  0
   58.8615   31.7037   49.5891 H   0  0  0  0  0  0  0  0  0  0  0  0
   59.7859   30.3965   51.5238 H   0  0  0  0  0  0  0  0  0  0  0  0
   62.2561   30.0874   51.7684 H   0  0  0  0  0  0  0  0  0  0  0  0
   63.8266   31.0772   50.0709 H   0  0  0  0  0  0  0  0  0  0  0  0
  1  2  2  0
  2  3  1  0
  3  4  2  0
  5  3  1  6
  5  6  1  0
  6  7  2  0
  6  8  1  0
  8  9  1  0
  9 10  2  0
  9 11  1  0
 11 12  1  0
 12 13  2  0
 13 14  1  0
 14 15  2  0
 15 16  1  0
 16 17  2  0
 11 18  1  0
 18 19  2  0
  5 20  1  0
 20 21  2  0
 21 22  1  0
 22 23  2  0
 23 24  1  0
 24 25  2  0
 25  2  1  0
 18  5  1  0
 25 20  1  0
 17 12  1  0
  8 26  1  0
 13 27  1  0
 14 28  1  0
 15 29  1  0
 16 30  1  0
 17 31  1  0
 21 32  1  0
 22 33  1  0
 23 34  1  0
 24 35  1  0
M  END
>  <UniqueID>  (21) 
19

>  <SMILES>  (21) 
O=C1C(=O)[C@]2(C(=O)NC(=O)N(c3ccccc3)C2=O)c2ccccc21

>  <Energy>  (21) 
66.18496116493968

>  <Genealogy>  (21) 
O=C1C(=O)[C@]2(C(=O)NC(=O)N(c3ccccc3)C2=O)c2ccccc21 (chirality)
O=C1C(=O)[C@]2(C(=O)NC(=O)N(c3ccccc3)C2=O)c2ccccc21 (3D coordinates assigned)
O=C1C(=O)[C@]2(C(=O)NC(=O)N(c3ccccc3)C2=O)c2ccccc21 (nonaromatic ring conformer: 66.18496116493968 kcal/mol)

>  <smiles>  (21) 
O=C1C(=O)C2(C(=O)NC(=O)N(c3ccccc3)C2=O)c2ccccc21

>  <score_type>  (21) 
oracle

>  <origin>  (21) 
adg

>  <m_score__min__energy>  (21) 
-7.8200000000000003

>  <m_primary>  (21) 
energy

$$$$
21:0
     RDKit          3D

 24 24  0  0  0  0  0  0  0  0999 V2000
   56.4330   26.1170   46.0440 C   0  0  0  0  0  0  0  0  0  0  0  0
   56.0770   27.4660   45.6230 N   0  0  0  0  0  0  0  0  0  0  0  0
   56.9760   28.2770   44.8520 C   0  0  0  0  0  0  0  0  0  0  0  0
   58.1040   27.8200   44.5200 O   0  0  0  0  0  0  0  0  0  0  0  0
   56.5910   29.6440   44.4440 C   0  0  0  0  0  0  0  0  0  0  0  0
   55.4240   30.0600   44.6790 O   0  0  0  0  0  0  0  0  0  0  0  0
   57.5770   30.5700   43.7930 C   0  0  0  0  0  0  0  0  0  0  0  0
   57.7990   31.7850   44.6520 C   0  0  0  0  0  0  0  0  0  0  0  0
   57.7530   33.0730   44.0920 C   0  0  0  0  0  0  0  0  0  0  0  0
   57.9900   34.1970   44.8890 C   0  0  0  0  0  0  0  0  0  0  0  0
   58.2800   34.0430   46.2470 C   0  0  0  0  0  0  0  0  0  0  0  0
   58.3360   32.7660   46.8110 C   0  0  0  0  0  0  0  0  0  0  0  0
   58.1010   31.6390   46.0170 C   0  0  0  0  0  0  0  0  0  0  0  0
   56.4461   26.0673   47.1428 H   0  0  0  0  0  0  0  0  0  0  0  0
   55.6924   25.4036   45.6535 H   0  0  0  0  0  0  0  0  0  0  0  0
   57.4292   25.8619   45.6535 H   0  0  0  0  0  0  0  0  0  0  0  0
   55.1410   27.8420   45.8970 H   0  0  0  0  0  0  0  0  0  0  0  0
   58.5329   30.0435   43.6554 H   0  0  0  0  0  0  0  0  0  0  0  0
   57.1784   30.8890   42.8186 H   0  0  0  0  0  0  0  0  0  0  0  0
   57.5296   33.1974   43.0221 H   0  0  0  0  0  0  0  0  0  0  0  0
   57.9481   35.2032   44.4466 H   0  0  0  0  0  0  0  0  0  0  0  0
   58.4645   34.9285   46.8730 H   0  0  0  0  0  0  0  0  0  0  0  0
   58.5651   32.6470   47.8803 H   0  0  0  0  0  0  0  0  0  0  0  0
   58.1527   30.6345   46.4624 H   0  0  0  0  0  0  0  0  0  0  0  0
  1  2  1  0
  2  3  1  0
  3  4  2  0
  3  5  1  0
  5  6  2  0
  5  7  1  0
  7  8  1  0
  8  9  2  0
  9 10  1  0
 10 11  2  0
 11 12  1  0
 12 13  2  0
 13  8  1  0
  1 14  1  0
  1 15  1  0
  1 16  1  0
  2 17  1  0
  7 18  1  0
  7 19  1  0
  9 20  1  0
 10 21  1  0
 11 22  1  0
 12 23  1  0
 13 24  1  0
M  END
>  <UniqueID>  (22) 
20

>  <SMILES>  (22) 
CNC(=O)C(=O)Cc1ccccc1

>  <Energy>  (22) 
16.85072273424151

>  <Genealogy>  (22) 
CNC(=O)C(=O)Cc1ccccc1 (3D coordinates assigned)
CNC(=O)C(=O)Cc1ccccc1 (optimized conformer: 16.85072273424151 kcal/mol)

>  <smiles>  (22) 
CNC(=O)C(=O)Cc1ccccc1

>  <score_type>  (22) 
oracle

>  <origin>  (22) 
adg

>  <m_score__min__energy>  (22) 
-5.9299999999999997

>  <m_primary>  (22) 
energy

$$$$
22:0
     RDKit          3D

 53 55  0  0  0  0  0  0  0  0999 V2000
   61.7670   31.8910   49.7470 C   0  0  0  0  0  0  0  0  0  0  0  0
   60.5190   31.6410   49.0330 N   0  0  0  0  0  0  0  0  0  0  0  0
   60.3610   30.4340   48.2660 C   0  0  0  0  0  0  0  0  0  0  0  0
   60.7460   30.3990   46.9170 C   0  0  0  0  0  0  0  0  0  0  0  0
   60.6010   29.2210   46.1750 C   0  0  0  0  0  0  0  0  0  0  0  0
   60.0680   28.0740   46.7730 C   0  0  0  0  0  0  0  0  0  0  0  0
   59.6750   28.1020   48.1120 C   0  0  0  0  0  0  0  0  0  0  0  0
   59.8140   29.2780   48.8550 C   0  0  0  0  0  0  0  0  0  0  0  0
   59.2830   32.8690   48.9990 S   0  0  0  0  0  0  0  0  0  0  0  0
   57.9930   32.3340   49.5610 O   0  0  0  0  0  0  0  0  0  0  0  0
   59.7330   34.0330   49.8360 O   0  0  0  0  0  0  0  0  0  0  0  0
   59.0150   33.3780   47.3330 C   0  0  0  0  0  0  0  0  0  0  0  0
   59.4920   34.6130   46.8730 C   0  0  0  0  0  0  0  0  0  0  0  0
   59.2580   35.0010   45.5530 C   0  0  0  0  0  0  0  0  0  0  0  0
   58.5520   34.1600   44.6840 C   0  0  0  0  0  0  0  0  0  0  0  0
   58.0700   32.9180   45.1320 C   0  0  0  0  0  0  0  0  0  0  0  0
   57.3380   32.0070   44.2230 C   0  0  0  0  0  0  0  0  0  0  0  0
   57.4320   32.1410   42.9720 O   0  0  0  0  0  0  0  0  0  0  0  0
   56.5180   30.9700   44.7690 N   0  0  0  0  0  0  0  0  0  0  0  0
   56.1810   29.7410   44.0680 C   0  0  0  0  0  0  0  0  0  0  0  0
   56.7490   28.5870   44.8260 C   0  0  0  0  0  0  0  0  0  0  0  0
   57.9940   28.4130   44.8360 O   0  0  0  0  0  0  0  0  0  0  0  0
   55.8830   27.7670   45.6220 N   0  0  0  0  0  0  0  0  0  0  0  0
   56.1070   26.4100   46.0350 C   0  0  0  0  0  0  0  0  0  0  0  0
   55.1880   25.4270   45.6490 C   0  0  0  0  0  0  0  0  0  0  0  0
   55.3830   24.0890   46.0010 C   0  0  0  0  0  0  0  0  0  0  0  0
   56.5090   23.7150   46.7360 C   0  0  0  0  0  0  0  0  0  0  0  0
   56.7400   22.0270   47.1940 S   0  0  0  0  0  0  0  0  0  0  0  0
   57.1900   21.9390   48.8540 N   0  0  0  0  0  0  0  0  0  0  0  0
   57.8170   21.4050   46.3570 O   0  0  0  0  0  0  0  0  0  0  0  0
   55.4640   21.2670   46.9740 O   0  0  0  0  0  0  0  0  0  0  0  0
   57.4520   24.6890   47.1070 C   0  0  0  0  0  0  0  0  0  0  0  0
   57.2590   26.0270   46.7510 C   0  0  0  0  0  0  0  0  0  0  0  0
   58.3020   32.5440   46.4650 C   0  0  0  0  0  0  0  0  0  0  0  0
   61.5830   31.8542   50.8309 H   0  0  0  0  0  0  0  0  0  0  0  0
   62.5057   31.1230   49.4741 H   0  0  0  0  0  0  0  0  0  0  0  0
   62.1529   32.8843   49.4741 H   0  0  0  0  0  0  0  0  0  0  0  0
   61.1626   31.2993   46.4416 H   0  0  0  0  0  0  0  0  0  0  0  0
   60.9070   29.1970   45.1187 H   0  0  0  0  0  0  0  0  0  0  0  0
   59.9586   27.1493   46.1874 H   0  0  0  0  0  0  0  0  0  0  0  0
   59.2564   27.1999   48.5820 H   0  0  0  0  0  0  0  0  0  0  0  0
   59.4938   29.3004   49.9071 H   0  0  0  0  0  0  0  0  0  0  0  0
   60.0499   35.2754   47.5513 H   0  0  0  0  0  0  0  0  0  0  0  0
   59.6298   35.9719   45.1936 H   0  0  0  0  0  0  0  0  0  0  0  0
   58.3736   34.4732   43.6447 H   0  0  0  0  0  0  0  0  0  0  0  0
   55.0876   29.6394   44.0035 H   0  0  0  0  0  0  0  0  0  0  0  0
   56.5983   29.7632   43.0505 H   0  0  0  0  0  0  0  0  0  0  0  0
   54.3023   25.7112   45.0619 H   0  0  0  0  0  0  0  0  0  0  0  0
   54.6477   23.3289   45.6983 H   0  0  0  0  0  0  0  0  0  0  0  0
   57.7800   21.0880   48.9690 H   0  0  0  0  0  0  0  0  0  0  0  0
   58.3449   24.3974   47.6794 H   0  0  0  0  0  0  0  0  0  0  0  0
   58.0080   26.7827   47.0303 H   0  0  0  0  0  0  0  0  0  0  0  0
   57.9176   31.5811   46.8325 H   0  0  0  0  0  0  0  0  0  0  0  0
  1  2  1  0
  2  3  1  0
  3  4  2  0
  4  5  1  0
  5  6  2  0
  6  7  1  0
  7  8  2  0
  2  9  1  0
  9 10  2  0
  9 11  2  0
  9 12  1  0
 12 13  2  0
 13 14  1  0
 14 15  2  0
 15 16  1  0
 16 17  1  0
 17 18  2  0
 17 19  1  0
 19 20  1  0
 20 21  1  0
 21 22  2  0
 21 23  1  0
 23 24  1  0
 24 25  2  0
 25 26  1  0
 26 27  2  0
 27 28  1  0
 28 29  1  0
 28 30  2  0
 28 31  2  0
 27 32  1  0
 32 33  2  0
 16 34  2  0
  8  3  1  0
 34 12  1  0
 33 24  1  0
  1 35  1  0
  1 36  1  0
  1 37  1  0
  4 38  1  0
  5 39  1  0
  6 40  1  0
  7 41  1  0
  8 42  1  0
 13 43  1  0
 14 44  1  0
 15 45  1  0
 20 46  1  0
 20 47  1  0
 25 48  1  0
 26 49  1  0
 29 50  1  0
 32 51  1  0
 33 52  1  0
 34 53  1  0
M  CHG  3  19  -1  23  -1  29  -1
M  END
>  <UniqueID>  (23) 
21

>  <SMILES>  (23) 
CN(c1ccccc1)S(=O)(=O)c1cccc(C(=O)[N-]CC(=O)[N-]c2ccc(S([NH-])(=O)=O)cc2)c1

>  <Energy>  (23) 
59.210624236887696

>  <Genealogy>  (23) 
CN(c1ccccc1)S(=O)(=O)c1cccc(C(=O)[N-]CC(=O)[N-]c2ccc(S([NH-])(=O)=O)cc2)c1 (protonated)
CN(c1ccccc1)S(=O)(=O)c1cccc(C(=O)[N-]CC(=O)[N-]c2ccc(S([NH-])(=O)=O)cc2)c1 (3D coordinates assigned)
CN(c1ccccc1)S(=O)(=O)c1cccc(C(=O)[N-]CC(=O)[N-]c2ccc(S([NH-])(=O)=O)cc2)c1 (optimized conformer: 59.210624236887696 kcal/mol)

>  <smiles>  (23) 
CN(c1ccccc1)S(=O)(=O)c1cccc(C(=O)NCC(=O)Nc2ccc(S(N)(=O)=O)cc2)c1

>  <score_type>  (23) 
oracle

>  <origin>  (23) 
adg

>  <m_score__min__energy>  (23) 
-14.73

>  <m_primary>  (23) 
energy

$$$$
23:0
     RDKit          3D

 35 36  0  0  0  0  0  0  0  0999 V2000
   58.5370   33.1470   46.7300 C   0  0  0  0  0  0  0  0  0  0  0  0
   58.2670   31.8470   46.2150 O   0  0  0  0  0  0  0  0  0  0  0  0
   57.8540   31.5820   44.8980 C   0  0  0  0  0  0  0  0  0  0  0  0
   58.1120   32.4810   43.8420 C   0  0  0  0  0  0  0  0  0  0  0  0
   57.6820   32.1910   42.5460 C   0  0  0  0  0  0  0  0  0  0  0  0
   56.9910   31.0080   42.2860 C   0  0  0  0  0  0  0  0  0  0  0  0
   56.7290   30.1080   43.3200 C   0  0  0  0  0  0  0  0  0  0  0  0
   57.1600   30.3840   44.6290 C   0  0  0  0  0  0  0  0  0  0  0  0
   56.8530   29.4130   45.7400 C   0  0  0  0  0  0  0  0  0  0  0  0
   56.2080   28.2180   45.2080 N   0  0  0  0  0  0  0  0  0  0  0  0
   56.2220   26.9490   45.8700 C   0  0  0  0  0  0  0  0  0  0  0  0
   55.1430   26.3800   46.1870 O   0  0  0  0  0  0  0  0  0  0  0  0
   57.5280   26.2790   46.1520 C   0  0  0  0  0  0  0  0  0  0  0  0
   58.6700   27.2380   45.9130 C   0  0  0  0  0  0  0  0  0  0  0  0
   59.3600   27.7890   47.0130 C   0  0  0  0  0  0  0  0  0  0  0  0
   59.0240   27.4490   48.2830 F   0  0  0  0  0  0  0  0  0  0  0  0
   60.4010   28.6990   46.8100 C   0  0  0  0  0  0  0  0  0  0  0  0
   60.7580   29.0800   45.5160 C   0  0  0  0  0  0  0  0  0  0  0  0
   60.0740   28.5550   44.4190 C   0  0  0  0  0  0  0  0  0  0  0  0
   59.0290   27.6420   44.6060 C   0  0  0  0  0  0  0  0  0  0  0  0
   58.1920   27.0370   43.1800 Cl  0  0  0  0  0  0  0  0  0  0  0  0
   58.5302   33.1145   47.8295 H   0  0  0  0  0  0  0  0  0  0  0  0
   59.5240   33.4827   46.3791 H   0  0  0  0  0  0  0  0  0  0  0  0
   57.7653   33.8480   46.3791 H   0  0  0  0  0  0  0  0  0  0  0  0
   58.6554   33.4164   44.0411 H   0  0  0  0  0  0  0  0  0  0  0  0
   57.8886   32.8971   41.7282 H   0  0  0  0  0  0  0  0  0  0  0  0
   56.6518   30.7837   41.2639 H   0  0  0  0  0  0  0  0  0  0  0  0
   56.1820   29.1772   43.1093 H   0  0  0  0  0  0  0  0  0  0  0  0
   57.7899   29.1268   46.2402 H   0  0  0  0  0  0  0  0  0  0  0  0
   56.1731   29.8956   46.4575 H   0  0  0  0  0  0  0  0  0  0  0  0
   57.5465   25.9463   47.2003 H   0  0  0  0  0  0  0  0  0  0  0  0
   57.6396   25.4145   45.4810 H   0  0  0  0  0  0  0  0  0  0  0  0
   60.9406   29.1162   47.6730 H   0  0  0  0  0  0  0  0  0  0  0  0
   61.5794   29.7949   45.3606 H   0  0  0  0  0  0  0  0  0  0  0  0
   60.3575   28.8603   43.4009 H   0  0  0  0  0  0  0  0  0  0  0  0
  1  2  1  0
  2  3  1  0
  3  4  2  0
  4  5  1  0
  5  6  2  0
  6  7  1  0
  7  8  2  0
  8  9  1  0
  9 10  1  0
 10 11  1  0
 11 12  2  0
 11 13  1  0
 13 14  1  0
 14 15  2  0
 15 16  1  0
 15 17  1  0
 17 18  2  0
 18 19  1  0
 19 20  2  0
 20 21  1  0
  8  3  1  0
 20 14  1  0
  1 22  1  0
  1 23  1  0
  1 24  1  0
  4 25  1  0
  5 26  1  0
  6 27  1  0
  7 28  1  0
  9 29  1  0
  9 30  1  0
 13 31  1  0
 13 32  1  0
 17 33  1  0
 18 34  1  0
 19 35  1  0
M  CHG  1  10  -1
M  END
>  <UniqueID>  (24) 
22

>  <SMILES>  (24) 
COc1ccccc1C[N-]C(=O)Cc1c(F)cccc1Cl

>  <Energy>  (24) 
32.81099243575473

>  <Genealogy>  (24) 
COc1ccccc1C[N-]C(=O)Cc1c(F)cccc1Cl (protonated)
COc1ccccc1C[N-]C(=O)Cc1c(F)cccc1Cl (3D coordinates assigned)
COc1ccccc1C[N-]C(=O)Cc1c(F)cccc1Cl (optimized conformer: 32.81099243575473 kcal/mol)

>  <smiles>  (24) 
COc1ccccc1CNC(=O)Cc1c(F)cccc1Cl

>  <score_type>  (24) 
oracle

>  <origin>  (24) 
adg

>  <m_score__min__energy>  (24) 
-9.4100000000000001

>  <m_primary>  (24) 
energy

$$$$
24:0
     RDKit          3D

 42 44  0  0  0  0  0  0  0  0999 V2000
   60.3720   27.9450   48.5500 C   0  0  0  0  0  0  0  0  0  0  0  0
   60.9520   26.6870   47.9070 C   0  0  0  0  0  0  0  0  0  0  0  0
   60.3550   26.4500   46.6310 O   0  0  0  0  0  0  0  0  0  0  0  0
   59.3540   27.2380   46.0380 C   0  0  0  0  0  0  0  0  0  0  0  0
   59.7510   28.2710   45.1780 C   0  0  0  0  0  0  0  0  0  0  0  0
   58.7980   29.0850   44.5600 C   0  0  0  0  0  0  0  0  0  0  0  0
   57.4330   28.8760   44.7920 C   0  0  0  0  0  0  0  0  0  0  0  0
   56.2440   29.9290   44.0290 S   0  0  0  0  0  0  0  0  0  0  0  0
   54.8670   29.3310   44.1090 O   0  0  0  0  0  0  0  0  0  0  0  0
   56.6100   30.1110   42.5830 O   0  0  0  0  0  0  0  0  0  0  0  0
   56.2420   31.4740   44.8160 N   0  0  0  0  0  0  0  0  0  0  0  0
   57.4130   32.1810   45.2530 C   0  0  0  0  0  0  0  0  0  0  0  0
   57.7830   33.4220   44.7110 C   0  0  0  0  0  0  0  0  0  0  0  0
   58.9180   34.0890   45.1810 C   0  0  0  0  0  0  0  0  0  0  0  0
   59.6960   33.5300   46.2050 C   0  0  0  0  0  0  0  0  0  0  0  0
   59.3450   32.2710   46.7370 C   0  0  0  0  0  0  0  0  0  0  0  0
   58.1970   31.6160   46.2660 C   0  0  0  0  0  0  0  0  0  0  0  0
   60.1300   31.6780   47.8840 C   0  0  0  0  0  0  0  0  0  0  0  0
   61.5010   32.2040   47.9480 N   0  0  0  0  0  0  0  0  0  0  0  0
   61.4900   33.6730   47.9680 C   0  0  0  0  0  0  0  0  0  0  0  0
   60.9490   34.2380   46.6490 C   0  0  0  0  0  0  0  0  0  0  0  0
   57.0270   27.8400   45.6450 C   0  0  0  0  0  0  0  0  0  0  0  0
   57.9780   27.0270   46.2660 C   0  0  0  0  0  0  0  0  0  0  0  0
   60.4156   27.8505   49.6451 H   0  0  0  0  0  0  0  0  0  0  0  0
   60.9570   28.8213   48.2340 H   0  0  0  0  0  0  0  0  0  0  0  0
   59.3257   28.0692   48.2340 H   0  0  0  0  0  0  0  0  0  0  0  0
   62.0372   26.8142   47.7797 H   0  0  0  0  0  0  0  0  0  0  0  0
   60.7421   25.8273   48.5604 H   0  0  0  0  0  0  0  0  0  0  0  0
   60.8209   28.4423   44.9881 H   0  0  0  0  0  0  0  0  0  0  0  0
   59.1216   29.8937   43.8882 H   0  0  0  0  0  0  0  0  0  0  0  0
   57.1761   33.8722   43.9116 H   0  0  0  0  0  0  0  0  0  0  0  0
   59.2025   35.0580   44.7450 H   0  0  0  0  0  0  0  0  0  0  0  0
   57.9093   30.6462   46.6982 H   0  0  0  0  0  0  0  0  0  0  0  0
   59.6148   31.9157   48.8264 H   0  0  0  0  0  0  0  0  0  0  0  0
   60.1919   30.5913   47.7252 H   0  0  0  0  0  0  0  0  0  0  0  0
   62.0320   31.8770   47.1070 H   0  0  0  0  0  0  0  0  0  0  0  0
   60.8512   34.0165   48.7950 H   0  0  0  0  0  0  0  0  0  0  0  0
   62.5220   34.0287   48.1038 H   0  0  0  0  0  0  0  0  0  0  0  0
   60.7242   35.3061   46.7856 H   0  0  0  0  0  0  0  0  0  0  0  0
   61.7163   34.0893   45.8750 H   0  0  0  0  0  0  0  0  0  0  0  0
   55.9559   27.6669   45.8258 H   0  0  0  0  0  0  0  0  0  0  0  0
   57.6522   26.2180   46.9363 H   0  0  0  0  0  0  0  0  0  0  0  0
  1  2  1  0
  2  3  1  0
  3  4  1  0
  4  5  2  0
  5  6  1  0
  6  7  2  0
  7  8  1  0
  8  9  2  0
  8 10  2  0
  8 11  1  0
 11 12  1  0
 12 13  2  0
 13 14  1  0
 14 15  2  0
 15 16  1  0
 16 17  2  0
 16 18  1  0
 18 19  1  0
 19 20  1  0
 20 21  1  0
  7 22  1  0
 22 23  2  0
 23  4  1  0
 17 12  1  0
 21 15  1  0
  1 24  1  0
  1 25  1  0
  1 26  1  0
  2 27  1  0
  2 28  1  0
  5 29  1  0
  6 30  1  0
 13 31  1  0
 14 32  1  0
 17 33  1  0
 18 34  1  0
 18 35  1  0
 19 36  1  0
 20 37  1  0
 20 38  1  0
 21 39  1  0
 21 40  1  0
 22 41  1  0
 23 42  1  0
M  CHG  1  11  -1
M  END
>  <UniqueID>  (25) 
23

>  <SMILES>  (25) 
CCOc1ccc(S(=O)(=O)[N-]c2ccc3c(c2)CNCC3)cc1

>  <Energy>  (25) 
46.27419250252106

>  <Genealogy>  (25) 
CCOc1ccc(S(=O)(=O)[N-]c2ccc3c(c2)CNCC3)cc1 (protonated)
CCOc1ccc(S(=O)(=O)[N-]c2ccc3c(c2)CNCC3)cc1 (3D coordinates assigned)
CCOc1ccc(S(=O)(=O)[N-]c2ccc3c(c2)CNCC3)cc1 (nonaromatic ring conformer: 46.27419250252106 kcal/mol)

>  <smiles>  (25) 
CCOc1ccc(S(=O)(=O)Nc2ccc3c(c2)CNCC3)cc1

>  <score_type>  (25) 
oracle

>  <origin>  (25) 
adg

>  <m_score__min__energy>  (25) 
-8.7599999999999998

>  <m_primary>  (25) 
energy

$$$$
25:0
     RDKit          3D

 43 45  0  0  0  0  0  0  0  0999 V2000
   58.1370   32.1500   42.2260 C   0  0  0  0  0  0  0  0  0  0  0  0
   56.9620   31.1840   42.3770 C   0  0  0  0  0  0  0  0  0  0  0  0
   57.3450   29.8950   43.1160 C   0  0  0  0  0  0  0  0  0  0  0  0
   56.6550   29.8120   44.7670 S   0  0  0  0  0  0  0  0  0  0  0  0
   56.4030   28.3810   45.1540 O   0  0  0  0  0  0  0  0  0  0  0  0
   55.3440   30.5460   44.8110 O   0  0  0  0  0  0  0  0  0  0  0  0
   57.7720   30.5500   45.8930 N   0  0  0  0  0  0  0  0  0  0  0  0
   58.4920   29.6510   46.7810 C   0  0  0  0  0  0  0  0  0  0  0  0
   59.9120   29.4990   46.2600 C   0  0  0  0  0  0  0  0  0  0  0  0
   60.7370   30.5380   46.8360 N   0  0  0  0  0  0  0  0  0  0  0  0
   60.5350   31.8230   46.8100 C   0  0  0  0  0  0  0  0  0  0  0  0
   61.4860   32.6350   47.6110 C   0  0  0  0  0  0  0  0  0  0  0  0
   61.0230   33.4160   48.6850 C   0  0  0  0  0  0  0  0  0  0  0  0
   61.9150   34.1960   49.4270 C   0  0  0  0  0  0  0  0  0  0  0  0
   63.2720   34.2130   49.0980 C   0  0  0  0  0  0  0  0  0  0  0  0
   63.7410   33.4530   48.0230 C   0  0  0  0  0  0  0  0  0  0  0  0
   62.8530   32.6710   47.2790 C   0  0  0  0  0  0  0  0  0  0  0  0
   59.4030   32.5070   46.0700 C   0  0  0  0  0  0  0  0  0  0  0  0
   59.6500   33.8430   45.6670 C   0  0  0  0  0  0  0  0  0  0  0  0
   58.6400   34.6580   45.1680 C   0  0  0  0  0  0  0  0  0  0  0  0
   57.3490   34.1690   45.0530 C   0  0  0  0  0  0  0  0  0  0  0  0
   57.0810   32.8410   45.3650 C   0  0  0  0  0  0  0  0  0  0  0  0
   58.0960   31.9620   45.8020 C   0  0  0  0  0  0  0  0  0  0  0  0
   58.4980   32.4468   43.2218 H   0  0  0  0  0  0  0  0  0  0  0  0
   58.9497   31.6554   41.6738 H   0  0  0  0  0  0  0  0  0  0  0  0
   57.8089   33.0430   41.6738 H   0  0  0  0  0  0  0  0  0  0  0  0
   56.1625   31.6879   42.9400 H   0  0  0  0  0  0  0  0  0  0  0  0
   56.6326   30.9016   41.3662 H   0  0  0  0  0  0  0  0  0  0  0  0
   56.9767   29.0351   42.5373 H   0  0  0  0  0  0  0  0  0  0  0  0
   58.4406   29.8814   43.2133 H   0  0  0  0  0  0  0  0  0  0  0  0
   58.5120   30.0701   47.7978 H   0  0  0  0  0  0  0  0  0  0  0  0
   57.9936   28.6709   46.8125 H   0  0  0  0  0  0  0  0  0  0  0  0
   60.3067   28.5130   46.5464 H   0  0  0  0  0  0  0  0  0  0  0  0
   59.9174   29.5844   45.1633 H   0  0  0  0  0  0  0  0  0  0  0  0
   59.9536   33.4132   48.9426 H   0  0  0  0  0  0  0  0  0  0  0  0
   61.5472   34.7974   50.2714 H   0  0  0  0  0  0  0  0  0  0  0  0
   63.9723   34.8250   49.6854 H   0  0  0  0  0  0  0  0  0  0  0  0
   64.8095   33.4703   47.7623 H   0  0  0  0  0  0  0  0  0  0  0  0
   63.2249   32.0802   46.4289 H   0  0  0  0  0  0  0  0  0  0  0  0
   60.6697   34.2467   45.7514 H   0  0  0  0  0  0  0  0  0  0  0  0
   58.8661   35.6909   44.8646 H   0  0  0  0  0  0  0  0  0  0  0  0
   56.5374   34.8303   44.7154 H   0  0  0  0  0  0  0  0  0  0  0  0
   56.0516   32.4653   45.2690 H   0  0  0  0  0  0  0  0  0  0  0  0
  1  2  1  0
  2  3  1  0
  3  4  1  0
  4  5  2  0
  4  6  2  0
  4  7  1  0
  7  8  1  0
  8  9  1  0
  9 10  1  0
 10 11  2  0
 11 12  1  0
 12 13  2  0
 13 14  1  0
 14 15  2  0
 15 16  1  0
 16 17  2  0
 11 18  1  0
 18 19  2  0
 19 20  1  0
 20 21  2  0
 21 22  1  0
 22 23  2  0
 23  7  1  0
 17 12  1  0
 23 18  1  0
  1 24  1  0
  1 25  1  0
  1 26  1  0
  2 27  1  0
  2 28  1  0
  3 29  1  0
  3 30  1  0
  8 31  1  0
  8 32  1  0
  9 33  1  0
  9 34  1  0
 13 35  1  0
 14 36  1  0
 15 37  1  0
 16 38  1  0
 17 39  1  0
 19 40  1  0
 20 41  1  0
 21 42  1  0
 22 43  1  0
M  END
>  <UniqueID>  (26) 
24

>  <SMILES>  (26) 
CCCS(=O)(=O)N1CCN=C(c2ccccc2)c2ccccc21

>  <Energy>  (26) 
62.946013444003285

>  <Genealogy>  (26) 
CCCS(=O)(=O)N1CCN=C(c2ccccc2)c2ccccc21 (3D coordinates assigned)
CCCS(=O)(=O)N1CCN=C(c2ccccc2)c2ccccc21 (nonaromatic ring conformer: 62.946013444003285 kcal/mol)

>  <smiles>  (26) 
CCCS(=O)(=O)N1CCN=C(c2ccccc2)c2ccccc21

>  <score_type>  (26) 
oracle

>  <origin>  (26) 
adg

>  <m_score__min__energy>  (26) 
-7.0800000000000001

>  <m_primary>  (26) 
energy

$$$$
26:0
     RDKit          3D

 43 45  0  0  0  0  0  0  0  0999 V2000
   59.3060   34.9910   44.8590 C   0  0  0  0  0  0  0  0  0  0  0  0
   59.1250   34.2010   46.0840 N   0  0  0  0  0  0  0  0  0  0  0  0
   59.3810   34.9540   47.3300 C   0  0  0  0  0  0  0  0  0  0  0  0
   59.9880   34.1310   48.4970 C   0  0  0  0  0  0  0  0  0  0  0  0
   61.4490   33.7960   48.3020 C   0  0  0  0  0  0  0  0  0  0  0  0
   62.2380   33.3730   49.3880 C   0  0  0  0  0  0  0  0  0  0  0  0
   63.5790   33.0280   49.1970 C   0  0  0  0  0  0  0  0  0  0  0  0
   64.1380   33.0740   47.9190 C   0  0  0  0  0  0  0  0  0  0  0  0
   63.3550   33.4590   46.8280 C   0  0  0  0  0  0  0  0  0  0  0  0
   62.0160   33.8100   47.0150 C   0  0  0  0  0  0  0  0  0  0  0  0
   57.6010   33.3430   46.0690 S   0  0  0  0  0  0  0  0  0  0  0  0
   56.6060   34.1230   45.2560 O   0  0  0  0  0  0  0  0  0  0  0  0
   57.0770   33.2280   47.4730 O   0  0  0  0  0  0  0  0  0  0  0  0
   57.7680   31.7300   45.3400 C   0  0  0  0  0  0  0  0  0  0  0  0
   56.9820   31.4290   44.2230 C   0  0  0  0  0  0  0  0  0  0  0  0
   57.0100   30.1640   43.6490 C   0  0  0  0  0  0  0  0  0  0  0  0
   57.8310   29.1610   44.1600 C   0  0  0  0  0  0  0  0  0  0  0  0
   57.7680   27.9120   43.5350 O   0  0  0  0  0  0  0  0  0  0  0  0
   58.6780   29.4430   45.2640 C   0  0  0  0  0  0  0  0  0  0  0  0
   59.5520   28.4690   45.7980 C   0  0  0  0  0  0  0  0  0  0  0  0
   60.3920   28.7750   46.8680 C   0  0  0  0  0  0  0  0  0  0  0  0
   60.3860   30.0490   47.4230 C   0  0  0  0  0  0  0  0  0  0  0  0
   59.5350   31.0300   46.9190 C   0  0  0  0  0  0  0  0  0  0  0  0
   58.6590   30.7470   45.8480 C   0  0  0  0  0  0  0  0  0  0  0  0
   59.5443   36.0313   45.1255 H   0  0  0  0  0  0  0  0  0  0  0  0
   60.1301   34.5661   44.2671 H   0  0  0  0  0  0  0  0  0  0  0  0
   58.3791   34.9672   44.2671 H   0  0  0  0  0  0  0  0  0  0  0  0
   60.0777   35.7719   47.0942 H   0  0  0  0  0  0  0  0  0  0  0  0
   58.3969   35.2964   47.6827 H   0  0  0  0  0  0  0  0  0  0  0  0
   59.8851   34.7135   49.4244 H   0  0  0  0  0  0  0  0  0  0  0  0
   59.4403   33.1780   48.5402 H   0  0  0  0  0  0  0  0  0  0  0  0
   61.7964   33.3135   50.3937 H   0  0  0  0  0  0  0  0  0  0  0  0
   64.1945   32.7199   50.0550 H   0  0  0  0  0  0  0  0  0  0  0  0
   65.1948   32.8072   47.7708 H   0  0  0  0  0  0  0  0  0  0  0  0
   63.7938   33.4858   45.8197 H   0  0  0  0  0  0  0  0  0  0  0  0
   61.4010   34.0992   46.1501 H   0  0  0  0  0  0  0  0  0  0  0  0
   56.3321   32.2051   43.7926 H   0  0  0  0  0  0  0  0  0  0  0  0
   56.3739   29.9510   42.7772 H   0  0  0  0  0  0  0  0  0  0  0  0
   56.9220   27.4740   43.2030 H   0  0  0  0  0  0  0  0  0  0  0  0
   59.5697   27.4581   45.3646 H   0  0  0  0  0  0  0  0  0  0  0  0
   61.0628   28.0040   47.2749 H   0  0  0  0  0  0  0  0  0  0  0  0
   61.0557   30.2837   48.2634 H   0  0  0  0  0  0  0  0  0  0  0  0
   59.5455   32.0374   47.3606 H   0  0  0  0  0  0  0  0  0  0  0  0
  1  2  1  0
  2  3  1  0
  3  4  1  0
  4  5  1  0
  5  6  2  0
  6  7  1  0
  7  8  2  0
  8  9  1  0
  9 10  2  0
  2 11  1  0
 11 12  2  0
 11 13  2  0
 11 14  1  0
 14 15  2  0
 15 16  1  0
 16 17  2  0
 17 18  1  0
 17 19  1  0
 19 20  2  0
 20 21  1  0
 21 22  2  0
 22 23  1  0
 23 24  2  0
 10  5  1  0
 24 14  1  0
 24 19  1  0
  1 25  1  0
  1 26  1  0
  1 27  1  0
  3 28  1  0
  3 29  1  0
  4 30  1  0
  4 31  1  0
  6 32  1  0
  7 33  1  0
  8 34  1  0
  9 35  1  0
 10 36  1  0
 15 37  1  0
 16 38  1  0
 18 39  1  0
 20 40  1  0
 21 41  1  0
 22 42  1  0
 23 43  1  0
M  END
>  <UniqueID>  (27) 
25

>  <SMILES>  (27) 
CN(CCc1ccccc1)S(=O)(=O)c1ccc(O)c2ccccc12

>  <Energy>  (27) 
56.16283884308352

>  <Genealogy>  (27) 
CN(CCc1ccccc1)S(=O)(=O)c1ccc(O)c2ccccc12 (3D coordinates assigned)
CN(CCc1ccccc1)S(=O)(=O)c1ccc(O)c2ccccc12 (optimized conformer: 56.16283884308352 kcal/mol)

>  <smiles>  (27) 
CN(CCc1ccccc1)S(=O)(=O)c1ccc(O)c2ccccc12

>  <score_type>  (27) 
oracle

>  <origin>  (27) 
adg

>  <m_score__min__energy>  (27) 
-8.4100000000000001

>  <m_primary>  (27) 
energy

$$$$
27:0
     RDKit          3D

 42 45  0  0  0  0  0  0  0  0999 V2000
   64.0058   31.4082   51.2234 H   0  0  0  0  0  0  0  0  0  0  0  0
   63.7630   31.7690   50.2130 C   0  0  0  0  0  0  0  0  0  0  0  0
   62.6930   31.2080   49.5090 C   0  0  0  0  0  0  0  0  0  0  0  0
   62.0926   30.4092   49.9688 H   0  0  0  0  0  0  0  0  0  0  0  0
   62.3830   31.6610   48.2180 C   0  0  0  0  0  0  0  0  0  0  0  0
   61.2720   31.0540   47.4640 C   0  0  0  0  0  0  0  0  0  0  0  0
   59.9040   31.2910   47.6570 C   0  0  0  0  0  0  0  0  0  0  0  0
   59.2460   32.0390   48.7510 C   0  0  0  0  0  0  0  0  0  0  0  0
   58.2810   31.5150   49.3700 O   0  0  0  0  0  0  0  0  0  0  0  0
   59.7210   33.3980   49.1710 C   0  0  0  0  0  0  0  0  0  0  0  0
   59.3234   33.6327   50.1694 H   0  0  0  0  0  0  0  0  0  0  0  0
   60.8205   33.4081   49.2017 H   0  0  0  0  0  0  0  0  0  0  0  0
   59.2530   34.3950   48.2150 N   0  0  0  0  0  0  0  0  0  0  0  0
   58.8070   34.1580   47.0130 C   0  0  0  0  0  0  0  0  0  0  0  0
   59.7010   34.2350   45.9380 C   0  0  0  0  0  0  0  0  0  0  0  0
   60.7625   34.4610   46.1175 H   0  0  0  0  0  0  0  0  0  0  0  0
   59.2400   34.0240   44.6390 C   0  0  0  0  0  0  0  0  0  0  0  0
   59.9362   34.0863   43.7897 H   0  0  0  0  0  0  0  0  0  0  0  0
   57.8950   33.7340   44.4200 C   0  0  0  0  0  0  0  0  0  0  0  0
   57.5207   33.5707   43.3986 H   0  0  0  0  0  0  0  0  0  0  0  0
   57.0280   33.6530   45.5100 C   0  0  0  0  0  0  0  0  0  0  0  0
   55.9655   33.4191   45.3476 H   0  0  0  0  0  0  0  0  0  0  0  0
   57.4900   33.8620   46.7740 N   0  0  0  0  0  0  0  0  0  0  0  0
   56.8000   33.7850   47.5540 H   0  0  0  0  0  0  0  0  0  0  0  0
   59.2720   30.5790   46.6500 C   0  0  0  0  0  0  0  0  0  0  0  0
   57.9180   30.4080   46.3500 C   0  0  0  0  0  0  0  0  0  0  0  0
   57.1379   30.8995   46.9499 H   0  0  0  0  0  0  0  0  0  0  0  0
   57.5830   29.5870   45.2560 C   0  0  0  0  0  0  0  0  0  0  0  0
   55.8990   29.3460   44.8330 Cl  0  0  0  0  0  0  0  0  0  0  0  0
   58.5960   28.9540   44.5010 C   0  0  0  0  0  0  0  0  0  0  0  0
   58.3233   28.3177   43.6462 H   0  0  0  0  0  0  0  0  0  0  0  0
   59.9500   29.1320   44.8350 C   0  0  0  0  0  0  0  0  0  0  0  0
   60.7462   28.6404   44.2567 H   0  0  0  0  0  0  0  0  0  0  0  0
   60.2520   29.9510   45.9220 C   0  0  0  0  0  0  0  0  0  0  0  0
   61.4720   30.2290   46.4120 N   0  0  0  0  0  0  0  0  0  0  0  0
   62.3890   29.8960   46.0360 H   0  0  0  0  0  0  0  0  0  0  0  0
   63.1250   32.7090   47.6560 C   0  0  0  0  0  0  0  0  0  0  0  0
   62.8612   33.0964   46.6608 H   0  0  0  0  0  0  0  0  0  0  0  0
   64.2000   33.2630   48.3580 C   0  0  0  0  0  0  0  0  0  0  0  0
   64.7912   34.0733   47.9065 H   0  0  0  0  0  0  0  0  0  0  0  0
   64.5250   32.7890   49.6330 C   0  0  0  0  0  0  0  0  0  0  0  0
   65.8900   33.4660   50.5030 Cl  0  0  0  0  0  0  0  0  0  0  0  0
  1  2  1  0
  2  3  2  0
  3  4  1  0
  3  5  1  0
  5  6  1  0
  6  7  2  0
  7  8  1  0
  8  9  2  0
  8 10  1  0
 10 11  1  0
 10 12  1  0
 10 13  1  0
 13 14  2  0
 14 15  1  0
 15 16  1  0
 15 17  2  0
 17 18  1  0
 17 19  1  0
 19 20  1  0
 19 21  2  0
 21 22  1  0
 21 23  1  0
 23 24  1  0
  7 25  1  0
 25 26  2  0
 26 27  1  0
 26 28  1  0
 28 29  1  0
 28 30  2  0
 30 31  1  0
 30 32  1  0
 32 33  1  0
 32 34  2  0
 34 35  1  0
 35 36  1  0
  5 37  2  0
 37 38  1  0
 37 39  1  0
 39 40  1  0
 39 41  2  0
 41 42  1  0
 41  2  1  0
 35  6  1  0
 23 14  1  0
 34 25  1  0
M  END
>  <UniqueID>  (28) 
26

>  <SMILES>  (28) 
O=C(C/N=c1/cccc[nH]1)c1c(-c2ccc(Cl)cc2)[nH]c2ccc(Cl)cc12

>  <Energy>  (28) 
85.80523881034156

>  <Genealogy>  (28) 
O=C(C/N=c1/cccc[nH]1)c1c(-c2ccc(Cl)cc2)[nH]c2ccc(Cl)cc12 (cis-trans isomerization)
O=C(C/N=c1/cccc[nH]1)c1c(-c2ccc(Cl)cc2)[nH]c2ccc(Cl)cc12 (3D coordinates assigned)
O=C(C/N=c1/cccc[nH]1)c1c(-c2ccc(Cl)cc2)[nH]c2ccc(Cl)cc12 (optimized conformer: 85.80523881034156 kcal/mol)

>  <smiles>  (28) 
O=C(CN=c1cccc[nH]1)c1c(-c2ccc(Cl)cc2)[nH]c2ccc(Cl)cc12

>  <score_type>  (28) 
oracle

>  <origin>  (28) 
adg

>  <m_score__min__energy>  (28) 
-8.5800000000000001

>  <m_primary>  (28) 
energy

$$$$
28:0
     RDKit          3D

 36 38  0  0  0  0  0  0  0  0999 V2000
   55.2070   29.3300   44.9510 N   0  0  0  0  0  0  0  0  0  0  0  0
   56.5320   30.3170   44.4470 S   0  0  0  0  0  0  0  0  0  0  0  0
   56.6520   30.2700   42.9480 O   0  0  0  0  0  0  0  0  0  0  0  0
   56.2810   31.7390   44.8630 O   0  0  0  0  0  0  0  0  0  0  0  0
   58.0210   29.7400   45.1890 C   0  0  0  0  0  0  0  0  0  0  0  0
   58.9630   29.0470   44.4190 C   0  0  0  0  0  0  0  0  0  0  0  0
   60.1360   28.5670   45.0090 C   0  0  0  0  0  0  0  0  0  0  0  0
   60.3770   28.7860   46.3680 C   0  0  0  0  0  0  0  0  0  0  0  0
   59.4610   29.5130   47.1360 C   0  0  0  0  0  0  0  0  0  0  0  0
   59.7270   29.7290   48.5270 N   0  0  0  0  0  0  0  0  0  0  0  0
   58.8780   30.4620   49.4200 C   0  0  0  0  0  0  0  0  0  0  0  0
   58.0710   29.8270   50.1470 O   0  0  0  0  0  0  0  0  0  0  0  0
   58.9810   31.9560   49.5690 C   0  0  0  0  0  0  0  0  0  0  0  0
   59.6250   32.5640   48.3560 C   0  0  0  0  0  0  0  0  0  0  0  0
   60.9800   32.5210   48.0330 C   0  0  0  0  0  0  0  0  0  0  0  0
   61.1990   33.1020   46.8310 N   0  0  0  0  0  0  0  0  0  0  0  0
   59.9960   33.5110   46.3920 C   0  0  0  0  0  0  0  0  0  0  0  0
   59.7120   34.1490   45.1850 C   0  0  0  0  0  0  0  0  0  0  0  0
   58.3720   34.4830   44.9170 C   0  0  0  0  0  0  0  0  0  0  0  0
   57.3580   34.1820   45.8550 C   0  0  0  0  0  0  0  0  0  0  0  0
   57.6770   33.5400   47.0640 C   0  0  0  0  0  0  0  0  0  0  0  0
   59.0110   33.2090   47.2970 C   0  0  0  0  0  0  0  0  0  0  0  0
   58.2750   29.9770   46.5490 C   0  0  0  0  0  0  0  0  0  0  0  0
   55.5180   28.3370   44.8690 H   0  0  0  0  0  0  0  0  0  0  0  0
   58.7797   28.8799   43.3473 H   0  0  0  0  0  0  0  0  0  0  0  0
   60.8702   28.0162   44.4027 H   0  0  0  0  0  0  0  0  0  0  0  0
   61.2890   28.3858   46.8350 H   0  0  0  0  0  0  0  0  0  0  0  0
   57.9725   32.3775   49.6927 H   0  0  0  0  0  0  0  0  0  0  0  0
   59.5986   32.1832   50.4504 H   0  0  0  0  0  0  0  0  0  0  0  0
   61.7619   32.0769   48.6666 H   0  0  0  0  0  0  0  0  0  0  0  0
   62.1170   33.2010   46.3430 H   0  0  0  0  0  0  0  0  0  0  0  0
   60.5103   34.3836   44.4654 H   0  0  0  0  0  0  0  0  0  0  0  0
   58.1115   34.9815   43.9717 H   0  0  0  0  0  0  0  0  0  0  0  0
   56.3140   34.4516   45.6375 H   0  0  0  0  0  0  0  0  0  0  0  0
   56.8975   33.3058   47.8040 H   0  0  0  0  0  0  0  0  0  0  0  0
   57.5417   30.5282   47.1560 H   0  0  0  0  0  0  0  0  0  0  0  0
  1  2  1  0
  2  3  2  0
  2  4  2  0
  2  5  1  0
  5  6  2  0
  6  7  1  0
  7  8  2  0
  8  9  1  0
  9 10  1  0
 10 11  1  0
 11 12  2  0
 11 13  1  0
 13 14  1  0
 14 15  2  0
 15 16  1  0
 16 17  1  0
 17 18  2  0
 18 19  1  0
 19 20  2  0
 20 21  1  0
 21 22  2  0
  9 23  2  0
 23  5  1  0
 22 14  1  0
 22 17  1  0
  1 24  1  0
  6 25  1  0
  7 26  1  0
  8 27  1  0
 13 28  1  0
 13 29  1  0
 15 30  1  0
 16 31  1  0
 18 32  1  0
 19 33  1  0
 20 34  1  0
 21 35  1  0
 23 36  1  0
M  CHG  2   1  -1  10  -1
M  END
>  <UniqueID>  (29) 
27

>  <SMILES>  (29) 
[NH-]S(=O)(=O)c1cccc([N-]C(=O)Cc2c[nH]c3ccccc23)c1

>  <Energy>  (29) 
71.71261011385866

>  <Genealogy>  (29) 
[NH-]S(=O)(=O)c1cccc([N-]C(=O)Cc2c[nH]c3ccccc23)c1 (protonated)
[NH-]S(=O)(=O)c1cccc([N-]C(=O)Cc2c[nH]c3ccccc23)c1 (3D coordinates assigned)
[NH-]S(=O)(=O)c1cccc([N-]C(=O)Cc2c[nH]c3ccccc23)c1 (optimized conformer: 71.71261011385866 kcal/mol)

>  <smiles>  (29) 
NS(=O)(=O)c1cccc(NC(=O)Cc2c[nH]c3ccccc23)c1

>  <score_type>  (29) 
oracle

>  <origin>  (29) 
adg

>  <m_score__min__energy>  (29) 
-12.66

>  <m_primary>  (29) 
energy

$$$$
29:0
     RDKit          3D

 49 51  0  0  0  0  0  0  0  0999 V2000
   59.6100   34.9470   47.4950 C   0  0  0  0  0  0  0  0  0  0  0  0
   60.2680   34.2120   46.3390 C   0  0  0  0  0  0  0  0  0  0  0  0
   59.4660   33.0980   45.9630 O   0  0  0  0  0  0  0  0  0  0  0  0
   58.1280   33.2260   45.5800 C   0  0  0  0  0  0  0  0  0  0  0  0
   57.2290   33.4320   46.4410 O   0  0  0  0  0  0  0  0  0  0  0  0
   57.7620   33.0800   44.1380 C   0  0  0  0  0  0  0  0  0  0  0  0
   57.2490   31.6980   43.8850 C   0  0  0  0  0  0  0  0  0  0  0  0
   57.0310   31.1920   42.6050 C   0  0  0  0  0  0  0  0  0  0  0  0
   56.5290   29.5960   42.7560 S   0  0  0  0  0  0  0  0  0  0  0  0
   56.6260   29.6180   44.4290 C   0  0  0  0  0  0  0  0  0  0  0  0
   56.3120   28.6050   45.1780 N   0  0  0  0  0  0  0  0  0  0  0  0
   57.0650   27.3920   45.3160 C   0  0  0  0  0  0  0  0  0  0  0  0
   57.7190   26.9150   44.3500 O   0  0  0  0  0  0  0  0  0  0  0  0
   57.1010   26.7090   46.6460 C   0  0  0  0  0  0  0  0  0  0  0  0
   58.8010   26.1950   47.0800 S   0  0  0  0  0  0  0  0  0  0  0  0
   59.2590   27.7520   47.8420 C   0  0  0  0  0  0  0  0  0  0  0  0
   60.2350   27.7790   48.7840 N   0  0  0  0  0  0  0  0  0  0  0  0
   60.6170   28.9420   49.3680 C   0  0  0  0  0  0  0  0  0  0  0  0
   61.5220   28.9230   50.2450 O   0  0  0  0  0  0  0  0  0  0  0  0
   59.9960   30.1500   49.0010 C   0  0  0  0  0  0  0  0  0  0  0  0
   60.3990   31.4600   49.6390 C   0  0  0  0  0  0  0  0  0  0  0  0
   61.5550   32.0860   48.9040 C   0  0  0  0  0  0  0  0  0  0  0  0
   62.1380   31.4260   47.8110 C   0  0  0  0  0  0  0  0  0  0  0  0
   63.2060   32.0110   47.1230 C   0  0  0  0  0  0  0  0  0  0  0  0
   63.7010   33.2540   47.5220 C   0  0  0  0  0  0  0  0  0  0  0  0
   63.1340   33.9120   48.6170 C   0  0  0  0  0  0  0  0  0  0  0  0
   62.0690   33.3300   49.3110 C   0  0  0  0  0  0  0  0  0  0  0  0
   58.9930   30.0960   48.0160 C   0  0  0  0  0  0  0  0  0  0  0  0
   58.3430   31.2540   47.6020 O   0  0  0  0  0  0  0  0  0  0  0  0
   58.6470   28.9030   47.4660 N   0  0  0  0  0  0  0  0  0  0  0  0
   57.0310   30.8170   44.9000 N   0  0  0  0  0  0  0  0  0  0  0  0
   59.9774   34.5366   48.4471 H   0  0  0  0  0  0  0  0  0  0  0  0
   59.8573   36.0173   47.4373 H   0  0  0  0  0  0  0  0  0  0  0  0
   58.5190   34.8191   47.4373 H   0  0  0  0  0  0  0  0  0  0  0  0
   60.3711   34.8945   45.4825 H   0  0  0  0  0  0  0  0  0  0  0  0
   61.2621   33.8581   46.6497 H   0  0  0  0  0  0  0  0  0  0  0  0
   56.9815   33.8120   43.8830 H   0  0  0  0  0  0  0  0  0  0  0  0
   58.6522   33.2573   43.5167 H   0  0  0  0  0  0  0  0  0  0  0  0
   57.1642   31.7413   41.6613 H   0  0  0  0  0  0  0  0  0  0  0  0
   56.7282   27.4015   47.4151 H   0  0  0  0  0  0  0  0  0  0  0  0
   56.4684   25.8106   46.5933 H   0  0  0  0  0  0  0  0  0  0  0  0
   59.5424   32.1497   49.6160 H   0  0  0  0  0  0  0  0  0  0  0  0
   60.7085   31.2638   50.6762 H   0  0  0  0  0  0  0  0  0  0  0  0
   61.7536   30.4452   47.4944 H   0  0  0  0  0  0  0  0  0  0  0  0
   63.6571   31.4904   46.2654 H   0  0  0  0  0  0  0  0  0  0  0  0
   64.5366   33.7151   46.9750 H   0  0  0  0  0  0  0  0  0  0  0  0
   63.5265   34.8897   48.9334 H   0  0  0  0  0  0  0  0  0  0  0  0
   61.6318   33.8468   50.1781 H   0  0  0  0  0  0  0  0  0  0  0  0
   58.2000   31.4490   46.6190 H   0  0  0  0  0  0  0  0  0  0  0  0
  1  2  1  0
  2  3  1  0
  3  4  1  0
  4  5  2  0
  4  6  1  0
  6  7  1  0
  7  8  2  0
  8  9  1  0
  9 10  1  0
 10 11  2  3
 11 12  1  0
 12 13  2  0
 12 14  1  0
 14 15  1  0
 15 16  1  0
 16 17  2  0
 17 18  1  0
 18 19  2  0
 18 20  1  0
 20 21  1  0
 21 22  1  0
 22 23  2  0
 23 24  1  0
 24 25  2  0
 25 26  1  0
 26 27  2  0
 20 28  2  0
 28 29  1  0
 28 30  1  0
 10 31  1  0
 31  7  1  0
 30 16  1  0
 27 22  1  0
  1 32  1  0
  1 33  1  0
  1 34  1  0
  2 35  1  0
  2 36  1  0
  6 37  1  0
  6 38  1  0
  8 39  1  0
 14 40  1  0
 14 41  1  0
 21 42  1  0
 21 43  1  0
 23 44  1  0
 24 45  1  0
 25 46  1  0
 26 47  1  0
 27 48  1  0
 29 49  1  0
M  CHG  2  30  -1  31  -1
M  END
>  <UniqueID>  (30) 
28

>  <SMILES>  (30) 
CCOC(=O)Cc1csc(=NC(=O)CSc2nc(=O)c(Cc3ccccc3)c(O)[n-]2)[n-]1

>  <Energy>  (30) 
66.918823656267

>  <Genealogy>  (30) 
CCOC(=O)Cc1csc(=NC(=O)CSc2nc(=O)c(Cc3ccccc3)c(O)[n-]2)[n-]1 (protonated)
CCOC(=O)Cc1csc(=NC(=O)CSc2nc(=O)c(Cc3ccccc3)c(O)[n-]2)[n-]1 (3D coordinates assigned)
CCOC(=O)Cc1csc(=NC(=O)CSc2nc(=O)c(Cc3ccccc3)c(O)[n-]2)[n-]1 (optimized conformer: 66.918823656267 kcal/mol)

>  <smiles>  (30) 
CCOC(=O)Cc1csc(=NC(=O)CSc2nc(=O)c(Cc3ccccc3)c(O)[nH]2)[nH]1

>  <score_type>  (30) 
oracle

>  <origin>  (30) 
adg

>  <m_score__min__energy>  (30) 
-12.199999999999999

>  <m_primary>  (30) 
energy

$$$$
30:0
     RDKit          3D

 72 76  0  0  0  0  0  0  0  0999 V2000
   53.6399   20.9625   50.6745 H   0  0  0  0  0  0  0  0  0  0  0  0
   54.7170   21.1600   50.5700 C   0  0  0  0  0  0  0  0  0  0  0  0
   55.3370   21.0020   49.3270 C   0  0  0  0  0  0  0  0  0  0  0  0
   54.7453   20.6861   48.4552 H   0  0  0  0  0  0  0  0  0  0  0  0
   56.7160   21.2460   49.1880 C   0  0  0  0  0  0  0  0  0  0  0  0
   57.3830   21.1300   47.9220 N   0  0  0  0  0  0  0  0  0  0  0  0
   56.8900   21.6000   46.6580 C   0  0  0  0  0  0  0  0  0  0  0  0
   56.8030   20.8010   45.6850 O   0  0  0  0  0  0  0  0  0  0  0  0
   56.5410   22.9920   46.4840 N   0  0  0  0  0  0  0  0  0  0  0  0
   56.5470   23.9040   47.6430 C   0  0  0  0  0  0  0  0  0  0  0  0
   57.2705   23.5369   48.3858 H   0  0  0  0  0  0  0  0  0  0  0  0
   55.5346   23.9319   48.0723 H   0  0  0  0  0  0  0  0  0  0  0  0
   56.9380   25.3240   47.2220 C   0  0  0  0  0  0  0  0  0  0  0  0
   57.9963   25.3324   46.9221 H   0  0  0  0  0  0  0  0  0  0  0  0
   56.7751   26.0009   48.0736 H   0  0  0  0  0  0  0  0  0  0  0  0
   56.0750   25.8030   46.0400 C   0  0  0  0  0  0  0  0  0  0  0  0
   55.0251   25.8151   46.3679 H   0  0  0  0  0  0  0  0  0  0  0  0
   56.4200   27.2430   45.6180 C   0  0  0  0  0  0  0  0  0  0  0  0
   56.5138   27.8690   46.5176 H   0  0  0  0  0  0  0  0  0  0  0  0
   55.6163   27.6204   44.9686 H   0  0  0  0  0  0  0  0  0  0  0  0
   57.6800   27.2830   44.8730 N   0  0  0  0  0  0  0  0  0  0  0  0
   58.7950   28.3790   45.6320 S   0  0  0  0  0  0  0  0  0  0  0  0
   58.6610   28.2520   47.1230 O   0  0  0  0  0  0  0  0  0  0  0  0
   60.2010   28.0050   45.2500 O   0  0  0  0  0  0  0  0  0  0  0  0
   58.4800   30.0510   45.1610 C   0  0  0  0  0  0  0  0  0  0  0  0
   57.5800   30.3320   44.1210 C   0  0  0  0  0  0  0  0  0  0  0  0
   57.0627   29.5087   43.6066 H   0  0  0  0  0  0  0  0  0  0  0  0
   57.3390   31.6530   43.7370 C   0  0  0  0  0  0  0  0  0  0  0  0
   56.6197   31.8696   42.9334 H   0  0  0  0  0  0  0  0  0  0  0  0
   58.0110   32.6990   44.3730 C   0  0  0  0  0  0  0  0  0  0  0  0
   57.8178   33.7388   44.0704 H   0  0  0  0  0  0  0  0  0  0  0  0
   58.9330   32.4280   45.3980 C   0  0  0  0  0  0  0  0  0  0  0  0
   59.6370   33.4880   46.0660 N   0  0  0  0  0  0  0  0  0  0  0  0
   59.5980   33.7200   47.3230 N   0  0  0  0  0  0  0  0  0  0  0  0
   60.7430   33.7470   48.1970 C   0  0  0  0  0  0  0  0  0  0  0  0
   62.0380   33.8410   47.6570 C   0  0  0  0  0  0  0  0  0  0  0  0
   62.2290   33.8890   46.2800 O   0  0  0  0  0  0  0  0  0  0  0  0
   63.1510   33.8620   48.4960 C   0  0  0  0  0  0  0  0  0  0  0  0
   64.1565   33.9665   48.0623 H   0  0  0  0  0  0  0  0  0  0  0  0
   63.0050   33.7520   49.8810 C   0  0  0  0  0  0  0  0  0  0  0  0
   64.5040   33.7840   50.8860 S   0  0  0  0  0  0  0  0  0  0  0  0
   65.4380   32.7170   49.7460 C   0  0  0  0  0  0  0  0  0  0  0  0
   66.0542   32.0130   50.3245 H   0  0  0  0  0  0  0  0  0  0  0  0
   64.7364   32.1549   49.1121 H   0  0  0  0  0  0  0  0  0  0  0  0
   66.0880   33.3380   49.1121 H   0  0  0  0  0  0  0  0  0  0  0  0
   61.7170   33.6030   50.4450 C   0  0  0  0  0  0  0  0  0  0  0  0
   61.5310   33.4610   51.8350 C   0  0  0  0  0  0  0  0  0  0  0  0
   62.4046   33.4541   52.5033 H   0  0  0  0  0  0  0  0  0  0  0  0
   60.2490   33.3290   52.3720 C   0  0  0  0  0  0  0  0  0  0  0  0
   60.1187   33.2191   53.4587 H   0  0  0  0  0  0  0  0  0  0  0  0
   59.1350   33.3360   51.5370 C   0  0  0  0  0  0  0  0  0  0  0  0
   58.1274   33.2355   51.9667 H   0  0  0  0  0  0  0  0  0  0  0  0
   59.2920   33.4700   50.1570 C   0  0  0  0  0  0  0  0  0  0  0  0
   58.4060   33.4743   49.5052 H   0  0  0  0  0  0  0  0  0  0  0  0
   60.5770   33.6000   49.5910 C   0  0  0  0  0  0  0  0  0  0  0  0
   59.1360   31.1050   45.8130 C   0  0  0  0  0  0  0  0  0  0  0  0
   59.8128   30.8924   46.6537 H   0  0  0  0  0  0  0  0  0  0  0  0
   56.2180   24.8270   44.8590 C   0  0  0  0  0  0  0  0  0  0  0  0
   57.2655   24.8171   44.5233 H   0  0  0  0  0  0  0  0  0  0  0  0
   55.5594   25.1595   44.0431 H   0  0  0  0  0  0  0  0  0  0  0  0
   55.8100   23.4110   45.2760 C   0  0  0  0  0  0  0  0  0  0  0  0
   56.0377   22.7137   44.4563 H   0  0  0  0  0  0  0  0  0  0  0  0
   54.7321   23.4041   45.4953 H   0  0  0  0  0  0  0  0  0  0  0  0
   57.4500   21.6800   50.3000 C   0  0  0  0  0  0  0  0  0  0  0  0
   58.5194   21.9127   50.1891 H   0  0  0  0  0  0  0  0  0  0  0  0
   56.8350   21.8210   51.5540 C   0  0  0  0  0  0  0  0  0  0  0  0
   57.6180   22.3070   52.7370 C   0  0  0  0  0  0  0  0  0  0  0  0
   57.1143   21.9944   53.6636 H   0  0  0  0  0  0  0  0  0  0  0  0
   58.6307   21.8785   52.7076 H   0  0  0  0  0  0  0  0  0  0  0  0
   57.6834   23.4047   52.7076 H   0  0  0  0  0  0  0  0  0  0  0  0
   55.4610   21.5680   51.6800 C   0  0  0  0  0  0  0  0  0  0  0  0
   54.9679   21.6912   52.6555 H   0  0  0  0  0  0  0  0  0  0  0  0
  1  2  1  0
  2  3  2  0
  3  4  1  0
  3  5  1  0
  5  6  1  0
  6  7  1  0
  7  8  2  0
  7  9  1  0
  9 10  1  0
 10 11  1  0
 10 12  1  0
 10 13  1  0
 13 14  1  0
 13 15  1  0
 13 16  1  0
 16 17  1  0
 16 18  1  0
 18 19  1  0
 18 20  1  0
 18 21  1  0
 21 22  1  0
 22 23  2  0
 22 24  2  0
 22 25  1  0
 25 26  2  0
 26 27  1  0
 26 28  1  0
 28 29  1  0
 28 30  2  0
 30 31  1  0
 30 32  1  0
 32 33  1  0
 33 34  2  0
 34 35  1  0
 35 36  2  0
 36 37  1  0
 36 38  1  0
 38 39  1  0
 38 40  2  0
 40 41  1  0
 41 42  1  0
 42 43  1  0
 42 44  1  0
 42 45  1  0
 40 46  1  0
 46 47  2  0
 47 48  1  0
 47 49  1  0
 49 50  1  0
 49 51  2  0
 51 52  1  0
 51 53  1  0
 53 54  1  0
 53 55  2  0
 32 56  2  0
 56 57  1  0
 16 58  1  0
 58 59  1  0
 58 60  1  0
 58 61  1  0
 61 62  1  0
 61 63  1  0
  5 64  2  0
 64 65  1  0
 64 66  1  0
 66 67  1  0
 67 68  1  0
 67 69  1  0
 67 70  1  0
 66 71  2  0
 71 72  1  0
 71  2  1  0
 61  9  1  0
 56 25  1  0
 55 35  1  0
 55 46  1  0
M  CHG  3   6  -1  21  -1  37  -1
M  END
>  <UniqueID>  (31) 
29

>  <SMILES>  (31) 
CSc1cc([O-])c(/N=N\c2cccc(S(=O)(=O)[N-]CC3CCN(C(=O)[N-]c4cccc(C)c4)CC3)c2)c2ccccc12

>  <Energy>  (31) 
90.74967320726763

>  <Genealogy>  (31) 
CSc1cc([O-])c(N=Nc2cccc(S(=O)(=O)[N-]CC3CCN(C(=O)[N-]c4cccc(C)c4)CC3)c2)c2ccccc12 (protonated)
CSc1cc([O-])c(/N=N\c2cccc(S(=O)(=O)[N-]CC3CCN(C(=O)[N-]c4cccc(C)c4)CC3)c2)c2ccccc12 (cis-trans isomerization)
CSc1cc([O-])c(/N=N\c2cccc(S(=O)(=O)[N-]CC3CCN(C(=O)[N-]c4cccc(C)c4)CC3)c2)c2ccccc12 (3D coordinates assigned)
CSc1cc([O-])c(/N=N\c2cccc(S(=O)(=O)[N-]CC3CCN(C(=O)[N-]c4cccc(C)c4)CC3)c2)c2ccccc12 (nonaromatic ring conformer: 90.74967320726763 kcal/mol)

>  <smiles>  (31) 
CSc1cc(O)c(N=Nc2cccc(S(=O)(=O)NCC3CCN(C(=O)Nc4cccc(C)c4)CC3)c2)c2ccccc12

>  <score_type>  (31) 
oracle

>  <origin>  (31) 
adg

>  <m_score__min__energy>  (31) 
-15.6

>  <m_primary>  (31) 
energy

$$$$
31:0
     RDKit          3D

 34 36  0  0  0  0  0  0  0  0999 V2000
   54.7710   29.3380   44.2000 N   0  0  0  0  0  0  0  0  0  0  0  0
   56.3250   30.0910   44.1200 S   0  0  0  0  0  0  0  0  0  0  0  0
   56.2480   31.4300   44.7980 O   0  0  0  0  0  0  0  0  0  0  0  0
   56.7160   30.2860   42.6830 O   0  0  0  0  0  0  0  0  0  0  0  0
   57.5180   29.0710   44.9180 C   0  0  0  0  0  0  0  0  0  0  0  0
   58.0490   27.9550   44.2640 C   0  0  0  0  0  0  0  0  0  0  0  0
   58.9780   27.1380   44.9080 C   0  0  0  0  0  0  0  0  0  0  0  0
   59.4000   27.4320   46.2170 C   0  0  0  0  0  0  0  0  0  0  0  0
   60.3120   26.6040   46.8970 C   0  0  0  0  0  0  0  0  0  0  0  0
   60.7870   25.5740   46.3460 O   0  0  0  0  0  0  0  0  0  0  0  0
   60.6840   26.9040   48.1680 N   0  0  0  0  0  0  0  0  0  0  0  0
   60.2250   28.0030   48.8200 C   0  0  0  0  0  0  0  0  0  0  0  0
   60.6500   28.2610   50.1190 O   0  0  0  0  0  0  0  0  0  0  0  0
   59.3430   28.8850   48.1830 C   0  0  0  0  0  0  0  0  0  0  0  0
   58.9220   30.0670   48.8850 N   0  0  0  0  0  0  0  0  0  0  0  0
   59.6380   31.1120   49.0670 N   0  0  0  0  0  0  0  0  0  0  0  0
   59.8520   32.1600   48.1060 C   0  0  0  0  0  0  0  0  0  0  0  0
   61.1210   32.7450   48.0140 C   0  0  0  0  0  0  0  0  0  0  0  0
   61.3630   33.7670   47.0910 C   0  0  0  0  0  0  0  0  0  0  0  0
   60.3410   34.1990   46.2420 C   0  0  0  0  0  0  0  0  0  0  0  0
   59.0810   33.5970   46.3020 C   0  0  0  0  0  0  0  0  0  0  0  0
   57.6900   34.1700   45.1260 Br  0  0  0  0  0  0  0  0  0  0  0  0
   58.8390   32.5690   47.2200 C   0  0  0  0  0  0  0  0  0  0  0  0
   58.8890   28.5790   46.8770 C   0  0  0  0  0  0  0  0  0  0  0  0
   57.9250   29.3710   46.2230 C   0  0  0  0  0  0  0  0  0  0  0  0
   54.4710   29.3660   45.2000 H   0  0  0  0  0  0  0  0  0  0  0  0
   57.7326   27.7203   43.2369 H   0  0  0  0  0  0  0  0  0  0  0  0
   59.3835   26.2574   44.3884 H   0  0  0  0  0  0  0  0  0  0  0  0
   60.4420   29.1440   50.5690 H   0  0  0  0  0  0  0  0  0  0  0  0
   61.9319   32.3986   48.6715 H   0  0  0  0  0  0  0  0  0  0  0  0
   62.3586   34.2312   47.0333 H   0  0  0  0  0  0  0  0  0  0  0  0
   60.5280   35.0131   45.5262 H   0  0  0  0  0  0  0  0  0  0  0  0
   57.8543   32.0796   47.2488 H   0  0  0  0  0  0  0  0  0  0  0  0
   57.4871   30.2352   46.7440 H   0  0  0  0  0  0  0  0  0  0  0  0
  1  2  1  0
  2  3  2  0
  2  4  2  0
  2  5  1  0
  5  6  2  0
  6  7  1  0
  7  8  2  0
  8  9  1  0
  9 10  2  0
  9 11  1  0
 11 12  1  0
 12 13  1  0
 12 14  2  0
 14 15  1  0
 15 16  2  3
 16 17  1  0
 17 18  2  0
 18 19  1  0
 19 20  2  0
 20 21  1  0
 21 22  1  0
 21 23  2  0
 14 24  1  0
 24 25  2  0
 25  5  1  0
 24  8  1  0
 23 17  1  0
  1 26  1  0
  6 27  1  0
  7 28  1  0
 13 29  1  0
 18 30  1  0
 19 31  1  0
 20 32  1  0
 23 33  1  0
 25 34  1  0
M  CHG  2   1  -1  11  -1
M  END
>  <UniqueID>  (32) 
30

>  <SMILES>  (32) 
[NH-]S(=O)(=O)c1ccc2c(=O)[n-]c(O)c(N=Nc3cccc(Br)c3)c2c1

>  <Energy>  (32) 
54.916716216711656

>  <Genealogy>  (32) 
[NH-]S(=O)(=O)c1ccc2c(=O)[n-]c(O)c(N=Nc3cccc(Br)c3)c2c1 (protonated)
[NH-]S(=O)(=O)c1ccc2c(=O)[n-]c(O)c(N=Nc3cccc(Br)c3)c2c1 (3D coordinates assigned)
[NH-]S(=O)(=O)c1ccc2c(=O)[n-]c(O)c(N=Nc3cccc(Br)c3)c2c1 (optimized conformer: 54.916716216711656 kcal/mol)

>  <smiles>  (32) 
NS(=O)(=O)c1ccc2c(=O)[nH]c(O)c(N=Nc3cccc(Br)c3)c2c1

>  <score_type>  (32) 
oracle

>  <origin>  (32) 
adg

>  <m_score__min__energy>  (32) 
-12

>  <m_primary>  (32) 
energy

$$$$
32:0
     RDKit          3D

 34 35  0  0  0  0  0  0  0  0999 V2000
   57.7320   32.2720   44.3370 C   0  0  0  0  0  0  0  0  0  0  0  0
   57.3760   31.1420   45.2000 N   0  0  0  0  0  0  0  0  0  0  0  0
   57.4490   29.8600   44.4820 C   0  0  0  0  0  0  0  0  0  0  0  0
   57.7350   28.7000   45.4110 C   0  0  0  0  0  0  0  0  0  0  0  0
   56.9080   27.5700   45.4090 C   0  0  0  0  0  0  0  0  0  0  0  0
   57.1750   26.5110   46.2270 N   0  0  0  0  0  0  0  0  0  0  0  0
   56.1190   25.1240   46.2130 S   0  0  0  0  0  0  0  0  0  0  0  0
   54.7800   25.5370   45.6640 O   0  0  0  0  0  0  0  0  0  0  0  0
   55.9250   24.5900   47.6050 O   0  0  0  0  0  0  0  0  0  0  0  0
   56.8250   23.8600   45.2110 C   0  0  0  0  0  0  0  0  0  0  0  0
   56.1200   23.3510   44.1110 C   0  0  0  0  0  0  0  0  0  0  0  0
   56.6860   22.3490   43.3190 C   0  0  0  0  0  0  0  0  0  0  0  0
   57.9570   21.8490   43.6210 C   0  0  0  0  0  0  0  0  0  0  0  0
   58.6660   22.3470   44.7230 C   0  0  0  0  0  0  0  0  0  0  0  0
   59.9630   21.8330   45.0350 N   0  0  0  0  0  0  0  0  0  0  0  0
   58.0950   23.3520   45.5180 C   0  0  0  0  0  0  0  0  0  0  0  0
   58.2540   26.5500   47.0660 C   0  0  0  0  0  0  0  0  0  0  0  0
   58.5050   25.5850   47.8360 O   0  0  0  0  0  0  0  0  0  0  0  0
   59.0690   27.6350   47.0790 N   0  0  0  0  0  0  0  0  0  0  0  0
   58.8390   28.7030   46.2750 C   0  0  0  0  0  0  0  0  0  0  0  0
   59.6230   29.6880   46.3160 O   0  0  0  0  0  0  0  0  0  0  0  0
   58.0045   33.1371   44.9594 H   0  0  0  0  0  0  0  0  0  0  0  0
   58.5860   31.9936   43.7020 H   0  0  0  0  0  0  0  0  0  0  0  0
   56.8727   32.5334   43.7020 H   0  0  0  0  0  0  0  0  0  0  0  0
   58.0330   31.1260   46.0150 H   0  0  0  0  0  0  0  0  0  0  0  0
   56.4880   29.6813   43.9776 H   0  0  0  0  0  0  0  0  0  0  0  0
   58.2750   29.9247   43.7584 H   0  0  0  0  0  0  0  0  0  0  0  0
   56.0344   27.5357   44.7414 H   0  0  0  0  0  0  0  0  0  0  0  0
   55.1199   23.7412   43.8713 H   0  0  0  0  0  0  0  0  0  0  0  0
   56.1310   21.9524   42.4561 H   0  0  0  0  0  0  0  0  0  0  0  0
   58.4012   21.0632   42.9923 H   0  0  0  0  0  0  0  0  0  0  0  0
   60.0780   20.8680   45.4150 H   0  0  0  0  0  0  0  0  0  0  0  0
   60.8180   22.4130   44.8850 H   0  0  0  0  0  0  0  0  0  0  0  0
   58.6461   23.7431   46.3859 H   0  0  0  0  0  0  0  0  0  0  0  0
  1  2  1  0
  2  3  1  0
  3  4  1  0
  4  5  2  0
  5  6  1  0
  6  7  1  0
  7  8  2  0
  7  9  2  0
  7 10  1  0
 10 11  2  0
 11 12  1  0
 12 13  2  0
 13 14  1  0
 14 15  1  0
 14 16  2  0
  6 17  1  0
 17 18  2  0
 17 19  1  0
 19 20  1  0
 20 21  2  0
 20  4  1  0
 16 10  1  0
  1 22  1  0
  1 23  1  0
  1 24  1  0
  2 25  1  0
  3 26  1  0
  3 27  1  0
  5 28  1  0
 11 29  1  0
 12 30  1  0
 13 31  1  0
 15 32  1  0
 15 33  1  0
 16 34  1  0
M  CHG  1  19  -1
M  END
>  <UniqueID>  (33) 
31

>  <SMILES>  (33) 
CNCc1cn(S(=O)(=O)c2cccc(N)c2)c(=O)[n-]c1=O

>  <Energy>  (33) 
37.65032111868835

>  <Genealogy>  (33) 
CNCc1cn(S(=O)(=O)c2cccc(N)c2)c(=O)[n-]c1=O (protonated)
CNCc1cn(S(=O)(=O)c2cccc(N)c2)c(=O)[n-]c1=O (3D coordinates assigned)
CNCc1cn(S(=O)(=O)c2cccc(N)c2)c(=O)[n-]c1=O (optimized conformer: 37.65032111868835 kcal/mol)

>  <smiles>  (33) 
CNCc1cn(S(=O)(=O)c2cccc(N)c2)c(=O)[nH]c1=O

>  <score_type>  (33) 
oracle

>  <origin>  (33) 
adg

>  <m_score__min__energy>  (33) 
-8.7899999999999991

>  <m_primary>  (33) 
energy

$$$$
33:0
     RDKit          3D

 48 52  0  0  0  0  0  0  0  0999 V2000
   55.2240   28.9140   42.6330 H   0  0  0  0  0  0  0  0  0  0  0  0
   55.5320   29.3780   43.4800 O   0  0  0  0  0  0  0  0  0  0  0  0
   56.3800   30.4810   43.4380 C   0  0  0  0  0  0  0  0  0  0  0  0
   57.0180   30.8480   42.2450 C   0  0  0  0  0  0  0  0  0  0  0  0
   56.8422   30.2677   41.3272 H   0  0  0  0  0  0  0  0  0  0  0  0
   57.8770   31.9500   42.2200 C   0  0  0  0  0  0  0  0  0  0  0  0
   58.3823   32.2314   41.2843 H   0  0  0  0  0  0  0  0  0  0  0  0
   58.0950   32.6950   43.3820 C   0  0  0  0  0  0  0  0  0  0  0  0
   58.7846   33.5518   43.3622 H   0  0  0  0  0  0  0  0  0  0  0  0
   57.4370   32.3540   44.5750 C   0  0  0  0  0  0  0  0  0  0  0  0
   57.6920   33.0940   45.8250 C   0  0  0  0  0  0  0  0  0  0  0  0
   56.8256   33.3898   46.4348 H   0  0  0  0  0  0  0  0  0  0  0  0
   58.9140   33.4290   46.2650 C   0  0  0  0  0  0  0  0  0  0  0  0
   59.8450   34.4300   45.7620 C   0  0  0  0  0  0  0  0  0  0  0  0
   59.6320   35.3050   44.8810 O   0  0  0  0  0  0  0  0  0  0  0  0
   61.0190   34.3190   46.4780 O   0  0  0  0  0  0  0  0  0  0  0  0
   60.8820   33.3310   47.4270 N   0  0  0  0  0  0  0  0  0  0  0  0
   59.6960   32.8080   47.3530 C   0  0  0  0  0  0  0  0  0  0  0  0
   59.2330   31.7580   48.2830 C   0  0  0  0  0  0  0  0  0  0  0  0
   59.0420   30.4040   48.0370 C   0  0  0  0  0  0  0  0  0  0  0  0
   59.2550   29.6800   46.7720 C   0  0  0  0  0  0  0  0  0  0  0  0
   60.5030   29.7070   46.1320 C   0  0  0  0  0  0  0  0  0  0  0  0
   61.3290   30.2900   46.5653 H   0  0  0  0  0  0  0  0  0  0  0  0
   60.7000   28.9950   44.9450 C   0  0  0  0  0  0  0  0  0  0  0  0
   61.6767   29.0281   44.4401 H   0  0  0  0  0  0  0  0  0  0  0  0
   59.6570   28.2410   44.3990 C   0  0  0  0  0  0  0  0  0  0  0  0
   59.8111   27.6865   43.4615 H   0  0  0  0  0  0  0  0  0  0  0  0
   58.4180   28.1920   45.0450 C   0  0  0  0  0  0  0  0  0  0  0  0
   57.5993   27.5941   44.6181 H   0  0  0  0  0  0  0  0  0  0  0  0
   58.2180   28.9020   46.2330 C   0  0  0  0  0  0  0  0  0  0  0  0
   57.2464   28.8509   46.7462 H   0  0  0  0  0  0  0  0  0  0  0  0
   58.5420   29.8140   49.1400 N   0  0  0  0  0  0  0  0  0  0  0  0
   58.4340   30.7390   50.0830 N   0  0  0  0  0  0  0  0  0  0  0  0
   57.9470   30.4630   51.4130 C   0  0  0  0  0  0  0  0  0  0  0  0
   58.6830   29.6640   52.3120 C   0  0  0  0  0  0  0  0  0  0  0  0
   59.6472   29.2367   51.9994 H   0  0  0  0  0  0  0  0  0  0  0  0
   58.1960   29.4110   53.5980 C   0  0  0  0  0  0  0  0  0  0  0  0
   58.7760   28.7830   54.2903 H   0  0  0  0  0  0  0  0  0  0  0  0
   56.9760   29.9530   54.0060 C   0  0  0  0  0  0  0  0  0  0  0  0
   56.5938   29.7495   55.0172 H   0  0  0  0  0  0  0  0  0  0  0  0
   56.2410   30.7540   53.1290 C   0  0  0  0  0  0  0  0  0  0  0  0
   55.2817   31.1844   53.4521 H   0  0  0  0  0  0  0  0  0  0  0  0
   56.7220   31.0100   51.8410 C   0  0  0  0  0  0  0  0  0  0  0  0
   56.1387   31.6437   51.1568 H   0  0  0  0  0  0  0  0  0  0  0  0
   58.8510   31.9280   49.5990 C   0  0  0  0  0  0  0  0  0  0  0  0
   58.8814   32.8742   50.1592 H   0  0  0  0  0  0  0  0  0  0  0  0
   56.6000   31.2290   44.6020 C   0  0  0  0  0  0  0  0  0  0  0  0
   56.1133   30.9321   45.5428 H   0  0  0  0  0  0  0  0  0  0  0  0
  1  2  1  0
  2  3  1  0
  3  4  2  0
  4  5  1  0
  4  6  1  0
  6  7  1  0
  6  8  2  0
  8  9  1  0
  8 10  1  0
 10 11  1  0
 11 12  1  0
 11 13  2  0
 13 14  1  0
 14 15  2  0
 14 16  1  0
 16 17  1  0
 17 18  2  0
 18 19  1  0
 19 20  1  0
 20 21  1  0
 21 22  2  0
 22 23  1  0
 22 24  1  0
 24 25  1  0
 24 26  2  0
 26 27  1  0
 26 28  1  0
 28 29  1  0
 28 30  2  0
 30 31  1  0
 20 32  2  0
 32 33  1  0
 33 34  1  0
 34 35  2  0
 35 36  1  0
 35 37  1  0
 37 38  1  0
 37 39  2  0
 39 40  1  0
 39 41  1  0
 41 42  1  0
 41 43  2  0
 43 44  1  0
 33 45  1  0
 45 46  1  0
 10 47  2  0
 47 48  1  0
 47  3  1  0
 18 13  1  0
 45 19  2  0
 30 21  1  0
 43 34  1  0
M  END
>  <UniqueID>  (34) 
32

>  <SMILES>  (34) 
O=C1ON=C(c2cn(-c3ccccc3)nc2-c2ccccc2)/C1=C/c1cccc(O)c1

>  <Energy>  (34) 
134.9300127585699

>  <Genealogy>  (34) 
O=C1ON=C(c2cn(-c3ccccc3)nc2-c2ccccc2)/C1=C/c1cccc(O)c1 (cis-trans isomerization)
O=C1ON=C(c2cn(-c3ccccc3)nc2-c2ccccc2)/C1=C/c1cccc(O)c1 (3D coordinates assigned)
O=C1ON=C(c2cn(-c3ccccc3)nc2-c2ccccc2)/C1=C/c1cccc(O)c1 (nonaromatic ring conformer: 134.9300127585699 kcal/mol)

>  <smiles>  (34) 
O=C1ON=C(c2cn(-c3ccccc3)nc2-c2ccccc2)C1=Cc1cccc(O)c1

>  <score_type>  (34) 
oracle

>  <origin>  (34) 
adg

>  <m_score__min__energy>  (34) 
-10.390000000000001

>  <m_primary>  (34) 
energy

$$$$
34:0
     RDKit          3D

 39 41  0  0  0  0  0  0  0  0999 V2000
   65.2560   32.5110   49.4480 O   0  0  0  0  0  0  0  0  0  0  0  0
   64.2200   32.9370   48.8750 C   0  0  0  0  0  0  0  0  0  0  0  0
   63.0750   33.4160   49.5840 N   0  0  0  0  0  0  0  0  0  0  0  0
   62.2260   33.7730   48.6720 C   0  0  0  0  0  0  0  0  0  0  0  0
   60.8500   34.2730   48.9790 C   0  0  0  0  0  0  0  0  0  0  0  0
   59.8500   33.6360   48.0540 C   0  0  0  0  0  0  0  0  0  0  0  0
   59.6140   32.2550   48.1130 C   0  0  0  0  0  0  0  0  0  0  0  0
   58.7010   31.6560   47.2400 C   0  0  0  0  0  0  0  0  0  0  0  0
   58.0030   32.4350   46.2970 C   0  0  0  0  0  0  0  0  0  0  0  0
   57.0350   31.8990   45.4300 O   0  0  0  0  0  0  0  0  0  0  0  0
   57.0350   32.0000   44.0040 C   0  0  0  0  0  0  0  0  0  0  0  0
   57.8390   30.8610   43.3630 C   0  0  0  0  0  0  0  0  0  0  0  0
   57.8680   29.6280   44.2250 C   0  0  0  0  0  0  0  0  0  0  0  0
   59.0640   29.2000   44.8160 C   0  0  0  0  0  0  0  0  0  0  0  0
   59.0630   28.1050   45.6780 C   0  0  0  0  0  0  0  0  0  0  0  0
   57.8620   27.4420   45.9480 C   0  0  0  0  0  0  0  0  0  0  0  0
   57.8620   26.0800   47.0570 Cl  0  0  0  0  0  0  0  0  0  0  0  0
   56.7030   27.8610   45.3610 N   0  0  0  0  0  0  0  0  0  0  0  0
   55.5220   27.2100   45.6370 O   0  0  0  0  0  0  0  0  0  0  0  0
   56.6860   28.9260   44.5120 C   0  0  0  0  0  0  0  0  0  0  0  0
   58.2730   33.8060   46.2150 C   0  0  0  0  0  0  0  0  0  0  0  0
   59.1880   34.4050   47.0860 C   0  0  0  0  0  0  0  0  0  0  0  0
   62.7690   33.5190   47.3420 C   0  0  0  0  0  0  0  0  0  0  0  0
   62.1870   33.7300   46.2460 O   0  0  0  0  0  0  0  0  0  0  0  0
   64.0720   32.9830   47.4630 N   0  0  0  0  0  0  0  0  0  0  0  0
   60.5952   34.0214   50.0191 H   0  0  0  0  0  0  0  0  0  0  0  0
   60.8243   35.3639   48.8406 H   0  0  0  0  0  0  0  0  0  0  0  0
   60.1502   31.6395   48.8503 H   0  0  0  0  0  0  0  0  0  0  0  0
   58.5270   30.5710   47.2899 H   0  0  0  0  0  0  0  0  0  0  0  0
   55.9974   31.9538   43.6418 H   0  0  0  0  0  0  0  0  0  0  0  0
   57.5035   32.9551   43.7242 H   0  0  0  0  0  0  0  0  0  0  0  0
   57.3817   30.6058   42.3957 H   0  0  0  0  0  0  0  0  0  0  0  0
   58.8750   31.2089   43.2378 H   0  0  0  0  0  0  0  0  0  0  0  0
   60.0041   29.7285   44.5995 H   0  0  0  0  0  0  0  0  0  0  0  0
   60.0002   27.7648   46.1426 H   0  0  0  0  0  0  0  0  0  0  0  0
   55.7391   29.2386   44.0476 H   0  0  0  0  0  0  0  0  0  0  0  0
   57.7604   34.4179   45.4581 H   0  0  0  0  0  0  0  0  0  0  0  0
   59.3895   35.4838   47.0117 H   0  0  0  0  0  0  0  0  0  0  0  0
   64.7380   32.6850   46.7160 H   0  0  0  0  0  0  0  0  0  0  0  0
  1  2  2  0
  2  3  1  0
  3  4  2  0
  4  5  1  0
  5  6  1  0
  6  7  2  0
  7  8  1  0
  8  9  2  0
  9 10  1  0
 10 11  1  0
 11 12  1  0
 12 13  1  0
 13 14  2  0
 14 15  1  0
 15 16  2  0
 16 17  1  0
 16 18  1  0
 18 19  1  0
 18 20  2  0
  9 21  1  0
 21 22  2  0
  4 23  1  0
 23 24  2  0
 23 25  1  0
 25  2  1  0
 22  6  1  0
 20 13  1  0
  5 26  1  0
  5 27  1  0
  7 28  1  0
  8 29  1  0
 11 30  1  0
 11 31  1  0
 12 32  1  0
 12 33  1  0
 14 34  1  0
 15 35  1  0
 20 36  1  0
 21 37  1  0
 22 38  1  0
 25 39  1  0
M  CHG  2  18   1  19  -1
M  END
>  <UniqueID>  (35) 
33

>  <SMILES>  (35) 
O=C1N=C(Cc2ccc(OCCc3ccc(Cl)[n+]([O-])c3)cc2)C(=O)N1

>  <Energy>  (35) 
65.707320621022

>  <Genealogy>  (35) 
O=C1N=C(Cc2ccc(OCCc3ccc(Cl)[n+]([O-])c3)cc2)C(=O)N1 (3D coordinates assigned)
O=C1N=C(Cc2ccc(OCCc3ccc(Cl)[n+]([O-])c3)cc2)C(=O)N1 (nonaromatic ring conformer: 65.707320621022 kcal/mol)

>  <smiles>  (35) 
O=C1N=C(Cc2ccc(OCCc3ccc(Cl)[n+]([O-])c3)cc2)C(=O)N1

>  <score_type>  (35) 
oracle

>  <origin>  (35) 
adg

>  <m_score__min__energy>  (35) 
-10.039999999999999

>  <m_primary>  (35) 
energy

$$$$
35:0
     RDKit          3D

 55 58  0  0  1  0  0  0  0  0999 V2000
   57.8650   32.3360   41.1470 C   0  0  0  0  0  0  0  0  0  0  0  0
   57.5230   31.9580   42.5400 C   0  0  0  0  0  0  0  0  0  0  0  0
   57.0390   30.7210   42.8990 C   0  0  0  0  0  0  0  0  0  0  0  0
   56.7210   30.3660   44.1880 C   0  0  0  0  0  0  0  0  0  0  0  0
   56.2800   29.2150   44.4570 N   0  0  0  0  0  0  0  0  0  0  0  0
   57.1990   27.9470   45.1480 S   0  0  0  0  0  0  0  0  0  0  0  0
   57.7390   26.9730   44.1330 O   0  0  0  0  0  0  0  0  0  0  0  0
   56.1980   27.1160   45.9600 O   0  0  0  0  0  0  0  0  0  0  0  0
   58.3900   28.4810   46.2900 C   0  0  0  0  0  0  0  0  0  0  0  0
   58.3980   29.7230   46.8860 C   0  0  0  0  0  0  0  0  0  0  0  0
   59.3500   30.1270   47.7950 C   0  0  0  0  0  0  0  0  0  0  0  0
   60.3820   29.2830   48.1700 C   0  0  0  0  0  0  0  0  0  0  0  0
   61.3220   29.7590   49.1050 N   0  0  0  0  0  0  0  0  0  0  0  0
   61.2930   29.5550   50.4950 C   0  0  0  0  0  0  0  0  0  0  0  0
   60.4140   28.9160   51.0820 O   0  0  0  0  0  0  0  0  0  0  0  0
   62.3860   30.1390   51.3560 C   0  0  0  0  0  0  0  0  0  0  0  0
   62.7440   31.4210   50.8740 O   0  0  0  0  0  0  0  0  0  0  0  0
   61.8410   32.2710   50.2620 C   0  0  0  0  0  0  0  0  0  0  0  0
   60.6560   32.6530   50.8800 C   0  0  0  0  0  0  0  0  0  0  0  0
   59.8190   33.5050   50.1840 C   0  0  0  0  0  0  0  0  0  0  0  0
   60.1070   33.9820   48.9230 C   0  0  0  0  0  0  0  0  0  0  0  0
   61.3020   33.5810   48.3300 C   0  0  0  0  0  0  0  0  0  0  0  0
   61.6290   34.0430   47.0530 C   0  0  0  0  0  0  0  0  0  0  0  0
   62.8120   33.6530   46.4490 C   0  0  0  0  0  0  0  0  0  0  0  0
   63.6750   32.7930   47.1310 C   0  0  0  0  0  0  0  0  0  0  0  0
   63.3240   32.3490   48.4000 C   0  0  0  0  0  0  0  0  0  0  0  0
   62.1430   32.7390   49.0000 C   0  0  0  0  0  0  0  0  0  0  0  0
   60.3940   28.0400   47.5900 C   0  0  0  0  0  0  0  0  0  0  0  0
   59.4310   27.6270   46.6670 C   0  0  0  0  0  0  0  0  0  0  0  0
   56.9090   31.3160   45.1360 N   0  0  0  0  0  0  0  0  0  0  0  0
   57.3870   32.5570   44.8280 C   0  0  0  0  0  0  0  0  0  0  0  0
   57.5910   33.5970   45.8710 C   0  0  0  0  0  0  0  0  0  0  0  0
   57.6820   32.8520   43.5500 N   0  0  0  0  0  0  0  0  0  0  0  0
   58.6030   33.1516   41.1591 H   0  0  0  0  0  0  0  0  0  0  0  0
   58.2888   31.4658   40.6245 H   0  0  0  0  0  0  0  0  0  0  0  0
   56.9568   32.6709   40.6245 H   0  0  0  0  0  0  0  0  0  0  0  0
   56.8981   29.9712   42.1066 H   0  0  0  0  0  0  0  0  0  0  0  0
   57.5993   30.4314   46.6209 H   0  0  0  0  0  0  0  0  0  0  0  0
   59.2900   31.1355   48.2300 H   0  0  0  0  0  0  0  0  0  0  0  0
   62.1410   30.3310   48.7420 H   0  0  0  0  0  0  0  0  0  0  0  0
   62.0273   30.2257   52.3922 H   0  0  0  0  0  0  0  0  0  0  0  0
   63.2660   29.4798   51.3218 H   0  0  0  0  0  0  0  0  0  0  0  0
   60.3941   32.2909   51.8851 H   0  0  0  0  0  0  0  0  0  0  0  0
   58.8775   33.8175   50.6594 H   0  0  0  0  0  0  0  0  0  0  0  0
   59.4143   34.6586   48.4011 H   0  0  0  0  0  0  0  0  0  0  0  0
   60.9425   34.7206   46.5242 H   0  0  0  0  0  0  0  0  0  0  0  0
   63.0692   34.0165   45.4432 H   0  0  0  0  0  0  0  0  0  0  0  0
   64.6203   32.4712   46.6697 H   0  0  0  0  0  0  0  0  0  0  0  0
   64.0024   31.6713   48.9390 H   0  0  0  0  0  0  0  0  0  0  0  0
   61.1962   27.3389   47.8636 H   0  0  0  0  0  0  0  0  0  0  0  0
   59.4920   26.6187   46.2317 H   0  0  0  0  0  0  0  0  0  0  0  0
   57.5013   33.1396   46.8674 H   0  0  0  0  0  0  0  0  0  0  0  0
   58.5927   34.0375   45.7586 H   0  0  0  0  0  0  0  0  0  0  0  0
   56.8300   34.3833   45.7586 H   0  0  0  0  0  0  0  0  0  0  0  0
   58.0530   33.8250   43.3440 H   0  0  0  0  0  0  0  0  0  0  0  0
  1  2  1  0
  2  3  2  0
  3  4  1  0
  4  5  2  0
  5  6  1  0
  6  7  2  0
  6  8  2  0
  6  9  1  0
  9 10  2  0
 10 11  1  0
 11 12  2  0
 12 13  1  0
 13 14  1  0
 14 15  2  0
 14 16  1  0
 16 17  1  0
 17 18  1  0
 18 19  2  0
 19 20  1  0
 20 21  2  0
 21 22  1  0
 22 23  2  0
 23 24  1  0
 24 25  2  0
 25 26  1  0
 26 27  2  0
 12 28  1  0
 28 29  2  0
  4 30  1  0
 30 31  2  0
 31 32  1  0
 31 33  1  0
 33  2  1  0
 29  9  1  0
 27 18  1  0
 27 22  1  0
  1 34  1  0
  1 35  1  0
  1 36  1  0
  3 37  1  0
 10 38  1  0
 11 39  1  0
 13 40  1  0
 16 41  1  0
 16 42  1  0
 19 43  1  0
 20 44  1  0
 21 45  1  0
 23 46  1  0
 24 47  1  0
 25 48  1  0
 26 49  1  0
 28 50  1  0
 29 51  1  0
 32 52  1  0
 32 53  1  0
 32 54  1  0
 33 55  1  0
M  END
>  <smiles>  (36) 
Cc1cc(=NS(=O)(=O)c2ccc(NC(=O)COc3cccc4ccccc34)cc2)nc(C)[nH]1

>  <score_type>  (36) 
oracle

>  <origin>  (36) 
adg

>  <m_score__min__energy>  (36) 
-9.6600000000000001

>  <m_primary>  (36) 
energy

$$$$
36:0
     RDKit          3D

 51 53  0  0  0  0  0  0  0  0999 V2000
   62.5200   31.3010   47.5050 C   0  0  0  0  0  0  0  0  0  0  0  0
   63.7680   32.0130   47.8330 N   0  0  0  0  0  0  0  0  0  0  0  0
   63.9070   32.1080   49.2950 C   0  0  0  0  0  0  0  0  0  0  0  0
   63.7870   33.3610   47.2240 C   0  0  0  0  0  0  0  0  0  0  0  0
   62.3680   33.8570   46.9240 C   0  0  0  0  0  0  0  0  0  0  0  0
   61.7310   34.3680   48.1330 N   0  0  0  0  0  0  0  0  0  0  0  0
   60.3630   34.1270   48.4850 C   0  0  0  0  0  0  0  0  0  0  0  0
   59.8970   34.6070   49.5550 O   0  0  0  0  0  0  0  0  0  0  0  0
   59.4950   33.3260   47.5920 C   0  0  0  0  0  0  0  0  0  0  0  0
   58.8710   33.9210   46.4790 C   0  0  0  0  0  0  0  0  0  0  0  0
   58.0510   33.1660   45.6360 C   0  0  0  0  0  0  0  0  0  0  0  0
   57.8270   31.8040   45.8980 C   0  0  0  0  0  0  0  0  0  0  0  0
   57.0170   30.9880   45.0390 N   0  0  0  0  0  0  0  0  0  0  0  0
   57.3920   30.4740   43.7560 C   0  0  0  0  0  0  0  0  0  0  0  0
   57.4080   31.2210   42.7400 O   0  0  0  0  0  0  0  0  0  0  0  0
   57.7620   29.0320   43.6230 C   0  0  0  0  0  0  0  0  0  0  0  0
   58.9140   28.7000   44.5290 C   0  0  0  0  0  0  0  0  0  0  0  0
   60.1210   29.3670   44.6010 C   0  0  0  0  0  0  0  0  0  0  0  0
   60.8330   28.8270   45.5620 O   0  0  0  0  0  0  0  0  0  0  0  0
   60.1970   27.8450   46.1340 N   0  0  0  0  0  0  0  0  0  0  0  0
   59.0060   27.7270   45.5130 C   0  0  0  0  0  0  0  0  0  0  0  0
   58.0070   26.7020   45.8760 C   0  0  0  0  0  0  0  0  0  0  0  0
   58.4030   25.4560   46.3940 C   0  0  0  0  0  0  0  0  0  0  0  0
   57.4430   24.5060   46.7550 C   0  0  0  0  0  0  0  0  0  0  0  0
   56.0830   24.7950   46.6160 C   0  0  0  0  0  0  0  0  0  0  0  0
   55.6800   26.0390   46.1220 C   0  0  0  0  0  0  0  0  0  0  0  0
   54.3270   26.3290   45.9920 O   0  0  0  0  0  0  0  0  0  0  0  0
   56.6380   26.9930   45.7610 C   0  0  0  0  0  0  0  0  0  0  0  0
   58.4640   31.2040   46.9890 C   0  0  0  0  0  0  0  0  0  0  0  0
   59.2840   31.9570   47.8350 C   0  0  0  0  0  0  0  0  0  0  0  0
   62.0090   31.0095   48.4345 H   0  0  0  0  0  0  0  0  0  0  0  0
   61.8647   31.9612   46.9179 H   0  0  0  0  0  0  0  0  0  0  0  0
   62.7548   30.4009   46.9179 H   0  0  0  0  0  0  0  0  0  0  0  0
   63.0910   31.5503   49.7779 H   0  0  0  0  0  0  0  0  0  0  0  0
   64.8737   31.6808   49.5999 H   0  0  0  0  0  0  0  0  0  0  0  0
   63.8601   33.1639   49.5999 H   0  0  0  0  0  0  0  0  0  0  0  0
   64.2718   34.0616   47.9197 H   0  0  0  0  0  0  0  0  0  0  0  0
   64.3430   33.3059   46.2764 H   0  0  0  0  0  0  0  0  0  0  0  0
   62.4179   34.6613   46.1753 H   0  0  0  0  0  0  0  0  0  0  0  0
   61.7735   33.0141   46.5417 H   0  0  0  0  0  0  0  0  0  0  0  0
   59.0303   34.9894   46.2711 H   0  0  0  0  0  0  0  0  0  0  0  0
   57.5787   33.6404   44.7631 H   0  0  0  0  0  0  0  0  0  0  0  0
   56.8967   28.4095   43.8943 H   0  0  0  0  0  0  0  0  0  0  0  0
   58.0587   28.8347   42.5823 H   0  0  0  0  0  0  0  0  0  0  0  0
   60.4322   30.2068   43.9624 H   0  0  0  0  0  0  0  0  0  0  0  0
   59.4722   25.2280   46.5156 H   0  0  0  0  0  0  0  0  0  0  0  0
   57.7589   23.5289   47.1493 H   0  0  0  0  0  0  0  0  0  0  0  0
   55.3296   24.0437   46.8953 H   0  0  0  0  0  0  0  0  0  0  0  0
   56.3171   27.9758   45.3853 H   0  0  0  0  0  0  0  0  0  0  0  0
   58.3187   30.1310   47.1831 H   0  0  0  0  0  0  0  0  0  0  0  0
   59.7678   31.4749   48.6973 H   0  0  0  0  0  0  0  0  0  0  0  0
  1  2  1  0
  2  3  1  0
  2  4  1  0
  4  5  1  0
  5  6  1  0
  6  7  1  0
  7  8  2  0
  7  9  1  0
  9 10  2  0
 10 11  1  0
 11 12  2  0
 12 13  1  0
 13 14  1  0
 14 15  2  0
 14 16  1  0
 16 17  1  0
 17 18  2  0
 18 19  1  0
 19 20  1  0
 20 21  2  0
 21 22  1  0
 22 23  2  0
 23 24  1  0
 24 25  2  0
 25 26  1  0
 26 27  1  0
 26 28  2  0
 12 29  1  0
 29 30  2  0
 30  9  1  0
 21 17  1  0
 28 22  1  0
  1 31  1  0
  1 32  1  0
  1 33  1  0
  3 34  1  0
  3 35  1  0
  3 36  1  0
  4 37  1  0
  4 38  1  0
  5 39  1  0
  5 40  1  0
 10 41  1  0
 11 42  1  0
 16 43  1  0
 16 44  1  0
 18 45  1  0
 23 46  1  0
 24 47  1  0
 25 48  1  0
 28 49  1  0
 29 50  1  0
 30 51  1  0
M  CHG  3   6  -1  13  -1  27  -1
M  END
>  <UniqueID>  (37) 
34

>  <SMILES>  (37) 
CN(C)CC[N-]C(=O)c1ccc([N-]C(=O)Cc2conc2-c2cccc([O-])c2)cc1

>  <Energy>  (37) 
88.55562055038543

>  <Genealogy>  (37) 
CN(C)CC[N-]C(=O)c1ccc([N-]C(=O)Cc2conc2-c2cccc([O-])c2)cc1 (protonated)
CN(C)CC[N-]C(=O)c1ccc([N-]C(=O)Cc2conc2-c2cccc([O-])c2)cc1 (3D coordinates assigned)
CN(C)CC[N-]C(=O)c1ccc([N-]C(=O)Cc2conc2-c2cccc([O-])c2)cc1 (optimized conformer: 88.55562055038543 kcal/mol)

>  <smiles>  (37) 
CN(C)CCNC(=O)c1ccc(NC(=O)Cc2conc2-c2cccc(O)c2)cc1

>  <score_type>  (37) 
oracle

>  <origin>  (37) 
adg

>  <m_score__min__energy>  (37) 
-14.470000000000001

>  <m_primary>  (37) 
energy

$$$$
37:0
     RDKit          3D

 41 44  0  0  0  0  0  0  0  0999 V2000
   58.9356   24.6939   44.6347 H   0  0  0  0  0  0  0  0  0  0  0  0
   58.0550   25.3510   44.5810 C   0  0  0  0  0  0  0  0  0  0  0  0
   58.2540   26.6780   44.5480 C   0  0  0  0  0  0  0  0  0  0  0  0
   58.1648   27.2033   43.5857 H   0  0  0  0  0  0  0  0  0  0  0  0
   58.5910   27.4650   45.7660 C   0  0  0  0  0  0  0  0  0  0  0  0
   59.2240   26.8410   46.7960 N   0  0  0  0  0  0  0  0  0  0  0  0
   59.5760   27.4980   47.9260 C   0  0  0  0  0  0  0  0  0  0  0  0
   60.2270   26.8140   48.9600 C   0  0  0  0  0  0  0  0  0  0  0  0
   60.4498   25.7419   48.8550 H   0  0  0  0  0  0  0  0  0  0  0  0
   60.5940   27.4930   50.1260 C   0  0  0  0  0  0  0  0  0  0  0  0
   61.2400   26.8130   51.1510 O   0  0  0  0  0  0  0  0  0  0  0  0
   60.3120   28.8570   50.2610 C   0  0  0  0  0  0  0  0  0  0  0  0
   60.6018   29.3890   51.1792 H   0  0  0  0  0  0  0  0  0  0  0  0
   59.6630   29.5450   49.2320 C   0  0  0  0  0  0  0  0  0  0  0  0
   59.4432   30.6172   49.3418 H   0  0  0  0  0  0  0  0  0  0  0  0
   59.2900   28.8680   48.0550 C   0  0  0  0  0  0  0  0  0  0  0  0
   58.6330   29.5110   46.9930 C   0  0  0  0  0  0  0  0  0  0  0  0
   58.3550   30.7410   47.0800 O   0  0  0  0  0  0  0  0  0  0  0  0
   58.2890   28.8060   45.8670 N   0  0  0  0  0  0  0  0  0  0  0  0
   57.6000   29.4900   44.8030 C   0  0  0  0  0  0  0  0  0  0  0  0
   58.2670   30.4700   44.0530 C   0  0  0  0  0  0  0  0  0  0  0  0
   59.3136   30.7185   44.2827 H   0  0  0  0  0  0  0  0  0  0  0  0
   57.6050   31.1320   43.0140 C   0  0  0  0  0  0  0  0  0  0  0  0
   58.1314   31.8993   42.4273 H   0  0  0  0  0  0  0  0  0  0  0  0
   56.2750   30.8190   42.7210 C   0  0  0  0  0  0  0  0  0  0  0  0
   55.7563   31.3389   41.9020 H   0  0  0  0  0  0  0  0  0  0  0  0
   55.6020   29.8460   43.4670 C   0  0  0  0  0  0  0  0  0  0  0  0
   54.5543   29.6035   43.2357 H   0  0  0  0  0  0  0  0  0  0  0  0
   56.2600   29.1810   44.5070 C   0  0  0  0  0  0  0  0  0  0  0  0
   55.5840   28.2160   45.2450 O   0  0  0  0  0  0  0  0  0  0  0  0
   56.7120   24.7230   44.5490 C   0  0  0  0  0  0  0  0  0  0  0  0
   55.8180   24.9890   45.6010 C   0  0  0  0  0  0  0  0  0  0  0  0
   56.1281   25.6462   46.4268 H   0  0  0  0  0  0  0  0  0  0  0  0
   54.5390   24.4260   45.6070 C   0  0  0  0  0  0  0  0  0  0  0  0
   53.8518   24.6329   46.4406 H   0  0  0  0  0  0  0  0  0  0  0  0
   54.1320   23.6010   44.5560 C   0  0  0  0  0  0  0  0  0  0  0  0
   52.8590   23.0430   44.5630 O   0  0  0  0  0  0  0  0  0  0  0  0
   55.0020   23.3420   43.4950 C   0  0  0  0  0  0  0  0  0  0  0  0
   54.6783   22.6973   42.6646 H   0  0  0  0  0  0  0  0  0  0  0  0
   56.2850   23.9010   43.4860 C   0  0  0  0  0  0  0  0  0  0  0  0
   56.9641   23.6979   42.6448 H   0  0  0  0  0  0  0  0  0  0  0  0
  1  2  1  0
  2  3  2  0
  3  4  1  0
  3  5  1  0
  5  6  2  0
  6  7  1  0
  7  8  2  0
  8  9  1  0
  8 10  1  0
 10 11  1  0
 10 12  2  0
 12 13  1  0
 12 14  1  0
 14 15  1  0
 14 16  2  0
 16 17  1  0
 17 18  2  0
 17 19  1  0
 19 20  1  0
 20 21  2  0
 21 22  1  0
 21 23  1  0
 23 24  1  0
 23 25  2  0
 25 26  1  0
 25 27  1  0
 27 28  1  0
 27 29  2  0
 29 30  1  0
  2 31  1  0
 31 32  2  0
 32 33  1  0
 32 34  1  0
 34 35  1  0
 34 36  2  0
 36 37  1  0
 36 38  1  0
 38 39  1  0
 38 40  2  0
 40 41  1  0
 19  5  1  0
 29 20  1  0
 40 31  1  0
 16  7  1  0
M  CHG  3  11  -1  30  -1  37  -1
M  END
>  <UniqueID>  (38) 
35

>  <SMILES>  (38) 
O=c1c2ccc([O-])cc2nc(/C=C/c2ccc([O-])cc2)n1-c1ccccc1[O-]

>  <Energy>  (38) 
64.51612709990091

>  <Genealogy>  (38) 
O=c1c2ccc([O-])cc2nc(C=Cc2ccc([O-])cc2)n1-c1ccccc1[O-] (protonated)
O=c1c2ccc([O-])cc2nc(/C=C/c2ccc([O-])cc2)n1-c1ccccc1[O-] (cis-trans isomerization)
O=c1c2ccc([O-])cc2nc(/C=C/c2ccc([O-])cc2)n1-c1ccccc1[O-] (3D coordinates assigned)
O=c1c2ccc([O-])cc2nc(/C=C/c2ccc([O-])cc2)n1-c1ccccc1[O-] (optimized conformer: 64.51612709990091 kcal/mol)

>  <smiles>  (38) 
O=c1c2ccc(O)cc2nc(C=Cc2ccc(O)cc2)n1-c1ccccc1O

>  <score_type>  (38) 
oracle

>  <origin>  (38) 
adg

>  <m_score__min__energy>  (38) 
-13.57

>  <m_primary>  (38) 
energy

$$$$
38:0
     RDKit          3D

 49 52  0  0  0  0  0  0  0  0999 V2000
   59.3130   31.1610   49.7150 C   0  0  0  0  0  0  0  0  0  0  0  0
   58.4910   32.3110   49.1470 C   0  0  0  0  0  0  0  0  0  0  0  0
   59.2900   33.4860   49.0060 O   0  0  0  0  0  0  0  0  0  0  0  0
   60.5670   33.5440   48.4160 C   0  0  0  0  0  0  0  0  0  0  0  0
   61.7430   33.6980   49.1790 C   0  0  0  0  0  0  0  0  0  0  0  0
   62.9870   33.7930   48.5500 C   0  0  0  0  0  0  0  0  0  0  0  0
   63.0750   33.7410   47.1580 C   0  0  0  0  0  0  0  0  0  0  0  0
   61.9190   33.5880   46.3900 C   0  0  0  0  0  0  0  0  0  0  0  0
   60.6660   33.4750   47.0110 C   0  0  0  0  0  0  0  0  0  0  0  0
   59.4580   33.3080   46.1790 C   0  0  0  0  0  0  0  0  0  0  0  0
   58.8280   34.4170   45.5900 C   0  0  0  0  0  0  0  0  0  0  0  0
   57.6700   34.2100   44.8180 C   0  0  0  0  0  0  0  0  0  0  0  0
   57.1770   32.9510   44.6310 N   0  0  0  0  0  0  0  0  0  0  0  0
   57.8260   31.9060   45.2000 C   0  0  0  0  0  0  0  0  0  0  0  0
   57.5190   30.5650   45.1250 C   0  0  0  0  0  0  0  0  0  0  0  0
   56.3320   29.9630   44.4870 C   0  0  0  0  0  0  0  0  0  0  0  0
   55.5260   29.0220   45.1920 N   0  0  0  0  0  0  0  0  0  0  0  0
   56.0010   30.3120   43.3230 O   0  0  0  0  0  0  0  0  0  0  0  0
   58.5400   29.9620   45.8770 C   0  0  0  0  0  0  0  0  0  0  0  0
   58.7880   28.5170   46.0590 C   0  0  0  0  0  0  0  0  0  0  0  0
   60.1050   28.0410   46.1450 C   0  0  0  0  0  0  0  0  0  0  0  0
   60.3510   26.6740   46.2970 C   0  0  0  0  0  0  0  0  0  0  0  0
   59.2880   25.7700   46.3470 C   0  0  0  0  0  0  0  0  0  0  0  0
   57.9700   26.2290   46.2280 C   0  0  0  0  0  0  0  0  0  0  0  0
   56.6150   25.1050   46.2870 S   0  0  0  0  0  0  0  0  0  0  0  0
   55.1560   25.9350   45.8730 N   0  0  0  0  0  0  0  0  0  0  0  0
   56.8530   23.9850   45.3120 O   0  0  0  0  0  0  0  0  0  0  0  0
   56.4800   24.5250   47.6660 O   0  0  0  0  0  0  0  0  0  0  0  0
   57.7240   27.6000   46.0750 C   0  0  0  0  0  0  0  0  0  0  0  0
   59.3730   30.9110   46.3710 N   0  0  0  0  0  0  0  0  0  0  0  0
   58.9190   32.0800   45.9520 N   0  0  0  0  0  0  0  0  0  0  0  0
   59.2860   31.1988   50.8140 H   0  0  0  0  0  0  0  0  0  0  0  0
   58.8926   30.2046   49.3706 H   0  0  0  0  0  0  0  0  0  0  0  0
   60.3540   31.2492   49.3706 H   0  0  0  0  0  0  0  0  0  0  0  0
   58.0991   32.0212   48.1609 H   0  0  0  0  0  0  0  0  0  0  0  0
   57.6644   32.5285   49.8395 H   0  0  0  0  0  0  0  0  0  0  0  0
   61.6805   33.7436   50.2763 H   0  0  0  0  0  0  0  0  0  0  0  0
   63.8994   33.9091   49.1534 H   0  0  0  0  0  0  0  0  0  0  0  0
   64.0555   33.8206   46.6658 H   0  0  0  0  0  0  0  0  0  0  0  0
   61.9910   33.5559   45.2928 H   0  0  0  0  0  0  0  0  0  0  0  0
   59.2332   35.4300   45.7300 H   0  0  0  0  0  0  0  0  0  0  0  0
   57.1578   35.0698   44.3615 H   0  0  0  0  0  0  0  0  0  0  0  0
   55.5370   28.0090   44.9390 H   0  0  0  0  0  0  0  0  0  0  0  0
   60.9471   28.7467   46.0926 H   0  0  0  0  0  0  0  0  0  0  0  0
   61.3855   26.3088   46.3775 H   0  0  0  0  0  0  0  0  0  0  0  0
   59.4859   24.6961   46.4800 H   0  0  0  0  0  0  0  0  0  0  0  0
   55.4200   26.7220   45.2410 H   0  0  0  0  0  0  0  0  0  0  0  0
   54.7910   26.3640   46.7530 H   0  0  0  0  0  0  0  0  0  0  0  0
   56.6905   27.9607   45.9667 H   0  0  0  0  0  0  0  0  0  0  0  0
  1  2  1  0
  2  3  1  0
  3  4  1  0
  4  5  2  0
  5  6  1  0
  6  7  2  0
  7  8  1  0
  8  9  2  0
  9 10  1  0
 10 11  2  0
 11 12  1  0
 12 13  2  0
 13 14  1  0
 14 15  2  0
 15 16  1  0
 16 17  1  0
 16 18  2  0
 15 19  1  0
 19 20  1  0
 20 21  2  0
 21 22  1  0
 22 23  2  0
 23 24  1  0
 24 25  1  0
 25 26  1  0
 25 27  2  0
 25 28  2  0
 24 29  2  0
 19 30  2  0
 30 31  1  0
  9  4  1  0
 31 10  1  0
 31 14  1  0
 29 20  1  0
  1 32  1  0
  1 33  1  0
  1 34  1  0
  2 35  1  0
  2 36  1  0
  5 37  1  0
  6 38  1  0
  7 39  1  0
  8 40  1  0
 11 41  1  0
 12 42  1  0
 17 43  1  0
 21 44  1  0
 22 45  1  0
 23 46  1  0
 26 47  1  0
 26 48  1  0
 29 49  1  0
M  CHG  1  17  -1
M  END
>  <UniqueID>  (39) 
36

>  <SMILES>  (39) 
CCOc1ccccc1-c1ccnc2c(C([NH-])=O)c(-c3cccc(S(N)(=O)=O)c3)nn12

>  <Energy>  (39) 
98.89829423370408

>  <Genealogy>  (39) 
CCOc1ccccc1-c1ccnc2c(C([NH-])=O)c(-c3cccc(S(N)(=O)=O)c3)nn12 (protonated)
CCOc1ccccc1-c1ccnc2c(C([NH-])=O)c(-c3cccc(S(N)(=O)=O)c3)nn12 (3D coordinates assigned)
CCOc1ccccc1-c1ccnc2c(C([NH-])=O)c(-c3cccc(S(N)(=O)=O)c3)nn12 (optimized conformer: 98.89829423370408 kcal/mol)

>  <smiles>  (39) 
CCOc1ccccc1-c1ccnc2c(C(N)=O)c(-c3cccc(S(N)(=O)=O)c3)nn12

>  <score_type>  (39) 
oracle

>  <origin>  (39) 
adg

>  <m_score__min__energy>  (39) 
-13.359999999999999

>  <m_primary>  (39) 
energy

$$$$
39:0
     RDKit          3D

 46 48  0  0  0  0  0  0  0  0999 V2000
   57.5520   31.6410   42.9510 N   0  0  0  0  0  0  0  0  0  0  0  0
   56.7460   30.2970   43.6810 S   0  0  0  0  0  0  0  0  0  0  0  0
   55.5520   30.7930   44.4490 O   0  0  0  0  0  0  0  0  0  0  0  0
   56.2750   29.3510   42.6130 O   0  0  0  0  0  0  0  0  0  0  0  0
   57.8570   29.4590   44.7600 C   0  0  0  0  0  0  0  0  0  0  0  0
   57.3750   28.7040   45.8370 C   0  0  0  0  0  0  0  0  0  0  0  0
   58.2680   28.0490   46.6900 C   0  0  0  0  0  0  0  0  0  0  0  0
   59.6500   28.1600   46.4940 C   0  0  0  0  0  0  0  0  0  0  0  0
   60.5290   27.4570   47.3850 N   0  0  0  0  0  0  0  0  0  0  0  0
   60.7120   27.7150   48.7840 C   0  0  0  0  0  0  0  0  0  0  0  0
   60.8650   26.7550   49.5880 O   0  0  0  0  0  0  0  0  0  0  0  0
   60.7730   29.1100   49.2800 C   0  0  0  0  0  0  0  0  0  0  0  0
   60.5400   29.3970   50.6370 C   0  0  0  0  0  0  0  0  0  0  0  0
   60.5940   30.7130   51.1020 C   0  0  0  0  0  0  0  0  0  0  0  0
   60.8800   31.7590   50.2230 C   0  0  0  0  0  0  0  0  0  0  0  0
   60.9220   33.0310   50.6930 F   0  0  0  0  0  0  0  0  0  0  0  0
   61.1150   31.4920   48.8670 C   0  0  0  0  0  0  0  0  0  0  0  0
   61.4540   32.8210   47.7560 S   0  0  0  0  0  0  0  0  0  0  0  0
   61.5100   34.1010   48.5410 O   0  0  0  0  0  0  0  0  0  0  0  0
   62.7810   32.6080   47.0800 O   0  0  0  0  0  0  0  0  0  0  0  0
   60.1870   32.9160   46.5590 N   0  0  0  0  0  0  0  0  0  0  0  0
   58.9090   32.4840   47.1490 C   0  0  0  0  0  0  0  0  0  0  0  0
   57.7400   32.7600   46.1820 C   0  0  0  0  0  0  0  0  0  0  0  0
   58.2090   33.1730   44.9130 O   0  0  0  0  0  0  0  0  0  0  0  0
   58.9160   34.3940   45.0390 C   0  0  0  0  0  0  0  0  0  0  0  0
   60.0720   34.2920   46.0550 C   0  0  0  0  0  0  0  0  0  0  0  0
   61.0610   30.1700   48.4000 C   0  0  0  0  0  0  0  0  0  0  0  0
   60.1310   28.9010   45.4010 C   0  0  0  0  0  0  0  0  0  0  0  0
   59.2390   29.5530   44.5450 C   0  0  0  0  0  0  0  0  0  0  0  0
   57.0330   32.4980   43.2380 H   0  0  0  0  0  0  0  0  0  0  0  0
   58.4990   31.6990   43.3860 H   0  0  0  0  0  0  0  0  0  0  0  0
   56.2918   28.6264   46.0118 H   0  0  0  0  0  0  0  0  0  0  0  0
   57.8820   27.4415   47.5218 H   0  0  0  0  0  0  0  0  0  0  0  0
   60.3136   28.5793   51.3371 H   0  0  0  0  0  0  0  0  0  0  0  0
   60.4104   30.9260   52.1654 H   0  0  0  0  0  0  0  0  0  0  0  0
   58.9554   31.4055   47.3605 H   0  0  0  0  0  0  0  0  0  0  0  0
   58.7400   33.0487   48.0777 H   0  0  0  0  0  0  0  0  0  0  0  0
   57.1484   31.8403   46.0634 H   0  0  0  0  0  0  0  0  0  0  0  0
   57.1238   33.5676   46.6040 H   0  0  0  0  0  0  0  0  0  0  0  0
   59.3297   34.6675   44.0571 H   0  0  0  0  0  0  0  0  0  0  0  0
   58.2121   35.1575   45.4018 H   0  0  0  0  0  0  0  0  0  0  0  0
   61.0135   34.5786   45.5637 H   0  0  0  0  0  0  0  0  0  0  0  0
   59.8675   34.9668   46.8993 H   0  0  0  0  0  0  0  0  0  0  0  0
   61.2455   29.9600   47.3361 H   0  0  0  0  0  0  0  0  0  0  0  0
   61.2137   28.9681   45.2185 H   0  0  0  0  0  0  0  0  0  0  0  0
   59.6230   30.1422   43.6992 H   0  0  0  0  0  0  0  0  0  0  0  0
  1  2  1  0
  2  3  2  0
  2  4  2  0
  2  5  1  0
  5  6  2  0
  6  7  1  0
  7  8  2  0
  8  9  1  0
  9 10  1  0
 10 11  2  0
 10 12  1  0
 12 13  2  0
 13 14  1  0
 14 15  2  0
 15 16  1  0
 15 17  1  0
 17 18  1  0
 18 19  2  0
 18 20  2  0
 18 21  1  0
 21 22  1  0
 22 23  1  0
 23 24  1  0
 24 25  1  0
 25 26  1  0
 17 27  2  0
  8 28  1  0
 28 29  2  0
 29  5  1  0
 27 12  1  0
 26 21  1  0
  1 30  1  0
  1 31  1  0
  6 32  1  0
  7 33  1  0
 13 34  1  0
 14 35  1  0
 22 36  1  0
 22 37  1  0
 23 38  1  0
 23 39  1  0
 25 40  1  0
 25 41  1  0
 26 42  1  0
 26 43  1  0
 27 44  1  0
 28 45  1  0
 29 46  1  0
M  CHG  1   9  -1
M  END
>  <UniqueID>  (40) 
37

>  <SMILES>  (40) 
NS(=O)(=O)c1ccc([N-]C(=O)c2ccc(F)c(S(=O)(=O)N3CCOCC3)c2)cc1

>  <Energy>  (40) 
58.05436188713105

>  <Genealogy>  (40) 
NS(=O)(=O)c1ccc([N-]C(=O)c2ccc(F)c(S(=O)(=O)N3CCOCC3)c2)cc1 (protonated)
NS(=O)(=O)c1ccc([N-]C(=O)c2ccc(F)c(S(=O)(=O)N3CCOCC3)c2)cc1 (3D coordinates assigned)
NS(=O)(=O)c1ccc([N-]C(=O)c2ccc(F)c(S(=O)(=O)N3CCOCC3)c2)cc1 (nonaromatic ring conformer: 58.05436188713105 kcal/mol)

>  <smiles>  (40) 
NS(=O)(=O)c1ccc(NC(=O)c2ccc(F)c(S(=O)(=O)N3CCOCC3)c2)cc1

>  <score_type>  (40) 
oracle

>  <origin>  (40) 
adg

>  <m_score__min__energy>  (40) 
-11.199999999999999

>  <m_primary>  (40) 
energy

$$$$
40:0
     RDKit          3D

 36 39  0  0  0  0  0  0  0  0999 V2000
   59.9550   28.4280   50.1730 O   0  0  0  0  0  0  0  0  0  0  0  0
   59.4970   29.6010   50.1930 C   0  0  0  0  0  0  0  0  0  0  0  0
   59.8320   30.6590   49.2470 C   0  0  0  0  0  0  0  0  0  0  0  0
   60.6650   30.6520   48.1300 C   0  0  0  0  0  0  0  0  0  0  0  0
   60.8120   31.8510   47.4090 C   0  0  0  0  0  0  0  0  0  0  0  0
   60.1340   33.0200   47.8170 C   0  0  0  0  0  0  0  0  0  0  0  0
   59.3030   33.0020   48.9520 C   0  0  0  0  0  0  0  0  0  0  0  0
   59.1700   31.8010   49.6460 C   0  0  0  0  0  0  0  0  0  0  0  0
   58.4120   31.4730   50.8480 C   0  0  0  0  0  0  0  0  0  0  0  0
   57.7220   32.2830   51.5230 O   0  0  0  0  0  0  0  0  0  0  0  0
   58.5870   30.0930   51.1800 N   0  0  0  0  0  0  0  0  0  0  0  0
   58.3090   29.4800   52.4750 C   0  0  0  0  0  0  0  0  0  0  0  0
   56.8380   29.5060   52.7490 C   0  0  0  0  0  0  0  0  0  0  0  0
   56.0860   28.4800   53.2750 C   0  0  0  0  0  0  0  0  0  0  0  0
   54.8310   28.8650   53.2710 O   0  0  0  0  0  0  0  0  0  0  0  0
   54.7860   30.0770   52.7570 C   0  0  0  0  0  0  0  0  0  0  0  0
   53.5280   30.8410   52.5810 C   0  0  0  0  0  0  0  0  0  0  0  0
   52.5740   30.9400   53.6120 C   0  0  0  0  0  0  0  0  0  0  0  0
   51.3960   31.6680   53.4190 C   0  0  0  0  0  0  0  0  0  0  0  0
   51.1550   32.3040   52.1980 C   0  0  0  0  0  0  0  0  0  0  0  0
   49.9840   33.0260   52.0080 O   0  0  0  0  0  0  0  0  0  0  0  0
   52.0950   32.2120   51.1670 C   0  0  0  0  0  0  0  0  0  0  0  0
   53.2740   31.4850   51.3570 C   0  0  0  0  0  0  0  0  0  0  0  0
   56.0160   30.5140   52.4100 N   0  0  0  0  0  0  0  0  0  0  0  0
   61.1916   29.7369   47.8214 H   0  0  0  0  0  0  0  0  0  0  0  0
   61.4601   31.8778   46.5206 H   0  0  0  0  0  0  0  0  0  0  0  0
   60.2562   33.9509   47.2438 H   0  0  0  0  0  0  0  0  0  0  0  0
   58.7743   33.9085   49.2816 H   0  0  0  0  0  0  0  0  0  0  0  0
   58.6596   28.4374   52.4672 H   0  0  0  0  0  0  0  0  0  0  0  0
   58.8325   30.0440   53.2610 H   0  0  0  0  0  0  0  0  0  0  0  0
   56.4676   27.5127   53.6337 H   0  0  0  0  0  0  0  0  0  0  0  0
   52.7567   30.4414   54.5753 H   0  0  0  0  0  0  0  0  0  0  0  0
   50.6568   31.7404   54.2304 H   0  0  0  0  0  0  0  0  0  0  0  0
   51.9067   32.7121   50.2055 H   0  0  0  0  0  0  0  0  0  0  0  0
   54.0094   31.4162   50.5419 H   0  0  0  0  0  0  0  0  0  0  0  0
   56.2900   31.4160   51.9630 H   0  0  0  0  0  0  0  0  0  0  0  0
  1  2  2  0
  2  3  1  0
  3  4  2  0
  4  5  1  0
  5  6  2  0
  6  7  1  0
  7  8  2  0
  8  9  1  0
  9 10  2  0
  9 11  1  0
 11 12  1  0
 12 13  1  0
 13 14  2  0
 14 15  1  0
 15 16  1  0
 16 17  1  0
 17 18  2  0
 18 19  1  0
 19 20  2  0
 20 21  1  0
 20 22  1  0
 22 23  2  0
 16 24  2  0
 11  2  1  0
 24 13  1  0
  8  3  1  0
 23 17  1  0
  4 25  1  0
  5 26  1  0
  6 27  1  0
  7 28  1  0
 12 29  1  0
 12 30  1  0
 14 31  1  0
 18 32  1  0
 19 33  1  0
 22 34  1  0
 23 35  1  0
 24 36  1  0
M  CHG  2  21  -1  24   1
M  END
>  <UniqueID>  (41) 
38

>  <SMILES>  (41) 
O=C1c2ccccc2C(=O)N1Cc1coc(-c2ccc([O-])cc2)[nH+]1

>  <Energy>  (41) 
102.22891901508261

>  <Genealogy>  (41) 
O=C1c2ccccc2C(=O)N1Cc1coc(-c2ccc([O-])cc2)[nH+]1 (protonated)
O=C1c2ccccc2C(=O)N1Cc1coc(-c2ccc([O-])cc2)[nH+]1 (3D coordinates assigned)
O=C1c2ccccc2C(=O)N1Cc1coc(-c2ccc([O-])cc2)[nH+]1 (nonaromatic ring conformer: 102.22891901508261 kcal/mol)

>  <smiles>  (41) 
O=C1c2ccccc2C(=O)N1Cc1coc(-c2ccc(O)cc2)n1

>  <score_type>  (41) 
oracle

>  <origin>  (41) 
adg

>  <m_score__min__energy>  (41) 
-9.1899999999999995

>  <m_primary>  (41) 
energy

$$$$
41:0
     RDKit          3D

 53 56  0  0  0  0  0  0  0  0999 V2000
   57.7240   22.0010   46.8120 N   0  0  0  0  0  0  0  0  0  0  0  0
   58.5830   22.5790   45.4280 S   0  0  0  0  0  0  0  0  0  0  0  0
   60.0420   22.2470   45.5760 O   0  0  0  0  0  0  0  0  0  0  0  0
   58.0590   21.9060   44.1890 O   0  0  0  0  0  0  0  0  0  0  0  0
   58.3680   24.3210   45.2840 C   0  0  0  0  0  0  0  0  0  0  0  0
   57.6600   24.8460   44.1960 C   0  0  0  0  0  0  0  0  0  0  0  0
   57.4810   26.2270   44.0710 C   0  0  0  0  0  0  0  0  0  0  0  0
   57.9970   27.1000   45.0460 C   0  0  0  0  0  0  0  0  0  0  0  0
   57.8540   28.5250   44.9250 N   0  0  0  0  0  0  0  0  0  0  0  0
   56.5930   29.2050   44.8700 C   0  0  0  0  0  0  0  0  0  0  0  0
   55.5220   28.5860   45.1150 O   0  0  0  0  0  0  0  0  0  0  0  0
   56.5650   30.5940   44.5220 N   0  0  0  0  0  0  0  0  0  0  0  0
   57.3910   31.6250   45.0830 C   0  0  0  0  0  0  0  0  0  0  0  0
   56.8860   32.9050   45.3760 C   0  0  0  0  0  0  0  0  0  0  0  0
   57.7110   33.8710   45.9600 C   0  0  0  0  0  0  0  0  0  0  0  0
   59.0460   33.5680   46.2630 C   0  0  0  0  0  0  0  0  0  0  0  0
   60.0710   34.7670   47.0460 S   0  0  0  0  0  0  0  0  0  0  0  0
   59.6290   36.1420   46.6280 O   0  0  0  0  0  0  0  0  0  0  0  0
   61.4990   34.5770   46.6190 O   0  0  0  0  0  0  0  0  0  0  0  0
   59.9660   34.6410   48.7700 N   0  0  0  0  0  0  0  0  0  0  0  0
   60.0490   33.3820   49.4430 C   0  0  0  0  0  0  0  0  0  0  0  0
   58.8780   32.7350   49.8560 C   0  0  0  0  0  0  0  0  0  0  0  0
   58.9600   31.5020   50.5050 C   0  0  0  0  0  0  0  0  0  0  0  0
   57.9120   30.9100   50.8700 O   0  0  0  0  0  0  0  0  0  0  0  0
   60.1730   30.9400   50.7470 N   0  0  0  0  0  0  0  0  0  0  0  0
   61.3390   31.5420   50.3830 C   0  0  0  0  0  0  0  0  0  0  0  0
   62.5780   30.9210   50.6620 C   0  0  0  0  0  0  0  0  0  0  0  0
   62.6240   29.5780   51.3580 C   0  0  0  0  0  0  0  0  0  0  0  0
   62.1200   29.7060   52.6390 F   0  0  0  0  0  0  0  0  0  0  0  0
   63.9330   29.1370   51.4290 F   0  0  0  0  0  0  0  0  0  0  0  0
   61.8790   28.6230   50.6890 F   0  0  0  0  0  0  0  0  0  0  0  0
   63.7660   31.5660   50.2700 C   0  0  0  0  0  0  0  0  0  0  0  0
   63.7260   32.8000   49.6200 C   0  0  0  0  0  0  0  0  0  0  0  0
   62.5040   33.4150   49.3440 C   0  0  0  0  0  0  0  0  0  0  0  0
   61.3000   32.7950   49.7210 C   0  0  0  0  0  0  0  0  0  0  0  0
   59.5430   32.2880   45.9930 C   0  0  0  0  0  0  0  0  0  0  0  0
   58.7170   31.3200   45.4150 C   0  0  0  0  0  0  0  0  0  0  0  0
   58.7180   26.5690   46.1260 C   0  0  0  0  0  0  0  0  0  0  0  0
   58.8940   25.1870   46.2520 C   0  0  0  0  0  0  0  0  0  0  0  0
   58.1490   21.0830   47.0740 H   0  0  0  0  0  0  0  0  0  0  0  0
   57.2427   24.1688   43.4362 H   0  0  0  0  0  0  0  0  0  0  0  0
   56.9345   26.6325   43.2068 H   0  0  0  0  0  0  0  0  0  0  0  0
   58.7170   29.1140   44.9710 H   0  0  0  0  0  0  0  0  0  0  0  0
   55.8381   33.1467   45.1447 H   0  0  0  0  0  0  0  0  0  0  0  0
   57.3116   34.8715   46.1824 H   0  0  0  0  0  0  0  0  0  0  0  0
   57.8971   33.1967   49.6697 H   0  0  0  0  0  0  0  0  0  0  0  0
   64.7366   31.0921   50.4783 H   0  0  0  0  0  0  0  0  0  0  0  0
   64.6642   33.2915   49.3230 H   0  0  0  0  0  0  0  0  0  0  0  0
   62.4829   34.3874   48.8301 H   0  0  0  0  0  0  0  0  0  0  0  0
   60.5873   32.0429   46.2365 H   0  0  0  0  0  0  0  0  0  0  0  0
   59.1110   30.3118   45.2195 H   0  0  0  0  0  0  0  0  0  0  0  0
   59.1483   27.2448   46.8797 H   0  0  0  0  0  0  0  0  0  0  0  0
   59.4459   24.7796   47.1119 H   0  0  0  0  0  0  0  0  0  0  0  0
  1  2  1  0
  2  3  2  0
  2  4  2  0
  2  5  1  0
  5  6  2  0
  6  7  1  0
  7  8  2  0
  8  9  1  0
  9 10  1  0
 10 11  2  0
 10 12  1  0
 12 13  1  0
 13 14  2  0
 14 15  1  0
 15 16  2  0
 16 17  1  0
 17 18  2  0
 17 19  2  0
 17 20  1  0
 20 21  1  0
 21 22  2  0
 22 23  1  0
 23 24  2  0
 23 25  1  0
 25 26  1  0
 26 27  2  0
 27 28  1  0
 28 29  1  0
 28 30  1  0
 28 31  1  0
 27 32  1  0
 32 33  2  0
 33 34  1  0
 34 35  2  0
 16 36  1  0
 36 37  2  0
  8 38  1  0
 38 39  2  0
 39  5  1  0
 37 13  1  0
 35 21  1  0
 35 26  1  0
  1 40  1  0
  6 41  1  0
  7 42  1  0
  9 43  1  0
 14 44  1  0
 15 45  1  0
 22 46  1  0
 32 47  1  0
 33 48  1  0
 34 49  1  0
 36 50  1  0
 37 51  1  0
 38 52  1  0
 39 53  1  0
M  CHG  4   1  -1  12  -1  20  -1  25  -1
M  END
>  <UniqueID>  (42) 
39

>  <SMILES>  (42) 
[NH-]S(=O)(=O)c1ccc(NC(=O)[N-]c2ccc(S(=O)(=O)[N-]c3cc(=O)[n-]c4c(C(F)(F)F)cccc34)cc2)cc1

>  <Energy>  (42) 
79.34856664515924

>  <Genealogy>  (42) 
[NH-]S(=O)(=O)c1ccc(NC(=O)[N-]c2ccc(S(=O)(=O)[N-]c3cc(=O)[n-]c4c(C(F)(F)F)cccc34)cc2)cc1 (protonated)
[NH-]S(=O)(=O)c1ccc(NC(=O)[N-]c2ccc(S(=O)(=O)[N-]c3cc(=O)[n-]c4c(C(F)(F)F)cccc34)cc2)cc1 (3D coordinates assigned)
[NH-]S(=O)(=O)c1ccc(NC(=O)[N-]c2ccc(S(=O)(=O)[N-]c3cc(=O)[n-]c4c(C(F)(F)F)cccc34)cc2)cc1 (optimized conformer: 79.34856664515924 kcal/mol)

>  <smiles>  (42) 
NS(=O)(=O)c1ccc(NC(=O)Nc2ccc(S(=O)(=O)Nc3cc(=O)[nH]c4c(C(F)(F)F)cccc34)cc2)cc1

>  <score_type>  (42) 
oracle

>  <origin>  (42) 
adg

>  <m_score__min__energy>  (42) 
-13.99

>  <m_primary>  (42) 
energy

$$$$
42:0
     RDKit          3D

 56 60  0  0  0  0  0  0  0  0999 V2000
   54.2560   26.7790   46.5870 H   0  0  0  0  0  0  0  0  0  0  0  0
   55.0120   26.3350   46.0190 N   0  0  0  0  0  0  0  0  0  0  0  0
   56.2550   26.4870   46.3380 C   0  0  0  0  0  0  0  0  0  0  0  0
   56.9610   25.5790   47.0330 N   0  0  0  0  0  0  0  0  0  0  0  0
   58.1780   26.0870   47.1520 N   0  0  0  0  0  0  0  0  0  0  0  0
   58.1540   27.2820   46.5280 C   0  0  0  0  0  0  0  0  0  0  0  0
   59.3430   28.1810   46.3890 C   0  0  0  0  0  0  0  0  0  0  0  0
   60.2033   27.7195   46.8959 H   0  0  0  0  0  0  0  0  0  0  0  0
   59.5529   28.3189   45.3181 H   0  0  0  0  0  0  0  0  0  0  0  0
   59.0840   29.4990   46.9870 N   0  0  0  0  0  0  0  0  0  0  0  0
   58.5320   30.5740   46.1970 C   0  0  0  0  0  0  0  0  0  0  0  0
   58.6970   31.9060   46.6110 C   0  0  0  0  0  0  0  0  0  0  0  0
   59.2394   32.1235   47.5429 H   0  0  0  0  0  0  0  0  0  0  0  0
   58.1750   32.9650   45.8450 C   0  0  0  0  0  0  0  0  0  0  0  0
   58.3190   34.3080   46.2250 O   0  0  0  0  0  0  0  0  0  0  0  0
   59.5570   35.0110   46.2430 C   0  0  0  0  0  0  0  0  0  0  0  0
   59.8644   35.1856   47.2846 H   0  0  0  0  0  0  0  0  0  0  0  0
   60.3250   34.4143   45.7291 H   0  0  0  0  0  0  0  0  0  0  0  0
   59.4380   35.9763   45.7291 H   0  0  0  0  0  0  0  0  0  0  0  0
   57.4860   32.6810   44.6620 C   0  0  0  0  0  0  0  0  0  0  0  0
   57.0707   33.5049   44.0631 H   0  0  0  0  0  0  0  0  0  0  0  0
   57.3180   31.3520   44.2290 C   0  0  0  0  0  0  0  0  0  0  0  0
   56.6390   31.0280   43.0450 O   0  0  0  0  0  0  0  0  0  0  0  0
   56.3000   29.7040   42.6490 C   0  0  0  0  0  0  0  0  0  0  0  0
   56.1411   29.0832   43.5431 H   0  0  0  0  0  0  0  0  0  0  0  0
   55.3784   29.7254   42.0489 H   0  0  0  0  0  0  0  0  0  0  0  0
   57.1185   29.2798   42.0489 H   0  0  0  0  0  0  0  0  0  0  0  0
   57.8440   30.3100   44.9990 C   0  0  0  0  0  0  0  0  0  0  0  0
   57.7180   29.2701   44.6633 H   0  0  0  0  0  0  0  0  0  0  0  0
   59.6750   29.8210   48.2580 C   0  0  0  0  0  0  0  0  0  0  0  0
   58.9000   29.7770   49.4260 C   0  0  0  0  0  0  0  0  0  0  0  0
   57.8383   29.4951   49.3683 H   0  0  0  0  0  0  0  0  0  0  0  0
   59.4710   30.0900   50.6640 C   0  0  0  0  0  0  0  0  0  0  0  0
   58.8601   30.0482   51.5778 H   0  0  0  0  0  0  0  0  0  0  0  0
   60.8220   30.4570   50.7400 C   0  0  0  0  0  0  0  0  0  0  0  0
   61.5980   30.5070   49.5650 C   0  0  0  0  0  0  0  0  0  0  0  0
   62.9050   30.8650   49.6460 N   0  0  0  0  0  0  0  0  0  0  0  0
   63.4880   31.1770   50.8350 C   0  0  0  0  0  0  0  0  0  0  0  0
   64.9140   31.5620   50.8630 C   0  0  0  0  0  0  0  0  0  0  0  0
   66.0080   30.7960   51.2380 C   0  0  0  0  0  0  0  0  0  0  0  0
   65.9679   29.7488   51.5722 H   0  0  0  0  0  0  0  0  0  0  0  0
   67.1280   31.5380   51.1280 N   0  0  0  0  0  0  0  0  0  0  0  0
   66.7740   32.7330   50.6850 N   0  0  0  0  0  0  0  0  0  0  0  0
   67.7030   33.8390   50.5030 C   0  0  0  0  0  0  0  0  0  0  0  0
   68.0204   34.2168   51.4861 H   0  0  0  0  0  0  0  0  0  0  0  0
   68.5830   33.4903   49.9427 H   0  0  0  0  0  0  0  0  0  0  0  0
   67.2076   34.6456   49.9427 H   0  0  0  0  0  0  0  0  0  0  0  0
   65.4400   32.7920   50.5250 C   0  0  0  0  0  0  0  0  0  0  0  0
   64.8682   33.6677   50.1842 H   0  0  0  0  0  0  0  0  0  0  0  0
   62.7110   31.1260   52.0060 C   0  0  0  0  0  0  0  0  0  0  0  0
   63.1615   31.3758   52.9779 H   0  0  0  0  0  0  0  0  0  0  0  0
   61.4010   30.7670   51.9340 N   0  0  0  0  0  0  0  0  0  0  0  0
   60.8400   30.7350   52.8160 H   0  0  0  0  0  0  0  0  0  0  0  0
   61.0240   30.1920   48.3290 C   0  0  0  0  0  0  0  0  0  0  0  0
   61.6316   30.2356   47.4131 H   0  0  0  0  0  0  0  0  0  0  0  0
   56.9720   27.5360   46.0190 O   0  0  0  0  0  0  0  0  0  0  0  0
  1  2  1  0
  2  3  2  0
  3  4  1  0
  4  5  1  0
  5  6  2  0
  6  7  1  0
  7  8  1  0
  7  9  1  0
  7 10  1  0
 10 11  1  0
 11 12  2  0
 12 13  1  0
 12 14  1  0
 14 15  1  0
 15 16  1  0
 16 17  1  0
 16 18  1  0
 16 19  1  0
 14 20  2  0
 20 21  1  0
 20 22  1  0
 22 23  1  0
 23 24  1  0
 24 25  1  0
 24 26  1  0
 24 27  1  0
 22 28  2  0
 28 29  1  0
 10 30  1  0
 30 31  2  0
 31 32  1  0
 31 33  1  0
 33 34  1  0
 33 35  2  0
 35 36  1  0
 36 37  1  0
 37 38  2  0
 38 39  1  0
 39 40  1  0
 40 41  1  0
 40 42  2  0
 42 43  1  0
 43 44  1  0
 44 45  1  0
 44 46  1  0
 44 47  1  0
 43 48  1  0
 48 49  1  0
 38 50  1  0
 50 51  1  0
 50 52  2  0
 52 53  1  0
 36 54  2  0
 54 55  1  0
  6 56  1  0
 56  3  1  0
 28 11  1  0
 54 30  1  0
 52 35  1  0
 48 39  2  0
M  CHG  2   4  -1  52   1
M  END
>  <UniqueID>  (43) 
40

>  <SMILES>  (43) 
[H]/N=c1/[n-]nc(CN(c2cc(OC)cc(OC)c2)c2ccc3[nH+]cc(-c4cnn(C)c4)nc3c2)o1

>  <Energy>  (43) 
138.10277214640473

>  <Genealogy>  (43) 
COc1cc(OC)cc(N(Cc2n[n-]c(=N)o2)c2ccc3[nH+]cc(-c4cnn(C)c4)nc3c2)c1 (protonated)
[H]/N=c1/[n-]nc(CN(c2cc(OC)cc(OC)c2)c2ccc3[nH+]cc(-c4cnn(C)c4)nc3c2)o1 (cis-trans isomerization)
[H]/N=c1/[n-]nc(CN(c2cc(OC)cc(OC)c2)c2ccc3[nH+]cc(-c4cnn(C)c4)nc3c2)o1 (3D coordinates assigned)
[H]/N=c1/[n-]nc(CN(c2cc(OC)cc(OC)c2)c2ccc3[nH+]cc(-c4cnn(C)c4)nc3c2)o1 (optimized conformer: 138.10277214640473 kcal/mol)

>  <smiles>  (43) 
COc1cc(OC)cc(N(Cc2n[nH]c(=N)o2)c2ccc3ncc(-c4cnn(C)c4)nc3c2)c1

>  <score_type>  (43) 
oracle

>  <origin>  (43) 
adg

>  <m_score__min__energy>  (43) 
-8.9800000000000004

>  <m_primary>  (43) 
energy

$$$$
43:0
     RDKit          3D

 42 44  0  0  0  0  0  0  0  0999 V2000
   59.6613   29.4091   47.8083 H   0  0  0  0  0  0  0  0  0  0  0  0
   59.5800   30.3020   47.1710 C   0  0  0  0  0  0  0  0  0  0  0  0
   60.5370   31.3060   47.2640 C   0  0  0  0  0  0  0  0  0  0  0  0
   61.6310   31.2470   48.1410 C   0  0  0  0  0  0  0  0  0  0  0  0
   61.7830   30.2340   48.8820 O   0  0  0  0  0  0  0  0  0  0  0  0
   62.5320   32.2810   48.1940 N   0  0  0  0  0  0  0  0  0  0  0  0
   63.6890   32.1930   49.1030 C   0  0  0  0  0  0  0  0  0  0  0  0
   63.3391   32.2196   50.1455 H   0  0  0  0  0  0  0  0  0  0  0  0
   64.2276   31.2513   48.9209 H   0  0  0  0  0  0  0  0  0  0  0  0
   64.3638   33.0424   48.9209 H   0  0  0  0  0  0  0  0  0  0  0  0
   62.4010   33.3600   47.3540 C   0  0  0  0  0  0  0  0  0  0  0  0
   63.2520   34.2910   47.3640 O   0  0  0  0  0  0  0  0  0  0  0  0
   61.3570   33.4490   46.4920 N   0  0  0  0  0  0  0  0  0  0  0  0
   60.4060   32.4850   46.4010 C   0  0  0  0  0  0  0  0  0  0  0  0
   59.3540   32.5920   45.5240 N   0  0  0  0  0  0  0  0  0  0  0  0
   59.2370   33.7900   44.6650 C   0  0  0  0  0  0  0  0  0  0  0  0
   59.1494   34.6866   45.2962 H   0  0  0  0  0  0  0  0  0  0  0  0
   60.1312   33.8746   44.0299 H   0  0  0  0  0  0  0  0  0  0  0  0
   58.3434   33.7000   44.0299 H   0  0  0  0  0  0  0  0  0  0  0  0
   58.4100   31.5800   45.4460 C   0  0  0  0  0  0  0  0  0  0  0  0
   57.3240   31.6590   44.5520 C   0  0  0  0  0  0  0  0  0  0  0  0
   57.2160   32.5395   43.9016 H   0  0  0  0  0  0  0  0  0  0  0  0
   56.3890   30.6350   44.4850 C   0  0  0  0  0  0  0  0  0  0  0  0
   55.5487   30.7168   43.7798 H   0  0  0  0  0  0  0  0  0  0  0  0
   56.4920   29.5350   45.2730 N   0  0  0  0  0  0  0  0  0  0  0  0
   55.5230   28.5710   45.1140 O   0  0  0  0  0  0  0  0  0  0  0  0
   57.5260   29.3950   46.1720 C   0  0  0  0  0  0  0  0  0  0  0  0
   57.6440   28.3460   46.9510 N   0  0  0  0  0  0  0  0  0  0  0  0
   58.1080   26.9890   46.6640 C   0  0  0  0  0  0  0  0  0  0  0  0
   58.1140   26.4066   47.5972 H   0  0  0  0  0  0  0  0  0  0  0  0
   59.1207   27.0490   46.2388 H   0  0  0  0  0  0  0  0  0  0  0  0
   57.2150   26.3120   45.6710 C   0  0  0  0  0  0  0  0  0  0  0  0
   56.0120   26.0770   45.9680 O   0  0  0  0  0  0  0  0  0  0  0  0
   57.7380   25.9130   44.4370 O   0  0  0  0  0  0  0  0  0  0  0  0
   58.0050   26.8170   43.3670 C   0  0  0  0  0  0  0  0  0  0  0  0
   57.0728   27.3292   43.0864 H   0  0  0  0  0  0  0  0  0  0  0  0
   58.4000   26.2466   42.5134 H   0  0  0  0  0  0  0  0  0  0  0  0
   59.0400   27.8550   43.7820 C   0  0  0  0  0  0  0  0  0  0  0  0
   59.0896   27.9048   44.8798 H   0  0  0  0  0  0  0  0  0  0  0  0
   60.0248   27.5707   43.3830 H   0  0  0  0  0  0  0  0  0  0  0  0
   58.7528   28.8390   43.3830 H   0  0  0  0  0  0  0  0  0  0  0  0
   58.5090   30.4200   46.2680 C   0  0  0  0  0  0  0  0  0  0  0  0
  1  2  1  0
  2  3  2  0
  3  4  1  0
  4  5  2  0
  4  6  1  0
  6  7  1  0
  7  8  1  0
  7  9  1  0
  7 10  1  0
  6 11  1  0
 11 12  2  0
 11 13  1  0
 13 14  2  0
 14 15  1  0
 15 16  1  0
 16 17  1  0
 16 18  1  0
 16 19  1  0
 15 20  1  0
 20 21  1  0
 21 22  1  0
 21 23  2  0
 23 24  1  0
 23 25  1  0
 25 26  1  0
 25 27  1  0
 27 28  2  0
 28 29  1  0
 29 30  1  0
 29 31  1  0
 29 32  1  0
 32 33  2  0
 32 34  1  0
 34 35  1  0
 35 36  1  0
 35 37  1  0
 35 38  1  0
 38 39  1  0
 38 40  1  0
 38 41  1  0
 27 42  1  0
 42  2  1  0
 14  3  1  0
 42 20  2  0
M  CHG  1  26  -1
M  END
>  <UniqueID>  (44) 
41

>  <SMILES>  (44) 
CCOC(=O)C/N=c1/c2cc3c(=O)n(C)c(=O)nc-3n(C)c2ccn1[O-]

>  <Energy>  (44) 
65.479508170963

>  <Genealogy>  (44) 
CCOC(=O)CN=c1c2cc3c(=O)n(C)c(=O)nc-3n(C)c2ccn1[O-] (protonated)
CCOC(=O)C/N=c1/c2cc3c(=O)n(C)c(=O)nc-3n(C)c2ccn1[O-] (cis-trans isomerization)
CCOC(=O)C/N=c1/c2cc3c(=O)n(C)c(=O)nc-3n(C)c2ccn1[O-] (3D coordinates assigned)
CCOC(=O)C/N=c1/c2cc3c(=O)n(C)c(=O)nc-3n(C)c2ccn1[O-] (optimized conformer: 65.479508170963 kcal/mol)

>  <smiles>  (44) 
CCOC(=O)CN=c1c2cc3c(=O)n(C)c(=O)nc-3n(C)c2ccn1O

>  <score_type>  (44) 
oracle

>  <origin>  (44) 
adg

>  <m_score__min__energy>  (44) 
-10.119999999999999

>  <m_primary>  (44) 
energy

$$$$
44:0
     RDKit          3D

 49 52  0  0  0  0  0  0  0  0999 V2000
   58.4930   27.1680   47.7500 O   0  0  0  0  0  0  0  0  0  0  0  0
   59.0560   28.2820   47.5680 C   0  0  0  0  0  0  0  0  0  0  0  0
   59.3460   28.7500   46.2420 N   0  0  0  0  0  0  0  0  0  0  0  0
   58.4520   29.4310   45.3470 C   0  0  0  0  0  0  0  0  0  0  0  0
   58.8740   30.4980   44.5310 C   0  0  0  0  0  0  0  0  0  0  0  0
   57.9600   31.1440   43.6890 C   0  0  0  0  0  0  0  0  0  0  0  0
   56.6200   30.7430   43.6690 C   0  0  0  0  0  0  0  0  0  0  0  0
   56.1880   29.7040   44.4970 C   0  0  0  0  0  0  0  0  0  0  0  0
   54.8850   29.3310   44.4920 F   0  0  0  0  0  0  0  0  0  0  0  0
   57.1000   29.0540   45.3370 C   0  0  0  0  0  0  0  0  0  0  0  0
   59.3750   29.1380   48.7210 C   0  0  0  0  0  0  0  0  0  0  0  0
   59.4990   28.6150   49.8630 O   0  0  0  0  0  0  0  0  0  0  0  0
   59.5340   30.5570   48.5590 N   0  0  0  0  0  0  0  0  0  0  0  0
   59.9480   31.4230   49.6620 C   0  0  0  0  0  0  0  0  0  0  0  0
   59.2840   32.7950   49.5280 C   0  0  0  0  0  0  0  0  0  0  0  0
   59.7050   33.4710   48.2500 C   0  0  0  0  0  0  0  0  0  0  0  0
   61.0010   33.8140   47.8460 C   0  0  0  0  0  0  0  0  0  0  0  0
   62.2380   33.6450   48.6340 C   0  0  0  0  0  0  0  0  0  0  0  0
   62.3400   34.2400   49.9010 C   0  0  0  0  0  0  0  0  0  0  0  0
   63.5050   34.0890   50.6590 C   0  0  0  0  0  0  0  0  0  0  0  0
   64.5700   33.3300   50.1640 C   0  0  0  0  0  0  0  0  0  0  0  0
   64.4670   32.7160   48.9120 C   0  0  0  0  0  0  0  0  0  0  0  0
   63.3040   32.8710   48.1490 C   0  0  0  0  0  0  0  0  0  0  0  0
   61.0050   34.2390   46.5590 N   0  0  0  0  0  0  0  0  0  0  0  0
   59.7320   34.1630   46.1400 C   0  0  0  0  0  0  0  0  0  0  0  0
   59.2480   34.4600   44.8680 C   0  0  0  0  0  0  0  0  0  0  0  0
   57.8780   34.2560   44.6220 C   0  0  0  0  0  0  0  0  0  0  0  0
   57.0330   33.7580   45.6390 C   0  0  0  0  0  0  0  0  0  0  0  0
   57.5510   33.4630   46.9140 C   0  0  0  0  0  0  0  0  0  0  0  0
   58.9120   33.6900   47.1350 C   0  0  0  0  0  0  0  0  0  0  0  0
   59.9240   30.8250   44.5548 H   0  0  0  0  0  0  0  0  0  0  0  0
   58.2964   31.9679   43.0425 H   0  0  0  0  0  0  0  0  0  0  0  0
   55.9058   31.2462   43.0007 H   0  0  0  0  0  0  0  0  0  0  0  0
   56.7546   28.2421   45.9938 H   0  0  0  0  0  0  0  0  0  0  0  0
   59.3170   31.0000   47.6390 H   0  0  0  0  0  0  0  0  0  0  0  0
   59.6489   30.9653   50.6165 H   0  0  0  0  0  0  0  0  0  0  0  0
   61.0407   31.5464   49.6335 H   0  0  0  0  0  0  0  0  0  0  0  0
   58.1914   32.6680   49.5257 H   0  0  0  0  0  0  0  0  0  0  0  0
   59.5952   33.4214   50.3770 H   0  0  0  0  0  0  0  0  0  0  0  0
   61.4998   34.8276   50.2993 H   0  0  0  0  0  0  0  0  0  0  0  0
   63.5839   34.5679   51.6461 H   0  0  0  0  0  0  0  0  0  0  0  0
   65.4881   33.2161   50.7591 H   0  0  0  0  0  0  0  0  0  0  0  0
   65.3007   32.1107   48.5265 H   0  0  0  0  0  0  0  0  0  0  0  0
   63.2249   32.3845   47.1656 H   0  0  0  0  0  0  0  0  0  0  0  0
   61.8330   34.5360   45.9960 H   0  0  0  0  0  0  0  0  0  0  0  0
   59.9155   34.8417   44.0814 H   0  0  0  0  0  0  0  0  0  0  0  0
   57.4614   34.4860   43.6302 H   0  0  0  0  0  0  0  0  0  0  0  0
   55.9641   33.5999   45.4331 H   0  0  0  0  0  0  0  0  0  0  0  0
   56.9050   33.0664   47.7111 H   0  0  0  0  0  0  0  0  0  0  0  0
  1  2  2  0
  2  3  1  0
  3  4  1  0
  4  5  2  0
  5  6  1  0
  6  7  2  0
  7  8  1  0
  8  9  1  0
  8 10  2  0
  2 11  1  0
 11 12  2  0
 11 13  1  0
 13 14  1  0
 14 15  1  0
 15 16  1  0
 16 17  2  0
 17 18  1  0
 18 19  2  0
 19 20  1  0
 20 21  2  0
 21 22  1  0
 22 23  2  0
 17 24  1  0
 24 25  1  0
 25 26  2  0
 26 27  1  0
 27 28  2  0
 28 29  1  0
 29 30  2  0
 10  4  1  0
 30 16  1  0
 23 18  1  0
 30 25  1  0
  5 31  1  0
  6 32  1  0
  7 33  1  0
 10 34  1  0
 13 35  1  0
 14 36  1  0
 14 37  1  0
 15 38  1  0
 15 39  1  0
 19 40  1  0
 20 41  1  0
 21 42  1  0
 22 43  1  0
 23 44  1  0
 24 45  1  0
 26 46  1  0
 27 47  1  0
 28 48  1  0
 29 49  1  0
M  CHG  1   3  -1
M  END
>  <UniqueID>  (45) 
42

>  <SMILES>  (45) 
O=C([N-]c1cccc(F)c1)C(=O)NCCc1c(-c2ccccc2)[nH]c2ccccc12

>  <Energy>  (45) 
89.56919053497884

>  <Genealogy>  (45) 
O=C([N-]c1cccc(F)c1)C(=O)NCCc1c(-c2ccccc2)[nH]c2ccccc12 (protonated)
O=C([N-]c1cccc(F)c1)C(=O)NCCc1c(-c2ccccc2)[nH]c2ccccc12 (3D coordinates assigned)
O=C([N-]c1cccc(F)c1)C(=O)NCCc1c(-c2ccccc2)[nH]c2ccccc12 (optimized conformer: 89.56919053497884 kcal/mol)

>  <smiles>  (45) 
O=C(NCCc1c(-c2ccccc2)[nH]c2ccccc12)C(=O)Nc1cccc(F)c1

>  <score_type>  (45) 
oracle

>  <origin>  (45) 
adg

>  <m_score__min__energy>  (45) 
-10.44

>  <m_primary>  (45) 
energy

$$$$
45:0
     RDKit          3D

 43 45  0  0  1  0  0  0  0  0999 V2000
   60.1330   29.2380   49.8570 C   0  0  0  0  0  0  0  0  0  0  0  0
   59.8520   29.9890   48.6910 O   0  0  0  0  0  0  0  0  0  0  0  0
   60.7560   30.9890   48.3540 C   0  0  0  0  0  0  0  0  0  0  0  0
   61.6510   31.5240   49.2790 C   0  0  0  0  0  0  0  0  0  0  0  0
   62.5480   32.5090   48.9650 C   0  0  0  0  0  0  0  0  0  0  0  0
   62.5700   32.9890   47.6910 C   0  0  0  0  0  0  0  0  0  0  0  0
   61.7010   32.4860   46.7530 C   0  0  0  0  0  0  0  0  0  0  0  0
   60.7760   31.4930   47.0120 C   0  0  0  0  0  0  0  0  0  0  0  0
   59.7940   31.0160   46.1850 N   0  0  0  0  0  0  0  0  0  0  0  0
   59.5940   29.8880   45.7300 C   0  0  0  0  0  0  0  0  0  0  0  0
   60.3210   28.8700   46.3020 N   0  0  0  0  0  0  0  0  0  0  0  0
   60.2200   27.6040   45.8990 C   0  0  0  0  0  0  0  0  0  0  0  0
   59.3860   27.3250   44.9080 N   0  0  0  0  0  0  0  0  0  0  0  0
   58.6640   28.2840   44.3270 C   0  0  0  0  0  0  0  0  0  0  0  0
   57.8100   27.8450   43.2600 N   0  0  0  0  0  0  0  0  0  0  0  0
   58.7070   29.6490   44.6910 C   0  0  0  0  0  0  0  0  0  0  0  0
   57.7170   30.8120   43.9320 S   0  0  0  0  0  0  0  0  0  0  0  0
   56.6500   31.0200   45.0630 O   0  0  0  0  0  0  0  0  0  0  0  0
   56.6770   30.3940   42.9490 O   0  0  0  0  0  0  0  0  0  0  0  0
   58.2830   32.4200   43.7790 N   0  0  0  0  0  0  0  0  0  0  0  0
   58.5760   33.2910   44.8710 C   0  0  0  0  0  0  0  0  0  0  0  0
   59.5300   34.2720   44.8530 C   0  0  0  0  0  0  0  0  0  0  0  0
   59.7800   35.0700   45.9710 C   0  0  0  0  0  0  0  0  0  0  0  0
   59.0640   34.8910   47.1360 C   0  0  0  0  0  0  0  0  0  0  0  0
   58.1080   33.9170   47.1710 C   0  0  0  0  0  0  0  0  0  0  0  0
   57.8710   33.1390   46.0700 C   0  0  0  0  0  0  0  0  0  0  0  0
   59.9063   29.8438   50.7468 H   0  0  0  0  0  0  0  0  0  0  0  0
   59.5143   28.3285   49.8653 H   0  0  0  0  0  0  0  0  0  0  0  0
   61.1967   28.9580   49.8653 H   0  0  0  0  0  0  0  0  0  0  0  0
   61.6357   31.1369   50.3085 H   0  0  0  0  0  0  0  0  0  0  0  0
   63.2368   32.9046   49.7260 H   0  0  0  0  0  0  0  0  0  0  0  0
   63.2831   33.7790   47.4128 H   0  0  0  0  0  0  0  0  0  0  0  0
   61.7444   32.8989   45.7343 H   0  0  0  0  0  0  0  0  0  0  0  0
   60.9910   29.0580   47.0890 H   0  0  0  0  0  0  0  0  0  0  0  0
   60.8138   26.8108   46.3768 H   0  0  0  0  0  0  0  0  0  0  0  0
   57.6650   28.5010   42.4900 H   0  0  0  0  0  0  0  0  0  0  0  0
   57.3420   26.9210   43.2460 H   0  0  0  0  0  0  0  0  0  0  0  0
   58.4410   32.8920   42.8260 H   0  0  0  0  0  0  0  0  0  0  0  0
   60.1141   34.4358   43.9354 H   0  0  0  0  0  0  0  0  0  0  0  0
   60.5553   35.8488   45.9222 H   0  0  0  0  0  0  0  0  0  0  0  0
   59.2589   35.5192   48.0177 H   0  0  0  0  0  0  0  0  0  0  0  0
   57.5246   33.7564   48.0896 H   0  0  0  0  0  0  0  0  0  0  0  0
   57.0944   32.3624   46.1303 H   0  0  0  0  0  0  0  0  0  0  0  0
  1  2  1  0
  2  3  1  0
  3  4  2  0
  4  5  1  0
  5  6  2  0
  6  7  1  0
  7  8  2  0
  8  9  1  0
  9 10  2  0
 10 11  1  0
 11 12  1  0
 12 13  2  0
 13 14  1  0
 14 15  1  0
 14 16  2  0
 16 17  1  0
 17 18  2  0
 17 19  2  0
 17 20  1  0
 20 21  1  0
 21 22  2  0
 22 23  1  0
 23 24  2  0
 24 25  1  0
 25 26  2  0
  8  3  1  0
 16 10  1  0
 26 21  1  0
  1 27  1  0
  1 28  1  0
  1 29  1  0
  4 30  1  0
  5 31  1  0
  6 32  1  0
  7 33  1  0
 11 34  1  0
 12 35  1  0
 15 36  1  0
 15 37  1  0
 20 38  1  0
 22 39  1  0
 23 40  1  0
 24 41  1  0
 25 42  1  0
 26 43  1  0
M  END
>  <smiles>  (46) 
COc1ccccc1N=c1[nH]cnc(N)c1S(=O)(=O)Nc1ccccc1

>  <score_type>  (46) 
oracle

>  <origin>  (46) 
adg

>  <m_score__min__energy>  (46) 
-7.3600000000000003

>  <m_primary>  (46) 
energy

$$$$
46:0
     RDKit          3D

 26 27  0  0  0  0  0  0  0  0999 V2000
   55.5430   26.4030   45.9620 N   0  0  0  0  0  0  0  0  0  0  0  0
   56.6490   27.2670   45.6790 C   0  0  0  0  0  0  0  0  0  0  0  0
   57.9530   26.8410   45.9660 C   0  0  0  0  0  0  0  0  0  0  0  0
   59.0400   27.6760   45.7100 C   0  0  0  0  0  0  0  0  0  0  0  0
   58.8380   28.9410   45.1540 C   0  0  0  0  0  0  0  0  0  0  0  0
   57.5420   29.3790   44.8380 C   0  0  0  0  0  0  0  0  0  0  0  0
   57.3590   30.7250   44.2470 C   0  0  0  0  0  0  0  0  0  0  0  0
   56.7810   30.8190   43.1300 O   0  0  0  0  0  0  0  0  0  0  0  0
   57.8110   31.9600   44.9330 C   0  0  0  0  0  0  0  0  0  0  0  0
   58.0510   31.9500   46.3200 C   0  0  0  0  0  0  0  0  0  0  0  0
   58.4910   33.1060   46.9720 C   0  0  0  0  0  0  0  0  0  0  0  0
   58.7060   34.2800   46.2470 C   0  0  0  0  0  0  0  0  0  0  0  0
   58.4850   34.3000   44.8680 C   0  0  0  0  0  0  0  0  0  0  0  0
   58.0450   33.1470   44.2120 C   0  0  0  0  0  0  0  0  0  0  0  0
   56.4410   28.5430   45.1240 C   0  0  0  0  0  0  0  0  0  0  0  0
   55.1430   28.9850   44.8790 O   0  0  0  0  0  0  0  0  0  0  0  0
   55.1350   26.3380   46.9200 H   0  0  0  0  0  0  0  0  0  0  0  0
   55.1180   25.8170   45.2080 H   0  0  0  0  0  0  0  0  0  0  0  0
   58.1199   25.8422   46.3957 H   0  0  0  0  0  0  0  0  0  0  0  0
   60.0595   27.3373   45.9467 H   0  0  0  0  0  0  0  0  0  0  0  0
   59.6992   29.5980   44.9625 H   0  0  0  0  0  0  0  0  0  0  0  0
   57.8912   31.0260   46.8951 H   0  0  0  0  0  0  0  0  0  0  0  0
   58.6680   33.0907   48.0575 H   0  0  0  0  0  0  0  0  0  0  0  0
   59.0495   35.1892   46.7621 H   0  0  0  0  0  0  0  0  0  0  0  0
   58.6575   35.2245   44.2975 H   0  0  0  0  0  0  0  0  0  0  0  0
   57.8802   33.1668   43.1246 H   0  0  0  0  0  0  0  0  0  0  0  0
  1  2  1  0
  2  3  2  0
  3  4  1  0
  4  5  2  0
  5  6  1  0
  6  7  1  0
  7  8  2  0
  7  9  1  0
  9 10  2  0
 10 11  1  0
 11 12  2  0
 12 13  1  0
 13 14  2  0
  6 15  2  0
 15 16  1  0
 15  2  1  0
 14  9  1  0
  1 17  1  0
  1 18  1  0
  3 19  1  0
  4 20  1  0
  5 21  1  0
 10 22  1  0
 11 23  1  0
 12 24  1  0
 13 25  1  0
 14 26  1  0
M  CHG  1  16  -1
M  END
>  <UniqueID>  (47) 
43

>  <SMILES>  (47) 
Nc1cccc(C(=O)c2ccccc2)c1[O-]

>  <Energy>  (47) 
34.34567003919848

>  <Genealogy>  (47) 
Nc1cccc(C(=O)c2ccccc2)c1[O-] (protonated)
Nc1cccc(C(=O)c2ccccc2)c1[O-] (3D coordinates assigned)
Nc1cccc(C(=O)c2ccccc2)c1[O-] (optimized conformer: 34.34567003919848 kcal/mol)

>  <smiles>  (47) 
Nc1cccc(C(=O)c2ccccc2)c1O

>  <score_type>  (47) 
oracle

>  <origin>  (47) 
adg

>  <m_score__min__energy>  (47) 
-10.970000000000001

>  <m_primary>  (47) 
energy

$$$$
47:0
     RDKit          3D

 39 41  0  0  0  0  0  0  0  0999 V2000
   59.6420   35.5340   45.2400 C   0  0  0  0  0  0  0  0  0  0  0  0
   59.2470   34.5580   46.3170 C   0  0  0  0  0  0  0  0  0  0  0  0
   59.9810   34.5300   47.5160 C   0  0  0  0  0  0  0  0  0  0  0  0
   59.6560   33.6260   48.5280 C   0  0  0  0  0  0  0  0  0  0  0  0
   58.5990   32.7350   48.3560 C   0  0  0  0  0  0  0  0  0  0  0  0
   57.8620   32.7440   47.1710 C   0  0  0  0  0  0  0  0  0  0  0  0
   58.1700   33.6510   46.1410 C   0  0  0  0  0  0  0  0  0  0  0  0
   57.3230   33.6430   44.8890 C   0  0  0  0  0  0  0  0  0  0  0  0
   58.0090   32.5210   43.6180 S   0  0  0  0  0  0  0  0  0  0  0  0
   57.4380   31.0150   44.3980 C   0  0  0  0  0  0  0  0  0  0  0  0
   56.1340   30.6830   44.5170 N   0  0  0  0  0  0  0  0  0  0  0  0
   55.9480   29.5170   45.1330 N   0  0  0  0  0  0  0  0  0  0  0  0
   57.1060   28.9310   45.5140 C   0  0  0  0  0  0  0  0  0  0  0  0
   57.1880   27.7700   46.0940 N   0  0  0  0  0  0  0  0  0  0  0  0
   57.0370   26.4860   45.4670 C   0  0  0  0  0  0  0  0  0  0  0  0
   56.0960   25.5920   45.9930 C   0  0  0  0  0  0  0  0  0  0  0  0
   55.8950   24.3420   45.3990 C   0  0  0  0  0  0  0  0  0  0  0  0
   56.6240   23.9780   44.2590 C   0  0  0  0  0  0  0  0  0  0  0  0
   56.3600   22.4120   43.5010 S   0  0  0  0  0  0  0  0  0  0  0  0
   55.5280   21.3750   44.6050 N   0  0  0  0  0  0  0  0  0  0  0  0
   57.6790   21.7960   43.1280 O   0  0  0  0  0  0  0  0  0  0  0  0
   55.5370   22.5830   42.2540 O   0  0  0  0  0  0  0  0  0  0  0  0
   57.5380   24.8850   43.7050 C   0  0  0  0  0  0  0  0  0  0  0  0
   57.7390   26.1340   44.2990 C   0  0  0  0  0  0  0  0  0  0  0  0
   58.4470   29.8500   45.0800 S   0  0  0  0  0  0  0  0  0  0  0  0
   60.0164   36.4590   45.7028 H   0  0  0  0  0  0  0  0  0  0  0  0
   60.4316   35.0910   44.6153 H   0  0  0  0  0  0  0  0  0  0  0  0
   58.7665   35.7648   44.6153 H   0  0  0  0  0  0  0  0  0  0  0  0
   60.8196   35.2276   47.6576 H   0  0  0  0  0  0  0  0  0  0  0  0
   60.2353   33.6169   49.4631 H   0  0  0  0  0  0  0  0  0  0  0  0
   58.3450   32.0234   49.1554 H   0  0  0  0  0  0  0  0  0  0  0  0
   57.0316   32.0344   47.0411 H   0  0  0  0  0  0  0  0  0  0  0  0
   56.3069   33.3103   45.1477 H   0  0  0  0  0  0  0  0  0  0  0  0
   57.3099   34.6626   44.4764 H   0  0  0  0  0  0  0  0  0  0  0  0
   55.5105   25.8752   46.8801 H   0  0  0  0  0  0  0  0  0  0  0  0
   55.1625   23.6424   45.8280 H   0  0  0  0  0  0  0  0  0  0  0  0
   54.5460   21.7250   44.6710 H   0  0  0  0  0  0  0  0  0  0  0  0
   58.0993   24.6126   42.7991 H   0  0  0  0  0  0  0  0  0  0  0  0
   58.4490   26.8451   43.8517 H   0  0  0  0  0  0  0  0  0  0  0  0
  1  2  1  0
  2  3  2  0
  3  4  1  0
  4  5  2  0
  5  6  1  0
  6  7  2  0
  7  8  1  0
  8  9  1  0
  9 10  1  0
 10 11  2  0
 11 12  1  0
 12 13  1  0
 13 14  2  3
 14 15  1  0
 15 16  2  0
 16 17  1  0
 17 18  2  0
 18 19  1  0
 19 20  1  0
 19 21  2  0
 19 22  2  0
 18 23  1  0
 23 24  2  0
 13 25  1  0
  7  2  1  0
 25 10  1  0
 24 15  1  0
  1 26  1  0
  1 27  1  0
  1 28  1  0
  3 29  1  0
  4 30  1  0
  5 31  1  0
  6 32  1  0
  8 33  1  0
  8 34  1  0
 16 35  1  0
 17 36  1  0
 20 37  1  0
 23 38  1  0
 24 39  1  0
M  CHG  2  12  -1  20  -1
M  END
>  <UniqueID>  (48) 
44

>  <SMILES>  (48) 
Cc1ccccc1CSc1n[n-]c(=Nc2ccc(S([NH-])(=O)=O)cc2)s1

>  <Energy>  (48) 
78.07772528495899

>  <Genealogy>  (48) 
Cc1ccccc1CSc1n[n-]c(=Nc2ccc(S([NH-])(=O)=O)cc2)s1 (protonated)
Cc1ccccc1CSc1n[n-]c(=Nc2ccc(S([NH-])(=O)=O)cc2)s1 (3D coordinates assigned)
Cc1ccccc1CSc1n[n-]c(=Nc2ccc(S([NH-])(=O)=O)cc2)s1 (optimized conformer: 78.07772528495899 kcal/mol)

>  <smiles>  (48) 
Cc1ccccc1CSc1n[nH]c(=Nc2ccc(S(N)(=O)=O)cc2)s1

>  <score_type>  (48) 
oracle

>  <origin>  (48) 
adg

>  <m_score__min__energy>  (48) 
-12.369999999999999

>  <m_primary>  (48) 
energy

$$$$
48:0
     RDKit          3D

 69 72  0  0  0  0  0  0  0  0999 V2000
   63.5300   32.4250   47.4890 C   0  0  0  0  0  0  0  0  0  0  0  0
   62.6630   31.2240   47.1270 C   0  0  0  0  0  0  0  0  0  0  0  0
   61.7040   30.8650   48.2680 C   0  0  0  0  0  0  0  0  0  0  0  0
   60.7010   29.7960   47.8290 C   0  0  0  0  0  0  0  0  0  0  0  0
   59.3770   30.3260   47.7980 O   0  0  0  0  0  0  0  0  0  0  0  0
   58.7230   30.8800   46.6850 C   0  0  0  0  0  0  0  0  0  0  0  0
   57.7790   30.1460   45.9390 C   0  0  0  0  0  0  0  0  0  0  0  0
   57.1280   30.7180   44.8360 C   0  0  0  0  0  0  0  0  0  0  0  0
   56.1210   29.9420   44.0720 C   0  0  0  0  0  0  0  0  0  0  0  0
   55.2610   29.0200   44.7370 N   0  0  0  0  0  0  0  0  0  0  0  0
   56.0210   30.0800   42.8240 O   0  0  0  0  0  0  0  0  0  0  0  0
   57.4390   32.0330   44.4690 C   0  0  0  0  0  0  0  0  0  0  0  0
   58.3870   32.7640   45.1860 C   0  0  0  0  0  0  0  0  0  0  0  0
   59.0260   32.2090   46.3030 C   0  0  0  0  0  0  0  0  0  0  0  0
   60.0490   32.9760   46.9630 N   0  0  0  0  0  0  0  0  0  0  0  0
   59.7790   33.9080   48.0230 C   0  0  0  0  0  0  0  0  0  0  0  0
   58.8920   34.7910   47.8660 O   0  0  0  0  0  0  0  0  0  0  0  0
   60.4510   33.7600   49.3280 C   0  0  0  0  0  0  0  0  0  0  0  0
   61.8160   34.0940   49.4990 C   0  0  0  0  0  0  0  0  0  0  0  0
   62.4830   33.8230   50.7140 C   0  0  0  0  0  0  0  0  0  0  0  0
   63.8700   34.1630   50.8340 N   0  0  0  0  0  0  0  0  0  0  0  0
   64.9500   33.2790   50.4990 C   0  0  0  0  0  0  0  0  0  0  0  0
   65.8880   33.7030   49.7740 O   0  0  0  0  0  0  0  0  0  0  0  0
   64.9450   31.8590   50.9170 C   0  0  0  0  0  0  0  0  0  0  0  0
   63.7370   31.1420   50.8920 C   0  0  0  0  0  0  0  0  0  0  0  0
   63.6900   29.8100   51.3190 C   0  0  0  0  0  0  0  0  0  0  0  0
   62.1710   28.9290   51.2850 Cl  0  0  0  0  0  0  0  0  0  0  0  0
   64.8480   29.1840   51.7830 C   0  0  0  0  0  0  0  0  0  0  0  0
   66.0520   29.8940   51.8370 C   0  0  0  0  0  0  0  0  0  0  0  0
   66.1120   31.2260   51.4090 C   0  0  0  0  0  0  0  0  0  0  0  0
   67.6420   32.0870   51.6040 Cl  0  0  0  0  0  0  0  0  0  0  0  0
   61.7800   33.2450   51.7950 C   0  0  0  0  0  0  0  0  0  0  0  0
   60.4290   32.9660   51.6120 C   0  0  0  0  0  0  0  0  0  0  0  0
   59.5820   32.4300   52.5060 N   0  0  0  0  0  0  0  0  0  0  0  0
   58.4210   32.3570   51.8000 C   0  0  0  0  0  0  0  0  0  0  0  0
   57.1400   31.8720   52.4050 C   0  0  0  0  0  0  0  0  0  0  0  0
   56.8380   30.4740   51.9700 C   0  0  0  0  0  0  0  0  0  0  0  0
   57.7700   29.7290   51.5580 O   0  0  0  0  0  0  0  0  0  0  0  0
   55.5170   30.0150   51.9950 O   0  0  0  0  0  0  0  0  0  0  0  0
   54.3940   30.8930   52.0240 C   0  0  0  0  0  0  0  0  0  0  0  0
   53.2760   30.3080   51.1770 C   0  0  0  0  0  0  0  0  0  0  0  0
   58.5040   32.8240   50.5230 N   0  0  0  0  0  0  0  0  0  0  0  0
   59.7880   33.2080   50.4320 C   0  0  0  0  0  0  0  0  0  0  0  0
   63.5944   32.5142   48.5835 H   0  0  0  0  0  0  0  0  0  0  0  0
   64.5388   32.2879   47.0723 H   0  0  0  0  0  0  0  0  0  0  0  0
   63.0823   33.3393   47.0723 H   0  0  0  0  0  0  0  0  0  0  0  0
   62.0763   31.4636   46.2279 H   0  0  0  0  0  0  0  0  0  0  0  0
   63.3222   30.3627   46.9436 H   0  0  0  0  0  0  0  0  0  0  0  0
   62.2860   30.4833   49.1198 H   0  0  0  0  0  0  0  0  0  0  0  0
   61.1475   31.7696   48.5543 H   0  0  0  0  0  0  0  0  0  0  0  0
   60.9705   29.4397   46.8238 H   0  0  0  0  0  0  0  0  0  0  0  0
   60.7318   28.9661   48.5503 H   0  0  0  0  0  0  0  0  0  0  0  0
   57.5493   29.1092   46.2260 H   0  0  0  0  0  0  0  0  0  0  0  0
   54.4300   29.3610   45.2730 H   0  0  0  0  0  0  0  0  0  0  0  0
   56.9318   32.4936   43.6084 H   0  0  0  0  0  0  0  0  0  0  0  0
   58.6357   33.7881   44.8707 H   0  0  0  0  0  0  0  0  0  0  0  0
   61.0440   32.7700   46.7180 H   0  0  0  0  0  0  0  0  0  0  0  0
   62.3649   34.5714   48.6739 H   0  0  0  0  0  0  0  0  0  0  0  0
   62.8197   31.6320   50.5335 H   0  0  0  0  0  0  0  0  0  0  0  0
   64.8138   28.1330   52.1060 H   0  0  0  0  0  0  0  0  0  0  0  0
   66.9589   29.4021   52.2187 H   0  0  0  0  0  0  0  0  0  0  0  0
   62.2831   33.0234   52.7478 H   0  0  0  0  0  0  0  0  0  0  0  0
   57.2278   31.8967   53.5012 H   0  0  0  0  0  0  0  0  0  0  0  0
   56.3233   32.5278   52.0692 H   0  0  0  0  0  0  0  0  0  0  0  0
   54.0462   31.0104   53.0610 H   0  0  0  0  0  0  0  0  0  0  0  0
   54.6843   31.8753   51.6229 H   0  0  0  0  0  0  0  0  0  0  0  0
   52.4941   29.8989   51.8337 H   0  0  0  0  0  0  0  0  0  0  0  0
   52.8459   31.0966   50.5421 H   0  0  0  0  0  0  0  0  0  0  0  0
   53.6787   29.5051   50.5421 H   0  0  0  0  0  0  0  0  0  0  0  0
  1  2  1  0
  2  3  1  0
  3  4  1  0
  4  5  1  0
  5  6  1  0
  6  7  2  0
  7  8  1  0
  8  9  1  0
  9 10  1  0
  9 11  2  0
  8 12  2  0
 12 13  1  0
 13 14  2  0
 14 15  1  0
 15 16  1  0
 16 17  2  0
 16 18  1  0
 18 19  2  0
 19 20  1  0
 20 21  1  0
 21 22  1  0
 22 23  2  0
 22 24  1  0
 24 25  2  0
 25 26  1  0
 26 27  1  0
 26 28  2  0
 28 29  1  0
 29 30  2  0
 30 31  1  0
 20 32  2  0
 32 33  1  0
 33 34  1  0
 34 35  1  0
 35 36  1  0
 36 37  1  0
 37 38  2  0
 37 39  1  0
 39 40  1  0
 40 41  1  0
 35 42  2  0
 42 43  1  0
 14  6  1  0
 43 18  1  0
 30 24  1  0
 43 33  2  0
  1 44  1  0
  1 45  1  0
  1 46  1  0
  2 47  1  0
  2 48  1  0
  3 49  1  0
  3 50  1  0
  4 51  1  0
  4 52  1  0
  7 53  1  0
 10 54  1  0
 12 55  1  0
 13 56  1  0
 15 57  1  0
 19 58  1  0
 25 59  1  0
 28 60  1  0
 29 61  1  0
 32 62  1  0
 36 63  1  0
 36 64  1  0
 40 65  1  0
 40 66  1  0
 41 67  1  0
 41 68  1  0
 41 69  1  0
M  CHG  3  10  -1  21  -1  34  -1
M  END
>  <UniqueID>  (49) 
45

>  <SMILES>  (49) 
CCCCOc1cc(C([NH-])=O)ccc1NC(=O)c1cc([N-]C(=O)c2cc(Cl)ccc2Cl)cc2[n-]c(CC(=O)OCC)nc12

>  <Energy>  (49) 
109.26216904365546

>  <Genealogy>  (49) 
CCCCOc1cc(C([NH-])=O)ccc1NC(=O)c1cc([N-]C(=O)c2cc(Cl)ccc2Cl)cc2[n-]c(CC(=O)OCC)nc12 (protonated)
CCCCOc1cc(C([NH-])=O)ccc1NC(=O)c1cc([N-]C(=O)c2cc(Cl)ccc2Cl)cc2[n-]c(CC(=O)OCC)nc12 (3D coordinates assigned)
CCCCOc1cc(C([NH-])=O)ccc1NC(=O)c1cc([N-]C(=O)c2cc(Cl)ccc2Cl)cc2[n-]c(CC(=O)OCC)nc12 (optimized conformer: 109.26216904365546 kcal/mol)

>  <smiles>  (49) 
CCCCOc1cc(C(N)=O)ccc1NC(=O)c1cc(NC(=O)c2cc(Cl)ccc2Cl)cc2[nH]c(CC(=O)OCC)nc12

>  <score_type>  (49) 
oracle

>  <origin>  (49) 
adg

>  <m_score__min__energy>  (49) 
-15.19

>  <m_primary>  (49) 
energy

$$$$
49:0
     RDKit          3D

 68 71  0  0  0  0  0  0  0  0999 V2000
   58.1380   32.7730   53.0540 C   0  0  0  0  0  0  0  0  0  0  0  0
   58.5120   34.1980   52.6620 C   0  0  0  0  0  0  0  0  0  0  0  0
   59.6730   34.1960   51.8340 O   0  0  0  0  0  0  0  0  0  0  0  0
   59.7180   33.5880   50.5750 C   0  0  0  0  0  0  0  0  0  0  0  0
   58.6710   33.0940   50.0710 O   0  0  0  0  0  0  0  0  0  0  0  0
   61.0140   33.4380   49.8660 C   0  0  0  0  0  0  0  0  0  0  0  0
   62.1240   32.9660   50.4910 C   0  0  0  0  0  0  0  0  0  0  0  0
   62.1570   32.7960   51.9970 C   0  0  0  0  0  0  0  0  0  0  0  0
   63.2780   32.5830   49.7010 N   0  0  0  0  0  0  0  0  0  0  0  0
   64.3850   31.8570   50.2690 C   0  0  0  0  0  0  0  0  0  0  0  0
   65.6990   32.3350   50.1400 C   0  0  0  0  0  0  0  0  0  0  0  0
   66.7650   31.6260   50.6980 C   0  0  0  0  0  0  0  0  0  0  0  0
   66.5300   30.4380   51.3950 C   0  0  0  0  0  0  0  0  0  0  0  0
   65.2210   29.9400   51.5320 C   0  0  0  0  0  0  0  0  0  0  0  0
   64.9340   28.6700   52.2940 C   0  0  0  0  0  0  0  0  0  0  0  0
   63.6690   28.2130   51.9740 F   0  0  0  0  0  0  0  0  0  0  0  0
   65.8470   27.6730   51.9930 F   0  0  0  0  0  0  0  0  0  0  0  0
   64.9910   28.9260   53.6520 F   0  0  0  0  0  0  0  0  0  0  0  0
   64.1540   30.6590   50.9660 C   0  0  0  0  0  0  0  0  0  0  0  0
   63.3030   32.9350   48.3100 C   0  0  0  0  0  0  0  0  0  0  0  0
   64.1400   32.3920   47.5350 O   0  0  0  0  0  0  0  0  0  0  0  0
   62.4310   33.9830   47.8490 N   0  0  1  0  0  0  0  0  0  0  0  0
   62.4620   34.1720   46.3840 C   0  0  0  0  0  0  0  0  0  0  0  0
   61.0510   33.8310   48.3910 C   0  0  1  0  0  0  0  0  0  0  0  0
   60.0930   32.9870   47.5240 C   0  0  0  0  0  0  0  0  0  0  0  0
   59.2320   33.6980   46.6570 C   0  0  0  0  0  0  0  0  0  0  0  0
   58.3150   33.0400   45.8380 C   0  0  0  0  0  0  0  0  0  0  0  0
   58.2320   31.6520   45.8590 C   0  0  0  0  0  0  0  0  0  0  0  0
   57.2770   30.9730   45.0240 C   0  0  0  0  0  0  0  0  0  0  0  0
   56.5090   30.4310   44.3510 N   0  0  0  0  0  0  0  0  0  0  0  0
   59.0750   30.9200   46.6950 C   0  0  0  0  0  0  0  0  0  0  0  0
   60.0220   31.5590   47.5140 C   0  0  0  0  0  0  0  0  0  0  0  0
   60.8320   30.6780   48.3810 C   0  0  0  0  0  0  0  0  0  0  0  0
   62.0340   30.4720   48.0660 O   0  0  0  0  0  0  0  0  0  0  0  0
   60.3300   30.2000   49.6520 N   0  0  0  0  0  0  0  0  0  0  0  0
   61.2540   29.5260   50.5840 C   0  0  0  0  0  0  0  0  0  0  0  0
   60.8030   29.6300   52.0650 C   0  0  0  0  0  0  0  0  0  0  0  0
   59.5410   30.2430   52.2490 O   0  0  0  0  0  0  0  0  0  0  0  0
   58.6070   29.6960   51.3450 C   0  0  0  0  0  0  0  0  0  0  0  0
   58.8910   30.2510   49.9550 C   0  0  0  0  0  0  0  0  0  0  0  0
   58.1157   32.6882   54.1505 H   0  0  0  0  0  0  0  0  0  0  0  0
   57.1455   32.5293   52.6472 H   0  0  0  0  0  0  0  0  0  0  0  0
   58.8829   32.0733   52.6472 H   0  0  0  0  0  0  0  0  0  0  0  0
   57.6755   34.6544   52.1126 H   0  0  0  0  0  0  0  0  0  0  0  0
   58.7243   34.7755   53.5738 H   0  0  0  0  0  0  0  0  0  0  0  0
   61.9686   33.7663   52.4797 H   0  0  0  0  0  0  0  0  0  0  0  0
   61.3815   32.0780   52.3020 H   0  0  0  0  0  0  0  0  0  0  0  0
   63.1448   32.4203   52.3020 H   0  0  0  0  0  0  0  0  0  0  0  0
   65.8896   33.2724   49.5968 H   0  0  0  0  0  0  0  0  0  0  0  0
   67.7923   32.0038   50.5885 H   0  0  0  0  0  0  0  0  0  0  0  0
   67.3732   29.8888   51.8392 H   0  0  0  0  0  0  0  0  0  0  0  0
   63.1267   30.2796   51.0699 H   0  0  0  0  0  0  0  0  0  0  0  0
   62.8280   34.8640   48.2590 H   0  0  0  0  0  0  0  0  0  0  0  0
   62.6362   35.2337   46.1549 H   0  0  0  0  0  0  0  0  0  0  0  0
   63.2728   33.5661   45.9532 H   0  0  0  0  0  0  0  0  0  0  0  0
   61.5002   33.8569   45.9532 H   0  0  0  0  0  0  0  0  0  0  0  0
   60.6430   34.8508   48.3321 H   0  0  0  0  0  0  0  0  0  0  0  0
   59.2867   34.7963   46.6277 H   0  0  0  0  0  0  0  0  0  0  0  0
   57.6564   33.6196   45.1745 H   0  0  0  0  0  0  0  0  0  0  0  0
   58.9974   29.8229   46.7138 H   0  0  0  0  0  0  0  0  0  0  0  0
   61.3147   28.4625   50.3098 H   0  0  0  0  0  0  0  0  0  0  0  0
   62.2295   30.0275   50.5008 H   0  0  0  0  0  0  0  0  0  0  0  0
   60.7561   28.6135   52.4828 H   0  0  0  0  0  0  0  0  0  0  0  0
   61.5400   30.2686   52.5740 H   0  0  0  0  0  0  0  0  0  0  0  0
   58.7017   28.6002   51.3326 H   0  0  0  0  0  0  0  0  0  0  0  0
   57.5855   29.9627   51.6539 H   0  0  0  0  0  0  0  0  0  0  0  0
   58.3450   29.6533   49.2103 H   0  0  0  0  0  0  0  0  0  0  0  0
   58.5624   31.3003   49.9222 H   0  0  0  0  0  0  0  0  0  0  0  0
  1  2  1  0
  2  3  1  0
  3  4  1  0
  4  5  2  0
  4  6  1  0
  6  7  2  0
  7  8  1  0
  7  9  1  0
  9 10  1  0
 10 11  2  0
 11 12  1  0
 12 13  2  0
 13 14  1  0
 14 15  1  0
 15 16  1  0
 15 17  1  0
 15 18  1  0
 14 19  2  0
  9 20  1  0
 20 21  2  0
 20 22  1  0
 22 23  1  0
 22 24  1  0
 24 25  1  0
 25 26  2  0
 26 27  1  0
 27 28  2  0
 28 29  1  0
 29 30  3  0
 28 31  1  0
 31 32  2  0
 32 33  1  0
 33 34  2  0
 33 35  1  0
 35 36  1  0
 36 37  1  0
 37 38  1  0
 38 39  1  0
 39 40  1  0
 24  6  1  0
 32 25  1  0
 40 35  1  0
 19 10  1  0
  1 41  1  0
  1 42  1  0
  1 43  1  0
  2 44  1  0
  2 45  1  0
  8 46  1  0
  8 47  1  0
  8 48  1  0
 11 49  1  0
 12 50  1  0
 13 51  1  0
 19 52  1  0
 22 53  1  1
 23 54  1  0
 23 55  1  0
 23 56  1  0
 24 57  1  1
 26 58  1  0
 27 59  1  0
 31 60  1  0
 36 61  1  0
 36 62  1  0
 37 63  1  0
 37 64  1  0
 39 65  1  0
 39 66  1  0
 40 67  1  0
 40 68  1  0
M  CHG  1  22   1
M  END
>  <UniqueID>  (50) 
46

>  <SMILES>  (50) 
CCOC(=O)C1=C(C)N(c2cccc(C(F)(F)F)c2)C(=O)[N@@H+](C)[C@H]1c1ccc(C#N)cc1C(=O)N1CCOCC1

>  <Energy>  (50) 
106.48720528783379

>  <Genealogy>  (50) 
CCOC(=O)C1=C(C)N(c2cccc(C(F)(F)F)c2)C(=O)[NH+](C)C1c1ccc(C#N)cc1C(=O)N1CCOCC1 (protonated)
CCOC(=O)C1=C(C)N(c2cccc(C(F)(F)F)c2)C(=O)[N@@H+](C)[C@H]1c1ccc(C#N)cc1C(=O)N1CCOCC1 (chirality)
CCOC(=O)C1=C(C)N(c2cccc(C(F)(F)F)c2)C(=O)[N@@H+](C)[C@H]1c1ccc(C#N)cc1C(=O)N1CCOCC1 (3D coordinates assigned)
CCOC(=O)C1=C(C)N(c2cccc(C(F)(F)F)c2)C(=O)[N@@H+](C)[C@H]1c1ccc(C#N)cc1C(=O)N1CCOCC1 (nonaromatic ring conformer: 106.48720528783379 kcal/mol)

>  <smiles>  (50) 
CCOC(=O)C1=C(C)N(c2cccc(C(F)(F)F)c2)C(=O)N(C)C1c1ccc(C#N)cc1C(=O)N1CCOCC1

>  <score_type>  (50) 
oracle

>  <origin>  (50) 
adg

>  <m_score__min__energy>  (50) 
-7.1600000000000001

>  <m_primary>  (50) 
energy

$$$$
50:0
     RDKit          3D

 55 58  0  0  0  0  0  0  0  0999 V2000
   59.6420   34.8330   45.3710 C   0  0  0  0  0  0  0  0  0  0  0  0
   60.4110   35.0330   46.5520 O   0  0  0  0  0  0  0  0  0  0  0  0
   61.2850   34.0840   47.1070 C   0  0  0  0  0  0  0  0  0  0  0  0
   62.5180   33.7700   46.4990 C   0  0  0  0  0  0  0  0  0  0  0  0
   63.3670   32.8180   47.0690 C   0  0  0  0  0  0  0  0  0  0  0  0
   63.0000   32.1690   48.2470 C   0  0  0  0  0  0  0  0  0  0  0  0
   61.7830   32.4680   48.8610 C   0  0  0  0  0  0  0  0  0  0  0  0
   60.9190   33.4270   48.3030 C   0  0  0  0  0  0  0  0  0  0  0  0
   59.6010   33.7050   48.9850 C   0  0  0  0  0  0  0  0  0  0  0  0
   58.5940   32.7320   48.5700 N   0  0  0  0  0  0  0  0  0  0  0  0
   58.1400   32.6180   47.3570 C   0  0  0  0  0  0  0  0  0  0  0  0
   57.2830   33.4830   46.7820 N   0  0  0  0  0  0  0  0  0  0  0  0
   57.0680   33.0550   45.5480 N   0  0  0  0  0  0  0  0  0  0  0  0
   57.7840   31.9350   45.3210 C   0  0  0  0  0  0  0  0  0  0  0  0
   58.4680   31.6040   46.4790 C   0  0  0  0  0  0  0  0  0  0  0  0
   59.4510   30.4870   46.6960 C   0  0  0  0  0  0  0  0  0  0  0  0
   59.7730   29.7320   45.3950 C   0  0  0  0  0  0  0  0  0  0  0  0
   58.6270   28.9940   44.8280 N   0  0  0  0  0  0  0  0  0  0  0  0
   58.6010   27.5600   44.9830 C   0  0  0  0  0  0  0  0  0  0  0  0
   57.8290   26.7620   44.1200 C   0  0  0  0  0  0  0  0  0  0  0  0
   57.8030   25.3730   44.2740 C   0  0  0  0  0  0  0  0  0  0  0  0
   58.5530   24.7610   45.2850 C   0  0  0  0  0  0  0  0  0  0  0  0
   58.5010   23.0130   45.4870 S   0  0  0  0  0  0  0  0  0  0  0  0
   57.6780   22.2820   44.0910 C   0  0  0  0  0  0  0  0  0  0  0  0
   59.9000   22.4730   45.5890 O   0  0  0  0  0  0  0  0  0  0  0  0
   57.7580   22.6650   46.7470 O   0  0  0  0  0  0  0  0  0  0  0  0
   59.3250   25.5500   46.1480 C   0  0  0  0  0  0  0  0  0  0  0  0
   59.3520   26.9400   45.9950 C   0  0  0  0  0  0  0  0  0  0  0  0
   57.4570   29.6690   44.2410 C   0  0  0  0  0  0  0  0  0  0  0  0
   57.7250   31.1640   44.0340 C   0  0  0  0  0  0  0  0  0  0  0  0
   58.6111   34.5649   45.6457 H   0  0  0  0  0  0  0  0  0  0  0  0
   59.6342   35.7590   44.7773 H   0  0  0  0  0  0  0  0  0  0  0  0
   60.0864   34.0205   44.7773 H   0  0  0  0  0  0  0  0  0  0  0  0
   62.8135   34.2782   45.5693 H   0  0  0  0  0  0  0  0  0  0  0  0
   64.3269   32.5801   46.5874 H   0  0  0  0  0  0  0  0  0  0  0  0
   63.6708   31.4200   48.6932 H   0  0  0  0  0  0  0  0  0  0  0  0
   61.4975   31.9497   49.7883 H   0  0  0  0  0  0  0  0  0  0  0  0
   59.7372   33.6423   50.0747 H   0  0  0  0  0  0  0  0  0  0  0  0
   59.2600   34.7119   48.7022 H   0  0  0  0  0  0  0  0  0  0  0  0
   56.4370   33.5320   44.8660 H   0  0  0  0  0  0  0  0  0  0  0  0
   60.3829   30.9094   47.0999 H   0  0  0  0  0  0  0  0  0  0  0  0
   58.9975   29.7710   47.3973 H   0  0  0  0  0  0  0  0  0  0  0  0
   60.1177   30.4621   44.6479 H   0  0  0  0  0  0  0  0  0  0  0  0
   60.5407   28.9844   45.6433 H   0  0  0  0  0  0  0  0  0  0  0  0
   57.2418   27.2340   43.3185 H   0  0  0  0  0  0  0  0  0  0  0  0
   57.1906   24.7583   43.5979 H   0  0  0  0  0  0  0  0  0  0  0  0
   56.8994   21.5904   44.4452 H   0  0  0  0  0  0  0  0  0  0  0  0
   57.2163   23.0731   43.4820 H   0  0  0  0  0  0  0  0  0  0  0  0
   58.4091   21.7301   43.4820 H   0  0  0  0  0  0  0  0  0  0  0  0
   59.9115   25.0748   46.9481 H   0  0  0  0  0  0  0  0  0  0  0  0
   59.9659   27.5520   46.6722 H   0  0  0  0  0  0  0  0  0  0  0  0
   57.2270   29.2079   43.2692 H   0  0  0  0  0  0  0  0  0  0  0  0
   56.6088   29.5599   44.9328 H   0  0  0  0  0  0  0  0  0  0  0  0
   58.6869   31.2785   43.5128 H   0  0  0  0  0  0  0  0  0  0  0  0
   56.8879   31.5693   43.4467 H   0  0  0  0  0  0  0  0  0  0  0  0
  1  2  1  0
  2  3  1  0
  3  4  2  0
  4  5  1  0
  5  6  2  0
  6  7  1  0
  7  8  2  0
  8  9  1  0
  9 10  1  0
 10 11  2  3
 11 12  1  0
 12 13  1  0
 13 14  1  0
 14 15  2  0
 15 16  1  0
 16 17  1  0
 17 18  1  0
 18 19  1  0
 19 20  2  0
 20 21  1  0
 21 22  2  0
 22 23  1  0
 23 24  1  0
 23 25  2  0
 23 26  2  0
 22 27  1  0
 27 28  2  0
 18 29  1  0
 29 30  1  0
  8  3  1  0
 15 11  1  0
 28 19  1  0
 30 14  1  0
  1 31  1  0
  1 32  1  0
  1 33  1  0
  4 34  1  0
  5 35  1  0
  6 36  1  0
  7 37  1  0
  9 38  1  0
  9 39  1  0
 13 40  1  0
 16 41  1  0
 16 42  1  0
 17 43  1  0
 17 44  1  0
 20 45  1  0
 21 46  1  0
 24 47  1  0
 24 48  1  0
 24 49  1  0
 27 50  1  0
 28 51  1  0
 29 52  1  0
 29 53  1  0
 30 54  1  0
 30 55  1  0
M  CHG  1  12  -1
M  END
>  <UniqueID>  (51) 
47

>  <SMILES>  (51) 
COc1ccccc1CN=c1[n-][nH]c2c1CCN(c1ccc(S(C)(=O)=O)cc1)CC2

>  <Energy>  (51) 
92.83638422614698

>  <Genealogy>  (51) 
COc1ccccc1CN=c1[n-][nH]c2c1CCN(c1ccc(S(C)(=O)=O)cc1)CC2 (protonated)
COc1ccccc1CN=c1[n-][nH]c2c1CCN(c1ccc(S(C)(=O)=O)cc1)CC2 (3D coordinates assigned)
COc1ccccc1CN=c1[n-][nH]c2c1CCN(c1ccc(S(C)(=O)=O)cc1)CC2 (nonaromatic ring conformer: 92.83638422614698 kcal/mol)

>  <smiles>  (51) 
COc1ccccc1CN=c1[nH][nH]c2c1CCN(c1ccc(S(C)(=O)=O)cc1)CC2

>  <score_type>  (51) 
oracle

>  <origin>  (51) 
adg

>  <m_score__min__energy>  (51) 
-7.7300000000000004

>  <m_primary>  (51) 
energy

$$$$
51:0
     RDKit          3D

 43 45  0  0  0  0  0  0  0  0999 V2000
   63.7350   31.4900   50.4640 C   0  0  0  0  0  0  0  0  0  0  0  0
   64.1860   32.8270   49.3780 S   0  0  0  0  0  0  0  0  0  0  0  0
   65.6740   33.0360   49.3900 O   0  0  0  0  0  0  0  0  0  0  0  0
   63.5190   34.0830   49.8650 O   0  0  0  0  0  0  0  0  0  0  0  0
   63.6440   32.4960   47.7620 N   0  0  0  0  0  0  0  0  0  0  0  0
   62.3050   32.7210   47.2860 C   0  0  0  0  0  0  0  0  0  0  0  0
   62.0450   33.8500   46.4920 C   0  0  0  0  0  0  0  0  0  0  0  0
   60.7590   34.1010   46.0100 C   0  0  0  0  0  0  0  0  0  0  0  0
   59.7100   33.2240   46.3070 C   0  0  0  0  0  0  0  0  0  0  0  0
   58.0950   33.5410   45.6810 S   0  0  0  0  0  0  0  0  0  0  0  0
   57.0690   33.4150   46.7730 O   0  0  0  0  0  0  0  0  0  0  0  0
   58.0530   34.9370   45.1270 O   0  0  0  0  0  0  0  0  0  0  0  0
   57.7180   32.4130   44.4190 N   0  0  0  0  0  0  0  0  0  0  0  0
   57.6530   31.1270   44.5950 C   0  0  0  0  0  0  0  0  0  0  0  0
   58.8310   30.3840   44.6940 C   0  0  0  0  0  0  0  0  0  0  0  0
   58.7590   29.0040   44.8920 C   0  0  0  0  0  0  0  0  0  0  0  0
   57.5110   28.3660   44.9900 C   0  0  0  0  0  0  0  0  0  0  0  0
   57.4180   26.8990   45.2010 C   0  0  0  0  0  0  0  0  0  0  0  0
   57.7600   26.0040   44.1700 C   0  0  0  0  0  0  0  0  0  0  0  0
   57.6720   24.6230   44.3720 C   0  0  0  0  0  0  0  0  0  0  0  0
   57.2410   24.1200   45.6020 C   0  0  0  0  0  0  0  0  0  0  0  0
   56.8970   24.9990   46.6330 C   0  0  0  0  0  0  0  0  0  0  0  0
   56.4740   24.5090   47.8250 F   0  0  0  0  0  0  0  0  0  0  0  0
   56.9850   26.3800   46.4370 C   0  0  0  0  0  0  0  0  0  0  0  0
   56.3510   29.1540   44.8810 C   0  0  0  0  0  0  0  0  0  0  0  0
   56.4490   30.4960   44.6910 N   0  0  0  0  0  0  0  0  0  0  0  0
   59.9590   32.0950   47.0970 C   0  0  0  0  0  0  0  0  0  0  0  0
   61.2450   31.8420   47.5820 C   0  0  0  0  0  0  0  0  0  0  0  0
   63.8443   31.8140   51.5095 H   0  0  0  0  0  0  0  0  0  0  0  0
   62.6900   31.2021   50.2767 H   0  0  0  0  0  0  0  0  0  0  0  0
   64.3921   30.6279   50.2767 H   0  0  0  0  0  0  0  0  0  0  0  0
   64.3680   32.1580   47.0880 H   0  0  0  0  0  0  0  0  0  0  0  0
   62.8630   34.5436   46.2474 H   0  0  0  0  0  0  0  0  0  0  0  0
   60.5696   34.9924   45.3939 H   0  0  0  0  0  0  0  0  0  0  0  0
   59.8086   30.8824   44.6165 H   0  0  0  0  0  0  0  0  0  0  0  0
   59.6836   28.4134   44.9717 H   0  0  0  0  0  0  0  0  0  0  0  0
   58.0988   26.3935   43.1987 H   0  0  0  0  0  0  0  0  0  0  0  0
   57.9427   23.9313   43.5607 H   0  0  0  0  0  0  0  0  0  0  0  0
   57.1724   23.0334   45.7590 H   0  0  0  0  0  0  0  0  0  0  0  0
   56.7144   27.0661   47.2531 H   0  0  0  0  0  0  0  0  0  0  0  0
   55.3599   28.6818   44.9499 H   0  0  0  0  0  0  0  0  0  0  0  0
   59.1379   31.4035   47.3371 H   0  0  0  0  0  0  0  0  0  0  0  0
   61.4306   30.9505   48.1990 H   0  0  0  0  0  0  0  0  0  0  0  0
  1  2  1  0
  2  3  2  0
  2  4  2  0
  2  5  1  0
  5  6  1  0
  6  7  2  0
  7  8  1  0
  8  9  2  0
  9 10  1  0
 10 11  2  0
 10 12  2  0
 10 13  1  0
 13 14  2  3
 14 15  1  0
 15 16  2  0
 16 17  1  0
 17 18  1  0
 18 19  2  0
 19 20  1  0
 20 21  2  0
 21 22  1  0
 22 23  1  0
 22 24  2  0
 17 25  2  0
 25 26  1  0
  9 27  1  0
 27 28  2  0
 28  6  1  0
 26 14  1  0
 24 18  1  0
  1 29  1  0
  1 30  1  0
  1 31  1  0
  5 32  1  0
  7 33  1  0
  8 34  1  0
 15 35  1  0
 16 36  1  0
 19 37  1  0
 20 38  1  0
 21 39  1  0
 24 40  1  0
 25 41  1  0
 27 42  1  0
 28 43  1  0
M  CHG  1  26  -1
M  END
>  <UniqueID>  (52) 
48

>  <SMILES>  (52) 
CS(=O)(=O)Nc1ccc(S(=O)(=O)N=c2ccc(-c3cccc(F)c3)c[n-]2)cc1

>  <Energy>  (52) 
53.27919685096979

>  <Genealogy>  (52) 
CS(=O)(=O)Nc1ccc(S(=O)(=O)N=c2ccc(-c3cccc(F)c3)c[n-]2)cc1 (protonated)
CS(=O)(=O)Nc1ccc(S(=O)(=O)N=c2ccc(-c3cccc(F)c3)c[n-]2)cc1 (3D coordinates assigned)
CS(=O)(=O)Nc1ccc(S(=O)(=O)N=c2ccc(-c3cccc(F)c3)c[n-]2)cc1 (optimized conformer: 53.27919685096979 kcal/mol)

>  <smiles>  (52) 
CS(=O)(=O)Nc1ccc(S(=O)(=O)N=c2ccc(-c3cccc(F)c3)c[nH]2)cc1

>  <score_type>  (52) 
oracle

>  <origin>  (52) 
adg

>  <m_score__min__energy>  (52) 
-10.27

>  <m_primary>  (52) 
energy

$$$$
52:0
     RDKit          3D

 52 55  0  0  0  0  0  0  0  0999 V2000
   55.1530   28.6130   45.6700 H   0  0  0  0  0  0  0  0  0  0  0  0
   55.5820   29.1410   44.8770 N   0  0  0  0  0  0  0  0  0  0  0  0
   57.2780   29.2370   45.1900 S   0  0  0  0  0  0  0  0  0  0  0  0
   57.9600   29.8370   43.9930 O   0  0  0  0  0  0  0  0  0  0  0  0
   57.5250   30.1250   46.3780 O   0  0  0  0  0  0  0  0  0  0  0  0
   57.9150   27.6180   45.5120 C   0  0  0  0  0  0  0  0  0  0  0  0
   57.4990   26.5430   44.7080 C   0  0  0  0  0  0  0  0  0  0  0  0
   56.7799   26.7166   43.8939 H   0  0  0  0  0  0  0  0  0  0  0  0
   57.9920   25.2550   44.9350 C   0  0  0  0  0  0  0  0  0  0  0  0
   57.6596   24.4202   44.3004 H   0  0  0  0  0  0  0  0  0  0  0  0
   58.9050   25.0260   45.9650 C   0  0  0  0  0  0  0  0  0  0  0  0
   59.2936   24.0117   46.1390 H   0  0  0  0  0  0  0  0  0  0  0  0
   59.3260   26.0820   46.7750 C   0  0  0  0  0  0  0  0  0  0  0  0
   60.0455   25.8962   47.5861 H   0  0  0  0  0  0  0  0  0  0  0  0
   58.8360   27.3800   46.5600 C   0  0  0  0  0  0  0  0  0  0  0  0
   59.3020   28.4630   47.4430 C   0  0  0  0  0  0  0  0  0  0  0  0
   60.5490   29.0610   47.2370 C   0  0  0  0  0  0  0  0  0  0  0  0
   61.1863   28.7294   46.4040 H   0  0  0  0  0  0  0  0  0  0  0  0
   60.9750   30.0520   48.0650 N   0  0  0  0  0  0  0  0  0  0  0  0
   60.2230   30.5050   49.1040 C   0  0  0  0  0  0  0  0  0  0  0  0
   60.7120   31.4510   49.8580 N   0  0  0  0  0  0  0  0  0  0  0  0
   60.6750   32.8920   49.5990 C   0  0  0  0  0  0  0  0  0  0  0  0
   59.6405   33.1900   49.3731 H   0  0  0  0  0  0  0  0  0  0  0  0
   61.0421   33.4173   50.4930 H   0  0  0  0  0  0  0  0  0  0  0  0
   61.5620   33.2580   48.4280 C   0  0  0  0  0  0  0  0  0  0  0  0
   62.9360   33.4540   48.6410 C   0  0  0  0  0  0  0  0  0  0  0  0
   63.3591   33.3137   49.6466 H   0  0  0  0  0  0  0  0  0  0  0  0
   63.7660   33.8250   47.5860 C   0  0  0  0  0  0  0  0  0  0  0  0
   64.8406   33.9877   47.7555 H   0  0  0  0  0  0  0  0  0  0  0  0
   63.2220   33.9880   46.3140 C   0  0  0  0  0  0  0  0  0  0  0  0
   63.8672   34.2926   45.4768 H   0  0  0  0  0  0  0  0  0  0  0  0
   61.8970   33.7720   46.1040 N   0  0  0  0  0  0  0  0  0  0  0  0
   61.5210   33.8780   45.1350 H   0  0  0  0  0  0  0  0  0  0  0  0
   61.0570   33.4010   47.1150 C   0  0  0  0  0  0  0  0  0  0  0  0
   59.6740   33.1440   46.8190 N   0  0  0  0  0  0  0  0  0  0  0  0
   58.6460   34.1310   47.1450 C   0  0  0  0  0  0  0  0  0  0  0  0
   57.9223   33.6916   47.8472 H   0  0  0  0  0  0  0  0  0  0  0  0
   59.1112   35.0124   47.6107 H   0  0  0  0  0  0  0  0  0  0  0  0
   57.9260   34.5450   45.8570 C   0  0  0  0  0  0  0  0  0  0  0  0
   57.0755   35.1942   46.1123 H   0  0  0  0  0  0  0  0  0  0  0  0
   58.6380   35.0814   45.2125 H   0  0  0  0  0  0  0  0  0  0  0  0
   57.4490   33.4080   45.1580 O   0  0  0  0  0  0  0  0  0  0  0  0
   58.5370   32.6030   44.7350 C   0  0  0  0  0  0  0  0  0  0  0  0
   58.1545   31.7703   44.1265 H   0  0  0  0  0  0  0  0  0  0  0  0
   59.2263   33.2236   44.1437 H   0  0  0  0  0  0  0  0  0  0  0  0
   59.2950   32.0380   45.9400 C   0  0  0  0  0  0  0  0  0  0  0  0
   58.6489   31.3356   46.4870 H   0  0  0  0  0  0  0  0  0  0  0  0
   60.1954   31.5058   45.5993 H   0  0  0  0  0  0  0  0  0  0  0  0
   58.9520   29.9390   49.3280 C   0  0  0  0  0  0  0  0  0  0  0  0
   58.3234   30.2983   50.1561 H   0  0  0  0  0  0  0  0  0  0  0  0
   58.4970   28.9190   48.4910 C   0  0  0  0  0  0  0  0  0  0  0  0
   57.5047   28.4738   48.6560 H   0  0  0  0  0  0  0  0  0  0  0  0
  1  2  1  0
  2  3  1  0
  3  4  2  0
  3  5  2  0
  3  6  1  0
  6  7  2  0
  7  8  1  0
  7  9  1  0
  9 10  1  0
  9 11  2  0
 11 12  1  0
 11 13  1  0
 13 14  1  0
 13 15  2  0
 15 16  1  0
 16 17  2  0
 17 18  1  0
 17 19  1  0
 19 20  1  0
 20 21  2  0
 21 22  1  0
 22 23  1  0
 22 24  1  0
 22 25  1  0
 25 26  2  0
 26 27  1  0
 26 28  1  0
 28 29  1  0
 28 30  2  0
 30 31  1  0
 30 32  1  0
 32 33  1  0
 32 34  2  0
 34 35  1  0
 35 36  1  0
 36 37  1  0
 36 38  1  0
 36 39  1  0
 39 40  1  0
 39 41  1  0
 39 42  1  0
 42 43  1  0
 43 44  1  0
 43 45  1  0
 43 46  1  0
 46 47  1  0
 46 48  1  0
 20 49  1  0
 49 50  1  0
 49 51  2  0
 51 52  1  0
 15  6  1  0
 51 16  1  0
 34 25  1  0
 46 35  1  0
M  CHG  3   2  -1  19  -1  32   1
M  END
>  <UniqueID>  (53) 
49

>  <SMILES>  (53) 
[NH-]S(=O)(=O)c1ccccc1-c1cc/c(=N\Cc2ccc[nH+]c2N2CCOCC2)[n-]c1

>  <Energy>  (53) 
73.72870808318595

>  <Genealogy>  (53) 
[NH-]S(=O)(=O)c1ccccc1-c1ccc(=NCc2ccc[nH+]c2N2CCOCC2)[n-]c1 (protonated)
[NH-]S(=O)(=O)c1ccccc1-c1cc/c(=N\Cc2ccc[nH+]c2N2CCOCC2)[n-]c1 (cis-trans isomerization)
[NH-]S(=O)(=O)c1ccccc1-c1cc/c(=N\Cc2ccc[nH+]c2N2CCOCC2)[n-]c1 (3D coordinates assigned)
[NH-]S(=O)(=O)c1ccccc1-c1cc/c(=N\Cc2ccc[nH+]c2N2CCOCC2)[n-]c1 (nonaromatic ring conformer: 73.72870808318595 kcal/mol)

>  <smiles>  (53) 
NS(=O)(=O)c1ccccc1-c1ccc(=NCc2cccnc2N2CCOCC2)[nH]c1

>  <score_type>  (53) 
oracle

>  <origin>  (53) 
adg

>  <m_score__min__energy>  (53) 
-10.5

>  <m_primary>  (53) 
energy

$$$$
53:0
     RDKit          3D

 39 41  0  0  0  0  0  0  0  0999 V2000
   60.7230   33.8590   50.0830 C   0  0  0  0  0  0  0  0  0  0  0  0
   61.5410   33.7830   48.8380 C   0  0  0  0  0  0  0  0  0  0  0  0
   62.9210   33.8640   49.0030 C   0  0  0  0  0  0  0  0  0  0  0  0
   63.7300   33.7970   47.8670 C   0  0  0  0  0  0  0  0  0  0  0  0
   63.1810   33.6530   46.5970 C   0  0  0  0  0  0  0  0  0  0  0  0
   61.7990   33.5770   46.4840 C   0  0  0  0  0  0  0  0  0  0  0  0
   60.9710   33.6390   47.5890 C   0  0  0  0  0  0  0  0  0  0  0  0
   59.5370   33.5590   47.4640 N   0  0  0  0  0  0  0  0  0  0  0  0
   58.7540   34.5680   46.8070 C   0  0  0  0  0  0  0  0  0  0  0  0
   58.9200   32.3850   48.0470 C   0  0  0  0  0  0  0  0  0  0  0  0
   59.0060   31.1830   47.2120 C   0  0  0  0  0  0  0  0  0  0  0  0
   59.9940   30.2250   47.3160 C   0  0  0  0  0  0  0  0  0  0  0  0
   59.9910   29.1400   46.4930 N   0  0  0  0  0  0  0  0  0  0  0  0
   59.0310   28.9800   45.5650 C   0  0  0  0  0  0  0  0  0  0  0  0
   58.9670   27.9380   44.7250 N   0  0  0  0  0  0  0  0  0  0  0  0
   57.9710   27.8470   43.8200 C   0  0  0  0  0  0  0  0  0  0  0  0
   57.8920   26.8380   42.9910 N   0  0  0  0  0  0  0  0  0  0  0  0
   56.9990   28.7780   43.7080 N   0  0  0  0  0  0  0  0  0  0  0  0
   57.0160   29.8420   44.5270 C   0  0  0  0  0  0  0  0  0  0  0  0
   56.1090   30.7730   44.4700 N   0  0  0  0  0  0  0  0  0  0  0  0
   58.0340   29.9350   45.4510 C   0  0  0  0  0  0  0  0  0  0  0  0
   58.0380   31.0060   46.2650 N   0  0  0  0  0  0  0  0  0  0  0  0
   61.3838   33.7976   50.9602 H   0  0  0  0  0  0  0  0  0  0  0  0
   60.1741   34.8120   50.1035 H   0  0  0  0  0  0  0  0  0  0  0  0
   60.0079   33.0234   50.1035 H   0  0  0  0  0  0  0  0  0  0  0  0
   63.3631   33.9780   50.0038 H   0  0  0  0  0  0  0  0  0  0  0  0
   64.8226   33.8593   47.9784 H   0  0  0  0  0  0  0  0  0  0  0  0
   63.8243   33.6007   45.7062 H   0  0  0  0  0  0  0  0  0  0  0  0
   61.3502   33.4642   45.4861 H   0  0  0  0  0  0  0  0  0  0  0  0
   58.2633   35.2004   47.5615 H   0  0  0  0  0  0  0  0  0  0  0  0
   59.4091   35.1888   46.1782 H   0  0  0  0  0  0  0  0  0  0  0  0
   57.9900   34.0876   46.1782 H   0  0  0  0  0  0  0  0  0  0  0  0
   59.4161   32.1749   49.0060 H   0  0  0  0  0  0  0  0  0  0  0  0
   57.8503   32.6142   48.1615 H   0  0  0  0  0  0  0  0  0  0  0  0
   60.7886   30.3385   48.0681 H   0  0  0  0  0  0  0  0  0  0  0  0
   59.7130   27.1910   44.7860 H   0  0  0  0  0  0  0  0  0  0  0  0
   56.9490   26.3920   42.7860 H   0  0  0  0  0  0  0  0  0  0  0  0
   56.2230   28.7280   43.0200 H   0  0  0  0  0  0  0  0  0  0  0  0
   56.0530   31.4700   45.2430 H   0  0  0  0  0  0  0  0  0  0  0  0
  1  2  1  0
  2  3  2  0
  3  4  1  0
  4  5  2  0
  5  6  1  0
  6  7  2  0
  7  8  1  0
  8  9  1  0
  8 10  1  0
 10 11  1  0
 11 12  2  0
 12 13  1  0
 13 14  2  0
 14 15  1  0
 15 16  1  0
 16 17  2  3
 16 18  1  0
 18 19  1  0
 19 20  2  3
 19 21  1  0
 21 22  2  0
  7  2  1  0
 22 11  1  0
 21 14  1  0
  1 23  1  0
  1 24  1  0
  1 25  1  0
  3 26  1  0
  4 27  1  0
  5 28  1  0
  6 29  1  0
  9 30  1  0
  9 31  1  0
  9 32  1  0
 10 33  1  0
 10 34  1  0
 12 35  1  0
 15 36  1  0
 17 37  1  0
 18 38  1  0
 20 39  1  0
M  END
>  <smiles>  (54) 
Cc1ccccc1N(C)Cc1cnc2[nH]c(=N)[nH]c(=N)c2n1

>  <score_type>  (54) 
oracle

>  <origin>  (54) 
adg

>  <m_score__min__energy>  (54) 
-7.2999999999999998

>  <m_primary>  (54) 
energy

$$$$
54:0
     RDKit          3D

 56 59  0  0  0  0  0  0  0  0999 V2000
   56.8220   29.5490   44.9570 O   0  0  0  0  0  0  0  0  0  0  0  0
   57.8070   30.0490   45.5670 C   0  0  0  0  0  0  0  0  0  0  0  0
   58.8680   29.2090   46.0550 N   0  0  0  0  0  0  0  0  0  0  0  0
   58.7990   27.7750   46.1040 C   0  0  0  0  0  0  0  0  0  0  0  0
   59.9510   26.9900   46.2860 C   0  0  0  0  0  0  0  0  0  0  0  0
   59.8500   25.5990   46.3620 C   0  0  0  0  0  0  0  0  0  0  0  0
   58.6010   24.9800   46.2740 C   0  0  0  0  0  0  0  0  0  0  0  0
   57.4420   25.7520   46.1180 C   0  0  0  0  0  0  0  0  0  0  0  0
   55.8600   24.9710   46.0520 S   0  0  0  0  0  0  0  0  0  0  0  0
   55.5210   24.4220   47.4080 O   0  0  0  0  0  0  0  0  0  0  0  0
   54.8200   25.9950   45.6910 O   0  0  0  0  0  0  0  0  0  0  0  0
   55.8240   23.6780   44.8790 N   0  0  0  0  0  0  0  0  0  0  0  0
   56.5560   24.0620   43.6630 C   0  0  0  0  0  0  0  0  0  0  0  0
   56.5100   22.9120   42.6340 C   0  0  0  0  0  0  0  0  0  0  0  0
   55.9100   21.7430   43.1640 O   0  0  0  0  0  0  0  0  0  0  0  0
   56.5630   21.3670   44.3610 C   0  0  0  0  0  0  0  0  0  0  0  0
   56.3980   22.4480   45.4500 C   0  0  0  0  0  0  0  0  0  0  0  0
   57.5460   27.1480   46.0350 C   0  0  0  0  0  0  0  0  0  0  0  0
   57.8490   31.5130   45.7790 C   0  0  0  0  0  0  0  0  0  0  0  0
   57.2000   32.3530   44.8570 C   0  0  0  0  0  0  0  0  0  0  0  0
   57.2610   33.7420   44.9980 C   0  0  0  0  0  0  0  0  0  0  0  0
   57.9660   34.3080   46.0600 C   0  0  0  0  0  0  0  0  0  0  0  0
   58.5970   33.4860   46.9960 C   0  0  0  0  0  0  0  0  0  0  0  0
   58.5300   32.0920   46.8760 C   0  0  0  0  0  0  0  0  0  0  0  0
   59.1270   31.2880   47.8960 N   0  0  0  0  0  0  0  0  0  0  0  0
   60.7830   30.7930   47.8080 S   0  0  0  0  0  0  0  0  0  0  0  0
   61.1970   30.6360   46.3720 O   0  0  0  0  0  0  0  0  0  0  0  0
   60.9620   29.4830   48.5230 O   0  0  0  0  0  0  0  0  0  0  0  0
   61.7790   32.0130   48.5920 C   0  0  0  0  0  0  0  0  0  0  0  0
   63.1380   32.1130   48.2610 C   0  0  0  0  0  0  0  0  0  0  0  0
   63.9400   33.0810   48.8740 C   0  0  0  0  0  0  0  0  0  0  0  0
   63.3900   33.9540   49.8170 C   0  0  0  0  0  0  0  0  0  0  0  0
   62.0370   33.8570   50.1520 C   0  0  0  0  0  0  0  0  0  0  0  0
   61.2310   32.8870   49.5440 C   0  0  0  0  0  0  0  0  0  0  0  0
   59.6880   29.6640   46.5160 H   0  0  0  0  0  0  0  0  0  0  0  0
   60.9357   27.4731   46.3689 H   0  0  0  0  0  0  0  0  0  0  0  0
   60.7564   24.9894   46.4915 H   0  0  0  0  0  0  0  0  0  0  0  0
   58.5270   23.8838   46.3273 H   0  0  0  0  0  0  0  0  0  0  0  0
   56.0929   24.9596   43.2272 H   0  0  0  0  0  0  0  0  0  0  0  0
   57.6039   24.2720   43.9234 H   0  0  0  0  0  0  0  0  0  0  0  0
   55.9304   23.2423   41.7594 H   0  0  0  0  0  0  0  0  0  0  0  0
   57.5456   22.6644   42.3579 H   0  0  0  0  0  0  0  0  0  0  0  0
   56.1308   20.4229   44.7242 H   0  0  0  0  0  0  0  0  0  0  0  0
   57.6357   21.2465   44.1495 H   0  0  0  0  0  0  0  0  0  0  0  0
   55.7294   22.0689   46.2369 H   0  0  0  0  0  0  0  0  0  0  0  0
   57.3876   22.6811   45.8700 H   0  0  0  0  0  0  0  0  0  0  0  0
   56.6375   27.7564   45.9148 H   0  0  0  0  0  0  0  0  0  0  0  0
   56.6400   31.9135   44.0184 H   0  0  0  0  0  0  0  0  0  0  0  0
   56.7518   34.3904   44.2698 H   0  0  0  0  0  0  0  0  0  0  0  0
   58.0250   35.4018   46.1603 H   0  0  0  0  0  0  0  0  0  0  0  0
   59.1504   33.9362   47.8332 H   0  0  0  0  0  0  0  0  0  0  0  0
   63.5740   31.4290   47.5180 H   0  0  0  0  0  0  0  0  0  0  0  0
   65.0061   33.1555   48.6134 H   0  0  0  0  0  0  0  0  0  0  0  0
   64.0220   34.7169   50.2951 H   0  0  0  0  0  0  0  0  0  0  0  0
   61.6044   34.5437   50.8945 H   0  0  0  0  0  0  0  0  0  0  0  0
   60.1671   32.8097   49.8126 H   0  0  0  0  0  0  0  0  0  0  0  0
  1  2  2  0
  2  3  1  0
  3  4  1  0
  4  5  2  0
  5  6  1  0
  6  7  2  0
  7  8  1  0
  8  9  1  0
  9 10  2  0
  9 11  2  0
  9 12  1  0
 12 13  1  0
 13 14  1  0
 14 15  1  0
 15 16  1  0
 16 17  1  0
  8 18  2  0
  2 19  1  0
 19 20  2  0
 20 21  1  0
 21 22  2  0
 22 23  1  0
 23 24  2  0
 24 25  1  0
 25 26  1  0
 26 27  2  0
 26 28  2  0
 26 29  1  0
 29 30  2  0
 30 31  1  0
 31 32  2  0
 32 33  1  0
 33 34  2  0
 18  4  1  0
 24 19  1  0
 34 29  1  0
 17 12  1  0
  3 35  1  0
  5 36  1  0
  6 37  1  0
  7 38  1  0
 13 39  1  0
 13 40  1  0
 14 41  1  0
 14 42  1  0
 16 43  1  0
 16 44  1  0
 17 45  1  0
 17 46  1  0
 18 47  1  0
 20 48  1  0
 21 49  1  0
 22 50  1  0
 23 51  1  0
 30 52  1  0
 31 53  1  0
 32 54  1  0
 33 55  1  0
 34 56  1  0
M  CHG  1  25  -1
M  END
>  <UniqueID>  (55) 
50

>  <SMILES>  (55) 
O=C(Nc1cccc(S(=O)(=O)N2CCOCC2)c1)c1ccccc1[N-]S(=O)(=O)c1ccccc1

>  <Energy>  (55) 
83.40511243146481

>  <Genealogy>  (55) 
O=C(Nc1cccc(S(=O)(=O)N2CCOCC2)c1)c1ccccc1[N-]S(=O)(=O)c1ccccc1 (protonated)
O=C(Nc1cccc(S(=O)(=O)N2CCOCC2)c1)c1ccccc1[N-]S(=O)(=O)c1ccccc1 (3D coordinates assigned)
O=C(Nc1cccc(S(=O)(=O)N2CCOCC2)c1)c1ccccc1[N-]S(=O)(=O)c1ccccc1 (nonaromatic ring conformer: 83.40511243146481 kcal/mol)

>  <smiles>  (55) 
O=C(Nc1cccc(S(=O)(=O)N2CCOCC2)c1)c1ccccc1NS(=O)(=O)c1ccccc1

>  <score_type>  (55) 
oracle

>  <origin>  (55) 
adg

>  <m_score__min__energy>  (55) 
-12.08

>  <m_primary>  (55) 
energy

$$$$
55:0
     RDKit          3D

 47 49  0  0  0  0  0  0  0  0999 V2000
   53.1160   30.4100   51.1640 C   0  0  0  0  0  0  0  0  0  0  0  0
   54.3650   30.1630   51.9420 C   0  0  0  0  0  0  0  0  0  0  0  0
   54.4840   29.3550   53.0500 C   0  0  0  0  0  0  0  0  0  0  0  0
   55.8160   29.4370   53.3920 C   0  0  0  0  0  0  0  0  0  0  0  0
   56.4300   30.2670   52.5320 N   0  0  0  0  0  0  0  0  0  0  0  0
   57.8610   30.5670   52.4910 C   0  0  0  0  0  0  0  0  0  0  0  0
   58.2040   31.8360   51.6350 C   0  0  2  0  0  0  0  0  0  0  0  0
   57.3100   32.8990   51.8400 O   0  0  0  0  0  0  0  0  0  0  0  0
   58.4440   31.5300   50.1160 C   0  0  0  0  0  0  0  0  0  0  0  0
   58.7740   32.7050   49.3590 O   0  0  0  0  0  0  0  0  0  0  0  0
   60.0390   33.0960   48.8640 C   0  0  0  0  0  0  0  0  0  0  0  0
   60.9080   33.8830   49.6350 C   0  0  0  0  0  0  0  0  0  0  0  0
   62.2080   34.1500   49.1830 C   0  0  0  0  0  0  0  0  0  0  0  0
   63.0450   34.8880   49.9500 F   0  0  0  0  0  0  0  0  0  0  0  0
   62.6390   33.6670   47.9450 C   0  0  0  0  0  0  0  0  0  0  0  0
   61.7610   32.9440   47.1360 C   0  0  0  0  0  0  0  0  0  0  0  0
   60.4530   32.6570   47.5780 C   0  0  0  0  0  0  0  0  0  0  0  0
   59.5270   31.9420   46.6760 C   0  0  0  0  0  0  0  0  0  0  0  0
   58.5300   32.6300   45.9670 C   0  0  0  0  0  0  0  0  0  0  0  0
   57.6230   31.9290   45.1600 C   0  0  0  0  0  0  0  0  0  0  0  0
   57.7100   30.5410   45.0380 C   0  0  0  0  0  0  0  0  0  0  0  0
   56.6030   29.6600   43.9890 S   0  0  0  0  0  0  0  0  0  0  0  0
   55.1370   29.3350   44.8550 N   0  0  0  0  0  0  0  0  0  0  0  0
   57.2360   28.3650   43.5430 O   0  0  0  0  0  0  0  0  0  0  0  0
   56.3150   30.5070   42.7770 O   0  0  0  0  0  0  0  0  0  0  0  0
   58.6960   29.8450   45.7540 C   0  0  0  0  0  0  0  0  0  0  0  0
   59.5880   30.5390   46.5710 C   0  0  0  0  0  0  0  0  0  0  0  0
   55.5580   30.7100   51.6300 N   0  0  0  0  0  0  0  0  0  0  0  0
   52.2786   30.5756   51.8578 H   0  0  0  0  0  0  0  0  0  0  0  0
   53.2486   31.2993   50.5303 H   0  0  0  0  0  0  0  0  0  0  0  0
   52.9001   29.5372   50.5303 H   0  0  0  0  0  0  0  0  0  0  0  0
   53.6941   28.7749   53.5495 H   0  0  0  0  0  0  0  0  0  0  0  0
   56.2969   28.9106   54.2297 H   0  0  0  0  0  0  0  0  0  0  0  0
   58.2124   30.7343   53.5199 H   0  0  0  0  0  0  0  0  0  0  0  0
   58.3606   29.7092   52.0171 H   0  0  0  0  0  0  0  0  0  0  0  0
   59.1765   32.1780   52.0186 H   0  0  0  0  0  0  0  0  0  0  0  0
   56.4420   32.6780   51.4120 H   0  0  0  0  0  0  0  0  0  0  0  0
   59.2719   30.8110   50.0284 H   0  0  0  0  0  0  0  0  0  0  0  0
   57.5072   31.1237   49.7070 H   0  0  0  0  0  0  0  0  0  0  0  0
   60.5679   34.2921   50.5978 H   0  0  0  0  0  0  0  0  0  0  0  0
   63.6689   33.8562   47.6083 H   0  0  0  0  0  0  0  0  0  0  0  0
   62.0917   32.5955   46.1465 H   0  0  0  0  0  0  0  0  0  0  0  0
   58.4600   33.7250   46.0450 H   0  0  0  0  0  0  0  0  0  0  0  0
   56.8371   32.4765   44.6190 H   0  0  0  0  0  0  0  0  0  0  0  0
   55.3690   28.6390   45.5850 H   0  0  0  0  0  0  0  0  0  0  0  0
   58.7654   28.7504   45.6707 H   0  0  0  0  0  0  0  0  0  0  0  0
   60.3482   29.9839   47.1402 H   0  0  0  0  0  0  0  0  0  0  0  0
  1  2  1  0
  2  3  1  0
  3  4  2  0
  4  5  1  0
  5  6  1  0
  6  7  1  0
  7  8  1  0
  7  9  1  0
  9 10  1  0
 10 11  1  0
 11 12  2  0
 12 13  1  0
 13 14  1  0
 13 15  2  0
 15 16  1  0
 16 17  2  0
 17 18  1  0
 18 19  2  0
 19 20  1  0
 20 21  2  0
 21 22  1  0
 22 23  1  0
 22 24  2  0
 22 25  2  0
 21 26  1  0
 26 27  2  0
  5 28  1  0
 28  2  2  0
 17 11  1  0
 27 18  1  0
  1 29  1  0
  1 30  1  0
  1 31  1  0
  3 32  1  0
  4 33  1  0
  6 34  1  0
  6 35  1  0
  7 36  1  1
  8 37  1  0
  9 38  1  0
  9 39  1  0
 12 40  1  0
 15 41  1  0
 16 42  1  0
 19 43  1  0
 20 44  1  0
 23 45  1  0
 26 46  1  0
 27 47  1  0
M  CHG  1  23  -1
M  END
>  <UniqueID>  (56) 
51

>  <SMILES>  (56) 
Cc1ccn(C[C@H](O)COc2cc(F)ccc2-c2ccc(S([NH-])(=O)=O)cc2)n1

>  <Energy>  (56) 
93.38014535041418

>  <Genealogy>  (56) 
Cc1ccn(CC(O)COc2cc(F)ccc2-c2ccc(S([NH-])(=O)=O)cc2)n1 (protonated)
Cc1ccn(C[C@H](O)COc2cc(F)ccc2-c2ccc(S([NH-])(=O)=O)cc2)n1 (chirality)
Cc1ccn(C[C@H](O)COc2cc(F)ccc2-c2ccc(S([NH-])(=O)=O)cc2)n1 (3D coordinates assigned)
Cc1ccn(C[C@H](O)COc2cc(F)ccc2-c2ccc(S([NH-])(=O)=O)cc2)n1 (optimized conformer: 93.38014535041418 kcal/mol)

>  <smiles>  (56) 
Cc1ccn(CC(O)COc2cc(F)ccc2-c2ccc(S(N)(=O)=O)cc2)n1

>  <score_type>  (56) 
oracle

>  <origin>  (56) 
adg

>  <m_score__min__energy>  (56) 
-10.56

>  <m_primary>  (56) 
energy

$$$$
56:0
     RDKit          3D

 70 75  0  0  0  0  0  0  0  0999 V2000
   68.2570   33.8820   50.5950 C   0  0  0  0  0  0  0  0  0  0  0  0
   67.2800   33.0910   50.1290 C   0  0  0  0  0  0  0  0  0  0  0  0
   66.1040   32.5930   50.9740 C   0  0  0  0  0  0  0  0  0  0  0  0
   66.3870   33.0700   52.4120 C   0  0  0  0  0  0  0  0  0  0  0  0
   66.0060   31.0510   50.9360 C   0  0  0  0  0  0  0  0  0  0  0  0
   64.7890   33.1490   50.3920 C   0  0  0  0  0  0  0  0  0  0  0  0
   64.5860   33.2170   49.0470 N   0  0  0  0  0  0  0  0  0  0  0  0
   63.2890   33.5010   48.8470 C   0  0  0  0  0  0  0  0  0  0  0  0
   62.6260   33.6200   47.6160 C   0  0  0  0  0  0  0  0  0  0  0  0
   63.3640   33.4930   46.3150 C   0  0  0  0  0  0  0  0  0  0  0  0
   61.2350   33.8500   47.6460 C   0  0  0  0  0  0  0  0  0  0  0  0
   60.5500   33.9400   48.8760 C   0  0  0  0  0  0  0  0  0  0  0  0
   61.2440   33.8050   50.0880 C   0  0  0  0  0  0  0  0  0  0  0  0
   62.6270   33.5990   50.0390 C   0  0  0  0  0  0  0  0  0  0  0  0
   63.5520   33.3800   51.0510 C   0  0  0  0  0  0  0  0  0  0  0  0
   63.2080   33.3070   52.5240 C   0  0  0  0  0  0  0  0  0  0  0  0
   62.8190   31.9370   52.9610 N   0  0  2  0  0  0  0  0  0  0  0  0
   63.0300   30.9530   51.8450 C   0  0  0  0  0  0  0  0  0  0  0  0
   61.8410   30.0120   51.5860 C   0  0  0  0  0  0  0  0  0  0  0  0
   60.5720   30.8200   51.4980 C   0  0  0  0  0  0  0  0  0  0  0  0
   60.3800   31.7710   52.5110 C   0  0  0  0  0  0  0  0  0  0  0  0
   59.1790   32.4870   52.5940 C   0  0  0  0  0  0  0  0  0  0  0  0
   58.1690   32.2630   51.6590 C   0  0  0  0  0  0  0  0  0  0  0  0
   58.3500   31.3230   50.6410 C   0  0  0  0  0  0  0  0  0  0  0  0
   59.5510   30.6000   50.5390 C   0  0  0  0  0  0  0  0  0  0  0  0
   59.6990   29.6490   49.4230 C   0  0  0  0  0  0  0  0  0  0  0  0
   60.7090   28.8950   49.3710 O   0  0  0  0  0  0  0  0  0  0  0  0
   58.7060   29.6270   48.3840 N   0  0  0  0  0  0  0  0  0  0  0  0
   58.5200   30.5410   47.4770 C   0  0  0  0  0  0  0  0  0  0  0  0
   58.2840   30.2180   46.1790 N   0  0  0  0  0  0  0  0  0  0  0  0
   58.1510   31.4230   45.6040 C   0  0  0  0  0  0  0  0  0  0  0  0
   57.8950   31.7060   44.2640 C   0  0  0  0  0  0  0  0  0  0  0  0
   57.7960   33.0590   43.8890 C   0  0  0  0  0  0  0  0  0  0  0  0
   57.9590   34.0820   44.8520 C   0  0  0  0  0  0  0  0  0  0  0  0
   58.2180   33.7590   46.1970 C   0  0  0  0  0  0  0  0  0  0  0  0
   58.3050   32.4090   46.5320 C   0  0  0  0  0  0  0  0  0  0  0  0
   58.5440   31.8770   47.7400 N   0  0  0  0  0  0  0  0  0  0  0  0
   61.4540   31.9130   53.5570 C   0  0  0  0  0  0  0  0  0  0  0  0
   69.0717   34.2007   49.9282 H   0  0  0  0  0  0  0  0  0  0  0  0
   68.2439   34.2123   51.6442 H   0  0  0  0  0  0  0  0  0  0  0  0
   67.3260   32.7806   49.0747 H   0  0  0  0  0  0  0  0  0  0  0  0
   65.9606   32.3513   53.1273 H   0  0  0  0  0  0  0  0  0  0  0  0
   67.4736   33.1413   52.5675 H   0  0  0  0  0  0  0  0  0  0  0  0
   65.9288   34.0578   52.5675 H   0  0  0  0  0  0  0  0  0  0  0  0
   65.9811   30.6597   51.9638 H   0  0  0  0  0  0  0  0  0  0  0  0
   65.0872   30.7549   50.4086 H   0  0  0  0  0  0  0  0  0  0  0  0
   66.8799   30.6409   50.4086 H   0  0  0  0  0  0  0  0  0  0  0  0
   65.2760   33.0020   48.2930 H   0  0  0  0  0  0  0  0  0  0  0  0
   64.4301   33.3095   46.5146 H   0  0  0  0  0  0  0  0  0  0  0  0
   62.9490   32.6531   45.7385 H   0  0  0  0  0  0  0  0  0  0  0  0
   63.2537   34.4233   45.7385 H   0  0  0  0  0  0  0  0  0  0  0  0
   60.6797   33.9601   46.7029 H   0  0  0  0  0  0  0  0  0  0  0  0
   59.4644   34.1172   48.8850 H   0  0  0  0  0  0  0  0  0  0  0  0
   60.7149   33.8597   51.0509 H   0  0  0  0  0  0  0  0  0  0  0  0
   64.0858   33.6250   53.1057 H   0  0  0  0  0  0  0  0  0  0  0  0
   62.3437   33.9658   52.6943 H   0  0  0  0  0  0  0  0  0  0  0  0
   63.4620   31.6550   53.7330 H   0  0  0  0  0  0  0  0  0  0  0  0
   63.2272   31.5183   50.9222 H   0  0  0  0  0  0  0  0  0  0  0  0
   63.8723   30.3139   52.1487 H   0  0  0  0  0  0  0  0  0  0  0  0
   61.9990   29.4730   50.6402 H   0  0  0  0  0  0  0  0  0  0  0  0
   61.7591   29.2885   52.4106 H   0  0  0  0  0  0  0  0  0  0  0  0
   59.0327   33.2254   53.3961 H   0  0  0  0  0  0  0  0  0  0  0  0
   57.2272   32.8278   51.7230 H   0  0  0  0  0  0  0  0  0  0  0  0
   57.5448   31.1472   49.9125 H   0  0  0  0  0  0  0  0  0  0  0  0
   57.7745   30.9002   43.5250 H   0  0  0  0  0  0  0  0  0  0  0  0
   57.5907   33.3223   42.8409 H   0  0  0  0  0  0  0  0  0  0  0  0
   57.8829   35.1364   44.5478 H   0  0  0  0  0  0  0  0  0  0  0  0
   58.3472   34.5440   46.9567 H   0  0  0  0  0  0  0  0  0  0  0  0
   61.2910   32.8514   54.1072 H   0  0  0  0  0  0  0  0  0  0  0  0
   61.3922   31.0416   54.2255 H   0  0  0  0  0  0  0  0  0  0  0  0
  1  2  2  0
  2  3  1  0
  3  4  1  0
  3  5  1  0
  3  6  1  0
  6  7  1  0
  7  8  1  0
  8  9  2  0
  9 10  1  0
  9 11  1  0
 11 12  2  0
 12 13  1  0
 13 14  2  0
 14 15  1  0
 15 16  1  0
 16 17  1  0
 17 18  1  0
 18 19  1  0
 19 20  1  0
 20 21  2  0
 21 22  1  0
 22 23  2  0
 23 24  1  0
 24 25  2  0
 25 26  1  0
 26 27  2  0
 26 28  1  0
 28 29  2  3
 29 30  1  0
 30 31  1  0
 31 32  2  0
 32 33  1  0
 33 34  2  0
 34 35  1  0
 35 36  2  0
 36 37  1  0
 21 38  1  0
 15  6  2  0
 38 17  1  0
 14  8  1  0
 25 20  1  0
 37 29  1  0
 36 31  1  0
  1 39  1  0
  1 40  1  0
  2 41  1  0
  4 42  1  0
  4 43  1  0
  4 44  1  0
  5 45  1  0
  5 46  1  0
  5 47  1  0
  7 48  1  0
 10 49  1  0
 10 50  1  0
 10 51  1  0
 11 52  1  0
 12 53  1  0
 13 54  1  0
 16 55  1  0
 16 56  1  0
 17 57  1  1
 18 58  1  0
 18 59  1  0
 19 60  1  0
 19 61  1  0
 22 62  1  0
 23 63  1  0
 24 64  1  0
 32 65  1  0
 33 66  1  0
 34 67  1  0
 35 68  1  0
 38 69  1  0
 38 70  1  0
M  CHG  3  17   1  30  -1  37  -1
M  END
>  <UniqueID>  (57) 
52

>  <SMILES>  (57) 
C=CC(C)(C)c1[nH]c2c(C)cccc2c1C[N@@H+]1CCc2c(cccc2C(=O)N=c2[n-]c3ccccc3[n-]2)C1

>  <Energy>  (57) 
171.6582439509496

>  <Genealogy>  (57) 
C=CC(C)(C)c1[nH]c2c(C)cccc2c1C[NH+]1CCc2c(cccc2C(=O)N=c2[n-]c3ccccc3[n-]2)C1 (protonated)
C=CC(C)(C)c1[nH]c2c(C)cccc2c1C[N@@H+]1CCc2c(cccc2C(=O)N=c2[n-]c3ccccc3[n-]2)C1 (chirality)
C=CC(C)(C)c1[nH]c2c(C)cccc2c1C[N@@H+]1CCc2c(cccc2C(=O)N=c2[n-]c3ccccc3[n-]2)C1 (3D coordinates assigned)
C=CC(C)(C)c1[nH]c2c(C)cccc2c1C[N@@H+]1CCc2c(cccc2C(=O)N=c2[n-]c3ccccc3[n-]2)C1 (nonaromatic ring conformer: 171.6582439509496 kcal/mol)

>  <smiles>  (57) 
C=CC(C)(C)c1[nH]c2c(C)cccc2c1CN1CCc2c(cccc2C(=O)N=c2[nH]c3ccccc3[nH]2)C1

>  <score_type>  (57) 
oracle

>  <origin>  (57) 
adg

>  <m_score__min__energy>  (57) 
-11.68

>  <m_primary>  (57) 
energy

$$$$
57:0
     RDKit          3D

 37 39  0  0  0  0  0  0  0  0999 V2000
   57.9810   26.1190   46.3890 C   0  0  0  0  0  0  0  0  0  0  0  0
   57.8060   27.3480   47.0870 O   0  0  0  0  0  0  0  0  0  0  0  0
   57.7510   28.6100   46.4750 C   0  0  0  0  0  0  0  0  0  0  0  0
   58.6800   29.6250   46.7680 C   0  0  0  0  0  0  0  0  0  0  0  0
   58.5960   30.8650   46.1250 C   0  0  0  0  0  0  0  0  0  0  0  0
   59.5190   31.8810   46.3870 C   0  0  0  0  0  0  0  0  0  0  0  0
   59.4120   33.1090   45.7240 C   0  0  0  0  0  0  0  0  0  0  0  0
   60.4330   34.1910   45.9740 C   0  0  0  0  0  0  0  0  0  0  0  0
   61.3790   33.7760   47.0680 C   0  0  0  0  0  0  0  0  0  0  0  0
   60.9880   33.8590   48.4160 C   0  0  0  0  0  0  0  0  0  0  0  0
   61.8810   33.5050   49.4310 C   0  0  0  0  0  0  0  0  0  0  0  0
   63.1700   33.0710   49.1110 C   0  0  0  0  0  0  0  0  0  0  0  0
   63.5700   32.9930   47.7740 C   0  0  0  0  0  0  0  0  0  0  0  0
   62.6800   33.3480   46.7550 C   0  0  0  0  0  0  0  0  0  0  0  0
   58.3730   33.2720   44.7890 C   0  0  0  0  0  0  0  0  0  0  0  0
   58.2460   34.3520   44.1540 O   0  0  0  0  0  0  0  0  0  0  0  0
   57.5090   32.2860   44.5650 O   0  0  0  0  0  0  0  0  0  0  0  0
   57.5710   31.1080   45.1860 C   0  0  0  0  0  0  0  0  0  0  0  0
   56.6220   30.1070   44.9060 C   0  0  0  0  0  0  0  0  0  0  0  0
   55.5450   30.3430   43.8800 C   0  0  0  0  0  0  0  0  0  0  0  0
   56.7330   28.8530   45.5410 C   0  0  0  0  0  0  0  0  0  0  0  0
   55.8300   27.8360   45.2450 O   0  0  0  0  0  0  0  0  0  0  0  0
   58.0977   25.2994   47.1133 H   0  0  0  0  0  0  0  0  0  0  0  0
   57.1011   25.9276   45.7573 H   0  0  0  0  0  0  0  0  0  0  0  0
   58.8794   26.1808   45.7573 H   0  0  0  0  0  0  0  0  0  0  0  0
   59.4756   29.4432   47.5055 H   0  0  0  0  0  0  0  0  0  0  0  0
   60.3285   31.7159   47.1133 H   0  0  0  0  0  0  0  0  0  0  0  0
   61.0032   34.3717   45.0508 H   0  0  0  0  0  0  0  0  0  0  0  0
   59.9118   35.1095   46.2819 H   0  0  0  0  0  0  0  0  0  0  0  0
   59.9755   34.2038   48.6726 H   0  0  0  0  0  0  0  0  0  0  0  0
   61.5685   33.5682   50.4838 H   0  0  0  0  0  0  0  0  0  0  0  0
   63.8703   32.7906   49.9116 H   0  0  0  0  0  0  0  0  0  0  0  0
   64.5853   32.6522   47.5230 H   0  0  0  0  0  0  0  0  0  0  0  0
   63.0001   33.2918   45.7041 H   0  0  0  0  0  0  0  0  0  0  0  0
   54.5927   30.5517   44.3894 H   0  0  0  0  0  0  0  0  0  0  0  0
   55.8201   31.2022   43.2506 H   0  0  0  0  0  0  0  0  0  0  0  0
   55.4356   29.4475   43.2506 H   0  0  0  0  0  0  0  0  0  0  0  0
  1  2  1  0
  2  3  1  0
  3  4  2  0
  4  5  1  0
  5  6  1  0
  6  7  2  0
  7  8  1  0
  8  9  1  0
  9 10  2  0
 10 11  1  0
 11 12  2  0
 12 13  1  0
 13 14  2  0
  7 15  1  0
 15 16  2  0
 15 17  1  0
 17 18  1  0
 18 19  1  0
 19 20  1  0
 19 21  2  0
 21 22  1  0
 21  3  1  0
 18  5  2  0
 14  9  1  0
  1 23  1  0
  1 24  1  0
  1 25  1  0
  4 26  1  0
  6 27  1  0
  8 28  1  0
  8 29  1  0
 10 30  1  0
 11 31  1  0
 12 32  1  0
 13 33  1  0
 14 34  1  0
 20 35  1  0
 20 36  1  0
 20 37  1  0
M  CHG  1  22  -1
M  END
>  <UniqueID>  (58) 
53

>  <SMILES>  (58) 
COc1cc2cc(Cc3ccccc3)c(=O)oc2c(C)c1[O-]

>  <Energy>  (58) 
43.36400894850861

>  <Genealogy>  (58) 
COc1cc2cc(Cc3ccccc3)c(=O)oc2c(C)c1[O-] (protonated)
COc1cc2cc(Cc3ccccc3)c(=O)oc2c(C)c1[O-] (3D coordinates assigned)
COc1cc2cc(Cc3ccccc3)c(=O)oc2c(C)c1[O-] (optimized conformer: 43.36400894850861 kcal/mol)

>  <smiles>  (58) 
COc1cc2cc(Cc3ccccc3)c(=O)oc2c(C)c1O

>  <score_type>  (58) 
oracle

>  <origin>  (58) 
adg

>  <m_score__min__energy>  (58) 
-9.8200000000000003

>  <m_primary>  (58) 
energy

$$$$
58:0
     RDKit          3D

 50 52  0  0  0  0  0  0  0  0999 V2000
   57.8920   30.8090   51.4880 C   0  0  0  0  0  0  0  0  0  0  0  0
   58.9210   31.8880   51.1720 C   0  0  0  0  0  0  0  0  0  0  0  0
   58.4740   32.7060   50.0920 O   0  0  0  0  0  0  0  0  0  0  0  0
   59.3200   33.1860   49.0870 C   0  0  0  0  0  0  0  0  0  0  0  0
   60.3360   33.8730   49.3850 O   0  0  0  0  0  0  0  0  0  0  0  0
   59.0120   32.9110   47.6620 C   0  0  0  0  0  0  0  0  0  0  0  0
   58.9450   33.9170   46.7590 C   0  0  0  0  0  0  0  0  0  0  0  0
   59.2330   35.3490   47.1210 C   0  0  0  0  0  0  0  0  0  0  0  0
   58.5660   33.6540   45.4020 N   0  0  0  0  0  0  0  0  0  0  0  0
   58.4140   32.4660   44.9010 C   0  0  0  0  0  0  0  0  0  0  0  0
   58.1300   32.3620   43.4290 C   0  0  0  0  0  0  0  0  0  0  0  0
   58.7400   31.2440   45.7370 C   0  0  2  0  0  0  0  0  0  0  0  0
   57.9100   30.0560   45.3220 C   0  0  0  0  0  0  0  0  0  0  0  0
   56.6690   30.1930   45.1420 O   0  0  0  0  0  0  0  0  0  0  0  0
   58.5270   28.8170   45.1120 O   0  0  0  0  0  0  0  0  0  0  0  0
   59.9340   28.6780   44.9590 C   0  0  0  0  0  0  0  0  0  0  0  0
   58.5410   31.5180   47.2550 C   0  0  1  0  0  0  0  0  0  0  0  0
   59.2460   30.4440   48.0650 C   0  0  0  0  0  0  0  0  0  0  0  0
   58.7280   29.2080   48.4070 C   0  0  0  0  0  0  0  0  0  0  0  0
   59.6960   28.4530   48.9580 N   0  0  0  0  0  0  0  0  0  0  0  0
   60.8200   29.1510   48.9750 N   0  0  0  0  0  0  0  0  0  0  0  0
   60.5810   30.3660   48.4430 C   0  0  0  0  0  0  0  0  0  0  0  0
   61.6380   31.3760   48.2480 C   0  0  0  0  0  0  0  0  0  0  0  0
   62.5200   31.7080   49.2900 C   0  0  0  0  0  0  0  0  0  0  0  0
   63.5270   32.6560   49.0860 C   0  0  0  0  0  0  0  0  0  0  0  0
   63.6690   33.2700   47.8390 C   0  0  0  0  0  0  0  0  0  0  0  0
   62.8110   32.9290   46.7910 C   0  0  0  0  0  0  0  0  0  0  0  0
   61.8040   31.9800   46.9920 C   0  0  0  0  0  0  0  0  0  0  0  0
   57.7928   30.7050   52.5786 H   0  0  0  0  0  0  0  0  0  0  0  0
   56.9203   31.0915   51.0567 H   0  0  0  0  0  0  0  0  0  0  0  0
   58.2202   29.8518   51.0567 H   0  0  0  0  0  0  0  0  0  0  0  0
   59.0721   32.5157   52.0626 H   0  0  0  0  0  0  0  0  0  0  0  0
   59.8657   31.4040   50.8834 H   0  0  0  0  0  0  0  0  0  0  0  0
   59.2540   35.4533   48.2158 H   0  0  0  0  0  0  0  0  0  0  0  0
   60.2083   35.6431   46.7059 H   0  0  0  0  0  0  0  0  0  0  0  0
   58.4473   35.9973   46.7059 H   0  0  0  0  0  0  0  0  0  0  0  0
   57.1068   31.9873   43.2786 H   0  0  0  0  0  0  0  0  0  0  0  0
   58.2288   33.3547   42.9655 H   0  0  0  0  0  0  0  0  0  0  0  0
   58.8465   31.6679   42.9655 H   0  0  0  0  0  0  0  0  0  0  0  0
   59.8009   31.0135   45.5598 H   0  0  0  0  0  0  0  0  0  0  0  0
   60.4078   28.6312   45.9506 H   0  0  0  0  0  0  0  0  0  0  0  0
   60.1530   27.7539   44.4040 H   0  0  0  0  0  0  0  0  0  0  0  0
   60.3296   29.5414   44.4040 H   0  0  0  0  0  0  0  0  0  0  0  0
   57.4620   31.4825   47.4657 H   0  0  0  0  0  0  0  0  0  0  0  0
   57.6860   28.8912   48.2525 H   0  0  0  0  0  0  0  0  0  0  0  0
   62.4178   31.2199   50.2705 H   0  0  0  0  0  0  0  0  0  0  0  0
   64.2085   32.9189   49.9084 H   0  0  0  0  0  0  0  0  0  0  0  0
   64.4565   34.0219   47.6826 H   0  0  0  0  0  0  0  0  0  0  0  0
   62.9275   33.4072   45.8072 H   0  0  0  0  0  0  0  0  0  0  0  0
   61.1379   31.7052   46.1608 H   0  0  0  0  0  0  0  0  0  0  0  0
  1  2  1  0
  2  3  1  0
  3  4  1  0
  4  5  2  0
  4  6  1  0
  6  7  2  0
  7  8  1  0
  7  9  1  0
  9 10  2  0
 10 11  1  0
 10 12  1  0
 12 13  1  0
 13 14  2  0
 13 15  1  0
 15 16  1  0
 12 17  1  0
 17 18  1  0
 18 19  2  0
 19 20  1  0
 20 21  1  0
 21 22  2  0
 22 23  1  0
 23 24  2  0
 24 25  1  0
 25 26  2  0
 26 27  1  0
 27 28  2  0
 17  6  1  0
 22 18  1  0
 28 23  1  0
  1 29  1  0
  1 30  1  0
  1 31  1  0
  2 32  1  0
  2 33  1  0
  8 34  1  0
  8 35  1  0
  8 36  1  0
 11 37  1  0
 11 38  1  0
 11 39  1  0
 12 40  1  1
 16 41  1  0
 16 42  1  0
 16 43  1  0
 17 44  1  6
 19 45  1  0
 24 46  1  0
 25 47  1  0
 26 48  1  0
 27 49  1  0
 28 50  1  0
M  CHG  1  20  -1
M  END
>  <UniqueID>  (59) 
54

>  <SMILES>  (59) 
CCOC(=O)C1=C(C)N=C(C)[C@H](C(=O)OC)[C@H]1c1c[n-]nc1-c1ccccc1

>  <Energy>  (59) 
84.3328489648337

>  <Genealogy>  (59) 
CCOC(=O)C1=C(C)N=C(C)C(C(=O)OC)C1c1c[n-]nc1-c1ccccc1 (protonated)
CCOC(=O)C1=C(C)N=C(C)[C@H](C(=O)OC)[C@H]1c1c[n-]nc1-c1ccccc1 (chirality)
CCOC(=O)C1=C(C)N=C(C)[C@H](C(=O)OC)[C@H]1c1c[n-]nc1-c1ccccc1 (3D coordinates assigned)
CCOC(=O)C1=C(C)N=C(C)[C@H](C(=O)OC)[C@H]1c1c[n-]nc1-c1ccccc1 (nonaromatic ring conformer: 84.3328489648337 kcal/mol)

>  <smiles>  (59) 
CCOC(=O)C1=C(C)N=C(C)C(C(=O)OC)C1c1c[nH]nc1-c1ccccc1

>  <score_type>  (59) 
oracle

>  <origin>  (59) 
adg

>  <m_score__min__energy>  (59) 
-8.0299999999999994

>  <m_primary>  (59) 
energy

$$$$
59:0
     RDKit          3D

 45 47  0  0  0  0  0  0  0  0999 V2000
   59.9380   35.3630   46.1110 C   0  0  0  0  0  0  0  0  0  0  0  0
   60.6960   34.2130   46.6890 C   0  0  0  0  0  0  0  0  0  0  0  0
   62.0410   34.1200   46.6990 N   0  0  0  0  0  0  0  0  0  0  0  0
   62.3820   32.9160   47.1360 N   0  0  0  0  0  0  0  0  0  0  0  0
   63.7520   32.4090   47.1360 C   0  0  0  0  0  0  0  0  0  0  0  0
   61.2630   32.2060   47.4000 C   0  0  0  0  0  0  0  0  0  0  0  0
   61.2270   30.7430   47.7200 C   0  0  0  0  0  0  0  0  0  0  0  0
   60.1730   33.0130   47.1330 C   0  0  0  0  0  0  0  0  0  0  0  0
   58.8150   32.5860   47.0230 N   0  0  0  0  0  0  0  0  0  0  0  0
   58.0480   32.4830   45.4750 S   0  0  0  0  0  0  0  0  0  0  0  0
   56.6450   33.0090   45.5840 O   0  0  0  0  0  0  0  0  0  0  0  0
   58.8010   33.3130   44.4740 O   0  0  0  0  0  0  0  0  0  0  0  0
   58.0060   30.7990   44.9610 C   0  0  0  0  0  0  0  0  0  0  0  0
   57.0650   30.3720   44.0140 C   0  0  0  0  0  0  0  0  0  0  0  0
   56.9880   29.0220   43.6590 C   0  0  0  0  0  0  0  0  0  0  0  0
   57.8440   28.0830   44.2570 C   0  0  0  0  0  0  0  0  0  0  0  0
   57.7810   26.6310   43.8600 C   0  0  0  0  0  0  0  0  0  0  0  0
   57.5150   25.7920   45.0390 N   0  0  0  0  0  0  0  0  0  0  0  0
   58.3350   24.7300   45.3030 C   0  0  0  0  0  0  0  0  0  0  0  0
   58.0920   23.9000   46.3950 C   0  0  0  0  0  0  0  0  0  0  0  0
   56.9920   24.1720   47.2040 C   0  0  0  0  0  0  0  0  0  0  0  0
   56.7420   23.4430   48.2000 O   0  0  0  0  0  0  0  0  0  0  0  0
   56.1880   25.2250   46.9170 N   0  0  0  0  0  0  0  0  0  0  0  0
   56.4320   26.0290   45.8500 C   0  0  0  0  0  0  0  0  0  0  0  0
   55.6530   26.9930   45.6200 O   0  0  0  0  0  0  0  0  0  0  0  0
   58.7890   28.5150   45.2000 C   0  0  0  0  0  0  0  0  0  0  0  0
   58.8660   29.8650   45.5520 C   0  0  0  0  0  0  0  0  0  0  0  0
   59.5311   35.9804   46.9254 H   0  0  0  0  0  0  0  0  0  0  0  0
   60.6123   35.9720   45.4910 H   0  0  0  0  0  0  0  0  0  0  0  0
   59.1125   34.9835   45.4910 H   0  0  0  0  0  0  0  0  0  0  0  0
   62.7110   34.8440   46.3570 H   0  0  0  0  0  0  0  0  0  0  0  0
   64.0959   32.2817   48.1731 H   0  0  0  0  0  0  0  0  0  0  0  0
   63.7842   31.4394   46.6175 H   0  0  0  0  0  0  0  0  0  0  0  0
   64.4076   33.1241   46.6175 H   0  0  0  0  0  0  0  0  0  0  0  0
   61.2236   30.6064   48.8115 H   0  0  0  0  0  0  0  0  0  0  0  0
   60.3176   30.2963   47.2918 H   0  0  0  0  0  0  0  0  0  0  0  0
   62.1133   30.2521   47.2918 H   0  0  0  0  0  0  0  0  0  0  0  0
   56.3852   31.1011   43.5489 H   0  0  0  0  0  0  0  0  0  0  0  0
   56.2540   28.6940   42.9083 H   0  0  0  0  0  0  0  0  0  0  0  0
   56.9750   26.4902   43.1247 H   0  0  0  0  0  0  0  0  0  0  0  0
   58.7459   26.3371   43.4212 H   0  0  0  0  0  0  0  0  0  0  0  0
   59.1947   24.5292   44.6468 H   0  0  0  0  0  0  0  0  0  0  0  0
   58.7541   23.0491   46.6132 H   0  0  0  0  0  0  0  0  0  0  0  0
   59.4719   27.7880   45.6639 H   0  0  0  0  0  0  0  0  0  0  0  0
   59.6052   30.1956   46.2965 H   0  0  0  0  0  0  0  0  0  0  0  0
  1  2  1  0
  2  3  2  0
  3  4  1  0
  4  5  1  0
  4  6  1  0
  6  7  1  0
  6  8  2  0
  8  9  1  0
  9 10  1  0
 10 11  2  0
 10 12  2  0
 10 13  1  0
 13 14  2  0
 14 15  1  0
 15 16  2  0
 16 17  1  0
 17 18  1  0
 18 19  1  0
 19 20  2  0
 20 21  1  0
 21 22  2  0
 21 23  1  0
 23 24  1  0
 24 25  2  0
 16 26  1  0
 26 27  2  0
  8  2  1  0
 27 13  1  0
 24 18  1  0
  1 28  1  0
  1 29  1  0
  1 30  1  0
  3 31  1  0
  5 32  1  0
  5 33  1  0
  5 34  1  0
  7 35  1  0
  7 36  1  0
  7 37  1  0
 14 38  1  0
 15 39  1  0
 17 40  1  0
 17 41  1  0
 19 42  1  0
 20 43  1  0
 26 44  1  0
 27 45  1  0
M  CHG  3   3   1   9  -1  23  -1
M  END
>  <UniqueID>  (60) 
55

>  <SMILES>  (60) 
Cc1[nH+]n(C)c(C)c1[N-]S(=O)(=O)c1ccc(Cn2ccc(=O)[n-]c2=O)cc1

>  <Energy>  (60) 
85.689297444463

>  <Genealogy>  (60) 
Cc1[nH+]n(C)c(C)c1[N-]S(=O)(=O)c1ccc(Cn2ccc(=O)[n-]c2=O)cc1 (protonated)
Cc1[nH+]n(C)c(C)c1[N-]S(=O)(=O)c1ccc(Cn2ccc(=O)[n-]c2=O)cc1 (3D coordinates assigned)
Cc1[nH+]n(C)c(C)c1[N-]S(=O)(=O)c1ccc(Cn2ccc(=O)[n-]c2=O)cc1 (optimized conformer: 85.689297444463 kcal/mol)

>  <smiles>  (60) 
Cc1nn(C)c(C)c1NS(=O)(=O)c1ccc(Cn2ccc(=O)[nH]c2=O)cc1

>  <score_type>  (60) 
oracle

>  <origin>  (60) 
adg

>  <m_score__min__energy>  (60) 
-10.17

>  <m_primary>  (60) 
energy

$$$$
60:0
     RDKit          3D

 59 62  0  0  0  0  0  0  0  0999 V2000
   56.6870   29.3780   43.0890 C   0  0  0  0  0  0  0  0  0  0  0  0
   56.2000   29.8130   44.4320 C   0  0  0  0  0  0  0  0  0  0  0  0
   55.1220   29.3410   44.8790 O   0  0  0  0  0  0  0  0  0  0  0  0
   56.9960   30.7220   45.2090 N   0  0  0  0  0  0  0  0  0  0  0  0
   57.4960   32.0490   44.8280 C   0  0  2  0  0  0  0  0  0  0  0  0
   57.7850   32.1700   43.3260 C   0  0  0  0  0  0  0  0  0  0  0  0
   58.6970   32.4590   45.6600 C   0  0  0  0  0  0  0  0  0  0  0  0
   58.9900   33.8230   45.8320 C   0  0  0  0  0  0  0  0  0  0  0  0
   60.1050   34.2240   46.5730 C   0  0  0  0  0  0  0  0  0  0  0  0
   60.9530   33.2750   47.1530 C   0  0  0  0  0  0  0  0  0  0  0  0
   62.0560   33.7350   47.8930 O   0  0  0  0  0  0  0  0  0  0  0  0
   62.3950   33.3120   49.2160 C   0  0  2  0  0  0  0  0  0  0  0  0
   62.6490   34.5090   50.1400 C   0  0  0  0  0  0  0  0  0  0  0  0
   63.8350   34.1220   51.0140 C   0  0  0  0  0  0  0  0  0  0  0  0
   64.4570   32.9870   50.3530 N   0  0  0  0  0  0  0  0  0  0  0  0
   65.6710   32.3500   50.7960 C   0  0  0  0  0  0  0  0  0  0  0  0
   66.7620   33.0950   51.2580 C   0  0  0  0  0  0  0  0  0  0  0  0
   67.8940   32.4170   51.7030 C   0  0  0  0  0  0  0  0  0  0  0  0
   67.9340   31.0590   51.6810 N   0  0  0  0  0  0  0  0  0  0  0  0
   66.8730   30.3320   51.2160 C   0  0  0  0  0  0  0  0  0  0  0  0
   66.8990   28.8840   51.1850 N   0  0  0  0  0  0  0  0  0  0  0  0
   65.8450   28.1120   51.8780 C   0  0  0  0  0  0  0  0  0  0  0  0
   65.9990   26.5900   51.7330 C   0  0  0  0  0  0  0  0  0  0  0  0
   66.5510   26.2360   50.4830 O   0  0  0  0  0  0  0  0  0  0  0  0
   67.8740   26.7180   50.4240 C   0  0  0  0  0  0  0  0  0  0  0  0
   67.8730   28.2370   50.2890 C   0  0  0  0  0  0  0  0  0  0  0  0
   65.7610   30.9930   50.7840 N   0  0  0  0  0  0  0  0  0  0  0  0
   63.7020   32.5240   49.2000 C   0  0  0  0  0  0  0  0  0  0  0  0
   60.6770   31.9070   46.9680 C   0  0  0  0  0  0  0  0  0  0  0  0
   59.5640   31.5060   46.2230 C   0  0  0  0  0  0  0  0  0  0  0  0
   57.5022   28.6499   43.2127 H   0  0  0  0  0  0  0  0  0  0  0  0
   55.8605   28.9120   42.5325 H   0  0  0  0  0  0  0  0  0  0  0  0
   57.0571   30.2517   42.5325 H   0  0  0  0  0  0  0  0  0  0  0  0
   56.6816   32.7556   45.0461 H   0  0  0  0  0  0  0  0  0  0  0  0
   58.7905   32.5910   43.1788 H   0  0  0  0  0  0  0  0  0  0  0  0
   57.7327   31.1744   42.8612 H   0  0  0  0  0  0  0  0  0  0  0  0
   57.0390   32.8313   42.8612 H   0  0  0  0  0  0  0  0  0  0  0  0
   58.3354   34.5821   45.3790 H   0  0  0  0  0  0  0  0  0  0  0  0
   60.3176   35.2956   46.7012 H   0  0  0  0  0  0  0  0  0  0  0  0
   61.5488   32.7080   49.5753 H   0  0  0  0  0  0  0  0  0  0  0  0
   62.8871   35.4049   49.5478 H   0  0  0  0  0  0  0  0  0  0  0  0
   61.7620   34.7445   50.7465 H   0  0  0  0  0  0  0  0  0  0  0  0
   64.5453   34.9586   51.0890 H   0  0  0  0  0  0  0  0  0  0  0  0
   63.5203   33.8729   52.0382 H   0  0  0  0  0  0  0  0  0  0  0  0
   66.7260   34.1944   51.2694 H   0  0  0  0  0  0  0  0  0  0  0  0
   68.7605   32.9839   52.0743 H   0  0  0  0  0  0  0  0  0  0  0  0
   68.8030   30.5980   52.0270 H   0  0  0  0  0  0  0  0  0  0  0  0
   65.8766   28.3640   52.9483 H   0  0  0  0  0  0  0  0  0  0  0  0
   64.8869   28.3845   51.4112 H   0  0  0  0  0  0  0  0  0  0  0  0
   66.6598   26.2213   52.5314 H   0  0  0  0  0  0  0  0  0  0  0  0
   64.9995   26.1365   51.8063 H   0  0  0  0  0  0  0  0  0  0  0  0
   68.4057   26.4349   51.3444 H   0  0  0  0  0  0  0  0  0  0  0  0
   68.3783   26.2793   49.5504 H   0  0  0  0  0  0  0  0  0  0  0  0
   68.8781   28.6130   50.5307 H   0  0  0  0  0  0  0  0  0  0  0  0
   67.5873   28.4797   49.2549 H   0  0  0  0  0  0  0  0  0  0  0  0
   64.2584   32.7236   48.2723 H   0  0  0  0  0  0  0  0  0  0  0  0
   63.5219   31.4397   49.2425 H   0  0  0  0  0  0  0  0  0  0  0  0
   61.3403   31.1499   47.4118 H   0  0  0  0  0  0  0  0  0  0  0  0
   59.3646   30.4343   46.0758 H   0  0  0  0  0  0  0  0  0  0  0  0
  1  2  1  0
  2  3  2  0
  2  4  1  0
  4  5  1  0
  5  6  1  0
  5  7  1  0
  7  8  2  0
  8  9  1  0
  9 10  2  0
 10 11  1  0
 11 12  1  0
 12 13  1  0
 13 14  1  0
 14 15  1  0
 15 16  1  0
 16 17  2  0
 17 18  1  0
 18 19  2  0
 19 20  1  0
 20 21  1  0
 21 22  1  0
 22 23  1  0
 23 24  1  0
 24 25  1  0
 25 26  1  0
 20 27  2  0
 15 28  1  0
 10 29  1  0
 29 30  2  0
 30  7  1  0
 28 12  1  0
 27 16  1  0
 26 21  1  0
  1 31  1  0
  1 32  1  0
  1 33  1  0
  5 34  1  1
  6 35  1  0
  6 36  1  0
  6 37  1  0
  8 38  1  0
  9 39  1  0
 12 40  1  1
 13 41  1  0
 13 42  1  0
 14 43  1  0
 14 44  1  0
 17 45  1  0
 18 46  1  0
 19 47  1  0
 22 48  1  0
 22 49  1  0
 23 50  1  0
 23 51  1  0
 25 52  1  0
 25 53  1  0
 26 54  1  0
 26 55  1  0
 28 56  1  0
 28 57  1  0
 29 58  1  0
 30 59  1  0
M  CHG  2   4  -1  19   1
M  END
>  <UniqueID>  (61) 
56

>  <SMILES>  (61) 
CC(=O)[N-][C@H](C)c1ccc(O[C@@H]2CCN(c3cc[nH+]c(N4CCOCC4)n3)C2)cc1

>  <Energy>  (61) 
66.30724589702817

>  <Genealogy>  (61) 
CC(=O)[N-]C(C)c1ccc(OC2CCN(c3cc[nH+]c(N4CCOCC4)n3)C2)cc1 (protonated)
CC(=O)[N-][C@H](C)c1ccc(O[C@@H]2CCN(c3cc[nH+]c(N4CCOCC4)n3)C2)cc1 (chirality)
CC(=O)[N-][C@H](C)c1ccc(O[C@@H]2CCN(c3cc[nH+]c(N4CCOCC4)n3)C2)cc1 (3D coordinates assigned)
CC(=O)[N-][C@H](C)c1ccc(O[C@@H]2CCN(c3cc[nH+]c(N4CCOCC4)n3)C2)cc1 (nonaromatic ring conformer: 66.30724589702817 kcal/mol)

>  <smiles>  (61) 
CC(=O)NC(C)c1ccc(OC2CCN(c3ccnc(N4CCOCC4)n3)C2)cc1

>  <score_type>  (61) 
oracle

>  <origin>  (61) 
adg

>  <m_score__min__energy>  (61) 
-9.7300000000000004

>  <m_primary>  (61) 
energy

$$$$
61:0
     RDKit          3D

 42 43  0  0  0  0  0  0  0  0999 V2000
   59.1890   25.3580   46.3150 C   0  0  0  0  0  0  0  0  0  0  0  0
   58.9790   26.4280   47.2800 N   0  0  0  0  0  0  0  0  0  0  0  0
   58.4230   27.7160   46.9800 C   0  0  0  0  0  0  0  0  0  0  0  0
   57.2710   27.7720   46.4740 O   0  0  0  0  0  0  0  0  0  0  0  0
   59.1690   28.9720   47.1990 C   0  0  0  0  0  0  0  0  0  0  0  0
   60.1130   29.3920   46.2520 C   0  0  0  0  0  0  0  0  0  0  0  0
   60.8370   30.5680   46.4530 C   0  0  0  0  0  0  0  0  0  0  0  0
   60.6260   31.3450   47.5960 C   0  0  0  0  0  0  0  0  0  0  0  0
   61.4520   32.4960   47.8010 N   0  0  0  0  0  0  0  0  0  0  0  0
   61.2950   33.6980   47.0420 C   0  0  0  0  0  0  0  0  0  0  0  0
   62.2830   34.1810   46.4320 O   0  0  0  0  0  0  0  0  0  0  0  0
   60.0390   34.3800   47.0180 N   0  0  0  0  0  0  0  0  0  0  0  0
   59.3350   34.6530   45.7730 C   0  0  0  0  0  0  0  0  0  0  0  0
   58.7120   33.3790   45.2730 C   0  0  0  0  0  0  0  0  0  0  0  0
   58.1840   32.4510   46.1840 C   0  0  0  0  0  0  0  0  0  0  0  0
   57.5100   31.3170   45.7230 C   0  0  0  0  0  0  0  0  0  0  0  0
   57.3360   31.1100   44.3480 C   0  0  0  0  0  0  0  0  0  0  0  0
   56.4510   29.7010   43.7730 S   0  0  0  0  0  0  0  0  0  0  0  0
   55.1540   29.3510   44.8580 N   0  0  0  0  0  0  0  0  0  0  0  0
   57.3740   28.5180   43.6970 O   0  0  0  0  0  0  0  0  0  0  0  0
   55.9000   29.9710   42.4010 O   0  0  0  0  0  0  0  0  0  0  0  0
   57.8660   32.0320   43.4370 C   0  0  0  0  0  0  0  0  0  0  0  0
   58.5450   33.1660   43.8960 C   0  0  0  0  0  0  0  0  0  0  0  0
   59.6240   30.9750   48.5190 C   0  0  0  0  0  0  0  0  0  0  0  0
   59.3220   31.8110   49.7340 C   0  0  0  0  0  0  0  0  0  0  0  0
   58.9110   29.7820   48.3160 C   0  0  0  0  0  0  0  0  0  0  0  0
   59.3742   24.4141   46.8486 H   0  0  0  0  0  0  0  0  0  0  0  0
   58.2944   25.2528   45.6837 H   0  0  0  0  0  0  0  0  0  0  0  0
   60.0570   25.5988   45.6837 H   0  0  0  0  0  0  0  0  0  0  0  0
   60.2840   28.7919   45.3461 H   0  0  0  0  0  0  0  0  0  0  0  0
   61.5795   30.8861   45.7063 H   0  0  0  0  0  0  0  0  0  0  0  0
   58.5498   35.4027   45.9501 H   0  0  0  0  0  0  0  0  0  0  0  0
   60.0414   35.0400   45.0239 H   0  0  0  0  0  0  0  0  0  0  0  0
   58.3012   32.6170   47.2651 H   0  0  0  0  0  0  0  0  0  0  0  0
   57.1147   30.5843   46.4419 H   0  0  0  0  0  0  0  0  0  0  0  0
   55.5100   28.6460   45.5420 H   0  0  0  0  0  0  0  0  0  0  0  0
   57.7481   31.8641   42.3563 H   0  0  0  0  0  0  0  0  0  0  0  0
   58.9490   33.8925   43.1756 H   0  0  0  0  0  0  0  0  0  0  0  0
   59.5328   31.2274   50.6423 H   0  0  0  0  0  0  0  0  0  0  0  0
   59.9510   32.7134   49.7238 H   0  0  0  0  0  0  0  0  0  0  0  0
   58.2615   32.1031   49.7238 H   0  0  0  0  0  0  0  0  0  0  0  0
   58.1413   29.4788   49.0410 H   0  0  0  0  0  0  0  0  0  0  0  0
  1  2  1  0
  2  3  1  0
  3  4  2  0
  3  5  1  0
  5  6  2  0
  6  7  1  0
  7  8  2  0
  8  9  1  0
  9 10  1  0
 10 11  2  0
 10 12  1  0
 12 13  1  0
 13 14  1  0
 14 15  2  0
 15 16  1  0
 16 17  2  0
 17 18  1  0
 18 19  1  0
 18 20  2  0
 18 21  2  0
 17 22  1  0
 22 23  2  0
  8 24  1  0
 24 25  1  0
 24 26  2  0
 26  5  1  0
 23 14  1  0
  1 27  1  0
  1 28  1  0
  1 29  1  0
  6 30  1  0
  7 31  1  0
 13 32  1  0
 13 33  1  0
 15 34  1  0
 16 35  1  0
 19 36  1  0
 22 37  1  0
 23 38  1  0
 25 39  1  0
 25 40  1  0
 25 41  1  0
 26 42  1  0
M  CHG  4   2  -1   9  -1  12  -1  19  -1
M  END
>  <UniqueID>  (62) 
57

>  <SMILES>  (62) 
C[N-]C(=O)c1ccc([N-]C(=O)[N-]Cc2ccc(S([NH-])(=O)=O)cc2)c(C)c1

>  <Energy>  (62) 
51.05355676337787

>  <Genealogy>  (62) 
C[N-]C(=O)c1ccc([N-]C(=O)[N-]Cc2ccc(S([NH-])(=O)=O)cc2)c(C)c1 (protonated)
C[N-]C(=O)c1ccc([N-]C(=O)[N-]Cc2ccc(S([NH-])(=O)=O)cc2)c(C)c1 (3D coordinates assigned)
C[N-]C(=O)c1ccc([N-]C(=O)[N-]Cc2ccc(S([NH-])(=O)=O)cc2)c(C)c1 (optimized conformer: 51.05355676337787 kcal/mol)

>  <smiles>  (62) 
CNC(=O)c1ccc(NC(=O)NCc2ccc(S(N)(=O)=O)cc2)c(C)c1

>  <score_type>  (62) 
oracle

>  <origin>  (62) 
adg

>  <m_score__min__energy>  (62) 
-12.880000000000001

>  <m_primary>  (62) 
energy

$$$$
62:0
     RDKit          3D

 41 43  0  0  0  0  0  0  0  0999 V2000
   59.5020   34.8440   47.5450 C   0  0  0  0  0  0  0  0  0  0  0  0
   58.7510   34.0000   46.5780 C   0  0  0  0  0  0  0  0  0  0  0  0
   58.3670   34.5870   45.3990 C   0  0  0  0  0  0  0  0  0  0  0  0
   57.6710   33.8700   44.4530 C   0  0  0  0  0  0  0  0  0  0  0  0
   57.3830   32.5610   44.7410 C   0  0  0  0  0  0  0  0  0  0  0  0
   57.7690   31.9480   45.9460 C   0  0  0  0  0  0  0  0  0  0  0  0
   57.3920   30.6280   46.0630 O   0  0  0  0  0  0  0  0  0  0  0  0
   57.5110   29.6210   45.1640 C   0  0  0  0  0  0  0  0  0  0  0  0
   57.9310   28.3750   45.6550 C   0  0  0  0  0  0  0  0  0  0  0  0
   58.0720   27.3060   44.7850 C   0  0  0  0  0  0  0  0  0  0  0  0
   58.5130   25.9640   45.2510 C   0  0  0  0  0  0  0  0  0  0  0  0
   57.8010   27.4660   43.4410 C   0  0  0  0  0  0  0  0  0  0  0  0
   57.9150   26.5210   42.6050 O   0  0  0  0  0  0  0  0  0  0  0  0
   57.4010   28.6730   43.0040 N   0  0  0  0  0  0  0  0  0  0  0  0
   57.2760   29.6660   43.8470 N   0  0  0  0  0  0  0  0  0  0  0  0
   58.4650   32.6610   46.8860 C   0  0  0  0  0  0  0  0  0  0  0  0
   59.0900   32.0570   48.3680 S   0  0  0  0  0  0  0  0  0  0  0  0
   58.4890   32.7760   49.5610 O   0  0  0  0  0  0  0  0  0  0  0  0
   58.7780   30.6080   48.5220 O   0  0  0  0  0  0  0  0  0  0  0  0
   60.8510   32.1640   48.4280 C   0  0  0  0  0  0  0  0  0  0  0  0
   61.4360   32.9910   49.3600 C   0  0  0  0  0  0  0  0  0  0  0  0
   62.8310   33.0820   49.4140 C   0  0  0  0  0  0  0  0  0  0  0  0
   63.6110   34.1380   50.6030 Cl  0  0  0  0  0  0  0  0  0  0  0  0
   63.6350   32.3570   48.5500 C   0  0  0  0  0  0  0  0  0  0  0  0
   63.0180   31.5260   47.6150 C   0  0  0  0  0  0  0  0  0  0  0  0
   61.6350   31.4290   47.5520 C   0  0  0  0  0  0  0  0  0  0  0  0
   60.8680   30.3760   46.3660 Cl  0  0  0  0  0  0  0  0  0  0  0  0
   59.2389   34.5483   48.5713 H   0  0  0  0  0  0  0  0  0  0  0  0
   60.5823   34.7070   47.3895 H   0  0  0  0  0  0  0  0  0  0  0  0
   59.2403   35.9011   47.3895 H   0  0  0  0  0  0  0  0  0  0  0  0
   58.6179   35.6409   45.2081 H   0  0  0  0  0  0  0  0  0  0  0  0
   57.3582   34.3289   43.5035 H   0  0  0  0  0  0  0  0  0  0  0  0
   56.8280   31.9668   44.0001 H   0  0  0  0  0  0  0  0  0  0  0  0
   58.1473   28.2478   46.7260 H   0  0  0  0  0  0  0  0  0  0  0  0
   58.5203   25.9419   46.3508 H   0  0  0  0  0  0  0  0  0  0  0  0
   57.8192   25.1985   44.8734 H   0  0  0  0  0  0  0  0  0  0  0  0
   59.5257   25.7593   44.8734 H   0  0  0  0  0  0  0  0  0  0  0  0
   57.1760   28.8710   41.9940 H   0  0  0  0  0  0  0  0  0  0  0  0
   60.8135   33.5739   50.0547 H   0  0  0  0  0  0  0  0  0  0  0  0
   64.7311   32.4345   48.5999 H   0  0  0  0  0  0  0  0  0  0  0  0
   63.6356   30.9399   46.9185 H   0  0  0  0  0  0  0  0  0  0  0  0
  1  2  1  0
  2  3  2  0
  3  4  1  0
  4  5  2  0
  5  6  1  0
  6  7  1  0
  7  8  1  0
  8  9  1  0
  9 10  2  0
 10 11  1  0
 10 12  1  0
 12 13  2  0
 12 14  1  0
 14 15  1  0
  6 16  2  0
 16 17  1  0
 17 18  2  0
 17 19  2  0
 17 20  1  0
 20 21  2  0
 21 22  1  0
 22 23  1  0
 22 24  2  0
 24 25  1  0
 25 26  2  0
 26 27  1  0
 16  2  1  0
 26 20  1  0
 15  8  2  0
  1 28  1  0
  1 29  1  0
  1 30  1  0
  3 31  1  0
  4 32  1  0
  5 33  1  0
  9 34  1  0
 11 35  1  0
 11 36  1  0
 11 37  1  0
 14 38  1  0
 21 39  1  0
 24 40  1  0
 25 41  1  0
M  END
>  <smiles>  (63) 
Cc1cccc(Oc2cc(C)c(=O)[nH]n2)c1S(=O)(=O)c1cc(Cl)ccc1Cl

>  <score_type>  (63) 
oracle

>  <origin>  (63) 
adg

>  <m_score__min__energy>  (63) 
-9.2599999999999998

>  <m_primary>  (63) 
energy

$$$$
63:0
     RDKit          3D

 59 63  0  0  0  0  0  0  0  0999 V2000
   63.0640   30.9970   51.0390 C   0  0  0  0  0  0  0  0  0  0  0  0
   62.4330   32.3560   50.7670 C   0  0  0  0  0  0  0  0  0  0  0  0
   62.1110   32.4930   49.3450 N   0  0  0  0  0  0  0  0  0  0  0  0
   61.4010   33.6200   48.7940 C   0  0  0  0  0  0  0  0  0  0  0  0
   61.0280   34.5940   49.5030 O   0  0  0  0  0  0  0  0  0  0  0  0
   61.1480   33.5160   47.3030 C   0  0  1  0  0  0  0  0  0  0  0  0
   62.5630   33.3860   46.6560 C   0  0  0  0  0  0  0  0  0  0  0  0
   63.3390   32.1710   47.2700 C   0  0  0  0  0  0  0  0  0  0  0  0
   62.4540   31.4720   48.3350 C   0  0  2  0  0  0  0  0  0  0  0  0
   61.1580   31.0940   47.6260 C   0  0  0  0  0  0  0  0  0  0  0  0
   60.7430   29.6810   47.5610 C   0  0  0  0  0  0  0  0  0  0  0  0
   60.9650   28.9160   48.5390 O   0  0  0  0  0  0  0  0  0  0  0  0
   60.0540   29.1960   46.3980 N   0  0  0  0  0  0  0  0  0  0  0  0
   59.3630   27.9380   46.3380 C   0  0  0  0  0  0  0  0  0  0  0  0
   60.1020   26.7440   46.3500 C   0  0  0  0  0  0  0  0  0  0  0  0
   59.4520   25.5080   46.2730 C   0  0  0  0  0  0  0  0  0  0  0  0
   58.0600   25.4550   46.1650 C   0  0  0  0  0  0  0  0  0  0  0  0
   57.3160   26.6380   46.1270 C   0  0  0  0  0  0  0  0  0  0  0  0
   57.9630   27.8750   46.2090 C   0  0  0  0  0  0  0  0  0  0  0  0
   60.4590   32.1560   47.1190 C   0  0  0  0  0  0  0  0  0  0  0  0
   59.0620   32.1030   46.6100 C   0  0  0  0  0  0  0  0  0  0  0  0
   58.4990   31.0000   46.3770 O   0  0  0  0  0  0  0  0  0  0  0  0
   58.3390   33.3320   46.4010 N   0  0  0  0  0  0  0  0  0  0  0  0
   57.0280   33.3360   45.7390 C   0  0  0  0  0  0  0  0  0  0  0  0
   57.0550   32.4470   44.5250 C   0  0  0  0  0  0  0  0  0  0  0  0
   56.3130   31.2530   44.4990 C   0  0  0  0  0  0  0  0  0  0  0  0
   56.3130   30.4480   43.3560 C   0  0  0  0  0  0  0  0  0  0  0  0
   57.0470   30.8300   42.2290 C   0  0  0  0  0  0  0  0  0  0  0  0
   57.7810   32.0200   42.2440 C   0  0  0  0  0  0  0  0  0  0  0  0
   57.7830   32.8280   43.3840 C   0  0  0  0  0  0  0  0  0  0  0  0
   58.8600   34.5710   46.9890 C   0  0  0  0  0  0  0  0  0  0  0  0
   60.3550   34.7000   46.7020 C   0  0  0  0  0  0  0  0  0  0  0  0
   63.1379   30.8378   52.1249 H   0  0  0  0  0  0  0  0  0  0  0  0
   62.4403   30.2075   50.5943 H   0  0  0  0  0  0  0  0  0  0  0  0
   64.0696   30.9640   50.5943 H   0  0  0  0  0  0  0  0  0  0  0  0
   61.5106   32.4525   51.3586 H   0  0  0  0  0  0  0  0  0  0  0  0
   63.1467   33.1441   51.0492 H   0  0  0  0  0  0  0  0  0  0  0  0
   62.4527   33.2344   45.5721 H   0  0  0  0  0  0  0  0  0  0  0  0
   63.1305   34.3071   46.8548 H   0  0  0  0  0  0  0  0  0  0  0  0
   63.5870   31.4546   46.4729 H   0  0  0  0  0  0  0  0  0  0  0  0
   64.2645   32.5306   47.7435 H   0  0  0  0  0  0  0  0  0  0  0  0
   62.9515   30.6026   48.7896 H   0  0  0  0  0  0  0  0  0  0  0  0
   60.1490   29.7480   45.5150 H   0  0  0  0  0  0  0  0  0  0  0  0
   61.1991   26.7810   46.4204 H   0  0  0  0  0  0  0  0  0  0  0  0
   60.0372   24.5769   46.2975 H   0  0  0  0  0  0  0  0  0  0  0  0
   57.5494   24.4823   46.1099 H   0  0  0  0  0  0  0  0  0  0  0  0
   56.2209   26.5957   46.0325 H   0  0  0  0  0  0  0  0  0  0  0  0
   57.3746   28.8037   46.1725 H   0  0  0  0  0  0  0  0  0  0  0  0
   56.2654   32.9685   46.4414 H   0  0  0  0  0  0  0  0  0  0  0  0
   56.7875   34.3628   45.4262 H   0  0  0  0  0  0  0  0  0  0  0  0
   55.7301   30.9510   45.3816 H   0  0  0  0  0  0  0  0  0  0  0  0
   55.7345   29.5125   43.3433 H   0  0  0  0  0  0  0  0  0  0  0  0
   57.0470   30.1947   41.3310 H   0  0  0  0  0  0  0  0  0  0  0  0
   58.3578   32.3206   41.3569 H   0  0  0  0  0  0  0  0  0  0  0  0
   58.3568   33.7665   43.3888 H   0  0  0  0  0  0  0  0  0  0  0  0
   58.3304   35.4312   46.5536 H   0  0  0  0  0  0  0  0  0  0  0  0
   58.7031   34.5468   48.0775 H   0  0  0  0  0  0  0  0  0  0  0  0
   60.5103   34.7191   45.6132 H   0  0  0  0  0  0  0  0  0  0  0  0
   60.7177   35.6302   47.1638 H   0  0  0  0  0  0  0  0  0  0  0  0
  1  2  1  0
  2  3  1  0
  3  4  1  0
  4  5  2  0
  4  6  1  0
  6  7  1  6
  7  8  1  0
  8  9  1  0
  9 10  1  0
 10 11  1  0
 11 12  2  0
 11 13  1  0
 13 14  1  0
 14 15  2  0
 15 16  1  0
 16 17  2  0
 17 18  1  0
 18 19  2  0
 10 20  2  0
 20 21  1  0
 21 22  2  0
 21 23  1  0
 23 24  1  0
 24 25  1  0
 25 26  2  0
 26 27  1  0
 27 28  2  0
 28 29  1  0
 29 30  2  0
 23 31  1  0
 31 32  1  0
  9  3  1  0
 19 14  1  0
 30 25  1  0
 20  6  1  0
  6 32  1  0
  1 33  1  0
  1 34  1  0
  1 35  1  0
  2 36  1  0
  2 37  1  0
  7 38  1  0
  7 39  1  0
  8 40  1  0
  8 41  1  0
  9 42  1  1
 13 43  1  0
 15 44  1  0
 16 45  1  0
 17 46  1  0
 18 47  1  0
 19 48  1  0
 24 49  1  0
 24 50  1  0
 26 51  1  0
 27 52  1  0
 28 53  1  0
 29 54  1  0
 30 55  1  0
 31 56  1  0
 31 57  1  0
 32 58  1  0
 32 59  1  0
M  END
>  <UniqueID>  (64) 
58

>  <SMILES>  (64) 
CCN1C(=O)[C@@]23CC[C@@H]1C(C(=O)Nc1ccccc1)=C2C(=O)N(Cc1ccccc1)CC3

>  <Energy>  (64) 
93.95455352552204

>  <Genealogy>  (64) 
CCN1C(=O)[C@@]23CC[C@@H]1C(C(=O)Nc1ccccc1)=C2C(=O)N(Cc1ccccc1)CC3 (chirality)
CCN1C(=O)[C@@]23CC[C@@H]1C(C(=O)Nc1ccccc1)=C2C(=O)N(Cc1ccccc1)CC3 (3D coordinates assigned)
CCN1C(=O)[C@@]23CC[C@@H]1C(C(=O)Nc1ccccc1)=C2C(=O)N(Cc1ccccc1)CC3 (nonaromatic ring conformer: 93.95455352552204 kcal/mol)

>  <smiles>  (64) 
CCN1C(=O)C23CCC1C(C(=O)Nc1ccccc1)=C2C(=O)N(Cc1ccccc1)CC3

>  <score_type>  (64) 
oracle

>  <origin>  (64) 
adg

>  <m_score__min__energy>  (64) 
-8.9600000000000009

>  <m_primary>  (64) 
energy

$$$$
64:0
     RDKit          3D

 22 23  0  0  0  0  0  0  0  0999 V2000
   56.8260   25.8190   55.1740 H   0  0  0  0  0  0  0  0  0  0  0  0
   56.6750   26.1010   54.1800 N   0  0  0  0  0  0  0  0  0  0  0  0
   55.9810   27.1480   53.8770 C   0  0  0  0  0  0  0  0  0  0  0  0
   54.2900   27.3640   54.4380 S   0  0  0  0  0  0  0  0  0  0  0  0
   54.3180   29.0010   53.6920 C   0  0  0  0  0  0  0  0  0  0  0  0
   53.2670   29.8280   53.8040 C   0  0  0  0  0  0  0  0  0  0  0  0
   52.9126   30.0653   54.8179 H   0  0  0  0  0  0  0  0  0  0  0  0
   52.5510   30.4430   52.6700 C   0  0  0  0  0  0  0  0  0  0  0  0
   52.6420   29.9000   51.3760 C   0  0  0  0  0  0  0  0  0  0  0  0
   53.2208   28.9800   51.2068 H   0  0  0  0  0  0  0  0  0  0  0  0
   51.9990   30.5260   50.3040 C   0  0  0  0  0  0  0  0  0  0  0  0
   52.0572   30.0870   49.2971 H   0  0  0  0  0  0  0  0  0  0  0  0
   51.2820   31.7090   50.5090 C   0  0  0  0  0  0  0  0  0  0  0  0
   50.6440   32.3260   49.4390 O   0  0  0  0  0  0  0  0  0  0  0  0
   51.2130   32.2710   51.7890 C   0  0  0  0  0  0  0  0  0  0  0  0
   50.5110   33.4530   51.9970 O   0  0  0  0  0  0  0  0  0  0  0  0
   51.8560   31.6450   52.8630 C   0  0  0  0  0  0  0  0  0  0  0  0
   51.8158   32.0988   53.8642 H   0  0  0  0  0  0  0  0  0  0  0  0
   55.5670   29.2490   52.9590 C   0  0  0  0  0  0  0  0  0  0  0  0
   55.7820   30.2500   52.2280 O   0  0  0  0  0  0  0  0  0  0  0  0
   56.5140   28.2050   53.0900 N   0  0  0  0  0  0  0  0  0  0  0  0
   57.4650   28.2100   52.6580 H   0  0  0  0  0  0  0  0  0  0  0  0
  1  2  1  0
  2  3  2  3
  3  4  1  0
  4  5  1  0
  5  6  2  0
  6  7  1  0
  6  8  1  0
  8  9  2  0
  9 10  1  0
  9 11  1  0
 11 12  1  0
 11 13  2  0
 13 14  1  0
 13 15  1  0
 15 16  1  0
 15 17  2  0
 17 18  1  0
  5 19  1  0
 19 20  2  0
 19 21  1  0
 21 22  1  0
 21  3  1  0
 17  8  1  0
M  CHG  2  14  -1  16  -1
M  END
>  <UniqueID>  (65) 
59

>  <SMILES>  (65) 
N=C1NC(=O)/C(=C\c2ccc([O-])c([O-])c2)S1

>  <Energy>  (65) 
48.704371938019165

>  <Genealogy>  (65) 
N=C1NC(=O)C(=Cc2ccc([O-])c([O-])c2)S1 (protonated)
N=C1NC(=O)/C(=C\c2ccc([O-])c([O-])c2)S1 (cis-trans isomerization)
N=C1NC(=O)/C(=C\c2ccc([O-])c([O-])c2)S1 (3D coordinates assigned)
N=C1NC(=O)/C(=C\c2ccc([O-])c([O-])c2)S1 (nonaromatic ring conformer: 48.704371938019165 kcal/mol)

>  <smiles>  (65) 
N=C1NC(=O)C(=Cc2ccc(O)c(O)c2)S1

>  <score_type>  (65) 
oracle

>  <origin>  (65) 
adg

>  <m_score__min__energy>  (65) 
-14.09

>  <m_primary>  (65) 
energy

$$$$
65:0
     RDKit          3D

 45 47  0  0  0  0  0  0  0  0999 V2000
   56.9410   27.4420   45.6640 C   0  0  0  0  0  0  0  0  0  0  0  0
   57.4450   28.5070   44.7950 N   0  0  0  0  0  0  0  0  0  0  0  0
   58.8820   28.5790   44.4970 C   0  0  0  0  0  0  0  0  0  0  0  0
   59.6220   29.0730   45.6950 C   0  0  0  0  0  0  0  0  0  0  0  0
   60.3900   30.1850   45.7020 N   0  0  0  0  0  0  0  0  0  0  0  0
   60.8650   30.1710   46.9670 C   0  0  0  0  0  0  0  0  0  0  0  0
   61.7430   31.2400   47.5370 C   0  0  0  0  0  0  0  0  0  0  0  0
   61.0230   32.5610   47.5190 C   0  0  0  0  0  0  0  0  0  0  0  0
   60.2910   32.9850   48.6420 C   0  0  0  0  0  0  0  0  0  0  0  0
   59.5980   34.2000   48.6120 C   0  0  0  0  0  0  0  0  0  0  0  0
   59.6220   34.9940   47.4610 C   0  0  0  0  0  0  0  0  0  0  0  0
   60.3360   34.5720   46.3350 C   0  0  0  0  0  0  0  0  0  0  0  0
   61.0310   33.3570   46.3600 C   0  0  0  0  0  0  0  0  0  0  0  0
   60.3980   29.1230   47.6680 N   0  0  0  0  0  0  0  0  0  0  0  0
   59.6380   28.4590   46.8560 O   0  0  0  0  0  0  0  0  0  0  0  0
   56.5750   29.6110   44.4760 C   0  0  0  0  0  0  0  0  0  0  0  0
   55.3770   29.5870   44.8650 O   0  0  0  0  0  0  0  0  0  0  0  0
   57.0560   30.7550   43.6720 C   0  0  0  0  0  0  0  0  0  0  0  0
   56.9830   30.8480   42.2960 C   0  0  0  0  0  0  0  0  0  0  0  0
   57.5280   32.0830   42.0000 C   0  0  0  0  0  0  0  0  0  0  0  0
   57.8980   32.6990   43.1390 N   0  0  0  0  0  0  0  0  0  0  0  0
   57.6000   31.8990   44.1520 N   0  0  0  0  0  0  0  0  0  0  0  0
   57.9180   32.2320   45.5420 C   0  0  0  0  0  0  0  0  0  0  0  0
   57.0560   33.3940   46.0430 C   0  0  0  0  0  0  0  0  0  0  0  0
   57.0260   34.4300   45.0980 O   0  0  0  0  0  0  0  0  0  0  0  0
   57.0781   27.7317   46.7163 H   0  0  0  0  0  0  0  0  0  0  0  0
   55.8713   27.2812   45.4643 H   0  0  0  0  0  0  0  0  0  0  0  0
   57.4949   26.5129   45.4643 H   0  0  0  0  0  0  0  0  0  0  0  0
   59.2498   27.5779   44.2276 H   0  0  0  0  0  0  0  0  0  0  0  0
   59.0449   29.2716   43.6581 H   0  0  0  0  0  0  0  0  0  0  0  0
   62.0049   30.9820   48.5737 H   0  0  0  0  0  0  0  0  0  0  0  0
   62.6569   31.3185   46.9299 H   0  0  0  0  0  0  0  0  0  0  0  0
   60.2631   32.3598   49.5466 H   0  0  0  0  0  0  0  0  0  0  0  0
   59.0330   34.5315   49.4957 H   0  0  0  0  0  0  0  0  0  0  0  0
   59.0792   35.9506   47.4413 H   0  0  0  0  0  0  0  0  0  0  0  0
   60.3515   35.1953   45.4288 H   0  0  0  0  0  0  0  0  0  0  0  0
   61.5851   33.0240   45.4700 H   0  0  0  0  0  0  0  0  0  0  0  0
   60.5930   28.8750   48.6650 H   0  0  0  0  0  0  0  0  0  0  0  0
   56.5806   30.1045   41.5922 H   0  0  0  0  0  0  0  0  0  0  0  0
   57.6422   32.4994   40.9883 H   0  0  0  0  0  0  0  0  0  0  0  0
   57.7341   31.3503   46.1735 H   0  0  0  0  0  0  0  0  0  0  0  0
   58.9746   32.5332   45.5955 H   0  0  0  0  0  0  0  0  0  0  0  0
   56.0312   33.0346   46.2180 H   0  0  0  0  0  0  0  0  0  0  0  0
   57.4891   33.7793   46.9778 H   0  0  0  0  0  0  0  0  0  0  0  0
   57.0370   34.0010   44.2020 H   0  0  0  0  0  0  0  0  0  0  0  0
  1  2  1  0
  2  3  1  0
  3  4  1  0
  4  5  2  0
  5  6  1  0
  6  7  1  0
  7  8  1  0
  8  9  2  0
  9 10  1  0
 10 11  2  0
 11 12  1  0
 12 13  2  0
  6 14  2  0
 14 15  1  0
  2 16  1  0
 16 17  2  0
 16 18  1  0
 18 19  2  0
 19 20  1  0
 20 21  2  0
 21 22  1  0
 22 23  1  0
 23 24  1  0
 24 25  1  0
 15  4  1  0
 22 18  1  0
 13  8  1  0
  1 26  1  0
  1 27  1  0
  1 28  1  0
  3 29  1  0
  3 30  1  0
  7 31  1  0
  7 32  1  0
  9 33  1  0
 10 34  1  0
 11 35  1  0
 12 36  1  0
 13 37  1  0
 14 38  1  0
 19 39  1  0
 20 40  1  0
 23 41  1  0
 23 42  1  0
 24 43  1  0
 24 44  1  0
 25 45  1  0
M  CHG  1  14   1
M  END
>  <UniqueID>  (66) 
60

>  <SMILES>  (66) 
CN(Cc1nc(Cc2ccccc2)[nH+]o1)C(=O)c1ccnn1CCO

>  <Energy>  (66) 
106.8146010861389

>  <Genealogy>  (66) 
CN(Cc1nc(Cc2ccccc2)[nH+]o1)C(=O)c1ccnn1CCO (protonated)
CN(Cc1nc(Cc2ccccc2)[nH+]o1)C(=O)c1ccnn1CCO (3D coordinates assigned)
CN(Cc1nc(Cc2ccccc2)[nH+]o1)C(=O)c1ccnn1CCO (optimized conformer: 106.8146010861389 kcal/mol)

>  <smiles>  (66) 
CN(Cc1nc(Cc2ccccc2)no1)C(=O)c1ccnn1CCO

>  <score_type>  (66) 
oracle

>  <origin>  (66) 
adg

>  <m_score__min__energy>  (66) 
-8.0199999999999996

>  <m_primary>  (66) 
energy

$$$$
66:0
     RDKit          3D

 35 37  0  0  0  0  0  0  0  0999 V2000
   56.9620   30.1000   43.7600 C   0  0  0  0  0  0  0  0  0  0  0  0
   57.0520   30.5310   45.1140 O   0  0  0  0  0  0  0  0  0  0  0  0
   57.7320   31.6840   45.5390 C   0  0  0  0  0  0  0  0  0  0  0  0
   57.1090   32.9480   45.5640 C   0  0  0  0  0  0  0  0  0  0  0  0
   57.8140   34.0760   45.9910 C   0  0  0  0  0  0  0  0  0  0  0  0
   59.1430   33.9570   46.3990 C   0  0  0  0  0  0  0  0  0  0  0  0
   59.7720   32.7110   46.3810 C   0  0  0  0  0  0  0  0  0  0  0  0
   59.0750   31.5710   45.9530 C   0  0  0  0  0  0  0  0  0  0  0  0
   59.8780   29.9990   45.9330 S   0  0  0  0  0  0  0  0  0  0  0  0
   59.8650   29.4610   44.5290 O   0  0  0  0  0  0  0  0  0  0  0  0
   61.2940   30.1680   46.4110 O   0  0  0  0  0  0  0  0  0  0  0  0
   59.0500   28.8900   46.9790 N   0  0  0  0  0  0  0  0  0  0  0  0
   58.4320   27.6650   46.5640 C   0  0  0  0  0  0  0  0  0  0  0  0
   59.2540   26.5810   46.2290 C   0  0  0  0  0  0  0  0  0  0  0  0
   58.6980   25.3650   45.8190 C   0  0  0  0  0  0  0  0  0  0  0  0
   57.3060   25.2210   45.7390 C   0  0  0  0  0  0  0  0  0  0  0  0
   56.7420   24.0440   45.3410 N   0  0  0  0  0  0  0  0  0  0  0  0
   55.3890   23.9080   45.2640 C   0  0  0  0  0  0  0  0  0  0  0  0
   54.8850   22.8130   44.8950 O   0  0  0  0  0  0  0  0  0  0  0  0
   54.5640   24.9920   45.5980 C   0  0  0  0  0  0  0  0  0  0  0  0
   53.3100   24.8900   45.5340 O   0  0  0  0  0  0  0  0  0  0  0  0
   55.1250   26.1640   45.9940 N   0  0  0  0  0  0  0  0  0  0  0  0
   56.4740   26.3090   46.0730 C   0  0  0  0  0  0  0  0  0  0  0  0
   57.0330   27.5240   46.4840 C   0  0  0  0  0  0  0  0  0  0  0  0
   56.7372   29.0236   43.7320 H   0  0  0  0  0  0  0  0  0  0  0  0
   56.1604   30.6553   43.2509 H   0  0  0  0  0  0  0  0  0  0  0  0
   57.9188   30.2881   43.2509 H   0  0  0  0  0  0  0  0  0  0  0  0
   56.0609   33.0470   45.2452 H   0  0  0  0  0  0  0  0  0  0  0  0
   57.3208   35.0591   46.0056 H   0  0  0  0  0  0  0  0  0  0  0  0
   59.6959   34.8465   46.7354 H   0  0  0  0  0  0  0  0  0  0  0  0
   60.8197   32.6224   46.7041 H   0  0  0  0  0  0  0  0  0  0  0  0
   60.3472   26.6874   46.2890 H   0  0  0  0  0  0  0  0  0  0  0  0
   59.3536   24.5208   45.5591 H   0  0  0  0  0  0  0  0  0  0  0  0
   57.3500   23.2310   45.0900 H   0  0  0  0  0  0  0  0  0  0  0  0
   56.3795   28.3695   46.7448 H   0  0  0  0  0  0  0  0  0  0  0  0
  1  2  1  0
  2  3  1  0
  3  4  2  0
  4  5  1  0
  5  6  2  0
  6  7  1  0
  7  8  2  0
  8  9  1  0
  9 10  2  0
  9 11  2  0
  9 12  1  0
 12 13  1  0
 13 14  2  0
 14 15  1  0
 15 16  2  0
 16 17  1  0
 17 18  1  0
 18 19  2  0
 18 20  1  0
 20 21  2  0
 20 22  1  0
 22 23  1  0
 23 24  2  0
  8  3  1  0
 24 13  1  0
 23 16  1  0
  1 25  1  0
  1 26  1  0
  1 27  1  0
  4 28  1  0
  5 29  1  0
  6 30  1  0
  7 31  1  0
 14 32  1  0
 15 33  1  0
 17 34  1  0
 24 35  1  0
M  CHG  2  12  -1  22  -1
M  END
>  <UniqueID>  (67) 
61

>  <SMILES>  (67) 
COc1ccccc1S(=O)(=O)[N-]c1ccc2[nH]c(=O)c(=O)[n-]c2c1

>  <Energy>  (67) 
46.68727460513239

>  <Genealogy>  (67) 
COc1ccccc1S(=O)(=O)[N-]c1ccc2[nH]c(=O)c(=O)[n-]c2c1 (protonated)
COc1ccccc1S(=O)(=O)[N-]c1ccc2[nH]c(=O)c(=O)[n-]c2c1 (3D coordinates assigned)
COc1ccccc1S(=O)(=O)[N-]c1ccc2[nH]c(=O)c(=O)[n-]c2c1 (optimized conformer: 46.68727460513239 kcal/mol)

>  <smiles>  (67) 
COc1ccccc1S(=O)(=O)Nc1ccc2[nH]c(=O)c(=O)[nH]c2c1

>  <score_type>  (67) 
oracle

>  <origin>  (67) 
adg

>  <m_score__min__energy>  (67) 
-10.81

>  <m_primary>  (67) 
energy

$$$$
67:0
     RDKit          3D

 42 45  0  0  0  0  0  0  0  0999 V2000
   55.8930   28.2470   45.2420 O   0  0  0  0  0  0  0  0  0  0  0  0
   57.0690   28.0130   45.6330 C   0  0  0  0  0  0  0  0  0  0  0  0
   57.5270   26.6580   45.7760 N   0  0  0  0  0  0  0  0  0  0  0  0
   56.8760   25.5260   45.1740 C   0  0  0  0  0  0  0  0  0  0  0  0
   57.4010   24.9000   44.0280 C   0  0  0  0  0  0  0  0  0  0  0  0
   56.7610   23.7860   43.4770 C   0  0  0  0  0  0  0  0  0  0  0  0
   55.6030   23.2780   44.0690 C   0  0  0  0  0  0  0  0  0  0  0  0
   55.0870   23.8750   45.2250 C   0  0  0  0  0  0  0  0  0  0  0  0
   53.6030   23.2190   45.9900 S   0  0  0  0  0  0  0  0  0  0  0  0
   52.4710   24.0650   44.8400 C   0  0  0  0  0  0  0  0  0  0  0  0
   51.1610   23.7790   45.1740 F   0  0  0  0  0  0  0  0  0  0  0  0
   52.7170   23.6220   43.5560 F   0  0  0  0  0  0  0  0  0  0  0  0
   55.7240   24.9940   45.7750 C   0  0  0  0  0  0  0  0  0  0  0  0
   57.9410   29.1460   45.9810 C   0  0  0  0  0  0  0  0  0  0  0  0
   59.1500   29.0750   46.6770 C   0  0  0  0  0  0  0  0  0  0  0  0
   59.5560   30.3860   46.7180 C   0  0  0  0  0  0  0  0  0  0  0  0
   60.6800   30.8930   47.2760 N   0  0  0  0  0  0  0  0  0  0  0  0
   60.9120   32.2370   47.2060 C   0  0  0  0  0  0  0  0  0  0  0  0
   62.1440   32.7700   47.8200 C   0  0  0  0  0  0  0  0  0  0  0  0
   63.3560   33.0140   47.1960 C   0  0  0  0  0  0  0  0  0  0  0  0
   64.1890   33.5050   48.1790 C   0  0  0  0  0  0  0  0  0  0  0  0
   63.4410   33.5340   49.3370 C   0  0  0  0  0  0  0  0  0  0  0  0
   62.2290   33.0920   49.0910 O   0  0  0  0  0  0  0  0  0  0  0  0
   59.9780   33.0790   46.5510 C   0  0  0  0  0  0  0  0  0  0  0  0
   58.8190   32.5110   45.9840 C   0  0  0  0  0  0  0  0  0  0  0  0
   57.7870   33.3450   45.2670 C   0  0  0  0  0  0  0  0  0  0  0  0
   56.6340   33.4870   46.0180 F   0  0  0  0  0  0  0  0  0  0  0  0
   57.4600   32.7410   44.0670 F   0  0  0  0  0  0  0  0  0  0  0  0
   58.3080   34.6000   45.0140 F   0  0  0  0  0  0  0  0  0  0  0  0
   58.6650   31.1650   46.0970 N   0  0  0  0  0  0  0  0  0  0  0  0
   57.6680   30.4280   45.6350 N   0  0  0  0  0  0  0  0  0  0  0  0
   58.3180   26.4720   46.4320 H   0  0  0  0  0  0  0  0  0  0  0  0
   58.3192   25.2891   43.5637 H   0  0  0  0  0  0  0  0  0  0  0  0
   57.1707   23.3084   42.5748 H   0  0  0  0  0  0  0  0  0  0  0  0
   55.0958   22.4079   43.6265 H   0  0  0  0  0  0  0  0  0  0  0  0
   52.6336   25.1511   44.9027 H   0  0  0  0  0  0  0  0  0  0  0  0
   55.3187   25.4600   46.6852 H   0  0  0  0  0  0  0  0  0  0  0  0
   59.6526   28.1880   47.0901 H   0  0  0  0  0  0  0  0  0  0  0  0
   63.6028   32.8502   46.1366 H   0  0  0  0  0  0  0  0  0  0  0  0
   65.2389   33.8118   48.0628 H   0  0  0  0  0  0  0  0  0  0  0  0
   63.8042   33.8754   50.3176 H   0  0  0  0  0  0  0  0  0  0  0  0
   60.1556   34.1626   46.4860 H   0  0  0  0  0  0  0  0  0  0  0  0
  1  2  2  0
  2  3  1  0
  3  4  1  0
  4  5  2  0
  5  6  1  0
  6  7  2  0
  7  8  1  0
  8  9  1  0
  9 10  1  0
 10 11  1  0
 10 12  1  0
  8 13  2  0
  2 14  1  0
 14 15  1  0
 15 16  2  0
 16 17  1  0
 17 18  2  0
 18 19  1  0
 19 20  2  0
 20 21  1  0
 21 22  2  0
 22 23  1  0
 18 24  1  0
 24 25  2  0
 25 26  1  0
 26 27  1  0
 26 28  1  0
 26 29  1  0
 25 30  1  0
 30 31  1  0
 13  4  1  0
 31 14  2  0
 30 16  1  0
 23 19  1  0
  3 32  1  0
  5 33  1  0
  6 34  1  0
  7 35  1  0
 10 36  1  0
 13 37  1  0
 15 38  1  0
 20 39  1  0
 21 40  1  0
 22 41  1  0
 24 42  1  0
M  END
>  <UniqueID>  (68) 
62

>  <SMILES>  (68) 
O=C(Nc1cccc(SC(F)F)c1)c1cc2nc(-c3ccco3)cc(C(F)(F)F)n2n1

>  <Energy>  (68) 
109.08448202007848

>  <Genealogy>  (68) 
O=C(Nc1cccc(SC(F)F)c1)c1cc2nc(-c3ccco3)cc(C(F)(F)F)n2n1 (3D coordinates assigned)
O=C(Nc1cccc(SC(F)F)c1)c1cc2nc(-c3ccco3)cc(C(F)(F)F)n2n1 (optimized conformer: 109.08448202007848 kcal/mol)

>  <smiles>  (68) 
O=C(Nc1cccc(SC(F)F)c1)c1cc2nc(-c3ccco3)cc(C(F)(F)F)n2n1

>  <score_type>  (68) 
oracle

>  <origin>  (68) 
adg

>  <m_score__min__energy>  (68) 
-7.21

>  <m_primary>  (68) 
energy

$$$$
68:0
     RDKit          3D

 52 54  0  0  0  0  0  0  0  0999 V2000
   56.6650   30.4500   43.5450 C   0  0  0  0  0  0  0  0  0  0  0  0
   56.5800   31.0810   44.8180 O   0  0  0  0  0  0  0  0  0  0  0  0
   57.4250   32.1140   45.2490 C   0  0  0  0  0  0  0  0  0  0  0  0
   57.7660   33.1190   44.3370 C   0  0  0  0  0  0  0  0  0  0  0  0
   58.6050   34.1680   44.7180 C   0  0  0  0  0  0  0  0  0  0  0  0
   59.1120   34.2240   46.0180 C   0  0  0  0  0  0  0  0  0  0  0  0
   58.7850   33.2240   46.9460 C   0  0  0  0  0  0  0  0  0  0  0  0
   59.3390   33.2720   48.3470 C   0  0  0  0  0  0  0  0  0  0  0  0
   59.8280   31.9500   48.7680 N   0  0  0  0  0  0  0  0  0  0  0  0
   60.8740   31.4120   47.8810 C   0  0  0  0  0  0  0  0  0  0  0  0
   60.5580   30.0140   47.4010 C   0  0  0  0  0  0  0  0  0  0  0  0
   60.5090   28.9490   48.3100 C   0  0  0  0  0  0  0  0  0  0  0  0
   60.1930   27.6620   47.8730 C   0  0  0  0  0  0  0  0  0  0  0  0
   59.9150   27.4190   46.5130 C   0  0  0  0  0  0  0  0  0  0  0  0
   59.5780   26.1410   46.0340 O   0  0  0  0  0  0  0  0  0  0  0  0
   58.5930   25.2780   46.6030 C   0  0  0  0  0  0  0  0  0  0  0  0
   58.1800   24.2160   45.6190 C   0  0  0  0  0  0  0  0  0  0  0  0
   57.1390   24.4440   44.7100 C   0  0  0  0  0  0  0  0  0  0  0  0
   56.7680   23.4460   43.8080 C   0  0  0  0  0  0  0  0  0  0  0  0
   57.4380   22.2200   43.8300 C   0  0  0  0  0  0  0  0  0  0  0  0
   56.9830   20.9560   42.7000 Cl  0  0  0  0  0  0  0  0  0  0  0  0
   58.4390   22.0050   44.7270 N   0  0  0  0  0  0  0  0  0  0  0  0
   58.8170   22.9670   45.6140 C   0  0  0  0  0  0  0  0  0  0  0  0
   59.9740   28.4790   45.5950 C   0  0  0  0  0  0  0  0  0  0  0  0
   59.7000   28.2050   44.2460 O   0  0  0  0  0  0  0  0  0  0  0  0
   58.4870   27.6290   43.7690 C   0  0  0  0  0  0  0  0  0  0  0  0
   60.2960   29.7740   46.0450 C   0  0  0  0  0  0  0  0  0  0  0  0
   57.9390   32.1720   46.5600 C   0  0  0  0  0  0  0  0  0  0  0  0
   56.8107   29.3682   43.6810 H   0  0  0  0  0  0  0  0  0  0  0  0
   55.7349   30.6272   42.9851 H   0  0  0  0  0  0  0  0  0  0  0  0
   57.5151   30.8670   42.9851 H   0  0  0  0  0  0  0  0  0  0  0  0
   57.3698   33.0823   43.3115 H   0  0  0  0  0  0  0  0  0  0  0  0
   58.8672   34.9521   43.9925 H   0  0  0  0  0  0  0  0  0  0  0  0
   59.7695   35.0543   46.3151 H   0  0  0  0  0  0  0  0  0  0  0  0
   60.1715   33.9903   48.3799 H   0  0  0  0  0  0  0  0  0  0  0  0
   58.5347   33.5813   49.0307 H   0  0  0  0  0  0  0  0  0  0  0  0
   60.2100   32.0320   49.7390 H   0  0  0  0  0  0  0  0  0  0  0  0
   60.9702   32.0726   47.0067 H   0  0  0  0  0  0  0  0  0  0  0  0
   61.8108   31.3660   48.4558 H   0  0  0  0  0  0  0  0  0  0  0  0
   60.7209   29.1284   49.3744 H   0  0  0  0  0  0  0  0  0  0  0  0
   60.1607   26.8322   48.5944 H   0  0  0  0  0  0  0  0  0  0  0  0
   59.0102   24.7963   47.4996 H   0  0  0  0  0  0  0  0  0  0  0  0
   57.7091   25.8773   46.8666 H   0  0  0  0  0  0  0  0  0  0  0  0
   56.6136   25.4104   44.7072 H   0  0  0  0  0  0  0  0  0  0  0  0
   55.9563   23.6227   43.0869 H   0  0  0  0  0  0  0  0  0  0  0  0
   58.9320   21.0840   44.7380 H   0  0  0  0  0  0  0  0  0  0  0  0
   59.6265   22.7629   46.3303 H   0  0  0  0  0  0  0  0  0  0  0  0
   57.8613   27.3319   44.6235 H   0  0  0  0  0  0  0  0  0  0  0  0
   57.9464   28.3666   43.1576 H   0  0  0  0  0  0  0  0  0  0  0  0
   58.7169   26.7439   43.1576 H   0  0  0  0  0  0  0  0  0  0  0  0
   60.3424   30.6049   45.3257 H   0  0  0  0  0  0  0  0  0  0  0  0
   57.6757   31.3881   47.2854 H   0  0  0  0  0  0  0  0  0  0  0  0
  1  2  1  0
  2  3  1  0
  3  4  2  0
  4  5  1  0
  5  6  2  0
  6  7  1  0
  7  8  1  0
  8  9  1  0
  9 10  1  0
 10 11  1  0
 11 12  2  0
 12 13  1  0
 13 14  2  0
 14 15  1  0
 15 16  1  0
 16 17  1  0
 17 18  2  0
 18 19  1  0
 19 20  2  0
 20 21  1  0
 20 22  1  0
 22 23  2  0
 14 24  1  0
 24 25  1  0
 25 26  1  0
 24 27  2  0
  7 28  2  0
 28  3  1  0
 27 11  1  0
 23 17  1  0
  1 29  1  0
  1 30  1  0
  1 31  1  0
  4 32  1  0
  5 33  1  0
  6 34  1  0
  8 35  1  0
  8 36  1  0
  9 37  1  0
 10 38  1  0
 10 39  1  0
 12 40  1  0
 13 41  1  0
 16 42  1  0
 16 43  1  0
 18 44  1  0
 19 45  1  0
 22 46  1  0
 23 47  1  0
 26 48  1  0
 26 49  1  0
 26 50  1  0
 27 51  1  0
 28 52  1  0
M  CHG  1  22   1
M  END
>  <UniqueID>  (69) 
63

>  <SMILES>  (69) 
COc1cccc(CNCc2ccc(OCc3ccc(Cl)[nH+]c3)c(OC)c2)c1

>  <Energy>  (69) 
52.002976608994075

>  <Genealogy>  (69) 
COc1cccc(CNCc2ccc(OCc3ccc(Cl)[nH+]c3)c(OC)c2)c1 (protonated)
COc1cccc(CNCc2ccc(OCc3ccc(Cl)[nH+]c3)c(OC)c2)c1 (3D coordinates assigned)
COc1cccc(CNCc2ccc(OCc3ccc(Cl)[nH+]c3)c(OC)c2)c1 (optimized conformer: 52.002976608994075 kcal/mol)

>  <smiles>  (69) 
COc1cccc(CNCc2ccc(OCc3ccc(Cl)nc3)c(OC)c2)c1

>  <score_type>  (69) 
oracle

>  <origin>  (69) 
adg

>  <m_score__min__energy>  (69) 
-6.9699999999999998

>  <m_primary>  (69) 
energy

$$$$
69:0
     RDKit          3D

 64 66  0  0  0  0  0  0  0  0999 V2000
   57.2320   21.1380   43.0260 C   0  0  0  0  0  0  0  0  0  0  0  0
   56.7490   22.5310   43.4170 C   0  0  0  0  0  0  0  0  0  0  0  0
   56.2690   22.5430   44.8120 N   0  0  0  0  0  0  0  0  0  0  0  0
   55.0000   23.2810   44.9890 C   0  0  0  0  0  0  0  0  0  0  0  0
   54.2850   22.9880   46.3120 C   0  0  0  0  0  0  0  0  0  0  0  0
   57.5020   22.9900   45.9850 S   0  0  0  0  0  0  0  0  0  0  0  0
   58.8030   22.3540   45.5830 O   0  0  0  0  0  0  0  0  0  0  0  0
   57.1320   22.4430   47.3350 O   0  0  0  0  0  0  0  0  0  0  0  0
   57.7650   24.7360   46.1270 C   0  0  0  0  0  0  0  0  0  0  0  0
   56.6740   25.5970   46.2940 C   0  0  0  0  0  0  0  0  0  0  0  0
   56.8680   26.9770   46.3720 C   0  0  0  0  0  0  0  0  0  0  0  0
   58.1520   27.5230   46.2570 C   0  0  0  0  0  0  0  0  0  0  0  0
   58.3090   28.9470   46.3140 N   0  0  0  0  0  0  0  0  0  0  0  0
   57.4440   29.8370   45.5920 C   0  0  0  0  0  0  0  0  0  0  0  0
   56.3220   29.4240   45.1890 O   0  0  0  0  0  0  0  0  0  0  0  0
   57.8520   31.2340   45.3220 C   0  0  0  0  0  0  0  0  0  0  0  0
   57.6770   31.7900   44.0420 C   0  0  0  0  0  0  0  0  0  0  0  0
   58.0930   33.0960   43.7770 C   0  0  0  0  0  0  0  0  0  0  0  0
   58.7050   33.8550   44.7770 C   0  0  0  0  0  0  0  0  0  0  0  0
   58.9040   33.3100   46.0530 C   0  0  0  0  0  0  0  0  0  0  0  0
   59.7390   34.2390   47.2990 S   0  0  0  0  0  0  0  0  0  0  0  0
   59.5930   35.7050   47.0040 O   0  0  0  0  0  0  0  0  0  0  0  0
   59.0920   33.9700   48.6290 O   0  0  0  0  0  0  0  0  0  0  0  0
   61.4410   33.8450   47.3820 N   0  0  0  0  0  0  0  0  0  0  0  0
   62.0280   34.1070   48.7180 C   0  0  0  0  0  0  0  0  0  0  0  0
   62.9070   32.9650   49.2370 C   0  0  0  0  0  0  0  0  0  0  0  0
   62.1390   31.6500   49.1700 C   0  0  0  0  0  0  0  0  0  0  0  0
   61.6350   31.3440   47.7500 C   0  0  0  0  0  0  0  0  0  0  0  0
   61.7520   32.5330   46.7730 C   0  0  0  0  0  0  0  0  0  0  0  0
   58.4610   32.0080   46.3260 C   0  0  0  0  0  0  0  0  0  0  0  0
   59.2650   26.6620   46.1070 C   0  0  0  0  0  0  0  0  0  0  0  0
   60.6710   27.1960   46.0450 C   0  0  0  0  0  0  0  0  0  0  0  0
   59.0540   25.2760   46.0070 C   0  0  0  0  0  0  0  0  0  0  0  0
   57.4352   20.5520   43.9345 H   0  0  0  0  0  0  0  0  0  0  0  0
   56.4560   20.6345   42.4308 H   0  0  0  0  0  0  0  0  0  0  0  0
   58.1531   21.2230   42.4308 H   0  0  0  0  0  0  0  0  0  0  0  0
   57.5807   23.2436   43.3150 H   0  0  0  0  0  0  0  0  0  0  0  0
   55.9188   22.8168   42.7544 H   0  0  0  0  0  0  0  0  0  0  0  0
   55.2180   24.3583   44.9454 H   0  0  0  0  0  0  0  0  0  0  0  0
   54.3263   22.9508   44.1846 H   0  0  0  0  0  0  0  0  0  0  0  0
   54.9425   23.2575   47.1517 H   0  0  0  0  0  0  0  0  0  0  0  0
   53.3590   23.5792   46.3671 H   0  0  0  0  0  0  0  0  0  0  0  0
   54.0401   21.9170   46.3671 H   0  0  0  0  0  0  0  0  0  0  0  0
   55.6572   25.1833   46.3642 H   0  0  0  0  0  0  0  0  0  0  0  0
   56.0047   27.6412   46.5251 H   0  0  0  0  0  0  0  0  0  0  0  0
   58.9320   29.3460   47.0510 H   0  0  0  0  0  0  0  0  0  0  0  0
   57.2098   31.1925   43.2453 H   0  0  0  0  0  0  0  0  0  0  0  0
   57.9383   33.5286   42.7775 H   0  0  0  0  0  0  0  0  0  0  0  0
   59.0317   34.8833   44.5627 H   0  0  0  0  0  0  0  0  0  0  0  0
   62.6421   35.0175   48.6554 H   0  0  0  0  0  0  0  0  0  0  0  0
   61.1902   34.2146   49.4226 H   0  0  0  0  0  0  0  0  0  0  0  0
   63.8127   32.8908   48.6172 H   0  0  0  0  0  0  0  0  0  0  0  0
   63.1876   33.1686   50.2809 H   0  0  0  0  0  0  0  0  0  0  0  0
   62.8031   30.8349   49.4936 H   0  0  0  0  0  0  0  0  0  0  0  0
   61.2621   31.7369   49.8284 H   0  0  0  0  0  0  0  0  0  0  0  0
   62.2230   30.5061   47.3472 H   0  0  0  0  0  0  0  0  0  0  0  0
   60.5643   31.1070   47.8363 H   0  0  0  0  0  0  0  0  0  0  0  0
   62.7824   32.5653   46.3893 H   0  0  0  0  0  0  0  0  0  0  0  0
   61.0093   32.3667   45.9788 H   0  0  0  0  0  0  0  0  0  0  0  0
   58.5909   31.5882   47.3344 H   0  0  0  0  0  0  0  0  0  0  0  0
   61.0534   27.3412   47.0661 H   0  0  0  0  0  0  0  0  0  0  0  0
   61.3124   26.4789   45.5118 H   0  0  0  0  0  0  0  0  0  0  0  0
   60.6746   28.1581   45.5118 H   0  0  0  0  0  0  0  0  0  0  0  0
   59.9096   24.6070   45.8326 H   0  0  0  0  0  0  0  0  0  0  0  0
  1  2  1  0
  2  3  1  0
  3  4  1  0
  4  5  1  0
  3  6  1  0
  6  7  2  0
  6  8  2  0
  6  9  1  0
  9 10  2  0
 10 11  1  0
 11 12  2  0
 12 13  1  0
 13 14  1  0
 14 15  2  0
 14 16  1  0
 16 17  2  0
 17 18  1  0
 18 19  2  0
 19 20  1  0
 20 21  1  0
 21 22  2  0
 21 23  2  0
 21 24  1  0
 24 25  1  0
 25 26  1  0
 26 27  1  0
 27 28  1  0
 28 29  1  0
 20 30  2  0
 12 31  1  0
 31 32  1  0
 31 33  2  0
 33  9  1  0
 30 16  1  0
 29 24  1  0
  1 34  1  0
  1 35  1  0
  1 36  1  0
  2 37  1  0
  2 38  1  0
  4 39  1  0
  4 40  1  0
  5 41  1  0
  5 42  1  0
  5 43  1  0
 10 44  1  0
 11 45  1  0
 13 46  1  0
 17 47  1  0
 18 48  1  0
 19 49  1  0
 25 50  1  0
 25 51  1  0
 26 52  1  0
 26 53  1  0
 27 54  1  0
 27 55  1  0
 28 56  1  0
 28 57  1  0
 29 58  1  0
 29 59  1  0
 30 60  1  0
 32 61  1  0
 32 62  1  0
 32 63  1  0
 33 64  1  0
M  END
>  <UniqueID>  (70) 
64

>  <SMILES>  (70) 
CCN(CC)S(=O)(=O)c1ccc(NC(=O)c2cccc(S(=O)(=O)N3CCCCC3)c2)c(C)c1

>  <Energy>  (70) 
79.2393895011676

>  <Genealogy>  (70) 
CCN(CC)S(=O)(=O)c1ccc(NC(=O)c2cccc(S(=O)(=O)N3CCCCC3)c2)c(C)c1 (3D coordinates assigned)
CCN(CC)S(=O)(=O)c1ccc(NC(=O)c2cccc(S(=O)(=O)N3CCCCC3)c2)c(C)c1 (nonaromatic ring conformer: 79.2393895011676 kcal/mol)

>  <smiles>  (70) 
CCN(CC)S(=O)(=O)c1ccc(NC(=O)c2cccc(S(=O)(=O)N3CCCCC3)c2)c(C)c1

>  <score_type>  (70) 
oracle

>  <origin>  (70) 
adg

>  <m_score__min__energy>  (70) 
-10.31

>  <m_primary>  (70) 
energy

$$$$
70:0
     RDKit          3D

 46 49  0  0  0  0  0  0  0  0999 V2000
   57.8820   32.3570   49.4070 O   0  0  0  0  0  0  0  0  0  0  0  0
   58.6690   32.1480   48.4430 C   0  0  0  0  0  0  0  0  0  0  0  0
   59.5340   31.0070   48.4650 N   0  0  0  0  0  0  0  0  0  0  0  0
   59.3720   29.8460   47.5970 C   0  0  0  0  0  0  0  0  0  0  0  0
   59.7470   30.2000   46.1560 C   0  0  0  0  0  0  0  0  0  0  0  0
   58.5160   30.2800   45.2960 C   0  0  0  0  0  0  0  0  0  0  0  0
   58.4950   31.0940   44.1540 C   0  0  0  0  0  0  0  0  0  0  0  0
   57.3370   31.1830   43.3810 C   0  0  0  0  0  0  0  0  0  0  0  0
   56.2020   30.4640   43.7630 C   0  0  0  0  0  0  0  0  0  0  0  0
   56.2310   29.6890   44.8800 N   0  0  0  0  0  0  0  0  0  0  0  0
   57.3490   29.5860   45.6490 C   0  0  0  0  0  0  0  0  0  0  0  0
   58.6680   33.0690   47.2800 C   0  0  0  0  0  0  0  0  0  0  0  0
   57.4440   33.3420   46.6410 C   0  0  0  0  0  0  0  0  0  0  0  0
   57.3970   34.1420   45.4990 C   0  0  0  0  0  0  0  0  0  0  0  0
   58.5690   34.6840   44.9750 C   0  0  0  0  0  0  0  0  0  0  0  0
   59.7920   34.4420   45.6030 C   0  0  0  0  0  0  0  0  0  0  0  0
   59.8580   33.6500   46.7620 C   0  0  0  0  0  0  0  0  0  0  0  0
   61.1700   33.5050   47.4350 C   0  0  0  0  0  0  0  0  0  0  0  0
   62.2540   32.9360   46.7480 C   0  0  0  0  0  0  0  0  0  0  0  0
   63.4910   32.7830   47.3790 C   0  0  0  0  0  0  0  0  0  0  0  0
   63.6630   33.2040   48.7050 C   0  0  0  0  0  0  0  0  0  0  0  0
   64.8990   33.0470   49.3520 C   0  0  0  0  0  0  0  0  0  0  0  0
   65.0570   33.4700   50.6760 C   0  0  0  0  0  0  0  0  0  0  0  0
   63.9860   34.0530   51.3610 C   0  0  0  0  0  0  0  0  0  0  0  0
   62.7510   34.2160   50.7280 C   0  0  0  0  0  0  0  0  0  0  0  0
   62.5790   33.7930   49.4010 C   0  0  0  0  0  0  0  0  0  0  0  0
   61.3420   33.9470   48.7570 C   0  0  0  0  0  0  0  0  0  0  0  0
   60.0240   29.0343   47.9521 H   0  0  0  0  0  0  0  0  0  0  0  0
   58.3201   29.5252   47.6232 H   0  0  0  0  0  0  0  0  0  0  0  0
   60.2607   31.1726   46.1441 H   0  0  0  0  0  0  0  0  0  0  0  0
   60.4088   29.4167   45.7579 H   0  0  0  0  0  0  0  0  0  0  0  0
   59.3921   31.6626   43.8677 H   0  0  0  0  0  0  0  0  0  0  0  0
   57.3180   31.8132   42.4796 H   0  0  0  0  0  0  0  0  0  0  0  0
   55.2841   30.5247   43.1599 H   0  0  0  0  0  0  0  0  0  0  0  0
   57.3376   28.9562   46.5508 H   0  0  0  0  0  0  0  0  0  0  0  0
   56.5131   32.9194   47.0470 H   0  0  0  0  0  0  0  0  0  0  0  0
   56.4324   34.3454   45.0110 H   0  0  0  0  0  0  0  0  0  0  0  0
   58.5304   35.3027   44.0663 H   0  0  0  0  0  0  0  0  0  0  0  0
   60.7132   34.8755   45.1865 H   0  0  0  0  0  0  0  0  0  0  0  0
   62.1285   32.6083   45.7055 H   0  0  0  0  0  0  0  0  0  0  0  0
   64.3325   32.3308   46.8337 H   0  0  0  0  0  0  0  0  0  0  0  0
   65.7447   32.5905   48.8169 H   0  0  0  0  0  0  0  0  0  0  0  0
   66.0266   33.3437   51.1799 H   0  0  0  0  0  0  0  0  0  0  0  0
   64.1164   34.3844   52.4018 H   0  0  0  0  0  0  0  0  0  0  0  0
   61.9123   34.6766   51.2707 H   0  0  0  0  0  0  0  0  0  0  0  0
   60.5023   34.4165   49.2904 H   0  0  0  0  0  0  0  0  0  0  0  0
  1  2  2  0
  2  3  1  0
  3  4  1  0
  4  5  1  0
  5  6  1  0
  6  7  2  0
  7  8  1  0
  8  9  2  0
  9 10  1  0
 10 11  2  0
  2 12  1  0
 12 13  2  0
 13 14  1  0
 14 15  2  0
 15 16  1  0
 16 17  2  0
 17 18  1  0
 18 19  2  0
 19 20  1  0
 20 21  2  0
 21 22  1  0
 22 23  2  0
 23 24  1  0
 24 25  2  0
 25 26  1  0
 26 27  2  0
 11  6  1  0
 17 12  1  0
 27 18  1  0
 26 21  1  0
  4 28  1  0
  4 29  1  0
  5 30  1  0
  5 31  1  0
  7 32  1  0
  8 33  1  0
  9 34  1  0
 11 35  1  0
 13 36  1  0
 14 37  1  0
 15 38  1  0
 16 39  1  0
 19 40  1  0
 20 41  1  0
 22 42  1  0
 23 43  1  0
 24 44  1  0
 25 45  1  0
 27 46  1  0
M  CHG  1   3  -1
M  END
>  <UniqueID>  (71) 
65

>  <SMILES>  (71) 
O=C([N-]CCc1cccnc1)c1ccccc1-c1ccc2ccccc2c1

>  <Energy>  (71) 
60.43071959425969

>  <Genealogy>  (71) 
O=C([N-]CCc1cccnc1)c1ccccc1-c1ccc2ccccc2c1 (protonated)
O=C([N-]CCc1cccnc1)c1ccccc1-c1ccc2ccccc2c1 (3D coordinates assigned)
O=C([N-]CCc1cccnc1)c1ccccc1-c1ccc2ccccc2c1 (optimized conformer: 60.43071959425969 kcal/mol)

>  <smiles>  (71) 
O=C(NCCc1cccnc1)c1ccccc1-c1ccc2ccccc2c1

>  <score_type>  (71) 
oracle

>  <origin>  (71) 
adg

>  <m_score__min__energy>  (71) 
-11.65

>  <m_primary>  (71) 
energy

$$$$
71:0
     RDKit          3D

 46 47  0  0  0  0  0  0  0  0999 V2000
   54.7160   28.9690   45.6100 H   0  0  0  0  0  0  0  0  0  0  0  0
   55.4420   29.1170   44.9200 O   0  0  0  0  0  0  0  0  0  0  0  0
   56.3010   30.1840   45.0430 N   0  0  0  0  0  0  0  0  0  0  0  0
   57.5820   30.0550   44.8780 C   0  0  0  0  0  0  0  0  0  0  0  0
   58.3770   29.2320   45.8280 C   0  0  0  0  0  0  0  0  0  0  0  0
   58.5420   27.8570   45.5990 C   0  0  0  0  0  0  0  0  0  0  0  0
   58.0589   27.3864   44.7300 H   0  0  0  0  0  0  0  0  0  0  0  0
   59.3120   27.0850   46.4630 C   0  0  0  0  0  0  0  0  0  0  0  0
   59.4508   26.0110   46.2700 H   0  0  0  0  0  0  0  0  0  0  0  0
   59.9080   27.6810   47.5770 C   0  0  0  0  0  0  0  0  0  0  0  0
   60.7600   26.8640   48.5010 C   0  0  0  0  0  0  0  0  0  0  0  0
   60.5070   27.1066   49.5437 H   0  0  0  0  0  0  0  0  0  0  0  0
   60.5775   25.7947   48.3187 H   0  0  0  0  0  0  0  0  0  0  0  0
   61.8207   27.0912   48.3187 H   0  0  0  0  0  0  0  0  0  0  0  0
   59.7660   29.0210   47.7820 N   0  0  0  0  0  0  0  0  0  0  0  0
   60.2150   29.4540   48.6190 H   0  0  0  0  0  0  0  0  0  0  0  0
   59.0410   29.8090   46.9320 C   0  0  0  0  0  0  0  0  0  0  0  0
   58.9460   31.1910   47.1580 O   0  0  0  0  0  0  0  0  0  0  0  0
   59.9510   31.9880   47.7270 C   0  0  0  0  0  0  0  0  0  0  0  0
   61.0580   32.4290   46.9770 C   0  0  0  0  0  0  0  0  0  0  0  0
   61.1562   32.1357   45.9214 H   0  0  0  0  0  0  0  0  0  0  0  0
   62.0340   33.2390   47.5690 C   0  0  0  0  0  0  0  0  0  0  0  0
   63.4120   33.7800   46.6280 Cl  0  0  0  0  0  0  0  0  0  0  0  0
   61.9060   33.6240   48.9050 C   0  0  0  0  0  0  0  0  0  0  0  0
   62.6760   34.2561   49.3714 H   0  0  0  0  0  0  0  0  0  0  0  0
   60.7990   33.2060   49.6500 C   0  0  0  0  0  0  0  0  0  0  0  0
   60.6974   33.5151   50.7008 H   0  0  0  0  0  0  0  0  0  0  0  0
   59.8200   32.3960   49.0640 C   0  0  0  0  0  0  0  0  0  0  0  0
   58.4340   31.8920   50.0170 Cl  0  0  0  0  0  0  0  0  0  0  0  0
   58.2370   30.7250   43.7910 N   0  0  0  0  0  0  0  0  0  0  0  0
   58.6900   30.1560   43.0410 H   0  0  0  0  0  0  0  0  0  0  0  0
   58.4160   32.1750   43.7810 C   0  0  0  0  0  0  0  0  0  0  0  0
   59.4693   32.4077   43.9962 H   0  0  0  0  0  0  0  0  0  0  0  0
   58.1292   32.5539   42.7889 H   0  0  0  0  0  0  0  0  0  0  0  0
   57.5280   32.8530   44.8350 C   0  0  0  0  0  0  0  0  0  0  0  0
   56.5291   33.0232   44.4070 H   0  0  0  0  0  0  0  0  0  0  0  0
   57.4658   32.1948   45.7142 H   0  0  0  0  0  0  0  0  0  0  0  0
   58.0990   34.1510   45.2600 N   0  0  0  0  0  0  0  0  0  0  0  0
   59.4760   34.2910   44.7600 C   0  0  0  0  0  0  0  0  0  0  0  0
   60.1696   34.3615   45.6108 H   0  0  0  0  0  0  0  0  0  0  0  0
   59.7347   33.4145   44.1477 H   0  0  0  0  0  0  0  0  0  0  0  0
   59.5530   35.2016   44.1477 H   0  0  0  0  0  0  0  0  0  0  0  0
   58.0910   34.2800   46.7280 C   0  0  0  0  0  0  0  0  0  0  0  0
   58.1530   33.2810   47.1842 H   0  0  0  0  0  0  0  0  0  0  0  0
   58.9535   34.8832   47.0478 H   0  0  0  0  0  0  0  0  0  0  0  0
   57.1606   34.7721   47.0478 H   0  0  0  0  0  0  0  0  0  0  0  0
  1  2  1  0
  2  3  1  0
  3  4  2  0
  4  5  1  0
  5  6  2  0
  6  7  1  0
  6  8  1  0
  8  9  1  0
  8 10  2  0
 10 11  1  0
 11 12  1  0
 11 13  1  0
 11 14  1  0
 10 15  1  0
 15 16  1  0
 15 17  2  0
 17 18  1  0
 18 19  1  0
 19 20  2  0
 20 21  1  0
 20 22  1  0
 22 23  1  0
 22 24  2  0
 24 25  1  0
 24 26  1  0
 26 27  1  0
 26 28  2  0
 28 29  1  0
  4 30  1  0
 30 31  1  0
 30 32  1  0
 32 33  1  0
 32 34  1  0
 32 35  1  0
 35 36  1  0
 35 37  1  0
 35 38  1  0
 38 39  1  0
 39 40  1  0
 39 41  1  0
 39 42  1  0
 38 43  1  0
 43 44  1  0
 43 45  1  0
 43 46  1  0
 17  5  1  0
 28 19  1  0
M  CHG  1  15   1
M  END
>  <UniqueID>  (72) 
66

>  <SMILES>  (72) 
Cc1ccc(/C(=N/O)NCCN(C)C)c(Oc2cc(Cl)ccc2Cl)[nH+]1

>  <Energy>  (72) 
53.66813357076342

>  <Genealogy>  (72) 
Cc1ccc(C(=NO)NCCN(C)C)c(Oc2cc(Cl)ccc2Cl)[nH+]1 (protonated)
Cc1ccc(/C(=N/O)NCCN(C)C)c(Oc2cc(Cl)ccc2Cl)[nH+]1 (cis-trans isomerization)
Cc1ccc(/C(=N/O)NCCN(C)C)c(Oc2cc(Cl)ccc2Cl)[nH+]1 (3D coordinates assigned)
Cc1ccc(/C(=N/O)NCCN(C)C)c(Oc2cc(Cl)ccc2Cl)[nH+]1 (optimized conformer: 53.66813357076342 kcal/mol)

>  <smiles>  (72) 
Cc1ccc(C(=NO)NCCN(C)C)c(Oc2cc(Cl)ccc2Cl)n1

>  <score_type>  (72) 
oracle

>  <origin>  (72) 
adg

>  <m_score__min__energy>  (72) 
-7.2999999999999998

>  <m_primary>  (72) 
energy

$$$$
72:0
     RDKit          3D

 54 56  0  0  0  0  0  0  0  0999 V2000
   59.2420   33.0330   50.6990 C   0  0  0  0  0  0  0  0  0  0  0  0
   60.2840   32.0580   51.2520 C   0  0  0  0  0  0  0  0  0  0  0  0
   59.6940   30.6670   51.5310 C   0  0  0  0  0  0  0  0  0  0  0  0
   60.4120   29.5620   50.7470 C   0  0  0  0  0  0  0  0  0  0  0  0
   60.0710   29.7010   48.9960 S   0  0  0  0  0  0  0  0  0  0  0  0
   61.3120   30.1760   48.2950 O   0  0  0  0  0  0  0  0  0  0  0  0
   58.9680   30.6900   48.7450 O   0  0  0  0  0  0  0  0  0  0  0  0
   59.6180   28.1590   48.3410 N   0  0  0  0  0  0  0  0  0  0  0  0
   58.9780   27.9640   47.0710 C   0  0  0  0  0  0  0  0  0  0  0  0
   58.0230   28.8690   46.5760 C   0  0  0  0  0  0  0  0  0  0  0  0
   57.4310   28.6770   45.3140 C   0  0  0  0  0  0  0  0  0  0  0  0
   56.4130   29.6320   44.7950 C   0  0  0  0  0  0  0  0  0  0  0  0
   55.1900   29.3370   44.8740 O   0  0  0  0  0  0  0  0  0  0  0  0
   56.7700   30.9350   44.3030 N   0  0  0  0  0  0  0  0  0  0  0  0
   57.3600   31.8970   44.9560 C   0  0  0  0  0  0  0  0  0  0  0  0
   58.5630   31.7050   45.6650 C   0  0  0  0  0  0  0  0  0  0  0  0
   59.1290   32.7660   46.3840 C   0  0  0  0  0  0  0  0  0  0  0  0
   60.3170   32.5340   47.1610 N   0  0  0  0  0  0  0  0  0  0  0  0
   61.4160   33.4550   47.2460 C   0  0  0  0  0  0  0  0  0  0  0  0
   61.5670   34.3390   46.3590 O   0  0  0  0  0  0  0  0  0  0  0  0
   62.4250   33.3260   48.3240 C   0  0  0  0  0  0  0  0  0  0  0  0
   62.3160   34.1180   49.4820 C   0  0  0  0  0  0  0  0  0  0  0  0
   63.2680   34.0220   50.5000 C   0  0  0  0  0  0  0  0  0  0  0  0
   64.3360   33.1290   50.3780 C   0  0  0  0  0  0  0  0  0  0  0  0
   64.4490   32.3260   49.2410 C   0  0  0  0  0  0  0  0  0  0  0  0
   63.4990   32.4150   48.2180 C   0  0  0  0  0  0  0  0  0  0  0  0
   63.6130   31.5840   47.1490 F   0  0  0  0  0  0  0  0  0  0  0  0
   58.4820   34.0110   46.3810 C   0  0  0  0  0  0  0  0  0  0  0  0
   57.3140   34.1780   45.6360 C   0  0  0  0  0  0  0  0  0  0  0  0
   56.7880   33.1300   44.9490 N   0  0  0  0  0  0  0  0  0  0  0  0
   57.7900   27.5450   44.5620 C   0  0  0  0  0  0  0  0  0  0  0  0
   58.7240   26.6330   45.0600 C   0  0  0  0  0  0  0  0  0  0  0  0
   59.3110   26.8370   46.3110 C   0  0  0  0  0  0  0  0  0  0  0  0
   60.2200   25.9430   46.7770 F   0  0  0  0  0  0  0  0  0  0  0  0
   58.7187   33.5226   51.5335 H   0  0  0  0  0  0  0  0  0  0  0  0
   59.7428   33.7944   50.0830 H   0  0  0  0  0  0  0  0  0  0  0  0
   58.5155   32.4828   50.0830 H   0  0  0  0  0  0  0  0  0  0  0  0
   61.0971   31.9562   50.5182 H   0  0  0  0  0  0  0  0  0  0  0  0
   60.6509   32.4644   52.2061 H   0  0  0  0  0  0  0  0  0  0  0  0
   59.7845   30.4536   52.6063 H   0  0  0  0  0  0  0  0  0  0  0  0
   58.6418   30.6775   51.2105 H   0  0  0  0  0  0  0  0  0  0  0  0
   61.4961   29.6494   50.9113 H   0  0  0  0  0  0  0  0  0  0  0  0
   60.0486   28.5858   51.1006 H   0  0  0  0  0  0  0  0  0  0  0  0
   57.7345   29.7394   47.1837 H   0  0  0  0  0  0  0  0  0  0  0  0
   59.0573   30.7224   45.6538 H   0  0  0  0  0  0  0  0  0  0  0  0
   60.4380   31.5930   47.5980 H   0  0  0  0  0  0  0  0  0  0  0  0
   61.4743   34.8185   49.5866 H   0  0  0  0  0  0  0  0  0  0  0  0
   63.1768   34.6500   51.3985 H   0  0  0  0  0  0  0  0  0  0  0  0
   65.0879   33.0586   51.1778 H   0  0  0  0  0  0  0  0  0  0  0  0
   65.2882   31.6208   49.1495 H   0  0  0  0  0  0  0  0  0  0  0  0
   58.8928   34.8498   46.9621 H   0  0  0  0  0  0  0  0  0  0  0  0
   56.8182   35.1594   45.6047 H   0  0  0  0  0  0  0  0  0  0  0  0
   57.3330   27.3762   43.5758 H   0  0  0  0  0  0  0  0  0  0  0  0
   58.9984   25.7501   44.4641 H   0  0  0  0  0  0  0  0  0  0  0  0
  1  2  1  0
  2  3  1  0
  3  4  1  0
  4  5  1  0
  5  6  2  0
  5  7  2  0
  5  8  1  0
  8  9  1  0
  9 10  2  0
 10 11  1  0
 11 12  1  0
 12 13  2  0
 12 14  1  0
 14 15  2  3
 15 16  1  0
 16 17  2  0
 17 18  1  0
 18 19  1  0
 19 20  2  0
 19 21  1  0
 21 22  2  0
 22 23  1  0
 23 24  2  0
 24 25  1  0
 25 26  2  0
 26 27  1  0
 17 28  1  0
 28 29  2  0
 29 30  1  0
 11 31  2  0
 31 32  1  0
 32 33  2  0
 33 34  1  0
 33  9  1  0
 30 15  1  0
 26 21  1  0
  1 35  1  0
  1 36  1  0
  1 37  1  0
  2 38  1  0
  2 39  1  0
  3 40  1  0
  3 41  1  0
  4 42  1  0
  4 43  1  0
 10 44  1  0
 16 45  1  0
 18 46  1  0
 22 47  1  0
 23 48  1  0
 24 49  1  0
 25 50  1  0
 28 51  1  0
 29 52  1  0
 31 53  1  0
 32 54  1  0
M  CHG  2   8  -1  30  -1
M  END
>  <UniqueID>  (73) 
67

>  <SMILES>  (73) 
CCCCS(=O)(=O)[N-]c1cc(C(=O)N=c2cc(NC(=O)c3ccccc3F)cc[n-]2)ccc1F

>  <Energy>  (73) 
65.88969320161398

>  <Genealogy>  (73) 
CCCCS(=O)(=O)[N-]c1cc(C(=O)N=c2cc(NC(=O)c3ccccc3F)cc[n-]2)ccc1F (protonated)
CCCCS(=O)(=O)[N-]c1cc(C(=O)N=c2cc(NC(=O)c3ccccc3F)cc[n-]2)ccc1F (3D coordinates assigned)
CCCCS(=O)(=O)[N-]c1cc(C(=O)N=c2cc(NC(=O)c3ccccc3F)cc[n-]2)ccc1F (optimized conformer: 65.88969320161398 kcal/mol)

>  <smiles>  (73) 
CCCCS(=O)(=O)Nc1cc(C(=O)N=c2cc(NC(=O)c3ccccc3F)cc[nH]2)ccc1F

>  <score_type>  (73) 
oracle

>  <origin>  (73) 
adg

>  <m_score__min__energy>  (73) 
-12.93

>  <m_primary>  (73) 
energy

$$$$
73:0
     RDKit          3D

 41 42  0  0  0  0  0  0  0  0999 V2000
   59.7910   28.9460   45.2390 C   0  0  0  0  0  0  0  0  0  0  0  0
   59.9580   29.5330   46.6050 C   0  0  0  0  0  0  0  0  0  0  0  0
   61.0240   30.3990   46.8770 C   0  0  0  0  0  0  0  0  0  0  0  0
   61.1600   30.9570   48.1510 C   0  0  0  0  0  0  0  0  0  0  0  0
   62.2410   31.8170   48.3900 O   0  0  0  0  0  0  0  0  0  0  0  0
   63.2660   32.1100   47.4430 C   0  0  0  0  0  0  0  0  0  0  0  0
   63.0530   33.5090   46.8580 C   0  0  0  0  0  0  0  0  0  0  0  0
   61.6030   33.7420   46.4030 C   0  0  0  0  0  0  0  0  0  0  0  0
   60.9020   34.5580   47.3220 O   0  0  0  0  0  0  0  0  0  0  0  0
   59.6360   34.9190   46.8100 C   0  0  0  0  0  0  0  0  0  0  0  0
   58.9740   33.7160   46.2890 N   0  0  0  0  0  0  0  0  0  0  0  0
   58.7630   33.6020   44.9440 C   0  0  0  0  0  0  0  0  0  0  0  0
   58.0840   32.4980   44.4170 C   0  0  0  0  0  0  0  0  0  0  0  0
   57.8410   32.3790   42.9380 C   0  0  0  0  0  0  0  0  0  0  0  0
   57.6230   31.5230   45.3070 C   0  0  0  0  0  0  0  0  0  0  0  0
   57.0040   30.5100   44.8820 O   0  0  0  0  0  0  0  0  0  0  0  0
   57.8350   31.6690   46.6420 N   0  0  0  0  0  0  0  0  0  0  0  0
   58.4920   32.7530   47.1380 C   0  0  0  0  0  0  0  0  0  0  0  0
   58.6480   32.8620   48.3850 O   0  0  0  0  0  0  0  0  0  0  0  0
   60.2100   30.6420   49.1400 C   0  0  0  0  0  0  0  0  0  0  0  0
   59.1550   29.7810   48.8280 C   0  0  0  0  0  0  0  0  0  0  0  0
   59.0500   29.2520   47.5800 N   0  0  0  0  0  0  0  0  0  0  0  0
   59.4910   27.8914   45.3273 H   0  0  0  0  0  0  0  0  0  0  0  0
   59.0158   29.5033   44.6927 H   0  0  0  0  0  0  0  0  0  0  0  0
   60.7435   29.0117   44.6927 H   0  0  0  0  0  0  0  0  0  0  0  0
   61.7531   30.6397   46.0893 H   0  0  0  0  0  0  0  0  0  0  0  0
   64.2456   32.0688   47.9418 H   0  0  0  0  0  0  0  0  0  0  0  0
   63.2300   31.3692   46.6306 H   0  0  0  0  0  0  0  0  0  0  0  0
   63.3060   34.2548   47.6259 H   0  0  0  0  0  0  0  0  0  0  0  0
   63.7003   33.6038   45.9737 H   0  0  0  0  0  0  0  0  0  0  0  0
   61.6106   34.2345   45.4194 H   0  0  0  0  0  0  0  0  0  0  0  0
   61.0957   32.7677   46.3457 H   0  0  0  0  0  0  0  0  0  0  0  0
   59.0250   35.3590   47.6119 H   0  0  0  0  0  0  0  0  0  0  0  0
   59.7564   35.6575   46.0037 H   0  0  0  0  0  0  0  0  0  0  0  0
   59.1312   34.3873   44.2675 H   0  0  0  0  0  0  0  0  0  0  0  0
   56.8655   31.9013   42.7640 H   0  0  0  0  0  0  0  0  0  0  0  0
   57.8448   33.3809   42.4840 H   0  0  0  0  0  0  0  0  0  0  0  0
   58.6348   31.7677   42.4840 H   0  0  0  0  0  0  0  0  0  0  0  0
   57.4800   30.9390   47.3010 H   0  0  0  0  0  0  0  0  0  0  0  0
   60.2972   31.0698   50.1496 H   0  0  0  0  0  0  0  0  0  0  0  0
   58.4069   29.5303   49.5945 H   0  0  0  0  0  0  0  0  0  0  0  0
  1  2  1  0
  2  3  2  0
  3  4  1  0
  4  5  1  0
  5  6  1  0
  6  7  1  0
  7  8  1  0
  8  9  1  0
  9 10  1  0
 10 11  1  0
 11 12  1  0
 12 13  2  0
 13 14  1  0
 13 15  1  0
 15 16  2  0
 15 17  1  0
 17 18  1  0
 18 19  2  0
  4 20  2  0
 20 21  1  0
 21 22  2  0
 22  2  1  0
 18 11  1  0
  1 23  1  0
  1 24  1  0
  1 25  1  0
  3 26  1  0
  6 27  1  0
  6 28  1  0
  7 29  1  0
  7 30  1  0
  8 31  1  0
  8 32  1  0
 10 33  1  0
 10 34  1  0
 12 35  1  0
 14 36  1  0
 14 37  1  0
 14 38  1  0
 17 39  1  0
 20 40  1  0
 21 41  1  0
M  END
>  <UniqueID>  (74) 
68

>  <SMILES>  (74) 
Cc1cc(OCCCOCn2cc(C)c(=O)[nH]c2=O)ccn1

>  <Energy>  (74) 
38.40689055530406

>  <Genealogy>  (74) 
Cc1cc(OCCCOCn2cc(C)c(=O)[nH]c2=O)ccn1 (3D coordinates assigned)
Cc1cc(OCCCOCn2cc(C)c(=O)[nH]c2=O)ccn1 (optimized conformer: 38.40689055530406 kcal/mol)

>  <smiles>  (74) 
Cc1cc(OCCCOCn2cc(C)c(=O)[nH]c2=O)ccn1

>  <score_type>  (74) 
oracle

>  <origin>  (74) 
adg

>  <m_score__min__energy>  (74) 
-6.9699999999999998

>  <m_primary>  (74) 
energy

$$$$
74:0
     RDKit          3D

 38 40  0  0  0  0  0  0  0  0999 V2000
   54.7870   26.3430   45.9870 O   0  0  0  0  0  0  0  0  0  0  0  0
   56.0040   26.2350   46.2950 C   0  0  0  0  0  0  0  0  0  0  0  0
   56.3870   25.2400   47.1870 O   0  0  0  0  0  0  0  0  0  0  0  0
   57.0110   27.1520   45.7170 C   0  0  0  0  0  0  0  0  0  0  0  0
   58.3860   26.9040   45.8860 C   0  0  0  0  0  0  0  0  0  0  0  0
   59.3340   27.7750   45.3420 C   0  0  0  0  0  0  0  0  0  0  0  0
   58.9220   28.9010   44.6260 C   0  0  0  0  0  0  0  0  0  0  0  0
   57.5590   29.1610   44.4530 C   0  0  0  0  0  0  0  0  0  0  0  0
   57.0310   30.6180   43.5510 S   0  0  0  0  0  0  0  0  0  0  0  0
   57.7080   31.7230   44.7840 C   0  0  0  0  0  0  0  0  0  0  0  0
   57.8700   33.0800   44.5020 C   0  0  0  0  0  0  0  0  0  0  0  0
   58.3620   33.9270   45.4920 C   0  0  0  0  0  0  0  0  0  0  0  0
   58.6790   33.4240   46.7600 C   0  0  0  0  0  0  0  0  0  0  0  0
   59.2710   34.5790   48.0140 S   0  0  0  0  0  0  0  0  0  0  0  0
   60.9940   34.1000   47.8420 C   0  0  0  0  0  0  0  0  0  0  0  0
   61.5300   33.8430   46.5710 C   0  0  0  0  0  0  0  0  0  0  0  0
   62.8700   33.4680   46.4370 C   0  0  0  0  0  0  0  0  0  0  0  0
   63.6760   33.3330   47.5720 C   0  0  0  0  0  0  0  0  0  0  0  0
   63.1380   33.5610   48.8420 C   0  0  0  0  0  0  0  0  0  0  0  0
   61.7980   33.9370   48.9770 C   0  0  0  0  0  0  0  0  0  0  0  0
   58.5520   32.0330   46.9940 C   0  0  0  0  0  0  0  0  0  0  0  0
   58.9220   31.3910   48.3050 C   0  0  0  0  0  0  0  0  0  0  0  0
   60.2910   31.4140   48.4920 F   0  0  0  0  0  0  0  0  0  0  0  0
   58.3000   32.0570   49.3420 F   0  0  0  0  0  0  0  0  0  0  0  0
   58.5070   30.0710   48.3230 F   0  0  0  0  0  0  0  0  0  0  0  0
   58.0560   31.2390   46.0040 N   0  0  0  0  0  0  0  0  0  0  0  0
   56.6060   28.2870   44.9930 C   0  0  0  0  0  0  0  0  0  0  0  0
   58.7166   26.0192   46.4497 H   0  0  0  0  0  0  0  0  0  0  0  0
   60.4067   27.5732   45.4781 H   0  0  0  0  0  0  0  0  0  0  0  0
   59.6704   29.5840   44.1977 H   0  0  0  0  0  0  0  0  0  0  0  0
   57.6120   33.4763   43.5088 H   0  0  0  0  0  0  0  0  0  0  0  0
   58.5023   34.9966   45.2769 H   0  0  0  0  0  0  0  0  0  0  0  0
   60.8944   33.9368   45.6781 H   0  0  0  0  0  0  0  0  0  0  0  0
   63.2907   33.2790   45.4384 H   0  0  0  0  0  0  0  0  0  0  0  0
   64.7329   33.0475   47.4654 H   0  0  0  0  0  0  0  0  0  0  0  0
   63.7691   33.4446   49.7354 H   0  0  0  0  0  0  0  0  0  0  0  0
   61.3740   34.1053   49.9779 H   0  0  0  0  0  0  0  0  0  0  0  0
   55.5345   28.4902   44.8495 H   0  0  0  0  0  0  0  0  0  0  0  0
  1  2  2  0
  2  3  1  0
  2  4  1  0
  4  5  2  0
  5  6  1  0
  6  7  2  0
  7  8  1  0
  8  9  1  0
  9 10  1  0
 10 11  2  0
 11 12  1  0
 12 13  2  0
 13 14  1  0
 14 15  1  0
 15 16  2  0
 16 17  1  0
 17 18  2  0
 18 19  1  0
 19 20  2  0
 13 21  1  0
 21 22  1  0
 22 23  1  0
 22 24  1  0
 22 25  1  0
 21 26  2  0
  8 27  2  0
 27  4  1  0
 26 10  1  0
 20 15  1  0
  5 28  1  0
  6 29  1  0
  7 30  1  0
 11 31  1  0
 12 32  1  0
 16 33  1  0
 17 34  1  0
 18 35  1  0
 19 36  1  0
 20 37  1  0
 27 38  1  0
M  CHG  1   3  -1
M  END
>  <UniqueID>  (75) 
69

>  <SMILES>  (75) 
O=C([O-])c1cccc(Sc2ccc(Sc3ccccc3)c(C(F)(F)F)n2)c1

>  <Energy>  (75) 
35.113535009307654

>  <Genealogy>  (75) 
O=C([O-])c1cccc(Sc2ccc(Sc3ccccc3)c(C(F)(F)F)n2)c1 (protonated)
O=C([O-])c1cccc(Sc2ccc(Sc3ccccc3)c(C(F)(F)F)n2)c1 (3D coordinates assigned)
O=C([O-])c1cccc(Sc2ccc(Sc3ccccc3)c(C(F)(F)F)n2)c1 (optimized conformer: 35.113535009307654 kcal/mol)

>  <smiles>  (75) 
O=C(O)c1cccc(Sc2ccc(Sc3ccccc3)c(C(F)(F)F)n2)c1

>  <score_type>  (75) 
oracle

>  <origin>  (75) 
adg

>  <m_score__min__energy>  (75) 
-12.039999999999999

>  <m_primary>  (75) 
energy

$$$$
75:0
     RDKit          3D

 34 35  0  0  0  0  0  0  0  0999 V2000
   61.8529   32.9272   50.5690 H   0  0  0  0  0  0  0  0  0  0  0  0
   62.1120   33.1830   49.5310 C   0  0  0  0  0  0  0  0  0  0  0  0
   61.1880   33.6020   48.6270 N   0  0  0  0  0  0  0  0  0  0  0  0
   61.7530   33.8560   47.4240 C   0  0  0  0  0  0  0  0  0  0  0  0
   61.1000   34.2720   46.3800 N   0  0  0  0  0  0  0  0  0  0  0  0
   59.9150   33.6770   45.8250 C   0  0  0  0  0  0  0  0  0  0  0  0
   59.6240   33.8520   44.6100 O   0  0  0  0  0  0  0  0  0  0  0  0
   59.0650   32.8690   46.6780 N   0  0  1  0  0  0  0  0  0  0  0  0
   59.3040   33.1220   47.6680 H   0  0  0  0  0  0  0  0  0  0  0  0
   57.6360   33.2080   46.5150 C   0  0  0  0  0  0  0  0  0  0  0  0
   57.5351   34.3034   46.5167 H   0  0  0  0  0  0  0  0  0  0  0  0
   57.0938   32.7393   47.3494 H   0  0  0  0  0  0  0  0  0  0  0  0
   57.0240   32.6640   45.2130 C   0  0  0  0  0  0  0  0  0  0  0  0
   57.4115   33.2468   44.3644 H   0  0  0  0  0  0  0  0  0  0  0  0
   55.9297   32.7538   45.2804 H   0  0  0  0  0  0  0  0  0  0  0  0
   57.3610   31.2470   45.0140 N   0  0  0  0  0  0  0  0  0  0  0  0
   56.4740   30.3760   44.2710 C   0  0  0  0  0  0  0  0  0  0  0  0
   55.5390   29.7730   44.8650 O   0  0  0  0  0  0  0  0  0  0  0  0
   56.6150   30.1760   42.7910 C   0  0  0  0  0  0  0  0  0  0  0  0
   57.2390   29.2909   42.5984 H   0  0  0  0  0  0  0  0  0  0  0  0
   55.6206   30.0277   42.3447 H   0  0  0  0  0  0  0  0  0  0  0  0
   57.0887   31.0628   42.3447 H   0  0  0  0  0  0  0  0  0  0  0  0
   58.7530   30.8310   45.2320 C   0  0  0  0  0  0  0  0  0  0  0  0
   59.3727   31.1954   44.3994 H   0  0  0  0  0  0  0  0  0  0  0  0
   58.7882   29.7328   45.2842 H   0  0  0  0  0  0  0  0  0  0  0  0
   59.2960   31.4050   46.5540 C   0  0  1  0  0  0  0  0  0  0  0  0
   58.7239   30.9408   47.3709 H   0  0  0  0  0  0  0  0  0  0  0  0
   60.7760   31.0300   46.7500 C   0  0  0  0  0  0  0  0  0  0  0  0
   61.0005   30.9731   47.8253 H   0  0  0  0  0  0  0  0  0  0  0  0
   60.9719   30.0538   46.2824 H   0  0  0  0  0  0  0  0  0  0  0  0
   61.4131   31.7951   46.2824 H   0  0  0  0  0  0  0  0  0  0  0  0
   63.4090   33.5730   47.4260 S   0  0  0  0  0  0  0  0  0  0  0  0
   63.4100   33.1030   49.0410 C   0  0  0  0  0  0  0  0  0  0  0  0
   64.9460   32.5550   50.0260 Br  0  0  0  0  0  0  0  0  0  0  0  0
  1  2  1  0
  2  3  1  0
  3  4  1  0
  4  5  2  0
  5  6  1  0
  6  7  2  0
  6  8  1  0
  8  9  1  1
  8 10  1  0
 10 11  1  0
 10 12  1  0
 10 13  1  0
 13 14  1  0
 13 15  1  0
 13 16  1  0
 16 17  1  0
 17 18  2  0
 17 19  1  0
 19 20  1  0
 19 21  1  0
 19 22  1  0
 16 23  1  0
 23 24  1  0
 23 25  1  0
 23 26  1  0
 26 27  1  1
 26 28  1  0
 28 29  1  0
 28 30  1  0
 28 31  1  0
  4 32  1  0
 32 33  1  0
 33 34  1  0
 33  2  2  0
 26  8  1  0
M  CHG  2   3  -1   8   1
M  END
>  <UniqueID>  (76) 
70

>  <SMILES>  (76) 
CC(=O)N1CC[N@H+](C(=O)/N=c2\[n-]cc(Br)s2)[C@H](C)C1

>  <Energy>  (76) 
70.98050281228822

>  <Genealogy>  (76) 
CC(=O)N1CC[NH+](C(=O)N=c2[n-]cc(Br)s2)C(C)C1 (protonated)
CC(=O)N1CC[N@H+](C(=O)N=c2[n-]cc(Br)s2)[C@H](C)C1 (chirality)
CC(=O)N1CC[N@H+](C(=O)/N=c2\[n-]cc(Br)s2)[C@H](C)C1 (cis-trans isomerization)
CC(=O)N1CC[N@H+](C(=O)/N=c2\[n-]cc(Br)s2)[C@H](C)C1 (3D coordinates assigned)
CC(=O)N1CC[N@H+](C(=O)/N=c2\[n-]cc(Br)s2)[C@H](C)C1 (nonaromatic ring conformer: 70.98050281228822 kcal/mol)

>  <smiles>  (76) 
CC(=O)N1CCN(C(=O)N=c2[nH]cc(Br)s2)C(C)C1

>  <score_type>  (76) 
oracle

>  <origin>  (76) 
adg

>  <m_score__min__energy>  (76) 
-7.7400000000000002

>  <m_primary>  (76) 
energy

$$$$
76:0
     RDKit          3D

 38 39  0  0  0  0  0  0  0  0999 V2000
   57.4520   30.2940   44.2510 C   0  0  0  0  0  0  0  0  0  0  0  0
   57.0780   31.1870   45.2940 O   0  0  0  0  0  0  0  0  0  0  0  0
   57.8150   32.2950   45.7590 C   0  0  0  0  0  0  0  0  0  0  0  0
   57.8050   33.4350   44.9430 C   0  0  0  0  0  0  0  0  0  0  0  0
   58.5000   34.5880   45.3120 C   0  0  0  0  0  0  0  0  0  0  0  0
   59.2020   34.6230   46.5150 C   0  0  0  0  0  0  0  0  0  0  0  0
   59.2230   33.5020   47.3460 C   0  0  0  0  0  0  0  0  0  0  0  0
   58.5540   32.3190   46.9740 C   0  0  0  0  0  0  0  0  0  0  0  0
   58.5590   31.1810   47.8490 N   0  0  0  0  0  0  0  0  0  0  0  0
   58.7140   31.1920   49.2730 C   0  0  0  0  0  0  0  0  0  0  0  0
   58.6960   32.2760   49.9180 O   0  0  0  0  0  0  0  0  0  0  0  0
   58.9040   29.9030   50.0020 C   0  0  0  0  0  0  0  0  0  0  0  0
   58.9450   30.2120   51.8000 S   0  0  0  0  0  0  0  0  0  0  0  0
   57.1740   30.4280   51.9620 C   0  0  0  0  0  0  0  0  0  0  0  0
   56.3800   29.3540   52.2020 N   0  0  0  0  0  0  0  0  0  0  0  0
   55.0390   29.5050   52.3520 C   0  0  0  0  0  0  0  0  0  0  0  0
   54.3220   28.4960   52.5870 O   0  0  0  0  0  0  0  0  0  0  0  0
   54.4760   30.7860   52.2490 C   0  0  0  0  0  0  0  0  0  0  0  0
   52.9980   31.0330   52.4150 C   0  0  0  0  0  0  0  0  0  0  0  0
   52.2450   31.0330   51.0760 C   0  0  0  0  0  0  0  0  0  0  0  0
   51.3890   32.2510   50.9040 C   0  0  0  0  0  0  0  0  0  0  0  0
   51.0040   32.8970   51.9140 O   0  0  0  0  0  0  0  0  0  0  0  0
   51.0330   32.6830   49.6320 O   0  0  0  0  0  0  0  0  0  0  0  0
   55.3050   31.8360   52.0040 N   0  0  0  0  0  0  0  0  0  0  0  0
   56.6220   31.6650   51.8720 N   0  0  0  0  0  0  0  0  0  0  0  0
   57.8420   29.3628   44.6878 H   0  0  0  0  0  0  0  0  0  0  0  0
   56.5731   30.0675   43.6295 H   0  0  0  0  0  0  0  0  0  0  0  0
   58.2300   30.7614   43.6295 H   0  0  0  0  0  0  0  0  0  0  0  0
   57.2414   33.4207   43.9985 H   0  0  0  0  0  0  0  0  0  0  0  0
   58.4934   35.4688   44.6531 H   0  0  0  0  0  0  0  0  0  0  0  0
   59.7405   35.5356   46.8102 H   0  0  0  0  0  0  0  0  0  0  0  0
   59.7673   33.5424   48.3010 H   0  0  0  0  0  0  0  0  0  0  0  0
   58.0712   29.2239   49.7668 H   0  0  0  0  0  0  0  0  0  0  0  0
   59.8542   29.4451   49.6898 H   0  0  0  0  0  0  0  0  0  0  0  0
   52.5785   30.2429   53.0551 H   0  0  0  0  0  0  0  0  0  0  0  0
   52.8752   32.0286   52.8663 H   0  0  0  0  0  0  0  0  0  0  0  0
   52.9791   30.9983   50.2575 H   0  0  0  0  0  0  0  0  0  0  0  0
   51.5847   30.1533   51.0616 H   0  0  0  0  0  0  0  0  0  0  0  0
  1  2  1  0
  2  3  1  0
  3  4  2  0
  4  5  1  0
  5  6  2  0
  6  7  1  0
  7  8  2  0
  8  9  1  0
  9 10  1  0
 10 11  2  0
 10 12  1  0
 12 13  1  0
 13 14  1  0
 14 15  2  0
 15 16  1  0
 16 17  2  0
 16 18  1  0
 18 19  1  0
 19 20  1  0
 20 21  1  0
 21 22  2  0
 21 23  1  0
 18 24  2  0
 24 25  1  0
  8  3  1  0
 25 14  1  0
  1 26  1  0
  1 27  1  0
  1 28  1  0
  4 29  1  0
  5 30  1  0
  6 31  1  0
  7 32  1  0
 12 33  1  0
 12 34  1  0
 19 35  1  0
 19 36  1  0
 20 37  1  0
 20 38  1  0
M  CHG  3   9  -1  23  -1  25  -1
M  END
>  <UniqueID>  (77) 
71

>  <SMILES>  (77) 
COc1ccccc1[N-]C(=O)CSc1nc(=O)c(CCC(=O)[O-])n[n-]1

>  <Energy>  (77) 
38.216902766547115

>  <Genealogy>  (77) 
COc1ccccc1[N-]C(=O)CSc1nc(=O)c(CCC(=O)[O-])n[n-]1 (protonated)
COc1ccccc1[N-]C(=O)CSc1nc(=O)c(CCC(=O)[O-])n[n-]1 (3D coordinates assigned)
COc1ccccc1[N-]C(=O)CSc1nc(=O)c(CCC(=O)[O-])n[n-]1 (optimized conformer: 38.216902766547115 kcal/mol)

>  <smiles>  (77) 
COc1ccccc1NC(=O)CSc1nc(=O)c(CCC(=O)O)n[nH]1

>  <score_type>  (77) 
oracle

>  <origin>  (77) 
adg

>  <m_score__min__energy>  (77) 
-13.18

>  <m_primary>  (77) 
energy

$$$$
77:0
     RDKit          3D

 35 37  0  0  0  0  0  0  0  0999 V2000
   58.7264   25.7331   46.7933 H   0  0  0  0  0  0  0  0  0  0  0  0
   58.5150   26.7100   46.3340 C   0  0  0  0  0  0  0  0  0  0  0  0
   59.5480   27.6400   46.1800 C   0  0  0  0  0  0  0  0  0  0  0  0
   60.8040   27.3270   46.5830 F   0  0  0  0  0  0  0  0  0  0  0  0
   59.2910   28.8870   45.6100 C   0  0  0  0  0  0  0  0  0  0  0  0
   60.1076   29.6123   45.4792 H   0  0  0  0  0  0  0  0  0  0  0  0
   57.9920   29.2130   45.2050 C   0  0  0  0  0  0  0  0  0  0  0  0
   56.9560   28.2790   45.3360 C   0  0  0  0  0  0  0  0  0  0  0  0
   57.2060   27.0110   45.9070 C   0  0  0  0  0  0  0  0  0  0  0  0
   56.1280   26.0010   46.0740 C   0  0  0  0  0  0  0  0  0  0  0  0
   54.9210   26.3560   45.9950 O   0  0  0  0  0  0  0  0  0  0  0  0
   56.4410   24.6520   46.4360 N   0  0  0  0  0  0  0  0  0  0  0  0
   56.9270   23.6990   45.6900 C   0  0  0  0  0  0  0  0  0  0  0  0
   58.1480   23.1050   45.9370 C   0  0  0  0  0  0  0  0  0  0  0  0
   58.8585   23.3397   46.7433 H   0  0  0  0  0  0  0  0  0  0  0  0
   58.2800   22.1520   44.9490 C   0  0  0  0  0  0  0  0  0  0  0  0
   59.1324   21.4668   44.8311 H   0  0  0  0  0  0  0  0  0  0  0  0
   57.1940   22.1970   44.1510 N   0  0  0  0  0  0  0  0  0  0  0  0
   56.9990   21.3640   42.9650 C   0  0  0  0  0  0  0  0  0  0  0  0
   56.7584   20.3362   43.2744 H   0  0  0  0  0  0  0  0  0  0  0  0
   56.1715   21.7693   42.3643 H   0  0  0  0  0  0  0  0  0  0  0  0
   57.9205   21.3599   42.3643 H   0  0  0  0  0  0  0  0  0  0  0  0
   56.3730   23.1570   44.5710 N   0  0  0  0  0  0  0  0  0  0  0  0
   55.1740   23.5880   43.8410 C   0  0  0  0  0  0  0  0  0  0  0  0
   54.3894   23.8700   44.5586 H   0  0  0  0  0  0  0  0  0  0  0  0
   55.4210   24.4536   43.2088 H   0  0  0  0  0  0  0  0  0  0  0  0
   54.8134   22.7632   43.2088 H   0  0  0  0  0  0  0  0  0  0  0  0
   55.6800   28.6560   44.9100 O   0  0  0  0  0  0  0  0  0  0  0  0
   55.4780   29.8860   44.2160 C   0  0  0  0  0  0  0  0  0  0  0  0
   55.7144   29.7446   43.1510 H   0  0  0  0  0  0  0  0  0  0  0  0
   54.4282   30.1935   44.3319 H   0  0  0  0  0  0  0  0  0  0  0  0
   56.3150   30.8960   44.7500 O   0  0  0  0  0  0  0  0  0  0  0  0
   57.6760   30.5400   44.5630 C   0  0  0  0  0  0  0  0  0  0  0  0
   57.8836   30.4741   43.4848 H   0  0  0  0  0  0  0  0  0  0  0  0
   58.3029   31.3106   45.0355 H   0  0  0  0  0  0  0  0  0  0  0  0
  1  2  1  0
  2  3  2  0
  3  4  1  0
  3  5  1  0
  5  6  1  0
  5  7  2  0
  7  8  1  0
  8  9  2  0
  9 10  1  0
 10 11  2  0
 10 12  1  0
 12 13  2  0
 13 14  1  0
 14 15  1  0
 14 16  2  0
 16 17  1  0
 16 18  1  0
 18 19  1  0
 19 20  1  0
 19 21  1  0
 19 22  1  0
 18 23  1  0
 23 24  1  0
 24 25  1  0
 24 26  1  0
 24 27  1  0
  8 28  1  0
 28 29  1  0
 29 30  1  0
 29 31  1  0
 29 32  1  0
 32 33  1  0
 33 34  1  0
 33 35  1  0
  9  2  1  0
 23 13  1  0
 33  7  1  0
M  END
>  <UniqueID>  (78) 
72

>  <SMILES>  (78) 
Cn1cc/c(=N/C(=O)c2cc(F)cc3c2OCOC3)n1C

>  <Energy>  (78) 
87.16959911874574

>  <Genealogy>  (78) 
Cn1cc/c(=N/C(=O)c2cc(F)cc3c2OCOC3)n1C (cis-trans isomerization)
Cn1cc/c(=N/C(=O)c2cc(F)cc3c2OCOC3)n1C (3D coordinates assigned)
Cn1cc/c(=N/C(=O)c2cc(F)cc3c2OCOC3)n1C (nonaromatic ring conformer: 87.16959911874574 kcal/mol)

>  <smiles>  (78) 
Cn1ccc(=NC(=O)c2cc(F)cc3c2OCOC3)n1C

>  <score_type>  (78) 
oracle

>  <origin>  (78) 
adg

>  <m_score__min__energy>  (78) 
-7.25

>  <m_primary>  (78) 
energy

$$$$
78:0
     RDKit          3D

 48 50  0  0  0  0  0  0  0  0999 V2000
   59.1950   34.5420   45.2900 C   0  0  0  0  0  0  0  0  0  0  0  0
   57.7650   34.0210   45.2100 C   0  0  0  0  0  0  0  0  0  0  0  0
   57.6250   33.0860   44.1380 O   0  0  0  0  0  0  0  0  0  0  0  0
   57.4700   31.6970   44.2820 C   0  0  0  0  0  0  0  0  0  0  0  0
   57.0320   30.8650   43.2330 C   0  0  0  0  0  0  0  0  0  0  0  0
   56.8930   29.4890   43.4370 C   0  0  0  0  0  0  0  0  0  0  0  0
   57.1670   28.9230   44.6870 C   0  0  0  0  0  0  0  0  0  0  0  0
   57.0240   27.5050   44.8480 N   0  0  0  0  0  0  0  0  0  0  0  0
   56.4020   26.8370   45.9530 C   0  0  0  0  0  0  0  0  0  0  0  0
   55.1490   26.7010   45.9990 O   0  0  0  0  0  0  0  0  0  0  0  0
   57.2620   26.1960   47.0000 C   0  0  0  0  0  0  0  0  0  0  0  0
   58.2920   25.3480   46.3880 N   0  0  0  0  0  0  0  0  0  0  0  0
   57.8870   24.1320   45.6740 C   0  0  0  0  0  0  0  0  0  0  0  0
   59.6490   25.8260   46.2870 C   0  0  0  0  0  0  0  0  0  0  0  0
   60.5740   25.0200   45.9940 O   0  0  0  0  0  0  0  0  0  0  0  0
   59.9910   27.2450   46.5230 C   0  0  0  0  0  0  0  0  0  0  0  0
   60.4820   28.0340   45.4710 C   0  0  0  0  0  0  0  0  0  0  0  0
   60.7870   29.3810   45.6800 C   0  0  0  0  0  0  0  0  0  0  0  0
   60.5910   29.9590   46.9390 C   0  0  0  0  0  0  0  0  0  0  0  0
   60.0380   29.1960   47.9830 C   0  0  0  0  0  0  0  0  0  0  0  0
   59.7560   27.8380   47.7750 C   0  0  0  0  0  0  0  0  0  0  0  0
   59.6700   29.8210   49.2230 N   0  0  0  0  0  0  0  0  0  0  0  0
   59.4150   31.2300   49.3060 C   0  0  0  0  0  0  0  0  0  0  0  0
   59.0180   31.7300   50.3910 O   0  0  0  0  0  0  0  0  0  0  0  0
   59.5560   32.1000   48.0920 C   0  0  0  0  0  0  0  0  0  0  0  0
   61.0930   31.6620   47.2230 S   0  0  0  0  0  0  0  0  0  0  0  0
   57.6220   29.7500   45.7280 C   0  0  0  0  0  0  0  0  0  0  0  0
   57.7620   31.1260   45.5260 C   0  0  0  0  0  0  0  0  0  0  0  0
   59.4879   34.6487   46.3449 H   0  0  0  0  0  0  0  0  0  0  0  0
   59.8721   33.8328   44.7914 H   0  0  0  0  0  0  0  0  0  0  0  0
   59.2572   35.5205   44.7914 H   0  0  0  0  0  0  0  0  0  0  0  0
   57.5085   33.5245   46.1575 H   0  0  0  0  0  0  0  0  0  0  0  0
   57.0899   34.8701   45.0278 H   0  0  0  0  0  0  0  0  0  0  0  0
   56.7985   31.2996   42.2498 H   0  0  0  0  0  0  0  0  0  0  0  0
   56.5653   28.8454   42.6073 H   0  0  0  0  0  0  0  0  0  0  0  0
   57.7500   26.9819   47.5952 H   0  0  0  0  0  0  0  0  0  0  0  0
   56.6252   25.5674   47.6398 H   0  0  0  0  0  0  0  0  0  0  0  0
   57.6263   23.3492   46.4015 H   0  0  0  0  0  0  0  0  0  0  0  0
   57.0134   24.3513   45.0426 H   0  0  0  0  0  0  0  0  0  0  0  0
   58.7177   23.7837   45.0426 H   0  0  0  0  0  0  0  0  0  0  0  0
   60.6275   27.5887   44.4757 H   0  0  0  0  0  0  0  0  0  0  0  0
   61.1822   29.9888   44.8528 H   0  0  0  0  0  0  0  0  0  0  0  0
   59.3479   27.2328   48.5979 H   0  0  0  0  0  0  0  0  0  0  0  0
   59.4590   29.2250   50.0550 H   0  0  0  0  0  0  0  0  0  0  0  0
   58.6968   31.9421   47.4235 H   0  0  0  0  0  0  0  0  0  0  0  0
   59.5891   33.1570   48.3947 H   0  0  0  0  0  0  0  0  0  0  0  0
   57.8692   29.3124   46.7065 H   0  0  0  0  0  0  0  0  0  0  0  0
   58.1048   31.7660   46.3524 H   0  0  0  0  0  0  0  0  0  0  0  0
  1  2  1  0
  2  3  1  0
  3  4  1  0
  4  5  2  0
  5  6  1  0
  6  7  2  0
  7  8  1  0
  8  9  1  0
  9 10  2  0
  9 11  1  0
 11 12  1  0
 12 13  1  0
 12 14  1  0
 14 15  2  0
 14 16  1  0
 16 17  2  0
 17 18  1  0
 18 19  2  0
 19 20  1  0
 20 21  2  0
 20 22  1  0
 22 23  1  0
 23 24  2  0
 23 25  1  0
 25 26  1  0
  7 27  1  0
 27 28  2  0
 28  4  1  0
 21 16  1  0
 26 19  1  0
  1 29  1  0
  1 30  1  0
  1 31  1  0
  2 32  1  0
  2 33  1  0
  5 34  1  0
  6 35  1  0
 11 36  1  0
 11 37  1  0
 13 38  1  0
 13 39  1  0
 13 40  1  0
 17 41  1  0
 18 42  1  0
 21 43  1  0
 22 44  1  0
 25 45  1  0
 25 46  1  0
 27 47  1  0
 28 48  1  0
M  CHG  1   8  -1
M  END
>  <UniqueID>  (79) 
73

>  <SMILES>  (79) 
CCOc1ccc([N-]C(=O)CN(C)C(=O)c2ccc3c(c2)NC(=O)CS3)cc1

>  <Energy>  (79) 
57.4255703256592

>  <Genealogy>  (79) 
CCOc1ccc([N-]C(=O)CN(C)C(=O)c2ccc3c(c2)NC(=O)CS3)cc1 (protonated)
CCOc1ccc([N-]C(=O)CN(C)C(=O)c2ccc3c(c2)NC(=O)CS3)cc1 (3D coordinates assigned)
CCOc1ccc([N-]C(=O)CN(C)C(=O)c2ccc3c(c2)NC(=O)CS3)cc1 (nonaromatic ring conformer: 57.4255703256592 kcal/mol)

>  <smiles>  (79) 
CCOc1ccc(NC(=O)CN(C)C(=O)c2ccc3c(c2)NC(=O)CS3)cc1

>  <score_type>  (79) 
oracle

>  <origin>  (79) 
adg

>  <m_score__min__energy>  (79) 
-9.9600000000000009

>  <m_primary>  (79) 
energy

$$$$
79:0
     RDKit          3D

 58 60  0  0  0  0  0  0  0  0999 V2000
   59.6440   35.2780   45.8140 C   0  0  0  0  0  0  0  0  0  0  0  0
   60.1960   33.9810   46.4160 C   0  0  0  0  0  0  0  0  0  0  0  0
   59.8370   33.8040   47.9070 C   0  0  0  0  0  0  0  0  0  0  0  0
   58.5740   32.9570   48.1740 C   0  0  1  0  0  0  0  0  0  0  0  0
   58.1510   32.1970   46.9430 C   0  0  0  0  0  0  0  0  0  0  0  0
   57.5510   32.8070   46.0150 O   0  0  0  0  0  0  0  0  0  0  0  0
   58.4780   30.8060   46.8080 N   0  0  0  0  0  0  0  0  0  0  0  0
   58.4000   30.1390   45.5040 C   0  0  0  0  0  0  0  0  0  0  0  0
   56.9650   29.8780   45.1290 C   0  0  0  0  0  0  0  0  0  0  0  0
   56.2900   30.8120   44.6240 O   0  0  0  0  0  0  0  0  0  0  0  0
   56.3570   28.5850   45.2640 N   0  0  0  0  0  0  0  0  0  0  0  0
   57.0020   27.3650   45.6570 C   0  0  0  0  0  0  0  0  0  0  0  0
   58.4020   27.3120   45.6170 C   0  0  0  0  0  0  0  0  0  0  0  0
   59.0820   26.1530   46.0050 C   0  0  0  0  0  0  0  0  0  0  0  0
   58.3590   25.0330   46.4110 C   0  0  0  0  0  0  0  0  0  0  0  0
   56.9640   25.0570   46.4210 C   0  0  0  0  0  0  0  0  0  0  0  0
   56.2690   26.2150   46.0240 C   0  0  0  0  0  0  0  0  0  0  0  0
   54.8690   26.2440   45.9630 O   0  0  0  0  0  0  0  0  0  0  0  0
   54.0440   25.1340   45.6260 C   0  0  0  0  0  0  0  0  0  0  0  0
   58.8160   30.0830   48.0010 C   0  0  0  0  0  0  0  0  0  0  0  0
   59.0850   28.8540   47.9550 O   0  0  0  0  0  0  0  0  0  0  0  0
   58.8230   30.7550   49.2610 N   0  0  0  0  0  0  0  0  0  0  0  0
   58.7290   32.0470   49.3790 C   0  0  0  0  0  0  0  0  0  0  0  0
   58.6020   32.7580   51.0300 S   0  0  0  0  0  0  0  0  0  0  0  0
   60.3570   33.2640   51.2000 C   0  0  0  0  0  0  0  0  0  0  0  0
   61.2520   32.0990   51.4650 C   0  0  0  0  0  0  0  0  0  0  0  0
   60.8240   31.1300   52.1430 O   0  0  0  0  0  0  0  0  0  0  0  0
   62.5420   32.0510   50.8560 N   0  0  0  0  0  0  0  0  0  0  0  0
   62.9100   32.3690   49.5060 C   0  0  0  0  0  0  0  0  0  0  0  0
   62.5470   31.4740   48.4910 C   0  0  0  0  0  0  0  0  0  0  0  0
   62.8020   31.7670   47.1510 C   0  0  0  0  0  0  0  0  0  0  0  0
   63.4050   32.9750   46.8100 C   0  0  0  0  0  0  0  0  0  0  0  0
   63.7710   33.8800   47.8120 C   0  0  0  0  0  0  0  0  0  0  0  0
   63.5210   33.5870   49.1540 C   0  0  0  0  0  0  0  0  0  0  0  0
   59.3524   35.9631   46.6237 H   0  0  0  0  0  0  0  0  0  0  0  0
   60.4181   35.7526   45.1931 H   0  0  0  0  0  0  0  0  0  0  0  0
   58.7653   35.0492   45.1931 H   0  0  0  0  0  0  0  0  0  0  0  0
   59.7834   33.1306   45.8533 H   0  0  0  0  0  0  0  0  0  0  0  0
   61.2928   34.0281   46.3463 H   0  0  0  0  0  0  0  0  0  0  0  0
   60.6870   33.3178   48.4080 H   0  0  0  0  0  0  0  0  0  0  0  0
   59.6218   34.8106   48.2947 H   0  0  0  0  0  0  0  0  0  0  0  0
   57.7647   33.6596   48.4218 H   0  0  0  0  0  0  0  0  0  0  0  0
   58.8623   30.7819   44.7405 H   0  0  0  0  0  0  0  0  0  0  0  0
   58.9320   29.1781   45.5640 H   0  0  0  0  0  0  0  0  0  0  0  0
   58.9711   28.1899   45.2774 H   0  0  0  0  0  0  0  0  0  0  0  0
   60.1816   26.1257   45.9898 H   0  0  0  0  0  0  0  0  0  0  0  0
   58.8918   24.1236   46.7258 H   0  0  0  0  0  0  0  0  0  0  0  0
   56.4040   24.1659   46.7410 H   0  0  0  0  0  0  0  0  0  0  0  0
   53.6850   24.6510   46.5468 H   0  0  0  0  0  0  0  0  0  0  0  0
   53.1839   25.4824   45.0354 H   0  0  0  0  0  0  0  0  0  0  0  0
   54.6256   24.4108   45.0354 H   0  0  0  0  0  0  0  0  0  0  0  0
   60.6774   33.7532   50.2683 H   0  0  0  0  0  0  0  0  0  0  0  0
   60.4311   33.9508   52.0560 H   0  0  0  0  0  0  0  0  0  0  0  0
   62.0539   30.5267   48.7544 H   0  0  0  0  0  0  0  0  0  0  0  0
   62.5277   31.0463   46.3666 H   0  0  0  0  0  0  0  0  0  0  0  0
   63.5934   33.2174   45.7537 H   0  0  0  0  0  0  0  0  0  0  0  0
   64.2586   34.8280   47.5410 H   0  0  0  0  0  0  0  0  0  0  0  0
   63.8015   34.3080   49.9360 H   0  0  0  0  0  0  0  0  0  0  0  0
  1  2  1  0
  2  3  1  0
  3  4  1  0
  4  5  1  0
  5  6  2  0
  5  7  1  0
  7  8  1  0
  8  9  1  0
  9 10  2  0
  9 11  1  0
 11 12  1  0
 12 13  2  0
 13 14  1  0
 14 15  2  0
 15 16  1  0
 16 17  2  0
 17 18  1  0
 18 19  1  0
  7 20  1  0
 20 21  2  0
 20 22  1  0
 22 23  2  0
 23 24  1  0
 24 25  1  0
 25 26  1  0
 26 27  2  0
 26 28  1  0
 28 29  1  0
 29 30  2  0
 30 31  1  0
 31 32  2  0
 32 33  1  0
 33 34  2  0
 23  4  1  0
 34 29  1  0
 17 12  1  0
  1 35  1  0
  1 36  1  0
  1 37  1  0
  2 38  1  0
  2 39  1  0
  3 40  1  0
  3 41  1  0
  4 42  1  1
  8 43  1  0
  8 44  1  0
 13 45  1  0
 14 46  1  0
 15 47  1  0
 16 48  1  0
 19 49  1  0
 19 50  1  0
 19 51  1  0
 25 52  1  0
 25 53  1  0
 30 54  1  0
 31 55  1  0
 32 56  1  0
 33 57  1  0
 34 58  1  0
M  CHG  2  11  -1  28  -1
M  END
>  <UniqueID>  (80) 
74

>  <SMILES>  (80) 
CCC[C@H]1C(=O)N(CC(=O)[N-]c2ccccc2OC)C(=O)N=C1SCC(=O)[N-]c1ccccc1

>  <Energy>  (80) 
63.30921593903639

>  <Genealogy>  (80) 
CCCC1C(=O)N(CC(=O)[N-]c2ccccc2OC)C(=O)N=C1SCC(=O)[N-]c1ccccc1 (protonated)
CCC[C@H]1C(=O)N(CC(=O)[N-]c2ccccc2OC)C(=O)N=C1SCC(=O)[N-]c1ccccc1 (chirality)
CCC[C@H]1C(=O)N(CC(=O)[N-]c2ccccc2OC)C(=O)N=C1SCC(=O)[N-]c1ccccc1 (3D coordinates assigned)
CCC[C@H]1C(=O)N(CC(=O)[N-]c2ccccc2OC)C(=O)N=C1SCC(=O)[N-]c1ccccc1 (nonaromatic ring conformer: 63.30921593903639 kcal/mol)

>  <smiles>  (80) 
CCCC1C(=O)N(CC(=O)Nc2ccccc2OC)C(=O)N=C1SCC(=O)Nc1ccccc1

>  <score_type>  (80) 
oracle

>  <origin>  (80) 
adg

>  <m_score__min__energy>  (80) 
-12.26

>  <m_primary>  (80) 
energy

$$$$
80:0
     RDKit          3D

 33 35  0  0  0  0  0  0  0  0999 V2000
   65.4514   33.0989   50.4297 H   0  0  0  0  0  0  0  0  0  0  0  0
   64.5260   33.1580   49.8380 C   0  0  0  0  0  0  0  0  0  0  0  0
   64.4360   32.5020   48.6520 N   0  0  0  0  0  0  0  0  0  0  0  0
   63.3110   32.5530   47.8900 C   0  0  0  0  0  0  0  0  0  0  0  0
   63.2738   32.0111   46.9335 H   0  0  0  0  0  0  0  0  0  0  0  0
   62.1950   33.2940   48.3170 C   0  0  0  0  0  0  0  0  0  0  0  0
   60.9590   33.3570   47.4950 C   0  0  0  0  0  0  0  0  0  0  0  0
   60.4750   34.5830   47.0150 C   0  0  0  0  0  0  0  0  0  0  0  0
   61.0142   35.5130   47.2480 H   0  0  0  0  0  0  0  0  0  0  0  0
   59.3140   34.6290   46.2440 C   0  0  0  0  0  0  0  0  0  0  0  0
   58.9373   35.5925   45.8701 H   0  0  0  0  0  0  0  0  0  0  0  0
   58.6280   33.4410   45.9470 C   0  0  0  0  0  0  0  0  0  0  0  0
   57.3930   33.4700   45.1290 C   0  0  0  0  0  0  0  0  0  0  0  0
   57.0890   34.5210   44.5010 O   0  0  0  0  0  0  0  0  0  0  0  0
   56.5540   32.3030   45.0550 N   0  0  0  0  0  0  0  0  0  0  0  0
   56.9110   31.0980   44.7160 C   0  0  0  0  0  0  0  0  0  0  0  0
   57.5470   30.2700   45.5950 N   0  0  0  0  0  0  0  0  0  0  0  0
   57.9250   29.0090   45.2520 C   0  0  0  0  0  0  0  0  0  0  0  0
   58.4350   28.3689   45.9870 H   0  0  0  0  0  0  0  0  0  0  0  0
   57.6660   28.5270   43.9680 C   0  0  0  0  0  0  0  0  0  0  0  0
   57.9699   27.5086   43.6843 H   0  0  0  0  0  0  0  0  0  0  0  0
   57.0170   29.3520   43.0480 C   0  0  0  0  0  0  0  0  0  0  0  0
   56.8052   28.9859   42.0326 H   0  0  0  0  0  0  0  0  0  0  0  0
   56.6370   30.6440   43.4200 C   0  0  0  0  0  0  0  0  0  0  0  0
   56.1261   31.3000   42.6998 H   0  0  0  0  0  0  0  0  0  0  0  0
   59.1140   32.2550   46.4210 N   0  0  0  0  0  0  0  0  0  0  0  0
   58.6200   31.3600   46.2070 H   0  0  0  0  0  0  0  0  0  0  0  0
   60.2450   32.1900   47.1760 C   0  0  0  0  0  0  0  0  0  0  0  0
   60.6028   31.2153   47.5393 H   0  0  0  0  0  0  0  0  0  0  0  0
   62.2790   33.9740   49.5450 C   0  0  0  0  0  0  0  0  0  0  0  0
   61.4220   34.5610   49.9068 H   0  0  0  0  0  0  0  0  0  0  0  0
   63.4470   33.9060   50.3060 C   0  0  0  0  0  0  0  0  0  0  0  0
   63.5154   34.4379   51.2664 H   0  0  0  0  0  0  0  0  0  0  0  0
  1  2  1  0
  2  3  2  0
  3  4  1  0
  4  5  1  0
  4  6  2  0
  6  7  1  0
  7  8  2  0
  8  9  1  0
  8 10  1  0
 10 11  1  0
 10 12  2  0
 12 13  1  0
 13 14  2  0
 13 15  1  0
 15 16  2  0
 16 17  1  0
 17 18  1  0
 18 19  1  0
 18 20  2  0
 20 21  1  0
 20 22  1  0
 22 23  1  0
 22 24  2  0
 24 25  1  0
 12 26  1  0
 26 27  1  0
 26 28  2  0
 28 29  1  0
  6 30  1  0
 30 31  1  0
 30 32  2  0
 32 33  1  0
 32  2  1  0
 28  7  1  0
 24 16  1  0
M  CHG  2  17  -1  26   1
M  END
>  <UniqueID>  (81) 
75

>  <SMILES>  (81) 
O=C(/N=c1/cccc[n-]1)c1ccc(-c2cccnc2)c[nH+]1

>  <Energy>  (81) 
46.209067436035454

>  <Genealogy>  (81) 
O=C(N=c1cccc[n-]1)c1ccc(-c2cccnc2)c[nH+]1 (protonated)
O=C(/N=c1/cccc[n-]1)c1ccc(-c2cccnc2)c[nH+]1 (cis-trans isomerization)
O=C(/N=c1/cccc[n-]1)c1ccc(-c2cccnc2)c[nH+]1 (3D coordinates assigned)
O=C(/N=c1/cccc[n-]1)c1ccc(-c2cccnc2)c[nH+]1 (optimized conformer: 46.209067436035454 kcal/mol)

>  <smiles>  (81) 
O=C(N=c1cccc[nH]1)c1ccc(-c2cccnc2)cn1

>  <score_type>  (81) 
oracle

>  <origin>  (81) 
adg

>  <m_score__min__energy>  (81) 
-6.5599999999999996

>  <m_primary>  (81) 
energy

$$$$
81:0
     RDKit          3D

 42 45  0  0  1  0  0  0  0  0999 V2000
   57.4310   26.0000   45.0690 O   0  0  0  0  0  0  0  0  0  0  0  0
   57.6210   27.1610   45.4920 C   0  0  0  0  0  0  0  0  0  0  0  0
   58.4520   27.3750   46.5720 C   0  0  0  0  0  0  0  0  0  0  0  0
   58.6630   28.6730   47.0430 C   0  0  0  0  0  0  0  0  0  0  0  0
   59.5730   28.8000   48.2090 C   0  0  0  0  0  0  0  0  0  0  0  0
   60.4800   29.9910   48.0350 C   0  0  0  0  0  0  0  0  0  0  0  0
   60.3320   31.0100   47.1690 N   0  0  0  0  0  0  0  0  0  0  0  0
   61.3470   31.8680   47.3230 C   0  0  0  0  0  0  0  0  0  0  0  0
   61.6710   33.0560   46.6990 C   0  0  0  0  0  0  0  0  0  0  0  0
   62.8250   33.7300   47.0970 C   0  0  0  0  0  0  0  0  0  0  0  0
   63.6200   33.2040   48.1030 C   0  0  0  0  0  0  0  0  0  0  0  0
   63.3000   32.0130   48.7330 C   0  0  0  0  0  0  0  0  0  0  0  0
   62.1570   31.3490   48.3350 C   0  0  0  0  0  0  0  0  0  0  0  0
   61.6110   30.1880   48.7680 N   0  0  0  0  0  0  0  0  0  0  0  0
   58.0620   29.7240   46.4540 N   0  0  0  0  0  0  0  0  0  0  0  0
   57.2420   29.4980   45.3880 C   0  0  0  0  0  0  0  0  0  0  0  0
   56.6640   30.5020   44.8210 N   0  0  0  0  0  0  0  0  0  0  0  0
   57.4870   31.4040   44.0280 C   0  0  0  0  0  0  0  0  0  0  0  0
   57.9690   32.5490   44.8400 C   0  0  0  0  0  0  0  0  0  0  0  0
   58.7840   33.5060   44.2370 C   0  0  0  0  0  0  0  0  0  0  0  0
   59.2690   34.5980   44.9340 C   0  0  0  0  0  0  0  0  0  0  0  0
   58.9390   34.7520   46.2660 C   0  0  0  0  0  0  0  0  0  0  0  0
   58.1340   33.8110   46.8670 C   0  0  0  0  0  0  0  0  0  0  0  0
   57.6370   32.7060   46.1820 C   0  0  0  0  0  0  0  0  0  0  0  0
   57.0390   28.2350   44.9310 N   0  0  0  0  0  0  0  0  0  0  0  0
   58.9481   26.5242   47.0619 H   0  0  0  0  0  0  0  0  0  0  0  0
   58.9756   28.9289   49.1236 H   0  0  0  0  0  0  0  0  0  0  0  0
   60.1865   27.8902   48.2858 H   0  0  0  0  0  0  0  0  0  0  0  0
   61.0308   33.4633   45.9027 H   0  0  0  0  0  0  0  0  0  0  0  0
   63.1039   34.6777   46.6132 H   0  0  0  0  0  0  0  0  0  0  0  0
   64.5273   33.7457   48.4085 H   0  0  0  0  0  0  0  0  0  0  0  0
   63.9400   31.6066   49.5300 H   0  0  0  0  0  0  0  0  0  0  0  0
   61.9830   29.5540   49.5260 H   0  0  0  0  0  0  0  0  0  0  0  0
   58.2340   30.6860   46.8250 H   0  0  0  0  0  0  0  0  0  0  0  0
   58.3543   30.8498   43.6399 H   0  0  0  0  0  0  0  0  0  0  0  0
   56.8751   31.7970   43.2027 H   0  0  0  0  0  0  0  0  0  0  0  0
   59.0491   33.3893   43.1758 H   0  0  0  0  0  0  0  0  0  0  0  0
   59.9113   35.3365   44.4321 H   0  0  0  0  0  0  0  0  0  0  0  0
   59.3137   35.6136   46.8381 H   0  0  0  0  0  0  0  0  0  0  0  0
   57.8737   33.9370   47.9283 H   0  0  0  0  0  0  0  0  0  0  0  0
   56.9950   31.9720   46.6911 H   0  0  0  0  0  0  0  0  0  0  0  0
   56.4120   28.0330   44.1090 H   0  0  0  0  0  0  0  0  0  0  0  0
  1  2  2  0
  2  3  1  0
  3  4  2  0
  4  5  1  0
  5  6  1  0
  6  7  2  0
  7  8  1  0
  8  9  2  0
  9 10  1  0
 10 11  2  0
 11 12  1  0
 12 13  2  0
 13 14  1  0
  4 15  1  0
 15 16  1  0
 16 17  2  0
 17 18  1  0
 18 19  1  0
 19 20  2  0
 20 21  1  0
 21 22  2  0
 22 23  1  0
 23 24  2  0
 16 25  1  0
 25  2  1  0
 14  6  1  0
 24 19  1  0
 13  8  1  0
  3 26  1  0
  5 27  1  0
  5 28  1  0
  9 29  1  0
 10 30  1  0
 11 31  1  0
 12 32  1  0
 14 33  1  0
 15 34  1  0
 18 35  1  0
 18 36  1  0
 20 37  1  0
 21 38  1  0
 22 39  1  0
 23 40  1  0
 24 41  1  0
 25 42  1  0
M  END
>  <smiles>  (82) 
O=c1cc(Cc2nc3ccccc3[nH]2)[nH]c(=NCc2ccccc2)[nH]1

>  <score_type>  (82) 
oracle

>  <origin>  (82) 
adg

>  <m_score__min__energy>  (82) 
-8.4499999999999993

>  <m_primary>  (82) 
energy

$$$$
82:0
     RDKit          3D

 38 40  0  0  0  0  0  0  0  0999 V2000
   60.7110   30.9760   47.5580 C   0  0  0  0  0  0  0  0  0  0  0  0
   60.4160   32.3800   47.0890 C   0  0  0  0  0  0  0  0  0  0  0  0
   61.4730   33.3060   46.9290 C   0  0  0  0  0  0  0  0  0  0  0  0
   63.1360   32.9020   47.3470 Cl  0  0  0  0  0  0  0  0  0  0  0  0
   61.2150   34.5860   46.4290 C   0  0  0  0  0  0  0  0  0  0  0  0
   59.9160   34.9620   46.0880 C   0  0  0  0  0  0  0  0  0  0  0  0
   58.8600   34.0700   46.2700 C   0  0  0  0  0  0  0  0  0  0  0  0
   59.0900   32.7960   46.8010 C   0  0  0  0  0  0  0  0  0  0  0  0
   57.9600   31.9370   47.0070 N   0  0  0  0  0  0  0  0  0  0  0  0
   57.7980   30.6590   46.3800 C   0  0  0  0  0  0  0  0  0  0  0  0
   57.9880   29.6050   47.0450 O   0  0  0  0  0  0  0  0  0  0  0  0
   57.3840   30.5830   44.9640 C   0  0  0  0  0  0  0  0  0  0  0  0
   57.9070   31.4260   43.9680 C   0  0  0  0  0  0  0  0  0  0  0  0
   57.3900   31.1890   42.7000 C   0  0  0  0  0  0  0  0  0  0  0  0
   56.2810   29.9310   42.8040 S   0  0  0  0  0  0  0  0  0  0  0  0
   56.4480   29.6790   44.4610 C   0  0  0  0  0  0  0  0  0  0  0  0
   55.7640   28.6890   45.2420 N   0  0  0  0  0  0  0  0  0  0  0  0
   56.2700   27.4050   45.6340 C   0  0  0  0  0  0  0  0  0  0  0  0
   55.4910   26.4200   45.7370 O   0  0  0  0  0  0  0  0  0  0  0  0
   57.7130   27.2380   45.9220 C   0  0  0  0  0  0  0  0  0  0  0  0
   58.6820   27.6970   45.0090 C   0  0  0  0  0  0  0  0  0  0  0  0
   60.0450   27.5360   45.2810 C   0  0  0  0  0  0  0  0  0  0  0  0
   60.4560   26.9200   46.4650 C   0  0  0  0  0  0  0  0  0  0  0  0
   59.5050   26.4620   47.3800 C   0  0  0  0  0  0  0  0  0  0  0  0
   58.1410   26.6180   47.1120 C   0  0  0  0  0  0  0  0  0  0  0  0
   60.7164   30.9503   48.6577 H   0  0  0  0  0  0  0  0  0  0  0  0
   59.9368   30.2926   47.1791 H   0  0  0  0  0  0  0  0  0  0  0  0
   61.6947   30.6619   47.1791 H   0  0  0  0  0  0  0  0  0  0  0  0
   62.0417   35.3008   46.3038 H   0  0  0  0  0  0  0  0  0  0  0  0
   59.7244   35.9634   45.6750 H   0  0  0  0  0  0  0  0  0  0  0  0
   57.8383   34.3700   45.9941 H   0  0  0  0  0  0  0  0  0  0  0  0
   58.6578   32.2032   44.1738 H   0  0  0  0  0  0  0  0  0  0  0  0
   57.6610   31.7330   41.7832 H   0  0  0  0  0  0  0  0  0  0  0  0
   58.3652   28.1854   44.0757 H   0  0  0  0  0  0  0  0  0  0  0  0
   60.7945   27.8955   44.5606 H   0  0  0  0  0  0  0  0  0  0  0  0
   61.5282   26.7955   46.6770 H   0  0  0  0  0  0  0  0  0  0  0  0
   59.8293   25.9778   48.3129 H   0  0  0  0  0  0  0  0  0  0  0  0
   57.3972   26.2538   47.8359 H   0  0  0  0  0  0  0  0  0  0  0  0
  1  2  1  0
  2  3  2  0
  3  4  1  0
  3  5  1  0
  5  6  2  0
  6  7  1  0
  7  8  2  0
  8  9  1  0
  9 10  1  0
 10 11  2  0
 10 12  1  0
 12 13  1  0
 13 14  2  0
 14 15  1  0
 15 16  1  0
 16 17  1  0
 17 18  1  0
 18 19  2  0
 18 20  1  0
 20 21  2  0
 21 22  1  0
 22 23  2  0
 23 24  1  0
 24 25  2  0
  8  2  1  0
 16 12  2  0
 25 20  1  0
  1 26  1  0
  1 27  1  0
  1 28  1  0
  5 29  1  0
  6 30  1  0
  7 31  1  0
 13 32  1  0
 14 33  1  0
 21 34  1  0
 22 35  1  0
 23 36  1  0
 24 37  1  0
 25 38  1  0
M  CHG  2   9  -1  17  -1
M  END
>  <UniqueID>  (83) 
76

>  <SMILES>  (83) 
Cc1c(Cl)cccc1[N-]C(=O)c1ccsc1[N-]C(=O)c1ccccc1

>  <Energy>  (83) 
77.76280775208198

>  <Genealogy>  (83) 
Cc1c(Cl)cccc1[N-]C(=O)c1ccsc1[N-]C(=O)c1ccccc1 (protonated)
Cc1c(Cl)cccc1[N-]C(=O)c1ccsc1[N-]C(=O)c1ccccc1 (3D coordinates assigned)
Cc1c(Cl)cccc1[N-]C(=O)c1ccsc1[N-]C(=O)c1ccccc1 (optimized conformer: 77.76280775208198 kcal/mol)

>  <smiles>  (83) 
Cc1c(Cl)cccc1NC(=O)c1ccsc1NC(=O)c1ccccc1

>  <score_type>  (83) 
oracle

>  <origin>  (83) 
adg

>  <m_score__min__energy>  (83) 
-12.67

>  <m_primary>  (83) 
energy

$$$$
83:0
     RDKit          3D

 74 77  0  0  0  0  0  0  0  0999 V2000
   63.6704   31.4983   47.0191 H   0  0  0  0  0  0  0  0  0  0  0  0
   63.0010   31.6080   47.8850 C   0  0  0  0  0  0  0  0  0  0  0  0
   63.4730   32.4020   49.0370 C   0  0  0  0  0  0  0  0  0  0  0  0
   64.5450   31.8890   49.7820 C   0  0  0  0  0  0  0  0  0  0  0  0
   65.0053   30.9309   49.4989 H   0  0  0  0  0  0  0  0  0  0  0  0
   65.0240   32.5960   50.8800 C   0  0  0  0  0  0  0  0  0  0  0  0
   65.8593   32.1958   51.4734 H   0  0  0  0  0  0  0  0  0  0  0  0
   64.4420   33.8110   51.2240 C   0  0  0  0  0  0  0  0  0  0  0  0
   64.8096   34.3746   52.0942 H   0  0  0  0  0  0  0  0  0  0  0  0
   63.3890   34.3100   50.4580 C   0  0  0  0  0  0  0  0  0  0  0  0
   62.9330   35.2742   50.7270 H   0  0  0  0  0  0  0  0  0  0  0  0
   62.9140   33.6180   49.3760 N   0  0  0  0  0  0  0  0  0  0  0  0
   61.8340   34.2390   48.5830 C   0  0  0  0  0  0  0  0  0  0  0  0
   61.9591   35.3317   48.6028 H   0  0  0  0  0  0  0  0  0  0  0  0
   61.8977   33.8559   47.5538 H   0  0  0  0  0  0  0  0  0  0  0  0
   60.4480   33.8850   49.1440 C   0  0  0  0  0  0  0  0  0  0  0  0
   60.3556   32.7902   49.1978 H   0  0  0  0  0  0  0  0  0  0  0  0
   60.3581   34.3412   50.1409 H   0  0  0  0  0  0  0  0  0  0  0  0
   59.3080   34.4390   48.2610 C   0  0  0  0  0  0  0  0  0  0  0  0
   58.3904   34.4761   48.8665 H   0  0  0  0  0  0  0  0  0  0  0  0
   59.6324   35.4313   47.9144 H   0  0  0  0  0  0  0  0  0  0  0  0
   59.0310   33.6370   47.0490 N   0  0  0  0  0  0  0  0  0  0  0  0
   57.6240   33.2190   46.9450 C   0  0  0  0  0  0  0  0  0  0  0  0
   57.2031   33.0940   47.9536 H   0  0  0  0  0  0  0  0  0  0  0  0
   57.0527   33.9862   46.4018 H   0  0  0  0  0  0  0  0  0  0  0  0
   57.5643   32.2643   46.4018 H   0  0  0  0  0  0  0  0  0  0  0  0
   59.4860   34.2890   45.8110 C   0  0  0  0  0  0  0  0  0  0  0  0
   60.0988   35.1671   46.0629 H   0  0  0  0  0  0  0  0  0  0  0  0
   60.0862   33.5797   45.2223 H   0  0  0  0  0  0  0  0  0  0  0  0
   58.6132   34.6077   45.2223 H   0  0  0  0  0  0  0  0  0  0  0  0
   61.8010   31.0140   47.8380 C   0  0  0  0  0  0  0  0  0  0  0  0
   60.8910   30.8580   46.4440 S   0  0  0  0  0  0  0  0  0  0  0  0
   59.6060   30.0480   47.1780 C   0  0  0  0  0  0  0  0  0  0  0  0
   58.5350   29.5840   46.4870 C   0  0  0  0  0  0  0  0  0  0  0  0
   57.7670   28.3370   46.6980 C   0  0  0  0  0  0  0  0  0  0  0  0
   57.9930   27.4820   47.5880 O   0  0  0  0  0  0  0  0  0  0  0  0
   56.8490   28.0840   45.6360 N   0  0  0  0  0  0  0  0  0  0  0  0
   57.0750   29.1570   44.7350 C   0  0  0  0  0  0  0  0  0  0  0  0
   56.3780   29.3670   43.5480 C   0  0  0  0  0  0  0  0  0  0  0  0
   55.6183   28.6475   43.2087 H   0  0  0  0  0  0  0  0  0  0  0  0
   56.6640   30.5140   42.7940 C   0  0  0  0  0  0  0  0  0  0  0  0
   56.1318   30.6933   41.8482 H   0  0  0  0  0  0  0  0  0  0  0  0
   57.6320   31.4410   43.2420 C   0  0  0  0  0  0  0  0  0  0  0  0
   57.8730   32.7030   42.4680 C   0  0  0  0  0  0  0  0  0  0  0  0
   58.0323   33.5372   43.1671 H   0  0  0  0  0  0  0  0  0  0  0  0
   58.7639   32.5802   41.8346 H   0  0  0  0  0  0  0  0  0  0  0  0
   56.9995   32.9171   41.8346 H   0  0  0  0  0  0  0  0  0  0  0  0
   58.3050   31.2180   44.4590 C   0  0  0  0  0  0  0  0  0  0  0  0
   59.0243   31.9564   44.8430 H   0  0  0  0  0  0  0  0  0  0  0  0
   58.0440   30.0410   45.1730 C   0  0  0  0  0  0  0  0  0  0  0  0
   59.8500   29.9100   48.5220 N   0  0  0  0  0  0  0  0  0  0  0  0
   58.8670   29.5260   49.5510 C   0  0  0  0  0  0  0  0  0  0  0  0
   59.2733   28.6924   50.1426 H   0  0  0  0  0  0  0  0  0  0  0  0
   57.9352   29.2260   49.0493 H   0  0  0  0  0  0  0  0  0  0  0  0
   58.5590   30.7040   50.4890 C   0  0  0  0  0  0  0  0  0  0  0  0
   58.3578   31.6020   49.8864 H   0  0  0  0  0  0  0  0  0  0  0  0
   59.4269   30.8696   51.1442 H   0  0  0  0  0  0  0  0  0  0  0  0
   57.3790   30.4100   51.3300 N   0  0  0  0  0  0  0  0  0  0  0  0
   57.6520   29.3760   52.3530 C   0  0  0  0  0  0  0  0  0  0  0  0
   58.4165   29.7630   53.0427 H   0  0  0  0  0  0  0  0  0  0  0  0
   57.9870   28.4750   51.8182 H   0  0  0  0  0  0  0  0  0  0  0  0
   56.4160   28.9780   53.1730 C   0  0  0  0  0  0  0  0  0  0  0  0
   56.6480   29.0527   54.2457 H   0  0  0  0  0  0  0  0  0  0  0  0
   55.5821   29.6530   52.9303 H   0  0  0  0  0  0  0  0  0  0  0  0
   56.1326   27.9432   52.9303 H   0  0  0  0  0  0  0  0  0  0  0  0
   56.7400   31.6260   51.8910 C   0  0  0  0  0  0  0  0  0  0  0  0
   55.9470   31.9697   51.2106 H   0  0  0  0  0  0  0  0  0  0  0  0
   56.3057   31.3899   52.8737 H   0  0  0  0  0  0  0  0  0  0  0  0
   57.7830   32.7250   52.0500 C   0  0  0  0  0  0  0  0  0  0  0  0
   57.9595   32.9110   53.1197 H   0  0  0  0  0  0  0  0  0  0  0  0
   58.7228   32.4105   51.5726 H   0  0  0  0  0  0  0  0  0  0  0  0
   57.4198   33.6470   51.5726 H   0  0  0  0  0  0  0  0  0  0  0  0
   61.0640   30.4420   48.8790 C   0  0  0  0  0  0  0  0  0  0  0  0
   61.4670   30.4390   50.0750 O   0  0  0  0  0  0  0  0  0  0  0  0
  1  2  1  0
  2  3  1  0
  3  4  2  0
  4  5  1  0
  4  6  1  0
  6  7  1  0
  6  8  2  0
  8  9  1  0
  8 10  1  0
 10 11  1  0
 10 12  2  0
 12 13  1  0
 13 14  1  0
 13 15  1  0
 13 16  1  0
 16 17  1  0
 16 18  1  0
 16 19  1  0
 19 20  1  0
 19 21  1  0
 19 22  1  0
 22 23  1  0
 23 24  1  0
 23 25  1  0
 23 26  1  0
 22 27  1  0
 27 28  1  0
 27 29  1  0
 27 30  1  0
  2 31  2  0
 31 32  1  0
 32 33  1  0
 33 34  2  0
 34 35  1  0
 35 36  2  0
 35 37  1  0
 37 38  1  0
 38 39  2  0
 39 40  1  0
 39 41  1  0
 41 42  1  0
 41 43  2  0
 43 44  1  0
 44 45  1  0
 44 46  1  0
 44 47  1  0
 43 48  1  0
 48 49  1  0
 48 50  2  0
 33 51  1  0
 51 52  1  0
 52 53  1  0
 52 54  1  0
 52 55  1  0
 55 56  1  0
 55 57  1  0
 55 58  1  0
 58 59  1  0
 59 60  1  0
 59 61  1  0
 59 62  1  0
 62 63  1  0
 62 64  1  0
 62 65  1  0
 58 66  1  0
 66 67  1  0
 66 68  1  0
 66 69  1  0
 69 70  1  0
 69 71  1  0
 69 72  1  0
 51 73  1  0
 73 74  2  0
 12  3  1  0
 73 31  1  0
 50 34  1  0
 50 38  1  0
M  CHG  2  12   1  37  -1
M  END
>  <UniqueID>  (84) 
77

>  <SMILES>  (84) 
CCN(CC)CCn1c(=O)/c(=C\c2cccc[n+]2CCCN(C)C)s/c1=C1/C(=O)[N-]c2ccc(C)cc21

>  <Energy>  (84) 
163.99512701104132

>  <Genealogy>  (84) 
CCN(CC)CCn1c(=C2C(=O)[N-]c3ccc(C)cc32)sc(=Cc2cccc[n+]2CCCN(C)C)c1=O (protonated)
CCN(CC)CCn1c(=O)/c(=C\c2cccc[n+]2CCCN(C)C)s/c1=C1/C(=O)[N-]c2ccc(C)cc21 (cis-trans isomerization)
CCN(CC)CCn1c(=O)/c(=C\c2cccc[n+]2CCCN(C)C)s/c1=C1/C(=O)[N-]c2ccc(C)cc21 (3D coordinates assigned)
CCN(CC)CCn1c(=O)/c(=C\c2cccc[n+]2CCCN(C)C)s/c1=C1/C(=O)[N-]c2ccc(C)cc21 (nonaromatic ring conformer: 163.99512701104132 kcal/mol)

>  <smiles>  (84) 
CCN(CC)CCn1c(=C2C(=O)Nc3ccc(C)cc32)sc(=Cc2cccc[n+]2CCCN(C)C)c1=O

>  <score_type>  (84) 
oracle

>  <origin>  (84) 
adg

>  <m_score__min__energy>  (84) 
-8.9299999999999997

>  <m_primary>  (84) 
energy

$$$$
84:0
     RDKit          3D

 63 66  0  0  0  0  0  0  0  0999 V2000
   58.2650   31.0410   51.2910 C   0  0  0  0  0  0  0  0  0  0  0  0
   58.8610   29.7860   51.9190 C   0  0  0  0  0  0  0  0  0  0  0  0
   60.3230   29.8380   51.8720 N   0  0  0  0  0  0  0  0  0  0  0  0
   61.0870   30.8440   52.3420 C   0  0  0  0  0  0  0  0  0  0  0  0
   62.4040   30.5710   52.0420 C   0  0  0  0  0  0  0  0  0  0  0  0
   62.4600   29.4020   51.3800 N   0  0  0  0  0  0  0  0  0  0  0  0
   61.1840   28.9770   51.2790 C   0  0  0  0  0  0  0  0  0  0  0  0
   60.8050   27.7030   50.5740 C   0  0  0  0  0  0  0  0  0  0  0  0
   60.6320   27.9600   49.1290 N   0  0  0  0  0  0  0  0  0  0  0  0
   60.7430   26.7110   48.3320 C   0  0  0  0  0  0  0  0  0  0  0  0
   60.4140   26.9680   46.8550 C   0  0  0  0  0  0  0  0  0  0  0  0
   58.9320   26.8510   46.5870 C   0  0  0  0  0  0  0  0  0  0  0  0
   58.2720   27.8240   45.8150 C   0  0  0  0  0  0  0  0  0  0  0  0
   56.8900   27.7460   45.6160 C   0  0  0  0  0  0  0  0  0  0  0  0
   56.1570   26.7000   46.1830 C   0  0  0  0  0  0  0  0  0  0  0  0
   54.7820   26.6360   46.0010 O   0  0  0  0  0  0  0  0  0  0  0  0
   56.8110   25.7160   46.9330 C   0  0  0  0  0  0  0  0  0  0  0  0
   58.1930   25.7850   47.1230 C   0  0  0  0  0  0  0  0  0  0  0  0
   59.3850   28.7130   48.8380 C   0  0  0  0  0  0  0  0  0  0  0  0
   59.7290   30.0600   48.2620 C   0  0  0  0  0  0  0  0  0  0  0  0
   60.9070   30.7180   48.6310 C   0  0  0  0  0  0  0  0  0  0  0  0
   61.2070   31.9730   48.1000 C   0  0  0  0  0  0  0  0  0  0  0  0
   60.3370   32.6000   47.1890 C   0  0  0  0  0  0  0  0  0  0  0  0
   60.6880   33.9470   46.6670 C   0  0  0  0  0  0  0  0  0  0  0  0
   61.8770   34.2430   46.3770 O   0  0  0  0  0  0  0  0  0  0  0  0
   59.7000   34.9090   46.4950 O   0  0  0  0  0  0  0  0  0  0  0  0
   59.1500   31.9340   46.8020 C   0  0  0  0  0  0  0  0  0  0  0  0
   58.2290   32.5780   45.9580 O   0  0  0  0  0  0  0  0  0  0  0  0
   57.8310   32.1300   44.6910 C   0  0  0  0  0  0  0  0  0  0  0  0
   57.0380   30.9800   44.5990 C   0  0  0  0  0  0  0  0  0  0  0  0
   56.6260   30.5050   43.3490 C   0  0  0  0  0  0  0  0  0  0  0  0
   56.9920   31.1880   42.1850 C   0  0  0  0  0  0  0  0  0  0  0  0
   57.7630   32.3510   42.2710 C   0  0  0  0  0  0  0  0  0  0  0  0
   58.1780   32.8260   43.5190 C   0  0  0  0  0  0  0  0  0  0  0  0
   58.8700   30.6600   47.3320 C   0  0  0  0  0  0  0  0  0  0  0  0
   57.9384   31.7287   52.0850 H   0  0  0  0  0  0  0  0  0  0  0  0
   59.0246   31.5352   50.6675 H   0  0  0  0  0  0  0  0  0  0  0  0
   57.4020   30.7646   50.6675 H   0  0  0  0  0  0  0  0  0  0  0  0
   58.5342   29.7146   52.9669 H   0  0  0  0  0  0  0  0  0  0  0  0
   58.5165   28.9064   51.3554 H   0  0  0  0  0  0  0  0  0  0  0  0
   60.7208   31.7335   52.8755 H   0  0  0  0  0  0  0  0  0  0  0  0
   63.2657   31.2038   52.3009 H   0  0  0  0  0  0  0  0  0  0  0  0
   63.3170   28.9310   51.0140 H   0  0  0  0  0  0  0  0  0  0  0  0
   61.5991   26.9558   50.7190 H   0  0  0  0  0  0  0  0  0  0  0  0
   59.8592   27.3262   50.9906 H   0  0  0  0  0  0  0  0  0  0  0  0
   61.7702   26.3252   48.4096 H   0  0  0  0  0  0  0  0  0  0  0  0
   60.0244   25.9784   48.7280 H   0  0  0  0  0  0  0  0  0  0  0  0
   60.7464   27.9816   46.5863 H   0  0  0  0  0  0  0  0  0  0  0  0
   60.9339   26.2107   46.2498 H   0  0  0  0  0  0  0  0  0  0  0  0
   58.8448   28.6490   45.3663 H   0  0  0  0  0  0  0  0  0  0  0  0
   56.3787   28.5098   45.0117 H   0  0  0  0  0  0  0  0  0  0  0  0
   56.2363   24.8877   47.3731 H   0  0  0  0  0  0  0  0  0  0  0  0
   58.7056   24.9987   47.6965 H   0  0  0  0  0  0  0  0  0  0  0  0
   58.7782   28.1497   48.1138 H   0  0  0  0  0  0  0  0  0  0  0  0
   58.8159   28.8495   49.7694 H   0  0  0  0  0  0  0  0  0  0  0  0
   61.5994   30.2443   49.3424 H   0  0  0  0  0  0  0  0  0  0  0  0
   62.1369   32.4795   48.3978 H   0  0  0  0  0  0  0  0  0  0  0  0
   56.7375   30.4475   45.5134 H   0  0  0  0  0  0  0  0  0  0  0  0
   56.0137   29.5936   43.2819 H   0  0  0  0  0  0  0  0  0  0  0  0
   56.6734   30.8104   41.2022 H   0  0  0  0  0  0  0  0  0  0  0  0
   58.0435   32.8931   41.3559 H   0  0  0  0  0  0  0  0  0  0  0  0
   58.7772   33.7461   43.5843 H   0  0  0  0  0  0  0  0  0  0  0  0
   57.9627   30.1275   47.0109 H   0  0  0  0  0  0  0  0  0  0  0  0
  1  2  1  0
  2  3  1  0
  3  4  1  0
  4  5  2  0
  5  6  1  0
  6  7  2  0
  7  8  1  0
  8  9  1  0
  9 10  1  0
 10 11  1  0
 11 12  1  0
 12 13  2  0
 13 14  1  0
 14 15  2  0
 15 16  1  0
 15 17  1  0
 17 18  2  0
  9 19  1  0
 19 20  1  0
 20 21  2  0
 21 22  1  0
 22 23  2  0
 23 24  1  0
 24 25  2  0
 24 26  1  0
 23 27  1  0
 27 28  1  0
 28 29  1  0
 29 30  2  0
 30 31  1  0
 31 32  2  0
 32 33  1  0
 33 34  2  0
 27 35  2  0
  7  3  1  0
 18 12  1  0
 35 20  1  0
 34 29  1  0
  1 36  1  0
  1 37  1  0
  1 38  1  0
  2 39  1  0
  2 40  1  0
  4 41  1  0
  5 42  1  0
  6 43  1  0
  8 44  1  0
  8 45  1  0
 10 46  1  0
 10 47  1  0
 11 48  1  0
 11 49  1  0
 13 50  1  0
 14 51  1  0
 17 52  1  0
 18 53  1  0
 19 54  1  0
 19 55  1  0
 21 56  1  0
 22 57  1  0
 30 58  1  0
 31 59  1  0
 32 60  1  0
 33 61  1  0
 34 62  1  0
 35 63  1  0
M  CHG  3   6   1  16  -1  26  -1
M  END
>  <UniqueID>  (85) 
78

>  <SMILES>  (85) 
CCn1cc[nH+]c1CN(CCc1ccc([O-])cc1)Cc1ccc(C(=O)[O-])c(Oc2ccccc2)c1

>  <Energy>  (85) 
97.85310492348069

>  <Genealogy>  (85) 
CCn1cc[nH+]c1CN(CCc1ccc([O-])cc1)Cc1ccc(C(=O)[O-])c(Oc2ccccc2)c1 (protonated)
CCn1cc[nH+]c1CN(CCc1ccc([O-])cc1)Cc1ccc(C(=O)[O-])c(Oc2ccccc2)c1 (3D coordinates assigned)
CCn1cc[nH+]c1CN(CCc1ccc([O-])cc1)Cc1ccc(C(=O)[O-])c(Oc2ccccc2)c1 (optimized conformer: 97.85310492348069 kcal/mol)

>  <smiles>  (85) 
CCn1ccnc1CN(CCc1ccc(O)cc1)Cc1ccc(C(=O)O)c(Oc2ccccc2)c1

>  <score_type>  (85) 
oracle

>  <origin>  (85) 
adg

>  <m_score__min__energy>  (85) 
-12.050000000000001

>  <m_primary>  (85) 
energy

$$$$
85:0
     RDKit          3D

 66 71  0  0  0  0  0  0  0  0999 V2000
   58.6860   30.4870   52.5930 C   0  0  0  0  0  0  0  0  0  0  0  0
   59.4140   29.5440   51.6810 C   0  0  0  0  0  0  0  0  0  0  0  0
   60.1640   28.4620   52.1920 C   0  0  0  0  0  0  0  0  0  0  0  0
   60.8240   27.5590   51.3160 C   0  0  0  0  0  0  0  0  0  0  0  0
   61.5920   26.4630   51.8430 N   0  0  0  0  0  0  0  0  0  0  0  0
   63.0400   26.5970   52.0310 C   0  0  0  0  0  0  0  0  0  0  0  0
   63.5040   25.6520   53.1480 C   0  0  0  0  0  0  0  0  0  0  0  0
   63.0450   24.3320   52.9230 O   0  0  0  0  0  0  0  0  0  0  0  0
   61.6300   24.3000   52.9900 C   0  0  0  0  0  0  0  0  0  0  0  0
   61.0160   25.1130   51.8490 C   0  0  0  0  0  0  0  0  0  0  0  0
   60.7150   27.7350   49.9180 C   0  0  0  0  0  0  0  0  0  0  0  0
   59.9500   28.8000   49.4510 C   0  0  0  0  0  0  0  0  0  0  0  0
   59.7000   29.1320   48.1750 N   0  0  0  0  0  0  0  0  0  0  0  0
   58.9060   30.2300   48.2980 C   0  0  0  0  0  0  0  0  0  0  0  0
   58.3860   30.9890   47.1290 C   0  0  0  0  0  0  0  0  0  0  0  0
   58.4660   32.4040   47.0690 C   0  0  0  0  0  0  0  0  0  0  0  0
   58.9050   33.1740   48.2070 N   0  0  0  0  0  0  0  0  0  0  0  0
   59.9530   34.1920   48.1170 C   0  0  0  0  0  0  0  0  0  0  0  0
   61.2920   33.5820   47.7550 C   0  0  0  0  0  0  0  0  0  0  0  0
   62.0840   34.2020   46.7740 C   0  0  0  0  0  0  0  0  0  0  0  0
   63.3090   33.6540   46.4020 C   0  0  0  0  0  0  0  0  0  0  0  0
   63.7530   32.4920   47.0240 C   0  0  0  0  0  0  0  0  0  0  0  0
   63.0000   31.9100   47.9920 N   0  0  0  0  0  0  0  0  0  0  0  0
   61.8000   32.4220   48.4010 C   0  0  0  0  0  0  0  0  0  0  0  0
   61.0310   31.7420   49.4260 N   0  0  0  0  0  0  0  0  0  0  0  0
   61.7280   31.6770   50.6910 C   0  0  0  0  0  0  0  0  0  0  0  0
   62.6800   30.6690   50.9290 C   0  0  0  0  0  0  0  0  0  0  0  0
   63.3620   30.6130   52.1490 C   0  0  0  0  0  0  0  0  0  0  0  0
   63.1020   31.5610   53.1430 C   0  0  0  0  0  0  0  0  0  0  0  0
   62.1700   32.5760   52.9140 C   0  0  0  0  0  0  0  0  0  0  0  0
   61.9280   33.5000   53.8780 F   0  0  0  0  0  0  0  0  0  0  0  0
   61.4870   32.6400   51.6930 C   0  0  0  0  0  0  0  0  0  0  0  0
   60.5970   33.6430   51.4800 F   0  0  0  0  0  0  0  0  0  0  0  0
   58.0450   33.0630   45.9030 C   0  0  0  0  0  0  0  0  0  0  0  0
   57.5310   32.3330   44.8360 C   0  0  0  0  0  0  0  0  0  0  0  0
   57.4370   30.9840   44.9180 N   0  0  0  0  0  0  0  0  0  0  0  0
   57.8470   30.2980   46.0180 C   0  0  0  0  0  0  0  0  0  0  0  0
   57.7510   29.0420   46.0210 O   0  0  0  0  0  0  0  0  0  0  0  0
   58.6640   30.5950   49.5840 N   0  0  0  0  0  0  0  0  0  0  0  0
   59.3300   29.6680   50.2910 C   0  0  0  0  0  0  0  0  0  0  0  0
   58.8933   30.2184   53.6394 H   0  0  0  0  0  0  0  0  0  0  0  0
   59.0264   31.5158   52.4041 H   0  0  0  0  0  0  0  0  0  0  0  0
   57.6045   30.4181   52.4041 H   0  0  0  0  0  0  0  0  0  0  0  0
   60.2380   28.3168   53.2799 H   0  0  0  0  0  0  0  0  0  0  0  0
   63.5562   26.3383   51.0947 H   0  0  0  0  0  0  0  0  0  0  0  0
   63.2778   27.6346   52.3081 H   0  0  0  0  0  0  0  0  0  0  0  0
   64.6035   25.6490   53.1822 H   0  0  0  0  0  0  0  0  0  0  0  0
   63.0881   26.0084   54.1020 H   0  0  0  0  0  0  0  0  0  0  0  0
   61.2885   23.2571   52.9147 H   0  0  0  0  0  0  0  0  0  0  0  0
   61.3114   24.7379   53.9475 H   0  0  0  0  0  0  0  0  0  0  0  0
   61.2308   24.6187   50.8901 H   0  0  0  0  0  0  0  0  0  0  0  0
   59.9274   25.1802   51.9920 H   0  0  0  0  0  0  0  0  0  0  0  0
   61.2196   27.0509   49.2199 H   0  0  0  0  0  0  0  0  0  0  0  0
   58.5480   32.9300   49.1570 H   0  0  0  0  0  0  0  0  0  0  0  0
   59.6740   34.9246   47.3454 H   0  0  0  0  0  0  0  0  0  0  0  0
   60.0492   34.6754   49.1004 H   0  0  0  0  0  0  0  0  0  0  0  0
   61.7334   35.1284   46.2956 H   0  0  0  0  0  0  0  0  0  0  0  0
   63.9195   34.1355   45.6238 H   0  0  0  0  0  0  0  0  0  0  0  0
   64.7144   32.0445   46.7315 H   0  0  0  0  0  0  0  0  0  0  0  0
   60.1250   32.2460   49.5800 H   0  0  0  0  0  0  0  0  0  0  0  0
   60.8100   30.7730   49.0910 H   0  0  0  0  0  0  0  0  0  0  0  0
   62.8894   29.9202   50.1509 H   0  0  0  0  0  0  0  0  0  0  0  0
   64.1046   29.8212   52.3267 H   0  0  0  0  0  0  0  0  0  0  0  0
   63.6315   31.5076   54.1057 H   0  0  0  0  0  0  0  0  0  0  0  0
   58.1216   34.1581   45.8330 H   0  0  0  0  0  0  0  0  0  0  0  0
   57.2004   32.8520   43.9242 H   0  0  0  0  0  0  0  0  0  0  0  0
  1  2  1  0
  2  3  2  0
  3  4  1  0
  4  5  1  0
  5  6  1  0
  6  7  1  0
  7  8  1  0
  8  9  1  0
  9 10  1  0
  4 11  2  0
 11 12  1  0
 12 13  1  0
 13 14  1  0
 14 15  1  0
 15 16  2  0
 16 17  1  0
 17 18  1  0
 18 19  1  0
 19 20  2  0
 20 21  1  0
 21 22  2  0
 22 23  1  0
 23 24  2  0
 24 25  1  0
 25 26  1  0
 26 27  2  0
 27 28  1  0
 28 29  2  0
 29 30  1  0
 30 31  1  0
 30 32  2  0
 32 33  1  0
 16 34  1  0
 34 35  2  0
 35 36  1  0
 36 37  1  0
 37 38  2  0
 14 39  2  0
 39 40  1  0
 40  2  1  0
 10  5  1  0
 40 12  2  0
 37 15  1  0
 24 19  1  0
 32 26  1  0
  1 41  1  0
  1 42  1  0
  1 43  1  0
  3 44  1  0
  6 45  1  0
  6 46  1  0
  7 47  1  0
  7 48  1  0
  9 49  1  0
  9 50  1  0
 10 51  1  0
 10 52  1  0
 11 53  1  0
 17 54  1  0
 18 55  1  0
 18 56  1  0
 20 57  1  0
 21 58  1  0
 22 59  1  0
 25 60  1  0
 25 61  1  0
 27 62  1  0
 28 63  1  0
 29 64  1  0
 34 65  1  0
 35 66  1  0
M  CHG  3  13  -1  25   1  36  -1
M  END
>  <UniqueID>  (86) 
79

>  <SMILES>  (86) 
Cc1cc(N2CCOCC2)cc2[n-]c(-c3c(NCc4cccnc4[NH2+]c4cccc(F)c4F)cc[n-]c3=O)nc12

>  <Energy>  (86) 
128.4385252828327

>  <Genealogy>  (86) 
Cc1cc(N2CCOCC2)cc2[n-]c(-c3c(NCc4cccnc4[NH2+]c4cccc(F)c4F)cc[n-]c3=O)nc12 (protonated)
Cc1cc(N2CCOCC2)cc2[n-]c(-c3c(NCc4cccnc4[NH2+]c4cccc(F)c4F)cc[n-]c3=O)nc12 (3D coordinates assigned)
Cc1cc(N2CCOCC2)cc2[n-]c(-c3c(NCc4cccnc4[NH2+]c4cccc(F)c4F)cc[n-]c3=O)nc12 (nonaromatic ring conformer: 128.4385252828327 kcal/mol)

>  <smiles>  (86) 
Cc1cc(N2CCOCC2)cc2[nH]c(-c3c(NCc4cccnc4Nc4cccc(F)c4F)cc[nH]c3=O)nc12

>  <score_type>  (86) 
oracle

>  <origin>  (86) 
adg

>  <m_score__min__energy>  (86) 
-10.529999999999999

>  <m_primary>  (86) 
energy

$$$$
86:0
     RDKit          3D

 33 34  0  0  0  0  0  0  0  0999 V2000
   55.4600   29.1660   44.8830 O   0  0  0  0  0  0  0  0  0  0  0  0
   56.4420   29.9250   44.6710 C   0  0  0  0  0  0  0  0  0  0  0  0
   57.7090   29.3300   44.1200 C   0  0  0  0  0  0  0  0  0  0  0  0
   57.7180   27.8740   44.2980 N   0  0  0  0  0  0  0  0  0  0  0  0
   58.3430   27.4270   45.8640 S   0  0  0  0  0  0  0  0  0  0  0  0
   59.3190   26.2960   45.6940 O   0  0  0  0  0  0  0  0  0  0  0  0
   57.2080   26.9550   46.7270 O   0  0  0  0  0  0  0  0  0  0  0  0
   59.1310   28.7880   46.6660 C   0  0  0  0  0  0  0  0  0  0  0  0
   60.2850   29.3590   46.1090 C   0  0  0  0  0  0  0  0  0  0  0  0
   60.9310   30.4140   46.7600 C   0  0  0  0  0  0  0  0  0  0  0  0
   60.4240   30.9110   47.9640 C   0  0  0  0  0  0  0  0  0  0  0  0
   59.2640   30.3580   48.5130 C   0  0  0  0  0  0  0  0  0  0  0  0
   58.6150   29.3040   47.8640 C   0  0  0  0  0  0  0  0  0  0  0  0
   56.2760   31.3360   44.8660 N   0  0  0  0  0  0  0  0  0  0  0  0
   57.2890   32.2780   45.2470 C   0  0  0  0  0  0  0  0  0  0  0  0
   57.4160   32.7100   46.5790 C   0  0  0  0  0  0  0  0  0  0  0  0
   58.4060   33.6310   46.9290 C   0  0  0  0  0  0  0  0  0  0  0  0
   59.2560   34.1510   45.9510 C   0  0  0  0  0  0  0  0  0  0  0  0
   59.1080   33.7650   44.6170 C   0  0  0  0  0  0  0  0  0  0  0  0
   59.9300   34.2880   43.6730 F   0  0  0  0  0  0  0  0  0  0  0  0
   58.1190   32.8380   44.2590 C   0  0  0  0  0  0  0  0  0  0  0  0
   57.9450   32.3630   42.5740 Cl  0  0  0  0  0  0  0  0  0  0  0  0
   57.7808   29.5631   43.0474 H   0  0  0  0  0  0  0  0  0  0  0  0
   58.5655   29.7579   44.6616 H   0  0  0  0  0  0  0  0  0  0  0  0
   56.7270   27.5410   44.2620 H   0  0  0  0  0  0  0  0  0  0  0  0
   60.6825   28.9756   45.1577 H   0  0  0  0  0  0  0  0  0  0  0  0
   61.8400   30.8539   46.3239 H   0  0  0  0  0  0  0  0  0  0  0  0
   60.9375   31.7364   48.4788 H   0  0  0  0  0  0  0  0  0  0  0  0
   58.8611   30.7528   49.4573 H   0  0  0  0  0  0  0  0  0  0  0  0
   57.6966   28.8777   48.2940 H   0  0  0  0  0  0  0  0  0  0  0  0
   56.7329   32.3211   47.3485 H   0  0  0  0  0  0  0  0  0  0  0  0
   58.5162   33.9472   47.9768 H   0  0  0  0  0  0  0  0  0  0  0  0
   60.0435   34.8659   46.2316 H   0  0  0  0  0  0  0  0  0  0  0  0
  1  2  2  0
  2  3  1  0
  3  4  1  0
  4  5  1  0
  5  6  2  0
  5  7  2  0
  5  8  1  0
  8  9  2  0
  9 10  1  0
 10 11  2  0
 11 12  1  0
 12 13  2  0
  2 14  1  0
 14 15  1  0
 15 16  2  0
 16 17  1  0
 17 18  2  0
 18 19  1  0
 19 20  1  0
 19 21  2  0
 21 22  1  0
 13  8  1  0
 21 15  1  0
  3 23  1  0
  3 24  1  0
  4 25  1  0
  9 26  1  0
 10 27  1  0
 11 28  1  0
 12 29  1  0
 13 30  1  0
 16 31  1  0
 17 32  1  0
 18 33  1  0
M  CHG  1  14  -1
M  END
>  <UniqueID>  (87) 
80

>  <SMILES>  (87) 
O=C(CNS(=O)(=O)c1ccccc1)[N-]c1cccc(F)c1Cl

>  <Energy>  (87) 
33.94752283081995

>  <Genealogy>  (87) 
O=C(CNS(=O)(=O)c1ccccc1)[N-]c1cccc(F)c1Cl (protonated)
O=C(CNS(=O)(=O)c1ccccc1)[N-]c1cccc(F)c1Cl (3D coordinates assigned)
O=C(CNS(=O)(=O)c1ccccc1)[N-]c1cccc(F)c1Cl (optimized conformer: 33.94752283081995 kcal/mol)

>  <smiles>  (87) 
O=C(CNS(=O)(=O)c1ccccc1)Nc1cccc(F)c1Cl

>  <score_type>  (87) 
oracle

>  <origin>  (87) 
adg

>  <m_score__min__energy>  (87) 
-9.8499999999999996

>  <m_primary>  (87) 
energy

$$$$
87:0
     RDKit          3D

 51 54  0  0  0  0  0  0  0  0999 V2000
   57.3610   30.7110   44.5640 C   0  0  0  0  0  0  0  0  0  0  0  0
   57.1180   31.6610   45.5980 O   0  0  0  0  0  0  0  0  0  0  0  0
   57.8440   32.8470   45.7840 C   0  0  0  0  0  0  0  0  0  0  0  0
   58.1100   33.7140   44.7030 C   0  0  0  0  0  0  0  0  0  0  0  0
   58.8700   34.8690   44.8870 C   0  0  0  0  0  0  0  0  0  0  0  0
   59.3800   35.1760   46.1470 C   0  0  0  0  0  0  0  0  0  0  0  0
   59.1200   34.3340   47.2290 C   0  0  0  0  0  0  0  0  0  0  0  0
   58.3420   33.1780   47.0700 C   0  0  0  0  0  0  0  0  0  0  0  0
   58.1140   32.3770   48.2410 N   0  0  0  0  0  0  0  0  0  0  0  0
   59.1520   31.1620   48.9170 S   0  0  0  0  0  0  0  0  0  0  0  0
   60.4010   31.8020   49.4570 O   0  0  0  0  0  0  0  0  0  0  0  0
   58.4190   30.4410   50.0120 O   0  0  0  0  0  0  0  0  0  0  0  0
   59.6160   30.0100   47.6620 C   0  0  0  0  0  0  0  0  0  0  0  0
   58.9260   28.7940   47.5450 C   0  0  0  0  0  0  0  0  0  0  0  0
   59.2570   27.8740   46.5400 C   0  0  0  0  0  0  0  0  0  0  0  0
   58.5400   26.6300   46.4570 N   0  0  0  0  0  0  0  0  0  0  0  0
   57.2710   26.4850   45.7950 C   0  0  0  0  0  0  0  0  0  0  0  0
   56.5520   27.5030   45.5940 O   0  0  0  0  0  0  0  0  0  0  0  0
   56.7700   25.1490   45.3880 C   0  0  0  0  0  0  0  0  0  0  0  0
   55.4830   24.7130   45.8090 C   0  0  0  0  0  0  0  0  0  0  0  0
   54.9900   23.4530   45.4270 C   0  0  0  0  0  0  0  0  0  0  0  0
   55.7960   22.6560   44.6230 C   0  0  0  0  0  0  0  0  0  0  0  0
   57.0210   23.0630   44.2080 C   0  0  0  0  0  0  0  0  0  0  0  0
   57.5490   24.3020   44.5630 C   0  0  0  0  0  0  0  0  0  0  0  0
   57.5910   22.0790   43.4220 O   0  0  0  0  0  0  0  0  0  0  0  0
   56.6650   20.9870   43.3400 C   0  0  0  0  0  0  0  0  0  0  0  0
   55.5350   21.3960   44.1220 O   0  0  0  0  0  0  0  0  0  0  0  0
   60.3160   28.1680   45.6670 C   0  0  0  0  0  0  0  0  0  0  0  0
   61.0040   29.3770   45.7720 C   0  0  0  0  0  0  0  0  0  0  0  0
   60.6560   30.3150   46.7630 C   0  0  0  0  0  0  0  0  0  0  0  0
   61.3170   31.5480   46.8800 O   0  0  0  0  0  0  0  0  0  0  0  0
   62.5920   31.7280   47.4880 C   0  0  0  0  0  0  0  0  0  0  0  0
   57.6100   29.7375   45.0116 H   0  0  0  0  0  0  0  0  0  0  0  0
   56.4602   30.6085   43.9411 H   0  0  0  0  0  0  0  0  0  0  0  0
   58.2004   31.0537   43.9411 H   0  0  0  0  0  0  0  0  0  0  0  0
   57.7138   33.4765   43.7047 H   0  0  0  0  0  0  0  0  0  0  0  0
   59.0670   35.5383   44.0366 H   0  0  0  0  0  0  0  0  0  0  0  0
   59.9875   36.0820   46.2887 H   0  0  0  0  0  0  0  0  0  0  0  0
   59.5305   34.5801   48.2194 H   0  0  0  0  0  0  0  0  0  0  0  0
   58.1153   28.5595   48.2505 H   0  0  0  0  0  0  0  0  0  0  0  0
   58.9040   25.8210   47.0080 H   0  0  0  0  0  0  0  0  0  0  0  0
   54.8664   25.3693   46.4407 H   0  0  0  0  0  0  0  0  0  0  0  0
   53.9977   23.1089   45.7541 H   0  0  0  0  0  0  0  0  0  0  0  0
   58.5438   24.6139   44.2121 H   0  0  0  0  0  0  0  0  0  0  0  0
   56.3682   20.8099   42.2957 H   0  0  0  0  0  0  0  0  0  0  0  0
   57.1024   20.0472   43.7079 H   0  0  0  0  0  0  0  0  0  0  0  0
   60.6054   27.4401   44.8947 H   0  0  0  0  0  0  0  0  0  0  0  0
   61.8252   29.5995   45.0748 H   0  0  0  0  0  0  0  0  0  0  0  0
   62.4818   31.7124   48.5824 H   0  0  0  0  0  0  0  0  0  0  0  0
   63.2651   30.9160   47.1757 H   0  0  0  0  0  0  0  0  0  0  0  0
   63.0140   32.6946   47.1757 H   0  0  0  0  0  0  0  0  0  0  0  0
  1  2  1  0
  2  3  1  0
  3  4  2  0
  4  5  1  0
  5  6  2  0
  6  7  1  0
  7  8  2  0
  8  9  1  0
  9 10  1  0
 10 11  2  0
 10 12  2  0
 10 13  1  0
 13 14  2  0
 14 15  1  0
 15 16  1  0
 16 17  1  0
 17 18  2  0
 17 19  1  0
 19 20  2  0
 20 21  1  0
 21 22  2  0
 22 23  1  0
 23 24  2  0
 23 25  1  0
 25 26  1  0
 26 27  1  0
 15 28  2  0
 28 29  1  0
 29 30  2  0
 30 31  1  0
 31 32  1  0
  8  3  1  0
 30 13  1  0
 24 19  1  0
 27 22  1  0
  1 33  1  0
  1 34  1  0
  1 35  1  0
  4 36  1  0
  5 37  1  0
  6 38  1  0
  7 39  1  0
 14 40  1  0
 16 41  1  0
 20 42  1  0
 21 43  1  0
 24 44  1  0
 26 45  1  0
 26 46  1  0
 28 47  1  0
 29 48  1  0
 32 49  1  0
 32 50  1  0
 32 51  1  0
M  CHG  1   9  -1
M  END
>  <UniqueID>  (88) 
81

>  <SMILES>  (88) 
COc1ccccc1[N-]S(=O)(=O)c1cc(NC(=O)c2ccc3c(c2)OCO3)ccc1OC

>  <Energy>  (88) 
95.50303703245315

>  <Genealogy>  (88) 
COc1ccccc1[N-]S(=O)(=O)c1cc(NC(=O)c2ccc3c(c2)OCO3)ccc1OC (protonated)
COc1ccccc1[N-]S(=O)(=O)c1cc(NC(=O)c2ccc3c(c2)OCO3)ccc1OC (3D coordinates assigned)
COc1ccccc1[N-]S(=O)(=O)c1cc(NC(=O)c2ccc3c(c2)OCO3)ccc1OC (nonaromatic ring conformer: 95.50303703245315 kcal/mol)

>  <smiles>  (88) 
COc1ccccc1NS(=O)(=O)c1cc(NC(=O)c2ccc3c(c2)OCO3)ccc1OC

>  <score_type>  (88) 
oracle

>  <origin>  (88) 
adg

>  <m_score__min__energy>  (88) 
-10.359999999999999

>  <m_primary>  (88) 
energy

$$$$
88:0
     RDKit          3D

 42 44  0  0  0  0  0  0  0  0999 V2000
   60.4630   26.9170   46.1110 C   0  0  0  0  0  0  0  0  0  0  0  0
   58.9640   26.8580   46.1060 C   0  0  0  0  0  0  0  0  0  0  0  0
   58.3020   25.6950   46.5230 C   0  0  0  0  0  0  0  0  0  0  0  0
   56.9070   25.6280   46.4810 C   0  0  0  0  0  0  0  0  0  0  0  0
   56.1630   26.7220   46.0270 C   0  0  0  0  0  0  0  0  0  0  0  0
   54.7750   26.6410   45.9950 O   0  0  0  0  0  0  0  0  0  0  0  0
   56.8110   27.8930   45.6100 C   0  0  0  0  0  0  0  0  0  0  0  0
   56.0200   28.9970   45.1410 N   0  0  0  0  0  0  0  0  0  0  0  0
   56.3160   29.8470   44.0220 C   0  0  0  0  0  0  0  0  0  0  0  0
   55.8080   29.5740   42.9030 O   0  0  0  0  0  0  0  0  0  0  0  0
   57.1820   31.0390   44.1490 C   0  0  0  0  0  0  0  0  0  0  0  0
   57.7610   31.3380   45.3930 C   0  0  0  0  0  0  0  0  0  0  0  0
   58.5090   32.5110   45.5650 C   0  0  0  0  0  0  0  0  0  0  0  0
   59.1420   32.9500   47.1480 S   0  0  0  0  0  0  0  0  0  0  0  0
   58.0710   32.7270   48.1770 O   0  0  0  0  0  0  0  0  0  0  0  0
   59.5480   34.3970   47.1880 O   0  0  0  0  0  0  0  0  0  0  0  0
   60.5090   31.9500   47.5190 N   0  0  0  0  0  0  0  0  0  0  0  0
   60.4750   30.7720   48.3360 C   0  0  0  0  0  0  0  0  0  0  0  0
   61.4180   30.6420   49.3660 C   0  0  0  0  0  0  0  0  0  0  0  0
   61.4170   29.5110   50.1890 C   0  0  0  0  0  0  0  0  0  0  0  0
   60.4780   28.4980   49.9840 C   0  0  0  0  0  0  0  0  0  0  0  0
   59.5380   28.6150   48.9580 C   0  0  0  0  0  0  0  0  0  0  0  0
   59.5330   29.7450   48.1350 C   0  0  0  0  0  0  0  0  0  0  0  0
   58.7090   33.3700   44.4780 C   0  0  0  0  0  0  0  0  0  0  0  0
   58.1720   33.0600   43.2290 C   0  0  0  0  0  0  0  0  0  0  0  0
   57.4110   31.9000   43.0570 C   0  0  0  0  0  0  0  0  0  0  0  0
   56.8980   31.6040   41.7980 O   0  0  0  0  0  0  0  0  0  0  0  0
   58.2190   27.9410   45.6190 C   0  0  0  0  0  0  0  0  0  0  0  0
   60.8259   26.9313   47.1493 H   0  0  0  0  0  0  0  0  0  0  0  0
   60.8664   26.0340   45.5937 H   0  0  0  0  0  0  0  0  0  0  0  0
   60.7958   27.8289   45.5937 H   0  0  0  0  0  0  0  0  0  0  0  0
   58.8821   24.8330   46.8842 H   0  0  0  0  0  0  0  0  0  0  0  0
   56.3922   24.7119   46.8060 H   0  0  0  0  0  0  0  0  0  0  0  0
   57.6266   30.6470   46.2382 H   0  0  0  0  0  0  0  0  0  0  0  0
   62.1633   31.4347   49.5277 H   0  0  0  0  0  0  0  0  0  0  0  0
   62.1564   29.4195   50.9983 H   0  0  0  0  0  0  0  0  0  0  0  0
   60.4788   27.6081   50.6306 H   0  0  0  0  0  0  0  0  0  0  0  0
   58.7995   27.8159   48.7969 H   0  0  0  0  0  0  0  0  0  0  0  0
   58.7908   29.8321   47.3278 H   0  0  0  0  0  0  0  0  0  0  0  0
   59.2922   34.2934   44.6096 H   0  0  0  0  0  0  0  0  0  0  0  0
   58.3479   33.7311   42.3754 H   0  0  0  0  0  0  0  0  0  0  0  0
   58.7374   28.8346   45.2412 H   0  0  0  0  0  0  0  0  0  0  0  0
  1  2  1  0
  2  3  2  0
  3  4  1  0
  4  5  2  0
  5  6  1  0
  5  7  1  0
  7  8  1  0
  8  9  1  0
  9 10  2  0
  9 11  1  0
 11 12  2  0
 12 13  1  0
 13 14  1  0
 14 15  2  0
 14 16  2  0
 14 17  1  0
 17 18  1  0
 18 19  2  0
 19 20  1  0
 20 21  2  0
 21 22  1  0
 22 23  2  0
 13 24  2  0
 24 25  1  0
 25 26  2  0
 26 27  1  0
  7 28  2  0
 28  2  1  0
 26 11  1  0
 23 18  1  0
  1 29  1  0
  1 30  1  0
  1 31  1  0
  3 32  1  0
  4 33  1  0
 12 34  1  0
 19 35  1  0
 20 36  1  0
 21 37  1  0
 22 38  1  0
 23 39  1  0
 24 40  1  0
 25 41  1  0
 28 42  1  0
M  CHG  4   6  -1   8  -1  17  -1  27  -1
M  END
>  <UniqueID>  (89) 
82

>  <SMILES>  (89) 
Cc1ccc([O-])c([N-]C(=O)c2cc(S(=O)(=O)[N-]c3ccccc3)ccc2[O-])c1

>  <Energy>  (89) 
53.549569187509654

>  <Genealogy>  (89) 
Cc1ccc([O-])c([N-]C(=O)c2cc(S(=O)(=O)[N-]c3ccccc3)ccc2[O-])c1 (protonated)
Cc1ccc([O-])c([N-]C(=O)c2cc(S(=O)(=O)[N-]c3ccccc3)ccc2[O-])c1 (3D coordinates assigned)
Cc1ccc([O-])c([N-]C(=O)c2cc(S(=O)(=O)[N-]c3ccccc3)ccc2[O-])c1 (optimized conformer: 53.549569187509654 kcal/mol)

>  <smiles>  (89) 
Cc1ccc(O)c(NC(=O)c2cc(S(=O)(=O)Nc3ccccc3)ccc2O)c1

>  <score_type>  (89) 
oracle

>  <origin>  (89) 
adg

>  <m_score__min__energy>  (89) 
-16.75

>  <m_primary>  (89) 
energy

$$$$
89:0
     RDKit          3D

 56 58  0  0  1  0  0  0  0  0999 V2000
   57.8010   32.0980   42.7790 O   0  0  0  0  0  0  0  0  0  0  0  0
   57.4100   32.3190   43.9630 C   0  0  0  0  0  0  0  0  0  0  0  0
   56.6310   31.3510   44.5790 O   0  0  0  0  0  0  0  0  0  0  0  0
   57.7820   33.5790   44.6530 C   0  0  0  0  0  0  0  0  0  0  0  0
   56.8280   34.3700   44.8350 O   0  0  0  0  0  0  0  0  0  0  0  0
   59.1760   33.7760   45.0450 C   0  0  0  0  0  0  0  0  0  0  0  0
   59.5530   33.1750   46.3770 C   0  0  1  0  0  0  0  0  0  0  0  0
   59.0860   34.0440   47.4780 C   0  0  0  0  0  0  0  0  0  0  0  0
   59.9590   34.0740   48.7150 C   0  0  0  0  0  0  0  0  0  0  0  0
   61.1930   33.2970   48.3240 C   0  0  0  0  0  0  0  0  0  0  0  0
   61.2410   31.9760   48.7590 C   0  0  0  0  0  0  0  0  0  0  0  0
   62.3420   31.1950   48.4380 C   0  0  0  0  0  0  0  0  0  0  0  0
   63.3810   31.7500   47.6850 C   0  0  0  0  0  0  0  0  0  0  0  0
   63.3080   33.0770   47.2630 C   0  0  0  0  0  0  0  0  0  0  0  0
   62.2070   33.8590   47.5830 C   0  0  0  0  0  0  0  0  0  0  0  0
   59.0180   31.7890   46.3850 C   0  0  0  0  0  0  0  0  0  0  0  0
   57.9230   31.5250   46.9510 O   0  0  0  0  0  0  0  0  0  0  0  0
   59.6870   30.6910   45.7690 N   0  0  0  0  0  0  0  0  0  0  0  0
   59.0240   29.4190   45.8860 C   0  0  0  0  0  0  0  0  0  0  0  0
   59.1900   28.7590   47.0870 C   0  0  0  0  0  0  0  0  0  0  0  0
   58.5570   27.5400   47.2210 C   0  0  0  0  0  0  0  0  0  0  0  0
   57.7860   27.0030   46.1820 C   0  0  0  0  0  0  0  0  0  0  0  0
   57.0280   25.4260   46.4550 S   0  0  0  0  0  0  0  0  0  0  0  0
   55.6190   25.5130   45.9730 O   0  0  0  0  0  0  0  0  0  0  0  0
   57.0040   25.1790   47.9370 O   0  0  0  0  0  0  0  0  0  0  0  0
   57.9280   24.2530   45.5950 N   0  0  0  0  0  0  0  0  0  0  0  0
   57.4470   23.5220   44.6730 C   0  0  0  0  0  0  0  0  0  0  0  0
   58.0210   22.3150   44.4770 N   0  0  0  0  0  0  0  0  0  0  0  0
   57.5920   21.4720   43.5300 C   0  0  0  0  0  0  0  0  0  0  0  0
   56.5310   21.8070   42.7040 C   0  0  0  0  0  0  0  0  0  0  0  0
   55.9500   23.0300   42.9020 C   0  0  0  0  0  0  0  0  0  0  0  0
   56.4220   23.8350   43.8690 N   0  0  0  0  0  0  0  0  0  0  0  0
   57.6370   27.6820   44.9920 C   0  0  0  0  0  0  0  0  0  0  0  0
   58.2680   28.9000   44.8590 C   0  0  0  0  0  0  0  0  0  0  0  0
   56.6470   31.2680   45.6130 H   0  0  0  0  0  0  0  0  0  0  0  0
   59.8153   33.3233   44.2727 H   0  0  0  0  0  0  0  0  0  0  0  0
   59.3173   34.8622   45.1458 H   0  0  0  0  0  0  0  0  0  0  0  0
   60.6402   33.1126   46.5326 H   0  0  0  0  0  0  0  0  0  0  0  0
   59.0164   35.0709   47.0900 H   0  0  0  0  0  0  0  0  0  0  0  0
   58.1245   33.6201   47.8034 H   0  0  0  0  0  0  0  0  0  0  0  0
   60.2193   35.1087   48.9825 H   0  0  0  0  0  0  0  0  0  0  0  0
   59.4551   33.6453   49.5938 H   0  0  0  0  0  0  0  0  0  0  0  0
   60.4148   31.5554   49.3511 H   0  0  0  0  0  0  0  0  0  0  0  0
   62.3969   30.1487   48.7729 H   0  0  0  0  0  0  0  0  0  0  0  0
   64.2577   31.1387   47.4249 H   0  0  0  0  0  0  0  0  0  0  0  0
   64.1296   33.5075   46.6717 H   0  0  0  0  0  0  0  0  0  0  0  0
   62.1463   34.9060   47.2512 H   0  0  0  0  0  0  0  0  0  0  0  0
   60.5840   30.8030   45.2590 H   0  0  0  0  0  0  0  0  0  0  0  0
   59.7981   29.1846   47.8989 H   0  0  0  0  0  0  0  0  0  0  0  0
   58.6599   26.9793   48.1618 H   0  0  0  0  0  0  0  0  0  0  0  0
   58.0891   20.4987   43.4055 H   0  0  0  0  0  0  0  0  0  0  0  0
   56.1717   21.1201   41.9236 H   0  0  0  0  0  0  0  0  0  0  0  0
   55.1047   23.3511   42.2756 H   0  0  0  0  0  0  0  0  0  0  0  0
   55.9520   24.7540   43.9800 H   0  0  0  0  0  0  0  0  0  0  0  0
   57.0327   27.2644   44.1731 H   0  0  0  0  0  0  0  0  0  0  0  0
   58.1664   29.4646   43.9205 H   0  0  0  0  0  0  0  0  0  0  0  0
  1  2  2  0
  2  3  1  0
  2  4  1  0
  4  5  2  0
  4  6  1  0
  6  7  1  0
  7  8  1  0
  8  9  1  0
  9 10  1  0
 10 11  2  0
 11 12  1  0
 12 13  2  0
 13 14  1  0
 14 15  2  0
  7 16  1  0
 16 17  2  0
 16 18  1  0
 18 19  1  0
 19 20  2  0
 20 21  1  0
 21 22  2  0
 22 23  1  0
 23 24  2  0
 23 25  2  0
 23 26  1  0
 26 27  2  3
 27 28  1  0
 28 29  2  0
 29 30  1  0
 30 31  2  0
 31 32  1  0
 22 33  1  0
 33 34  2  0
 15 10  1  0
 34 19  1  0
 32 27  1  0
  3 35  1  0
  6 36  1  0
  6 37  1  0
  7 38  1  6
  8 39  1  0
  8 40  1  0
  9 41  1  0
  9 42  1  0
 11 43  1  0
 12 44  1  0
 13 45  1  0
 14 46  1  0
 15 47  1  0
 18 48  1  0
 20 49  1  0
 21 50  1  0
 29 51  1  0
 30 52  1  0
 31 53  1  0
 32 54  1  0
 33 55  1  0
 34 56  1  0
M  END
>  <smiles>  (90) 
O=C(O)C(=O)CC(CCc1ccccc1)C(=O)Nc1ccc(S(=O)(=O)N=c2nccc[nH]2)cc1

>  <score_type>  (90) 
oracle

>  <origin>  (90) 
adg

>  <m_score__min__energy>  (90) 
-9.5800000000000001

>  <m_primary>  (90) 
energy

$$$$
90:0
     RDKit          3D

 53 56  0  0  0  0  0  0  0  0999 V2000
   55.0320   30.7246   43.7727 H   0  0  0  0  0  0  0  0  0  0  0  0
   56.0090   30.3150   44.0690 C   0  0  0  0  0  0  0  0  0  0  0  0
   56.8240   31.0290   44.8850 N   0  0  0  0  0  0  0  0  0  0  0  0
   58.0400   30.5340   45.2450 C   0  0  0  0  0  0  0  0  0  0  0  0
   58.9090   31.2910   46.1110 N   0  0  0  0  0  0  0  0  0  0  0  0
   59.7240   30.5870   47.1150 C   0  0  0  0  0  0  0  0  0  0  0  0
   60.1104   29.6598   46.6667 H   0  0  0  0  0  0  0  0  0  0  0  0
   59.0783   30.3828   47.9818 H   0  0  0  0  0  0  0  0  0  0  0  0
   60.8940   31.4120   47.6030 C   0  0  0  0  0  0  0  0  0  0  0  0
   61.7890   30.8400   48.5200 C   0  0  0  0  0  0  0  0  0  0  0  0
   61.6294   29.8077   48.8649 H   0  0  0  0  0  0  0  0  0  0  0  0
   62.8820   31.5690   49.0000 C   0  0  0  0  0  0  0  0  0  0  0  0
   63.5754   31.1080   49.7188 H   0  0  0  0  0  0  0  0  0  0  0  0
   63.0970   32.8880   48.5670 C   0  0  0  0  0  0  0  0  0  0  0  0
   64.1840   33.6560   49.0120 O   0  0  0  0  0  0  0  0  0  0  0  0
   65.2450   33.1570   49.8210 C   0  0  0  0  0  0  0  0  0  0  0  0
   64.9851   33.2792   50.8828 H   0  0  0  0  0  0  0  0  0  0  0  0
   65.4024   32.0905   49.6024 H   0  0  0  0  0  0  0  0  0  0  0  0
   66.1668   33.7160   49.6024 H   0  0  0  0  0  0  0  0  0  0  0  0
   62.2020   33.4620   47.6570 C   0  0  0  0  0  0  0  0  0  0  0  0
   62.3688   34.4923   47.3097 H   0  0  0  0  0  0  0  0  0  0  0  0
   61.0950   32.7430   47.1810 C   0  0  0  0  0  0  0  0  0  0  0  0
   60.1940   33.3710   46.1510 C   0  0  0  0  0  0  0  0  0  0  0  0
   60.6286   33.2172   45.1523 H   0  0  0  0  0  0  0  0  0  0  0  0
   60.1050   34.4446   46.3736 H   0  0  0  0  0  0  0  0  0  0  0  0
   58.8020   32.7530   46.1880 C   0  0  0  0  0  0  0  0  0  0  0  0
   58.2149   33.1224   45.3343 H   0  0  0  0  0  0  0  0  0  0  0  0
   58.3032   33.0334   47.1275 H   0  0  0  0  0  0  0  0  0  0  0  0
   58.4190   29.3130   44.7860 N   0  0  0  0  0  0  0  0  0  0  0  0
   57.6000   28.5830   43.9840 C   0  0  0  0  0  0  0  0  0  0  0  0
   57.9590   27.4170   43.5310 N   0  0  0  0  0  0  0  0  0  0  0  0
   57.9260   26.1650   44.2400 C   0  0  0  0  0  0  0  0  0  0  0  0
   58.7140   25.9330   45.3780 C   0  0  0  0  0  0  0  0  0  0  0  0
   59.3998   26.7144   45.7373 H   0  0  0  0  0  0  0  0  0  0  0  0
   58.6320   24.7180   46.0550 C   0  0  0  0  0  0  0  0  0  0  0  0
   59.2694   24.5416   46.9340 H   0  0  0  0  0  0  0  0  0  0  0  0
   57.7420   23.7120   45.6270 C   0  0  0  0  0  0  0  0  0  0  0  0
   57.6500   22.4900   46.3150 O   0  0  0  0  0  0  0  0  0  0  0  0
   57.9330   21.2130   45.7500 C   0  0  0  0  0  0  0  0  0  0  0  0
   58.0948   20.4829   46.5567 H   0  0  0  0  0  0  0  0  0  0  0  0
   57.0845   20.8908   45.1286 H   0  0  0  0  0  0  0  0  0  0  0  0
   58.8382   21.2794   45.1286 H   0  0  0  0  0  0  0  0  0  0  0  0
   56.9220   23.9480   44.4950 C   0  0  0  0  0  0  0  0  0  0  0  0
   55.9510   22.9330   43.9940 C   0  0  0  0  0  0  0  0  0  0  0  0
   56.2520   22.2140   43.0030 O   0  0  0  0  0  0  0  0  0  0  0  0
   54.6790   22.7530   44.6260 N   0  0  0  0  0  0  0  0  0  0  0  0
   53.9400   23.8450   45.2390 C   0  0  0  0  0  0  0  0  0  0  0  0
   53.9987   23.7583   46.3340 H   0  0  0  0  0  0  0  0  0  0  0  0
   54.3750   24.8048   44.9234 H   0  0  0  0  0  0  0  0  0  0  0  0
   52.8873   23.7980   44.9234 H   0  0  0  0  0  0  0  0  0  0  0  0
   57.0200   25.1850   43.8260 C   0  0  0  0  0  0  0  0  0  0  0  0
   56.3702   25.3827   42.9607 H   0  0  0  0  0  0  0  0  0  0  0  0
   56.3980   29.0960   43.6180 N   0  0  0  0  0  0  0  0  0  0  0  0
  1  2  1  0
  2  3  2  0
  3  4  1  0
  4  5  1  0
  5  6  1  0
  6  7  1  0
  6  8  1  0
  6  9  1  0
  9 10  2  0
 10 11  1  0
 10 12  1  0
 12 13  1  0
 12 14  2  0
 14 15  1  0
 15 16  1  0
 16 17  1  0
 16 18  1  0
 16 19  1  0
 14 20  1  0
 20 21  1  0
 20 22  2  0
 22 23  1  0
 23 24  1  0
 23 25  1  0
 23 26  1  0
 26 27  1  0
 26 28  1  0
  4 29  2  0
 29 30  1  0
 30 31  2  0
 31 32  1  0
 32 33  2  0
 33 34  1  0
 33 35  1  0
 35 36  1  0
 35 37  2  0
 37 38  1  0
 38 39  1  0
 39 40  1  0
 39 41  1  0
 39 42  1  0
 37 43  1  0
 43 44  1  0
 44 45  2  0
 44 46  1  0
 46 47  1  0
 47 48  1  0
 47 49  1  0
 47 50  1  0
 43 51  2  0
 51 52  1  0
 30 53  1  0
 53  2  1  0
 26  5  1  0
 51 32  1  0
 22  9  1  0
M  CHG  2  46  -1  53  -1
M  END
>  <UniqueID>  (91) 
83

>  <SMILES>  (91) 
C[N-]C(=O)c1cc(/N=c2\nc(N3CCc4cc(OC)ccc4C3)nc[n-]2)ccc1OC

>  <Energy>  (91) 
65.39488283348825

>  <Genealogy>  (91) 
C[N-]C(=O)c1cc(N=c2nc(N3CCc4cc(OC)ccc4C3)nc[n-]2)ccc1OC (protonated)
C[N-]C(=O)c1cc(/N=c2\nc(N3CCc4cc(OC)ccc4C3)nc[n-]2)ccc1OC (cis-trans isomerization)
C[N-]C(=O)c1cc(/N=c2\nc(N3CCc4cc(OC)ccc4C3)nc[n-]2)ccc1OC (3D coordinates assigned)
C[N-]C(=O)c1cc(/N=c2\nc(N3CCc4cc(OC)ccc4C3)nc[n-]2)ccc1OC (nonaromatic ring conformer: 65.39488283348825 kcal/mol)

>  <smiles>  (91) 
CNC(=O)c1cc(N=c2nc(N3CCc4cc(OC)ccc4C3)nc[nH]2)ccc1OC

>  <score_type>  (91) 
oracle

>  <origin>  (91) 
adg

>  <m_score__min__energy>  (91) 
-11.890000000000001

>  <m_primary>  (91) 
energy

$$$$
91:0
     RDKit          3D

 74 79  0  0  0  0  0  0  0  0999 V2000
   61.2310   30.4120   46.8660 C   0  0  0  0  0  0  0  0  0  0  0  0
   60.8250   29.6750   48.1070 C   0  0  0  0  0  0  0  0  0  0  0  0
   60.3620   28.3590   48.2230 C   0  0  0  0  0  0  0  0  0  0  0  0
   60.1930   27.3730   47.1420 C   0  0  0  0  0  0  0  0  0  0  0  0
   61.2070   26.7430   46.7400 O   0  0  0  0  0  0  0  0  0  0  0  0
   58.9150   27.1410   46.5160 N   0  0  0  0  0  0  0  0  0  0  0  0
   58.8270   26.2300   45.3680 C   0  0  0  0  0  0  0  0  0  0  0  0
   57.5580   25.4290   45.4450 C   0  0  0  0  0  0  0  0  0  0  0  0
   57.5910   24.0360   45.2690 C   0  0  0  0  0  0  0  0  0  0  0  0
   56.4040   23.2970   45.2830 C   0  0  0  0  0  0  0  0  0  0  0  0
   55.1770   23.9430   45.4620 C   0  0  0  0  0  0  0  0  0  0  0  0
   55.1350   25.3310   45.6260 C   0  0  0  0  0  0  0  0  0  0  0  0
   53.9140   25.9730   45.7960 O   0  0  0  0  0  0  0  0  0  0  0  0
   56.3210   26.0740   45.6150 C   0  0  0  0  0  0  0  0  0  0  0  0
   57.7750   28.0110   46.8350 C   0  0  0  0  0  0  0  0  0  0  0  0
   57.6740   29.1240   45.8270 C   0  0  0  0  0  0  0  0  0  0  0  0
   57.0080   28.9130   44.6100 C   0  0  0  0  0  0  0  0  0  0  0  0
   56.8790   29.9540   43.6890 C   0  0  0  0  0  0  0  0  0  0  0  0
   57.4030   31.2160   43.9770 C   0  0  0  0  0  0  0  0  0  0  0  0
   58.0660   31.4510   45.1950 C   0  0  0  0  0  0  0  0  0  0  0  0
   58.6130   32.7970   45.5100 C   0  0  0  0  0  0  0  0  0  0  0  0
   58.4920   33.8510   44.5880 C   0  0  0  0  0  0  0  0  0  0  0  0
   58.9880   35.1190   44.8950 C   0  0  0  0  0  0  0  0  0  0  0  0
   59.6120   35.3520   46.1220 C   0  0  0  0  0  0  0  0  0  0  0  0
   59.7590   34.3090   47.0500 C   0  0  0  0  0  0  0  0  0  0  0  0
   60.4420   34.5570   48.3800 C   0  0  0  0  0  0  0  0  0  0  0  0
   61.7620   33.8960   48.5120 N   0  0  0  0  0  0  0  0  0  0  0  0
   62.5060   33.8320   47.2390 C   0  0  0  0  0  0  0  0  0  0  0  0
   63.6570   32.8300   47.3670 C   0  0  0  0  0  0  0  0  0  0  0  0
   64.4360   33.0650   48.5830 N   0  0  0  0  0  0  0  0  0  0  0  0
   63.8690   33.7210   49.7220 C   0  0  0  0  0  0  0  0  0  0  0  0
   64.4790   33.7090   50.8250 O   0  0  0  0  0  0  0  0  0  0  0  0
   62.5890   34.4880   49.5800 C   0  0  0  0  0  0  0  0  0  0  0  0
   59.2510   33.0360   46.7410 C   0  0  0  0  0  0  0  0  0  0  0  0
   58.1960   30.3950   46.1160 C   0  0  0  0  0  0  0  0  0  0  0  0
   60.0540   28.0940   49.4800 O   0  0  0  0  0  0  0  0  0  0  0  0
   60.3170   29.1640   50.1910 C   0  0  0  0  0  0  0  0  0  0  0  0
   60.1500   29.3320   51.5630 C   0  0  0  0  0  0  0  0  0  0  0  0
   60.4950   30.5770   52.1210 C   0  0  0  0  0  0  0  0  0  0  0  0
   60.9940   31.6140   51.3010 C   0  0  0  0  0  0  0  0  0  0  0  0
   61.1520   31.4150   49.9170 C   0  0  0  0  0  0  0  0  0  0  0  0
   60.8020   30.1690   49.3950 C   0  0  0  0  0  0  0  0  0  0  0  0
   61.7445   31.3441   47.1445 H   0  0  0  0  0  0  0  0  0  0  0  0
   61.9099   29.7829   46.2715 H   0  0  0  0  0  0  0  0  0  0  0  0
   60.3365   30.6497   46.2715 H   0  0  0  0  0  0  0  0  0  0  0  0
   58.8325   26.8155   44.4368 H   0  0  0  0  0  0  0  0  0  0  0  0
   59.6880   25.5456   45.3828 H   0  0  0  0  0  0  0  0  0  0  0  0
   58.5535   23.5248   45.1197 H   0  0  0  0  0  0  0  0  0  0  0  0
   56.4356   22.2052   45.1529 H   0  0  0  0  0  0  0  0  0  0  0  0
   54.2447   23.3593   45.4738 H   0  0  0  0  0  0  0  0  0  0  0  0
   56.2848   27.1663   45.7398 H   0  0  0  0  0  0  0  0  0  0  0  0
   56.8487   27.4181   46.8160 H   0  0  0  0  0  0  0  0  0  0  0  0
   57.9224   28.4443   47.8353 H   0  0  0  0  0  0  0  0  0  0  0  0
   56.5859   27.9234   44.3809 H   0  0  0  0  0  0  0  0  0  0  0  0
   56.3630   29.7797   42.7333 H   0  0  0  0  0  0  0  0  0  0  0  0
   57.2965   32.0316   43.2466 H   0  0  0  0  0  0  0  0  0  0  0  0
   58.0033   33.6754   43.6183 H   0  0  0  0  0  0  0  0  0  0  0  0
   58.8869   35.9378   44.1675 H   0  0  0  0  0  0  0  0  0  0  0  0
   59.9899   36.3567   46.3625 H   0  0  0  0  0  0  0  0  0  0  0  0
   60.5846   35.6412   48.4988 H   0  0  0  0  0  0  0  0  0  0  0  0
   59.7919   34.1278   49.1567 H   0  0  0  0  0  0  0  0  0  0  0  0
   61.8282   33.5103   46.4345 H   0  0  0  0  0  0  0  0  0  0  0  0
   62.9119   34.8266   47.0025 H   0  0  0  0  0  0  0  0  0  0  0  0
   63.2430   31.8114   47.3983 H   0  0  0  0  0  0  0  0  0  0  0  0
   64.3224   32.9542   46.4999 H   0  0  0  0  0  0  0  0  0  0  0  0
   65.3580   32.5850   48.6830 H   0  0  0  0  0  0  0  0  0  0  0  0
   62.0362   34.4532   50.5304 H   0  0  0  0  0  0  0  0  0  0  0  0
   62.8203   35.5317   49.3209 H   0  0  0  0  0  0  0  0  0  0  0  0
   59.3531   32.2178   47.4690 H   0  0  0  0  0  0  0  0  0  0  0  0
   58.7119   30.5671   47.0722 H   0  0  0  0  0  0  0  0  0  0  0  0
   59.7606   28.5172   52.1911 H   0  0  0  0  0  0  0  0  0  0  0  0
   60.3755   30.7439   53.2017 H   0  0  0  0  0  0  0  0  0  0  0  0
   61.2607   32.5833   51.7476 H   0  0  0  0  0  0  0  0  0  0  0  0
   61.5385   32.2148   49.2682 H   0  0  0  0  0  0  0  0  0  0  0  0
  1  2  1  0
  2  3  2  0
  3  4  1  0
  4  5  2  0
  4  6  1  0
  6  7  1  0
  7  8  1  0
  8  9  2  0
  9 10  1  0
 10 11  2  0
 11 12  1  0
 12 13  1  0
 12 14  2  0
  6 15  1  0
 15 16  1  0
 16 17  2  0
 17 18  1  0
 18 19  2  0
 19 20  1  0
 20 21  1  0
 21 22  2  0
 22 23  1  0
 23 24  2  0
 24 25  1  0
 25 26  1  0
 26 27  1  0
 27 28  1  0
 28 29  1  0
 29 30  1  0
 30 31  1  0
 31 32  2  0
 31 33  1  0
 25 34  2  0
 20 35  2  0
  3 36  1  0
 36 37  1  0
 37 38  2  0
 38 39  1  0
 39 40  2  0
 40 41  1  0
 41 42  2  0
 42  2  1  0
 14  8  1  0
 35 16  1  0
 42 37  1  0
 34 21  1  0
 33 27  1  0
  1 43  1  0
  1 44  1  0
  1 45  1  0
  7 46  1  0
  7 47  1  0
  9 48  1  0
 10 49  1  0
 11 50  1  0
 14 51  1  0
 15 52  1  0
 15 53  1  0
 17 54  1  0
 18 55  1  0
 19 56  1  0
 22 57  1  0
 23 58  1  0
 24 59  1  0
 26 60  1  0
 26 61  1  0
 28 62  1  0
 28 63  1  0
 29 64  1  0
 29 65  1  0
 30 66  1  0
 33 67  1  0
 33 68  1  0
 34 69  1  0
 35 70  1  0
 38 71  1  0
 39 72  1  0
 40 73  1  0
 41 74  1  0
M  CHG  1  13  -1
M  END
>  <UniqueID>  (92) 
84

>  <SMILES>  (92) 
Cc1c(C(=O)N(Cc2cccc([O-])c2)Cc2cccc(-c3cccc(CN4CCNC(=O)C4)c3)c2)oc2ccccc12

>  <Energy>  (92) 
122.68921580808843

>  <Genealogy>  (92) 
Cc1c(C(=O)N(Cc2cccc([O-])c2)Cc2cccc(-c3cccc(CN4CCNC(=O)C4)c3)c2)oc2ccccc12 (protonated)
Cc1c(C(=O)N(Cc2cccc([O-])c2)Cc2cccc(-c3cccc(CN4CCNC(=O)C4)c3)c2)oc2ccccc12 (3D coordinates assigned)
Cc1c(C(=O)N(Cc2cccc([O-])c2)Cc2cccc(-c3cccc(CN4CCNC(=O)C4)c3)c2)oc2ccccc12 (nonaromatic ring conformer: 122.68921580808843 kcal/mol)

>  <smiles>  (92) 
Cc1c(C(=O)N(Cc2cccc(O)c2)Cc2cccc(-c3cccc(CN4CCNC(=O)C4)c3)c2)oc2ccccc12

>  <score_type>  (92) 
oracle

>  <origin>  (92) 
adg

>  <m_score__min__energy>  (92) 
-14.77

>  <m_primary>  (92) 
energy

$$$$
