0:0
     RDKit          3D

 51 54  0  0  0  0  0  0  0  0999 V2000
   57.0780   33.8560   44.4690 O   0  0  0  0  0  0  0  0  0  0  0  0
   57.0520   32.9160   45.3100 C   0  0  0  0  0  0  0  0  0  0  0  0
   57.4240   33.1760   46.7400 C   0  0  0  0  0  0  0  0  0  0  0  0
   58.7890   32.6710   47.0110 N   0  0  0  0  0  0  0  0  0  0  0  0
   59.8390   33.5460   47.0200 C   0  0  0  0  0  0  0  0  0  0  0  0
   59.6340   34.7840   46.8640 O   0  0  0  0  0  0  0  0  0  0  0  0
   61.1470   33.0770   47.1920 C   0  0  0  0  0  0  0  0  0  0  0  0
   62.2360   33.9730   47.2110 C   0  0  0  0  0  0  0  0  0  0  0  0
   63.5340   33.5040   47.3840 C   0  0  0  0  0  0  0  0  0  0  0  0
   63.7640   32.1430   47.5430 C   0  0  0  0  0  0  0  0  0  0  0  0
   62.7000   31.2400   47.5220 C   0  0  0  0  0  0  0  0  0  0  0  0
   61.3640   31.6840   47.3370 C   0  0  0  0  0  0  0  0  0  0  0  0
   60.2850   30.8190   47.2900 N   0  0  0  0  0  0  0  0  0  0  0  0
   60.4280   29.3460   47.4050 C   0  0  0  0  0  0  0  0  0  0  0  0
   60.5110   28.9230   48.8520 C   0  0  0  0  0  0  0  0  0  0  0  0
   60.7320   27.5780   49.1960 C   0  0  0  0  0  0  0  0  0  0  0  0
   60.8280   27.1980   50.5380 C   0  0  0  0  0  0  0  0  0  0  0  0
   60.7060   28.1560   51.5480 C   0  0  0  0  0  0  0  0  0  0  0  0
   60.4850   29.4950   51.2170 C   0  0  0  0  0  0  0  0  0  0  0  0
   60.3890   29.8790   49.8770 C   0  0  0  0  0  0  0  0  0  0  0  0
   59.0100   31.3230   47.1360 C   0  0  0  0  0  0  0  0  0  0  0  0
   58.0260   30.5300   47.0960 O   0  0  0  0  0  0  0  0  0  0  0  0
   56.6500   31.6030   44.9140 N   0  0  0  0  0  0  0  0  0  0  0  0
   57.3290   30.8250   43.8920 C   0  0  0  0  0  0  0  0  0  0  0  0
   57.6640   29.4690   44.4530 C   0  0  0  0  0  0  0  0  0  0  0  0
   58.9600   28.9460   44.3120 C   0  0  0  0  0  0  0  0  0  0  0  0
   59.2670   27.6760   44.8100 C   0  0  0  0  0  0  0  0  0  0  0  0
   58.2850   26.9180   45.4490 C   0  0  0  0  0  0  0  0  0  0  0  0
   56.9920   27.4250   45.5900 C   0  0  0  0  0  0  0  0  0  0  0  0
   56.6730   28.6970   45.0930 C   0  0  0  0  0  0  0  0  0  0  0  0
   55.3750   29.1930   45.2250 O   0  0  0  0  0  0  0  0  0  0  0  0
   57.3916   34.2584   46.9332 H   0  0  0  0  0  0  0  0  0  0  0  0
   56.7111   32.6567   47.3974 H   0  0  0  0  0  0  0  0  0  0  0  0
   62.0574   35.0514   47.0880 H   0  0  0  0  0  0  0  0  0  0  0  0
   64.3776   34.2099   47.3949 H   0  0  0  0  0  0  0  0  0  0  0  0
   64.7907   31.7750   47.6863 H   0  0  0  0  0  0  0  0  0  0  0  0
   62.8998   30.1660   47.6510 H   0  0  0  0  0  0  0  0  0  0  0  0
   59.5574   28.8623   46.9380 H   0  0  0  0  0  0  0  0  0  0  0  0
   61.3553   29.0427   46.8969 H   0  0  0  0  0  0  0  0  0  0  0  0
   60.8300   26.8202   48.4047 H   0  0  0  0  0  0  0  0  0  0  0  0
   60.9998   26.1434   50.7992 H   0  0  0  0  0  0  0  0  0  0  0  0
   60.7840   27.8558   52.6034 H   0  0  0  0  0  0  0  0  0  0  0  0
   60.3864   30.2483   52.0125 H   0  0  0  0  0  0  0  0  0  0  0  0
   60.2170   30.9351   49.6219 H   0  0  0  0  0  0  0  0  0  0  0  0
   56.6716   30.7106   43.0175 H   0  0  0  0  0  0  0  0  0  0  0  0
   58.2515   31.3390   43.5841 H   0  0  0  0  0  0  0  0  0  0  0  0
   59.7373   29.5385   43.8073 H   0  0  0  0  0  0  0  0  0  0  0  0
   60.2846   27.2736   44.6978 H   0  0  0  0  0  0  0  0  0  0  0  0
   58.5299   25.9202   45.8419 H   0  0  0  0  0  0  0  0  0  0  0  0
   56.2200   26.8242   46.0931 H   0  0  0  0  0  0  0  0  0  0  0  0
   55.1920   30.1080   45.6200 H   0  0  0  0  0  0  0  0  0  0  0  0
  1  2  2  0
  2  3  1  0
  3  4  1  0
  4  5  1  0
  5  6  2  0
  5  7  1  0
  7  8  2  0
  8  9  1  0
  9 10  2  0
 10 11  1  0
 11 12  2  0
 12 13  1  0
 13 14  1  0
 14 15  1  0
 15 16  2  0
 16 17  1  0
 17 18  2  0
 18 19  1  0
 19 20  2  0
 13 21  1  0
 21 22  2  0
  2 23  1  0
 23 24  1  0
 24 25  1  0
 25 26  2  0
 26 27  1  0
 27 28  2  0
 28 29  1  0
 29 30  2  0
 30 31  1  0
 21  4  1  0
 30 25  1  0
 12  7  1  0
 20 15  1  0
  3 32  1  0
  3 33  1  0
  8 34  1  0
  9 35  1  0
 10 36  1  0
 11 37  1  0
 14 38  1  0
 14 39  1  0
 16 40  1  0
 17 41  1  0
 18 42  1  0
 19 43  1  0
 20 44  1  0
 24 45  1  0
 24 46  1  0
 26 47  1  0
 27 48  1  0
 28 49  1  0
 29 50  1  0
 31 51  1  0
M  CHG  1  23  -1
M  END
>  <UniqueID>  (1) 
1

>  <SMILES>  (1) 
O=C(Cn1c(=O)c2ccccc2n(Cc2ccccc2)c1=O)[N-]Cc1ccccc1O

>  <Energy>  (1) 
68.48388009610423

>  <Genealogy>  (1) 
O=C(Cn1c(=O)c2ccccc2n(Cc2ccccc2)c1=O)[N-]Cc1ccccc1O (protonated)
O=C(Cn1c(=O)c2ccccc2n(Cc2ccccc2)c1=O)[N-]Cc1ccccc1O (3D coordinates assigned)
O=C(Cn1c(=O)c2ccccc2n(Cc2ccccc2)c1=O)[N-]Cc1ccccc1O (optimized conformer: 68.48388009610423 kcal/mol)

>  <smiles>  (1) 
O=C(Cn1c(=O)c2ccccc2n(Cc2ccccc2)c1=O)NCc1ccccc1O

>  <score_type>  (1) 
oracle

>  <origin>  (1) 
adg

>  <m_score__min__energy>  (1) 
-12.789999999999999

>  <m_primary>  (1) 
energy

$$$$
1:0
     RDKit          3D

 32 33  0  0  0  0  0  0  0  0999 V2000
   57.9988   22.6245   45.1550 H   0  0  0  0  0  0  0  0  0  0  0  0
   57.3180   23.4710   45.3280 C   0  0  0  0  0  0  0  0  0  0  0  0
   57.7730   24.5940   45.9450 N   0  0  0  0  0  0  0  0  0  0  0  0
   56.9650   25.6680   46.1810 C   0  0  0  0  0  0  0  0  0  0  0  0
   57.4170   26.7360   46.7760 N   0  0  0  0  0  0  0  0  0  0  0  0
   57.4180   28.0770   46.2630 C   0  0  0  0  0  0  0  0  0  0  0  0
   58.0910   28.9870   46.8210 O   0  0  0  0  0  0  0  0  0  0  0  0
   56.6420   28.3740   45.0960 N   0  0  0  0  0  0  0  0  0  0  0  0
   56.1600   27.5900   44.6030 H   0  0  0  0  0  0  0  0  0  0  0  0
   56.5250   29.7240   44.5420 C   0  0  0  0  0  0  0  0  0  0  0  0
   55.9982   29.6715   43.5778 H   0  0  0  0  0  0  0  0  0  0  0  0
   55.9661   30.3460   45.2567 H   0  0  0  0  0  0  0  0  0  0  0  0
   57.9050   30.3570   44.3240 C   0  0  0  0  0  0  0  0  0  0  0  0
   58.6731   29.6981   44.7550 H   0  0  0  0  0  0  0  0  0  0  0  0
   58.0611   30.4831   43.2425 H   0  0  0  0  0  0  0  0  0  0  0  0
   57.9980   31.7120   44.9780 C   0  0  0  0  0  0  0  0  0  0  0  0
   57.7550   32.8790   44.2330 C   0  0  0  0  0  0  0  0  0  0  0  0
   57.4696   32.8035   43.1734 H   0  0  0  0  0  0  0  0  0  0  0  0
   57.8750   34.1360   44.8350 C   0  0  0  0  0  0  0  0  0  0  0  0
   57.6779   35.0463   44.2497 H   0  0  0  0  0  0  0  0  0  0  0  0
   58.2450   34.2370   46.1790 C   0  0  0  0  0  0  0  0  0  0  0  0
   58.3370   35.2263   46.6511 H   0  0  0  0  0  0  0  0  0  0  0  0
   58.4980   33.0820   46.9230 C   0  0  0  0  0  0  0  0  0  0  0  0
   58.7904   33.1629   47.9803 H   0  0  0  0  0  0  0  0  0  0  0  0
   58.3800   31.8220   46.3250 C   0  0  0  0  0  0  0  0  0  0  0  0
   58.5871   30.9150   46.9119 H   0  0  0  0  0  0  0  0  0  0  0  0
   55.6220   25.6190   45.7770 C   0  0  0  0  0  0  0  0  0  0  0  0
   54.7720   26.6980   46.0040 O   0  0  0  0  0  0  0  0  0  0  0  0
   55.1370   24.4740   45.1410 C   0  0  0  0  0  0  0  0  0  0  0  0
   54.0861   24.4258   44.8196 H   0  0  0  0  0  0  0  0  0  0  0  0
   55.9870   23.3920   44.9140 C   0  0  0  0  0  0  0  0  0  0  0  0
   55.6129   22.4863   44.4143 H   0  0  0  0  0  0  0  0  0  0  0  0
  1  2  1  0
  2  3  1  0
  3  4  1  0
  4  5  2  0
  5  6  1  0
  6  7  2  0
  6  8  1  0
  8  9  1  0
  8 10  1  0
 10 11  1  0
 10 12  1  0
 10 13  1  0
 13 14  1  0
 13 15  1  0
 13 16  1  0
 16 17  2  0
 17 18  1  0
 17 19  1  0
 19 20  1  0
 19 21  2  0
 21 22  1  0
 21 23  1  0
 23 24  1  0
 23 25  2  0
 25 26  1  0
  4 27  1  0
 27 28  1  0
 27 29  2  0
 29 30  1  0
 29 31  1  0
 31 32  1  0
 31  2  2  0
 25 16  1  0
M  CHG  2   3  -1  28  -1
M  END
>  <UniqueID>  (2) 
2

>  <SMILES>  (2) 
O=C(/N=c1\[n-]cccc1[O-])NCCc1ccccc1

>  <Energy>  (2) 
30.828496763330104

>  <Genealogy>  (2) 
O=C(N=c1[n-]cccc1[O-])NCCc1ccccc1 (protonated)
O=C(/N=c1\[n-]cccc1[O-])NCCc1ccccc1 (cis-trans isomerization)
O=C(/N=c1\[n-]cccc1[O-])NCCc1ccccc1 (3D coordinates assigned)
O=C(/N=c1\[n-]cccc1[O-])NCCc1ccccc1 (optimized conformer: 30.828496763330104 kcal/mol)

>  <smiles>  (2) 
O=C(N=c1[nH]cccc1O)NCCc1ccccc1

>  <score_type>  (2) 
oracle

>  <origin>  (2) 
adg

>  <m_score__min__energy>  (2) 
-12.699999999999999

>  <m_primary>  (2) 
energy

$$$$
2:0
     RDKit          3D

 28 29  0  0  0  0  0  0  0  0999 V2000
   57.3700   28.7500   43.3620 C   0  0  0  0  0  0  0  0  0  0  0  0
   56.6650   29.2890   44.9070 S   0  0  0  0  0  0  0  0  0  0  0  0
   57.1840   30.6670   45.2090 O   0  0  0  0  0  0  0  0  0  0  0  0
   55.1660   29.3470   44.8080 O   0  0  0  0  0  0  0  0  0  0  0  0
   57.1370   28.2180   46.1890 N   0  0  0  0  0  0  0  0  0  0  0  0
   57.1930   26.7840   46.0650 C   0  0  0  0  0  0  0  0  0  0  0  0
   58.4220   26.1030   45.9860 C   0  0  0  0  0  0  0  0  0  0  0  0
   58.4560   24.7150   45.8490 C   0  0  0  0  0  0  0  0  0  0  0  0
   57.2700   23.9850   45.7900 C   0  0  0  0  0  0  0  0  0  0  0  0
   56.0310   24.6370   45.8710 C   0  0  0  0  0  0  0  0  0  0  0  0
   54.7830   23.8410   45.8080 C   0  0  0  0  0  0  0  0  0  0  0  0
   54.0280   23.8090   44.6270 C   0  0  0  0  0  0  0  0  0  0  0  0
   52.8840   23.0790   44.5690 N   0  0  0  0  0  0  0  0  0  0  0  0
   52.4550   22.3650   45.6400 C   0  0  0  0  0  0  0  0  0  0  0  0
   51.3910   21.6980   45.5660 O   0  0  0  0  0  0  0  0  0  0  0  0
   53.1750   22.3670   46.7910 N   0  0  0  0  0  0  0  0  0  0  0  0
   54.3260   23.0800   46.8990 C   0  0  0  0  0  0  0  0  0  0  0  0
   54.9800   23.0380   47.9750 O   0  0  0  0  0  0  0  0  0  0  0  0
   55.9950   26.0420   45.9930 C   0  0  0  0  0  0  0  0  0  0  0  0
   54.7700   26.7020   46.0280 O   0  0  0  0  0  0  0  0  0  0  0  0
   58.2295   28.0929   43.5606 H   0  0  0  0  0  0  0  0  0  0  0  0
   56.6124   28.1987   42.7858 H   0  0  0  0  0  0  0  0  0  0  0  0
   57.7034   29.6257   42.7858 H   0  0  0  0  0  0  0  0  0  0  0  0
   57.4870   28.6720   47.0630 H   0  0  0  0  0  0  0  0  0  0  0  0
   59.3636   26.6697   46.0327 H   0  0  0  0  0  0  0  0  0  0  0  0
   59.4230   24.1944   45.7873 H   0  0  0  0  0  0  0  0  0  0  0  0
   57.3061   22.8912   45.6793 H   0  0  0  0  0  0  0  0  0  0  0  0
   54.3627   24.3761   43.7459 H   0  0  0  0  0  0  0  0  0  0  0  0
  1  2  1  0
  2  3  2  0
  2  4  2  0
  2  5  1  0
  5  6  1  0
  6  7  2  0
  7  8  1  0
  8  9  2  0
  9 10  1  0
 10 11  1  0
 11 12  2  0
 12 13  1  0
 13 14  1  0
 14 15  2  0
 14 16  1  0
 16 17  1  0
 17 18  2  0
 10 19  2  0
 19 20  1  0
 19  6  1  0
 17 11  1  0
  1 21  1  0
  1 22  1  0
  1 23  1  0
  5 24  1  0
  7 25  1  0
  8 26  1  0
  9 27  1  0
 12 28  1  0
M  CHG  3  13  -1  16  -1  20  -1
M  END
>  <UniqueID>  (3) 
3

>  <SMILES>  (3) 
CS(=O)(=O)Nc1cccc(-c2c[n-]c(=O)[n-]c2=O)c1[O-]

>  <Energy>  (3) 
37.82380783198294

>  <Genealogy>  (3) 
CS(=O)(=O)Nc1cccc(-c2c[n-]c(=O)[n-]c2=O)c1[O-] (protonated)
CS(=O)(=O)Nc1cccc(-c2c[n-]c(=O)[n-]c2=O)c1[O-] (3D coordinates assigned)
CS(=O)(=O)Nc1cccc(-c2c[n-]c(=O)[n-]c2=O)c1[O-] (optimized conformer: 37.82380783198294 kcal/mol)

>  <smiles>  (3) 
CS(=O)(=O)Nc1cccc(-c2c[nH]c(=O)[nH]c2=O)c1O

>  <score_type>  (3) 
oracle

>  <origin>  (3) 
adg

>  <m_score__min__energy>  (3) 
-14.140000000000001

>  <m_primary>  (3) 
energy

$$$$
3:0
     RDKit          3D

 70 74  0  0  0  0  0  0  0  0999 V2000
   58.8795   34.0871   50.2427 H   0  0  0  0  0  0  0  0  0  0  0  0
   59.4670   33.3780   49.6410 C   0  0  0  0  0  0  0  0  0  0  0  0
   60.1460   33.8120   48.5560 N   0  0  0  0  0  0  0  0  0  0  0  0
   60.8980   32.9820   47.7930 C   0  0  0  0  0  0  0  0  0  0  0  0
   61.5020   33.5000   46.7540 N   0  0  0  0  0  0  0  0  0  0  0  0
   62.9210   33.5010   46.3980 C   0  0  0  0  0  0  0  0  0  0  0  0
   63.2680   32.4620   46.2978 H   0  0  0  0  0  0  0  0  0  0  0  0
   63.0448   34.0404   45.4474 H   0  0  0  0  0  0  0  0  0  0  0  0
   63.7550   34.2080   47.4760 C   0  0  0  0  0  0  0  0  0  0  0  0
   64.8114   34.2137   47.1693 H   0  0  0  0  0  0  0  0  0  0  0  0
   63.3853   35.2377   47.5905 H   0  0  0  0  0  0  0  0  0  0  0  0
   63.6280   33.4990   48.7960 C   0  0  0  0  0  0  0  0  0  0  0  0
   63.0340   34.1500   49.8920 C   0  0  0  0  0  0  0  0  0  0  0  0
   62.6480   35.1737   49.7775 H   0  0  0  0  0  0  0  0  0  0  0  0
   62.9320   33.5020   51.1260 C   0  0  0  0  0  0  0  0  0  0  0  0
   62.4634   34.0150   51.9788 H   0  0  0  0  0  0  0  0  0  0  0  0
   63.4250   32.2020   51.2780 C   0  0  0  0  0  0  0  0  0  0  0  0
   63.3402   31.6915   52.2487 H   0  0  0  0  0  0  0  0  0  0  0  0
   64.0250   31.5520   50.1970 C   0  0  0  0  0  0  0  0  0  0  0  0
   64.4139   30.5301   50.3176 H   0  0  0  0  0  0  0  0  0  0  0  0
   64.1320   32.1990   48.9610 C   0  0  0  0  0  0  0  0  0  0  0  0
   64.6132   31.6868   48.1147 H   0  0  0  0  0  0  0  0  0  0  0  0
   60.9860   31.6150   48.1690 C   0  0  0  0  0  0  0  0  0  0  0  0
   61.7300   30.8210   47.5320 O   0  0  0  0  0  0  0  0  0  0  0  0
   60.2730   31.1530   49.2520 N   0  0  0  0  0  0  0  0  0  0  0  0
   60.4150   29.7320   49.6440 C   0  0  0  0  0  0  0  0  0  0  0  0
   60.1586   29.6240   50.7082 H   0  0  0  0  0  0  0  0  0  0  0  0
   61.4548   29.4195   49.4673 H   0  0  0  0  0  0  0  0  0  0  0  0
   59.5010   28.8570   48.8240 C   0  0  0  0  0  0  0  0  0  0  0  0
   58.3210   29.2350   48.5980 O   0  0  0  0  0  0  0  0  0  0  0  0
   59.9510   27.6330   48.2310 N   0  0  0  0  0  0  0  0  0  0  0  0
   60.0420   27.3630   46.7970 C   0  0  1  0  0  0  0  0  0  0  0  0
   60.9068   26.7002   46.6459 H   0  0  0  0  0  0  0  0  0  0  0  0
   58.7440   26.7370   46.2840 C   0  0  0  0  0  0  0  0  0  0  0  0
   58.9524   25.7897   45.7652 H   0  0  0  0  0  0  0  0  0  0  0  0
   58.0492   26.5056   47.1048 H   0  0  0  0  0  0  0  0  0  0  0  0
   58.1570   27.7580   45.3150 C   0  0  0  0  0  0  0  0  0  0  0  0
   58.3705   27.4631   44.2770 H   0  0  0  0  0  0  0  0  0  0  0  0
   57.0644   27.8260   45.4228 H   0  0  0  0  0  0  0  0  0  0  0  0
   58.8030   29.0450   45.6210 N   0  0  2  0  0  0  0  0  0  0  0  0
   58.3210   29.4380   46.4670 H   0  0  0  0  0  0  0  0  0  0  0  0
   58.7890   30.1000   44.5630 C   0  0  0  0  0  0  0  0  0  0  0  0
   59.8004   30.1650   44.1353 H   0  0  0  0  0  0  0  0  0  0  0  0
   58.0211   29.7918   43.8382 H   0  0  0  0  0  0  0  0  0  0  0  0
   58.3900   31.4830   45.0300 C   0  0  0  0  0  0  0  0  0  0  0  0
   58.3410   32.5500   44.1160 C   0  0  0  0  0  0  0  0  0  0  0  0
   58.5732   32.3743   43.0552 H   0  0  0  0  0  0  0  0  0  0  0  0
   57.9980   33.8340   44.5510 C   0  0  0  0  0  0  0  0  0  0  0  0
   57.9532   34.6642   43.8307 H   0  0  0  0  0  0  0  0  0  0  0  0
   57.7120   34.0640   45.9000 C   0  0  0  0  0  0  0  0  0  0  0  0
   57.4428   35.0747   46.2405 H   0  0  0  0  0  0  0  0  0  0  0  0
   57.7680   33.0100   46.8160 C   0  0  0  0  0  0  0  0  0  0  0  0
   57.5432   33.1918   47.8773 H   0  0  0  0  0  0  0  0  0  0  0  0
   58.1100   31.7230   46.3840 C   0  0  0  0  0  0  0  0  0  0  0  0
   58.1594   30.8968   47.1086 H   0  0  0  0  0  0  0  0  0  0  0  0
   60.1620   28.6790   46.0340 C   0  0  0  0  0  0  0  0  0  0  0  0
   60.8057   28.5495   45.1515 H   0  0  0  0  0  0  0  0  0  0  0  0
   60.6126   29.4629   46.6604 H   0  0  0  0  0  0  0  0  0  0  0  0
   59.5120   32.0270   49.9980 C   0  0  0  0  0  0  0  0  0  0  0  0
   58.7400   31.6020   51.1850 C   0  0  0  0  0  0  0  0  0  0  0  0
   59.4010   31.2570   52.3740 C   0  0  0  0  0  0  0  0  0  0  0  0
   60.4985   31.3100   52.4268 H   0  0  0  0  0  0  0  0  0  0  0  0
   58.6680   30.8460   53.4920 C   0  0  0  0  0  0  0  0  0  0  0  0
   59.1881   30.5934   54.4277 H   0  0  0  0  0  0  0  0  0  0  0  0
   57.2740   30.7560   53.4210 C   0  0  0  0  0  0  0  0  0  0  0  0
   56.6982   30.4317   54.3004 H   0  0  0  0  0  0  0  0  0  0  0  0
   56.6130   31.0780   52.2330 C   0  0  0  0  0  0  0  0  0  0  0  0
   55.5173   30.9994   52.1755 H   0  0  0  0  0  0  0  0  0  0  0  0
   57.3420   31.5000   51.1170 C   0  0  0  0  0  0  0  0  0  0  0  0
   56.8183   31.7527   50.1832 H   0  0  0  0  0  0  0  0  0  0  0  0
  1  2  1  0
  2  3  1  0
  3  4  1  0
  4  5  2  0
  5  6  1  0
  6  7  1  0
  6  8  1  0
  6  9  1  0
  9 10  1  0
  9 11  1  0
  9 12  1  0
 12 13  2  0
 13 14  1  0
 13 15  1  0
 15 16  1  0
 15 17  2  0
 17 18  1  0
 17 19  1  0
 19 20  1  0
 19 21  2  0
 21 22  1  0
  4 23  1  0
 23 24  2  0
 23 25  1  0
 25 26  1  0
 26 27  1  0
 26 28  1  0
 26 29  1  0
 29 30  2  0
 29 31  1  0
 31 32  1  0
 32 33  1  1
 32 34  1  0
 34 35  1  0
 34 36  1  0
 34 37  1  0
 37 38  1  0
 37 39  1  0
 37 40  1  0
 40 41  1  1
 40 42  1  0
 42 43  1  0
 42 44  1  0
 42 45  1  0
 45 46  2  0
 46 47  1  0
 46 48  1  0
 48 49  1  0
 48 50  2  0
 50 51  1  0
 50 52  1  0
 52 53  1  0
 52 54  2  0
 54 55  1  0
 40 56  1  0
 56 57  1  0
 56 58  1  0
 25 59  1  0
 59 60  1  0
 60 61  2  0
 61 62  1  0
 61 63  1  0
 63 64  1  0
 63 65  2  0
 65 66  1  0
 65 67  1  0
 67 68  1  0
 67 69  2  0
 69 70  1  0
 59  2  2  0
 69 60  1  0
 21 12  1  0
 56 32  1  0
 54 45  1  0
M  CHG  3   3  -1  31  -1  40   1
M  END
>  <UniqueID>  (4) 
4

>  <SMILES>  (4) 
O=C(Cn1c(-c2ccccc2)c[n-]/c(=N/CCc2ccccc2)c1=O)[N-][C@H]1CC[N@H+](Cc2ccccc2)C1

>  <Energy>  (4) 
102.54570603120386

>  <Genealogy>  (4) 
O=C(Cn1c(-c2ccccc2)c[n-]c(=NCCc2ccccc2)c1=O)[N-]C1CC[NH+](Cc2ccccc2)C1 (protonated)
O=C(Cn1c(-c2ccccc2)c[n-]c(=NCCc2ccccc2)c1=O)[N-][C@H]1CC[N@H+](Cc2ccccc2)C1 (chirality)
O=C(Cn1c(-c2ccccc2)c[n-]/c(=N/CCc2ccccc2)c1=O)[N-][C@H]1CC[N@H+](Cc2ccccc2)C1 (cis-trans isomerization)
O=C(Cn1c(-c2ccccc2)c[n-]/c(=N/CCc2ccccc2)c1=O)[N-][C@H]1CC[N@H+](Cc2ccccc2)C1 (3D coordinates assigned)
O=C(Cn1c(-c2ccccc2)c[n-]/c(=N/CCc2ccccc2)c1=O)[N-][C@H]1CC[N@H+](Cc2ccccc2)C1 (nonaromatic ring conformer: 102.54570603120386 kcal/mol)

>  <smiles>  (4) 
O=C(Cn1c(-c2ccccc2)c[nH]c(=NCCc2ccccc2)c1=O)NC1CCN(Cc2ccccc2)C1

>  <score_type>  (4) 
oracle

>  <origin>  (4) 
adg

>  <m_score__min__energy>  (4) 
-11.24

>  <m_primary>  (4) 
energy

$$$$
4:0
     RDKit          3D

 28 29  0  0  0  0  0  0  0  0999 V2000
   56.6430   29.8240   42.6480 C   0  0  0  0  0  0  0  0  0  0  0  0
   56.5750   29.9840   44.4220 S   0  0  0  0  0  0  0  0  0  0  0  0
   56.3780   31.4210   44.8090 O   0  0  0  0  0  0  0  0  0  0  0  0
   55.4070   29.1790   44.9160 O   0  0  0  0  0  0  0  0  0  0  0  0
   58.0230   29.3580   45.1440 N   0  0  0  0  0  0  0  0  0  0  0  0
   58.5300   29.7130   46.4370 C   0  0  0  0  0  0  0  0  0  0  0  0
   58.5560   31.0720   46.7810 C   0  0  0  0  0  0  0  0  0  0  0  0
   59.0280   31.4820   48.0300 C   0  0  0  0  0  0  0  0  0  0  0  0
   59.4880   30.5370   48.9460 C   0  0  0  0  0  0  0  0  0  0  0  0
   59.5010   29.1830   48.6060 C   0  0  0  0  0  0  0  0  0  0  0  0
   59.0610   28.7620   47.3390 C   0  0  0  0  0  0  0  0  0  0  0  0
   59.1060   27.3700   46.9910 N   0  0  0  0  0  0  0  0  0  0  0  0
   58.1020   26.5410   46.9210 C   0  0  0  0  0  0  0  0  0  0  0  0
   58.2530   25.2950   47.4370 N   0  0  0  0  0  0  0  0  0  0  0  0
   57.2330   24.4040   47.3950 C   0  0  0  0  0  0  0  0  0  0  0  0
   57.3870   23.2480   47.8700 O   0  0  0  0  0  0  0  0  0  0  0  0
   56.0470   24.7570   46.8420 N   0  0  0  0  0  0  0  0  0  0  0  0
   55.8780   26.0040   46.3380 C   0  0  0  0  0  0  0  0  0  0  0  0
   54.7690   26.3280   45.8360 O   0  0  0  0  0  0  0  0  0  0  0  0
   56.8980   26.9020   46.3800 N   0  0  0  0  0  0  0  0  0  0  0  0
   57.0607   28.8412   42.3842 H   0  0  0  0  0  0  0  0  0  0  0  0
   55.6285   29.9147   42.2325 H   0  0  0  0  0  0  0  0  0  0  0  0
   57.2817   30.6173   42.2325 H   0  0  0  0  0  0  0  0  0  0  0  0
   58.2010   31.8230   46.0599 H   0  0  0  0  0  0  0  0  0  0  0  0
   59.0368   32.5506   48.2909 H   0  0  0  0  0  0  0  0  0  0  0  0
   59.8409   30.8584   49.9371 H   0  0  0  0  0  0  0  0  0  0  0  0
   59.8581   28.4404   49.3347 H   0  0  0  0  0  0  0  0  0  0  0  0
   56.7240   27.8670   46.0250 H   0  0  0  0  0  0  0  0  0  0  0  0
  1  2  1  0
  2  3  2  0
  2  4  2  0
  2  5  1  0
  5  6  1  0
  6  7  2  0
  7  8  1  0
  8  9  2  0
  9 10  1  0
 10 11  2  0
 11 12  1  0
 12 13  2  3
 13 14  1  0
 14 15  1  0
 15 16  2  0
 15 17  1  0
 17 18  1  0
 18 19  2  0
 18 20  1  0
 11  6  1  0
 20 13  1  0
  1 21  1  0
  1 22  1  0
  1 23  1  0
  7 24  1  0
  8 25  1  0
  9 26  1  0
 10 27  1  0
 20 28  1  0
M  CHG  3   5  -1  14  -1  17  -1
M  END
>  <UniqueID>  (5) 
5

>  <SMILES>  (5) 
CS(=O)(=O)[N-]c1ccccc1N=c1[n-]c(=O)[n-]c(=O)[nH]1

>  <Energy>  (5) 
41.7700756000948

>  <Genealogy>  (5) 
CS(=O)(=O)[N-]c1ccccc1N=c1[n-]c(=O)[n-]c(=O)[nH]1 (protonated)
CS(=O)(=O)[N-]c1ccccc1N=c1[n-]c(=O)[n-]c(=O)[nH]1 (3D coordinates assigned)
CS(=O)(=O)[N-]c1ccccc1N=c1[n-]c(=O)[n-]c(=O)[nH]1 (optimized conformer: 41.7700756000948 kcal/mol)

>  <smiles>  (5) 
CS(=O)(=O)Nc1ccccc1N=c1[nH]c(=O)[nH]c(=O)[nH]1

>  <score_type>  (5) 
oracle

>  <origin>  (5) 
adg

>  <m_score__min__energy>  (5) 
-12.390000000000001

>  <m_primary>  (5) 
energy

$$$$
5:0
     RDKit          3D

 44 46  0  0  0  0  0  0  0  0999 V2000
   58.1120   24.6770   44.7390 C   0  0  0  0  0  0  0  0  0  0  0  0
   56.6910   25.0160   44.5700 N   0  0  0  0  0  0  0  0  0  0  0  0
   55.9980   23.9340   43.8570 C   0  0  0  0  0  0  0  0  0  0  0  0
   55.9300   25.3100   46.1250 S   0  0  0  0  0  0  0  0  0  0  0  0
   54.8270   26.3200   45.9690 O   0  0  0  0  0  0  0  0  0  0  0  0
   55.3210   24.0550   46.6850 O   0  0  0  0  0  0  0  0  0  0  0  0
   57.0770   25.9600   47.2590 N   0  0  0  0  0  0  0  0  0  0  0  0
   57.9860   27.0560   47.0780 C   0  0  0  0  0  0  0  0  0  0  0  0
   59.0650   27.0410   47.7270 O   0  0  0  0  0  0  0  0  0  0  0  0
   57.7320   28.1840   46.1550 C   0  0  0  0  0  0  0  0  0  0  0  0
   56.7530   28.1780   45.2190 N   0  0  0  0  0  0  0  0  0  0  0  0
   56.9530   29.2640   44.4560 C   0  0  0  0  0  0  0  0  0  0  0  0
   56.2180   29.6540   43.3360 C   0  0  0  0  0  0  0  0  0  0  0  0
   56.6400   30.8010   42.6390 C   0  0  0  0  0  0  0  0  0  0  0  0
   57.7830   31.5140   43.0620 C   0  0  0  0  0  0  0  0  0  0  0  0
   58.5140   31.0870   44.1850 C   0  0  0  0  0  0  0  0  0  0  0  0
   58.0610   29.9550   44.8640 C   0  0  0  0  0  0  0  0  0  0  0  0
   58.5770   29.2880   45.9570 C   0  0  0  0  0  0  0  0  0  0  0  0
   59.8880   29.5620   46.5770 C   0  0  0  0  0  0  0  0  0  0  0  0
   60.1120   30.5500   47.3930 N   0  0  0  0  0  0  0  0  0  0  0  0
   59.8460   31.9370   47.1470 C   0  0  0  0  0  0  0  0  0  0  0  0
   58.5140   32.3750   47.1330 C   0  0  0  0  0  0  0  0  0  0  0  0
   58.2160   33.7330   47.0110 C   0  0  0  0  0  0  0  0  0  0  0  0
   59.2480   34.6700   46.9330 C   0  0  0  0  0  0  0  0  0  0  0  0
   60.5790   34.2500   46.9620 C   0  0  0  0  0  0  0  0  0  0  0  0
   60.8870   32.8880   47.0770 C   0  0  0  0  0  0  0  0  0  0  0  0
   62.5770   32.4260   47.2350 Cl  0  0  0  0  0  0  0  0  0  0  0  0
   58.3504   24.6201   45.8114 H   0  0  0  0  0  0  0  0  0  0  0  0
   58.3158   23.7050   44.2660 H   0  0  0  0  0  0  0  0  0  0  0  0
   58.7327   25.4523   44.2660 H   0  0  0  0  0  0  0  0  0  0  0  0
   56.6220   25.8840   43.9930 H   0  0  0  0  0  0  0  0  0  0  0  0
   55.5537   23.2403   44.5859 H   0  0  0  0  0  0  0  0  0  0  0  0
   55.2045   24.3603   43.2257 H   0  0  0  0  0  0  0  0  0  0  0  0
   56.7171   23.3915   43.2257 H   0  0  0  0  0  0  0  0  0  0  0  0
   56.0580   27.4260   45.0300 H   0  0  0  0  0  0  0  0  0  0  0  0
   55.3368   29.0830   43.0084 H   0  0  0  0  0  0  0  0  0  0  0  0
   56.0761   31.1444   41.7592 H   0  0  0  0  0  0  0  0  0  0  0  0
   58.1038   32.4094   42.5095 H   0  0  0  0  0  0  0  0  0  0  0  0
   59.4128   31.6272   44.5171 H   0  0  0  0  0  0  0  0  0  0  0  0
   60.7253   28.8910   46.3347 H   0  0  0  0  0  0  0  0  0  0  0  0
   57.6977   31.6427   47.2188 H   0  0  0  0  0  0  0  0  0  0  0  0
   57.1679   34.0651   46.9763 H   0  0  0  0  0  0  0  0  0  0  0  0
   59.0119   35.7410   46.8485 H   0  0  0  0  0  0  0  0  0  0  0  0
   61.3890   34.9911   46.8943 H   0  0  0  0  0  0  0  0  0  0  0  0
  1  2  1  0
  2  3  1  0
  2  4  1  0
  4  5  2  0
  4  6  2  0
  4  7  1  0
  7  8  1  0
  8  9  2  0
  8 10  1  0
 10 11  1  0
 11 12  1  0
 12 13  2  0
 13 14  1  0
 14 15  2  0
 15 16  1  0
 16 17  2  0
 17 18  1  0
 18 19  1  0
 19 20  2  3
 20 21  1  0
 21 22  2  0
 22 23  1  0
 23 24  2  0
 24 25  1  0
 25 26  2  0
 26 27  1  0
 18 10  2  0
 26 21  1  0
 17 12  1  0
  1 28  1  0
  1 29  1  0
  1 30  1  0
  2 31  1  0
  3 32  1  0
  3 33  1  0
  3 34  1  0
 11 35  1  0
 13 36  1  0
 14 37  1  0
 15 38  1  0
 16 39  1  0
 19 40  1  0
 22 41  1  0
 23 42  1  0
 24 43  1  0
 25 44  1  0
M  CHG  2   2   1   7  -1
M  END
>  <UniqueID>  (6) 
6

>  <SMILES>  (6) 
C[NH+](C)S(=O)(=O)[N-]C(=O)c1[nH]c2ccccc2c1C=Nc1ccccc1Cl

>  <Energy>  (6) 
96.01726604820979

>  <Genealogy>  (6) 
C[NH+](C)S(=O)(=O)[N-]C(=O)c1[nH]c2ccccc2c1C=Nc1ccccc1Cl (protonated)
C[NH+](C)S(=O)(=O)[N-]C(=O)c1[nH]c2ccccc2c1C=Nc1ccccc1Cl (3D coordinates assigned)
C[NH+](C)S(=O)(=O)[N-]C(=O)c1[nH]c2ccccc2c1C=Nc1ccccc1Cl (optimized conformer: 96.01726604820979 kcal/mol)

>  <smiles>  (6) 
CN(C)S(=O)(=O)NC(=O)c1[nH]c2ccccc2c1C=Nc1ccccc1Cl

>  <score_type>  (6) 
oracle

>  <origin>  (6) 
adg

>  <m_score__min__energy>  (6) 
-9.5999999999999996

>  <m_primary>  (6) 
energy

$$$$
6:0
     RDKit          3D

 49 51  0  0  0  0  0  0  0  0999 V2000
   64.9580   32.6750   49.6960 C   0  0  0  0  0  0  0  0  0  0  0  0
   64.5640   33.4580   48.5730 O   0  0  0  0  0  0  0  0  0  0  0  0
   63.2320   33.6340   48.1580 C   0  0  0  0  0  0  0  0  0  0  0  0
   62.8510   33.5980   46.8040 C   0  0  0  0  0  0  0  0  0  0  0  0
   61.5190   33.8130   46.4430 C   0  0  0  0  0  0  0  0  0  0  0  0
   60.5450   34.0730   47.4250 C   0  0  0  0  0  0  0  0  0  0  0  0
   59.1750   34.3120   47.0670 N   0  0  0  0  0  0  0  0  0  0  0  0
   58.6820   34.4540   45.7280 C   0  0  0  0  0  0  0  0  0  0  0  0
   59.1970   35.2910   44.9400 O   0  0  0  0  0  0  0  0  0  0  0  0
   57.5620   33.5920   45.2500 C   0  0  0  0  0  0  0  0  0  0  0  0
   58.1090   32.6820   43.7690 S   0  0  0  0  0  0  0  0  0  0  0  0
   57.3670   31.1340   44.2820 C   0  0  0  0  0  0  0  0  0  0  0  0
   56.0480   30.9610   44.4900 N   0  0  0  0  0  0  0  0  0  0  0  0
   55.8990   29.7000   44.8710 N   0  0  0  0  0  0  0  0  0  0  0  0
   57.1310   29.1560   44.8730 C   0  0  0  0  0  0  0  0  0  0  0  0
   57.4360   27.7430   45.2520 C   0  0  0  0  0  0  0  0  0  0  0  0
   56.3280   27.1640   46.0090 N   0  0  0  0  0  0  0  0  0  0  0  0
   55.6710   25.9220   45.7060 C   0  0  0  0  0  0  0  0  0  0  0  0
   54.4290   25.8280   45.8940 O   0  0  0  0  0  0  0  0  0  0  0  0
   56.4120   24.7520   45.1940 C   0  0  0  0  0  0  0  0  0  0  0  0
   55.9050   24.0190   44.1090 C   0  0  0  0  0  0  0  0  0  0  0  0
   56.5950   22.9060   43.6240 C   0  0  0  0  0  0  0  0  0  0  0  0
   57.7860   22.5100   44.2220 C   0  0  0  0  0  0  0  0  0  0  0  0
   58.2920   23.2220   45.3110 C   0  0  0  0  0  0  0  0  0  0  0  0
   57.6040   24.3370   45.8080 C   0  0  0  0  0  0  0  0  0  0  0  0
   58.1080   25.0400   46.8970 O   0  0  0  0  0  0  0  0  0  0  0  0
   58.0380   30.0330   44.5110 O   0  0  0  0  0  0  0  0  0  0  0  0
   60.9090   34.0750   48.7810 C   0  0  0  0  0  0  0  0  0  0  0  0
   59.9170   34.3090   49.7490 O   0  0  0  0  0  0  0  0  0  0  0  0
   59.6030   33.4150   50.8150 C   0  0  0  0  0  0  0  0  0  0  0  0
   62.2570   33.8590   49.1370 C   0  0  0  0  0  0  0  0  0  0  0  0
   64.6919   33.2038   50.6232 H   0  0  0  0  0  0  0  0  0  0  0  0
   64.4408   31.7046   49.6660 H   0  0  0  0  0  0  0  0  0  0  0  0
   66.0454   32.5120   49.6660 H   0  0  0  0  0  0  0  0  0  0  0  0
   63.6045   33.3999   46.0274 H   0  0  0  0  0  0  0  0  0  0  0  0
   61.2289   33.7788   45.3825 H   0  0  0  0  0  0  0  0  0  0  0  0
   57.2821   32.8788   46.0393 H   0  0  0  0  0  0  0  0  0  0  0  0
   56.6903   34.2159   45.0035 H   0  0  0  0  0  0  0  0  0  0  0  0
   57.5991   27.1509   44.3394 H   0  0  0  0  0  0  0  0  0  0  0  0
   58.3395   27.7307   45.8794 H   0  0  0  0  0  0  0  0  0  0  0  0
   54.9586   24.3233   43.6382 H   0  0  0  0  0  0  0  0  0  0  0  0
   56.1958   22.3421   42.7680 H   0  0  0  0  0  0  0  0  0  0  0  0
   58.3300   21.6350   43.8368 H   0  0  0  0  0  0  0  0  0  0  0  0
   59.2351   22.9063   45.7811 H   0  0  0  0  0  0  0  0  0  0  0  0
   57.8050   25.9860   47.0930 H   0  0  0  0  0  0  0  0  0  0  0  0
   59.7791   33.9165   51.7780 H   0  0  0  0  0  0  0  0  0  0  0  0
   58.5464   33.1171   50.7446 H   0  0  0  0  0  0  0  0  0  0  0  0
   60.2412   32.5219   50.7446 H   0  0  0  0  0  0  0  0  0  0  0  0
   62.5458   33.8675   50.1984 H   0  0  0  0  0  0  0  0  0  0  0  0
  1  2  1  0
  2  3  1  0
  3  4  2  0
  4  5  1  0
  5  6  2  0
  6  7  1  0
  7  8  1  0
  8  9  2  0
  8 10  1  0
 10 11  1  0
 11 12  1  0
 12 13  2  0
 13 14  1  0
 14 15  2  0
 15 16  1  0
 16 17  1  0
 17 18  1  0
 18 19  2  0
 18 20  1  0
 20 21  2  0
 21 22  1  0
 22 23  2  0
 23 24  1  0
 24 25  2  0
 25 26  1  0
 15 27  1  0
  6 28  1  0
 28 29  1  0
 29 30  1  0
 28 31  2  0
 31  3  1  0
 27 12  1  0
 25 20  1  0
  1 32  1  0
  1 33  1  0
  1 34  1  0
  4 35  1  0
  5 36  1  0
 10 37  1  0
 10 38  1  0
 16 39  1  0
 16 40  1  0
 21 41  1  0
 22 42  1  0
 23 43  1  0
 24 44  1  0
 26 45  1  0
 30 46  1  0
 30 47  1  0
 30 48  1  0
 31 49  1  0
M  CHG  2   7  -1  17  -1
M  END
>  <UniqueID>  (7) 
7

>  <SMILES>  (7) 
COc1ccc([N-]C(=O)CSc2nnc(C[N-]C(=O)c3ccccc3O)o2)c(OC)c1

>  <Energy>  (7) 
88.0389932074366

>  <Genealogy>  (7) 
COc1ccc([N-]C(=O)CSc2nnc(C[N-]C(=O)c3ccccc3O)o2)c(OC)c1 (protonated)
COc1ccc([N-]C(=O)CSc2nnc(C[N-]C(=O)c3ccccc3O)o2)c(OC)c1 (3D coordinates assigned)
COc1ccc([N-]C(=O)CSc2nnc(C[N-]C(=O)c3ccccc3O)o2)c(OC)c1 (optimized conformer: 88.0389932074366 kcal/mol)

>  <smiles>  (7) 
COc1ccc(NC(=O)CSc2nnc(CNC(=O)c3ccccc3O)o2)c(OC)c1

>  <score_type>  (7) 
oracle

>  <origin>  (7) 
adg

>  <m_score__min__energy>  (7) 
-11.51

>  <m_primary>  (7) 
energy

$$$$
7:0
     RDKit          3D

 44 47  0  0  0  0  0  0  0  0999 V2000
   63.3430   33.8160   48.0900 C   0  0  0  0  0  0  0  0  0  0  0  0
   62.0430   34.1830   48.7960 C   0  0  0  0  0  0  0  0  0  0  0  0
   60.8750   34.0770   47.8530 C   0  0  0  0  0  0  0  0  0  0  0  0
   59.5740   33.9140   48.3510 C   0  0  0  0  0  0  0  0  0  0  0  0
   58.4850   33.8470   47.4790 C   0  0  0  0  0  0  0  0  0  0  0  0
   58.6760   33.9520   46.0880 C   0  0  0  0  0  0  0  0  0  0  0  0
   57.5230   33.8830   45.1600 C   0  0  0  0  0  0  0  0  0  0  0  0
   56.6230   34.7650   45.2100 O   0  0  0  0  0  0  0  0  0  0  0  0
   57.4560   32.8440   44.1730 N   0  0  0  0  0  0  0  0  0  0  0  0
   57.3390   31.4350   44.4190 C   0  0  0  0  0  0  0  0  0  0  0  0
   58.3970   30.7740   45.0520 C   0  0  0  0  0  0  0  0  0  0  0  0
   58.3160   29.4060   45.3280 C   0  0  0  0  0  0  0  0  0  0  0  0
   57.1640   28.6760   44.9890 C   0  0  0  0  0  0  0  0  0  0  0  0
   57.1020   27.2270   45.2910 C   0  0  0  0  0  0  0  0  0  0  0  0
   58.0910   26.2750   45.0230 C   0  0  0  0  0  0  0  0  0  0  0  0
   57.5630   25.0930   45.4860 C   0  0  0  0  0  0  0  0  0  0  0  0
   58.0870   23.8020   45.4940 C   0  0  0  0  0  0  0  0  0  0  0  0
   57.2940   22.7780   46.0470 C   0  0  0  0  0  0  0  0  0  0  0  0
   56.0140   23.0690   46.5710 C   0  0  0  0  0  0  0  0  0  0  0  0
   55.5160   24.3850   46.5470 C   0  0  0  0  0  0  0  0  0  0  0  0
   56.3260   25.3750   45.9940 C   0  0  0  0  0  0  0  0  0  0  0  0
   56.0610   26.6520   45.8710 O   0  0  0  0  0  0  0  0  0  0  0  0
   56.0910   29.3480   44.3760 C   0  0  0  0  0  0  0  0  0  0  0  0
   56.1740   30.7170   44.1000 C   0  0  0  0  0  0  0  0  0  0  0  0
   59.9810   34.1300   45.5930 C   0  0  0  0  0  0  0  0  0  0  0  0
   61.0690   34.1960   46.4680 C   0  0  0  0  0  0  0  0  0  0  0  0
   64.1180   33.5972   48.8393 H   0  0  0  0  0  0  0  0  0  0  0  0
   63.1806   32.9286   47.4606 H   0  0  0  0  0  0  0  0  0  0  0  0
   63.6686   34.6573   47.4606 H   0  0  0  0  0  0  0  0  0  0  0  0
   61.8865   33.4982   49.6425 H   0  0  0  0  0  0  0  0  0  0  0  0
   62.1158   35.2212   49.1521 H   0  0  0  0  0  0  0  0  0  0  0  0
   59.4101   33.8384   49.4361 H   0  0  0  0  0  0  0  0  0  0  0  0
   57.4705   33.7112   47.8820 H   0  0  0  0  0  0  0  0  0  0  0  0
   59.2998   31.3352   45.3348 H   0  0  0  0  0  0  0  0  0  0  0  0
   59.1609   28.8967   45.8145 H   0  0  0  0  0  0  0  0  0  0  0  0
   59.0704   26.4357   44.5487 H   0  0  0  0  0  0  0  0  0  0  0  0
   59.0850   23.5901   45.0828 H   0  0  0  0  0  0  0  0  0  0  0  0
   57.6730   21.7456   46.0713 H   0  0  0  0  0  0  0  0  0  0  0  0
   55.4030   22.2614   47.0005 H   0  0  0  0  0  0  0  0  0  0  0  0
   54.5212   24.6241   46.9510 H   0  0  0  0  0  0  0  0  0  0  0  0
   55.1791   28.7925   44.1115 H   0  0  0  0  0  0  0  0  0  0  0  0
   55.3235   31.2336   43.6312 H   0  0  0  0  0  0  0  0  0  0  0  0
   60.1463   34.2179   44.5090 H   0  0  0  0  0  0  0  0  0  0  0  0
   62.0835   34.3421   46.0687 H   0  0  0  0  0  0  0  0  0  0  0  0
  1  2  1  0
  2  3  1  0
  3  4  2  0
  4  5  1  0
  5  6  2  0
  6  7  1  0
  7  8  2  0
  7  9  1  0
  9 10  1  0
 10 11  2  0
 11 12  1  0
 12 13  2  0
 13 14  1  0
 14 15  2  0
 15 16  1  0
 16 17  2  0
 17 18  1  0
 18 19  2  0
 19 20  1  0
 20 21  2  0
 21 22  1  0
 13 23  1  0
 23 24  2  0
  6 25  1  0
 25 26  2  0
 26  3  1  0
 24 10  1  0
 22 14  1  0
 21 16  1  0
  1 27  1  0
  1 28  1  0
  1 29  1  0
  2 30  1  0
  2 31  1  0
  4 32  1  0
  5 33  1  0
 11 34  1  0
 12 35  1  0
 15 36  1  0
 17 37  1  0
 18 38  1  0
 19 39  1  0
 20 40  1  0
 23 41  1  0
 24 42  1  0
 25 43  1  0
 26 44  1  0
M  CHG  1   9  -1
M  END
>  <UniqueID>  (8) 
8

>  <SMILES>  (8) 
CCc1ccc(C(=O)[N-]c2ccc(-c3cc4ccccc4o3)cc2)cc1

>  <Energy>  (8) 
84.51499717570236

>  <Genealogy>  (8) 
CCc1ccc(C(=O)[N-]c2ccc(-c3cc4ccccc4o3)cc2)cc1 (protonated)
CCc1ccc(C(=O)[N-]c2ccc(-c3cc4ccccc4o3)cc2)cc1 (3D coordinates assigned)
CCc1ccc(C(=O)[N-]c2ccc(-c3cc4ccccc4o3)cc2)cc1 (optimized conformer: 84.51499717570236 kcal/mol)

>  <smiles>  (8) 
CCc1ccc(C(=O)Nc2ccc(-c3cc4ccccc4o3)cc2)cc1

>  <score_type>  (8) 
oracle

>  <origin>  (8) 
adg

>  <m_score__min__energy>  (8) 
-9.3900000000000006

>  <m_primary>  (8) 
energy

$$$$
8:0
     RDKit          3D

 37 38  0  0  0  0  0  0  0  0999 V2000
   56.0709   26.1298   45.8197 H   0  0  0  0  0  0  0  0  0  0  0  0
   56.5830   27.0830   45.6220 C   0  0  0  0  0  0  0  0  0  0  0  0
   55.9130   28.2090   45.2550 N   0  0  0  0  0  0  0  0  0  0  0  0
   56.7580   29.2460   45.0690 C   0  0  0  0  0  0  0  0  0  0  0  0
   56.3880   30.4420   44.7170 N   0  0  0  0  0  0  0  0  0  0  0  0
   57.2280   31.4470   44.1300 C   0  0  0  0  0  0  0  0  0  0  0  0
   57.2270   31.6550   42.8850 O   0  0  0  0  0  0  0  0  0  0  0  0
   58.0950   32.2860   45.0130 C   0  0  0  0  0  0  0  0  0  0  0  0
   58.0138   31.9273   46.0497 H   0  0  0  0  0  0  0  0  0  0  0  0
   59.1378   32.2098   44.6713 H   0  0  0  0  0  0  0  0  0  0  0  0
   57.5670   34.0300   44.9350 S   0  0  0  0  0  0  0  0  0  0  0  0
   59.2550   34.7400   44.9140 C   0  0  0  0  0  0  0  0  0  0  0  0
   59.9758   33.9457   44.6699 H   0  0  0  0  0  0  0  0  0  0  0  0
   59.2887   35.5385   44.1582 H   0  0  0  0  0  0  0  0  0  0  0  0
   59.6170   35.3430   46.2750 C   0  0  0  0  0  0  0  0  0  0  0  0
   60.5277   35.9489   46.1591 H   0  0  0  0  0  0  0  0  0  0  0  0
   58.7606   35.9492   46.6052 H   0  0  0  0  0  0  0  0  0  0  0  0
   59.8710   34.2770   47.3550 C   0  0  0  0  0  0  0  0  0  0  0  0
   59.2983   34.5382   48.2571 H   0  0  0  0  0  0  0  0  0  0  0  0
   59.5531   33.3012   46.9591 H   0  0  0  0  0  0  0  0  0  0  0  0
   61.3060   34.1920   47.7040 N   0  0  0  0  0  0  0  0  0  0  0  0
   61.5100   33.5360   49.0090 C   0  0  0  0  0  0  0  0  0  0  0  0
   60.9482   34.0798   49.7828 H   0  0  0  0  0  0  0  0  0  0  0  0
   61.1530   32.4971   48.9527 H   0  0  0  0  0  0  0  0  0  0  0  0
   63.0120   33.5400   49.3680 C   0  0  0  0  0  0  0  0  0  0  0  0
   63.1823   34.2857   50.1585 H   0  0  0  0  0  0  0  0  0  0  0  0
   63.2756   32.5251   49.7004 H   0  0  0  0  0  0  0  0  0  0  0  0
   63.8400   33.8550   48.2630 O   0  0  0  0  0  0  0  0  0  0  0  0
   63.4650   33.0790   47.1430 C   0  0  0  0  0  0  0  0  0  0  0  0
   64.1889   33.2431   46.3312 H   0  0  0  0  0  0  0  0  0  0  0  0
   63.4535   32.0185   47.4350 H   0  0  0  0  0  0  0  0  0  0  0  0
   62.0580   33.4740   46.6540 C   0  0  0  0  0  0  0  0  0  0  0  0
   62.1548   34.1260   45.7733 H   0  0  0  0  0  0  0  0  0  0  0  0
   61.5084   32.5556   46.4001 H   0  0  0  0  0  0  0  0  0  0  0  0
   58.3570   28.8170   45.3490 S   0  0  0  0  0  0  0  0  0  0  0  0
   57.9630   27.2250   45.7290 C   0  0  0  0  0  0  0  0  0  0  0  0
   58.6732   26.4343   46.0126 H   0  0  0  0  0  0  0  0  0  0  0  0
  1  2  1  0
  2  3  1  0
  3  4  1  0
  4  5  2  0
  5  6  1  0
  6  7  2  0
  6  8  1  0
  8  9  1  0
  8 10  1  0
  8 11  1  0
 11 12  1  0
 12 13  1  0
 12 14  1  0
 12 15  1  0
 15 16  1  0
 15 17  1  0
 15 18  1  0
 18 19  1  0
 18 20  1  0
 18 21  1  0
 21 22  1  0
 22 23  1  0
 22 24  1  0
 22 25  1  0
 25 26  1  0
 25 27  1  0
 25 28  1  0
 28 29  1  0
 29 30  1  0
 29 31  1  0
 29 32  1  0
 32 33  1  0
 32 34  1  0
  4 35  1  0
 35 36  1  0
 36 37  1  0
 36  2  2  0
 32 21  1  0
M  CHG  1   3  -1
M  END
>  <UniqueID>  (9) 
9

>  <SMILES>  (9) 
O=C(CSCCCN1CCOCC1)/N=c1\[n-]ccs1

>  <Energy>  (9) 
66.19271771570726

>  <Genealogy>  (9) 
O=C(CSCCCN1CCOCC1)N=c1[n-]ccs1 (protonated)
O=C(CSCCCN1CCOCC1)/N=c1\[n-]ccs1 (cis-trans isomerization)
O=C(CSCCCN1CCOCC1)/N=c1\[n-]ccs1 (3D coordinates assigned)
O=C(CSCCCN1CCOCC1)/N=c1\[n-]ccs1 (nonaromatic ring conformer: 66.19271771570726 kcal/mol)

>  <smiles>  (9) 
O=C(CSCCCN1CCOCC1)N=c1[nH]ccs1

>  <score_type>  (9) 
oracle

>  <origin>  (9) 
adg

>  <m_score__min__energy>  (9) 
-8.7599999999999998

>  <m_primary>  (9) 
energy

$$$$
9:0
     RDKit          3D

 43 46  0  0  0  0  0  0  0  0999 V2000
   60.1420   28.7840   45.9150 O   0  0  0  0  0  0  0  0  0  0  0  0
   58.9150   28.5140   45.8190 C   0  0  0  0  0  0  0  0  0  0  0  0
   58.3220   27.1900   45.9630 C   0  0  0  0  0  0  0  0  0  0  0  0
   58.9110   25.9550   46.2270 C   0  0  0  0  0  0  0  0  0  0  0  0
   58.0750   24.8260   46.3000 C   0  0  0  0  0  0  0  0  0  0  0  0
   56.6820   24.9520   46.1080 C   0  0  0  0  0  0  0  0  0  0  0  0
   56.1130   26.2100   45.8400 C   0  0  0  0  0  0  0  0  0  0  0  0
   54.7440   26.3420   45.6440 O   0  0  0  0  0  0  0  0  0  0  0  0
   56.9610   27.3160   45.7750 C   0  0  0  0  0  0  0  0  0  0  0  0
   56.6810   28.7250   45.5080 C   0  0  0  0  0  0  0  0  0  0  0  0
   55.5540   29.2100   45.2270 O   0  0  0  0  0  0  0  0  0  0  0  0
   57.8950   29.4810   45.5590 N   0  0  0  0  0  0  0  0  0  0  0  0
   58.0760   30.8300   45.1060 C   0  0  0  0  0  0  0  0  0  0  0  0
   57.6140   31.2200   43.8350 C   0  0  0  0  0  0  0  0  0  0  0  0
   56.7600   30.0910   42.7910 Cl  0  0  0  0  0  0  0  0  0  0  0  0
   57.7950   32.5360   43.3980 C   0  0  0  0  0  0  0  0  0  0  0  0
   58.4360   33.4670   44.2160 C   0  0  0  0  0  0  0  0  0  0  0  0
   58.9020   33.0910   45.4790 C   0  0  0  0  0  0  0  0  0  0  0  0
   59.7140   34.2810   46.4840 S   0  0  0  0  0  0  0  0  0  0  0  0
   59.1680   34.1980   48.0710 O   0  0  0  0  0  0  0  0  0  0  0  0
   61.4880   34.1550   46.3640 C   0  0  0  0  0  0  0  0  0  0  0  0
   62.0420   33.4550   47.5780 C   0  0  0  0  0  0  0  0  0  0  0  0
   62.5050   34.2350   48.6540 C   0  0  0  0  0  0  0  0  0  0  0  0
   63.0150   33.6280   49.8040 C   0  0  0  0  0  0  0  0  0  0  0  0
   63.0610   32.2380   49.9000 C   0  0  0  0  0  0  0  0  0  0  0  0
   62.5910   31.4500   48.8480 C   0  0  0  0  0  0  0  0  0  0  0  0
   62.0720   32.0410   47.6890 C   0  0  0  0  0  0  0  0  0  0  0  0
   61.5950   31.2000   46.6820 O   0  0  0  0  0  0  0  0  0  0  0  0
   58.7250   31.7720   45.9260 C   0  0  0  0  0  0  0  0  0  0  0  0
   59.2030   31.3920   47.1780 O   0  0  0  0  0  0  0  0  0  0  0  0
   59.9975   25.8656   46.3740 H   0  0  0  0  0  0  0  0  0  0  0  0
   58.5100   23.8374   46.5083 H   0  0  0  0  0  0  0  0  0  0  0  0
   56.0385   24.0619   46.1683 H   0  0  0  0  0  0  0  0  0  0  0  0
   57.4305   32.8385   42.4052 H   0  0  0  0  0  0  0  0  0  0  0  0
   58.5751   34.5004   43.8657 H   0  0  0  0  0  0  0  0  0  0  0  0
   59.0150   33.2330   48.2290 H   0  0  0  0  0  0  0  0  0  0  0  0
   61.7517   33.5827   45.4624 H   0  0  0  0  0  0  0  0  0  0  0  0
   61.9170   35.1662   46.3050 H   0  0  0  0  0  0  0  0  0  0  0  0
   62.4649   35.3323   48.5888 H   0  0  0  0  0  0  0  0  0  0  0  0
   63.3811   34.2480   50.6356 H   0  0  0  0  0  0  0  0  0  0  0  0
   63.4676   31.7622   50.8046 H   0  0  0  0  0  0  0  0  0  0  0  0
   62.6286   30.3537   48.9300 H   0  0  0  0  0  0  0  0  0  0  0  0
   60.6840   30.7640   46.7000 H   0  0  0  0  0  0  0  0  0  0  0  0
  1  2  2  0
  2  3  1  0
  3  4  2  0
  4  5  1  0
  5  6  2  0
  6  7  1  0
  7  8  1  0
  7  9  2  0
  9 10  1  0
 10 11  2  0
 10 12  1  0
 12 13  1  0
 13 14  2  0
 14 15  1  0
 14 16  1  0
 16 17  2  0
 17 18  1  0
 18 19  1  0
 19 20  1  1
 19 21  1  0
 21 22  1  0
 22 23  2  0
 23 24  1  0
 24 25  2  0
 25 26  1  0
 26 27  2  0
 27 28  1  0
 18 29  2  0
 29 30  1  0
 12  2  1  0
 29 13  1  0
  9  3  1  0
 27 22  1  0
  4 31  1  0
  5 32  1  0
  6 33  1  0
 16 34  1  0
 17 35  1  0
 20 36  1  0
 21 37  1  0
 21 38  1  0
 23 39  1  0
 24 40  1  0
 25 41  1  0
 26 42  1  0
 28 43  1  0
M  CHG  3   8  -1  19   1  30  -1
M  END
>  <UniqueID>  (10) 
10

>  <SMILES>  (10) 
O=C1c2cccc([O-])c2C(=O)N1c1c(Cl)ccc([S@@+](O)Cc2ccccc2O)c1[O-]

>  <Energy>  (10) 
85.12475105965973

>  <Genealogy>  (10) 
O=C1c2cccc([O-])c2C(=O)N1c1c(Cl)ccc([S+](O)Cc2ccccc2O)c1[O-] (protonated)
O=C1c2cccc([O-])c2C(=O)N1c1c(Cl)ccc([S@@+](O)Cc2ccccc2O)c1[O-] (chirality)
O=C1c2cccc([O-])c2C(=O)N1c1c(Cl)ccc([S@@+](O)Cc2ccccc2O)c1[O-] (3D coordinates assigned)
O=C1c2cccc([O-])c2C(=O)N1c1c(Cl)ccc([S@@+](O)Cc2ccccc2O)c1[O-] (nonaromatic ring conformer: 85.12475105965973 kcal/mol)

>  <smiles>  (10) 
O=C1c2cccc(O)c2C(=O)N1c1c(Cl)ccc([S+]([O-])Cc2ccccc2O)c1O

>  <score_type>  (10) 
oracle

>  <origin>  (10) 
adg

>  <m_score__min__energy>  (10) 
-12.800000000000001

>  <m_primary>  (10) 
energy

$$$$
10:0
     RDKit          3D

 38 39  0  0  0  0  0  0  0  0999 V2000
   56.7930   24.7190   47.2250 C   0  0  0  0  0  0  0  0  0  0  0  0
   56.1540   25.8930   46.6390 N   0  0  0  0  0  0  0  0  0  0  0  0
   56.8820   26.9400   45.9760 C   0  0  0  0  0  0  0  0  0  0  0  0
   58.4980   26.7850   45.6960 S   0  0  0  0  0  0  0  0  0  0  0  0
   56.1500   28.0320   45.3960 N   0  0  0  0  0  0  0  0  0  0  0  0
   56.7050   29.3270   45.1060 C   0  0  0  0  0  0  0  0  0  0  0  0
   56.4080   29.9920   43.9080 C   0  0  0  0  0  0  0  0  0  0  0  0
   56.9830   31.2330   43.6300 C   0  0  0  0  0  0  0  0  0  0  0  0
   57.8750   31.8210   44.5340 C   0  0  0  0  0  0  0  0  0  0  0  0
   58.5180   33.4130   44.1430 Cl  0  0  0  0  0  0  0  0  0  0  0  0
   58.2020   31.1520   45.7350 C   0  0  0  0  0  0  0  0  0  0  0  0
   59.1630   31.7270   46.7050 C   0  0  0  0  0  0  0  0  0  0  0  0
   58.7910   32.6620   47.4630 O   0  0  0  0  0  0  0  0  0  0  0  0
   60.5200   31.2530   46.7530 N   0  0  0  0  0  0  0  0  0  0  0  0
   61.4920   31.7370   47.6960 C   0  0  0  0  0  0  0  0  0  0  0  0
   61.8720   30.9420   48.7930 C   0  0  0  0  0  0  0  0  0  0  0  0
   62.8450   31.3890   49.6900 C   0  0  0  0  0  0  0  0  0  0  0  0
   63.4580   32.6260   49.4970 C   0  0  0  0  0  0  0  0  0  0  0  0
   63.1040   33.4210   48.4060 C   0  0  0  0  0  0  0  0  0  0  0  0
   62.1180   32.9900   47.5000 C   0  0  0  0  0  0  0  0  0  0  0  0
   61.7570   33.8620   46.3280 C   0  0  0  0  0  0  0  0  0  0  0  0
   57.6170   29.9010   46.0010 C   0  0  0  0  0  0  0  0  0  0  0  0
   56.7545   24.7898   48.3220 H   0  0  0  0  0  0  0  0  0  0  0  0
   56.2642   23.8118   46.8973 H   0  0  0  0  0  0  0  0  0  0  0  0
   57.8419   24.6705   46.8973 H   0  0  0  0  0  0  0  0  0  0  0  0
   55.1180   25.9890   46.7340 H   0  0  0  0  0  0  0  0  0  0  0  0
   55.1480   27.8640   45.1470 H   0  0  0  0  0  0  0  0  0  0  0  0
   55.7186   29.5335   43.1838 H   0  0  0  0  0  0  0  0  0  0  0  0
   56.7332   31.7528   42.6933 H   0  0  0  0  0  0  0  0  0  0  0  0
   60.8300   30.5470   46.0500 H   0  0  0  0  0  0  0  0  0  0  0  0
   61.3991   29.9606   48.9454 H   0  0  0  0  0  0  0  0  0  0  0  0
   63.1279   30.7640   50.5499 H   0  0  0  0  0  0  0  0  0  0  0  0
   64.2224   32.9763   50.2062 H   0  0  0  0  0  0  0  0  0  0  0  0
   63.5994   34.3912   48.2535 H   0  0  0  0  0  0  0  0  0  0  0  0
   61.3601   34.8208   46.6929 H   0  0  0  0  0  0  0  0  0  0  0  0
   62.6534   34.0449   45.7172 H   0  0  0  0  0  0  0  0  0  0  0  0
   60.9937   33.3578   45.7172 H   0  0  0  0  0  0  0  0  0  0  0  0
   57.8794   29.3655   46.9253 H   0  0  0  0  0  0  0  0  0  0  0  0
  1  2  1  0
  2  3  1  0
  3  4  2  0
  3  5  1  0
  5  6  1  0
  6  7  2  0
  7  8  1  0
  8  9  2  0
  9 10  1  0
  9 11  1  0
 11 12  1  0
 12 13  2  0
 12 14  1  0
 14 15  1  0
 15 16  2  0
 16 17  1  0
 17 18  2  0
 18 19  1  0
 19 20  2  0
 20 21  1  0
 11 22  2  0
 22  6  1  0
 20 15  1  0
  1 23  1  0
  1 24  1  0
  1 25  1  0
  2 26  1  0
  5 27  1  0
  7 28  1  0
  8 29  1  0
 14 30  1  0
 16 31  1  0
 17 32  1  0
 18 33  1  0
 19 34  1  0
 21 35  1  0
 21 36  1  0
 21 37  1  0
 22 38  1  0
M  END
>  <UniqueID>  (11) 
11

>  <SMILES>  (11) 
CNC(=S)Nc1ccc(Cl)c(C(=O)Nc2ccccc2C)c1

>  <Energy>  (11) 
50.78797512654458

>  <Genealogy>  (11) 
CNC(=S)Nc1ccc(Cl)c(C(=O)Nc2ccccc2C)c1 (3D coordinates assigned)
CNC(=S)Nc1ccc(Cl)c(C(=O)Nc2ccccc2C)c1 (optimized conformer: 50.78797512654458 kcal/mol)

>  <smiles>  (11) 
CNC(=S)Nc1ccc(Cl)c(C(=O)Nc2ccccc2C)c1

>  <score_type>  (11) 
oracle

>  <origin>  (11) 
adg

>  <m_score__min__energy>  (11) 
-8.0299999999999994

>  <m_primary>  (11) 
energy

$$$$
11:0
     RDKit          3D

 44 47  0  0  0  0  0  0  0  0999 V2000
   56.6490   31.2330   42.3910 O   0  0  0  0  0  0  0  0  0  0  0  0
   57.0030   30.8910   43.8200 S   0  0  0  0  0  0  0  0  0  0  0  0
   55.6710   30.4760   44.4460 O   0  0  0  0  0  0  0  0  0  0  0  0
   58.0750   29.5690   43.9100 N   0  0  0  0  0  0  0  0  0  0  0  0
   58.7210   29.0760   45.0580 C   0  0  0  0  0  0  0  0  0  0  0  0
   57.9060   28.6720   46.1120 C   0  0  0  0  0  0  0  0  0  0  0  0
   58.4270   28.1600   47.2840 C   0  0  0  0  0  0  0  0  0  0  0  0
   59.7900   28.0310   47.4510 C   0  0  0  0  0  0  0  0  0  0  0  0
   60.3930   27.5340   48.5760 O   0  0  0  0  0  0  0  0  0  0  0  0
   60.4530   28.2120   49.8140 C   0  0  0  0  0  0  0  0  0  0  0  0
   60.5360   29.6780   49.4820 C   0  0  0  0  0  0  0  0  0  0  0  0
   59.7640   30.6610   49.9810 N   0  0  0  0  0  0  0  0  0  0  0  0
   60.1170   31.8510   49.4610 C   0  0  0  0  0  0  0  0  0  0  0  0
   59.6870   33.1580   49.6040 C   0  0  0  0  0  0  0  0  0  0  0  0
   60.2610   34.2090   48.9150 C   0  0  0  0  0  0  0  0  0  0  0  0
   61.3110   33.9190   48.0510 C   0  0  0  0  0  0  0  0  0  0  0  0
   61.7710   32.6210   47.8800 C   0  0  0  0  0  0  0  0  0  0  0  0
   61.1650   31.6000   48.5910 C   0  0  0  0  0  0  0  0  0  0  0  0
   61.3860   30.2770   48.6330 N   0  0  0  0  0  0  0  0  0  0  0  0
   60.6020   28.4310   46.4070 C   0  0  0  0  0  0  0  0  0  0  0  0
   60.0690   28.9410   45.2410 C   0  0  0  0  0  0  0  0  0  0  0  0
   57.6500   32.2620   44.6590 C   0  0  0  0  0  0  0  0  0  0  0  0
   58.4670   33.1360   43.9320 C   0  0  0  0  0  0  0  0  0  0  0  0
   59.0420   34.2390   44.5240 C   0  0  0  0  0  0  0  0  0  0  0  0
   58.8450   34.5360   45.8560 C   0  0  0  0  0  0  0  0  0  0  0  0
   58.0410   33.6760   46.5730 C   0  0  0  0  0  0  0  0  0  0  0  0
   57.4570   32.5560   45.9710 C   0  0  0  0  0  0  0  0  0  0  0  0
   58.2990   29.0370   43.0060 H   0  0  0  0  0  0  0  0  0  0  0  0
   56.8147   28.7633   46.0081 H   0  0  0  0  0  0  0  0  0  0  0  0
   57.7479   27.8519   48.0927 H   0  0  0  0  0  0  0  0  0  0  0  0
   59.5499   28.0052   50.4070 H   0  0  0  0  0  0  0  0  0  0  0  0
   61.3174   27.8849   50.4105 H   0  0  0  0  0  0  0  0  0  0  0  0
   58.8558   33.3687   50.2930 H   0  0  0  0  0  0  0  0  0  0  0  0
   59.8997   35.2398   49.0455 H   0  0  0  0  0  0  0  0  0  0  0  0
   61.7877   34.7367   47.4905 H   0  0  0  0  0  0  0  0  0  0  0  0
   62.6022   32.4075   47.1918 H   0  0  0  0  0  0  0  0  0  0  0  0
   62.1320   29.8190   48.0640 H   0  0  0  0  0  0  0  0  0  0  0  0
   61.6937   28.3412   46.5073 H   0  0  0  0  0  0  0  0  0  0  0  0
   60.7499   29.2485   44.4336 H   0  0  0  0  0  0  0  0  0  0  0  0
   58.6536   32.9379   42.8662 H   0  0  0  0  0  0  0  0  0  0  0  0
   59.6763   34.9016   43.9169 H   0  0  0  0  0  0  0  0  0  0  0  0
   59.3075   35.4174   46.3242 H   0  0  0  0  0  0  0  0  0  0  0  0
   57.8549   33.8740   47.6389 H   0  0  0  0  0  0  0  0  0  0  0  0
   56.8226   31.8938   46.5784 H   0  0  0  0  0  0  0  0  0  0  0  0
  1  2  2  0
  2  3  2  0
  2  4  1  0
  4  5  1  0
  5  6  2  0
  6  7  1  0
  7  8  2  0
  8  9  1  0
  9 10  1  0
 10 11  1  0
 11 12  2  0
 12 13  1  0
 13 14  2  0
 14 15  1  0
 15 16  2  0
 16 17  1  0
 17 18  2  0
 18 19  1  0
  8 20  1  0
 20 21  2  0
  2 22  1  0
 22 23  2  0
 23 24  1  0
 24 25  2  0
 25 26  1  0
 26 27  2  0
 21  5  1  0
 27 22  1  0
 19 11  1  0
 18 13  1  0
  4 28  1  0
  6 29  1  0
  7 30  1  0
 10 31  1  0
 10 32  1  0
 14 33  1  0
 15 34  1  0
 16 35  1  0
 17 36  1  0
 19 37  1  0
 20 38  1  0
 21 39  1  0
 23 40  1  0
 24 41  1  0
 25 42  1  0
 26 43  1  0
 27 44  1  0
M  END
>  <smiles>  (12) 
O=S(=O)(Nc1ccc(OCc2nc3ccccc3[nH]2)cc1)c1ccccc1

>  <score_type>  (12) 
oracle

>  <origin>  (12) 
adg

>  <m_score__min__energy>  (12) 
-8.9399999999999995

>  <m_primary>  (12) 
energy

$$$$
12:0
     RDKit          3D

 40 41  0  0  1  0  0  0  0  0999 V2000
   61.4160   33.8290   46.8440 C   0  0  0  0  0  0  0  0  0  0  0  0
   60.1790   34.4710   47.3610 C   0  0  0  0  0  0  0  0  0  0  0  0
   59.1940   34.9310   46.3510 C   0  0  0  0  0  0  0  0  0  0  0  0
   58.6890   33.8850   45.4460 C   0  0  0  0  0  0  0  0  0  0  0  0
   58.2380   32.6480   45.9030 C   0  0  0  0  0  0  0  0  0  0  0  0
   57.8540   31.9120   44.8040 C   0  0  0  0  0  0  0  0  0  0  0  0
   57.3270   30.5250   44.8620 C   0  0  0  0  0  0  0  0  0  0  0  0
   56.0710   30.4520   44.7880 O   0  0  0  0  0  0  0  0  0  0  0  0
   58.2110   29.4450   44.9940 N   0  0  0  0  0  0  0  0  0  0  0  0
   57.8860   28.2090   45.0890 C   0  0  0  0  0  0  0  0  0  0  0  0
   58.7730   27.1790   44.7810 C   0  0  0  0  0  0  0  0  0  0  0  0
   58.3760   25.8440   44.9150 C   0  0  0  0  0  0  0  0  0  0  0  0
   57.1310   25.5410   45.3420 N   0  0  0  0  0  0  0  0  0  0  0  0
   56.6720   24.1700   45.5030 C   0  0  0  0  0  0  0  0  0  0  0  0
   56.7570   23.8610   46.9530 C   0  0  0  0  0  0  0  0  0  0  0  0
   57.2660   22.7920   47.4010 O   0  0  0  0  0  0  0  0  0  0  0  0
   56.2710   24.7480   47.9100 O   0  0  0  0  0  0  0  0  0  0  0  0
   56.3050   26.5670   45.6260 C   0  0  0  0  0  0  0  0  0  0  0  0
   55.1490   26.2810   46.0220 O   0  0  0  0  0  0  0  0  0  0  0  0
   56.6810   27.8620   45.5000 N   0  0  0  0  0  0  0  0  0  0  0  0
   58.0660   32.6780   43.7280 N   0  0  0  0  0  0  0  0  0  0  0  0
   57.8010   32.2990   42.3450 C   0  0  0  0  0  0  0  0  0  0  0  0
   58.5640   33.8600   44.1070 N   0  0  0  0  0  0  0  0  0  0  0  0
   62.0413   33.5045   47.6888 H   0  0  0  0  0  0  0  0  0  0  0  0
   61.1473   32.9565   46.2303 H   0  0  0  0  0  0  0  0  0  0  0  0
   61.9748   34.5509   46.2303 H   0  0  0  0  0  0  0  0  0  0  0  0
   59.6731   33.7431   48.0124 H   0  0  0  0  0  0  0  0  0  0  0  0
   60.5191   35.3850   47.8699 H   0  0  0  0  0  0  0  0  0  0  0  0
   58.3348   35.3624   46.8855 H   0  0  0  0  0  0  0  0  0  0  0  0
   59.7244   35.6549   45.7149 H   0  0  0  0  0  0  0  0  0  0  0  0
   58.1963   32.3190   46.9518 H   0  0  0  0  0  0  0  0  0  0  0  0
   59.7886   27.4164   44.4314 H   0  0  0  0  0  0  0  0  0  0  0  0
   59.0820   25.0365   44.6711 H   0  0  0  0  0  0  0  0  0  0  0  0
   55.6329   24.0744   45.1549 H   0  0  0  0  0  0  0  0  0  0  0  0
   57.2865   23.4743   44.9127 H   0  0  0  0  0  0  0  0  0  0  0  0
   55.5310   25.4270   47.7010 H   0  0  0  0  0  0  0  0  0  0  0  0
   55.9510   28.5630   45.7410 H   0  0  0  0  0  0  0  0  0  0  0  0
   57.1708   31.3976   42.3262 H   0  0  0  0  0  0  0  0  0  0  0  0
   57.2801   33.1214   41.8328 H   0  0  0  0  0  0  0  0  0  0  0  0
   58.7522   32.0921   41.8328 H   0  0  0  0  0  0  0  0  0  0  0  0
  1  2  1  0
  2  3  1  0
  3  4  1  0
  4  5  1  0
  5  6  2  0
  6  7  1  0
  7  8  2  0
  7  9  1  0
  9 10  2  0
 10 11  1  0
 11 12  2  0
 12 13  1  0
 13 14  1  0
 14 15  1  0
 15 16  2  0
 15 17  1  0
 13 18  1  0
 18 19  2  0
 18 20  1  0
  6 21  1  0
 21 22  1  0
 21 23  1  0
 23  4  2  0
 20 10  1  0
  1 24  1  0
  1 25  1  0
  1 26  1  0
  2 27  1  0
  2 28  1  0
  3 29  1  0
  3 30  1  0
  5 31  1  0
 11 32  1  0
 12 33  1  0
 14 34  1  0
 14 35  1  0
 17 36  1  0
 20 37  1  0
 22 38  1  0
 22 39  1  0
 22 40  1  0
M  END
>  <smiles>  (13) 
CCCc1cc(C(=O)N=c2ccn(CC(=O)O)c(=O)[nH]2)n(C)n1

>  <score_type>  (13) 
oracle

>  <origin>  (13) 
adg

>  <m_score__min__energy>  (13) 
-8.3800000000000008

>  <m_primary>  (13) 
energy

$$$$
13:0
     RDKit          3D

 44 46  0  0  0  0  0  0  0  0999 V2000
   63.2570   31.6500   49.6860 C   0  0  0  0  0  0  0  0  0  0  0  0
   62.2820   30.6490   49.8910 O   0  0  0  0  0  0  0  0  0  0  0  0
   61.2610   30.5170   48.9620 C   0  0  0  0  0  0  0  0  0  0  0  0
   61.5160   30.4690   47.5900 C   0  0  0  0  0  0  0  0  0  0  0  0
   60.4830   30.3380   46.6840 C   0  0  0  0  0  0  0  0  0  0  0  0
   59.1570   30.2500   47.1260 C   0  0  0  0  0  0  0  0  0  0  0  0
   58.0910   30.1140   46.1340 C   0  0  0  0  0  0  0  0  0  0  0  0
   57.5020   28.9000   45.8390 C   0  0  0  0  0  0  0  0  0  0  0  0
   56.5280   28.7500   44.9260 N   0  0  0  0  0  0  0  0  0  0  0  0
   56.0920   29.8540   44.2480 C   0  0  0  0  0  0  0  0  0  0  0  0
   55.1500   29.7210   43.3510 N   0  0  0  0  0  0  0  0  0  0  0  0
   56.6570   31.0440   44.5240 N   0  0  0  0  0  0  0  0  0  0  0  0
   57.6390   31.2150   45.4410 C   0  0  0  0  0  0  0  0  0  0  0  0
   58.1610   32.5600   45.6410 C   0  0  0  0  0  0  0  0  0  0  0  0
   58.6760   33.1850   44.5020 C   0  0  0  0  0  0  0  0  0  0  0  0
   59.2070   34.4670   44.5660 C   0  0  0  0  0  0  0  0  0  0  0  0
   59.1910   35.0660   45.8070 C   0  0  0  0  0  0  0  0  0  0  0  0
   58.7010   34.4950   46.9370 C   0  0  0  0  0  0  0  0  0  0  0  0
   58.1740   33.2130   46.8490 C   0  0  0  0  0  0  0  0  0  0  0  0
   58.9190   30.2990   48.4850 C   0  0  0  0  0  0  0  0  0  0  0  0
   59.9380   30.4300   49.4160 C   0  0  0  0  0  0  0  0  0  0  0  0
   59.6470   30.4790   50.8170 N   0  0  0  0  0  0  0  0  0  0  0  0
   58.1250   30.9680   51.4420 S   0  0  0  0  0  0  0  0  0  0  0  0
   58.3580   31.6870   53.0470 C   0  0  0  0  0  0  0  0  0  0  0  0
   57.4590   31.9580   50.5160 O   0  0  0  0  0  0  0  0  0  0  0  0
   57.2590   29.7560   51.5990 O   0  0  0  0  0  0  0  0  0  0  0  0
   63.6152   32.0177   50.6589 H   0  0  0  0  0  0  0  0  0  0  0  0
   64.1010   31.2293   49.1197 H   0  0  0  0  0  0  0  0  0  0  0  0
   62.8142   32.4826   49.1197 H   0  0  0  0  0  0  0  0  0  0  0  0
   62.5522   30.5364   47.2270 H   0  0  0  0  0  0  0  0  0  0  0  0
   60.7029   30.3025   45.6068 H   0  0  0  0  0  0  0  0  0  0  0  0
   57.8492   28.0079   46.3809 H   0  0  0  0  0  0  0  0  0  0  0  0
   56.1280   27.8020   44.7540 H   0  0  0  0  0  0  0  0  0  0  0  0
   55.4200   29.2510   42.4560 H   0  0  0  0  0  0  0  0  0  0  0  0
   58.6606   32.6531   43.5393 H   0  0  0  0  0  0  0  0  0  0  0  0
   59.6157   34.9737   43.6793 H   0  0  0  0  0  0  0  0  0  0  0  0
   59.6058   36.0816   45.8879 H   0  0  0  0  0  0  0  0  0  0  0  0
   58.7208   35.0331   47.8962 H   0  0  0  0  0  0  0  0  0  0  0  0
   57.7677   32.7216   47.7454 H   0  0  0  0  0  0  0  0  0  0  0  0
   57.8811   30.2315   48.8429 H   0  0  0  0  0  0  0  0  0  0  0  0
   60.4330   30.1950   51.4750 H   0  0  0  0  0  0  0  0  0  0  0  0
   58.1169   30.9430   53.8206 H   0  0  0  0  0  0  0  0  0  0  0  0
   59.4052   32.0050   53.1578 H   0  0  0  0  0  0  0  0  0  0  0  0
   57.6964   32.5588   53.1578 H   0  0  0  0  0  0  0  0  0  0  0  0
  1  2  1  0
  2  3  1  0
  3  4  2  0
  4  5  1  0
  5  6  2  0
  6  7  1  0
  7  8  2  0
  8  9  1  0
  9 10  1  0
 10 11  2  3
 10 12  1  0
 12 13  2  0
 13 14  1  0
 14 15  2  0
 15 16  1  0
 16 17  2  0
 17 18  1  0
 18 19  2  0
  6 20  1  0
 20 21  2  0
 21 22  1  0
 22 23  1  0
 23 24  1  0
 23 25  2  0
 23 26  2  0
 21  3  1  0
 13  7  1  0
 19 14  1  0
  1 27  1  0
  1 28  1  0
  1 29  1  0
  4 30  1  0
  5 31  1  0
  8 32  1  0
  9 33  1  0
 11 34  1  0
 15 35  1  0
 16 36  1  0
 17 37  1  0
 18 38  1  0
 19 39  1  0
 20 40  1  0
 22 41  1  0
 24 42  1  0
 24 43  1  0
 24 44  1  0
M  END
>  <smiles>  (14) 
COc1ccc(-c2c[nH]c(=N)nc2-c2ccccc2)cc1NS(C)(=O)=O

>  <score_type>  (14) 
oracle

>  <origin>  (14) 
adg

>  <m_score__min__energy>  (14) 
-8.7300000000000004

>  <m_primary>  (14) 
energy

$$$$
14:0
     RDKit          3D

 51 55  0  0  0  0  0  0  0  0999 V2000
   63.0233   28.9748   51.1513 H   0  0  0  0  0  0  0  0  0  0  0  0
   62.5140   29.9310   50.9610 C   0  0  0  0  0  0  0  0  0  0  0  0
   63.1090   30.8720   50.1860 N   0  0  0  0  0  0  0  0  0  0  0  0
   62.5390   32.0810   49.9190 C   0  0  0  0  0  0  0  0  0  0  0  0
   63.3360   33.0370   49.0520 C   0  0  0  0  0  0  0  0  0  0  0  0
   64.4048   32.8847   49.2630 H   0  0  0  0  0  0  0  0  0  0  0  0
   62.9926   34.0517   49.3021 H   0  0  0  0  0  0  0  0  0  0  0  0
   63.1200   32.8610   47.5970 N   0  0  0  0  0  0  0  0  0  0  0  0
   62.2330   33.8410   46.9500 C   0  0  0  0  0  0  0  0  0  0  0  0
   62.3271   34.8017   47.4774 H   0  0  0  0  0  0  0  0  0  0  0  0
   62.5409   33.9207   45.8970 H   0  0  0  0  0  0  0  0  0  0  0  0
   60.7850   33.4220   46.9680 C   0  0  0  0  0  0  0  0  0  0  0  0
   59.8060   34.4080   46.7730 C   0  0  0  0  0  0  0  0  0  0  0  0
   60.1070   35.4578   46.6413 H   0  0  0  0  0  0  0  0  0  0  0  0
   58.4590   34.0680   46.7450 C   0  0  0  0  0  0  0  0  0  0  0  0
   57.6993   34.8497   46.5973 H   0  0  0  0  0  0  0  0  0  0  0  0
   58.0680   32.7430   46.9030 C   0  0  0  0  0  0  0  0  0  0  0  0
   56.9986   32.4862   46.8807 H   0  0  0  0  0  0  0  0  0  0  0  0
   59.0220   31.7270   47.0910 C   0  0  0  0  0  0  0  0  0  0  0  0
   58.5300   30.3290   47.2590 C   0  0  0  0  0  0  0  0  0  0  0  0
   58.8260   29.6750   48.2930 O   0  0  0  0  0  0  0  0  0  0  0  0
   57.5870   29.7610   46.3390 N   0  0  0  0  0  0  0  0  0  0  0  0
   57.3340   30.1140   45.1070 C   0  0  0  0  0  0  0  0  0  0  0  0
   58.2280   30.9350   44.4920 N   0  0  0  0  0  0  0  0  0  0  0  0
   58.0760   31.3530   43.2080 C   0  0  0  0  0  0  0  0  0  0  0  0
   58.8272   32.0154   42.7531 H   0  0  0  0  0  0  0  0  0  0  0  0
   56.9690   30.9430   42.4670 C   0  0  0  0  0  0  0  0  0  0  0  0
   56.8492   31.2626   41.4213 H   0  0  0  0  0  0  0  0  0  0  0  0
   56.0160   30.1230   43.0680 C   0  0  0  0  0  0  0  0  0  0  0  0
   55.1352   29.7968   42.4955 H   0  0  0  0  0  0  0  0  0  0  0  0
   56.1740   29.7130   44.3950 C   0  0  0  0  0  0  0  0  0  0  0  0
   55.1590   28.9660   44.9790 O   0  0  0  0  0  0  0  0  0  0  0  0
   60.4050   32.0660   47.1080 C   0  0  0  0  0  0  0  0  0  0  0  0
   61.4620   30.9960   47.2950 C   0  0  0  0  0  0  0  0  0  0  0  0
   61.3587   30.5861   48.3105 H   0  0  0  0  0  0  0  0  0  0  0  0
   61.2899   30.2481   46.5070 H   0  0  0  0  0  0  0  0  0  0  0  0
   62.9080   31.4850   47.1210 C   0  0  0  0  0  0  0  0  0  0  0  0
   63.5732   30.8145   47.6848 H   0  0  0  0  0  0  0  0  0  0  0  0
   63.1265   31.4767   46.0429 H   0  0  0  0  0  0  0  0  0  0  0  0
   61.2460   32.3650   50.4410 C   0  0  0  0  0  0  0  0  0  0  0  0
   60.5640   33.5810   50.2020 C   0  0  0  0  0  0  0  0  0  0  0  0
   61.0297   34.3532   49.5721 H   0  0  0  0  0  0  0  0  0  0  0  0
   59.3030   33.8090   50.7600 C   0  0  0  0  0  0  0  0  0  0  0  0
   58.7839   34.7595   50.5672 H   0  0  0  0  0  0  0  0  0  0  0  0
   58.6990   32.8400   51.5590 C   0  0  0  0  0  0  0  0  0  0  0  0
   57.7061   33.0275   51.9937 H   0  0  0  0  0  0  0  0  0  0  0  0
   59.3510   31.6340   51.8080 C   0  0  0  0  0  0  0  0  0  0  0  0
   58.8704   30.8724   52.4396 H   0  0  0  0  0  0  0  0  0  0  0  0
   60.6180   31.3860   51.2570 C   0  0  0  0  0  0  0  0  0  0  0  0
   61.2630   30.1720   51.5150 C   0  0  0  0  0  0  0  0  0  0  0  0
   60.7834   29.4139   52.1517 H   0  0  0  0  0  0  0  0  0  0  0  0
  1  2  1  0
  2  3  2  0
  3  4  1  0
  4  5  1  0
  5  6  1  0
  5  7  1  0
  5  8  1  0
  8  9  1  0
  9 10  1  0
  9 11  1  0
  9 12  1  0
 12 13  2  0
 13 14  1  0
 13 15  1  0
 15 16  1  0
 15 17  2  0
 17 18  1  0
 17 19  1  0
 19 20  1  0
 20 21  2  0
 20 22  1  0
 22 23  2  0
 23 24  1  0
 24 25  1  0
 25 26  1  0
 25 27  2  0
 27 28  1  0
 27 29  1  0
 29 30  1  0
 29 31  2  0
 31 32  1  0
 19 33  2  0
 33 34  1  0
 34 35  1  0
 34 36  1  0
 34 37  1  0
 37 38  1  0
 37 39  1  0
  4 40  2  0
 40 41  1  0
 41 42  1  0
 41 43  2  0
 43 44  1  0
 43 45  1  0
 45 46  1  0
 45 47  2  0
 47 48  1  0
 47 49  1  0
 49 50  2  0
 50 51  1  0
 50  2  1  0
 37  8  1  0
 49 40  1  0
 33 12  1  0
 31 23  1  0
M  CHG  2  24  -1  32  -1
M  END
>  <UniqueID>  (15) 
12

>  <SMILES>  (15) 
O=C(/N=c1/[n-]cccc1[O-])c1cccc2c1CCN(Cc1nccc3ccccc13)C2

>  <Energy>  (15) 
91.38385256847435

>  <Genealogy>  (15) 
O=C(N=c1[n-]cccc1[O-])c1cccc2c1CCN(Cc1nccc3ccccc13)C2 (protonated)
O=C(/N=c1/[n-]cccc1[O-])c1cccc2c1CCN(Cc1nccc3ccccc13)C2 (cis-trans isomerization)
O=C(/N=c1/[n-]cccc1[O-])c1cccc2c1CCN(Cc1nccc3ccccc13)C2 (3D coordinates assigned)
O=C(/N=c1/[n-]cccc1[O-])c1cccc2c1CCN(Cc1nccc3ccccc13)C2 (nonaromatic ring conformer: 91.38385256847435 kcal/mol)

>  <smiles>  (15) 
O=C(N=c1[nH]cccc1O)c1cccc2c1CCN(Cc1nccc3ccccc13)C2

>  <score_type>  (15) 
oracle

>  <origin>  (15) 
adg

>  <m_score__min__energy>  (15) 
-14.42

>  <m_primary>  (15) 
energy

$$$$
15:0
     RDKit          3D

 28 29  0  0  0  0  0  0  0  0999 V2000
   55.1700   29.3070   44.8870 O   0  0  0  0  0  0  0  0  0  0  0  0
   56.2800   29.7800   44.5230 C   0  0  0  0  0  0  0  0  0  0  0  0
   57.2780   28.9060   43.8390 C   0  0  0  0  0  0  0  0  0  0  0  0
   57.8200   27.9170   44.8250 C   0  0  0  0  0  0  0  0  0  0  0  0
   59.4580   27.7000   45.1600 S   0  0  0  0  0  0  0  0  0  0  0  0
   59.1500   26.6280   46.4140 C   0  0  0  0  0  0  0  0  0  0  0  0
   60.0400   26.0720   47.1060 O   0  0  0  0  0  0  0  0  0  0  0  0
   57.8310   26.4280   46.6140 N   0  0  0  0  0  0  0  0  0  0  0  0
   57.0850   27.1510   45.7390 C   0  0  0  0  0  0  0  0  0  0  0  0
   55.6940   27.1210   45.7830 O   0  0  0  0  0  0  0  0  0  0  0  0
   56.6360   31.1270   44.8510 N   0  0  0  0  0  0  0  0  0  0  0  0
   57.6750   31.8620   44.1430 C   0  0  0  0  0  0  0  0  0  0  0  0
   58.2860   32.8780   45.0710 C   0  0  0  0  0  0  0  0  0  0  0  0
   58.9540   34.0030   44.5600 C   0  0  0  0  0  0  0  0  0  0  0  0
   59.4480   34.9810   45.4280 C   0  0  0  0  0  0  0  0  0  0  0  0
   59.2720   34.8480   46.8080 C   0  0  0  0  0  0  0  0  0  0  0  0
   58.6020   33.7360   47.3230 C   0  0  0  0  0  0  0  0  0  0  0  0
   58.1090   32.7530   46.4600 C   0  0  0  0  0  0  0  0  0  0  0  0
   56.7921   28.3710   43.0097 H   0  0  0  0  0  0  0  0  0  0  0  0
   58.0987   29.5211   43.4415 H   0  0  0  0  0  0  0  0  0  0  0  0
   55.1450   27.9500   45.9670 H   0  0  0  0  0  0  0  0  0  0  0  0
   58.4520   31.1624   43.8012 H   0  0  0  0  0  0  0  0  0  0  0  0
   57.2370   32.3737   43.2733 H   0  0  0  0  0  0  0  0  0  0  0  0
   59.0887   34.1147   43.4740 H   0  0  0  0  0  0  0  0  0  0  0  0
   59.9764   35.8571   45.0240 H   0  0  0  0  0  0  0  0  0  0  0  0
   59.6613   35.6193   47.4888 H   0  0  0  0  0  0  0  0  0  0  0  0
   58.4621   33.6336   48.4092 H   0  0  0  0  0  0  0  0  0  0  0  0
   57.5810   31.8790   46.8690 H   0  0  0  0  0  0  0  0  0  0  0  0
  1  2  2  0
  2  3  1  0
  3  4  1  0
  4  5  1  0
  5  6  1  0
  6  7  2  0
  6  8  1  0
  8  9  1  0
  9 10  1  0
  2 11  1  0
 11 12  1  0
 12 13  1  0
 13 14  2  0
 14 15  1  0
 15 16  2  0
 16 17  1  0
 17 18  2  0
  9  4  2  0
 18 13  1  0
  3 19  1  0
  3 20  1  0
 10 21  1  0
 12 22  1  0
 12 23  1  0
 14 24  1  0
 15 25  1  0
 16 26  1  0
 17 27  1  0
 18 28  1  0
M  CHG  2   8  -1  11  -1
M  END
>  <UniqueID>  (16) 
13

>  <SMILES>  (16) 
O=C(Cc1sc(=O)[n-]c1O)[N-]Cc1ccccc1

>  <Energy>  (16) 
53.23071566341363

>  <Genealogy>  (16) 
O=C(Cc1sc(=O)[n-]c1O)[N-]Cc1ccccc1 (protonated)
O=C(Cc1sc(=O)[n-]c1O)[N-]Cc1ccccc1 (3D coordinates assigned)
O=C(Cc1sc(=O)[n-]c1O)[N-]Cc1ccccc1 (optimized conformer: 53.23071566341363 kcal/mol)

>  <smiles>  (16) 
O=C(Cc1sc(=O)[nH]c1O)NCc1ccccc1

>  <score_type>  (16) 
oracle

>  <origin>  (16) 
adg

>  <m_score__min__energy>  (16) 
-11.42

>  <m_primary>  (16) 
energy

$$$$
16:0
     RDKit          3D

 42 43  0  0  0  0  0  0  0  0999 V2000
   50.2910   33.2290   52.3400 O   0  0  0  0  0  0  0  0  0  0  0  0
   50.9580   32.3390   51.7500 C   0  0  0  0  0  0  0  0  0  0  0  0
   51.0340   32.3410   50.3630 O   0  0  0  0  0  0  0  0  0  0  0  0
   51.6780   31.2920   52.5360 C   0  0  0  0  0  0  0  0  0  0  0  0
   52.8150   30.3460   51.4610 S   0  0  0  0  0  0  0  0  0  0  0  0
   53.8940   29.6860   52.7830 C   0  0  0  0  0  0  0  0  0  0  0  0
   55.3350   30.0540   52.5500 C   0  0  0  0  0  0  0  0  0  0  0  0
   56.3660   29.2140   53.0030 C   0  0  0  0  0  0  0  0  0  0  0  0
   57.7020   29.5560   52.7820 C   0  0  0  0  0  0  0  0  0  0  0  0
   58.0250   30.7400   52.1040 C   0  0  0  0  0  0  0  0  0  0  0  0
   59.7110   31.1660   51.8190 S   0  0  0  0  0  0  0  0  0  0  0  0
   60.6170   30.3620   52.7100 O   0  0  0  0  0  0  0  0  0  0  0  0
   59.8970   32.6260   52.1210 O   0  0  0  0  0  0  0  0  0  0  0  0
   60.1410   30.8700   50.1670 N   0  0  0  0  0  0  0  0  0  0  0  0
   60.2440   31.8820   49.1620 C   0  0  0  0  0  0  0  0  0  0  0  0
   60.7640   31.5840   48.0540 O   0  0  0  0  0  0  0  0  0  0  0  0
   59.7740   33.2200   49.3960 N   0  0  0  0  0  0  0  0  0  0  0  0
   60.0860   34.3240   48.4900 C   0  0  0  0  0  0  0  0  0  0  0  0
   59.2450   34.2300   47.2460 C   0  0  0  0  0  0  0  0  0  0  0  0
   59.6520   34.8860   46.0720 C   0  0  0  0  0  0  0  0  0  0  0  0
   58.8940   34.7700   44.9030 C   0  0  0  0  0  0  0  0  0  0  0  0
   57.7260   34.0030   44.8970 C   0  0  0  0  0  0  0  0  0  0  0  0
   57.3150   33.3490   46.0610 C   0  0  0  0  0  0  0  0  0  0  0  0
   58.0720   33.4580   47.2320 C   0  0  0  0  0  0  0  0  0  0  0  0
   57.0000   31.5820   51.6550 C   0  0  0  0  0  0  0  0  0  0  0  0
   55.6620   31.2420   51.8770 C   0  0  0  0  0  0  0  0  0  0  0  0
   52.2566   31.7756   53.3368 H   0  0  0  0  0  0  0  0  0  0  0  0
   50.9382   30.5999   52.9647 H   0  0  0  0  0  0  0  0  0  0  0  0
   53.5705   30.1002   53.7493 H   0  0  0  0  0  0  0  0  0  0  0  0
   53.8120   28.5891   52.7817 H   0  0  0  0  0  0  0  0  0  0  0  0
   56.1199   28.2827   53.5342 H   0  0  0  0  0  0  0  0  0  0  0  0
   58.5037   28.8940   53.1412 H   0  0  0  0  0  0  0  0  0  0  0  0
   59.1890   33.4310   50.2330 H   0  0  0  0  0  0  0  0  0  0  0  0
   59.8801   35.2786   48.9963 H   0  0  0  0  0  0  0  0  0  0  0  0
   61.1482   34.2685   48.2097 H   0  0  0  0  0  0  0  0  0  0  0  0
   60.5696   35.4926   46.0727 H   0  0  0  0  0  0  0  0  0  0  0  0
   59.2178   35.2837   43.9858 H   0  0  0  0  0  0  0  0  0  0  0  0
   57.1306   33.9142   43.9764 H   0  0  0  0  0  0  0  0  0  0  0  0
   56.3943   32.7472   46.0566 H   0  0  0  0  0  0  0  0  0  0  0  0
   57.7475   32.9373   48.1450 H   0  0  0  0  0  0  0  0  0  0  0  0
   57.2483   32.5139   51.1259 H   0  0  0  0  0  0  0  0  0  0  0  0
   54.8618   31.9085   51.5227 H   0  0  0  0  0  0  0  0  0  0  0  0
  1  2  2  0
  2  3  1  0
  2  4  1  0
  4  5  1  0
  5  6  1  0
  6  7  1  0
  7  8  2  0
  8  9  1  0
  9 10  2  0
 10 11  1  0
 11 12  2  0
 11 13  2  0
 11 14  1  0
 14 15  1  0
 15 16  2  0
 15 17  1  0
 17 18  1  0
 18 19  1  0
 19 20  2  0
 20 21  1  0
 21 22  2  0
 22 23  1  0
 23 24  2  0
 10 25  1  0
 25 26  2  0
 26  7  1  0
 24 19  1  0
  4 27  1  0
  4 28  1  0
  6 29  1  0
  6 30  1  0
  8 31  1  0
  9 32  1  0
 17 33  1  0
 18 34  1  0
 18 35  1  0
 20 36  1  0
 21 37  1  0
 22 38  1  0
 23 39  1  0
 24 40  1  0
 25 41  1  0
 26 42  1  0
M  CHG  2   3  -1  14  -1
M  END
>  <UniqueID>  (17) 
14

>  <SMILES>  (17) 
O=C([O-])CSCc1ccc(S(=O)(=O)[N-]C(=O)NCc2ccccc2)cc1

>  <Energy>  (17) 
33.606370548621

>  <Genealogy>  (17) 
O=C([O-])CSCc1ccc(S(=O)(=O)[N-]C(=O)NCc2ccccc2)cc1 (protonated)
O=C([O-])CSCc1ccc(S(=O)(=O)[N-]C(=O)NCc2ccccc2)cc1 (3D coordinates assigned)
O=C([O-])CSCc1ccc(S(=O)(=O)[N-]C(=O)NCc2ccccc2)cc1 (optimized conformer: 33.606370548621 kcal/mol)

>  <smiles>  (17) 
O=C(O)CSCc1ccc(S(=O)(=O)NC(=O)NCc2ccccc2)cc1

>  <score_type>  (17) 
oracle

>  <origin>  (17) 
adg

>  <m_score__min__energy>  (17) 
-12.449999999999999

>  <m_primary>  (17) 
energy

$$$$
17:0
     RDKit          3D

 39 40  0  0  0  0  0  0  0  0999 V2000
   60.6730   27.2310   46.3980 O   0  0  0  0  0  0  0  0  0  0  0  0
   60.2360   28.3190   45.9360 C   0  0  0  0  0  0  0  0  0  0  0  0
   59.8250   28.3910   44.4940 C   0  0  0  0  0  0  0  0  0  0  0  0
   58.4250   27.8070   44.2860 C   0  0  0  0  0  0  0  0  0  0  0  0
   57.4510   28.4700   45.1550 N   0  0  0  0  0  0  0  0  0  0  0  0
   56.5750   29.7060   44.3020 S   0  0  0  0  0  0  0  0  0  0  0  0
   55.1810   29.7950   44.8540 O   0  0  0  0  0  0  0  0  0  0  0  0
   56.5070   29.3680   42.8390 O   0  0  0  0  0  0  0  0  0  0  0  0
   57.3770   31.2490   44.5200 C   0  0  0  0  0  0  0  0  0  0  0  0
   57.7640   32.1150   43.5060 C   0  0  0  0  0  0  0  0  0  0  0  0
   58.3870   33.2720   43.9870 C   0  0  0  0  0  0  0  0  0  0  0  0
   58.4850   33.3050   45.3710 C   0  0  0  0  0  0  0  0  0  0  0  0
   59.2660   34.7060   46.4010 Br  0  0  0  0  0  0  0  0  0  0  0  0
   57.8020   31.9070   46.0080 S   0  0  0  0  0  0  0  0  0  0  0  0
   60.1690   29.4900   46.7650 N   0  0  0  0  0  0  0  0  0  0  0  0
   60.5710   29.4930   48.1730 C   0  0  0  0  0  0  0  0  0  0  0  0
   60.4850   30.9050   48.7610 C   0  0  0  0  0  0  0  0  0  0  0  0
   61.6560   31.7590   48.3470 C   0  0  0  0  0  0  0  0  0  0  0  0
   61.6380   32.4360   47.1170 C   0  0  0  0  0  0  0  0  0  0  0  0
   62.7120   33.2520   46.7450 C   0  0  0  0  0  0  0  0  0  0  0  0
   63.8110   33.3940   47.5980 C   0  0  0  0  0  0  0  0  0  0  0  0
   63.8380   32.7190   48.8200 C   0  0  0  0  0  0  0  0  0  0  0  0
   62.7660   31.9050   49.1970 C   0  0  0  0  0  0  0  0  0  0  0  0
   59.8259   29.4431   44.1730 H   0  0  0  0  0  0  0  0  0  0  0  0
   60.5391   27.8026   43.8991 H   0  0  0  0  0  0  0  0  0  0  0  0
   58.1273   27.9488   43.2366 H   0  0  0  0  0  0  0  0  0  0  0  0
   58.4489   26.7360   44.5358 H   0  0  0  0  0  0  0  0  0  0  0  0
   57.5984   31.9129   42.4375 H   0  0  0  0  0  0  0  0  0  0  0  0
   58.7613   34.0743   43.3341 H   0  0  0  0  0  0  0  0  0  0  0  0
   59.8470   30.3900   46.3450 H   0  0  0  0  0  0  0  0  0  0  0  0
   59.9051   28.8254   48.7395 H   0  0  0  0  0  0  0  0  0  0  0  0
   61.6122   29.1451   48.2428 H   0  0  0  0  0  0  0  0  0  0  0  0
   59.5569   31.3802   48.4105 H   0  0  0  0  0  0  0  0  0  0  0  0
   60.4970   30.8188   49.8575 H   0  0  0  0  0  0  0  0  0  0  0  0
   60.7759   32.3244   46.4430 H   0  0  0  0  0  0  0  0  0  0  0  0
   62.6919   33.7820   45.7813 H   0  0  0  0  0  0  0  0  0  0  0  0
   64.6542   34.0374   47.3063 H   0  0  0  0  0  0  0  0  0  0  0  0
   64.7052   32.8281   49.4878 H   0  0  0  0  0  0  0  0  0  0  0  0
   62.7911   31.3771   50.1617 H   0  0  0  0  0  0  0  0  0  0  0  0
  1  2  2  0
  2  3  1  0
  3  4  1  0
  4  5  1  0
  5  6  1  0
  6  7  2  0
  6  8  2  0
  6  9  1  0
  9 10  2  0
 10 11  1  0
 11 12  2  0
 12 13  1  0
 12 14  1  0
  2 15  1  0
 15 16  1  0
 16 17  1  0
 17 18  1  0
 18 19  2  0
 19 20  1  0
 20 21  2  0
 21 22  1  0
 22 23  2  0
 14  9  1  0
 23 18  1  0
  3 24  1  0
  3 25  1  0
  4 26  1  0
  4 27  1  0
 10 28  1  0
 11 29  1  0
 15 30  1  0
 16 31  1  0
 16 32  1  0
 17 33  1  0
 17 34  1  0
 19 35  1  0
 20 36  1  0
 21 37  1  0
 22 38  1  0
 23 39  1  0
M  CHG  1   5  -1
M  END
>  <UniqueID>  (18) 
15

>  <SMILES>  (18) 
O=C(CC[N-]S(=O)(=O)c1ccc(Br)s1)NCCc1ccccc1

>  <Energy>  (18) 
55.653313110885286

>  <Genealogy>  (18) 
O=C(CC[N-]S(=O)(=O)c1ccc(Br)s1)NCCc1ccccc1 (protonated)
O=C(CC[N-]S(=O)(=O)c1ccc(Br)s1)NCCc1ccccc1 (3D coordinates assigned)
O=C(CC[N-]S(=O)(=O)c1ccc(Br)s1)NCCc1ccccc1 (optimized conformer: 55.653313110885286 kcal/mol)

>  <smiles>  (18) 
O=C(CCNS(=O)(=O)c1ccc(Br)s1)NCCc1ccccc1

>  <score_type>  (18) 
oracle

>  <origin>  (18) 
adg

>  <m_score__min__energy>  (18) 
-9.4000000000000004

>  <m_primary>  (18) 
energy

$$$$
18:0
     RDKit          3D

 33 34  0  0  0  0  0  0  0  0999 V2000
   55.1310   27.4670   45.2650 H   0  0  0  0  0  0  0  0  0  0  0  0
   55.9060   27.1030   45.8040 O   0  0  0  0  0  0  0  0  0  0  0  0
   57.2050   27.6040   45.6920 C   0  0  0  0  0  0  0  0  0  0  0  0
   58.2710   26.7850   46.0820 C   0  0  0  0  0  0  0  0  0  0  0  0
   58.0696   25.7751   46.4687 H   0  0  0  0  0  0  0  0  0  0  0  0
   59.5940   27.2410   45.9840 C   0  0  0  0  0  0  0  0  0  0  0  0
   60.7320   26.3490   46.3810 C   0  0  0  0  0  0  0  0  0  0  0  0
   60.7942   26.3003   47.4782 H   0  0  0  0  0  0  0  0  0  0  0  0
   60.5643   25.3393   45.9780 H   0  0  0  0  0  0  0  0  0  0  0  0
   61.6724   26.7531   45.9780 H   0  0  0  0  0  0  0  0  0  0  0  0
   59.8480   28.5120   45.4500 C   0  0  0  0  0  0  0  0  0  0  0  0
   60.8847   28.8619   45.3372 H   0  0  0  0  0  0  0  0  0  0  0  0
   58.7900   29.3350   45.0610 C   0  0  0  0  0  0  0  0  0  0  0  0
   58.9988   30.3307   44.6427 H   0  0  0  0  0  0  0  0  0  0  0  0
   57.4630   28.9030   45.1990 C   0  0  0  0  0  0  0  0  0  0  0  0
   56.3700   29.8340   44.8530 C   0  0  0  0  0  0  0  0  0  0  0  0
   55.1860   29.4060   44.8700 O   0  0  0  0  0  0  0  0  0  0  0  0
   56.6040   31.2040   44.4780 N   0  0  0  0  0  0  0  0  0  0  0  0
   57.3730   32.0600   45.0860 C   0  0  0  0  0  0  0  0  0  0  0  0
   57.7690   31.9510   46.3720 N   0  0  0  0  0  0  0  0  0  0  0  0
   58.5860   32.9740   46.7360 C   0  0  0  0  0  0  0  0  0  0  0  0
   59.1560   33.0660   48.1190 C   0  0  0  0  0  0  0  0  0  0  0  0
   58.6742   33.8975   48.6544 H   0  0  0  0  0  0  0  0  0  0  0  0
   60.2399   33.2388   48.0459 H   0  0  0  0  0  0  0  0  0  0  0  0
   58.9230   31.8160   48.8570 N   0  0  0  0  0  0  0  0  0  0  0  0
   58.1010   31.3390   48.4200 H   0  0  0  0  0  0  0  0  0  0  0  0
   60.0630   30.9020   48.7380 C   0  0  0  0  0  0  0  0  0  0  0  0
   60.4138   30.6207   49.7419 H   0  0  0  0  0  0  0  0  0  0  0  0
   59.7535   29.9990   48.1914 H   0  0  0  0  0  0  0  0  0  0  0  0
   60.8771   31.4005   48.1914 H   0  0  0  0  0  0  0  0  0  0  0  0
   58.8610   33.8950   45.7260 C   0  0  0  0  0  0  0  0  0  0  0  0
   59.5070   34.7807   45.8168 H   0  0  0  0  0  0  0  0  0  0  0  0
   58.0300   33.4130   44.3420 S   0  0  0  0  0  0  0  0  0  0  0  0
  1  2  1  0
  2  3  1  0
  3  4  2  0
  4  5  1  0
  4  6  1  0
  6  7  1  0
  7  8  1  0
  7  9  1  0
  7 10  1  0
  6 11  2  0
 11 12  1  0
 11 13  1  0
 13 14  1  0
 13 15  2  0
 15 16  1  0
 16 17  2  0
 16 18  1  0
 18 19  2  0
 19 20  1  0
 20 21  1  0
 21 22  1  0
 22 23  1  0
 22 24  1  0
 22 25  1  0
 25 26  1  0
 25 27  1  0
 27 28  1  0
 27 29  1  0
 27 30  1  0
 21 31  2  0
 31 32  1  0
 31 33  1  0
 15  3  1  0
 33 19  1  0
M  CHG  1  20  -1
M  END
>  <UniqueID>  (19) 
16

>  <SMILES>  (19) 
CNCc1cs/c(=N/C(=O)c2ccc(C)cc2O)[n-]1

>  <Energy>  (19) 
68.5067497275367

>  <Genealogy>  (19) 
CNCc1csc(=NC(=O)c2ccc(C)cc2O)[n-]1 (protonated)
CNCc1cs/c(=N/C(=O)c2ccc(C)cc2O)[n-]1 (cis-trans isomerization)
CNCc1cs/c(=N/C(=O)c2ccc(C)cc2O)[n-]1 (3D coordinates assigned)
CNCc1cs/c(=N/C(=O)c2ccc(C)cc2O)[n-]1 (optimized conformer: 68.5067497275367 kcal/mol)

>  <smiles>  (19) 
CNCc1csc(=NC(=O)c2ccc(C)cc2O)[nH]1

>  <score_type>  (19) 
oracle

>  <origin>  (19) 
adg

>  <m_score__min__energy>  (19) 
-9.0800000000000001

>  <m_primary>  (19) 
energy

$$$$
19:0
     RDKit          3D

 46 48  0  0  0  0  0  0  0  0999 V2000
   58.9460   33.3200   48.1130 C   0  0  0  0  0  0  0  0  0  0  0  0
   58.2750   33.1020   46.7970 C   0  0  0  0  0  0  0  0  0  0  0  0
   57.3330   33.9260   46.3000 N   0  0  0  0  0  0  0  0  0  0  0  0
   57.0460   33.5030   45.1020 O   0  0  0  0  0  0  0  0  0  0  0  0
   57.7580   32.4460   44.7900 C   0  0  0  0  0  0  0  0  0  0  0  0
   57.7150   31.7720   43.4560 C   0  0  0  0  0  0  0  0  0  0  0  0
   58.5600   32.1140   45.8670 C   0  0  0  0  0  0  0  0  0  0  0  0
   59.6470   31.0720   45.9020 C   0  0  0  0  0  0  0  0  0  0  0  0
   59.1390   29.7400   46.3010 N   0  0  0  0  0  0  0  0  0  0  0  0
   58.4170   29.7220   47.6050 C   0  0  0  0  0  0  0  0  0  0  0  0
   59.2150   29.1760   48.7770 C   0  0  0  0  0  0  0  0  0  0  0  0
   60.0130   28.0300   48.6220 C   0  0  0  0  0  0  0  0  0  0  0  0
   60.7510   27.5260   49.6980 C   0  0  0  0  0  0  0  0  0  0  0  0
   60.7190   28.1740   50.9370 C   0  0  0  0  0  0  0  0  0  0  0  0
   61.4480   27.6790   52.0170 O   0  0  0  0  0  0  0  0  0  0  0  0
   59.9590   29.3350   51.0920 C   0  0  0  0  0  0  0  0  0  0  0  0
   59.2200   29.8440   50.0180 C   0  0  0  0  0  0  0  0  0  0  0  0
   58.5380   31.0050   50.1870 F   0  0  0  0  0  0  0  0  0  0  0  0
   58.3840   29.1090   45.1950 C   0  0  0  0  0  0  0  0  0  0  0  0
   57.7440   27.8110   45.6300 C   0  0  0  0  0  0  0  0  0  0  0  0
   58.5440   26.7390   46.0640 C   0  0  0  0  0  0  0  0  0  0  0  0
   57.9580   25.5300   46.4490 C   0  0  0  0  0  0  0  0  0  0  0  0
   56.5700   25.3810   46.4110 C   0  0  0  0  0  0  0  0  0  0  0  0
   55.7620   26.4440   45.9970 C   0  0  0  0  0  0  0  0  0  0  0  0
   54.3810   26.2900   45.9720 O   0  0  0  0  0  0  0  0  0  0  0  0
   56.3430   27.6590   45.6120 C   0  0  0  0  0  0  0  0  0  0  0  0
   55.5250   28.7140   45.2220 O   0  0  0  0  0  0  0  0  0  0  0  0
   58.2415   33.0911   48.9262 H   0  0  0  0  0  0  0  0  0  0  0  0
   59.8229   32.6605   48.1911 H   0  0  0  0  0  0  0  0  0  0  0  0
   59.2679   34.3689   48.1911 H   0  0  0  0  0  0  0  0  0  0  0  0
   57.6455   30.6833   43.5973 H   0  0  0  0  0  0  0  0  0  0  0  0
   56.8376   32.1256   42.8946 H   0  0  0  0  0  0  0  0  0  0  0  0
   58.6302   32.0112   42.8946 H   0  0  0  0  0  0  0  0  0  0  0  0
   60.0940   30.9940   44.9000 H   0  0  0  0  0  0  0  0  0  0  0  0
   60.3889   31.3862   46.6509 H   0  0  0  0  0  0  0  0  0  0  0  0
   58.1219   30.7541   47.8452 H   0  0  0  0  0  0  0  0  0  0  0  0
   57.5631   29.0413   47.4726 H   0  0  0  0  0  0  0  0  0  0  0  0
   60.0578   27.5248   47.6459 H   0  0  0  0  0  0  0  0  0  0  0  0
   61.3581   26.6177   49.5694 H   0  0  0  0  0  0  0  0  0  0  0  0
   62.1230   28.2550   52.5070 H   0  0  0  0  0  0  0  0  0  0  0  0
   59.9410   29.8520   52.0628 H   0  0  0  0  0  0  0  0  0  0  0  0
   57.5971   29.8005   44.8595 H   0  0  0  0  0  0  0  0  0  0  0  0
   59.0876   28.8898   44.3783 H   0  0  0  0  0  0  0  0  0  0  0  0
   59.6375   26.8527   46.1007 H   0  0  0  0  0  0  0  0  0  0  0  0
   58.5911   24.6945   46.7825 H   0  0  0  0  0  0  0  0  0  0  0  0
   56.1118   24.4258   46.7072 H   0  0  0  0  0  0  0  0  0  0  0  0
  1  2  1  0
  2  3  2  0
  3  4  1  0
  4  5  1  0
  5  6  1  0
  5  7  2  0
  7  8  1  0
  8  9  1  0
  9 10  1  0
 10 11  1  0
 11 12  2  0
 12 13  1  0
 13 14  2  0
 14 15  1  0
 14 16  1  0
 16 17  2  0
 17 18  1  0
  9 19  1  0
 19 20  1  0
 20 21  2  0
 21 22  1  0
 22 23  2  0
 23 24  1  0
 24 25  1  0
 24 26  2  0
 26 27  1  0
  7  2  1  0
 17 11  1  0
 26 20  1  0
  1 28  1  0
  1 29  1  0
  1 30  1  0
  6 31  1  0
  6 32  1  0
  6 33  1  0
  8 34  1  0
  8 35  1  0
 10 36  1  0
 10 37  1  0
 12 38  1  0
 13 39  1  0
 15 40  1  0
 16 41  1  0
 19 42  1  0
 19 43  1  0
 21 44  1  0
 22 45  1  0
 23 46  1  0
M  CHG  2  25  -1  27  -1
M  END
>  <UniqueID>  (20) 
17

>  <SMILES>  (20) 
Cc1noc(C)c1CN(Cc1ccc(O)cc1F)Cc1cccc([O-])c1[O-]

>  <Energy>  (20) 
82.48232018888675

>  <Genealogy>  (20) 
Cc1noc(C)c1CN(Cc1ccc(O)cc1F)Cc1cccc([O-])c1[O-] (protonated)
Cc1noc(C)c1CN(Cc1ccc(O)cc1F)Cc1cccc([O-])c1[O-] (3D coordinates assigned)
Cc1noc(C)c1CN(Cc1ccc(O)cc1F)Cc1cccc([O-])c1[O-] (optimized conformer: 82.48232018888675 kcal/mol)

>  <smiles>  (20) 
Cc1noc(C)c1CN(Cc1ccc(O)cc1F)Cc1cccc(O)c1O

>  <score_type>  (20) 
oracle

>  <origin>  (20) 
adg

>  <m_score__min__energy>  (20) 
-14.75

>  <m_primary>  (20) 
energy

$$$$
20:0
     RDKit          3D

 56 58  0  0  0  0  0  0  0  0999 V2000
   58.2500   30.2940   44.1290 C   0  0  0  0  0  0  0  0  0  0  0  0
   57.3680   31.2740   44.8440 C   0  0  0  0  0  0  0  0  0  0  0  0
   56.1300   31.2510   44.6020 O   0  0  0  0  0  0  0  0  0  0  0  0
   57.9110   32.2590   45.8170 C   0  0  0  0  0  0  0  0  0  0  0  0
   57.9250   33.6300   45.4980 C   0  0  0  0  0  0  0  0  0  0  0  0
   58.4370   34.5660   46.3990 C   0  0  0  0  0  0  0  0  0  0  0  0
   58.9400   34.1490   47.6320 C   0  0  0  0  0  0  0  0  0  0  0  0
   58.9370   32.7900   47.9750 C   0  0  0  0  0  0  0  0  0  0  0  0
   59.4510   32.3630   49.2530 N   0  0  0  0  0  0  0  0  0  0  0  0
   60.6670   32.9960   49.7830 C   0  0  0  0  0  0  0  0  0  0  0  0
   61.7720   32.9510   48.7610 C   0  0  0  0  0  0  0  0  0  0  0  0
   62.3980   34.1380   48.3460 C   0  0  0  0  0  0  0  0  0  0  0  0
   63.4000   34.1030   47.3710 C   0  0  0  0  0  0  0  0  0  0  0  0
   63.7820   32.8850   46.8020 C   0  0  0  0  0  0  0  0  0  0  0  0
   63.1590   31.7010   47.2050 C   0  0  0  0  0  0  0  0  0  0  0  0
   62.1560   31.7310   48.1790 C   0  0  0  0  0  0  0  0  0  0  0  0
   58.9310   31.1710   49.8810 C   0  0  0  0  0  0  0  0  0  0  0  0
   58.1530   31.2750   50.8690 O   0  0  0  0  0  0  0  0  0  0  0  0
   59.2900   29.8190   49.3900 C   0  0  0  0  0  0  0  0  0  0  0  0
   60.3680   29.1150   49.9510 C   0  0  0  0  0  0  0  0  0  0  0  0
   60.6860   27.8340   49.4990 C   0  0  0  0  0  0  0  0  0  0  0  0
   59.9450   27.2480   48.4700 C   0  0  0  0  0  0  0  0  0  0  0  0
   58.8900   27.9490   47.8690 C   0  0  0  0  0  0  0  0  0  0  0  0
   58.1320   27.3170   46.8230 N   0  0  0  0  0  0  0  0  0  0  0  0
   58.6930   26.8820   45.5740 C   0  0  0  0  0  0  0  0  0  0  0  0
   59.9420   26.8620   45.4030 O   0  0  0  0  0  0  0  0  0  0  0  0
   57.7960   26.3620   44.4880 C   0  0  0  0  0  0  0  0  0  0  0  0
   56.8970   25.2280   44.9920 C   0  0  0  0  0  0  0  0  0  0  0  0
   56.0490   25.6650   46.1470 C   0  0  0  0  0  0  0  0  0  0  0  0
   56.1100   25.0520   47.2460 O   0  0  0  0  0  0  0  0  0  0  0  0
   55.1580   26.7200   45.9970 O   0  0  0  0  0  0  0  0  0  0  0  0
   58.5570   29.2310   48.3430 C   0  0  0  0  0  0  0  0  0  0  0  0
   58.4230   31.8500   47.0650 C   0  0  0  0  0  0  0  0  0  0  0  0
   58.7964   29.6869   44.8659 H   0  0  0  0  0  0  0  0  0  0  0  0
   57.6327   29.6373   43.4984 H   0  0  0  0  0  0  0  0  0  0  0  0
   58.9678   30.8390   43.4984 H   0  0  0  0  0  0  0  0  0  0  0  0
   57.5285   33.9675   44.5290 H   0  0  0  0  0  0  0  0  0  0  0  0
   58.4438   35.6341   46.1362 H   0  0  0  0  0  0  0  0  0  0  0  0
   59.3410   34.8907   48.3385 H   0  0  0  0  0  0  0  0  0  0  0  0
   60.4492   34.0444   50.0350 H   0  0  0  0  0  0  0  0  0  0  0  0
   60.9903   32.4499   50.6815 H   0  0  0  0  0  0  0  0  0  0  0  0
   62.0989   35.0991   48.7897 H   0  0  0  0  0  0  0  0  0  0  0  0
   63.8882   35.0355   47.0515 H   0  0  0  0  0  0  0  0  0  0  0  0
   64.5725   32.8585   46.0375 H   0  0  0  0  0  0  0  0  0  0  0  0
   63.4583   30.7429   46.7550 H   0  0  0  0  0  0  0  0  0  0  0  0
   61.6661   30.7967   48.4905 H   0  0  0  0  0  0  0  0  0  0  0  0
   60.9651   29.5763   50.7514 H   0  0  0  0  0  0  0  0  0  0  0  0
   61.5227   27.2838   49.9542 H   0  0  0  0  0  0  0  0  0  0  0  0
   60.1905   26.2313   48.1295 H   0  0  0  0  0  0  0  0  0  0  0  0
   57.1370   27.0660   47.0240 H   0  0  0  0  0  0  0  0  0  0  0  0
   57.1626   27.1845   44.1241 H   0  0  0  0  0  0  0  0  0  0  0  0
   58.4287   25.9656   43.6802 H   0  0  0  0  0  0  0  0  0  0  0  0
   56.2410   24.9016   44.1715 H   0  0  0  0  0  0  0  0  0  0  0  0
   57.5420   24.4045   45.3323 H   0  0  0  0  0  0  0  0  0  0  0  0
   57.7165   29.7782   47.8912 H   0  0  0  0  0  0  0  0  0  0  0  0
   58.4203   30.7824   47.3300 H   0  0  0  0  0  0  0  0  0  0  0  0
  1  2  1  0
  2  3  2  0
  2  4  1  0
  4  5  2  0
  5  6  1  0
  6  7  2  0
  7  8  1  0
  8  9  1  0
  9 10  1  0
 10 11  1  0
 11 12  2  0
 12 13  1  0
 13 14  2  0
 14 15  1  0
 15 16  2  0
  9 17  1  0
 17 18  2  0
 17 19  1  0
 19 20  2  0
 20 21  1  0
 21 22  2  0
 22 23  1  0
 23 24  1  0
 24 25  1  0
 25 26  2  0
 25 27  1  0
 27 28  1  0
 28 29  1  0
 29 30  2  0
 29 31  1  0
 23 32  2  0
  8 33  2  0
 33  4  1  0
 16 11  1  0
 32 19  1  0
  1 34  1  0
  1 35  1  0
  1 36  1  0
  5 37  1  0
  6 38  1  0
  7 39  1  0
 10 40  1  0
 10 41  1  0
 12 42  1  0
 13 43  1  0
 14 44  1  0
 15 45  1  0
 16 46  1  0
 20 47  1  0
 21 48  1  0
 22 49  1  0
 24 50  1  0
 27 51  1  0
 27 52  1  0
 28 53  1  0
 28 54  1  0
 32 55  1  0
 33 56  1  0
M  CHG  1  31  -1
M  END
>  <UniqueID>  (21) 
18

>  <SMILES>  (21) 
CC(=O)c1cccc(N(Cc2ccccc2)C(=O)c2cccc(NC(=O)CCC(=O)[O-])c2)c1

>  <Energy>  (21) 
64.72232895826626

>  <Genealogy>  (21) 
CC(=O)c1cccc(N(Cc2ccccc2)C(=O)c2cccc(NC(=O)CCC(=O)[O-])c2)c1 (protonated)
CC(=O)c1cccc(N(Cc2ccccc2)C(=O)c2cccc(NC(=O)CCC(=O)[O-])c2)c1 (3D coordinates assigned)
CC(=O)c1cccc(N(Cc2ccccc2)C(=O)c2cccc(NC(=O)CCC(=O)[O-])c2)c1 (optimized conformer: 64.72232895826626 kcal/mol)

>  <smiles>  (21) 
CC(=O)c1cccc(N(Cc2ccccc2)C(=O)c2cccc(NC(=O)CCC(=O)O)c2)c1

>  <score_type>  (21) 
oracle

>  <origin>  (21) 
adg

>  <m_score__min__energy>  (21) 
-14.41

>  <m_primary>  (21) 
energy

$$$$
21:0
     RDKit          3D

 44 46  0  0  0  0  0  0  0  0999 V2000
   55.2600   31.1630   52.2780 C   0  0  0  0  0  0  0  0  0  0  0  0
   56.6880   30.8830   51.9200 C   0  0  0  0  0  0  0  0  0  0  0  0
   57.0440   29.6930   51.7180 O   0  0  0  0  0  0  0  0  0  0  0  0
   57.6720   31.9240   51.8400 N   0  0  0  0  0  0  0  0  0  0  0  0
   58.5210   32.2100   50.7200 C   0  0  0  0  0  0  0  0  0  0  0  0
   59.2710   33.3920   50.7220 C   0  0  0  0  0  0  0  0  0  0  0  0
   60.1280   33.6860   49.6580 C   0  0  0  0  0  0  0  0  0  0  0  0
   60.2460   32.7960   48.5870 C   0  0  0  0  0  0  0  0  0  0  0  0
   59.5120   31.6050   48.5750 C   0  0  0  0  0  0  0  0  0  0  0  0
   59.6750   30.7240   47.4970 O   0  0  0  0  0  0  0  0  0  0  0  0
   58.7940   30.5840   46.4120 C   0  0  0  0  0  0  0  0  0  0  0  0
   58.5850   31.6390   45.5060 C   0  0  0  0  0  0  0  0  0  0  0  0
   57.6850   31.5010   44.4500 C   0  0  0  0  0  0  0  0  0  0  0  0
   56.9820   30.3000   44.2650 C   0  0  0  0  0  0  0  0  0  0  0  0
   56.0460   30.1580   43.1810 N   0  0  0  0  0  0  0  0  0  0  0  0
   56.3740   30.4560   42.0130 O   0  0  0  0  0  0  0  0  0  0  0  0
   54.7710   29.6930   43.4130 O   0  0  0  0  0  0  0  0  0  0  0  0
   57.2140   29.2330   45.1490 C   0  0  0  0  0  0  0  0  0  0  0  0
   58.1330   29.3550   46.2060 C   0  0  0  0  0  0  0  0  0  0  0  0
   58.3590   28.1940   47.1020 C   0  0  0  0  0  0  0  0  0  0  0  0
   59.4410   28.1160   47.7420 O   0  0  0  0  0  0  0  0  0  0  0  0
   57.4010   27.1360   47.2420 N   0  0  0  0  0  0  0  0  0  0  0  0
   57.2240   26.0230   46.3510 C   0  0  0  0  0  0  0  0  0  0  0  0
   58.2800   25.1410   46.0580 C   0  0  0  0  0  0  0  0  0  0  0  0
   58.0750   24.0620   45.1940 C   0  0  0  0  0  0  0  0  0  0  0  0
   56.8240   23.8600   44.6060 C   0  0  0  0  0  0  0  0  0  0  0  0
   56.5690   22.5040   43.5240 Cl  0  0  0  0  0  0  0  0  0  0  0  0
   55.7770   24.7480   44.8740 C   0  0  0  0  0  0  0  0  0  0  0  0
   55.9760   25.8300   45.7390 C   0  0  0  0  0  0  0  0  0  0  0  0
   54.9260   26.7030   45.9990 O   0  0  0  0  0  0  0  0  0  0  0  0
   58.6720   31.2990   49.6610 C   0  0  0  0  0  0  0  0  0  0  0  0
   55.1537   31.1838   53.3727 H   0  0  0  0  0  0  0  0  0  0  0  0
   54.9619   32.1367   51.8621 H   0  0  0  0  0  0  0  0  0  0  0  0
   54.6162   30.3740   51.8621 H   0  0  0  0  0  0  0  0  0  0  0  0
   59.1853   34.0930   51.5654 H   0  0  0  0  0  0  0  0  0  0  0  0
   60.7104   34.6191   49.6635 H   0  0  0  0  0  0  0  0  0  0  0  0
   60.9189   33.0329   47.7497 H   0  0  0  0  0  0  0  0  0  0  0  0
   59.1369   32.5822   45.6316 H   0  0  0  0  0  0  0  0  0  0  0  0
   57.5246   32.3397   43.7565 H   0  0  0  0  0  0  0  0  0  0  0  0
   56.6683   28.2877   45.0121 H   0  0  0  0  0  0  0  0  0  0  0  0
   59.2699   25.3011   46.5103 H   0  0  0  0  0  0  0  0  0  0  0  0
   58.9014   23.3694   44.9762 H   0  0  0  0  0  0  0  0  0  0  0  0
   54.7945   24.5954   44.4035 H   0  0  0  0  0  0  0  0  0  0  0  0
   58.1306   30.3417   49.6813 H   0  0  0  0  0  0  0  0  0  0  0  0
  1  2  1  0
  2  3  2  0
  2  4  1  0
  4  5  1  0
  5  6  2  0
  6  7  1  0
  7  8  2  0
  8  9  1  0
  9 10  1  0
 10 11  1  0
 11 12  2  0
 12 13  1  0
 13 14  2  0
 14 15  1  0
 15 16  2  0
 15 17  1  0
 14 18  1  0
 18 19  2  0
 19 20  1  0
 20 21  2  0
 20 22  1  0
 22 23  1  0
 23 24  2  0
 24 25  1  0
 25 26  2  0
 26 27  1  0
 26 28  1  0
 28 29  2  0
 29 30  1  0
  9 31  2  0
 31  5  1  0
 19 11  1  0
 29 23  1  0
  1 32  1  0
  1 33  1  0
  1 34  1  0
  6 35  1  0
  7 36  1  0
  8 37  1  0
 12 38  1  0
 13 39  1  0
 18 40  1  0
 24 41  1  0
 25 42  1  0
 28 43  1  0
 31 44  1  0
M  CHG  5   4  -1  15   1  17  -1  22  -1  30  -1
M  END
>  <UniqueID>  (22) 
19

>  <SMILES>  (22) 
CC(=O)[N-]c1cccc(Oc2ccc([N+](=O)[O-])cc2C(=O)[N-]c2ccc(Cl)cc2[O-])c1

>  <Energy>  (22) 
63.9693125989883

>  <Genealogy>  (22) 
CC(=O)[N-]c1cccc(Oc2ccc([N+](=O)[O-])cc2C(=O)[N-]c2ccc(Cl)cc2[O-])c1 (protonated)
CC(=O)[N-]c1cccc(Oc2ccc([N+](=O)[O-])cc2C(=O)[N-]c2ccc(Cl)cc2[O-])c1 (3D coordinates assigned)
CC(=O)[N-]c1cccc(Oc2ccc([N+](=O)[O-])cc2C(=O)[N-]c2ccc(Cl)cc2[O-])c1 (optimized conformer: 63.9693125989883 kcal/mol)

>  <smiles>  (22) 
CC(=O)Nc1cccc(Oc2ccc([N+](=O)[O-])cc2C(=O)Nc2ccc(Cl)cc2O)c1

>  <score_type>  (22) 
oracle

>  <origin>  (22) 
adg

>  <m_score__min__energy>  (22) 
-15.08

>  <m_primary>  (22) 
energy

$$$$
22:0
     RDKit          3D

 39 41  0  0  0  0  0  0  0  0999 V2000
   56.1830   31.1640   44.6170 O   0  0  0  0  0  0  0  0  0  0  0  0
   57.2250   31.8590   44.7500 C   0  0  0  0  0  0  0  0  0  0  0  0
   57.1020   33.2920   45.2000 C   0  0  0  0  0  0  0  0  0  0  0  0
   58.1220   33.6490   46.2530 C   0  0  0  0  0  0  0  0  0  0  0  0
   58.1820   32.9310   47.4610 C   0  0  0  0  0  0  0  0  0  0  0  0
   59.1370   33.2550   48.4300 C   0  0  0  0  0  0  0  0  0  0  0  0
   60.0490   34.2880   48.1970 C   0  0  0  0  0  0  0  0  0  0  0  0
   60.9960   34.6090   49.1610 O   0  0  0  0  0  0  0  0  0  0  0  0
   60.0100   34.9950   46.9920 C   0  0  0  0  0  0  0  0  0  0  0  0
   59.0580   34.6730   46.0210 C   0  0  0  0  0  0  0  0  0  0  0  0
   58.5000   31.2280   44.5780 N   0  0  0  0  0  0  0  0  0  0  0  0
   58.8440   29.9150   45.0360 C   0  0  0  0  0  0  0  0  0  0  0  0
   59.8830   29.7230   45.9590 C   0  0  0  0  0  0  0  0  0  0  0  0
   60.2110   28.4350   46.3880 C   0  0  0  0  0  0  0  0  0  0  0  0
   59.5220   27.3310   45.8810 C   0  0  0  0  0  0  0  0  0  0  0  0
   58.5130   27.5070   44.9210 C   0  0  0  0  0  0  0  0  0  0  0  0
   57.7520   26.3210   44.3940 C   0  0  0  0  0  0  0  0  0  0  0  0
   57.2210   25.5050   45.5310 C   0  0  0  0  0  0  0  0  0  0  0  0
   57.8530   24.4450   46.1450 C   0  0  0  0  0  0  0  0  0  0  0  0
   57.0180   24.0710   47.1820 C   0  0  0  0  0  0  0  0  0  0  0  0
   57.2700   23.0290   48.0660 O   0  0  0  0  0  0  0  0  0  0  0  0
   55.9150   24.8420   47.2500 N   0  0  0  0  0  0  0  0  0  0  0  0
   56.0550   25.7200   46.2390 C   0  0  0  0  0  0  0  0  0  0  0  0
   55.1280   26.7180   45.9640 O   0  0  0  0  0  0  0  0  0  0  0  0
   58.1790   28.8060   44.5020 C   0  0  0  0  0  0  0  0  0  0  0  0
   57.2458   33.9499   44.3302 H   0  0  0  0  0  0  0  0  0  0  0  0
   56.1025   33.4227   45.6404 H   0  0  0  0  0  0  0  0  0  0  0  0
   57.4736   32.1098   47.6447 H   0  0  0  0  0  0  0  0  0  0  0  0
   59.1703   32.6960   49.3768 H   0  0  0  0  0  0  0  0  0  0  0  0
   60.7298   35.8061   46.8077 H   0  0  0  0  0  0  0  0  0  0  0  0
   59.0405   35.2239   45.0691 H   0  0  0  0  0  0  0  0  0  0  0  0
   60.4405   30.5888   46.3457 H   0  0  0  0  0  0  0  0  0  0  0  0
   61.0133   28.2898   47.1264 H   0  0  0  0  0  0  0  0  0  0  0  0
   59.7709   26.3198   46.2353 H   0  0  0  0  0  0  0  0  0  0  0  0
   56.9131   26.6725   43.7753 H   0  0  0  0  0  0  0  0  0  0  0  0
   58.4280   25.6990   43.7889 H   0  0  0  0  0  0  0  0  0  0  0  0
   58.8169   23.9926   45.8688 H   0  0  0  0  0  0  0  0  0  0  0  0
   58.1490   22.9700   48.5650 H   0  0  0  0  0  0  0  0  0  0  0  0
   57.3899   28.9518   43.7496 H   0  0  0  0  0  0  0  0  0  0  0  0
  1  2  2  0
  2  3  1  0
  3  4  1  0
  4  5  2  0
  5  6  1  0
  6  7  2  0
  7  8  1  0
  7  9  1  0
  9 10  2  0
  2 11  1  0
 11 12  1  0
 12 13  2  0
 13 14  1  0
 14 15  2  0
 15 16  1  0
 16 17  1  0
 17 18  1  0
 18 19  1  0
 19 20  2  0
 20 21  1  0
 20 22  1  0
 22 23  1  0
 23 24  1  0
 16 25  2  0
 10  4  1  0
 25 12  1  0
 23 18  2  0
  3 26  1  0
  3 27  1  0
  5 28  1  0
  6 29  1  0
  9 30  1  0
 10 31  1  0
 13 32  1  0
 14 33  1  0
 15 34  1  0
 17 35  1  0
 17 36  1  0
 19 37  1  0
 21 38  1  0
 25 39  1  0
M  CHG  4   8  -1  11  -1  22  -1  24  -1
M  END
>  <UniqueID>  (23) 
20

>  <SMILES>  (23) 
O=C(Cc1ccc([O-])cc1)[N-]c1cccc(Cc2cc(O)[n-]c2[O-])c1

>  <Energy>  (23) 
69.83230287855505

>  <Genealogy>  (23) 
O=C(Cc1ccc([O-])cc1)[N-]c1cccc(Cc2cc(O)[n-]c2[O-])c1 (protonated)
O=C(Cc1ccc([O-])cc1)[N-]c1cccc(Cc2cc(O)[n-]c2[O-])c1 (3D coordinates assigned)
O=C(Cc1ccc([O-])cc1)[N-]c1cccc(Cc2cc(O)[n-]c2[O-])c1 (optimized conformer: 69.83230287855505 kcal/mol)

>  <smiles>  (23) 
O=C(Cc1ccc(O)cc1)Nc1cccc(Cc2cc(O)[nH]c2O)c1

>  <score_type>  (23) 
oracle

>  <origin>  (23) 
adg

>  <m_score__min__energy>  (23) 
-16.199999999999999

>  <m_primary>  (23) 
energy

$$$$
23:0
     RDKit          3D

 42 44  0  0  0  0  0  0  0  0999 V2000
   59.2772   34.2577   52.5203 H   0  0  0  0  0  0  0  0  0  0  0  0
   59.0630   33.3060   52.0120 C   0  0  0  0  0  0  0  0  0  0  0  0
   59.7480   32.7840   50.5670 S   0  0  0  0  0  0  0  0  0  0  0  0
   58.9220   31.3220   50.4750 C   0  0  0  0  0  0  0  0  0  0  0  0
   59.1220   30.3020   49.4330 C   0  0  0  0  0  0  0  0  0  0  0  0
   58.4620   29.2270   49.4760 O   0  0  0  0  0  0  0  0  0  0  0  0
   60.0500   30.5360   48.3660 N   0  0  0  0  0  0  0  0  0  0  0  0
   60.2490   29.6210   47.2530 C   0  0  0  0  0  0  0  0  0  0  0  0
   61.0000   30.0373   46.5655 H   0  0  0  0  0  0  0  0  0  0  0  0
   60.5996   28.6503   47.6336 H   0  0  0  0  0  0  0  0  0  0  0  0
   58.9510   29.4340   46.5230 C   0  0  0  0  0  0  0  0  0  0  0  0
   58.2750   28.2000   46.5760 C   0  0  0  0  0  0  0  0  0  0  0  0
   58.7247   27.3523   47.1138 H   0  0  0  0  0  0  0  0  0  0  0  0
   57.0300   28.0460   45.9460 C   0  0  0  0  0  0  0  0  0  0  0  0
   56.5043   27.0809   45.9935 H   0  0  0  0  0  0  0  0  0  0  0  0
   56.4590   29.1210   45.2580 C   0  0  0  0  0  0  0  0  0  0  0  0
   55.2240   28.9660   44.6300 O   0  0  0  0  0  0  0  0  0  0  0  0
   57.1260   30.3520   45.2040 C   0  0  0  0  0  0  0  0  0  0  0  0
   56.6791   31.1951   44.6568 H   0  0  0  0  0  0  0  0  0  0  0  0
   58.3540   30.5100   45.8420 C   0  0  0  0  0  0  0  0  0  0  0  0
   58.8616   31.4854   45.8130 H   0  0  0  0  0  0  0  0  0  0  0  0
   58.1030   31.2180   51.5960 C   0  0  0  0  0  0  0  0  0  0  0  0
   57.2990   30.1030   51.8420 O   0  0  0  0  0  0  0  0  0  0  0  0
   55.9410   30.1320   51.6070 N   0  0  0  0  0  0  0  0  0  0  0  0
   55.0600   30.0130   52.5580 C   0  0  0  0  0  0  0  0  0  0  0  0
   53.7570   30.7220   52.4200 C   0  0  0  0  0  0  0  0  0  0  0  0
   52.8810   30.8590   53.5160 C   0  0  0  0  0  0  0  0  0  0  0  0
   53.1556   30.4251   54.4888 H   0  0  0  0  0  0  0  0  0  0  0  0
   51.6670   31.5400   53.3810 C   0  0  0  0  0  0  0  0  0  0  0  0
   50.9946   31.6422   54.2455 H   0  0  0  0  0  0  0  0  0  0  0  0
   51.3080   32.0910   52.1470 C   0  0  0  0  0  0  0  0  0  0  0  0
   50.1010   32.7720   52.0150 O   0  0  0  0  0  0  0  0  0  0  0  0
   52.1620   31.9550   51.0510 C   0  0  0  0  0  0  0  0  0  0  0  0
   51.8763   32.3822   50.0784 H   0  0  0  0  0  0  0  0  0  0  0  0
   53.3780   31.2790   51.1830 C   0  0  0  0  0  0  0  0  0  0  0  0
   54.0447   31.1811   50.3136 H   0  0  0  0  0  0  0  0  0  0  0  0
   55.3270   29.1150   53.7400 C   0  0  0  0  0  0  0  0  0  0  0  0
   55.1603   29.6757   54.6715 H   0  0  0  0  0  0  0  0  0  0  0  0
   54.6468   28.2512   53.7053 H   0  0  0  0  0  0  0  0  0  0  0  0
   56.3686   28.7631   53.7053 H   0  0  0  0  0  0  0  0  0  0  0  0
   58.1800   32.3280   52.4530 C   0  0  0  0  0  0  0  0  0  0  0  0
   57.5981   32.4147   53.3825 H   0  0  0  0  0  0  0  0  0  0  0  0
  1  2  1  0
  2  3  1  0
  3  4  1  0
  4  5  1  0
  5  6  2  0
  5  7  1  0
  7  8  1  0
  8  9  1  0
  8 10  1  0
  8 11  1  0
 11 12  2  0
 12 13  1  0
 12 14  1  0
 14 15  1  0
 14 16  2  0
 16 17  1  0
 16 18  1  0
 18 19  1  0
 18 20  2  0
 20 21  1  0
  4 22  2  0
 22 23  1  0
 23 24  1  0
 24 25  2  0
 25 26  1  0
 26 27  2  0
 27 28  1  0
 27 29  1  0
 29 30  1  0
 29 31  2  0
 31 32  1  0
 31 33  1  0
 33 34  1  0
 33 35  2  0
 35 36  1  0
 25 37  1  0
 37 38  1  0
 37 39  1  0
 37 40  1  0
 22 41  1  0
 41 42  1  0
 41  2  2  0
 20 11  1  0
 35 26  1  0
M  CHG  3   7  -1  17  -1  32  -1
M  END
>  <UniqueID>  (24) 
21

>  <SMILES>  (24) 
C/C(=N\Oc1ccsc1C(=O)[N-]Cc1ccc([O-])cc1)c1ccc([O-])cc1

>  <Energy>  (24) 
69.43067658812684

>  <Genealogy>  (24) 
CC(=NOc1ccsc1C(=O)[N-]Cc1ccc([O-])cc1)c1ccc([O-])cc1 (protonated)
C/C(=N\Oc1ccsc1C(=O)[N-]Cc1ccc([O-])cc1)c1ccc([O-])cc1 (cis-trans isomerization)
C/C(=N\Oc1ccsc1C(=O)[N-]Cc1ccc([O-])cc1)c1ccc([O-])cc1 (3D coordinates assigned)
C/C(=N\Oc1ccsc1C(=O)[N-]Cc1ccc([O-])cc1)c1ccc([O-])cc1 (optimized conformer: 69.43067658812684 kcal/mol)

>  <smiles>  (24) 
CC(=NOc1ccsc1C(=O)NCc1ccc(O)cc1)c1ccc(O)cc1

>  <score_type>  (24) 
oracle

>  <origin>  (24) 
adg

>  <m_score__min__energy>  (24) 
-15.76

>  <m_primary>  (24) 
energy

$$$$
24:0
     RDKit          3D

 53 56  0  0  0  0  0  0  0  0999 V2000
   55.6450   26.8370   46.0300 N   0  0  0  0  0  0  0  0  0  0  0  0
   57.0700   26.6910   46.0150 C   0  0  0  0  0  0  0  0  0  0  0  0
   57.6640   25.7290   46.8490 C   0  0  0  0  0  0  0  0  0  0  0  0
   59.0550   25.6260   46.9340 C   0  0  0  0  0  0  0  0  0  0  0  0
   59.8650   26.4900   46.1960 C   0  0  0  0  0  0  0  0  0  0  0  0
   59.2880   27.4400   45.3500 C   0  0  0  0  0  0  0  0  0  0  0  0
   57.8960   27.5260   45.2220 C   0  0  0  0  0  0  0  0  0  0  0  0
   57.3580   28.4630   44.2770 N   0  0  0  0  0  0  0  0  0  0  0  0
   56.6200   29.6490   44.6100 C   0  0  0  0  0  0  0  0  0  0  0  0
   55.3640   29.5830   44.6740 O   0  0  0  0  0  0  0  0  0  0  0  0
   57.2930   30.9400   44.8730 C   0  0  0  0  0  0  0  0  0  0  0  0
   57.2860   31.9470   43.8960 C   0  0  0  0  0  0  0  0  0  0  0  0
   57.9860   33.1390   44.1050 C   0  0  0  0  0  0  0  0  0  0  0  0
   58.6850   33.3470   45.3030 C   0  0  0  0  0  0  0  0  0  0  0  0
   59.5170   34.5850   45.5020 C   0  0  0  0  0  0  0  0  0  0  0  0
   60.1850   34.5340   46.8000 N   0  0  0  0  0  0  0  0  0  0  0  0
   61.5230   34.0330   46.9540 C   0  0  0  0  0  0  0  0  0  0  0  0
   62.2270   33.8060   45.9320 O   0  0  0  0  0  0  0  0  0  0  0  0
   62.0770   33.7730   48.3000 C   0  0  0  0  0  0  0  0  0  0  0  0
   63.4440   33.5200   48.4860 C   0  0  0  0  0  0  0  0  0  0  0  0
   63.9290   33.2800   49.7730 C   0  0  0  0  0  0  0  0  0  0  0  0
   65.1570   33.0660   49.9530 O   0  0  0  0  0  0  0  0  0  0  0  0
   63.0540   33.2860   50.8610 C   0  0  0  0  0  0  0  0  0  0  0  0
   61.6860   33.5300   50.6480 C   0  0  0  0  0  0  0  0  0  0  0  0
   60.7120   33.5640   51.7700 C   0  0  0  0  0  0  0  0  0  0  0  0
   61.1680   33.4240   53.0950 C   0  0  0  0  0  0  0  0  0  0  0  0
   60.2660   33.4510   54.1630 C   0  0  0  0  0  0  0  0  0  0  0  0
   58.9020   33.6280   53.9240 C   0  0  0  0  0  0  0  0  0  0  0  0
   58.4380   33.7820   52.6170 C   0  0  0  0  0  0  0  0  0  0  0  0
   59.3340   33.7540   51.5450 C   0  0  0  0  0  0  0  0  0  0  0  0
   61.2470   33.7710   49.3800 N   0  0  0  0  0  0  0  0  0  0  0  0
   58.6570   32.3590   46.2980 C   0  0  0  0  0  0  0  0  0  0  0  0
   57.9620   31.1660   46.0860 C   0  0  0  0  0  0  0  0  0  0  0  0
   55.0660   26.3220   46.7300 H   0  0  0  0  0  0  0  0  0  0  0  0
   55.1580   27.5280   45.4190 H   0  0  0  0  0  0  0  0  0  0  0  0
   57.0294   25.0518   47.4395 H   0  0  0  0  0  0  0  0  0  0  0  0
   59.5115   24.8638   47.5827 H   0  0  0  0  0  0  0  0  0  0  0  0
   60.9597   26.4228   46.2806 H   0  0  0  0  0  0  0  0  0  0  0  0
   59.9319   28.1259   44.7799 H   0  0  0  0  0  0  0  0  0  0  0  0
   56.7268   31.7978   42.9606 H   0  0  0  0  0  0  0  0  0  0  0  0
   57.9886   33.9166   43.3270 H   0  0  0  0  0  0  0  0  0  0  0  0
   60.2729   34.6479   44.7054 H   0  0  0  0  0  0  0  0  0  0  0  0
   58.8635   35.4691   45.4665 H   0  0  0  0  0  0  0  0  0  0  0  0
   59.6430   34.8340   47.6420 H   0  0  0  0  0  0  0  0  0  0  0  0
   64.1284   33.5108   47.6249 H   0  0  0  0  0  0  0  0  0  0  0  0
   63.4322   33.1012   51.8773 H   0  0  0  0  0  0  0  0  0  0  0  0
   62.2423   33.2924   53.2913 H   0  0  0  0  0  0  0  0  0  0  0  0
   60.6318   33.3325   55.1936 H   0  0  0  0  0  0  0  0  0  0  0  0
   58.1936   33.6461   54.7653 H   0  0  0  0  0  0  0  0  0  0  0  0
   57.3636   33.9259   52.4300 H   0  0  0  0  0  0  0  0  0  0  0  0
   58.9609   33.8812   50.5181 H   0  0  0  0  0  0  0  0  0  0  0  0
   59.1844   32.5242   47.2491 H   0  0  0  0  0  0  0  0  0  0  0  0
   57.9389   30.3992   46.8743 H   0  0  0  0  0  0  0  0  0  0  0  0
  1  2  1  0
  2  3  2  0
  3  4  1  0
  4  5  2  0
  5  6  1  0
  6  7  2  0
  7  8  1  0
  8  9  1  0
  9 10  2  0
  9 11  1  0
 11 12  2  0
 12 13  1  0
 13 14  2  0
 14 15  1  0
 15 16  1  0
 16 17  1  0
 17 18  2  0
 17 19  1  0
 19 20  2  0
 20 21  1  0
 21 22  2  0
 21 23  1  0
 23 24  2  0
 24 25  1  0
 25 26  2  0
 26 27  1  0
 27 28  2  0
 28 29  1  0
 29 30  2  0
 24 31  1  0
 14 32  1  0
 32 33  2  0
  7  2  1  0
 33 11  1  0
 31 19  1  0
 30 25  1  0
  1 34  1  0
  1 35  1  0
  3 36  1  0
  4 37  1  0
  5 38  1  0
  6 39  1  0
 12 40  1  0
 13 41  1  0
 15 42  1  0
 15 43  1  0
 16 44  1  0
 20 45  1  0
 23 46  1  0
 26 47  1  0
 27 48  1  0
 28 49  1  0
 29 50  1  0
 30 51  1  0
 32 52  1  0
 33 53  1  0
M  CHG  2   8  -1  31  -1
M  END
>  <UniqueID>  (25) 
22

>  <SMILES>  (25) 
Nc1ccccc1[N-]C(=O)c1ccc(CNC(=O)c2cc(=O)cc(-c3ccccc3)[n-]2)cc1

>  <Energy>  (25) 
69.0858714658328

>  <Genealogy>  (25) 
Nc1ccccc1[N-]C(=O)c1ccc(CNC(=O)c2cc(=O)cc(-c3ccccc3)[n-]2)cc1 (protonated)
Nc1ccccc1[N-]C(=O)c1ccc(CNC(=O)c2cc(=O)cc(-c3ccccc3)[n-]2)cc1 (3D coordinates assigned)
Nc1ccccc1[N-]C(=O)c1ccc(CNC(=O)c2cc(=O)cc(-c3ccccc3)[n-]2)cc1 (optimized conformer: 69.0858714658328 kcal/mol)

>  <smiles>  (25) 
Nc1ccccc1NC(=O)c1ccc(CNC(=O)c2cc(=O)cc(-c3ccccc3)[nH]2)cc1

>  <score_type>  (25) 
oracle

>  <origin>  (25) 
adg

>  <m_score__min__energy>  (25) 
-12.300000000000001

>  <m_primary>  (25) 
energy

$$$$
25:0
     RDKit          3D

 41 43  0  0  0  0  0  0  0  0999 V2000
   55.5960   24.3550   45.0530 C   0  0  0  0  0  0  0  0  0  0  0  0
   55.6800   25.5530   45.9510 C   0  0  0  0  0  0  0  0  0  0  0  0
   54.7410   26.3310   45.9920 O   0  0  0  0  0  0  0  0  0  0  0  0
   56.8940   25.8090   46.8050 C   0  0  0  0  0  0  0  0  0  0  0  0
   57.7590   26.8570   46.1800 C   0  0  0  0  0  0  0  0  0  0  0  0
   57.2160   27.8920   45.4660 N   0  0  0  0  0  0  0  0  0  0  0  0
   58.1790   28.6830   44.9500 C   0  0  0  0  0  0  0  0  0  0  0  0
   57.9730   29.7560   44.2470 N   0  0  0  0  0  0  0  0  0  0  0  0
   57.2220   30.9060   44.6650 C   0  0  0  0  0  0  0  0  0  0  0  0
   55.9670   30.8680   44.5690 O   0  0  0  0  0  0  0  0  0  0  0  0
   57.8560   32.1030   45.2540 C   0  0  0  0  0  0  0  0  0  0  0  0
   57.7690   33.3910   44.7320 C   0  0  0  0  0  0  0  0  0  0  0  0
   58.4220   34.3530   45.5100 C   0  0  0  0  0  0  0  0  0  0  0  0
   59.0030   33.8290   46.6590 C   0  0  0  0  0  0  0  0  0  0  0  0
   59.8340   34.5900   47.6410 C   0  0  0  0  0  0  0  0  0  0  0  0
   61.1870   33.9450   47.7800 C   0  0  0  0  0  0  0  0  0  0  0  0
   62.0360   33.8380   46.6670 C   0  0  0  0  0  0  0  0  0  0  0  0
   63.2700   33.1930   46.7820 C   0  0  0  0  0  0  0  0  0  0  0  0
   63.6650   32.6480   48.0070 C   0  0  0  0  0  0  0  0  0  0  0  0
   62.8300   32.7520   49.1290 C   0  0  0  0  0  0  0  0  0  0  0  0
   63.2370   32.1260   50.4300 C   0  0  0  0  0  0  0  0  0  0  0  0
   61.5820   33.3850   49.0060 C   0  0  0  0  0  0  0  0  0  0  0  0
   58.7170   32.1720   46.7040 S   0  0  0  0  0  0  0  0  0  0  0  0
   59.6660   28.1130   45.4060 S   0  0  0  0  0  0  0  0  0  0  0  0
   59.1190   26.8030   46.2720 N   0  0  0  0  0  0  0  0  0  0  0  0
   55.5320   23.4425   45.6640 H   0  0  0  0  0  0  0  0  0  0  0  0
   54.7012   24.4347   44.4181 H   0  0  0  0  0  0  0  0  0  0  0  0
   56.4931   24.3090   44.4181 H   0  0  0  0  0  0  0  0  0  0  0  0
   56.5720   26.1507   47.7998 H   0  0  0  0  0  0  0  0  0  0  0  0
   57.4708   24.8766   46.8942 H   0  0  0  0  0  0  0  0  0  0  0  0
   57.2383   33.6290   43.7984 H   0  0  0  0  0  0  0  0  0  0  0  0
   58.4708   35.4181   45.2394 H   0  0  0  0  0  0  0  0  0  0  0  0
   59.9582   35.6246   47.2885 H   0  0  0  0  0  0  0  0  0  0  0  0
   59.3304   34.5868   48.6190 H   0  0  0  0  0  0  0  0  0  0  0  0
   61.7284   34.2637   45.7005 H   0  0  0  0  0  0  0  0  0  0  0  0
   63.9319   33.1139   45.9070 H   0  0  0  0  0  0  0  0  0  0  0  0
   64.6346   32.1355   48.0914 H   0  0  0  0  0  0  0  0  0  0  0  0
   62.8462   32.7271   51.2642 H   0  0  0  0  0  0  0  0  0  0  0  0
   62.8286   31.1064   50.4899 H   0  0  0  0  0  0  0  0  0  0  0  0
   64.3346   32.0855   50.4899 H   0  0  0  0  0  0  0  0  0  0  0  0
   60.9101   33.4424   49.8750 H   0  0  0  0  0  0  0  0  0  0  0  0
  1  2  1  0
  2  3  2  0
  2  4  1  0
  4  5  1  0
  5  6  2  0
  6  7  1  0
  7  8  2  3
  8  9  1  0
  9 10  2  0
  9 11  1  0
 11 12  2  0
 12 13  1  0
 13 14  2  0
 14 15  1  0
 15 16  1  0
 16 17  2  0
 17 18  1  0
 18 19  2  0
 19 20  1  0
 20 21  1  0
 20 22  2  0
 14 23  1  0
  7 24  1  0
 24 25  1  0
 25  5  1  0
 23 11  1  0
 22 16  1  0
  1 26  1  0
  1 27  1  0
  1 28  1  0
  4 29  1  0
  4 30  1  0
 12 31  1  0
 13 32  1  0
 15 33  1  0
 15 34  1  0
 17 35  1  0
 18 36  1  0
 19 37  1  0
 21 38  1  0
 21 39  1  0
 21 40  1  0
 22 41  1  0
M  CHG  1  25  -1
M  END
>  <UniqueID>  (26) 
23

>  <SMILES>  (26) 
CC(=O)Cc1nc(=NC(=O)c2ccc(Cc3cccc(C)c3)s2)s[n-]1

>  <Energy>  (26) 
102.45606314732956

>  <Genealogy>  (26) 
CC(=O)Cc1nc(=NC(=O)c2ccc(Cc3cccc(C)c3)s2)s[n-]1 (protonated)
CC(=O)Cc1nc(=NC(=O)c2ccc(Cc3cccc(C)c3)s2)s[n-]1 (3D coordinates assigned)
CC(=O)Cc1nc(=NC(=O)c2ccc(Cc3cccc(C)c3)s2)s[n-]1 (optimized conformer: 102.45606314732956 kcal/mol)

>  <smiles>  (26) 
CC(=O)Cc1nc(=NC(=O)c2ccc(Cc3cccc(C)c3)s2)s[nH]1

>  <score_type>  (26) 
oracle

>  <origin>  (26) 
adg

>  <m_score__min__energy>  (26) 
-11.16

>  <m_primary>  (26) 
energy

$$$$
26:0
     RDKit          3D

 54 57  0  0  0  0  0  0  0  0999 V2000
   55.9890   30.3670   44.8050 O   0  0  0  0  0  0  0  0  0  0  0  0
   57.0590   29.7760   45.1000 C   0  0  0  0  0  0  0  0  0  0  0  0
   58.3100   30.4710   45.0230 N   0  0  0  0  0  0  0  0  0  0  0  0
   58.4440   31.8910   45.1800 C   0  0  0  0  0  0  0  0  0  0  0  0
   59.5240   32.4100   45.9100 C   0  0  0  0  0  0  0  0  0  0  0  0
   59.6490   33.7880   46.1070 C   0  0  0  0  0  0  0  0  0  0  0  0
   58.6930   34.6590   45.5800 C   0  0  0  0  0  0  0  0  0  0  0  0
   57.6100   34.1540   44.8550 C   0  0  0  0  0  0  0  0  0  0  0  0
   57.4810   32.7730   44.6580 C   0  0  0  0  0  0  0  0  0  0  0  0
   57.0220   28.3500   45.4550 C   0  0  0  0  0  0  0  0  0  0  0  0
   55.8800   27.6560   45.6190 N   0  0  0  0  0  0  0  0  0  0  0  0
   56.3120   26.4230   45.9510 C   0  0  0  0  0  0  0  0  0  0  0  0
   55.5250   25.4700   46.1850 O   0  0  0  0  0  0  0  0  0  0  0  0
   57.6530   26.2940   46.0260 N   0  0  0  0  0  0  0  0  0  0  0  0
   58.1020   27.5220   45.7130 C   0  0  0  0  0  0  0  0  0  0  0  0
   59.5510   27.9150   45.7860 C   0  0  0  0  0  0  0  0  0  0  0  0
   60.0560   27.9410   47.2050 C   0  0  0  0  0  0  0  0  0  0  0  0
   60.3600   26.5120   47.9510 S   0  0  0  0  0  0  0  0  0  0  0  0
   60.0090   29.1520   47.9920 N   0  0  0  0  0  0  0  0  0  0  0  0
   58.8550   30.0560   47.9060 C   0  0  0  0  0  0  0  0  0  0  0  0
   59.0690   31.3000   48.7660 C   0  0  0  0  0  0  0  0  0  0  0  0
   59.4500   30.9170   50.1400 N   0  0  0  0  0  0  0  0  0  0  0  0
   59.5360   32.0650   51.0730 C   0  0  0  0  0  0  0  0  0  0  0  0
   60.7770   32.9190   50.8800 C   0  0  0  0  0  0  0  0  0  0  0  0
   61.7350   33.0390   51.9010 C   0  0  0  0  0  0  0  0  0  0  0  0
   62.8720   33.8300   51.7150 C   0  0  0  0  0  0  0  0  0  0  0  0
   63.0590   34.5140   50.5130 C   0  0  0  0  0  0  0  0  0  0  0  0
   62.1090   34.4120   49.4960 C   0  0  0  0  0  0  0  0  0  0  0  0
   60.9700   33.6230   49.6800 C   0  0  0  0  0  0  0  0  0  0  0  0
   60.5870   29.9660   50.2470 C   0  0  0  0  0  0  0  0  0  0  0  0
   61.1210   29.4950   48.8880 C   0  0  0  0  0  0  0  0  0  0  0  0
   59.1520   29.9200   44.7440 H   0  0  0  0  0  0  0  0  0  0  0  0
   60.2775   31.7276   46.3302 H   0  0  0  0  0  0  0  0  0  0  0  0
   60.5008   34.1867   46.6774 H   0  0  0  0  0  0  0  0  0  0  0  0
   58.7924   35.7434   45.7356 H   0  0  0  0  0  0  0  0  0  0  0  0
   56.8586   34.8412   44.4389 H   0  0  0  0  0  0  0  0  0  0  0  0
   56.6239   32.3773   44.0933 H   0  0  0  0  0  0  0  0  0  0  0  0
   60.1453   27.1901   45.2104 H   0  0  0  0  0  0  0  0  0  0  0  0
   59.6503   28.9287   45.3706 H   0  0  0  0  0  0  0  0  0  0  0  0
   58.7152   30.3623   46.8588 H   0  0  0  0  0  0  0  0  0  0  0  0
   57.9651   29.5243   48.2740 H   0  0  0  0  0  0  0  0  0  0  0  0
   59.8698   31.9119   48.3252 H   0  0  0  0  0  0  0  0  0  0  0  0
   58.1312   31.8738   48.8028 H   0  0  0  0  0  0  0  0  0  0  0  0
   58.6507   32.7006   50.9236 H   0  0  0  0  0  0  0  0  0  0  0  0
   59.5881   31.6487   52.0899 H   0  0  0  0  0  0  0  0  0  0  0  0
   61.5891   32.5070   52.8527 H   0  0  0  0  0  0  0  0  0  0  0  0
   63.6203   33.9136   52.5169 H   0  0  0  0  0  0  0  0  0  0  0  0
   63.9559   35.1340   50.3672 H   0  0  0  0  0  0  0  0  0  0  0  0
   62.2565   34.9526   48.5494 H   0  0  0  0  0  0  0  0  0  0  0  0
   60.2192   33.5529   48.8791 H   0  0  0  0  0  0  0  0  0  0  0  0
   61.4054   30.4615   50.7899 H   0  0  0  0  0  0  0  0  0  0  0  0
   60.2152   29.0754   50.7748 H   0  0  0  0  0  0  0  0  0  0  0  0
   61.7172   30.3003   48.4340 H   0  0  0  0  0  0  0  0  0  0  0  0
   61.7453   28.6022   49.0399 H   0  0  0  0  0  0  0  0  0  0  0  0
  1  2  2  0
  2  3  1  0
  3  4  1  0
  4  5  2  0
  5  6  1  0
  6  7  2  0
  7  8  1  0
  8  9  2  0
  2 10  1  0
 10 11  1  0
 11 12  1  0
 12 13  2  0
 12 14  1  0
 14 15  1  0
 15 16  1  0
 16 17  1  0
 17 18  2  0
 17 19  1  0
 19 20  1  0
 20 21  1  0
 21 22  1  0
 22 23  1  0
 23 24  1  0
 24 25  2  0
 25 26  1  0
 26 27  2  0
 27 28  1  0
 28 29  2  0
 22 30  1  0
 30 31  1  0
  9  4  1  0
 15 10  2  0
 31 19  1  0
 29 24  1  0
  3 32  1  0
  5 33  1  0
  6 34  1  0
  7 35  1  0
  8 36  1  0
  9 37  1  0
 16 38  1  0
 16 39  1  0
 20 40  1  0
 20 41  1  0
 21 42  1  0
 21 43  1  0
 23 44  1  0
 23 45  1  0
 25 46  1  0
 26 47  1  0
 27 48  1  0
 28 49  1  0
 29 50  1  0
 30 51  1  0
 30 52  1  0
 31 53  1  0
 31 54  1  0
M  CHG  2  11  -1  14  -1
M  END
>  <UniqueID>  (27) 
24

>  <SMILES>  (27) 
O=C(Nc1ccccc1)c1[n-]c(=O)[n-]c1CC(=S)N1CCN(Cc2ccccc2)CC1

>  <Energy>  (27) 
98.99134256207172

>  <Genealogy>  (27) 
O=C(Nc1ccccc1)c1[n-]c(=O)[n-]c1CC(=S)N1CCN(Cc2ccccc2)CC1 (protonated)
O=C(Nc1ccccc1)c1[n-]c(=O)[n-]c1CC(=S)N1CCN(Cc2ccccc2)CC1 (3D coordinates assigned)
O=C(Nc1ccccc1)c1[n-]c(=O)[n-]c1CC(=S)N1CCN(Cc2ccccc2)CC1 (nonaromatic ring conformer: 98.99134256207172 kcal/mol)

>  <smiles>  (27) 
O=C(Nc1ccccc1)c1[nH]c(=O)[nH]c1CC(=S)N1CCN(Cc2ccccc2)CC1

>  <score_type>  (27) 
oracle

>  <origin>  (27) 
adg

>  <m_score__min__energy>  (27) 
-12.210000000000001

>  <m_primary>  (27) 
energy

$$$$
27:0
     RDKit          3D

 43 45  0  0  0  0  0  0  0  0999 V2000
   59.2710   35.3310   47.4060 C   0  0  0  0  0  0  0  0  0  0  0  0
   58.9560   34.0690   46.7030 N   0  0  0  0  0  0  0  0  0  0  0  0
   58.6620   34.1110   45.3610 C   0  0  0  0  0  0  0  0  0  0  0  0
   58.6710   35.2000   44.7220 O   0  0  0  0  0  0  0  0  0  0  0  0
   58.3420   32.9480   44.6770 C   0  0  0  0  0  0  0  0  0  0  0  0
   58.3020   31.7350   45.3520 C   0  0  0  0  0  0  0  0  0  0  0  0
   57.9620   30.5250   44.6430 N   0  0  0  0  0  0  0  0  0  0  0  0
   58.9750   29.4820   44.4370 C   0  0  0  0  0  0  0  0  0  0  0  0
   58.2990   28.1400   44.1420 C   0  0  0  0  0  0  0  0  0  0  0  0
   57.3850   28.2090   42.9810 N   0  0  0  0  0  0  0  0  0  0  0  0
   56.7180   29.5160   42.7840 C   0  0  0  0  0  0  0  0  0  0  0  0
   56.6230   30.3390   44.0730 C   0  0  0  0  0  0  0  0  0  0  0  0
   58.6060   31.7220   46.7200 C   0  0  0  0  0  0  0  0  0  0  0  0
   58.6110   30.6210   47.3360 O   0  0  0  0  0  0  0  0  0  0  0  0
   58.9200   32.8930   47.3760 N   0  0  0  0  0  0  0  0  0  0  0  0
   59.2340   32.8320   48.8260 C   0  0  0  0  0  0  0  0  0  0  0  0
   60.7240   32.8780   49.0760 C   0  0  0  0  0  0  0  0  0  0  0  0
   61.2760   33.7980   49.9850 C   0  0  0  0  0  0  0  0  0  0  0  0
   62.6590   33.8480   50.1870 C   0  0  0  0  0  0  0  0  0  0  0  0
   63.5050   32.9920   49.4740 C   0  0  0  0  0  0  0  0  0  0  0  0
   65.2380   33.0590   49.7300 Cl  0  0  0  0  0  0  0  0  0  0  0  0
   62.9650   32.0890   48.5540 C   0  0  0  0  0  0  0  0  0  0  0  0
   61.5840   32.0360   48.3500 C   0  0  0  0  0  0  0  0  0  0  0  0
   59.2297   35.1655   48.4927 H   0  0  0  0  0  0  0  0  0  0  0  0
   60.2802   35.6657   47.1242 H   0  0  0  0  0  0  0  0  0  0  0  0
   58.5374   36.1007   47.1242 H   0  0  0  0  0  0  0  0  0  0  0  0
   58.1200   32.9862   43.6003 H   0  0  0  0  0  0  0  0  0  0  0  0
   59.6160   29.7606   43.5876 H   0  0  0  0  0  0  0  0  0  0  0  0
   59.5819   29.3856   45.3493 H   0  0  0  0  0  0  0  0  0  0  0  0
   59.0774   27.3911   43.9341 H   0  0  0  0  0  0  0  0  0  0  0  0
   57.6999   27.8668   45.0231 H   0  0  0  0  0  0  0  0  0  0  0  0
   56.6530   27.4700   43.0960 H   0  0  0  0  0  0  0  0  0  0  0  0
   57.9240   27.9770   42.1140 H   0  0  0  0  0  0  0  0  0  0  0  0
   57.2887   30.0925   42.0411 H   0  0  0  0  0  0  0  0  0  0  0  0
   55.6910   29.3140   42.4457 H   0  0  0  0  0  0  0  0  0  0  0  0
   56.1823   31.3213   43.8476 H   0  0  0  0  0  0  0  0  0  0  0  0
   55.9900   29.8067   44.7982 H   0  0  0  0  0  0  0  0  0  0  0  0
   58.7611   33.6879   49.3298 H   0  0  0  0  0  0  0  0  0  0  0  0
   58.8484   31.8807   49.2214 H   0  0  0  0  0  0  0  0  0  0  0  0
   60.6168   34.4817   50.5399 H   0  0  0  0  0  0  0  0  0  0  0  0
   63.0826   34.5623   50.9084 H   0  0  0  0  0  0  0  0  0  0  0  0
   63.6291   31.4183   47.9891 H   0  0  0  0  0  0  0  0  0  0  0  0
   61.1668   31.3306   47.6163 H   0  0  0  0  0  0  0  0  0  0  0  0
  1  2  1  0
  2  3  1  0
  3  4  2  0
  3  5  1  0
  5  6  2  0
  6  7  1  0
  7  8  1  0
  8  9  1  0
  9 10  1  0
 10 11  1  0
 11 12  1  0
  6 13  1  0
 13 14  2  0
 13 15  1  0
 15 16  1  0
 16 17  1  0
 17 18  2  0
 18 19  1  0
 19 20  2  0
 20 21  1  0
 20 22  1  0
 22 23  2  0
 15  2  1  0
 23 17  1  0
 12  7  1  0
  1 24  1  0
  1 25  1  0
  1 26  1  0
  5 27  1  0
  8 28  1  0
  8 29  1  0
  9 30  1  0
  9 31  1  0
 10 32  1  0
 10 33  1  0
 11 34  1  0
 11 35  1  0
 12 36  1  0
 12 37  1  0
 16 38  1  0
 16 39  1  0
 18 40  1  0
 19 41  1  0
 22 42  1  0
 23 43  1  0
M  CHG  1  10   1
M  END
>  <UniqueID>  (28) 
25

>  <SMILES>  (28) 
Cn1c(=O)cc(N2CC[NH2+]CC2)c(=O)n1Cc1ccc(Cl)cc1

>  <Energy>  (28) 
63.16637940081467

>  <Genealogy>  (28) 
Cn1c(=O)cc(N2CC[NH2+]CC2)c(=O)n1Cc1ccc(Cl)cc1 (protonated)
Cn1c(=O)cc(N2CC[NH2+]CC2)c(=O)n1Cc1ccc(Cl)cc1 (3D coordinates assigned)
Cn1c(=O)cc(N2CC[NH2+]CC2)c(=O)n1Cc1ccc(Cl)cc1 (nonaromatic ring conformer: 63.16637940081467 kcal/mol)

>  <smiles>  (28) 
Cn1c(=O)cc(N2CCNCC2)c(=O)n1Cc1ccc(Cl)cc1

>  <score_type>  (28) 
oracle

>  <origin>  (28) 
adg

>  <m_score__min__energy>  (28) 
-5.8700000000000001

>  <m_primary>  (28) 
energy

$$$$
28:0
     RDKit          3D

 58 59  0  0  0  0  0  0  0  0999 V2000
   49.9590   30.8730   49.2190 H   0  0  0  0  0  0  0  0  0  0  0  0
   50.9060   31.2270   49.2790 O   0  0  0  0  0  0  0  0  0  0  0  0
   51.7210   30.9440   50.3740 C   0  0  0  0  0  0  0  0  0  0  0  0
   52.6860   29.9320   50.3020 C   0  0  0  0  0  0  0  0  0  0  0  0
   52.8057   29.3547   49.3734 H   0  0  0  0  0  0  0  0  0  0  0  0
   53.4980   29.6520   51.4050 C   0  0  0  0  0  0  0  0  0  0  0  0
   54.2611   28.8627   51.3364 H   0  0  0  0  0  0  0  0  0  0  0  0
   53.3440   30.3750   52.6030 C   0  0  0  0  0  0  0  0  0  0  0  0
   54.1970   30.1260   53.7880 C   0  0  0  0  0  0  0  0  0  0  0  0
   53.7175   30.2034   54.7750 H   0  0  0  0  0  0  0  0  0  0  0  0
   55.5000   29.8150   53.7660 C   0  0  0  0  0  0  0  0  0  0  0  0
   55.8165   28.9236   54.3275 H   0  0  0  0  0  0  0  0  0  0  0  0
   56.5440   30.5710   53.0500 C   0  0  0  0  0  0  0  0  0  0  0  0
   57.6680   30.7120   53.6010 O   0  0  0  0  0  0  0  0  0  0  0  0
   56.3550   31.0930   51.7270 N   0  0  0  0  0  0  0  0  0  0  0  0
   57.3890   31.6380   50.8520 C   0  0  0  0  0  0  0  0  0  0  0  0
   56.9083   32.0724   49.9630 H   0  0  0  0  0  0  0  0  0  0  0  0
   57.9444   32.4000   51.4185 H   0  0  0  0  0  0  0  0  0  0  0  0
   58.3890   30.5640   50.3990 C   0  0  0  0  0  0  0  0  0  0  0  0
   59.2674   30.6108   51.0595 H   0  0  0  0  0  0  0  0  0  0  0  0
   57.8622   29.6000   50.4551 H   0  0  0  0  0  0  0  0  0  0  0  0
   58.8720   30.7190   48.9410 C   0  0  0  0  0  0  0  0  0  0  0  0
   59.3012   29.7601   48.6151 H   0  0  0  0  0  0  0  0  0  0  0  0
   57.9959   31.0153   48.3455 H   0  0  0  0  0  0  0  0  0  0  0  0
   59.8870   31.7670   48.7550 N   0  0  0  0  0  0  0  0  0  0  0  0
   60.1100   32.2170   49.6740 H   0  0  0  0  0  0  0  0  0  0  0  0
   59.4740   32.7950   47.7900 C   0  0  0  0  0  0  0  0  0  0  0  0
   59.2176   33.7180   48.3307 H   0  0  0  0  0  0  0  0  0  0  0  0
   60.3033   32.9844   47.0926 H   0  0  0  0  0  0  0  0  0  0  0  0
   58.2550   32.3200   46.9960 C   0  0  0  0  0  0  0  0  0  0  0  0
   57.8377   31.4268   47.4840 H   0  0  0  0  0  0  0  0  0  0  0  0
   57.5195   33.1377   46.9750 H   0  0  0  0  0  0  0  0  0  0  0  0
   58.6230   31.9690   45.5450 C   0  0  0  0  0  0  0  0  0  0  0  0
   58.7203   32.9006   44.9683 H   0  0  0  0  0  0  0  0  0  0  0  0
   59.5699   31.4095   45.5611 H   0  0  0  0  0  0  0  0  0  0  0  0
   57.5620   31.0840   44.8800 C   0  0  0  0  0  0  0  0  0  0  0  0
   56.7312   31.7163   44.5336 H   0  0  0  0  0  0  0  0  0  0  0  0
   58.0243   30.5583   44.0316 H   0  0  0  0  0  0  0  0  0  0  0  0
   57.0450   30.0860   45.8250 N   0  0  0  0  0  0  0  0  0  0  0  0
   57.8450   29.7460   46.4100 H   0  0  0  0  0  0  0  0  0  0  0  0
   56.4930   28.9340   45.1040 C   0  0  0  0  0  0  0  0  0  0  0  0
   55.4029   28.9003   45.2477 H   0  0  0  0  0  0  0  0  0  0  0  0
   56.7205   29.0309   44.0321 H   0  0  0  0  0  0  0  0  0  0  0  0
   57.1090   27.6620   45.6340 C   0  0  0  0  0  0  0  0  0  0  0  0
   56.2900   26.6010   46.0770 C   0  0  0  0  0  0  0  0  0  0  0  0
   54.9040   26.6980   46.0100 O   0  0  0  0  0  0  0  0  0  0  0  0
   56.8670   25.4370   46.5970 C   0  0  0  0  0  0  0  0  0  0  0  0
   56.2246   24.6081   46.9289 H   0  0  0  0  0  0  0  0  0  0  0  0
   58.2540   25.3240   46.6960 C   0  0  0  0  0  0  0  0  0  0  0  0
   58.7024   24.4055   47.1024 H   0  0  0  0  0  0  0  0  0  0  0  0
   59.0740   26.3750   46.2800 C   0  0  0  0  0  0  0  0  0  0  0  0
   60.1669   26.2841   46.3651 H   0  0  0  0  0  0  0  0  0  0  0  0
   58.5100   27.5440   45.7550 C   0  0  0  0  0  0  0  0  0  0  0  0
   59.3480   28.5840   45.3620 O   0  0  0  0  0  0  0  0  0  0  0  0
   52.3950   31.4070   52.6580 C   0  0  0  0  0  0  0  0  0  0  0  0
   52.2902   32.0028   53.5767 H   0  0  0  0  0  0  0  0  0  0  0  0
   51.5810   31.6850   51.5550 C   0  0  0  0  0  0  0  0  0  0  0  0
   50.6340   32.7000   51.6360 O   0  0  0  0  0  0  0  0  0  0  0  0
  1  2  1  0
  2  3  1  0
  3  4  2  0
  4  5  1  0
  4  6  1  0
  6  7  1  0
  6  8  2  0
  8  9  1  0
  9 10  1  0
  9 11  2  0
 11 12  1  0
 11 13  1  0
 13 14  2  0
 13 15  1  0
 15 16  1  0
 16 17  1  0
 16 18  1  0
 16 19  1  0
 19 20  1  0
 19 21  1  0
 19 22  1  0
 22 23  1  0
 22 24  1  0
 22 25  1  0
 25 26  1  0
 25 27  1  0
 27 28  1  0
 27 29  1  0
 27 30  1  0
 30 31  1  0
 30 32  1  0
 30 33  1  0
 33 34  1  0
 33 35  1  0
 33 36  1  0
 36 37  1  0
 36 38  1  0
 36 39  1  0
 39 40  1  0
 39 41  1  0
 41 42  1  0
 41 43  1  0
 41 44  1  0
 44 45  2  0
 45 46  1  0
 45 47  1  0
 47 48  1  0
 47 49  2  0
 49 50  1  0
 49 51  1  0
 51 52  1  0
 51 53  2  0
 53 54  1  0
  8 55  1  0
 55 56  1  0
 55 57  2  0
 57 58  1  0
 57  3  1  0
 53 44  1  0
M  CHG  4  15  -1  46  -1  54  -1  58  -1
M  END
>  <UniqueID>  (29) 
26

>  <SMILES>  (29) 
O=C(/C=C\c1ccc(O)c([O-])c1)[N-]CCCNCCCCNCc1c([O-])cccc1[O-]

>  <Energy>  (29) 
59.16991749061946

>  <Genealogy>  (29) 
O=C(C=Cc1ccc(O)c([O-])c1)[N-]CCCNCCCCNCc1c([O-])cccc1[O-] (protonated)
O=C(/C=C\c1ccc(O)c([O-])c1)[N-]CCCNCCCCNCc1c([O-])cccc1[O-] (cis-trans isomerization)
O=C(/C=C\c1ccc(O)c([O-])c1)[N-]CCCNCCCCNCc1c([O-])cccc1[O-] (3D coordinates assigned)
O=C(/C=C\c1ccc(O)c([O-])c1)[N-]CCCNCCCCNCc1c([O-])cccc1[O-] (optimized conformer: 59.16991749061946 kcal/mol)

>  <smiles>  (29) 
O=C(C=Cc1ccc(O)c(O)c1)NCCCNCCCCNCc1c(O)cccc1O

>  <score_type>  (29) 
oracle

>  <origin>  (29) 
adg

>  <m_score__min__energy>  (29) 
-17.129999999999999

>  <m_primary>  (29) 
energy

$$$$
29:0
     RDKit          3D

 47 50  0  0  1  0  0  0  0  0999 V2000
   63.6290   31.3840   49.2580 N   0  0  0  0  0  0  0  0  0  0  0  0
   63.1000   32.2920   48.5230 C   0  0  0  0  0  0  0  0  0  0  0  0
   63.9030   32.7570   47.5090 N   0  0  0  0  0  0  0  0  0  0  0  0
   63.3950   33.7010   46.7140 C   0  0  0  0  0  0  0  0  0  0  0  0
   62.1660   34.2030   46.8560 N   0  0  0  0  0  0  0  0  0  0  0  0
   61.3560   33.7710   47.8360 C   0  0  0  0  0  0  0  0  0  0  0  0
   60.0700   34.3130   47.9780 C   0  0  0  0  0  0  0  0  0  0  0  0
   59.6940   35.3440   47.0030 C   0  0  0  0  0  0  0  0  0  0  0  0
   59.9550   35.0090   45.6320 N   0  0  0  0  0  0  0  0  0  0  0  0
   58.7640   34.9160   44.8610 C   0  0  0  0  0  0  0  0  0  0  0  0
   58.3240   33.5120   44.6390 C   0  0  0  0  0  0  0  0  0  0  0  0
   58.1610   32.6860   45.7410 C   0  0  0  0  0  0  0  0  0  0  0  0
   57.7660   31.3690   45.6300 C   0  0  0  0  0  0  0  0  0  0  0  0
   57.5170   30.8320   44.3660 C   0  0  0  0  0  0  0  0  0  0  0  0
   57.0160   29.1590   44.2850 S   0  0  0  0  0  0  0  0  0  0  0  0
   57.0230   28.5940   42.9160 O   0  0  0  0  0  0  0  0  0  0  0  0
   55.5580   29.1230   44.7350 O   0  0  0  0  0  0  0  0  0  0  0  0
   57.8560   28.2020   45.4470 N   0  0  0  0  0  0  0  0  0  0  0  0
   57.9170   26.9680   45.3230 C   0  0  0  0  0  0  0  0  0  0  0  0
   57.5230   26.0770   44.4090 N   0  0  0  0  0  0  0  0  0  0  0  0
   57.7390   24.8140   44.5540 C   0  0  0  0  0  0  0  0  0  0  0  0
   58.4040   24.3750   45.7060 C   0  0  0  0  0  0  0  0  0  0  0  0
   58.7250   25.9620   46.6270 S   0  0  0  0  0  0  0  0  0  0  0  0
   57.6780   31.6480   43.2930 C   0  0  0  0  0  0  0  0  0  0  0  0
   58.0770   32.9830   43.4000 C   0  0  0  0  0  0  0  0  0  0  0  0
   59.2940   33.8400   49.0000 C   0  0  0  0  0  0  0  0  0  0  0  0
   59.7730   32.8490   49.8660 C   0  0  0  0  0  0  0  0  0  0  0  0
   61.0400   32.3160   49.7230 C   0  0  0  0  0  0  0  0  0  0  0  0
   61.8220   32.7890   48.7000 C   0  0  0  0  0  0  0  0  0  0  0  0
   63.2840   30.9280   50.0930 H   0  0  0  0  0  0  0  0  0  0  0  0
   64.8700   32.3870   47.3700 H   0  0  0  0  0  0  0  0  0  0  0  0
   64.0231   34.0864   45.8973 H   0  0  0  0  0  0  0  0  0  0  0  0
   58.6158   35.5353   47.1078 H   0  0  0  0  0  0  0  0  0  0  0  0
   60.3183   36.2212   47.2284 H   0  0  0  0  0  0  0  0  0  0  0  0
   60.4870   34.1300   45.5870 H   0  0  0  0  0  0  0  0  0  0  0  0
   57.9627   35.4556   45.3871 H   0  0  0  0  0  0  0  0  0  0  0  0
   58.9751   35.3548   43.8747 H   0  0  0  0  0  0  0  0  0  0  0  0
   58.3543   33.0971   46.7428 H   0  0  0  0  0  0  0  0  0  0  0  0
   57.6483   30.7474   46.5299 H   0  0  0  0  0  0  0  0  0  0  0  0
   57.0090   26.4670   43.5290 H   0  0  0  0  0  0  0  0  0  0  0  0
   57.4079   24.0963   43.7889 H   0  0  0  0  0  0  0  0  0  0  0  0
   58.6706   23.3477   45.9951 H   0  0  0  0  0  0  0  0  0  0  0  0
   57.4850   31.2384   42.2905 H   0  0  0  0  0  0  0  0  0  0  0  0
   58.1915   33.6027   42.4984 H   0  0  0  0  0  0  0  0  0  0  0  0
   58.2806   34.2431   49.1437 H   0  0  0  0  0  0  0  0  0  0  0  0
   59.1260   32.4867   50.6785 H   0  0  0  0  0  0  0  0  0  0  0  0
   61.4094   31.5379   50.4072 H   0  0  0  0  0  0  0  0  0  0  0  0
  1  2  2  3
  2  3  1  0
  3  4  1  0
  4  5  2  0
  5  6  1  0
  6  7  2  0
  7  8  1  0
  8  9  1  0
  9 10  1  0
 10 11  1  0
 11 12  2  0
 12 13  1  0
 13 14  2  0
 14 15  1  0
 15 16  2  0
 15 17  2  0
 15 18  1  0
 18 19  2  0
 19 20  1  0
 20 21  1  0
 21 22  2  0
 22 23  1  0
 14 24  1  0
 24 25  2  0
  7 26  1  0
 26 27  2  0
 27 28  1  0
 28 29  2  0
 29  2  1  0
 29  6  1  0
 25 11  1  0
 23 19  1  0
  1 30  1  0
  3 31  1  0
  4 32  1  0
  8 33  1  0
  8 34  1  0
  9 35  1  0
 10 36  1  0
 10 37  1  0
 12 38  1  0
 13 39  1  0
 20 40  1  0
 21 41  1  0
 22 42  1  0
 24 43  1  0
 25 44  1  0
 26 45  1  0
 27 46  1  0
 28 47  1  0
M  END
>  <smiles>  (30) 
N=c1[nH]cnc2c(CNCc3ccc(S(=O)(=O)N=c4[nH]ccs4)cc3)cccc12

>  <score_type>  (30) 
oracle

>  <origin>  (30) 
adg

>  <m_score__min__energy>  (30) 
-9.5999999999999996

>  <m_primary>  (30) 
energy

$$$$
30:0
     RDKit          3D

 40 42  0  0  0  0  0  0  0  0999 V2000
   58.8460   30.2580   47.2370 C   0  0  0  0  0  0  0  0  0  0  0  0
   58.7440   31.2390   46.3260 C   0  0  0  0  0  0  0  0  0  0  0  0
   58.1880   31.1550   45.0370 C   0  0  0  0  0  0  0  0  0  0  0  0
   57.7600   30.0960   44.3210 C   0  0  0  0  0  0  0  0  0  0  0  0
   57.4750   28.7540   44.8640 C   0  0  0  0  0  0  0  0  0  0  0  0
   56.1720   28.4080   45.2470 C   0  0  0  0  0  0  0  0  0  0  0  0
   55.1450   29.3440   45.1670 O   0  0  0  0  0  0  0  0  0  0  0  0
   55.9060   27.1570   45.7090 N   0  0  0  0  0  0  0  0  0  0  0  0
   56.8910   26.2200   45.7910 C   0  0  0  0  0  0  0  0  0  0  0  0
   56.5610   24.7190   46.3510 S   0  0  0  0  0  0  0  0  0  0  0  0
   58.1540   26.5240   45.3970 N   0  0  0  0  0  0  0  0  0  0  0  0
   58.4660   27.7600   44.9300 C   0  0  0  0  0  0  0  0  0  0  0  0
   59.6450   28.0000   44.5550 O   0  0  0  0  0  0  0  0  0  0  0  0
   58.1450   32.4520   44.5490 C   0  0  0  0  0  0  0  0  0  0  0  0
   58.7170   33.2610   45.5080 C   0  0  0  0  0  0  0  0  0  0  0  0
   58.8750   34.7470   45.3860 C   0  0  0  0  0  0  0  0  0  0  0  0
   59.0750   32.5300   46.5860 N   0  0  0  0  0  0  0  0  0  0  0  0
   59.6710   33.0450   47.7890 C   0  0  0  0  0  0  0  0  0  0  0  0
   58.9680   32.9610   49.0000 C   0  0  0  0  0  0  0  0  0  0  0  0
   59.5370   33.4480   50.1780 C   0  0  0  0  0  0  0  0  0  0  0  0
   60.8090   34.0230   50.1550 C   0  0  0  0  0  0  0  0  0  0  0  0
   61.5140   34.1170   48.9520 C   0  0  0  0  0  0  0  0  0  0  0  0
   60.9490   33.6330   47.7560 C   0  0  0  0  0  0  0  0  0  0  0  0
   61.6170   33.7260   46.5240 O   0  0  0  0  0  0  0  0  0  0  0  0
   63.0310   33.7850   46.3760 C   0  0  0  0  0  0  0  0  0  0  0  0
   59.3068   30.4613   48.2149 H   0  0  0  0  0  0  0  0  0  0  0  0
   58.4687   29.2510   47.0055 H   0  0  0  0  0  0  0  0  0  0  0  0
   57.6107   30.2449   43.2414 H   0  0  0  0  0  0  0  0  0  0  0  0
   54.9310   26.9200   46.0020 H   0  0  0  0  0  0  0  0  0  0  0  0
   57.7331   32.7742   43.5813 H   0  0  0  0  0  0  0  0  0  0  0  0
   58.9226   35.1943   46.3898 H   0  0  0  0  0  0  0  0  0  0  0  0
   59.8023   34.9735   44.8393 H   0  0  0  0  0  0  0  0  0  0  0  0
   58.0161   35.1634   44.8393 H   0  0  0  0  0  0  0  0  0  0  0  0
   57.9650   32.5099   49.0214 H   0  0  0  0  0  0  0  0  0  0  0  0
   58.9825   33.3786   51.1255 H   0  0  0  0  0  0  0  0  0  0  0  0
   61.2570   34.4026   51.0852 H   0  0  0  0  0  0  0  0  0  0  0  0
   62.5156   34.5715   48.9391 H   0  0  0  0  0  0  0  0  0  0  0  0
   63.5031   33.8047   47.3693 H   0  0  0  0  0  0  0  0  0  0  0  0
   63.3789   32.9006   45.8221 H   0  0  0  0  0  0  0  0  0  0  0  0
   63.3040   34.6953   45.8221 H   0  0  0  0  0  0  0  0  0  0  0  0
  1  2  2  0
  2  3  1  0
  3  4  2  3
  4  5  1  0
  5  6  2  0
  6  7  1  0
  6  8  1  0
  8  9  1  0
  9 10  2  0
  9 11  1  0
 11 12  1  0
 12 13  2  0
  3 14  1  0
 14 15  2  0
 15 16  1  0
 15 17  1  0
 17 18  1  0
 18 19  2  0
 19 20  1  0
 20 21  2  0
 21 22  1  0
 22 23  2  0
 23 24  1  0
 24 25  1  0
 17  2  1  0
 23 18  1  0
 12  5  1  0
  1 26  1  0
  1 27  1  0
  4 28  1  0
  8 29  1  0
 14 30  1  0
 16 31  1  0
 16 32  1  0
 16 33  1  0
 19 34  1  0
 20 35  1  0
 21 36  1  0
 22 37  1  0
 25 38  1  0
 25 39  1  0
 25 40  1  0
M  CHG  2   7  -1  11  -1
M  END
>  <UniqueID>  (31) 
27

>  <SMILES>  (31) 
C=c1c(=Cc2c([O-])[nH]c(=S)[n-]c2=O)cc(C)n1-c1ccccc1OC

>  <Energy>  (31) 
90.4364375548271

>  <Genealogy>  (31) 
C=c1c(=Cc2c([O-])[nH]c(=S)[n-]c2=O)cc(C)n1-c1ccccc1OC (protonated)
C=c1c(=Cc2c([O-])[nH]c(=S)[n-]c2=O)cc(C)n1-c1ccccc1OC (3D coordinates assigned)
C=c1c(=Cc2c([O-])[nH]c(=S)[n-]c2=O)cc(C)n1-c1ccccc1OC (optimized conformer: 90.4364375548271 kcal/mol)

>  <smiles>  (31) 
C=c1c(=Cc2c(O)[nH]c(=S)[nH]c2=O)cc(C)n1-c1ccccc1OC

>  <score_type>  (31) 
oracle

>  <origin>  (31) 
adg

>  <m_score__min__energy>  (31) 
-13.08

>  <m_primary>  (31) 
energy

$$$$
31:0
     RDKit          3D

 60 63  0  0  0  0  0  0  0  0999 V2000
   59.5890   35.3210   48.8390 H   0  0  0  0  0  0  0  0  0  0  0  0
   59.8430   35.3320   47.8580 O   0  0  0  0  0  0  0  0  0  0  0  0
   59.2810   34.4360   46.9460 C   0  0  0  0  0  0  0  0  0  0  0  0
   59.3710   34.6800   45.5700 C   0  0  0  0  0  0  0  0  0  0  0  0
   59.8872   35.5808   45.2067 H   0  0  0  0  0  0  0  0  0  0  0  0
   58.8090   33.7860   44.6570 C   0  0  0  0  0  0  0  0  0  0  0  0
   58.8694   33.9969   43.5791 H   0  0  0  0  0  0  0  0  0  0  0  0
   58.1680   32.6210   45.1030 C   0  0  0  0  0  0  0  0  0  0  0  0
   57.5630   31.7090   44.1050 C   0  0  0  0  0  0  0  0  0  0  0  0
   58.0871   31.5532   43.1505 H   0  0  0  0  0  0  0  0  0  0  0  0
   56.4060   31.0650   44.3120 C   0  0  0  0  0  0  0  0  0  0  0  0
   55.5821   31.5999   44.8071 H   0  0  0  0  0  0  0  0  0  0  0  0
   56.1990   29.6670   43.9000 C   0  0  0  0  0  0  0  0  0  0  0  0
   56.4390   29.3000   42.7170 O   0  0  0  0  0  0  0  0  0  0  0  0
   55.7420   28.7210   44.8720 N   0  0  0  0  0  0  0  0  0  0  0  0
   56.5700   27.8080   45.6080 C   0  0  0  0  0  0  0  0  0  0  0  0
   57.9340   28.1010   45.7940 C   0  0  0  0  0  0  0  0  0  0  0  0
   58.3420   29.0549   45.4285 H   0  0  0  0  0  0  0  0  0  0  0  0
   58.7710   27.1930   46.4370 C   0  0  0  0  0  0  0  0  0  0  0  0
   59.8332   27.4310   46.5953 H   0  0  0  0  0  0  0  0  0  0  0  0
   58.2480   25.9810   46.8770 C   0  0  0  0  0  0  0  0  0  0  0  0
   58.9002   25.2500   47.3773 H   0  0  0  0  0  0  0  0  0  0  0  0
   56.9320   25.7000   46.6890 N   0  0  0  0  0  0  0  0  0  0  0  0
   56.0720   26.5600   46.0780 C   0  0  0  0  0  0  0  0  0  0  0  0
   54.8220   26.1910   45.9920 N   0  0  0  0  0  0  0  0  0  0  0  0
   54.2670   24.9070   45.5670 C   0  0  0  0  0  0  0  0  0  0  0  0
   53.7132   24.4520   46.4014 H   0  0  0  0  0  0  0  0  0  0  0  0
   53.5847   25.0635   44.7185 H   0  0  0  0  0  0  0  0  0  0  0  0
   55.3860   23.9950   45.1510 C   0  0  0  0  0  0  0  0  0  0  0  0
   55.9210   24.0860   43.8520 C   0  0  0  0  0  0  0  0  0  0  0  0
   55.5231   24.8307   43.1469 H   0  0  0  0  0  0  0  0  0  0  0  0
   56.9560   23.2340   43.4540 C   0  0  0  0  0  0  0  0  0  0  0  0
   57.3690   23.3082   42.4372 H   0  0  0  0  0  0  0  0  0  0  0  0
   57.4660   22.2880   44.3480 C   0  0  0  0  0  0  0  0  0  0  0  0
   58.2810   21.6192   44.0344 H   0  0  0  0  0  0  0  0  0  0  0  0
   56.9410   22.1910   45.6410 C   0  0  0  0  0  0  0  0  0  0  0  0
   57.3461   21.4479   46.3437 H   0  0  0  0  0  0  0  0  0  0  0  0
   55.9020   23.0370   46.0420 C   0  0  0  0  0  0  0  0  0  0  0  0
   55.4872   22.9528   47.0573 H   0  0  0  0  0  0  0  0  0  0  0  0
   58.0720   32.3810   46.4880 C   0  0  0  0  0  0  0  0  0  0  0  0
   57.5658   31.4741   46.8502 H   0  0  0  0  0  0  0  0  0  0  0  0
   58.6190   33.2930   47.4140 C   0  0  0  0  0  0  0  0  0  0  0  0
   58.5160   33.1060   48.8020 O   0  0  0  0  0  0  0  0  0  0  0  0
   59.3060   32.1890   49.5570 C   0  0  0  0  0  0  0  0  0  0  0  0
   58.7225   31.8273   50.4165 H   0  0  0  0  0  0  0  0  0  0  0  0
   59.5884   31.3418   48.9148 H   0  0  0  0  0  0  0  0  0  0  0  0
   60.5720   32.8810   50.0600 C   0  0  0  0  0  0  0  0  0  0  0  0
   60.3367   33.9289   50.2979 H   0  0  0  0  0  0  0  0  0  0  0  0
   60.9260   32.3479   50.9547 H   0  0  0  0  0  0  0  0  0  0  0  0
   61.6640   32.8470   49.0250 C   0  0  0  0  0  0  0  0  0  0  0  0
   62.5150   33.9540   48.8520 C   0  0  0  0  0  0  0  0  0  0  0  0
   62.3905   34.8449   49.4850 H   0  0  0  0  0  0  0  0  0  0  0  0
   63.5200   33.9260   47.8770 C   0  0  0  0  0  0  0  0  0  0  0  0
   64.1901   34.7897   47.7542 H   0  0  0  0  0  0  0  0  0  0  0  0
   63.6730   32.8030   47.0600 C   0  0  0  0  0  0  0  0  0  0  0  0
   64.4644   32.7816   46.2963 H   0  0  0  0  0  0  0  0  0  0  0  0
   62.8190   31.7060   47.2140 C   0  0  0  0  0  0  0  0  0  0  0  0
   62.9359   30.8246   46.5664 H   0  0  0  0  0  0  0  0  0  0  0  0
   61.8150   31.7270   48.1910 C   0  0  0  0  0  0  0  0  0  0  0  0
   61.1429   30.8637   48.3052 H   0  0  0  0  0  0  0  0  0  0  0  0
  1  2  1  0
  2  3  1  0
  3  4  2  0
  4  5  1  0
  4  6  1  0
  6  7  1  0
  6  8  2  0
  8  9  1  0
  9 10  1  0
  9 11  2  0
 11 12  1  0
 11 13  1  0
 13 14  2  0
 13 15  1  0
 15 16  1  0
 16 17  2  0
 17 18  1  0
 17 19  1  0
 19 20  1  0
 19 21  2  0
 21 22  1  0
 21 23  1  0
 23 24  1  0
 24 25  2  3
 25 26  1  0
 26 27  1  0
 26 28  1  0
 26 29  1  0
 29 30  2  0
 30 31  1  0
 30 32  1  0
 32 33  1  0
 32 34  2  0
 34 35  1  0
 34 36  1  0
 36 37  1  0
 36 38  2  0
 38 39  1  0
  8 40  1  0
 40 41  1  0
 40 42  2  0
 42 43  1  0
 43 44  1  0
 44 45  1  0
 44 46  1  0
 44 47  1  0
 47 48  1  0
 47 49  1  0
 47 50  1  0
 50 51  2  0
 51 52  1  0
 51 53  1  0
 53 54  1  0
 53 55  2  0
 55 56  1  0
 55 57  1  0
 57 58  1  0
 57 59  2  0
 59 60  1  0
 42  3  1  0
 59 50  1  0
 24 16  1  0
 38 29  1  0
M  CHG  2  15  -1  23  -1
M  END
>  <UniqueID>  (32) 
28

>  <SMILES>  (32) 
O=C(/C=C/c1ccc(O)c(OCCc2ccccc2)c1)[N-]c1ccc[n-]c1=NCc1ccccc1

>  <Energy>  (32) 
72.4283520665589

>  <Genealogy>  (32) 
O=C(C=Cc1ccc(O)c(OCCc2ccccc2)c1)[N-]c1ccc[n-]c1=NCc1ccccc1 (protonated)
O=C(/C=C/c1ccc(O)c(OCCc2ccccc2)c1)[N-]c1ccc[n-]c1=NCc1ccccc1 (cis-trans isomerization)
O=C(/C=C/c1ccc(O)c(OCCc2ccccc2)c1)[N-]c1ccc[n-]c1=NCc1ccccc1 (3D coordinates assigned)
O=C(/C=C/c1ccc(O)c(OCCc2ccccc2)c1)[N-]c1ccc[n-]c1=NCc1ccccc1 (optimized conformer: 72.4283520665589 kcal/mol)

>  <smiles>  (32) 
O=C(C=Cc1ccc(O)c(OCCc2ccccc2)c1)Nc1ccc[nH]c1=NCc1ccccc1

>  <score_type>  (32) 
oracle

>  <origin>  (32) 
adg

>  <m_score__min__energy>  (32) 
-13.890000000000001

>  <m_primary>  (32) 
energy

$$$$
32:0
     RDKit          3D

 36 38  0  0  0  0  0  0  0  0999 V2000
   60.7640   27.6070   49.9250 C   0  0  0  0  0  0  0  0  0  0  0  0
   60.7840   26.9790   48.6470 O   0  0  0  0  0  0  0  0  0  0  0  0
   60.1030   27.4600   47.5190 C   0  0  0  0  0  0  0  0  0  0  0  0
   59.6030   28.7660   47.5520 C   0  0  0  0  0  0  0  0  0  0  0  0
   58.9040   29.2870   46.4600 C   0  0  0  0  0  0  0  0  0  0  0  0
   58.7000   28.5130   45.3070 C   0  0  0  0  0  0  0  0  0  0  0  0
   57.8960   29.0530   44.2400 N   0  0  0  0  0  0  0  0  0  0  0  0
   56.4870   29.3260   44.3190 C   0  0  0  0  0  0  0  0  0  0  0  0
   55.7400   28.6410   45.0680 O   0  0  0  0  0  0  0  0  0  0  0  0
   55.8960   30.4340   43.4980 C   0  0  0  0  0  0  0  0  0  0  0  0
   57.1860   31.3540   42.5810 S   0  0  0  0  0  0  0  0  0  0  0  0
   57.7590   32.2910   43.9960 C   0  0  0  0  0  0  0  0  0  0  0  0
   57.6470   31.8230   45.2660 N   0  0  0  0  0  0  0  0  0  0  0  0
   58.2770   32.7670   45.9770 C   0  0  0  0  0  0  0  0  0  0  0  0
   58.5230   32.7760   47.3470 C   0  0  0  0  0  0  0  0  0  0  0  0
   59.2710   33.8470   47.8700 C   0  0  0  0  0  0  0  0  0  0  0  0
   59.6370   33.8980   49.5840 Cl  0  0  0  0  0  0  0  0  0  0  0  0
   59.7410   34.8730   47.0160 C   0  0  0  0  0  0  0  0  0  0  0  0
   59.4740   34.8280   45.6350 C   0  0  0  0  0  0  0  0  0  0  0  0
   58.7370   33.7480   45.1530 C   0  0  0  0  0  0  0  0  0  0  0  0
   58.4190   33.4730   43.8790 N   0  0  0  0  0  0  0  0  0  0  0  0
   59.2010   27.1980   45.2750 C   0  0  0  0  0  0  0  0  0  0  0  0
   59.9000   26.6790   46.3680 C   0  0  0  0  0  0  0  0  0  0  0  0
   60.7885   26.8385   50.7116 H   0  0  0  0  0  0  0  0  0  0  0  0
   61.6417   28.2624   50.0253 H   0  0  0  0  0  0  0  0  0  0  0  0
   59.8463   28.2052   50.0253 H   0  0  0  0  0  0  0  0  0  0  0  0
   59.7614   29.3882   48.4452 H   0  0  0  0  0  0  0  0  0  0  0  0
   58.5100   30.3131   46.5044 H   0  0  0  0  0  0  0  0  0  0  0  0
   58.3870   29.3390   43.3630 H   0  0  0  0  0  0  0  0  0  0  0  0
   55.1839   30.0043   42.7781 H   0  0  0  0  0  0  0  0  0  0  0  0
   55.3910   31.1353   44.1786 H   0  0  0  0  0  0  0  0  0  0  0  0
   58.1458   31.9737   47.9982 H   0  0  0  0  0  0  0  0  0  0  0  0
   60.3185   35.7107   47.4342 H   0  0  0  0  0  0  0  0  0  0  0  0
   59.8345   35.6178   44.9596 H   0  0  0  0  0  0  0  0  0  0  0  0
   59.0411   26.5744   44.3831 H   0  0  0  0  0  0  0  0  0  0  0  0
   60.2939   25.6527   46.3275 H   0  0  0  0  0  0  0  0  0  0  0  0
  1  2  1  0
  2  3  1  0
  3  4  2  0
  4  5  1  0
  5  6  2  0
  6  7  1  0
  7  8  1  0
  8  9  2  0
  8 10  1  0
 10 11  1  0
 11 12  1  0
 12 13  2  0
 13 14  1  0
 14 15  2  0
 15 16  1  0
 16 17  1  0
 16 18  2  0
 18 19  1  0
 19 20  2  0
 20 21  1  0
  6 22  1  0
 22 23  2  0
 23  3  1  0
 21 12  1  0
 20 14  1  0
  1 24  1  0
  1 25  1  0
  1 26  1  0
  4 27  1  0
  5 28  1  0
  7 29  1  0
 10 30  1  0
 10 31  1  0
 15 32  1  0
 18 33  1  0
 19 34  1  0
 22 35  1  0
 23 36  1  0
M  CHG  1  21  -1
M  END
>  <UniqueID>  (33) 
29

>  <SMILES>  (33) 
COc1ccc(NC(=O)CSc2nc3cc(Cl)ccc3[n-]2)cc1

>  <Energy>  (33) 
68.4556753222891

>  <Genealogy>  (33) 
COc1ccc(NC(=O)CSc2nc3cc(Cl)ccc3[n-]2)cc1 (protonated)
COc1ccc(NC(=O)CSc2nc3cc(Cl)ccc3[n-]2)cc1 (3D coordinates assigned)
COc1ccc(NC(=O)CSc2nc3cc(Cl)ccc3[n-]2)cc1 (optimized conformer: 68.4556753222891 kcal/mol)

>  <smiles>  (33) 
COc1ccc(NC(=O)CSc2nc3cc(Cl)ccc3[nH]2)cc1

>  <score_type>  (33) 
oracle

>  <origin>  (33) 
adg

>  <m_score__min__energy>  (33) 
-8.7699999999999996

>  <m_primary>  (33) 
energy

$$$$
33:0
     RDKit          3D

 67 70  0  0  0  0  0  0  0  0999 V2000
   60.4321   36.2070   46.5956 H   0  0  0  0  0  0  0  0  0  0  0  0
   59.8500   35.3010   46.8200 C   0  0  0  0  0  0  0  0  0  0  0  0
   58.9220   34.8220   45.8920 C   0  0  0  0  0  0  0  0  0  0  0  0
   58.7757   35.3518   44.9391 H   0  0  0  0  0  0  0  0  0  0  0  0
   58.1760   33.6670   46.1720 C   0  0  0  0  0  0  0  0  0  0  0  0
   57.1140   33.1960   45.2140 C   0  0  0  0  0  0  0  0  0  0  0  0
   56.4213   34.0227   44.9976 H   0  0  0  0  0  0  0  0  0  0  0  0
   56.5559   32.3614   45.6633 H   0  0  0  0  0  0  0  0  0  0  0  0
   57.7610   32.7410   43.9450 C   0  0  0  0  0  0  0  0  0  0  0  0
   58.6970   33.4180   43.4410 O   0  0  0  0  0  0  0  0  0  0  0  0
   57.3360   31.5140   43.3390 N   0  0  0  0  0  0  0  0  0  0  0  0
   57.0870   30.4140   43.9840 C   0  0  0  0  0  0  0  0  0  0  0  0
   55.8810   30.1570   44.5360 N   0  0  0  0  0  0  0  0  0  0  0  0
   55.8600   29.0280   45.2410 N   0  0  0  0  0  0  0  0  0  0  0  0
   57.0500   28.3900   45.2580 C   0  0  0  0  0  0  0  0  0  0  0  0
   57.3720   26.8990   46.1980 S   0  0  0  0  0  0  0  0  0  0  0  0
   59.0940   27.3420   46.6360 C   0  0  0  0  0  0  0  0  0  0  0  0
   59.6832   27.4354   45.7118 H   0  0  0  0  0  0  0  0  0  0  0  0
   59.4957   26.5490   47.2839 H   0  0  0  0  0  0  0  0  0  0  0  0
   59.1640   28.6360   47.3880 C   0  0  0  0  0  0  0  0  0  0  0  0
   58.2410   28.9350   48.1940 O   0  0  0  0  0  0  0  0  0  0  0  0
   60.1850   29.5880   47.0670 N   0  0  0  0  0  0  0  0  0  0  0  0
   60.9870   30.2430   47.8610 C   0  0  0  0  0  0  0  0  0  0  0  0
   61.7380   31.3180   47.4420 C   0  0  0  0  0  0  0  0  0  0  0  0
   61.7919   31.7515   46.4324 H   0  0  0  0  0  0  0  0  0  0  0  0
   62.4110   31.7300   48.5820 C   0  0  0  0  0  0  0  0  0  0  0  0
   63.3700   32.9040   48.6820 C   0  0  0  0  0  0  0  0  0  0  0  0
   62.7350   34.0510   49.4960 C   0  0  0  0  0  0  0  0  0  0  0  0
   62.8491   33.8449   50.5705 H   0  0  0  0  0  0  0  0  0  0  0  0
   63.2374   34.9978   49.2489 H   0  0  0  0  0  0  0  0  0  0  0  0
   61.6659   34.1278   49.2489 H   0  0  0  0  0  0  0  0  0  0  0  0
   64.6610   32.4440   49.3790 C   0  0  0  0  0  0  0  0  0  0  0  0
   64.5260   32.4921   50.4696 H   0  0  0  0  0  0  0  0  0  0  0  0
   64.8888   31.4094   49.0830 H   0  0  0  0  0  0  0  0  0  0  0  0
   65.4918   33.1014   49.0830 H   0  0  0  0  0  0  0  0  0  0  0  0
   63.7000   33.4280   47.2690 C   0  0  0  0  0  0  0  0  0  0  0  0
   64.2846   34.3563   47.3495 H   0  0  0  0  0  0  0  0  0  0  0  0
   64.2853   32.6720   46.7250 H   0  0  0  0  0  0  0  0  0  0  0  0
   62.7653   33.6293   46.7250 H   0  0  0  0  0  0  0  0  0  0  0  0
   62.1090   30.9020   49.6060 N   0  0  0  0  0  0  0  0  0  0  0  0
   61.2460   29.9970   49.1720 N   0  0  0  0  0  0  0  0  0  0  0  0
   60.7980   28.9030   50.0300 C   0  0  0  0  0  0  0  0  0  0  0  0
   60.9164   29.1921   51.0847 H   0  0  0  0  0  0  0  0  0  0  0  0
   59.7390   28.6869   49.8257 H   0  0  0  0  0  0  0  0  0  0  0  0
   61.4013   28.0062   49.8257 H   0  0  0  0  0  0  0  0  0  0  0  0
   58.2150   29.2140   44.3650 S   0  0  0  0  0  0  0  0  0  0  0  0
   58.3620   33.0050   47.3990 C   0  0  0  0  0  0  0  0  0  0  0  0
   57.7574   32.1172   47.6361 H   0  0  0  0  0  0  0  0  0  0  0  0
   59.3130   33.4670   48.3250 C   0  0  0  0  0  0  0  0  0  0  0  0
   59.5140   32.7520   49.6490 C   0  0  0  0  0  0  0  0  0  0  0  0
   60.1300   31.8593   49.4654 H   0  0  0  0  0  0  0  0  0  0  0  0
   59.9911   33.4786   50.3231 H   0  0  0  0  0  0  0  0  0  0  0  0
   58.2630   32.3190   50.3210 N   0  0  0  0  0  0  0  0  0  0  0  0
   58.1590   30.8670   50.5110 C   0  0  0  0  0  0  0  0  0  0  0  0
   57.1344   30.5338   50.2891 H   0  0  0  0  0  0  0  0  0  0  0  0
   58.8504   30.3423   49.8352 H   0  0  0  0  0  0  0  0  0  0  0  0
   58.5010   30.5570   51.9650 C   0  0  0  0  0  0  0  0  0  0  0  0
   57.7527   29.8766   52.3976 H   0  0  0  0  0  0  0  0  0  0  0  0
   59.4794   30.0621   52.0536 H   0  0  0  0  0  0  0  0  0  0  0  0
   58.4830   31.8930   52.6900 C   0  0  0  0  0  0  0  0  0  0  0  0
   57.7605   31.8700   53.5191 H   0  0  0  0  0  0  0  0  0  0  0  0
   59.4646   32.1329   53.1246 H   0  0  0  0  0  0  0  0  0  0  0  0
   58.0630   32.9200   51.6480 C   0  0  0  0  0  0  0  0  0  0  0  0
   57.0032   33.1808   51.7851 H   0  0  0  0  0  0  0  0  0  0  0  0
   58.6610   33.8377   51.7491 H   0  0  0  0  0  0  0  0  0  0  0  0
   60.0410   34.6330   48.0320 C   0  0  0  0  0  0  0  0  0  0  0  0
   60.7661   35.0222   48.7619 H   0  0  0  0  0  0  0  0  0  0  0  0
  1  2  1  0
  2  3  2  0
  3  4  1  0
  3  5  1  0
  5  6  1  0
  6  7  1  0
  6  8  1  0
  6  9  1  0
  9 10  2  0
  9 11  1  0
 11 12  2  0
 12 13  1  0
 13 14  1  0
 14 15  2  0
 15 16  1  0
 16 17  1  0
 17 18  1  0
 17 19  1  0
 17 20  1  0
 20 21  2  0
 20 22  1  0
 22 23  2  3
 23 24  1  0
 24 25  1  0
 24 26  2  0
 26 27  1  0
 27 28  1  0
 28 29  1  0
 28 30  1  0
 28 31  1  0
 27 32  1  0
 32 33  1  0
 32 34  1  0
 32 35  1  0
 27 36  1  0
 36 37  1  0
 36 38  1  0
 36 39  1  0
 26 40  1  0
 40 41  1  0
 41 42  1  0
 42 43  1  0
 42 44  1  0
 42 45  1  0
 15 46  1  0
  5 47  2  0
 47 48  1  0
 47 49  1  0
 49 50  1  0
 50 51  1  0
 50 52  1  0
 50 53  1  0
 53 54  1  0
 54 55  1  0
 54 56  1  0
 54 57  1  0
 57 58  1  0
 57 59  1  0
 57 60  1  0
 60 61  1  0
 60 62  1  0
 60 63  1  0
 63 64  1  0
 63 65  1  0
 49 66  2  0
 66 67  1  0
 66  2  1  0
 46 12  1  0
 63 53  1  0
 41 23  1  0
M  CHG  2  13  -1  40  -1
M  END
>  <UniqueID>  (34) 
30

>  <SMILES>  (34) 
Cn1[n-]c(C(C)(C)C)cc1=NC(=O)CSc1n[n-]/c(=N/C(=O)Cc2cccc(CN3CCCC3)c2)s1

>  <Energy>  (34) 
139.73018386017245

>  <Genealogy>  (34) 
Cn1[n-]c(C(C)(C)C)cc1=NC(=O)CSc1n[n-]c(=NC(=O)Cc2cccc(CN3CCCC3)c2)s1 (protonated)
Cn1[n-]c(C(C)(C)C)cc1=NC(=O)CSc1n[n-]/c(=N/C(=O)Cc2cccc(CN3CCCC3)c2)s1 (cis-trans isomerization)
Cn1[n-]c(C(C)(C)C)cc1=NC(=O)CSc1n[n-]/c(=N/C(=O)Cc2cccc(CN3CCCC3)c2)s1 (3D coordinates assigned)
Cn1[n-]c(C(C)(C)C)cc1=NC(=O)CSc1n[n-]/c(=N/C(=O)Cc2cccc(CN3CCCC3)c2)s1 (nonaromatic ring conformer: 139.73018386017245 kcal/mol)

>  <smiles>  (34) 
Cn1[nH]c(C(C)(C)C)cc1=NC(=O)CSc1n[nH]c(=NC(=O)Cc2cccc(CN3CCCC3)c2)s1

>  <score_type>  (34) 
oracle

>  <origin>  (34) 
adg

>  <m_score__min__energy>  (34) 
-13.119999999999999

>  <m_primary>  (34) 
energy

$$$$
34:0
     RDKit          3D

 46 49  0  0  0  0  0  0  0  0999 V2000
   52.8390   23.8410   45.4990 H   0  0  0  0  0  0  0  0  0  0  0  0
   53.3030   24.7690   45.6170 N   0  0  0  0  0  0  0  0  0  0  0  0
   54.5480   24.8640   45.9490 C   0  0  0  0  0  0  0  0  0  0  0  0
   55.1780   23.8130   46.5710 N   0  0  0  0  0  0  0  0  0  0  0  0
   56.4930   23.8890   46.9300 C   0  0  0  0  0  0  0  0  0  0  0  0
   57.0610   22.9210   47.5010 O   0  0  0  0  0  0  0  0  0  0  0  0
   57.1750   25.0620   46.6460 C   0  0  0  0  0  0  0  0  0  0  0  0
   58.4520   25.3870   46.8940 N   0  0  0  0  0  0  0  0  0  0  0  0
   58.5210   26.6510   46.3970 C   0  0  0  0  0  0  0  0  0  0  0  0
   60.0220   27.6240   46.4500 S   0  0  0  0  0  0  0  0  0  0  0  0
   59.5670   28.5190   47.9780 C   0  0  0  0  0  0  0  0  0  0  0  0
   58.8718   27.8980   48.5620 H   0  0  0  0  0  0  0  0  0  0  0  0
   60.4871   28.7192   48.5466 H   0  0  0  0  0  0  0  0  0  0  0  0
   58.9060   29.8370   47.6720 C   0  0  0  0  0  0  0  0  0  0  0  0
   59.2780   30.8650   48.2980 O   0  0  0  0  0  0  0  0  0  0  0  0
   57.8190   29.9540   46.7440 N   0  0  0  0  0  0  0  0  0  0  0  0
   57.7860   30.7890   45.5810 C   0  0  0  0  0  0  0  0  0  0  0  0
   57.6520   30.2450   44.2940 C   0  0  0  0  0  0  0  0  0  0  0  0
   57.5602   29.1565   44.1649 H   0  0  0  0  0  0  0  0  0  0  0  0
   57.6350   31.0840   43.1760 C   0  0  0  0  0  0  0  0  0  0  0  0
   57.5064   30.6564   42.1707 H   0  0  0  0  0  0  0  0  0  0  0  0
   57.7810   32.4640   43.3330 C   0  0  0  0  0  0  0  0  0  0  0  0
   57.7449   33.1231   42.4531 H   0  0  0  0  0  0  0  0  0  0  0  0
   57.9740   33.0130   44.6130 C   0  0  0  0  0  0  0  0  0  0  0  0
   58.1340   34.4260   44.8120 N   0  0  0  0  0  0  0  0  0  0  0  0
   59.2610   35.0730   45.4190 C   0  0  0  0  0  0  0  0  0  0  0  0
   59.6400   36.1810   44.9540 O   0  0  0  0  0  0  0  0  0  0  0  0
   59.9530   34.5060   46.6000 C   0  0  0  0  0  0  0  0  0  0  0  0
   59.3720   34.5740   47.8780 C   0  0  0  0  0  0  0  0  0  0  0  0
   58.3959   35.0641   48.0089 H   0  0  0  0  0  0  0  0  0  0  0  0
   60.0250   34.0240   48.9820 C   0  0  0  0  0  0  0  0  0  0  0  0
   59.5543   34.0669   49.9753 H   0  0  0  0  0  0  0  0  0  0  0  0
   61.2750   33.4190   48.8290 C   0  0  0  0  0  0  0  0  0  0  0  0
   61.7753   32.9698   49.6996 H   0  0  0  0  0  0  0  0  0  0  0  0
   61.8970   33.3810   47.5690 C   0  0  0  0  0  0  0  0  0  0  0  0
   63.2260   32.6930   47.3900 C   0  0  0  0  0  0  0  0  0  0  0  0
   63.9020   33.2780   46.3360 F   0  0  0  0  0  0  0  0  0  0  0  0
   63.9920   32.8120   48.5370 F   0  0  0  0  0  0  0  0  0  0  0  0
   63.0540   31.3470   47.1230 F   0  0  0  0  0  0  0  0  0  0  0  0
   61.2200   33.9110   46.4570 C   0  0  0  0  0  0  0  0  0  0  0  0
   61.6867   33.8599   45.4622 H   0  0  0  0  0  0  0  0  0  0  0  0
   57.9650   32.1690   45.7310 C   0  0  0  0  0  0  0  0  0  0  0  0
   58.0999   32.5948   46.7362 H   0  0  0  0  0  0  0  0  0  0  0  0
   57.3650   27.1220   45.8550 N   0  0  0  0  0  0  0  0  0  0  0  0
   56.5400   26.0840   46.0340 C   0  0  0  0  0  0  0  0  0  0  0  0
   55.2350   26.0150   45.6750 N   0  0  0  0  0  0  0  0  0  0  0  0
  1  2  1  0
  2  3  2  0
  3  4  1  0
  4  5  1  0
  5  6  2  0
  5  7  1  0
  7  8  1  0
  8  9  1  0
  9 10  1  0
 10 11  1  0
 11 12  1  0
 11 13  1  0
 11 14  1  0
 14 15  2  0
 14 16  1  0
 16 17  1  0
 17 18  2  0
 18 19  1  0
 18 20  1  0
 20 21  1  0
 20 22  2  0
 22 23  1  0
 22 24  1  0
 24 25  1  0
 25 26  1  0
 26 27  2  0
 26 28  1  0
 28 29  2  0
 29 30  1  0
 29 31  1  0
 31 32  1  0
 31 33  2  0
 33 34  1  0
 33 35  1  0
 35 36  1  0
 36 37  1  0
 36 38  1  0
 36 39  1  0
 35 40  2  0
 40 41  1  0
 24 42  2  0
 42 43  1  0
  9 44  2  0
 44 45  1  0
 45 46  1  0
 46  3  1  0
 45  7  2  0
 42 17  1  0
 40 28  1  0
M  CHG  5   4  -1   8  -1  16  -1  25  -1  46  -1
M  END
>  <UniqueID>  (35) 
31

>  <SMILES>  (35) 
[H]/N=c1\[n-]c(=O)c2[n-]c(SCC(=O)[N-]c3cccc([N-]C(=O)c4cccc(C(F)(F)F)c4)c3)nc2[n-]1

>  <Energy>  (35) 
97.45258074520399

>  <Genealogy>  (35) 
N=c1[n-]c(=O)c2[n-]c(SCC(=O)[N-]c3cccc([N-]C(=O)c4cccc(C(F)(F)F)c4)c3)nc2[n-]1 (protonated)
[H]/N=c1\[n-]c(=O)c2[n-]c(SCC(=O)[N-]c3cccc([N-]C(=O)c4cccc(C(F)(F)F)c4)c3)nc2[n-]1 (cis-trans isomerization)
[H]/N=c1\[n-]c(=O)c2[n-]c(SCC(=O)[N-]c3cccc([N-]C(=O)c4cccc(C(F)(F)F)c4)c3)nc2[n-]1 (3D coordinates assigned)
[H]/N=c1\[n-]c(=O)c2[n-]c(SCC(=O)[N-]c3cccc([N-]C(=O)c4cccc(C(F)(F)F)c4)c3)nc2[n-]1 (optimized conformer: 97.45258074520399 kcal/mol)

>  <smiles>  (35) 
N=c1[nH]c(=O)c2[nH]c(SCC(=O)Nc3cccc(NC(=O)c4cccc(C(F)(F)F)c4)c3)nc2[nH]1

>  <score_type>  (35) 
oracle

>  <origin>  (35) 
adg

>  <m_score__min__energy>  (35) 
-16.98

>  <m_primary>  (35) 
energy

$$$$
35:0
     RDKit          3D

 46 46  0  0  0  0  0  0  0  0999 V2000
   58.1530   26.8460   46.9810 C   0  0  0  0  0  0  0  0  0  0  0  0
   57.1570   26.7450   45.9040 N   0  0  0  0  0  0  0  0  0  0  0  0
   56.2920   25.5770   46.1410 C   0  0  0  0  0  0  0  0  0  0  0  0
   57.8340   26.6480   44.5910 C   0  0  0  0  0  0  0  0  0  0  0  0
   57.7680   27.9810   43.8300 C   0  0  0  0  0  0  0  0  0  0  0  0
   57.3080   29.0680   44.6980 N   0  0  0  0  0  0  0  0  0  0  0  0
   57.6290   30.4570   44.5040 C   0  0  0  0  0  0  0  0  0  0  0  0
   57.9700   30.9100   43.3320 N   0  0  0  0  0  0  0  0  0  0  0  0
   57.5060   31.3550   45.6220 N   0  0  0  0  0  0  0  0  0  0  0  0
   58.2190   32.5950   45.7110 C   0  0  0  0  0  0  0  0  0  0  0  0
   57.7610   33.6620   44.9200 C   0  0  0  0  0  0  0  0  0  0  0  0
   58.4470   34.8700   44.8840 C   0  0  0  0  0  0  0  0  0  0  0  0
   59.6130   35.0250   45.6240 C   0  0  0  0  0  0  0  0  0  0  0  0
   60.0840   33.9810   46.4200 C   0  0  0  0  0  0  0  0  0  0  0  0
   59.3880   32.7470   46.5230 C   0  0  0  0  0  0  0  0  0  0  0  0
   59.9350   31.6160   47.4440 C   0  0  0  0  0  0  0  0  0  0  0  0
   58.9050   31.2090   48.5310 C   0  0  0  0  0  0  0  0  0  0  0  0
   61.2190   32.0510   48.2040 C   0  0  0  0  0  0  0  0  0  0  0  0
   60.2970   30.3910   46.5820 C   0  0  0  0  0  0  0  0  0  0  0  0
   57.6456   26.7946   47.9556 H   0  0  0  0  0  0  0  0  0  0  0  0
   58.8698   26.0159   46.8965 H   0  0  0  0  0  0  0  0  0  0  0  0
   58.6886   27.8031   46.8965 H   0  0  0  0  0  0  0  0  0  0  0  0
   56.1760   25.4203   47.2236 H   0  0  0  0  0  0  0  0  0  0  0  0
   55.3052   25.7536   45.6882 H   0  0  0  0  0  0  0  0  0  0  0  0
   56.7487   24.6846   45.6882 H   0  0  0  0  0  0  0  0  0  0  0  0
   58.8884   26.3781   44.7504 H   0  0  0  0  0  0  0  0  0  0  0  0
   57.3224   25.8802   43.9921 H   0  0  0  0  0  0  0  0  0  0  0  0
   58.7705   28.2263   43.4495 H   0  0  0  0  0  0  0  0  0  0  0  0
   57.0527   27.8724   43.0014 H   0  0  0  0  0  0  0  0  0  0  0  0
   56.7980   28.7990   45.5690 H   0  0  0  0  0  0  0  0  0  0  0  0
   57.7340   31.8830   43.0350 H   0  0  0  0  0  0  0  0  0  0  0  0
   58.4550   30.3140   42.6270 H   0  0  0  0  0  0  0  0  0  0  0  0
   57.0210   31.0070   46.4770 H   0  0  0  0  0  0  0  0  0  0  0  0
   56.8467   33.5395   44.3208 H   0  0  0  0  0  0  0  0  0  0  0  0
   58.0681   35.7013   44.2714 H   0  0  0  0  0  0  0  0  0  0  0  0
   60.1666   35.9746   45.5818 H   0  0  0  0  0  0  0  0  0  0  0  0
   61.0192   34.1168   46.9829 H   0  0  0  0  0  0  0  0  0  0  0  0
   59.3372   31.3798   49.5280 H   0  0  0  0  0  0  0  0  0  0  0  0
   57.9938   31.8146   48.4178 H   0  0  0  0  0  0  0  0  0  0  0  0
   58.6539   30.1441   48.4178 H   0  0  0  0  0  0  0  0  0  0  0  0
   61.0416   31.9909   49.2879 H   0  0  0  0  0  0  0  0  0  0  0  0
   62.0503   31.3843   47.9310 H   0  0  0  0  0  0  0  0  0  0  0  0
   61.4739   33.0856   47.9310 H   0  0  0  0  0  0  0  0  0  0  0  0
   60.5475   29.5432   47.2366 H   0  0  0  0  0  0  0  0  0  0  0  0
   59.4396   30.1232   45.9471 H   0  0  0  0  0  0  0  0  0  0  0  0
   61.1623   30.6322   45.9471 H   0  0  0  0  0  0  0  0  0  0  0  0
  1  2  1  0
  2  3  1  0
  2  4  1  0
  4  5  1  0
  5  6  1  0
  6  7  1  0
  7  8  2  0
  7  9  1  0
  9 10  1  0
 10 11  2  0
 11 12  1  0
 12 13  2  0
 13 14  1  0
 14 15  2  0
 15 16  1  0
 16 17  1  0
 16 18  1  0
 16 19  1  0
 15 10  1  0
  1 20  1  0
  1 21  1  0
  1 22  1  0
  3 23  1  0
  3 24  1  0
  3 25  1  0
  4 26  1  0
  4 27  1  0
  5 28  1  0
  5 29  1  0
  6 30  1  0
  8 31  1  0
  8 32  1  0
  9 33  1  0
 11 34  1  0
 12 35  1  0
 13 36  1  0
 14 37  1  0
 17 38  1  0
 17 39  1  0
 17 40  1  0
 18 41  1  0
 18 42  1  0
 18 43  1  0
 19 44  1  0
 19 45  1  0
 19 46  1  0
M  CHG  1   8   1
M  END
>  <UniqueID>  (36) 
32

>  <SMILES>  (36) 
CN(C)CCNC(=[NH2+])Nc1ccccc1C(C)(C)C

>  <Energy>  (36) 
53.612830664295316

>  <Genealogy>  (36) 
CN(C)CCNC(=[NH2+])Nc1ccccc1C(C)(C)C (protonated)
CN(C)CCNC(=[NH2+])Nc1ccccc1C(C)(C)C (3D coordinates assigned)
CN(C)CCNC(=[NH2+])Nc1ccccc1C(C)(C)C (optimized conformer: 53.612830664295316 kcal/mol)

>  <smiles>  (36) 
CN(C)CCNC(=N)Nc1ccccc1C(C)(C)C

>  <score_type>  (36) 
oracle

>  <origin>  (36) 
adg

>  <m_score__min__energy>  (36) 
-3.9100000000000001

>  <m_primary>  (36) 
energy

$$$$
36:0
     RDKit          3D

 41 44  0  0  0  0  0  0  0  0999 V2000
   54.5160   26.1630   45.6350 O   0  0  0  0  0  0  0  0  0  0  0  0
   55.1680   25.0040   46.0410 C   0  0  0  0  0  0  0  0  0  0  0  0
   54.4800   23.7880   45.9510 C   0  0  0  0  0  0  0  0  0  0  0  0
   55.0940   22.5980   46.3440 C   0  0  0  0  0  0  0  0  0  0  0  0
   56.4000   22.6150   46.8310 C   0  0  0  0  0  0  0  0  0  0  0  0
   57.0970   23.8220   46.9260 C   0  0  0  0  0  0  0  0  0  0  0  0
   56.4960   25.0370   46.5350 C   0  0  0  0  0  0  0  0  0  0  0  0
   57.2670   26.3070   46.6490 C   0  0  0  0  0  0  0  0  0  0  0  0
   58.1680   26.4690   47.6550 N   0  0  0  0  0  0  0  0  0  0  0  0
   58.8970   27.6100   47.7950 C   0  0  0  0  0  0  0  0  0  0  0  0
   59.8750   27.7160   48.9080 C   0  0  0  0  0  0  0  0  0  0  0  0
   60.4160   26.5470   49.4780 C   0  0  0  0  0  0  0  0  0  0  0  0
   61.3320   26.6290   50.5320 C   0  0  0  0  0  0  0  0  0  0  0  0
   61.7120   27.8740   51.0350 C   0  0  0  0  0  0  0  0  0  0  0  0
   61.1740   29.0410   50.4880 C   0  0  0  0  0  0  0  0  0  0  0  0
   60.2590   28.9660   49.4330 C   0  0  0  0  0  0  0  0  0  0  0  0
   58.7210   28.6450   46.8650 C   0  0  0  0  0  0  0  0  0  0  0  0
   57.7770   28.4840   45.8430 C   0  0  0  0  0  0  0  0  0  0  0  0
   57.5520   29.5350   44.8220 C   0  0  0  0  0  0  0  0  0  0  0  0
   58.6570   30.2410   44.3140 C   0  0  0  0  0  0  0  0  0  0  0  0
   58.4790   31.2420   43.3550 C   0  0  0  0  0  0  0  0  0  0  0  0
   57.2010   31.5420   42.8850 C   0  0  0  0  0  0  0  0  0  0  0  0
   56.0960   30.8370   43.3650 C   0  0  0  0  0  0  0  0  0  0  0  0
   56.2620   29.8250   44.3230 C   0  0  0  0  0  0  0  0  0  0  0  0
   55.1530   29.0970   44.7560 O   0  0  0  0  0  0  0  0  0  0  0  0
   57.0850   27.3160   45.7580 N   0  0  0  0  0  0  0  0  0  0  0  0
   53.4489   23.7705   45.5681 H   0  0  0  0  0  0  0  0  0  0  0  0
   54.5473   21.6464   46.2695 H   0  0  0  0  0  0  0  0  0  0  0  0
   56.8826   21.6764   47.1410 H   0  0  0  0  0  0  0  0  0  0  0  0
   58.1276   23.8251   47.3106 H   0  0  0  0  0  0  0  0  0  0  0  0
   60.1158   25.5619   49.0913 H   0  0  0  0  0  0  0  0  0  0  0  0
   61.7537   25.7101   50.9653 H   0  0  0  0  0  0  0  0  0  0  0  0
   62.4348   27.9362   51.8618 H   0  0  0  0  0  0  0  0  0  0  0  0
   61.4707   30.0218   50.8880 H   0  0  0  0  0  0  0  0  0  0  0  0
   59.8361   29.8892   49.0101 H   0  0  0  0  0  0  0  0  0  0  0  0
   59.3147   29.5682   46.9371 H   0  0  0  0  0  0  0  0  0  0  0  0
   59.6689   30.0037   44.6741 H   0  0  0  0  0  0  0  0  0  0  0  0
   59.3490   31.7943   42.9702 H   0  0  0  0  0  0  0  0  0  0  0  0
   57.0634   32.3350   42.1352 H   0  0  0  0  0  0  0  0  0  0  0  0
   55.0897   31.0759   42.9904 H   0  0  0  0  0  0  0  0  0  0  0  0
   55.1910   28.0920   44.8750 H   0  0  0  0  0  0  0  0  0  0  0  0
  1  2  1  0
  2  3  2  0
  3  4  1  0
  4  5  2  0
  5  6  1  0
  6  7  2  0
  7  8  1  0
  8  9  2  0
  9 10  1  0
 10 11  1  0
 11 12  2  0
 12 13  1  0
 13 14  2  0
 14 15  1  0
 15 16  2  0
 10 17  2  0
 17 18  1  0
 18 19  1  0
 19 20  2  0
 20 21  1  0
 21 22  2  0
 22 23  1  0
 23 24  2  0
 24 25  1  0
 18 26  2  0
  7  2  1  0
 26  8  1  0
 16 11  1  0
 24 19  1  0
  3 27  1  0
  4 28  1  0
  5 29  1  0
  6 30  1  0
 12 31  1  0
 13 32  1  0
 14 33  1  0
 15 34  1  0
 16 35  1  0
 17 36  1  0
 20 37  1  0
 21 38  1  0
 22 39  1  0
 23 40  1  0
 25 41  1  0
M  CHG  1   1  -1
M  END
>  <UniqueID>  (37) 
33

>  <SMILES>  (37) 
[O-]c1ccccc1-c1nc(-c2ccccc2)cc(-c2ccccc2O)n1

>  <Energy>  (37) 
59.200897399939045

>  <Genealogy>  (37) 
[O-]c1ccccc1-c1nc(-c2ccccc2)cc(-c2ccccc2O)n1 (protonated)
[O-]c1ccccc1-c1nc(-c2ccccc2)cc(-c2ccccc2O)n1 (3D coordinates assigned)
[O-]c1ccccc1-c1nc(-c2ccccc2)cc(-c2ccccc2O)n1 (optimized conformer: 59.200897399939045 kcal/mol)

>  <smiles>  (37) 
Oc1ccccc1-c1cc(-c2ccccc2)nc(-c2ccccc2O)n1

>  <score_type>  (37) 
oracle

>  <origin>  (37) 
adg

>  <m_score__min__energy>  (37) 
-11.449999999999999

>  <m_primary>  (37) 
energy

$$$$
37:0
     RDKit          3D

 42 45  0  0  0  0  0  0  0  0999 V2000
   55.1650   26.6670   45.9490 N   0  0  0  0  0  0  0  0  0  0  0  0
   56.8510   27.0410   45.9490 S   0  0  0  0  0  0  0  0  0  0  0  0
   57.5650   26.1460   44.9750 O   0  0  0  0  0  0  0  0  0  0  0  0
   57.4190   26.8100   47.3210 O   0  0  0  0  0  0  0  0  0  0  0  0
   57.0760   28.7250   45.4890 C   0  0  0  0  0  0  0  0  0  0  0  0
   56.2370   29.3130   44.5340 C   0  0  0  0  0  0  0  0  0  0  0  0
   56.4040   30.6550   44.1850 C   0  0  0  0  0  0  0  0  0  0  0  0
   57.4060   31.4180   44.7880 C   0  0  0  0  0  0  0  0  0  0  0  0
   58.2600   30.8440   45.7480 C   0  0  0  0  0  0  0  0  0  0  0  0
   59.3160   31.6640   46.3920 C   0  0  0  0  0  0  0  0  0  0  0  0
   59.0100   32.7670   46.9210 O   0  0  0  0  0  0  0  0  0  0  0  0
   60.6900   31.2390   46.3750 N   0  0  0  0  0  0  0  0  0  0  0  0
   61.6870   31.7240   47.2910 C   0  0  0  0  0  0  0  0  0  0  0  0
   61.8990   31.1090   48.5380 C   0  0  0  0  0  0  0  0  0  0  0  0
   62.8900   31.5840   49.4020 C   0  0  0  0  0  0  0  0  0  0  0  0
   63.6960   32.6740   49.0330 C   0  0  0  0  0  0  0  0  0  0  0  0
   64.7440   33.1770   49.9480 C   0  0  0  0  0  0  0  0  0  0  0  0
   66.0580   32.8510   49.8170 N   0  0  0  0  0  0  0  0  0  0  0  0
   66.6290   33.5110   50.8330 C   0  0  0  0  0  0  0  0  0  0  0  0
   67.9780   33.5390   51.1840 C   0  0  0  0  0  0  0  0  0  0  0  0
   68.3450   34.3120   52.3020 C   0  0  0  0  0  0  0  0  0  0  0  0
   67.3670   35.0270   53.0310 C   0  0  0  0  0  0  0  0  0  0  0  0
   66.0140   34.9740   52.6450 C   0  0  0  0  0  0  0  0  0  0  0  0
   65.6880   34.1990   51.5340 C   0  0  0  0  0  0  0  0  0  0  0  0
   64.4770   34.0060   50.9940 N   0  0  0  0  0  0  0  0  0  0  0  0
   63.4950   33.2740   47.7780 C   0  0  0  0  0  0  0  0  0  0  0  0
   62.5050   32.7980   46.9140 C   0  0  0  0  0  0  0  0  0  0  0  0
   58.0780   29.4930   46.1000 C   0  0  0  0  0  0  0  0  0  0  0  0
   54.7600   27.0850   46.8160 H   0  0  0  0  0  0  0  0  0  0  0  0
   55.4448   28.7166   44.0578 H   0  0  0  0  0  0  0  0  0  0  0  0
   55.7442   31.1122   43.4329 H   0  0  0  0  0  0  0  0  0  0  0  0
   57.5287   32.4754   44.5106 H   0  0  0  0  0  0  0  0  0  0  0  0
   61.0060   30.6320   45.5860 H   0  0  0  0  0  0  0  0  0  0  0  0
   61.2811   30.2488   48.8353 H   0  0  0  0  0  0  0  0  0  0  0  0
   63.0399   31.1005   50.3786 H   0  0  0  0  0  0  0  0  0  0  0  0
   68.7284   32.9775   50.6082 H   0  0  0  0  0  0  0  0  0  0  0  0
   69.3998   34.3600   52.6105 H   0  0  0  0  0  0  0  0  0  0  0  0
   67.6645   35.6273   53.9035 H   0  0  0  0  0  0  0  0  0  0  0  0
   65.2414   35.5252   53.2011 H   0  0  0  0  0  0  0  0  0  0  0  0
   64.1219   34.1250   47.4734 H   0  0  0  0  0  0  0  0  0  0  0  0
   62.3666   33.2700   45.9301 H   0  0  0  0  0  0  0  0  0  0  0  0
   58.7274   29.0357   46.8610 H   0  0  0  0  0  0  0  0  0  0  0  0
  1  2  1  0
  2  3  2  0
  2  4  2  0
  2  5  1  0
  5  6  2  0
  6  7  1  0
  7  8  2  0
  8  9  1  0
  9 10  1  0
 10 11  2  0
 10 12  1  0
 12 13  1  0
 13 14  2  0
 14 15  1  0
 15 16  2  0
 16 17  1  0
 17 18  2  0
 18 19  1  0
 19 20  2  0
 20 21  1  0
 21 22  2  0
 22 23  1  0
 23 24  2  0
 24 25  1  0
 16 26  1  0
 26 27  2  0
  9 28  2  0
 28  5  1  0
 27 13  1  0
 25 17  1  0
 24 19  1  0
  1 29  1  0
  6 30  1  0
  7 31  1  0
  8 32  1  0
 12 33  1  0
 14 34  1  0
 15 35  1  0
 20 36  1  0
 21 37  1  0
 22 38  1  0
 23 39  1  0
 26 40  1  0
 27 41  1  0
 28 42  1  0
M  CHG  2   1  -1  25  -1
M  END
>  <UniqueID>  (38) 
34

>  <SMILES>  (38) 
[NH-]S(=O)(=O)c1cccc(C(=O)Nc2ccc(-c3nc4ccccc4[n-]3)cc2)c1

>  <Energy>  (38) 
87.77788182218379

>  <Genealogy>  (38) 
[NH-]S(=O)(=O)c1cccc(C(=O)Nc2ccc(-c3nc4ccccc4[n-]3)cc2)c1 (protonated)
[NH-]S(=O)(=O)c1cccc(C(=O)Nc2ccc(-c3nc4ccccc4[n-]3)cc2)c1 (3D coordinates assigned)
[NH-]S(=O)(=O)c1cccc(C(=O)Nc2ccc(-c3nc4ccccc4[n-]3)cc2)c1 (optimized conformer: 87.77788182218379 kcal/mol)

>  <smiles>  (38) 
NS(=O)(=O)c1cccc(C(=O)Nc2ccc(-c3nc4ccccc4[nH]3)cc2)c1

>  <score_type>  (38) 
oracle

>  <origin>  (38) 
adg

>  <m_score__min__energy>  (38) 
-11.390000000000001

>  <m_primary>  (38) 
energy

$$$$
38:0
     RDKit          3D

 45 47  0  0  0  0  0  0  0  0999 V2000
   58.0475   34.2606   52.8868 H   0  0  0  0  0  0  0  0  0  0  0  0
   58.1490   33.3940   52.2170 C   0  0  0  0  0  0  0  0  0  0  0  0
   59.0970   33.3950   51.2430 N   0  0  0  0  0  0  0  0  0  0  0  0
   59.2380   32.3370   50.4040 C   0  0  0  0  0  0  0  0  0  0  0  0
   60.1440   32.3770   49.4790 N   0  0  0  0  0  0  0  0  0  0  0  0
   60.1150   31.3970   48.0470 S   0  0  0  0  0  0  0  0  0  0  0  0
   61.5170   31.2420   47.5300 O   0  0  0  0  0  0  0  0  0  0  0  0
   59.5700   30.0380   48.3870 O   0  0  0  0  0  0  0  0  0  0  0  0
   59.1330   32.1730   46.8070 C   0  0  0  0  0  0  0  0  0  0  0  0
   59.3390   33.5180   46.4650 C   0  0  0  0  0  0  0  0  0  0  0  0
   60.1271   34.0983   46.9673 H   0  0  0  0  0  0  0  0  0  0  0  0
   58.5440   34.1210   45.4870 C   0  0  0  0  0  0  0  0  0  0  0  0
   58.7036   35.1773   45.2246 H   0  0  0  0  0  0  0  0  0  0  0  0
   57.5460   33.3850   44.8410 C   0  0  0  0  0  0  0  0  0  0  0  0
   56.9152   33.8686   44.0805 H   0  0  0  0  0  0  0  0  0  0  0  0
   57.3450   32.0350   45.1570 C   0  0  0  0  0  0  0  0  0  0  0  0
   56.2900   31.3160   44.5060 N   0  0  0  0  0  0  0  0  0  0  0  0
   56.3020   29.9090   44.2520 C   0  0  0  0  0  0  0  0  0  0  0  0
   55.5220   29.1600   44.8990 O   0  0  0  0  0  0  0  0  0  0  0  0
   57.1420   29.3820   43.2630 O   0  0  0  0  0  0  0  0  0  0  0  0
   57.7340   28.0890   43.3470 C   0  0  0  0  0  0  0  0  0  0  0  0
   56.9433   27.3277   43.4197 H   0  0  0  0  0  0  0  0  0  0  0  0
   58.3396   27.9038   42.4476 H   0  0  0  0  0  0  0  0  0  0  0  0
   58.6120   28.0180   44.5660 C   0  0  0  0  0  0  0  0  0  0  0  0
   59.8810   28.6180   44.5730 C   0  0  0  0  0  0  0  0  0  0  0  0
   60.2242   29.1861   43.6958 H   0  0  0  0  0  0  0  0  0  0  0  0
   60.7110   28.4950   45.6940 C   0  0  0  0  0  0  0  0  0  0  0  0
   61.6987   28.9792   45.7014 H   0  0  0  0  0  0  0  0  0  0  0  0
   60.2870   27.7580   46.8040 C   0  0  0  0  0  0  0  0  0  0  0  0
   60.9432   27.6567   47.6810 H   0  0  0  0  0  0  0  0  0  0  0  0
   59.0280   27.1500   46.7980 C   0  0  0  0  0  0  0  0  0  0  0  0
   58.6945   26.5682   47.6699 H   0  0  0  0  0  0  0  0  0  0  0  0
   58.1920   27.2810   45.6840 C   0  0  0  0  0  0  0  0  0  0  0  0
   57.2008   26.8041   45.6844 H   0  0  0  0  0  0  0  0  0  0  0  0
   58.1340   31.4360   46.1560 C   0  0  0  0  0  0  0  0  0  0  0  0
   57.9660   30.3834   46.4278 H   0  0  0  0  0  0  0  0  0  0  0  0
   58.4190   31.2540   50.5380 N   0  0  0  0  0  0  0  0  0  0  0  0
   57.4580   31.2120   51.5010 C   0  0  0  0  0  0  0  0  0  0  0  0
   56.6240   30.0970   51.6360 O   0  0  0  0  0  0  0  0  0  0  0  0
   55.4010   30.1290   52.3620 C   0  0  0  0  0  0  0  0  0  0  0  0
   55.6149   30.1234   53.4410 H   0  0  0  0  0  0  0  0  0  0  0  0
   54.8447   31.0420   52.1032 H   0  0  0  0  0  0  0  0  0  0  0  0
   54.7978   29.2463   52.1032 H   0  0  0  0  0  0  0  0  0  0  0  0
   57.3050   32.2940   52.3670 C   0  0  0  0  0  0  0  0  0  0  0  0
   56.5347   32.2802   53.1521 H   0  0  0  0  0  0  0  0  0  0  0  0
  1  2  1  0
  2  3  1  0
  3  4  1  0
  4  5  2  0
  5  6  1  0
  6  7  2  0
  6  8  2  0
  6  9  1  0
  9 10  2  0
 10 11  1  0
 10 12  1  0
 12 13  1  0
 12 14  2  0
 14 15  1  0
 14 16  1  0
 16 17  1  0
 17 18  1  0
 18 19  2  0
 18 20  1  0
 20 21  1  0
 21 22  1  0
 21 23  1  0
 21 24  1  0
 24 25  2  0
 25 26  1  0
 25 27  1  0
 27 28  1  0
 27 29  2  0
 29 30  1  0
 29 31  1  0
 31 32  1  0
 31 33  2  0
 33 34  1  0
 16 35  2  0
 35 36  1  0
  4 37  1  0
 37 38  2  0
 38 39  1  0
 39 40  1  0
 40 41  1  0
 40 42  1  0
 40 43  1  0
 38 44  1  0
 44 45  1  0
 44  2  2  0
 35  9  1  0
 33 24  1  0
M  CHG  2   3  -1  17  -1
M  END
>  <UniqueID>  (39) 
35

>  <SMILES>  (39) 
COc1cc[n-]/c(=N/S(=O)(=O)c2cccc([N-]C(=O)OCc3ccccc3)c2)n1

>  <Energy>  (39) 
46.89308900841955

>  <Genealogy>  (39) 
COc1cc[n-]c(=NS(=O)(=O)c2cccc([N-]C(=O)OCc3ccccc3)c2)n1 (protonated)
COc1cc[n-]/c(=N/S(=O)(=O)c2cccc([N-]C(=O)OCc3ccccc3)c2)n1 (cis-trans isomerization)
COc1cc[n-]/c(=N/S(=O)(=O)c2cccc([N-]C(=O)OCc3ccccc3)c2)n1 (3D coordinates assigned)
COc1cc[n-]/c(=N/S(=O)(=O)c2cccc([N-]C(=O)OCc3ccccc3)c2)n1 (optimized conformer: 46.89308900841955 kcal/mol)

>  <smiles>  (39) 
COc1cc[nH]c(=NS(=O)(=O)c2cccc(NC(=O)OCc3ccccc3)c2)n1

>  <score_type>  (39) 
oracle

>  <origin>  (39) 
adg

>  <m_score__min__energy>  (39) 
-11.69

>  <m_primary>  (39) 
energy

$$$$
39:0
     RDKit          3D

 35 37  0  0  0  0  0  0  0  0999 V2000
   58.1920   32.6990   42.5850 O   0  0  0  0  0  0  0  0  0  0  0  0
   58.2880   32.6980   43.8400 C   0  0  0  0  0  0  0  0  0  0  0  0
   58.3830   34.0040   44.5920 C   0  0  0  0  0  0  0  0  0  0  0  0
   57.6660   33.9820   45.9570 C   0  0  0  0  0  0  0  0  0  0  0  0
   58.5850   34.2410   47.0870 N   0  0  0  0  0  0  0  0  0  0  0  0
   59.8640   34.7040   46.6000 C   0  0  0  0  0  0  0  0  0  0  0  0
   60.0220   35.8060   46.0090 O   0  0  0  0  0  0  0  0  0  0  0  0
   60.9480   33.7870   46.9160 C   0  0  0  0  0  0  0  0  0  0  0  0
   62.3110   33.8490   46.6310 C   0  0  0  0  0  0  0  0  0  0  0  0
   63.1280   32.7990   47.0900 C   0  0  0  0  0  0  0  0  0  0  0  0
   62.5680   31.7270   47.8190 C   0  0  0  0  0  0  0  0  0  0  0  0
   61.1890   31.6980   48.0930 C   0  0  0  0  0  0  0  0  0  0  0  0
   60.4070   32.7520   47.6200 C   0  0  0  0  0  0  0  0  0  0  0  0
   58.9830   33.0160   47.7470 C   0  0  0  0  0  0  0  0  0  0  0  0
   58.1870   32.2830   48.3930 O   0  0  0  0  0  0  0  0  0  0  0  0
   58.5270   31.4550   44.5140 N   0  0  0  0  0  0  0  0  0  0  0  0
   57.6640   30.5030   44.7380 C   0  0  0  0  0  0  0  0  0  0  0  0
   58.0700   29.3950   45.4930 C   0  0  0  0  0  0  0  0  0  0  0  0
   57.1680   28.3580   45.7440 C   0  0  0  0  0  0  0  0  0  0  0  0
   55.9050   28.4160   45.2450 N   0  0  0  0  0  0  0  0  0  0  0  0
   55.4860   29.4680   44.4940 C   0  0  0  0  0  0  0  0  0  0  0  0
   56.3550   30.5270   44.2190 C   0  0  0  0  0  0  0  0  0  0  0  0
   59.4458   34.2320   44.7607 H   0  0  0  0  0  0  0  0  0  0  0  0
   57.8846   34.7680   43.9773 H   0  0  0  0  0  0  0  0  0  0  0  0
   56.8827   34.7543   45.9559 H   0  0  0  0  0  0  0  0  0  0  0  0
   57.2437   32.9757   46.0951 H   0  0  0  0  0  0  0  0  0  0  0  0
   58.2060   34.9300   47.7770 H   0  0  0  0  0  0  0  0  0  0  0  0
   62.7346   34.6919   46.0653 H   0  0  0  0  0  0  0  0  0  0  0  0
   64.2077   32.8134   46.8800 H   0  0  0  0  0  0  0  0  0  0  0  0
   63.2138   30.9105   48.1743 H   0  0  0  0  0  0  0  0  0  0  0  0
   60.7410   30.8703   48.6624 H   0  0  0  0  0  0  0  0  0  0  0  0
   59.0957   29.3416   45.8869 H   0  0  0  0  0  0  0  0  0  0  0  0
   57.4807   27.4926   46.3468 H   0  0  0  0  0  0  0  0  0  0  0  0
   54.4587   29.4860   44.1010 H   0  0  0  0  0  0  0  0  0  0  0  0
   56.0192   31.3732   43.6017 H   0  0  0  0  0  0  0  0  0  0  0  0
  1  2  2  0
  2  3  1  0
  3  4  1  0
  4  5  1  0
  5  6  1  0
  6  7  2  0
  6  8  1  0
  8  9  2  0
  9 10  1  0
 10 11  2  0
 11 12  1  0
 12 13  2  0
 13 14  1  0
 14 15  2  0
  2 16  1  0
 16 17  2  3
 17 18  1  0
 18 19  2  0
 19 20  1  0
 20 21  1  0
 21 22  2  0
 14  5  1  0
 22 17  1  0
 13  8  1  0
  3 23  1  0
  3 24  1  0
  4 25  1  0
  4 26  1  0
  5 27  1  0
  9 28  1  0
 10 29  1  0
 11 30  1  0
 12 31  1  0
 18 32  1  0
 19 33  1  0
 21 34  1  0
 22 35  1  0
M  CHG  2   5   1  20  -1
M  END
>  <UniqueID>  (40) 
36

>  <SMILES>  (40) 
O=C(CC[NH+]1C(=O)c2ccccc2C1=O)N=c1cc[n-]cc1

>  <Energy>  (40) 
73.42896804581572

>  <Genealogy>  (40) 
O=C(CC[NH+]1C(=O)c2ccccc2C1=O)N=c1cc[n-]cc1 (protonated)
O=C(CC[NH+]1C(=O)c2ccccc2C1=O)N=c1cc[n-]cc1 (3D coordinates assigned)
O=C(CC[NH+]1C(=O)c2ccccc2C1=O)N=c1cc[n-]cc1 (nonaromatic ring conformer: 73.42896804581572 kcal/mol)

>  <smiles>  (40) 
O=C(CCN1C(=O)c2ccccc2C1=O)N=c1cc[nH]cc1

>  <score_type>  (40) 
oracle

>  <origin>  (40) 
adg

>  <m_score__min__energy>  (40) 
-8.0700000000000003

>  <m_primary>  (40) 
energy

$$$$
40:0
     RDKit          3D

 51 54  0  0  0  0  0  0  0  0999 V2000
   55.1720   28.8050   45.6090 H   0  0  0  0  0  0  0  0  0  0  0  0
   55.1350   29.3100   44.6950 N   0  0  0  0  0  0  0  0  0  0  0  0
   56.6890   30.0220   44.4490 S   0  0  0  0  0  0  0  0  0  0  0  0
   57.0900   29.8580   43.0090 O   0  0  0  0  0  0  0  0  0  0  0  0
   56.6280   31.4900   44.7690 O   0  0  0  0  0  0  0  0  0  0  0  0
   57.8690   29.2350   45.4930 C   0  0  0  0  0  0  0  0  0  0  0  0
   59.2200   29.6060   45.4410 C   0  0  0  0  0  0  0  0  0  0  0  0
   59.5455   30.3953   44.7474 H   0  0  0  0  0  0  0  0  0  0  0  0
   60.1550   28.9760   46.2680 C   0  0  0  0  0  0  0  0  0  0  0  0
   61.2129   29.2746   46.2257 H   0  0  0  0  0  0  0  0  0  0  0  0
   59.7490   27.9640   47.1520 C   0  0  0  0  0  0  0  0  0  0  0  0
   60.7540   27.3070   48.0610 C   0  0  0  0  0  0  0  0  0  0  0  0
   60.3726   26.3218   48.3675 H   0  0  0  0  0  0  0  0  0  0  0  0
   61.7032   27.1987   47.5158 H   0  0  0  0  0  0  0  0  0  0  0  0
   60.9900   28.1220   49.2540 N   0  0  0  0  0  0  0  0  0  0  0  0
   60.3250   29.1960   49.5650 C   0  0  0  0  0  0  0  0  0  0  0  0
   59.2500   29.1360   50.3960 N   0  0  0  0  0  0  0  0  0  0  0  0
   58.5590   30.2640   50.7070 C   0  0  0  0  0  0  0  0  0  0  0  0
   57.4150   30.1960   51.5700 N   0  0  0  0  0  0  0  0  0  0  0  0
   57.2060   29.1340   52.5370 C   0  0  0  0  0  0  0  0  0  0  0  0
   57.2456   28.1516   52.0438 H   0  0  0  0  0  0  0  0  0  0  0  0
   57.9825   29.1326   53.3162 H   0  0  0  0  0  0  0  0  0  0  0  0
   55.8200   29.3820   53.1200 C   0  0  0  0  0  0  0  0  0  0  0  0
   55.0918   28.6816   52.6852 H   0  0  0  0  0  0  0  0  0  0  0  0
   55.8087   29.2305   54.2095 H   0  0  0  0  0  0  0  0  0  0  0  0
   55.4580   30.8200   52.7520 C   0  0  0  0  0  0  0  0  0  0  0  0
   54.4020   30.8829   52.4506 H   0  0  0  0  0  0  0  0  0  0  0  0
   55.5952   31.5006   53.6052 H   0  0  0  0  0  0  0  0  0  0  0  0
   56.3640   31.1970   51.5870 C   0  0  0  0  0  0  0  0  0  0  0  0
   55.8016   31.1793   50.6418 H   0  0  0  0  0  0  0  0  0  0  0  0
   56.7710   32.2126   51.7001 H   0  0  0  0  0  0  0  0  0  0  0  0
   58.9530   31.4550   50.1880 N   0  0  0  0  0  0  0  0  0  0  0  0
   60.0240   31.5220   49.3520 C   0  0  0  0  0  0  0  0  0  0  0  0
   60.4130   32.6570   48.8540 N   0  0  0  0  0  0  0  0  0  0  0  0
   59.8350   33.2820   47.6970 C   0  0  0  0  0  0  0  0  0  0  0  0
   60.4190   34.4580   47.2080 C   0  0  0  0  0  0  0  0  0  0  0  0
   61.3166   34.8660   47.6958 H   0  0  0  0  0  0  0  0  0  0  0  0
   59.8690   35.1160   46.1050 C   0  0  0  0  0  0  0  0  0  0  0  0
   60.3276   36.0444   45.7338 H   0  0  0  0  0  0  0  0  0  0  0  0
   58.7380   34.5960   45.4740 C   0  0  0  0  0  0  0  0  0  0  0  0
   58.2972   35.1225   44.6146 H   0  0  0  0  0  0  0  0  0  0  0  0
   58.1650   33.4070   45.9330 C   0  0  0  0  0  0  0  0  0  0  0  0
   57.2758   32.9989   45.4303 H   0  0  0  0  0  0  0  0  0  0  0  0
   58.7160   32.7320   47.0290 C   0  0  0  0  0  0  0  0  0  0  0  0
   58.1520   31.5130   47.4100 O   0  0  0  0  0  0  0  0  0  0  0  0
   58.5620   30.9180   48.1170 H   0  0  0  0  0  0  0  0  0  0  0  0
   60.7070   30.3900   49.0470 N   0  0  0  0  0  0  0  0  0  0  0  0
   58.3980   27.5850   47.1910 C   0  0  0  0  0  0  0  0  0  0  0  0
   58.0730   26.7866   47.8743 H   0  0  0  0  0  0  0  0  0  0  0  0
   57.4640   28.2170   46.3660 C   0  0  0  0  0  0  0  0  0  0  0  0
   56.4071   27.9142   46.4021 H   0  0  0  0  0  0  0  0  0  0  0  0
  1  2  1  0
  2  3  1  0
  3  4  2  0
  3  5  2  0
  3  6  1  0
  6  7  2  0
  7  8  1  0
  7  9  1  0
  9 10  1  0
  9 11  2  0
 11 12  1  0
 12 13  1  0
 12 14  1  0
 12 15  1  0
 15 16  2  3
 16 17  1  0
 17 18  2  0
 18 19  1  0
 19 20  1  0
 20 21  1  0
 20 22  1  0
 20 23  1  0
 23 24  1  0
 23 25  1  0
 23 26  1  0
 26 27  1  0
 26 28  1  0
 26 29  1  0
 29 30  1  0
 29 31  1  0
 18 32  1  0
 32 33  1  0
 33 34  2  0
 34 35  1  0
 35 36  2  0
 36 37  1  0
 36 38  1  0
 38 39  1  0
 38 40  2  0
 40 41  1  0
 40 42  1  0
 42 43  1  0
 42 44  2  0
 44 45  1  0
 45 46  1  0
 33 47  1  0
 11 48  1  0
 48 49  1  0
 48 50  2  0
 50 51  1  0
 50  6  1  0
 47 16  1  0
 29 19  1  0
 44 35  1  0
M  CHG  3   2  -1  32  -1  47  -1
M  END
>  <UniqueID>  (41) 
37

>  <SMILES>  (41) 
[NH-]S(=O)(=O)c1ccc(CN=c2nc(N3CCCC3)[n-]/c(=N\c3ccccc3O)[n-]2)cc1

>  <Energy>  (41) 
59.229559631322694

>  <Genealogy>  (41) 
[NH-]S(=O)(=O)c1ccc(CN=c2nc(N3CCCC3)[n-]c(=Nc3ccccc3O)[n-]2)cc1 (protonated)
[NH-]S(=O)(=O)c1ccc(CN=c2nc(N3CCCC3)[n-]/c(=N\c3ccccc3O)[n-]2)cc1 (cis-trans isomerization)
[NH-]S(=O)(=O)c1ccc(CN=c2nc(N3CCCC3)[n-]/c(=N\c3ccccc3O)[n-]2)cc1 (3D coordinates assigned)
[NH-]S(=O)(=O)c1ccc(CN=c2nc(N3CCCC3)[n-]/c(=N\c3ccccc3O)[n-]2)cc1 (nonaromatic ring conformer: 59.229559631322694 kcal/mol)

>  <smiles>  (41) 
NS(=O)(=O)c1ccc(CN=c2nc(N3CCCC3)[nH]c(=Nc3ccccc3O)[nH]2)cc1

>  <score_type>  (41) 
oracle

>  <origin>  (41) 
adg

>  <m_score__min__energy>  (41) 
-12.960000000000001

>  <m_primary>  (41) 
energy

$$$$
41:0
     RDKit          3D

 36 38  0  0  0  0  0  0  0  0999 V2000
   57.3280   30.7750   43.1960 O   0  0  0  0  0  0  0  0  0  0  0  0
   56.7570   30.1720   44.4490 S   0  0  0  0  0  0  0  0  0  0  0  0
   55.2630   30.3260   44.4300 O   0  0  0  0  0  0  0  0  0  0  0  0
   57.3940   31.0170   45.8230 N   0  0  0  0  0  0  0  0  0  0  0  0
   58.0960   32.2680   45.7830 C   0  0  0  0  0  0  0  0  0  0  0  0
   57.6590   33.3310   44.9690 C   0  0  0  0  0  0  0  0  0  0  0  0
   58.4000   34.5130   44.8940 C   0  0  0  0  0  0  0  0  0  0  0  0
   59.5840   34.6450   45.6190 C   0  0  0  0  0  0  0  0  0  0  0  0
   60.0250   33.6000   46.4340 C   0  0  0  0  0  0  0  0  0  0  0  0
   59.2790   32.4200   46.5390 C   0  0  0  0  0  0  0  0  0  0  0  0
   59.7610   31.4010   47.3740 O   0  0  0  0  0  0  0  0  0  0  0  0
   59.9520   30.0660   46.9870 C   0  0  0  0  0  0  0  0  0  0  0  0
   59.6600   29.0510   47.9060 C   0  0  0  0  0  0  0  0  0  0  0  0
   59.8330   27.7080   47.5540 C   0  0  0  0  0  0  0  0  0  0  0  0
   60.2890   27.3710   46.2780 C   0  0  0  0  0  0  0  0  0  0  0  0
   60.5680   28.3770   45.3480 C   0  0  0  0  0  0  0  0  0  0  0  0
   60.3950   29.7210   45.6950 C   0  0  0  0  0  0  0  0  0  0  0  0
   57.1540   28.4610   44.5520 C   0  0  0  0  0  0  0  0  0  0  0  0
   57.8240   27.8250   43.5000 C   0  0  0  0  0  0  0  0  0  0  0  0
   58.1260   26.4640   43.5890 C   0  0  0  0  0  0  0  0  0  0  0  0
   57.7570   25.7550   44.7360 C   0  0  0  0  0  0  0  0  0  0  0  0
   58.1250   24.0480   44.8750 Cl  0  0  0  0  0  0  0  0  0  0  0  0
   57.1120   26.3910   45.7500 N   0  0  0  0  0  0  0  0  0  0  0  0
   56.8060   27.7140   45.6850 C   0  0  0  0  0  0  0  0  0  0  0  0
   56.7296   33.2301   44.3894 H   0  0  0  0  0  0  0  0  0  0  0  0
   58.0487   35.3416   44.2615 H   0  0  0  0  0  0  0  0  0  0  0  0
   60.1709   35.5727   45.5489 H   0  0  0  0  0  0  0  0  0  0  0  0
   60.9643   33.7048   46.9968 H   0  0  0  0  0  0  0  0  0  0  0  0
   59.2927   29.3107   48.9098 H   0  0  0  0  0  0  0  0  0  0  0  0
   59.6093   26.9160   48.2839 H   0  0  0  0  0  0  0  0  0  0  0  0
   60.4286   26.3147   46.0046 H   0  0  0  0  0  0  0  0  0  0  0  0
   60.9241   28.1111   44.3418 H   0  0  0  0  0  0  0  0  0  0  0  0
   60.6052   30.5099   44.9578 H   0  0  0  0  0  0  0  0  0  0  0  0
   58.1121   28.3960   42.6050 H   0  0  0  0  0  0  0  0  0  0  0  0
   58.6486   25.9556   42.7653 H   0  0  0  0  0  0  0  0  0  0  0  0
   56.2843   28.1988   46.5234 H   0  0  0  0  0  0  0  0  0  0  0  0
  1  2  2  0
  2  3  2  0
  2  4  1  0
  4  5  1  0
  5  6  2  0
  6  7  1  0
  7  8  2  0
  8  9  1  0
  9 10  2  0
 10 11  1  0
 11 12  1  0
 12 13  2  0
 13 14  1  0
 14 15  2  0
 15 16  1  0
 16 17  2  0
  2 18  1  0
 18 19  2  0
 19 20  1  0
 20 21  2  0
 21 22  1  0
 21 23  1  0
 23 24  2  0
 10  5  1  0
 17 12  1  0
 24 18  1  0
  6 25  1  0
  7 26  1  0
  8 27  1  0
  9 28  1  0
 13 29  1  0
 14 30  1  0
 15 31  1  0
 16 32  1  0
 17 33  1  0
 19 34  1  0
 20 35  1  0
 24 36  1  0
M  CHG  1   4  -1
M  END
>  <UniqueID>  (42) 
38

>  <SMILES>  (42) 
O=S(=O)([N-]c1ccccc1Oc1ccccc1)c1ccc(Cl)nc1

>  <Energy>  (42) 
50.197867783474635

>  <Genealogy>  (42) 
O=S(=O)([N-]c1ccccc1Oc1ccccc1)c1ccc(Cl)nc1 (protonated)
O=S(=O)([N-]c1ccccc1Oc1ccccc1)c1ccc(Cl)nc1 (3D coordinates assigned)
O=S(=O)([N-]c1ccccc1Oc1ccccc1)c1ccc(Cl)nc1 (optimized conformer: 50.197867783474635 kcal/mol)

>  <smiles>  (42) 
O=S(=O)(Nc1ccccc1Oc1ccccc1)c1ccc(Cl)nc1

>  <score_type>  (42) 
oracle

>  <origin>  (42) 
adg

>  <m_score__min__energy>  (42) 
-9.5

>  <m_primary>  (42) 
energy

$$$$
42:0
     RDKit          3D

 39 41  0  0  0  0  0  0  0  0999 V2000
   60.5739   32.8302   51.4437 H   0  0  0  0  0  0  0  0  0  0  0  0
   59.5950   32.6000   50.9980 C   0  0  0  0  0  0  0  0  0  0  0  0
   58.4160   32.6720   51.8820 C   0  0  0  0  0  0  0  0  0  0  0  0
   58.5300   33.0050   53.0940 O   0  0  0  0  0  0  0  0  0  0  0  0
   57.1550   32.4140   51.3390 O   0  0  0  0  0  0  0  0  0  0  0  0
   56.0590   31.9590   52.1260 C   0  0  0  0  0  0  0  0  0  0  0  0
   55.1322   32.4330   51.7705 H   0  0  0  0  0  0  0  0  0  0  0  0
   56.2311   32.2268   53.1789 H   0  0  0  0  0  0  0  0  0  0  0  0
   55.9340   30.4680   52.0070 C   0  0  0  0  0  0  0  0  0  0  0  0
   56.9300   29.7980   51.6270 O   0  0  0  0  0  0  0  0  0  0  0  0
   54.7040   29.7840   52.2800 N   0  0  0  0  0  0  0  0  0  0  0  0
   53.4200   30.3870   52.4910 C   0  0  0  0  0  0  0  0  0  0  0  0
   52.7530   30.1530   53.7010 C   0  0  0  0  0  0  0  0  0  0  0  0
   53.2088   29.4993   54.4592 H   0  0  0  0  0  0  0  0  0  0  0  0
   51.5110   30.7460   53.9500 C   0  0  0  0  0  0  0  0  0  0  0  0
   50.9864   30.5463   54.8960 H   0  0  0  0  0  0  0  0  0  0  0  0
   50.9360   31.5920   52.9980 C   0  0  0  0  0  0  0  0  0  0  0  0
   49.9544   32.0496   53.1904 H   0  0  0  0  0  0  0  0  0  0  0  0
   51.6080   31.8570   51.8010 C   0  0  0  0  0  0  0  0  0  0  0  0
   51.0450   32.7140   50.8630 O   0  0  0  0  0  0  0  0  0  0  0  0
   52.8500   31.2620   51.5490 C   0  0  0  0  0  0  0  0  0  0  0  0
   53.3818   31.4796   50.6110 H   0  0  0  0  0  0  0  0  0  0  0  0
   59.5730   32.2770   49.6950 C   0  0  0  0  0  0  0  0  0  0  0  0
   59.6926   31.2154   49.4331 H   0  0  0  0  0  0  0  0  0  0  0  0
   59.4010   33.2350   48.5890 C   0  0  0  0  0  0  0  0  0  0  0  0
   59.6530   34.6000   48.6550 C   0  0  0  0  0  0  0  0  0  0  0  0
   60.0773   35.1182   49.5276 H   0  0  0  0  0  0  0  0  0  0  0  0
   59.3030   35.2020   47.4950 N   0  0  0  0  0  0  0  0  0  0  0  0
   59.3790   36.2200   47.2720 H   0  0  0  0  0  0  0  0  0  0  0  0
   58.8060   34.2340   46.7080 C   0  0  0  0  0  0  0  0  0  0  0  0
   58.2720   34.3790   45.4280 C   0  0  0  0  0  0  0  0  0  0  0  0
   58.2584   35.3577   44.9261 H   0  0  0  0  0  0  0  0  0  0  0  0
   57.7510   33.2330   44.7990 C   0  0  0  0  0  0  0  0  0  0  0  0
   57.3315   33.3096   43.7850 H   0  0  0  0  0  0  0  0  0  0  0  0
   57.7630   31.9860   45.4600 C   0  0  0  0  0  0  0  0  0  0  0  0
   57.3484   31.0983   44.9598 H   0  0  0  0  0  0  0  0  0  0  0  0
   58.3020   31.8710   46.7550 C   0  0  0  0  0  0  0  0  0  0  0  0
   58.3025   30.9075   47.2857 H   0  0  0  0  0  0  0  0  0  0  0  0
   58.8360   33.0180   47.3450 C   0  0  0  0  0  0  0  0  0  0  0  0
  1  2  1  0
  2  3  1  0
  3  4  2  0
  3  5  1  0
  5  6  1  0
  6  7  1  0
  6  8  1  0
  6  9  1  0
  9 10  2  0
  9 11  1  0
 11 12  1  0
 12 13  2  0
 13 14  1  0
 13 15  1  0
 15 16  1  0
 15 17  2  0
 17 18  1  0
 17 19  1  0
 19 20  1  0
 19 21  2  0
 21 22  1  0
  2 23  2  0
 23 24  1  0
 23 25  1  0
 25 26  2  0
 26 27  1  0
 26 28  1  0
 28 29  1  0
 28 30  1  0
 30 31  2  0
 31 32  1  0
 31 33  1  0
 33 34  1  0
 33 35  2  0
 35 36  1  0
 35 37  1  0
 37 38  1  0
 37 39  2  0
 21 12  1  0
 39 25  1  0
 39 30  1  0
M  CHG  2  11  -1  20  -1
M  END
>  <UniqueID>  (43) 
39

>  <SMILES>  (43) 
O=C(COC(=O)/C=C\c1c[nH]c2ccccc12)[N-]c1cccc([O-])c1

>  <Energy>  (43) 
83.74772128902725

>  <Genealogy>  (43) 
O=C(COC(=O)C=Cc1c[nH]c2ccccc12)[N-]c1cccc([O-])c1 (protonated)
O=C(COC(=O)/C=C\c1c[nH]c2ccccc12)[N-]c1cccc([O-])c1 (cis-trans isomerization)
O=C(COC(=O)/C=C\c1c[nH]c2ccccc12)[N-]c1cccc([O-])c1 (3D coordinates assigned)
O=C(COC(=O)/C=C\c1c[nH]c2ccccc12)[N-]c1cccc([O-])c1 (optimized conformer: 83.74772128902725 kcal/mol)

>  <smiles>  (43) 
O=C(COC(=O)C=Cc1c[nH]c2ccccc12)Nc1cccc(O)c1

>  <score_type>  (43) 
oracle

>  <origin>  (43) 
adg

>  <m_score__min__energy>  (43) 
-12.779999999999999

>  <m_primary>  (43) 
energy

$$$$
43:0
     RDKit          3D

 57 60  0  0  0  0  0  0  0  0999 V2000
   56.6070   21.7350   48.4150 O   0  0  0  0  0  0  0  0  0  0  0  0
   56.1350   22.8350   48.0170 C   0  0  0  0  0  0  0  0  0  0  0  0
   57.0070   24.0510   47.9840 C   0  0  0  0  0  0  0  0  0  0  0  0
   57.7820   24.1250   46.6640 C   0  0  0  0  0  0  0  0  0  0  0  0
   58.0120   25.5570   46.2580 C   0  0  0  0  0  0  0  0  0  0  0  0
   59.3170   26.0780   46.2240 C   0  0  0  0  0  0  0  0  0  0  0  0
   59.5390   27.4100   45.8640 C   0  0  0  0  0  0  0  0  0  0  0  0
   58.4580   28.2370   45.5310 C   0  0  0  0  0  0  0  0  0  0  0  0
   58.6530   29.5720   45.1590 C   0  0  0  0  0  0  0  0  0  0  0  0
   57.5540   30.3820   44.8390 C   0  0  0  0  0  0  0  0  0  0  0  0
   57.7810   31.7430   44.4320 N   0  0  0  0  0  0  0  0  0  0  0  0
   57.6330   32.8690   45.3050 C   0  0  0  0  0  0  0  0  0  0  0  0
   57.4370   32.7000   46.5410 O   0  0  0  0  0  0  0  0  0  0  0  0
   57.7410   34.1580   44.7740 O   0  0  0  0  0  0  0  0  0  0  0  0
   58.9190   34.9560   44.8900 C   0  0  0  0  0  0  0  0  0  0  0  0
   59.7040   34.5640   46.1140 C   0  0  0  0  0  0  0  0  0  0  0  0
   59.2390   34.9230   47.3910 C   0  0  0  0  0  0  0  0  0  0  0  0
   59.9600   34.5590   48.5330 C   0  0  0  0  0  0  0  0  0  0  0  0
   61.1470   33.8310   48.4090 C   0  0  0  0  0  0  0  0  0  0  0  0
   61.6160   33.4680   47.1420 C   0  0  0  0  0  0  0  0  0  0  0  0
   60.8980   33.8320   45.9970 C   0  0  0  0  0  0  0  0  0  0  0  0
   56.2640   29.8140   44.8560 C   0  0  0  0  0  0  0  0  0  0  0  0
   55.2590   30.4870   44.5040 O   0  0  0  0  0  0  0  0  0  0  0  0
   56.0960   28.5160   45.2260 N   0  0  0  0  0  0  0  0  0  0  0  0
   57.1460   27.7220   45.5670 C   0  0  0  0  0  0  0  0  0  0  0  0
   56.9270   26.3900   45.9380 C   0  0  0  0  0  0  0  0  0  0  0  0
   54.7730   22.9270   47.5890 N   0  0  0  0  0  0  0  0  0  0  0  0
   54.3330   23.4050   45.9850 S   0  0  0  0  0  0  0  0  0  0  0  0
   54.3690   24.9060   45.8980 O   0  0  0  0  0  0  0  0  0  0  0  0
   52.9380   22.9310   45.6880 O   0  0  0  0  0  0  0  0  0  0  0  0
   55.4410   22.6910   44.8170 C   0  0  0  0  0  0  0  0  0  0  0  0
   56.0650   21.4680   45.1060 C   0  0  0  0  0  0  0  0  0  0  0  0
   56.9560   20.9020   44.1890 C   0  0  0  0  0  0  0  0  0  0  0  0
   57.2270   21.5520   42.9810 C   0  0  0  0  0  0  0  0  0  0  0  0
   56.6030   22.7680   42.6870 C   0  0  0  0  0  0  0  0  0  0  0  0
   55.7110   23.3370   43.6020 C   0  0  0  0  0  0  0  0  0  0  0  0
   56.3792   24.9486   48.0851 H   0  0  0  0  0  0  0  0  0  0  0  0
   57.7264   23.9934   48.8142 H   0  0  0  0  0  0  0  0  0  0  0  0
   58.7538   23.6248   46.7879 H   0  0  0  0  0  0  0  0  0  0  0  0
   57.1920   23.6270   45.8805 H   0  0  0  0  0  0  0  0  0  0  0  0
   60.1696   25.4328   46.4826 H   0  0  0  0  0  0  0  0  0  0  0  0
   60.5636   27.8097   45.8420 H   0  0  0  0  0  0  0  0  0  0  0  0
   59.6709   29.9869   45.1175 H   0  0  0  0  0  0  0  0  0  0  0  0
   58.2100   31.9130   43.4940 H   0  0  0  0  0  0  0  0  0  0  0  0
   59.5444   34.8100   43.9969 H   0  0  0  0  0  0  0  0  0  0  0  0
   58.6254   36.0123   44.9792 H   0  0  0  0  0  0  0  0  0  0  0  0
   58.3037   35.4929   47.4927 H   0  0  0  0  0  0  0  0  0  0  0  0
   59.5927   34.8458   49.5294 H   0  0  0  0  0  0  0  0  0  0  0  0
   61.7123   33.5436   49.3078 H   0  0  0  0  0  0  0  0  0  0  0  0
   62.5504   32.8957   47.0455 H   0  0  0  0  0  0  0  0  0  0  0  0
   61.2694   33.5442   45.0024 H   0  0  0  0  0  0  0  0  0  0  0  0
   55.9015   25.9942   45.9791 H   0  0  0  0  0  0  0  0  0  0  0  0
   55.8530   20.9539   46.0551 H   0  0  0  0  0  0  0  0  0  0  0  0
   57.4447   19.9436   44.4183 H   0  0  0  0  0  0  0  0  0  0  0  0
   57.9308   21.1068   42.2624 H   0  0  0  0  0  0  0  0  0  0  0  0
   56.8137   23.2778   41.7353 H   0  0  0  0  0  0  0  0  0  0  0  0
   55.2203   24.2933   43.3680 H   0  0  0  0  0  0  0  0  0  0  0  0
  1  2  2  0
  2  3  1  0
  3  4  1  0
  4  5  1  0
  5  6  2  0
  6  7  1  0
  7  8  2  0
  8  9  1  0
  9 10  2  0
 10 11  1  0
 11 12  1  0
 12 13  2  0
 12 14  1  0
 14 15  1  0
 15 16  1  0
 16 17  2  0
 17 18  1  0
 18 19  2  0
 19 20  1  0
 20 21  2  0
 10 22  1  0
 22 23  2  0
 22 24  1  0
 24 25  1  0
 25 26  2  0
  2 27  1  0
 27 28  1  0
 28 29  2  0
 28 30  2  0
 28 31  1  0
 31 32  2  0
 32 33  1  0
 33 34  2  0
 34 35  1  0
 35 36  2  0
 26  5  1  0
 36 31  1  0
 25  8  1  0
 21 16  1  0
  3 37  1  0
  3 38  1  0
  4 39  1  0
  4 40  1  0
  6 41  1  0
  7 42  1  0
  9 43  1  0
 11 44  1  0
 15 45  1  0
 15 46  1  0
 17 47  1  0
 18 48  1  0
 19 49  1  0
 20 50  1  0
 21 51  1  0
 26 52  1  0
 32 53  1  0
 33 54  1  0
 34 55  1  0
 35 56  1  0
 36 57  1  0
M  CHG  2  24  -1  27  -1
M  END
>  <UniqueID>  (44) 
40

>  <SMILES>  (44) 
O=C(CCc1ccc2cc(NC(=O)OCc3ccccc3)c(=O)[n-]c2c1)[N-]S(=O)(=O)c1ccccc1

>  <Energy>  (44) 
66.52586728677352

>  <Genealogy>  (44) 
O=C(CCc1ccc2cc(NC(=O)OCc3ccccc3)c(=O)[n-]c2c1)[N-]S(=O)(=O)c1ccccc1 (protonated)
O=C(CCc1ccc2cc(NC(=O)OCc3ccccc3)c(=O)[n-]c2c1)[N-]S(=O)(=O)c1ccccc1 (3D coordinates assigned)
O=C(CCc1ccc2cc(NC(=O)OCc3ccccc3)c(=O)[n-]c2c1)[N-]S(=O)(=O)c1ccccc1 (optimized conformer: 66.52586728677352 kcal/mol)

>  <smiles>  (44) 
O=C(CCc1ccc2cc(NC(=O)OCc3ccccc3)c(=O)[nH]c2c1)NS(=O)(=O)c1ccccc1

>  <score_type>  (44) 
oracle

>  <origin>  (44) 
adg

>  <m_score__min__energy>  (44) 
-13.93

>  <m_primary>  (44) 
energy

$$$$
44:0
     RDKit          3D

 43 45  0  0  1  0  0  0  0  0999 V2000
   55.8490   28.3980   45.2120 O   0  0  0  0  0  0  0  0  0  0  0  0
   57.0160   28.3120   44.7900 C   0  0  0  0  0  0  0  0  0  0  0  0
   57.2760   29.0060   43.4700 C   0  0  0  0  0  0  0  0  0  0  0  0
   57.5630   30.4360   43.7270 C   0  0  0  0  0  0  0  0  0  0  0  0
   57.8390   30.7920   45.0400 C   0  0  0  0  0  0  0  0  0  0  0  0
   58.1230   32.0920   45.4110 C   0  0  0  0  0  0  0  0  0  0  0  0
   58.1260   33.0620   44.4150 C   0  0  0  0  0  0  0  0  0  0  0  0
   57.8500   32.7200   43.0900 C   0  0  0  0  0  0  0  0  0  0  0  0
   57.5660   31.3990   42.7350 C   0  0  0  0  0  0  0  0  0  0  0  0
   58.0930   27.6630   45.3800 N   0  0  0  0  0  0  0  0  0  0  0  0
   58.0680   26.9500   46.6400 C   0  0  0  0  0  0  0  0  0  0  0  0
   57.6940   25.7080   46.6040 C   0  0  0  0  0  0  0  0  0  0  0  0
   56.7640   25.0700   45.6960 C   0  0  0  0  0  0  0  0  0  0  0  0
   55.5140   25.2070   45.3840 C   0  0  0  0  0  0  0  0  0  0  0  0
   54.5400   26.1170   45.8540 O   0  0  0  0  0  0  0  0  0  0  0  0
   55.0670   24.2620   44.3910 N   0  0  0  0  0  0  0  0  0  0  0  0
   56.1600   23.4470   44.0500 C   0  0  0  0  0  0  0  0  0  0  0  0
   56.2000   22.5060   43.2310 O   0  0  0  0  0  0  0  0  0  0  0  0
   57.2620   23.9330   44.8620 C   0  0  0  0  0  0  0  0  0  0  0  0
   58.4050   23.4330   44.8170 O   0  0  0  0  0  0  0  0  0  0  0  0
   58.8670   27.5720   47.6780 C   0  0  0  0  0  0  0  0  0  0  0  0
   58.6170   28.9040   48.0520 C   0  0  0  0  0  0  0  0  0  0  0  0
   59.3450   29.5460   49.0240 C   0  0  0  0  0  0  0  0  0  0  0  0
   60.3700   28.9160   49.6920 C   0  0  0  0  0  0  0  0  0  0  0  0
   61.1330   29.5200   50.6790 O   0  0  0  0  0  0  0  0  0  0  0  0
   60.6360   27.6120   49.3450 C   0  0  0  0  0  0  0  0  0  0  0  0
   59.8920   26.9610   48.3540 C   0  0  0  0  0  0  0  0  0  0  0  0
   58.1390   28.5401   42.9718 H   0  0  0  0  0  0  0  0  0  0  0  0
   56.3926   28.9144   42.8210 H   0  0  0  0  0  0  0  0  0  0  0  0
   57.8313   30.0101   45.8136 H   0  0  0  0  0  0  0  0  0  0  0  0
   58.3393   32.3507   46.4580 H   0  0  0  0  0  0  0  0  0  0  0  0
   58.3478   34.1080   44.6733 H   0  0  0  0  0  0  0  0  0  0  0  0
   57.8562   33.5009   42.3153 H   0  0  0  0  0  0  0  0  0  0  0  0
   57.3498   31.1312   41.6902 H   0  0  0  0  0  0  0  0  0  0  0  0
   59.0380   27.6560   44.9130 H   0  0  0  0  0  0  0  0  0  0  0  0
   58.1433   25.0525   47.3646 H   0  0  0  0  0  0  0  0  0  0  0  0
   54.7730   27.0940   45.9490 H   0  0  0  0  0  0  0  0  0  0  0  0
   54.1190   24.1560   43.9680 H   0  0  0  0  0  0  0  0  0  0  0  0
   57.8081   29.4526   47.5473 H   0  0  0  0  0  0  0  0  0  0  0  0
   59.1027   30.5893   49.2746 H   0  0  0  0  0  0  0  0  0  0  0  0
   61.5050   30.4430   50.4530 H   0  0  0  0  0  0  0  0  0  0  0  0
   61.4471   27.0715   49.8548 H   0  0  0  0  0  0  0  0  0  0  0  0
   60.1393   25.9179   48.1076 H   0  0  0  0  0  0  0  0  0  0  0  0
  1  2  2  0
  2  3  1  0
  3  4  1  0
  4  5  2  0
  5  6  1  0
  6  7  2  0
  7  8  1  0
  8  9  2  0
  2 10  1  0
 10 11  1  0
 11 12  2  0
 12 13  1  0
 13 14  2  0
 14 15  1  0
 14 16  1  0
 16 17  1  0
 17 18  2  0
 17 19  1  0
 19 20  2  0
 11 21  1  0
 21 22  2  0
 22 23  1  0
 23 24  2  0
 24 25  1  0
 24 26  1  0
 26 27  2  0
  9  4  1  0
 19 13  1  0
 27 21  1  0
  3 28  1  0
  3 29  1  0
  5 30  1  0
  6 31  1  0
  7 32  1  0
  8 33  1  0
  9 34  1  0
 10 35  1  0
 12 36  1  0
 15 37  1  0
 16 38  1  0
 22 39  1  0
 23 40  1  0
 25 41  1  0
 26 42  1  0
 27 43  1  0
M  END
>  <smiles>  (45) 
O=C(Cc1ccccc1)NC(=CC1=C(O)NC(=O)C1=O)c1ccc(O)cc1

>  <score_type>  (45) 
oracle

>  <origin>  (45) 
adg

>  <m_score__min__energy>  (45) 
-9.5800000000000001

>  <m_primary>  (45) 
energy

$$$$
45:0
     RDKit          3D

 37 39  0  0  0  0  0  0  0  0999 V2000
   59.3536   34.1744   44.1146 H   0  0  0  0  0  0  0  0  0  0  0  0
   58.5020   33.6000   44.5080 C   0  0  0  0  0  0  0  0  0  0  0  0
   57.9990   33.9100   45.8560 C   0  0  0  0  0  0  0  0  0  0  0  0
   56.8520   33.5280   46.2210 O   0  0  0  0  0  0  0  0  0  0  0  0
   58.8120   34.6390   46.7290 O   0  0  0  0  0  0  0  0  0  0  0  0
   60.2300   34.5380   46.7200 C   0  0  0  0  0  0  0  0  0  0  0  0
   60.6023   34.5115   47.7548 H   0  0  0  0  0  0  0  0  0  0  0  0
   60.5286   33.6163   46.1991 H   0  0  0  0  0  0  0  0  0  0  0  0
   60.6563   35.4081   46.1991 H   0  0  0  0  0  0  0  0  0  0  0  0
   57.9590   32.6420   43.7420 C   0  0  0  0  0  0  0  0  0  0  0  0
   57.7660   32.8717   42.6837 H   0  0  0  0  0  0  0  0  0  0  0  0
   57.6040   31.2910   44.2400 C   0  0  0  0  0  0  0  0  0  0  0  0
   56.2610   30.8590   44.1150 C   0  0  0  0  0  0  0  0  0  0  0  0
   55.5156   31.5309   43.6646 H   0  0  0  0  0  0  0  0  0  0  0  0
   55.8670   29.5870   44.5570 C   0  0  0  0  0  0  0  0  0  0  0  0
   54.8224   29.2547   44.4659 H   0  0  0  0  0  0  0  0  0  0  0  0
   56.8360   28.7580   45.1140 C   0  0  0  0  0  0  0  0  0  0  0  0
   58.1570   29.1520   45.2330 C   0  0  0  0  0  0  0  0  0  0  0  0
   58.5660   30.4120   44.7980 C   0  0  0  0  0  0  0  0  0  0  0  0
   59.6186   30.7191   44.8864 H   0  0  0  0  0  0  0  0  0  0  0  0
   59.0070   28.0680   45.8480 C   0  0  0  0  0  0  0  0  0  0  0  0
   59.7981   27.7311   45.1619 H   0  0  0  0  0  0  0  0  0  0  0  0
   59.5549   28.3670   46.7538 H   0  0  0  0  0  0  0  0  0  0  0  0
   57.9670   27.0100   46.0600 C   0  0  0  0  0  0  0  0  0  0  0  0
   58.1400   25.7770   46.5930 N   0  0  0  0  0  0  0  0  0  0  0  0
   57.0710   24.9300   46.7080 C   0  0  0  0  0  0  0  0  0  0  0  0
   57.2980   23.5930   47.2950 C   0  0  0  0  0  0  0  0  0  0  0  0
   57.0580   23.3730   48.5150 O   0  0  0  0  0  0  0  0  0  0  0  0
   57.7850   22.5660   46.4800 O   0  0  0  0  0  0  0  0  0  0  0  0
   57.9400   22.7100   45.0740 C   0  0  0  0  0  0  0  0  0  0  0  0
   58.7313   23.4452   44.8657 H   0  0  0  0  0  0  0  0  0  0  0  0
   58.2156   21.7401   44.6343 H   0  0  0  0  0  0  0  0  0  0  0  0
   56.9930   23.0561   44.6343 H   0  0  0  0  0  0  0  0  0  0  0  0
   55.7880   25.3690   46.2610 C   0  0  0  0  0  0  0  0  0  0  0  0
   54.7780   24.6220   46.3500 O   0  0  0  0  0  0  0  0  0  0  0  0
   55.6450   26.6170   45.7280 N   0  0  0  0  0  0  0  0  0  0  0  0
   56.7310   27.4190   45.6340 C   0  0  0  0  0  0  0  0  0  0  0  0
  1  2  1  0
  2  3  1  0
  3  4  2  0
  3  5  1  0
  5  6  1  0
  6  7  1  0
  6  8  1  0
  6  9  1  0
  2 10  2  0
 10 11  1  0
 10 12  1  0
 12 13  2  0
 13 14  1  0
 13 15  1  0
 15 16  1  0
 15 17  2  0
 17 18  1  0
 18 19  2  0
 19 20  1  0
 18 21  1  0
 21 22  1  0
 21 23  1  0
 21 24  1  0
 24 25  1  0
 25 26  2  0
 26 27  1  0
 27 28  2  0
 27 29  1  0
 29 30  1  0
 30 31  1  0
 30 32  1  0
 30 33  1  0
 26 34  1  0
 34 35  2  0
 34 36  1  0
 36 37  1  0
 19 12  1  0
 37 24  2  0
 37 17  1  0
M  CHG  1  36  -1
M  END
>  <UniqueID>  (46) 
41

>  <SMILES>  (46) 
COC(=O)/C=C/c1ccc2c(c1)Cc1nc(C(=O)OC)c(=O)[n-]c1-2

>  <Energy>  (46) 
63.95640854370519

>  <Genealogy>  (46) 
COC(=O)C=Cc1ccc2c(c1)Cc1nc(C(=O)OC)c(=O)[n-]c1-2 (protonated)
COC(=O)/C=C/c1ccc2c(c1)Cc1nc(C(=O)OC)c(=O)[n-]c1-2 (cis-trans isomerization)
COC(=O)/C=C/c1ccc2c(c1)Cc1nc(C(=O)OC)c(=O)[n-]c1-2 (3D coordinates assigned)
COC(=O)/C=C/c1ccc2c(c1)Cc1nc(C(=O)OC)c(=O)[n-]c1-2 (nonaromatic ring conformer: 63.95640854370519 kcal/mol)

>  <smiles>  (46) 
COC(=O)C=Cc1ccc2c(c1)Cc1nc(C(=O)OC)c(=O)[nH]c1-2

>  <score_type>  (46) 
oracle

>  <origin>  (46) 
adg

>  <m_score__min__energy>  (46) 
-9.6500000000000004

>  <m_primary>  (46) 
energy

$$$$
46:0
     RDKit          3D

 43 44  0  0  0  0  0  0  0  0999 V2000
   56.2990   30.5560   44.0670 C   0  0  0  0  0  0  0  0  0  0  0  0
   57.0110   31.0140   45.2130 O   0  0  0  0  0  0  0  0  0  0  0  0
   58.2930   30.5730   45.5780 C   0  0  0  0  0  0  0  0  0  0  0  0
   58.8180   29.3430   45.1350 C   0  0  0  0  0  0  0  0  0  0  0  0
   60.0970   28.9380   45.5310 C   0  0  0  0  0  0  0  0  0  0  0  0
   60.8620   29.7520   46.3690 C   0  0  0  0  0  0  0  0  0  0  0  0
   60.3530   30.9750   46.8100 C   0  0  0  0  0  0  0  0  0  0  0  0
   59.0720   31.3890   46.4180 C   0  0  0  0  0  0  0  0  0  0  0  0
   58.5630   32.6490   46.8770 N   0  0  0  0  0  0  0  0  0  0  0  0
   57.8320   32.7250   48.1440 C   0  0  0  0  0  0  0  0  0  0  0  0
   58.7880   32.6220   49.2900 C   0  0  0  0  0  0  0  0  0  0  0  0
   58.5930   31.7590   50.1890 O   0  0  0  0  0  0  0  0  0  0  0  0
   59.8860   33.5400   49.3720 N   0  0  0  0  0  0  0  0  0  0  0  0
   61.1290   33.3450   49.0240 C   0  0  0  0  0  0  0  0  0  0  0  0
   62.0070   32.8150   49.9760 C   0  0  0  0  0  0  0  0  0  0  0  0
   63.3440   32.6100   49.6460 C   0  0  0  0  0  0  0  0  0  0  0  0
   63.8040   32.9450   48.3750 C   0  0  0  0  0  0  0  0  0  0  0  0
   62.9160   33.4990   47.4450 C   0  0  0  0  0  0  0  0  0  0  0  0
   63.4130   33.8660   46.0770 C   0  0  0  0  0  0  0  0  0  0  0  0
   61.6060   33.6870   47.7830 N   0  0  0  0  0  0  0  0  0  0  0  0
   58.9380   34.1060   46.0090 S   0  0  0  0  0  0  0  0  0  0  0  0
   57.6260   34.5390   44.8800 C   0  0  0  0  0  0  0  0  0  0  0  0
   60.2030   33.9020   45.2240 O   0  0  0  0  0  0  0  0  0  0  0  0
   59.1270   35.2350   46.9840 O   0  0  0  0  0  0  0  0  0  0  0  0
   55.4142   29.9869   44.3883 H   0  0  0  0  0  0  0  0  0  0  0  0
   55.9807   31.4191   43.4640 H   0  0  0  0  0  0  0  0  0  0  0  0
   56.9524   29.9084   43.4640 H   0  0  0  0  0  0  0  0  0  0  0  0
   58.2194   28.6982   44.4747 H   0  0  0  0  0  0  0  0  0  0  0  0
   60.5010   27.9764   45.1816 H   0  0  0  0  0  0  0  0  0  0  0  0
   61.8661   29.4295   46.6818 H   0  0  0  0  0  0  0  0  0  0  0  0
   60.9590   31.6160   47.4672 H   0  0  0  0  0  0  0  0  0  0  0  0
   57.2977   33.6849   48.1998 H   0  0  0  0  0  0  0  0  0  0  0  0
   57.1120   31.8951   48.1972 H   0  0  0  0  0  0  0  0  0  0  0  0
   61.6420   32.5611   50.9821 H   0  0  0  0  0  0  0  0  0  0  0  0
   64.0357   32.1842   50.3878 H   0  0  0  0  0  0  0  0  0  0  0  0
   64.8565   32.7757   48.1039 H   0  0  0  0  0  0  0  0  0  0  0  0
   64.2947   34.5171   46.1697 H   0  0  0  0  0  0  0  0  0  0  0  0
   63.6878   32.9524   45.5294 H   0  0  0  0  0  0  0  0  0  0  0  0
   62.6207   34.3974   45.5294 H   0  0  0  0  0  0  0  0  0  0  0  0
   60.9890   34.1530   47.0830 H   0  0  0  0  0  0  0  0  0  0  0  0
   56.7332   34.8337   45.4511 H   0  0  0  0  0  0  0  0  0  0  0  0
   57.9494   35.3780   44.2465 H   0  0  0  0  0  0  0  0  0  0  0  0
   57.3865   33.6723   44.2465 H   0  0  0  0  0  0  0  0  0  0  0  0
  1  2  1  0
  2  3  1  0
  3  4  2  0
  4  5  1  0
  5  6  2  0
  6  7  1  0
  7  8  2  0
  8  9  1  0
  9 10  1  0
 10 11  1  0
 11 12  2  0
 11 13  1  0
 13 14  2  3
 14 15  1  0
 15 16  2  0
 16 17  1  0
 17 18  2  0
 18 19  1  0
 18 20  1  0
  9 21  1  0
 21 22  1  0
 21 23  2  0
 21 24  2  0
  8  3  1  0
 20 14  1  0
  1 25  1  0
  1 26  1  0
  1 27  1  0
  4 28  1  0
  5 29  1  0
  6 30  1  0
  7 31  1  0
 10 32  1  0
 10 33  1  0
 15 34  1  0
 16 35  1  0
 17 36  1  0
 19 37  1  0
 19 38  1  0
 19 39  1  0
 20 40  1  0
 22 41  1  0
 22 42  1  0
 22 43  1  0
M  END
>  <UniqueID>  (47) 
42

>  <SMILES>  (47) 
COc1ccccc1N(CC(=O)N=c1cccc(C)[nH]1)S(C)(=O)=O

>  <Energy>  (47) 
46.035337418566805

>  <Genealogy>  (47) 
COc1ccccc1N(CC(=O)N=c1cccc(C)[nH]1)S(C)(=O)=O (3D coordinates assigned)
COc1ccccc1N(CC(=O)N=c1cccc(C)[nH]1)S(C)(=O)=O (optimized conformer: 46.035337418566805 kcal/mol)

>  <smiles>  (47) 
COc1ccccc1N(CC(=O)N=c1cccc(C)[nH]1)S(C)(=O)=O

>  <score_type>  (47) 
oracle

>  <origin>  (47) 
adg

>  <m_score__min__energy>  (47) 
-7.0300000000000002

>  <m_primary>  (47) 
energy

$$$$
47:0
     RDKit          3D

 20 21  0  0  0  0  0  0  0  0999 V2000
   58.9234   29.8428   43.4493 H   0  0  0  0  0  0  0  0  0  0  0  0
   58.2950   29.9710   44.3430 C   0  0  0  0  0  0  0  0  0  0  0  0
   57.7250   28.8880   44.8870 C   0  0  0  0  0  0  0  0  0  0  0  0
   58.6230   27.4050   45.3730 S   0  0  0  0  0  0  0  0  0  0  0  0
   57.0420   26.6800   45.8250 C   0  0  0  0  0  0  0  0  0  0  0  0
   56.9480   25.2820   46.6590 S   0  0  0  0  0  0  0  0  0  0  0  0
   55.8950   27.4980   45.6280 N   0  0  0  0  0  0  0  0  0  0  0  0
   56.2860   28.7450   45.0830 C   0  0  0  0  0  0  0  0  0  0  0  0
   55.4460   29.6410   44.8040 O   0  0  0  0  0  0  0  0  0  0  0  0
   58.1160   31.3270   44.8910 C   0  0  0  0  0  0  0  0  0  0  0  0
   58.2510   31.5190   46.2740 C   0  0  0  0  0  0  0  0  0  0  0  0
   58.4842   30.6633   46.9246 H   0  0  0  0  0  0  0  0  0  0  0  0
   58.0910   32.7910   46.8300 C   0  0  0  0  0  0  0  0  0  0  0  0
   58.1873   32.9315   47.9167 H   0  0  0  0  0  0  0  0  0  0  0  0
   57.8090   33.8840   46.0080 C   0  0  0  0  0  0  0  0  0  0  0  0
   57.6749   34.8830   46.4484 H   0  0  0  0  0  0  0  0  0  0  0  0
   57.6970   33.7090   44.6250 C   0  0  0  0  0  0  0  0  0  0  0  0
   57.4839   34.5735   43.9791 H   0  0  0  0  0  0  0  0  0  0  0  0
   57.8550   32.4380   44.0590 C   0  0  0  0  0  0  0  0  0  0  0  0
   57.7780   32.2830   42.3070 Cl  0  0  0  0  0  0  0  0  0  0  0  0
  1  2  1  0
  2  3  2  0
  3  4  1  0
  4  5  1  0
  5  6  2  0
  5  7  1  0
  7  8  1  0
  8  9  2  0
  2 10  1  0
 10 11  2  0
 11 12  1  0
 11 13  1  0
 13 14  1  0
 13 15  2  0
 15 16  1  0
 15 17  1  0
 17 18  1  0
 17 19  2  0
 19 20  1  0
  8  3  1  0
 19 10  1  0
M  CHG  1   7  -1
M  END
>  <UniqueID>  (48) 
43

>  <SMILES>  (48) 
O=C1[N-]C(=S)S/C1=C\c1ccccc1Cl

>  <Energy>  (48) 
46.88260278267547

>  <Genealogy>  (48) 
O=C1[N-]C(=S)SC1=Cc1ccccc1Cl (protonated)
O=C1[N-]C(=S)S/C1=C\c1ccccc1Cl (cis-trans isomerization)
O=C1[N-]C(=S)S/C1=C\c1ccccc1Cl (3D coordinates assigned)
O=C1[N-]C(=S)S/C1=C\c1ccccc1Cl (nonaromatic ring conformer: 46.88260278267547 kcal/mol)

>  <smiles>  (48) 
O=C1NC(=S)SC1=Cc1ccccc1Cl

>  <score_type>  (48) 
oracle

>  <origin>  (48) 
adg

>  <m_score__min__energy>  (48) 
-9.3100000000000005

>  <m_primary>  (48) 
energy

$$$$
48:0
     RDKit          3D

 66 69  0  0  0  0  0  0  0  0999 V2000
   54.5723   29.2366   43.9491 H   0  0  0  0  0  0  0  0  0  0  0  0
   55.5560   29.4920   44.3700 C   0  0  0  0  0  0  0  0  0  0  0  0
   56.1570   28.6490   45.2470 N   0  0  0  0  0  0  0  0  0  0  0  0
   57.3770   28.9230   45.7850 C   0  0  0  0  0  0  0  0  0  0  0  0
   57.9700   28.0590   46.7150 O   0  0  0  0  0  0  0  0  0  0  0  0
   58.8340   28.4640   47.7410 C   0  0  0  0  0  0  0  0  0  0  0  0
   58.5850   29.6950   48.3620 C   0  0  0  0  0  0  0  0  0  0  0  0
   57.7379   30.3128   48.0292 H   0  0  0  0  0  0  0  0  0  0  0  0
   59.4030   30.1430   49.3990 C   0  0  0  0  0  0  0  0  0  0  0  0
   59.1964   31.1078   49.8853 H   0  0  0  0  0  0  0  0  0  0  0  0
   60.4830   29.3670   49.8190 C   0  0  0  0  0  0  0  0  0  0  0  0
   61.1183   29.7143   50.6471 H   0  0  0  0  0  0  0  0  0  0  0  0
   60.7610   28.1490   49.1910 C   0  0  0  0  0  0  0  0  0  0  0  0
   61.6142   27.5420   49.5281 H   0  0  0  0  0  0  0  0  0  0  0  0
   59.9530   27.6940   48.1270 C   0  0  0  0  0  0  0  0  0  0  0  0
   60.2290   26.5070   47.4200 O   0  0  0  0  0  0  0  0  0  0  0  0
   60.0630   26.2880   46.0170 C   0  0  0  0  0  0  0  0  0  0  0  0
   59.8227   27.2452   45.5312 H   0  0  0  0  0  0  0  0  0  0  0  0
   61.0001   25.8725   45.6180 H   0  0  0  0  0  0  0  0  0  0  0  0
   58.9340   25.2890   45.7370 C   0  0  0  0  0  0  0  0  0  0  0  0
   59.3665   24.3948   45.2643 H   0  0  0  0  0  0  0  0  0  0  0  0
   58.4562   25.0545   46.6996 H   0  0  0  0  0  0  0  0  0  0  0  0
   57.8510   25.8530   44.8140 C   0  0  0  0  0  0  0  0  0  0  0  0
   57.4138   26.7513   45.2744 H   0  0  0  0  0  0  0  0  0  0  0  0
   58.3048   26.1084   43.8450 H   0  0  0  0  0  0  0  0  0  0  0  0
   56.7990   24.8610   44.5990 N   0  0  0  0  0  0  0  0  0  0  0  0
   55.5310   24.8580   45.2310 C   0  0  0  0  0  0  0  0  0  0  0  0
   55.2090   25.6730   46.1340 O   0  0  0  0  0  0  0  0  0  0  0  0
   54.6300   23.8130   44.7070 C   0  0  0  0  0  0  0  0  0  0  0  0
   53.7520   24.2593   44.2172 H   0  0  0  0  0  0  0  0  0  0  0  0
   54.2295   23.1566   45.4935 H   0  0  0  0  0  0  0  0  0  0  0  0
   55.5070   23.0660   43.6900 C   0  0  0  0  0  0  0  0  0  0  0  0
   54.9940   23.0119   42.7185 H   0  0  0  0  0  0  0  0  0  0  0  0
   55.7062   22.0383   44.0280 H   0  0  0  0  0  0  0  0  0  0  0  0
   56.8220   23.8590   43.5490 C   0  0  0  0  0  0  0  0  0  0  0  0
   56.8737   24.3411   42.5616 H   0  0  0  0  0  0  0  0  0  0  0  0
   57.7001   23.2024   43.6375 H   0  0  0  0  0  0  0  0  0  0  0  0
   58.0370   30.1090   45.4440 C   0  0  0  0  0  0  0  0  0  0  0  0
   59.0177   30.3415   45.8846 H   0  0  0  0  0  0  0  0  0  0  0  0
   57.4390   31.0060   44.5320 C   0  0  0  0  0  0  0  0  0  0  0  0
   57.9760   32.1470   44.1930 N   0  0  0  0  0  0  0  0  0  0  0  0
   57.9730   33.3970   44.9060 C   0  0  0  0  0  0  0  0  0  0  0  0
   57.2800   34.3670   44.4930 O   0  0  0  0  0  0  0  0  0  0  0  0
   58.7260   33.5230   46.1760 C   0  0  0  0  0  0  0  0  0  0  0  0
   60.0040   34.1090   46.1940 C   0  0  0  0  0  0  0  0  0  0  0  0
   60.4480   34.4784   45.2578 H   0  0  0  0  0  0  0  0  0  0  0  0
   60.7150   34.2260   47.3920 C   0  0  0  0  0  0  0  0  0  0  0  0
   61.7138   34.6868   47.3913 H   0  0  0  0  0  0  0  0  0  0  0  0
   60.1640   33.7600   48.5950 C   0  0  0  0  0  0  0  0  0  0  0  0
   60.9320   33.9330   49.8800 C   0  0  0  0  0  0  0  0  0  0  0  0
   60.7048   33.0942   50.5543 H   0  0  0  0  0  0  0  0  0  0  0  0
   60.6366   34.8834   50.3484 H   0  0  0  0  0  0  0  0  0  0  0  0
   62.3690   33.9610   49.6120 N   0  0  0  0  0  0  0  0  0  0  0  0
   62.8770   34.8700   49.7170 H   0  0  0  0  0  0  0  0  0  0  0  0
   63.1020   32.7960   49.2150 C   0  0  0  0  0  0  0  0  0  0  0  0
   62.5050   31.7040   49.0130 O   0  0  0  0  0  0  0  0  0  0  0  0
   64.5780   32.8810   49.0000 C   0  0  0  0  0  0  0  0  0  0  0  0
   65.0892   32.9104   49.9735 H   0  0  0  0  0  0  0  0  0  0  0  0
   64.9174   32.0009   48.4341 H   0  0  0  0  0  0  0  0  0  0  0  0
   64.8141   33.7942   48.4341 H   0  0  0  0  0  0  0  0  0  0  0  0
   58.8890   33.1670   48.5820 C   0  0  0  0  0  0  0  0  0  0  0  0
   58.3240   32.7090   49.7270 F   0  0  0  0  0  0  0  0  0  0  0  0
   58.1790   33.0480   47.3820 C   0  0  0  0  0  0  0  0  0  0  0  0
   57.1841   32.5788   47.3817 H   0  0  0  0  0  0  0  0  0  0  0  0
   56.1840   30.6830   44.0010 C   0  0  0  0  0  0  0  0  0  0  0  0
   55.6932   31.3675   43.2934 H   0  0  0  0  0  0  0  0  0  0  0  0
  1  2  1  0
  2  3  1  0
  3  4  1  0
  4  5  1  0
  5  6  1  0
  6  7  2  0
  7  8  1  0
  7  9  1  0
  9 10  1  0
  9 11  2  0
 11 12  1  0
 11 13  1  0
 13 14  1  0
 13 15  2  0
 15 16  1  0
 16 17  1  0
 17 18  1  0
 17 19  1  0
 17 20  1  0
 20 21  1  0
 20 22  1  0
 20 23  1  0
 23 24  1  0
 23 25  1  0
 23 26  1  0
 26 27  1  0
 27 28  2  0
 27 29  1  0
 29 30  1  0
 29 31  1  0
 29 32  1  0
 32 33  1  0
 32 34  1  0
 32 35  1  0
 35 36  1  0
 35 37  1  0
  4 38  2  0
 38 39  1  0
 38 40  1  0
 40 41  2  0
 41 42  1  0
 42 43  2  0
 42 44  1  0
 44 45  2  0
 45 46  1  0
 45 47  1  0
 47 48  1  0
 47 49  2  0
 49 50  1  0
 50 51  1  0
 50 52  1  0
 50 53  1  0
 53 54  1  0
 53 55  1  0
 55 56  2  0
 55 57  1  0
 57 58  1  0
 57 59  1  0
 57 60  1  0
 49 61  1  0
 61 62  1  0
 61 63  2  0
 63 64  1  0
 40 65  1  0
 65 66  1  0
 65  2  2  0
 15  6  1  0
 35 26  1  0
 63 44  1  0
M  CHG  1   3  -1
M  END
>  <UniqueID>  (49) 
44

>  <SMILES>  (49) 
CC(=O)NCc1ccc(C(=O)/N=c2/cc[n-]c(Oc3ccccc3OCCCN3CCCC3=O)c2)cc1F

>  <Energy>  (49) 
83.47174546984425

>  <Genealogy>  (49) 
CC(=O)NCc1ccc(C(=O)N=c2cc[n-]c(Oc3ccccc3OCCCN3CCCC3=O)c2)cc1F (protonated)
CC(=O)NCc1ccc(C(=O)/N=c2/cc[n-]c(Oc3ccccc3OCCCN3CCCC3=O)c2)cc1F (cis-trans isomerization)
CC(=O)NCc1ccc(C(=O)/N=c2/cc[n-]c(Oc3ccccc3OCCCN3CCCC3=O)c2)cc1F (3D coordinates assigned)
CC(=O)NCc1ccc(C(=O)/N=c2/cc[n-]c(Oc3ccccc3OCCCN3CCCC3=O)c2)cc1F (nonaromatic ring conformer: 83.47174546984425 kcal/mol)

>  <smiles>  (49) 
CC(=O)NCc1ccc(C(=O)N=c2cc[nH]c(Oc3ccccc3OCCCN3CCCC3=O)c2)cc1F

>  <score_type>  (49) 
oracle

>  <origin>  (49) 
adg

>  <m_score__min__energy>  (49) 
-11.75

>  <m_primary>  (49) 
energy

$$$$
49:0
     RDKit          3D

 49 51  0  0  0  0  0  0  0  0999 V2000
   60.5210   34.1950   49.7500 C   0  0  0  0  0  0  0  0  0  0  0  0
   59.6330   34.5560   48.6960 O   0  0  0  0  0  0  0  0  0  0  0  0
   59.1680   33.6700   47.7140 C   0  0  0  0  0  0  0  0  0  0  0  0
   58.9600   32.2870   47.9760 C   0  0  0  0  0  0  0  0  0  0  0  0
   58.4920   31.4280   46.9650 C   0  0  0  0  0  0  0  0  0  0  0  0
   58.2210   31.9760   45.7110 C   0  0  0  0  0  0  0  0  0  0  0  0
   57.7930   31.4030   44.5250 C   0  0  0  0  0  0  0  0  0  0  0  0
   57.4400   29.9960   44.2540 C   0  0  0  0  0  0  0  0  0  0  0  0
   58.3180   29.2300   43.7770 O   0  0  0  0  0  0  0  0  0  0  0  0
   56.0810   29.4760   44.4750 C   0  0  0  0  0  0  0  0  0  0  0  0
   55.0840   30.0860   44.0040 O   0  0  0  0  0  0  0  0  0  0  0  0
   55.9050   28.2760   45.2410 N   0  0  0  0  0  0  0  0  0  0  0  0
   56.9420   27.4020   45.7090 C   0  0  0  0  0  0  0  0  0  0  0  0
   57.0910   26.0930   45.2170 C   0  0  0  0  0  0  0  0  0  0  0  0
   58.1360   25.2760   45.6770 C   0  0  0  0  0  0  0  0  0  0  0  0
   58.2660   23.8670   45.1800 C   0  0  0  0  0  0  0  0  0  0  0  0
   59.0210   25.7660   46.6460 C   0  0  0  0  0  0  0  0  0  0  0  0
   58.8920   27.0760   47.1330 C   0  0  0  0  0  0  0  0  0  0  0  0
   59.8600   27.6070   48.1720 C   0  0  0  0  0  0  0  0  0  0  0  0
   59.7560   29.0660   48.3990 N   0  0  0  0  0  0  0  0  0  0  0  0
   59.2330   29.3960   49.7330 C   0  0  0  0  0  0  0  0  0  0  0  0
   61.0200   29.7730   48.1390 C   0  0  0  0  0  0  0  0  0  0  0  0
   57.8600   27.8930   46.6430 C   0  0  0  0  0  0  0  0  0  0  0  0
   57.8050   32.4310   43.5860 C   0  0  0  0  0  0  0  0  0  0  0  0
   58.1910   33.5910   44.1600 N   0  0  0  0  0  0  0  0  0  0  0  0
   58.4430   33.3040   45.4490 C   0  0  0  0  0  0  0  0  0  0  0  0
   58.9110   34.1790   46.4270 C   0  0  0  0  0  0  0  0  0  0  0  0
   60.0388   34.3910   50.7190 H   0  0  0  0  0  0  0  0  0  0  0  0
   60.7667   33.1256   49.6724 H   0  0  0  0  0  0  0  0  0  0  0  0
   61.4432   34.7896   49.6724 H   0  0  0  0  0  0  0  0  0  0  0  0
   59.1672   31.8856   48.9790 H   0  0  0  0  0  0  0  0  0  0  0  0
   58.3440   30.3552   47.1577 H   0  0  0  0  0  0  0  0  0  0  0  0
   56.3846   25.7070   44.4673 H   0  0  0  0  0  0  0  0  0  0  0  0
   58.3294   23.1803   46.0370 H   0  0  0  0  0  0  0  0  0  0  0  0
   57.3876   23.6111   44.5692 H   0  0  0  0  0  0  0  0  0  0  0  0
   59.1763   23.7761   44.5692 H   0  0  0  0  0  0  0  0  0  0  0  0
   59.8239   25.1186   47.0285 H   0  0  0  0  0  0  0  0  0  0  0  0
   59.6619   27.0934   49.1243 H   0  0  0  0  0  0  0  0  0  0  0  0
   60.8739   27.4148   47.7912 H   0  0  0  0  0  0  0  0  0  0  0  0
   59.8983   28.9762   50.5018 H   0  0  0  0  0  0  0  0  0  0  0  0
   59.1840   30.4889   49.8476 H   0  0  0  0  0  0  0  0  0  0  0  0
   58.2254   28.9698   49.8476 H   0  0  0  0  0  0  0  0  0  0  0  0
   61.4949   30.0386   49.0950 H   0  0  0  0  0  0  0  0  0  0  0  0
   61.6935   29.1206   47.5638 H   0  0  0  0  0  0  0  0  0  0  0  0
   60.8166   30.6883   47.5638 H   0  0  0  0  0  0  0  0  0  0  0  0
   57.7728   28.9306   46.9978 H   0  0  0  0  0  0  0  0  0  0  0  0
   57.5376   32.3147   42.5254 H   0  0  0  0  0  0  0  0  0  0  0  0
   58.2900   34.5180   43.6900 H   0  0  0  0  0  0  0  0  0  0  0  0
   59.0758   35.2424   46.1988 H   0  0  0  0  0  0  0  0  0  0  0  0
  1  2  1  0
  2  3  1  0
  3  4  2  0
  4  5  1  0
  5  6  2  0
  6  7  1  0
  7  8  1  0
  8  9  2  0
  8 10  1  0
 10 11  2  0
 10 12  1  0
 12 13  1  0
 13 14  2  0
 14 15  1  0
 15 16  1  0
 15 17  2  0
 17 18  1  0
 18 19  1  0
 19 20  1  0
 20 21  1  0
 20 22  1  0
 18 23  2  0
  7 24  2  0
 24 25  1  0
 25 26  1  0
 26 27  2  0
 27  3  1  0
 26  6  1  0
 23 13  1  0
  1 28  1  0
  1 29  1  0
  1 30  1  0
  4 31  1  0
  5 32  1  0
 14 33  1  0
 16 34  1  0
 16 35  1  0
 16 36  1  0
 17 37  1  0
 19 38  1  0
 19 39  1  0
 21 40  1  0
 21 41  1  0
 21 42  1  0
 22 43  1  0
 22 44  1  0
 22 45  1  0
 23 46  1  0
 24 47  1  0
 25 48  1  0
 27 49  1  0
M  CHG  1  12  -1
M  END
>  <UniqueID>  (50) 
45

>  <SMILES>  (50) 
COc1ccc2c(C(=O)C(=O)[N-]c3cc(C)cc(CN(C)C)c3)c[nH]c2c1

>  <Energy>  (50) 
91.31794873197485

>  <Genealogy>  (50) 
COc1ccc2c(C(=O)C(=O)[N-]c3cc(C)cc(CN(C)C)c3)c[nH]c2c1 (protonated)
COc1ccc2c(C(=O)C(=O)[N-]c3cc(C)cc(CN(C)C)c3)c[nH]c2c1 (3D coordinates assigned)
COc1ccc2c(C(=O)C(=O)[N-]c3cc(C)cc(CN(C)C)c3)c[nH]c2c1 (optimized conformer: 91.31794873197485 kcal/mol)

>  <smiles>  (50) 
COc1ccc2c(C(=O)C(=O)Nc3cc(C)cc(CN(C)C)c3)c[nH]c2c1

>  <score_type>  (50) 
oracle

>  <origin>  (50) 
adg

>  <m_score__min__energy>  (50) 
-9.1500000000000004

>  <m_primary>  (50) 
energy

$$$$
50:0
     RDKit          3D

 79 83  0  0  0  0  0  0  0  0999 V2000
   57.7080   33.3580   52.3470 C   0  0  0  0  0  0  0  0  0  0  0  0
   58.5650   32.4620   51.5780 N   0  0  0  0  0  0  0  0  0  0  0  0
   58.1690   31.3500   50.9150 C   0  0  0  0  0  0  0  0  0  0  0  0
   59.2680   30.7250   50.3230 C   0  0  0  0  0  0  0  0  0  0  0  0
   59.2750   29.4240   49.5570 C   0  0  1  0  0  0  0  0  0  0  0  0
   59.2830   29.6690   48.0300 C   0  0  0  0  0  0  0  0  0  0  0  0
   60.3740   28.8810   47.2730 C   0  0  0  0  0  0  0  0  0  0  0  0
   60.5490   27.4680   47.7170 N   0  0  2  0  0  0  0  0  0  0  0  0
   59.7860   26.4910   46.8990 C   0  0  0  0  0  0  0  0  0  0  0  0
   59.6910   26.8550   45.3990 C   0  0  0  0  0  0  0  0  0  0  0  0
   58.3230   26.4780   44.7730 C   0  0  2  0  0  0  0  0  0  0  0  0
   58.0430   27.1970   43.4330 C   0  0  0  0  0  0  0  0  0  0  0  0
   57.7830   28.7000   43.6150 C   0  0  0  0  0  0  0  0  0  0  0  0
   56.6630   28.9570   44.6410 C   0  0  2  0  0  0  0  0  0  0  0  0
   56.4610   30.3930   44.8510 N   0  0  0  0  0  0  0  0  0  0  0  0
   57.4290   31.4250   44.6090 C   0  0  0  0  0  0  0  0  0  0  0  0
   57.4320   32.0520   43.5150 O   0  0  0  0  0  0  0  0  0  0  0  0
   58.4010   31.7840   45.6980 C   0  0  0  0  0  0  0  0  0  0  0  0
   58.7130   33.2870   45.7620 C   0  0  0  0  0  0  0  0  0  0  0  0
   59.3240   33.7870   47.3690 S   0  0  0  0  0  0  0  0  0  0  0  0
   59.2110   35.2750   47.5570 O   0  0  0  0  0  0  0  0  0  0  0  0
   58.5160   33.1080   48.4400 O   0  0  0  0  0  0  0  0  0  0  0  0
   61.0140   33.3160   47.5040 C   0  0  0  0  0  0  0  0  0  0  0  0
   61.4180   32.0420   47.0780 C   0  0  0  0  0  0  0  0  0  0  0  0
   62.7570   31.6550   47.1960 C   0  0  0  0  0  0  0  0  0  0  0  0
   63.6950   32.5340   47.7450 C   0  0  0  0  0  0  0  0  0  0  0  0
   63.2950   33.8020   48.1760 C   0  0  0  0  0  0  0  0  0  0  0  0
   61.9580   34.1940   48.0590 C   0  0  0  0  0  0  0  0  0  0  0  0
   56.9130   28.2340   45.9770 C   0  0  0  0  0  0  0  0  0  0  0  0
   57.1620   26.7360   45.7570 C   0  0  0  0  0  0  0  0  0  0  0  0
   60.3930   27.2250   49.1790 C   0  0  0  0  0  0  0  0  0  0  0  0
   60.4250   28.5140   50.0030 C   0  0  0  0  0  0  0  0  0  0  0  0
   60.3680   31.4840   50.6890 C   0  0  0  0  0  0  0  0  0  0  0  0
   61.7300   31.3120   50.4330 C   0  0  0  0  0  0  0  0  0  0  0  0
   62.6260   32.2590   50.9630 C   0  0  0  0  0  0  0  0  0  0  0  0
   62.1490   33.3440   51.7310 C   0  0  0  0  0  0  0  0  0  0  0  0
   63.0250   34.2480   52.2360 F   0  0  0  0  0  0  0  0  0  0  0  0
   60.7720   33.4870   51.9830 C   0  0  0  0  0  0  0  0  0  0  0  0
   59.9030   32.5330   51.4430 C   0  0  0  0  0  0  0  0  0  0  0  0
   57.8705   33.1882   53.4216 H   0  0  0  0  0  0  0  0  0  0  0  0
   57.9528   34.4015   52.0996 H   0  0  0  0  0  0  0  0  0  0  0  0
   56.6547   33.1599   52.0996 H   0  0  0  0  0  0  0  0  0  0  0  0
   57.1312   30.9909   50.8519 H   0  0  0  0  0  0  0  0  0  0  0  0
   58.3407   28.8933   49.7922 H   0  0  0  0  0  0  0  0  0  0  0  0
   59.4458   30.7424   47.8528 H   0  0  0  0  0  0  0  0  0  0  0  0
   58.3134   29.3185   47.6465 H   0  0  0  0  0  0  0  0  0  0  0  0
   61.3317   29.4040   47.4116 H   0  0  0  0  0  0  0  0  0  0  0  0
   60.0505   28.8369   46.2226 H   0  0  0  0  0  0  0  0  0  0  0  0
   61.5530   27.2490   47.5080 H   0  0  0  0  0  0  0  0  0  0  0  0
   60.2777   25.5108   46.9853 H   0  0  0  0  0  0  0  0  0  0  0  0
   58.7574   26.4886   47.2887 H   0  0  0  0  0  0  0  0  0  0  0  0
   59.8398   27.9395   45.2907 H   0  0  0  0  0  0  0  0  0  0  0  0
   60.4660   26.2811   44.8699 H   0  0  0  0  0  0  0  0  0  0  0  0
   58.3860   25.4010   44.5583 H   0  0  0  0  0  0  0  0  0  0  0  0
   57.1583   26.7400   42.9656 H   0  0  0  0  0  0  0  0  0  0  0  0
   58.9367   27.0865   42.8013 H   0  0  0  0  0  0  0  0  0  0  0  0
   57.4878   29.1318   42.6473 H   0  0  0  0  0  0  0  0  0  0  0  0
   58.7065   29.1684   43.9863 H   0  0  0  0  0  0  0  0  0  0  0  0
   55.7398   28.5350   44.2171 H   0  0  0  0  0  0  0  0  0  0  0  0
   57.9739   31.4745   46.6633 H   0  0  0  0  0  0  0  0  0  0  0  0
   59.3449   31.2642   45.4770 H   0  0  0  0  0  0  0  0  0  0  0  0
   59.4754   33.5225   45.0048 H   0  0  0  0  0  0  0  0  0  0  0  0
   57.7769   33.8331   45.5733 H   0  0  0  0  0  0  0  0  0  0  0  0
   60.6808   31.3464   46.6506 H   0  0  0  0  0  0  0  0  0  0  0  0
   63.0723   30.6574   46.8562 H   0  0  0  0  0  0  0  0  0  0  0  0
   64.7475   32.2279   47.8378 H   0  0  0  0  0  0  0  0  0  0  0  0
   64.0337   34.4930   48.6082 H   0  0  0  0  0  0  0  0  0  0  0  0
   61.6457   35.1913   48.4022 H   0  0  0  0  0  0  0  0  0  0  0  0
   56.0325   28.3605   46.6241 H   0  0  0  0  0  0  0  0  0  0  0  0
   57.8057   28.6707   46.4486 H   0  0  0  0  0  0  0  0  0  0  0  0
   56.2464   26.2800   45.3524 H   0  0  0  0  0  0  0  0  0  0  0  0
   57.4347   26.2924   46.7259 H   0  0  0  0  0  0  0  0  0  0  0  0
   61.2121   26.5725   49.5158 H   0  0  0  0  0  0  0  0  0  0  0  0
   59.4088   26.7587   49.3332 H   0  0  0  0  0  0  0  0  0  0  0  0
   61.3843   29.0285   49.8447 H   0  0  0  0  0  0  0  0  0  0  0  0
   60.3143   28.2737   51.0707 H   0  0  0  0  0  0  0  0  0  0  0  0
   62.0915   30.4622   49.8353 H   0  0  0  0  0  0  0  0  0  0  0  0
   63.7052   32.1534   50.7778 H   0  0  0  0  0  0  0  0  0  0  0  0
   60.3904   34.3238   52.5865 H   0  0  0  0  0  0  0  0  0  0  0  0
  1  2  1  0
  2  3  1  0
  3  4  2  0
  4  5  1  0
  5  6  1  0
  6  7  1  0
  7  8  1  0
  8  9  1  0
  9 10  1  0
 10 11  1  0
 11 12  1  0
 12 13  1  0
 13 14  1  0
 14 15  1  0
 15 16  1  0
 16 17  2  0
 16 18  1  0
 18 19  1  0
 19 20  1  0
 20 21  2  0
 20 22  2  0
 20 23  1  0
 23 24  2  0
 24 25  1  0
 25 26  2  0
 26 27  1  0
 27 28  2  0
 14 29  1  0
 29 30  1  0
  8 31  1  0
 31 32  1  0
  4 33  1  0
 33 34  2  0
 34 35  1  0
 35 36  2  0
 36 37  1  0
 36 38  1  0
 38 39  2  0
 39  2  1  0
 32  5  1  0
 39 33  1  0
 30 11  1  0
 28 23  1  0
  1 40  1  0
  1 41  1  0
  1 42  1  0
  3 43  1  0
  5 44  1  6
  6 45  1  0
  6 46  1  0
  7 47  1  0
  7 48  1  0
  8 49  1  6
  9 50  1  0
  9 51  1  0
 10 52  1  0
 10 53  1  0
 11 54  1  6
 12 55  1  0
 12 56  1  0
 13 57  1  0
 13 58  1  0
 14 59  1  6
 18 60  1  0
 18 61  1  0
 19 62  1  0
 19 63  1  0
 24 64  1  0
 25 65  1  0
 26 66  1  0
 27 67  1  0
 28 68  1  0
 29 69  1  0
 29 70  1  0
 30 71  1  0
 30 72  1  0
 31 73  1  0
 31 74  1  0
 32 75  1  0
 32 76  1  0
 34 77  1  0
 35 78  1  0
 38 79  1  0
M  CHG  2   8   1  15  -1
M  END
>  <UniqueID>  (51) 
46

>  <SMILES>  (51) 
Cn1cc(C2CC[NH+](CCC3CCC([N-]C(=O)CCS(=O)(=O)c4ccccc4)CC3)CC2)c2ccc(F)cc21

>  <Energy>  (51) 
119.37972282153464

>  <Genealogy>  (51) 
Cn1cc(C2CC[NH+](CCC3CCC([N-]C(=O)CCS(=O)(=O)c4ccccc4)CC3)CC2)c2ccc(F)cc21 (protonated)
Cn1cc(C2CC[NH+](CCC3CCC([N-]C(=O)CCS(=O)(=O)c4ccccc4)CC3)CC2)c2ccc(F)cc21 (3D coordinates assigned)
Cn1cc(C2CC[NH+](CCC3CCC([N-]C(=O)CCS(=O)(=O)c4ccccc4)CC3)CC2)c2ccc(F)cc21 (nonaromatic ring conformer: 119.37972282153464 kcal/mol)

>  <smiles>  (51) 
Cn1cc(C2CCN(CCC3CCC(NC(=O)CCS(=O)(=O)c4ccccc4)CC3)CC2)c2ccc(F)cc21

>  <score_type>  (51) 
oracle

>  <origin>  (51) 
adg

>  <m_score__min__energy>  (51) 
-11.92

>  <m_primary>  (51) 
energy

$$$$
51:0
     RDKit          3D

 48 51  0  0  0  0  0  0  0  0999 V2000
   66.2220   32.4990   50.0920 C   0  0  0  0  0  0  0  0  0  0  0  0
   64.8470   32.1290   50.1640 O   0  0  0  0  0  0  0  0  0  0  0  0
   63.8330   32.6800   49.3660 C   0  0  0  0  0  0  0  0  0  0  0  0
   64.1440   33.0350   48.0520 C   0  0  0  0  0  0  0  0  0  0  0  0
   63.1660   33.5750   47.2140 C   0  0  0  0  0  0  0  0  0  0  0  0
   61.8540   33.7610   47.6660 C   0  0  0  0  0  0  0  0  0  0  0  0
   61.5410   33.4210   48.9940 C   0  0  0  0  0  0  0  0  0  0  0  0
   62.5230   32.8770   49.8370 C   0  0  0  0  0  0  0  0  0  0  0  0
   59.9000   33.5430   49.5400 S   0  0  0  0  0  0  0  0  0  0  0  0
   59.4360   34.9720   49.5450 O   0  0  0  0  0  0  0  0  0  0  0  0
   59.7200   32.9560   50.9130 O   0  0  0  0  0  0  0  0  0  0  0  0
   59.0330   32.6220   48.3710 N   0  0  0  0  0  0  0  0  0  0  0  0
   58.8820   31.1760   48.5640 C   0  0  0  0  0  0  0  0  0  0  0  0
   59.6920   30.4200   47.5470 C   0  0  0  0  0  0  0  0  0  0  0  0
   60.9320   30.2880   47.7200 O   0  0  0  0  0  0  0  0  0  0  0  0
   59.1010   29.8930   46.3490 N   0  0  0  0  0  0  0  0  0  0  0  0
   58.6710   28.5380   46.1410 C   0  0  0  0  0  0  0  0  0  0  0  0
   59.5240   27.4750   46.4850 C   0  0  0  0  0  0  0  0  0  0  0  0
   59.1420   26.1540   46.2480 C   0  0  0  0  0  0  0  0  0  0  0  0
   57.9150   25.8790   45.6480 C   0  0  0  0  0  0  0  0  0  0  0  0
   57.0680   26.9240   45.2750 C   0  0  0  0  0  0  0  0  0  0  0  0
   57.4310   28.2660   45.5070 C   0  0  0  0  0  0  0  0  0  0  0  0
   56.5010   29.3500   45.0930 C   0  0  0  0  0  0  0  0  0  0  0  0
   56.9270   30.5260   44.9340 O   0  0  0  0  0  0  0  0  0  0  0  0
   55.1510   29.0990   44.8680 O   0  0  0  0  0  0  0  0  0  0  0  0
   58.7130   33.2370   47.1180 C   0  0  0  0  0  0  0  0  0  0  0  0
   57.4230   33.0290   46.5920 C   0  0  0  0  0  0  0  0  0  0  0  0
   57.0060   33.6890   45.4370 C   0  0  0  0  0  0  0  0  0  0  0  0
   57.8650   34.5730   44.7930 C   0  0  0  0  0  0  0  0  0  0  0  0
   59.1490   34.7850   45.2930 C   0  0  0  0  0  0  0  0  0  0  0  0
   59.6080   34.1190   46.4390 C   0  0  0  0  0  0  0  0  0  0  0  0
   60.9560   34.3870   46.7810 O   0  0  0  0  0  0  0  0  0  0  0  0
   66.6262   32.6078   51.1092 H   0  0  0  0  0  0  0  0  0  0  0  0
   66.7837   31.7201   49.5556 H   0  0  0  0  0  0  0  0  0  0  0  0
   66.3170   33.4546   49.5556 H   0  0  0  0  0  0  0  0  0  0  0  0
   65.1666   32.8883   47.6741 H   0  0  0  0  0  0  0  0  0  0  0  0
   63.4302   33.8582   46.1844 H   0  0  0  0  0  0  0  0  0  0  0  0
   62.2663   32.6035   50.8711 H   0  0  0  0  0  0  0  0  0  0  0  0
   59.2273   30.9078   49.5734 H   0  0  0  0  0  0  0  0  0  0  0  0
   57.8216   30.9103   48.4421 H   0  0  0  0  0  0  0  0  0  0  0  0
   60.5007   27.6863   46.9448 H   0  0  0  0  0  0  0  0  0  0  0  0
   59.8103   25.3289   46.5352 H   0  0  0  0  0  0  0  0  0  0  0  0
   57.6132   24.8367   45.4679 H   0  0  0  0  0  0  0  0  0  0  0  0
   56.1051   26.6973   44.7939 H   0  0  0  0  0  0  0  0  0  0  0  0
   56.7353   32.3364   47.0994 H   0  0  0  0  0  0  0  0  0  0  0  0
   55.9977   33.5106   45.0351 H   0  0  0  0  0  0  0  0  0  0  0  0
   57.5315   35.1047   43.8896 H   0  0  0  0  0  0  0  0  0  0  0  0
   59.8171   35.4904   44.7772 H   0  0  0  0  0  0  0  0  0  0  0  0
  1  2  1  0
  2  3  1  0
  3  4  2  0
  4  5  1  0
  5  6  2  0
  6  7  1  0
  7  8  2  0
  7  9  1  0
  9 10  2  0
  9 11  2  0
  9 12  1  0
 12 13  1  0
 13 14  1  0
 14 15  2  0
 14 16  1  0
 16 17  1  0
 17 18  2  0
 18 19  1  0
 19 20  2  0
 20 21  1  0
 21 22  2  0
 22 23  1  0
 23 24  2  0
 23 25  1  0
 12 26  1  0
 26 27  2  0
 27 28  1  0
 28 29  2  0
 29 30  1  0
 30 31  2  0
 31 32  1  0
  8  3  1  0
 22 17  1  0
 31 26  1  0
 32  6  1  0
  1 33  1  0
  1 34  1  0
  1 35  1  0
  4 36  1  0
  5 37  1  0
  8 38  1  0
 13 39  1  0
 13 40  1  0
 18 41  1  0
 19 42  1  0
 20 43  1  0
 21 44  1  0
 27 45  1  0
 28 46  1  0
 29 47  1  0
 30 48  1  0
M  CHG  2  16  -1  25  -1
M  END
>  <UniqueID>  (52) 
47

>  <SMILES>  (52) 
COc1ccc2c(c1)S(=O)(=O)N(CC(=O)[N-]c1ccccc1C(=O)[O-])c1ccccc1O2

>  <Energy>  (52) 
84.55394258279405

>  <Genealogy>  (52) 
COc1ccc2c(c1)S(=O)(=O)N(CC(=O)[N-]c1ccccc1C(=O)[O-])c1ccccc1O2 (protonated)
COc1ccc2c(c1)S(=O)(=O)N(CC(=O)[N-]c1ccccc1C(=O)[O-])c1ccccc1O2 (3D coordinates assigned)
COc1ccc2c(c1)S(=O)(=O)N(CC(=O)[N-]c1ccccc1C(=O)[O-])c1ccccc1O2 (nonaromatic ring conformer: 84.55394258279405 kcal/mol)

>  <smiles>  (52) 
COc1ccc2c(c1)S(=O)(=O)N(CC(=O)Nc1ccccc1C(=O)O)c1ccccc1O2

>  <score_type>  (52) 
oracle

>  <origin>  (52) 
adg

>  <m_score__min__energy>  (52) 
-13.029999999999999

>  <m_primary>  (52) 
energy

$$$$
52:0
     RDKit          3D

 44 47  0  0  0  0  0  0  0  0999 V2000
   66.8610   31.0620   50.4610 N   0  0  0  0  0  0  0  0  0  0  0  0
   66.7020   32.7720   50.6480 S   0  0  0  0  0  0  0  0  0  0  0  0
   67.7130   33.4520   49.7670 O   0  0  0  0  0  0  0  0  0  0  0  0
   66.9620   33.1420   52.0800 O   0  0  0  0  0  0  0  0  0  0  0  0
   65.0790   33.2820   50.2010 C   0  0  0  0  0  0  0  0  0  0  0  0
   64.3440   34.1330   51.0570 C   0  0  0  0  0  0  0  0  0  0  0  0
   63.0320   34.5170   50.7310 C   0  0  0  0  0  0  0  0  0  0  0  0
   62.4670   34.0370   49.5500 C   0  0  0  0  0  0  0  0  0  0  0  0
   61.2130   34.3330   49.1250 N   0  0  0  0  0  0  0  0  0  0  0  0
   60.9550   33.7360   47.9360 C   0  0  0  0  0  0  0  0  0  0  0  0
   59.8370   33.8460   47.2800 N   0  0  0  0  0  0  0  0  0  0  0  0
   59.5430   34.6320   46.1110 C   0  0  0  0  0  0  0  0  0  0  0  0
   60.1880   35.7000   45.9420 O   0  0  0  0  0  0  0  0  0  0  0  0
   58.4200   34.3280   45.1510 C   0  0  0  0  0  0  0  0  0  0  0  0
   57.0430   33.4840   46.0060 S   0  0  0  0  0  0  0  0  0  0  0  0
   57.3420   31.8870   45.2560 C   0  0  0  0  0  0  0  0  0  0  0  0
   56.3780   31.1450   44.6700 N   0  0  0  0  0  0  0  0  0  0  0  0
   56.8220   29.9690   44.2270 N   0  0  0  0  0  0  0  0  0  0  0  0
   58.1410   29.7840   44.4600 C   0  0  0  0  0  0  0  0  0  0  0  0
   58.7940   28.7000   44.1660 N   0  0  0  0  0  0  0  0  0  0  0  0
   58.2190   27.4310   43.8110 C   0  0  0  0  0  0  0  0  0  0  0  0
   57.9130   27.1860   42.6120 O   0  0  0  0  0  0  0  0  0  0  0  0
   57.9910   26.3950   44.8500 C   0  0  0  0  0  0  0  0  0  0  0  0
   58.4330   26.6310   46.1670 C   0  0  0  0  0  0  0  0  0  0  0  0
   58.2380   25.6760   47.1680 C   0  0  0  0  0  0  0  0  0  0  0  0
   57.6020   24.4710   46.8710 C   0  0  0  0  0  0  0  0  0  0  0  0
   57.4120   23.5210   47.8680 O   0  0  0  0  0  0  0  0  0  0  0  0
   57.1560   24.2190   45.5730 C   0  0  0  0  0  0  0  0  0  0  0  0
   57.3500   25.1680   44.5570 C   0  0  0  0  0  0  0  0  0  0  0  0
   56.9180   24.8780   43.2630 O   0  0  0  0  0  0  0  0  0  0  0  0
   58.8360   31.1070   45.2320 S   0  0  0  0  0  0  0  0  0  0  0  0
   62.2550   32.8060   47.3800 S   0  0  0  0  0  0  0  0  0  0  0  0
   63.1940   33.2070   48.7130 C   0  0  0  0  0  0  0  0  0  0  0  0
   64.4950   32.8110   49.0100 C   0  0  0  0  0  0  0  0  0  0  0  0
   67.1490   30.6790   51.3890 H   0  0  0  0  0  0  0  0  0  0  0  0
   64.8032   34.4983   51.9874 H   0  0  0  0  0  0  0  0  0  0  0  0
   62.4617   35.1835   51.3948 H   0  0  0  0  0  0  0  0  0  0  0  0
   58.0518   35.2695   44.7174 H   0  0  0  0  0  0  0  0  0  0  0  0
   58.8024   33.6652   44.3608 H   0  0  0  0  0  0  0  0  0  0  0  0
   58.9373   27.5779   46.4098 H   0  0  0  0  0  0  0  0  0  0  0  0
   58.5867   25.8750   48.1921 H   0  0  0  0  0  0  0  0  0  0  0  0
   56.6488   23.2700   45.3444 H   0  0  0  0  0  0  0  0  0  0  0  0
   56.6060   25.6040   42.6280 H   0  0  0  0  0  0  0  0  0  0  0  0
   65.0519   32.1476   48.3320 H   0  0  0  0  0  0  0  0  0  0  0  0
  1  2  1  0
  2  3  2  0
  2  4  2  0
  2  5  1  0
  5  6  2  0
  6  7  1  0
  7  8  2  0
  8  9  1  0
  9 10  1  0
 10 11  2  3
 11 12  1  0
 12 13  2  0
 12 14  1  0
 14 15  1  0
 15 16  1  0
 16 17  2  0
 17 18  1  0
 18 19  1  0
 19 20  2  3
 20 21  1  0
 21 22  2  0
 21 23  1  0
 23 24  2  0
 24 25  1  0
 25 26  2  0
 26 27  1  0
 26 28  1  0
 28 29  2  0
 29 30  1  0
 19 31  1  0
 10 32  1  0
 32 33  1  0
 33 34  2  0
 34  5  1  0
 33  8  1  0
 31 16  1  0
 29 23  1  0
  1 35  1  0
  6 36  1  0
  7 37  1  0
 14 38  1  0
 14 39  1  0
 24 40  1  0
 25 41  1  0
 28 42  1  0
 30 43  1  0
 34 44  1  0
M  CHG  4   1  -1   9  -1  18  -1  27  -1
M  END
>  <UniqueID>  (53) 
48

>  <SMILES>  (53) 
[NH-]S(=O)(=O)c1ccc2[n-]c(=NC(=O)CSc3n[n-]c(=NC(=O)c4ccc([O-])cc4O)s3)sc2c1

>  <Energy>  (53) 
115.30908635182153

>  <Genealogy>  (53) 
[NH-]S(=O)(=O)c1ccc2[n-]c(=NC(=O)CSc3n[n-]c(=NC(=O)c4ccc([O-])cc4O)s3)sc2c1 (protonated)
[NH-]S(=O)(=O)c1ccc2[n-]c(=NC(=O)CSc3n[n-]c(=NC(=O)c4ccc([O-])cc4O)s3)sc2c1 (3D coordinates assigned)
[NH-]S(=O)(=O)c1ccc2[n-]c(=NC(=O)CSc3n[n-]c(=NC(=O)c4ccc([O-])cc4O)s3)sc2c1 (optimized conformer: 115.30908635182153 kcal/mol)

>  <smiles>  (53) 
NS(=O)(=O)c1ccc2[nH]c(=NC(=O)CSc3n[nH]c(=NC(=O)c4ccc(O)cc4O)s3)sc2c1

>  <score_type>  (53) 
oracle

>  <origin>  (53) 
adg

>  <m_score__min__energy>  (53) 
-17.449999999999999

>  <m_primary>  (53) 
energy

$$$$
53:0
     RDKit          3D

 30 31  0  0  0  0  0  0  0  0999 V2000
   60.7030   27.0550   45.9960 C   0  0  0  0  0  0  0  0  0  0  0  0
   59.3490   27.5730   45.7310 N   0  0  0  0  0  0  0  0  0  0  0  0
   58.2620   26.9750   46.3080 C   0  0  0  0  0  0  0  0  0  0  0  0
   58.3980   25.9650   47.0520 O   0  0  0  0  0  0  0  0  0  0  0  0
   56.9890   27.4760   46.0840 C   0  0  0  0  0  0  0  0  0  0  0  0
   56.8250   28.6030   45.2810 C   0  0  0  0  0  0  0  0  0  0  0  0
   55.4910   29.0980   45.0770 N   0  0  0  0  0  0  0  0  0  0  0  0
   57.9270   29.2130   44.7240 N   0  0  0  0  0  0  0  0  0  0  0  0
   57.7760   30.4250   43.8850 C   0  0  0  0  0  0  0  0  0  0  0  0
   57.8550   31.6830   44.7170 C   0  0  0  0  0  0  0  0  0  0  0  0
   57.7340   32.9440   44.1070 C   0  0  0  0  0  0  0  0  0  0  0  0
   57.8330   34.1110   44.8720 C   0  0  0  0  0  0  0  0  0  0  0  0
   58.0670   34.0290   46.2460 C   0  0  0  0  0  0  0  0  0  0  0  0
   58.2100   32.7820   46.8580 C   0  0  0  0  0  0  0  0  0  0  0  0
   58.1110   31.6130   46.0980 C   0  0  0  0  0  0  0  0  0  0  0  0
   59.1840   28.7030   44.9680 C   0  0  0  0  0  0  0  0  0  0  0  0
   60.2010   29.2820   44.4910 O   0  0  0  0  0  0  0  0  0  0  0  0
   60.8657   26.9928   47.0821 H   0  0  0  0  0  0  0  0  0  0  0  0
   60.8060   26.0539   45.5518 H   0  0  0  0  0  0  0  0  0  0  0  0
   61.4479   27.7317   45.5518 H   0  0  0  0  0  0  0  0  0  0  0  0
   56.1140   26.9871   46.5372 H   0  0  0  0  0  0  0  0  0  0  0  0
   54.7800   28.6070   44.4950 H   0  0  0  0  0  0  0  0  0  0  0  0
   55.1900   29.9970   45.5150 H   0  0  0  0  0  0  0  0  0  0  0  0
   58.5785   30.4421   43.1328 H   0  0  0  0  0  0  0  0  0  0  0  0
   56.7888   30.3908   43.4010 H   0  0  0  0  0  0  0  0  0  0  0  0
   57.5606   33.0132   43.0230 H   0  0  0  0  0  0  0  0  0  0  0  0
   57.7264   35.0943   44.3905 H   0  0  0  0  0  0  0  0  0  0  0  0
   58.1388   34.9475   46.8470 H   0  0  0  0  0  0  0  0  0  0  0  0
   58.4008   32.7195   47.9395 H   0  0  0  0  0  0  0  0  0  0  0  0
   58.2340   30.6332   46.5827 H   0  0  0  0  0  0  0  0  0  0  0  0
  1  2  1  0
  2  3  1  0
  3  4  2  0
  3  5  1  0
  5  6  2  0
  6  7  1  0
  6  8  1  0
  8  9  1  0
  9 10  1  0
 10 11  2  0
 11 12  1  0
 12 13  2  0
 13 14  1  0
 14 15  2  0
  8 16  1  0
 16 17  2  0
 16  2  1  0
 15 10  1  0
  1 18  1  0
  1 19  1  0
  1 20  1  0
  5 21  1  0
  7 22  1  0
  7 23  1  0
  9 24  1  0
  9 25  1  0
 11 26  1  0
 12 27  1  0
 13 28  1  0
 14 29  1  0
 15 30  1  0
M  END
>  <UniqueID>  (54) 
49

>  <SMILES>  (54) 
Cn1c(=O)cc(N)n(Cc2ccccc2)c1=O

>  <Energy>  (54) 
39.231092280218434

>  <Genealogy>  (54) 
Cn1c(=O)cc(N)n(Cc2ccccc2)c1=O (3D coordinates assigned)
Cn1c(=O)cc(N)n(Cc2ccccc2)c1=O (optimized conformer: 39.231092280218434 kcal/mol)

>  <smiles>  (54) 
Cn1c(=O)cc(N)n(Cc2ccccc2)c1=O

>  <score_type>  (54) 
oracle

>  <origin>  (54) 
adg

>  <m_score__min__energy>  (54) 
-6.0599999999999996

>  <m_primary>  (54) 
energy

$$$$
54:0
     RDKit          3D

 61 64  0  0  0  0  0  0  0  0999 V2000
   61.8220   31.0100   49.5090 C   0  0  0  0  0  0  0  0  0  0  0  0
   60.8180   31.8560   48.8490 N   0  0  0  0  0  0  0  0  0  0  0  0
   59.4310   31.5600   49.2710 C   0  0  0  0  0  0  0  0  0  0  0  0
   58.9710   32.3370   50.4890 C   0  0  0  0  0  0  0  0  0  0  0  0
   59.6760   33.4760   50.9170 C   0  0  0  0  0  0  0  0  0  0  0  0
   59.2470   34.1930   52.0390 C   0  0  0  0  0  0  0  0  0  0  0  0
   58.1060   33.7880   52.7350 C   0  0  0  0  0  0  0  0  0  0  0  0
   57.3870   32.6680   52.3060 C   0  0  0  0  0  0  0  0  0  0  0  0
   57.8130   31.9490   51.1850 C   0  0  0  0  0  0  0  0  0  0  0  0
   61.0220   31.8120   47.1140 S   0  0  0  0  0  0  0  0  0  0  0  0
   61.5010   30.4540   46.6790 O   0  0  0  0  0  0  0  0  0  0  0  0
   62.0330   32.8420   46.6860 O   0  0  0  0  0  0  0  0  0  0  0  0
   59.4670   32.1380   46.3380 C   0  0  0  0  0  0  0  0  0  0  0  0
   58.8960   31.1690   45.4970 C   0  0  0  0  0  0  0  0  0  0  0  0
   57.6630   31.3960   44.8780 C   0  0  0  0  0  0  0  0  0  0  0  0
   57.1280   30.3880   44.0080 N   0  0  0  0  0  0  0  0  0  0  0  0
   56.9740   29.0010   44.3230 C   0  0  0  0  0  0  0  0  0  0  0  0
   55.9700   28.6370   44.9920 O   0  0  0  0  0  0  0  0  0  0  0  0
   57.8900   28.0210   43.8090 N   0  0  0  0  0  0  0  0  0  0  0  0
   57.9290   26.6610   44.2700 C   0  0  0  0  0  0  0  0  0  0  0  0
   57.4180   25.6260   43.4680 C   0  0  0  0  0  0  0  0  0  0  0  0
   57.3910   24.3110   43.9370 C   0  0  0  0  0  0  0  0  0  0  0  0
   57.8630   24.0150   45.2170 C   0  0  0  0  0  0  0  0  0  0  0  0
   58.3670   25.0340   46.0280 C   0  0  0  0  0  0  0  0  0  0  0  0
   58.4050   26.3590   45.5670 C   0  0  0  0  0  0  0  0  0  0  0  0
   58.9770   27.3780   46.4060 N   0  0  0  0  0  0  0  0  0  0  0  0
   60.4270   27.4880   46.5810 C   0  0  0  0  0  0  0  0  0  0  0  0
   60.7340   27.7590   48.0580 C   0  0  0  0  0  0  0  0  0  0  0  0
   59.9940   28.8690   48.5320 O   0  0  0  0  0  0  0  0  0  0  0  0
   58.6080   28.5780   48.5010 C   0  0  0  0  0  0  0  0  0  0  0  0
   58.1260   28.3740   47.0600 C   0  0  0  0  0  0  0  0  0  0  0  0
   57.0140   32.6270   45.0620 C   0  0  0  0  0  0  0  0  0  0  0  0
   57.5750   33.5970   45.8940 C   0  0  0  0  0  0  0  0  0  0  0  0
   58.7950   33.3610   46.5360 C   0  0  0  0  0  0  0  0  0  0  0  0
   59.4560   34.6270   47.5640 Cl  0  0  0  0  0  0  0  0  0  0  0  0
   61.7163   31.0991   50.6003 H   0  0  0  0  0  0  0  0  0  0  0  0
   61.6719   29.9620   49.2104 H   0  0  0  0  0  0  0  0  0  0  0  0
   62.8294   31.3356   49.2104 H   0  0  0  0  0  0  0  0  0  0  0  0
   58.7577   31.7997   48.4348 H   0  0  0  0  0  0  0  0  0  0  0  0
   59.4059   30.4957   49.5479 H   0  0  0  0  0  0  0  0  0  0  0  0
   60.5697   33.8050   50.3665 H   0  0  0  0  0  0  0  0  0  0  0  0
   59.8093   35.0772   52.3736 H   0  0  0  0  0  0  0  0  0  0  0  0
   57.7730   34.3497   53.6202 H   0  0  0  0  0  0  0  0  0  0  0  0
   56.4852   32.3522   52.8511 H   0  0  0  0  0  0  0  0  0  0  0  0
   57.2385   31.0745   50.8457 H   0  0  0  0  0  0  0  0  0  0  0  0
   59.4250   30.2203   45.3232 H   0  0  0  0  0  0  0  0  0  0  0  0
   58.5000   28.2900   43.0040 H   0  0  0  0  0  0  0  0  0  0  0  0
   57.0360   25.8539   42.4620 H   0  0  0  0  0  0  0  0  0  0  0  0
   56.9974   23.5075   43.2972 H   0  0  0  0  0  0  0  0  0  0  0  0
   57.8379   22.9793   45.5867 H   0  0  0  0  0  0  0  0  0  0  0  0
   58.7372   24.7962   47.0362 H   0  0  0  0  0  0  0  0  0  0  0  0
   60.9079   26.5485   46.2710 H   0  0  0  0  0  0  0  0  0  0  0  0
   60.8135   28.3129   45.9644 H   0  0  0  0  0  0  0  0  0  0  0  0
   60.4694   26.8704   48.6499 H   0  0  0  0  0  0  0  0  0  0  0  0
   61.8064   27.9823   48.1590 H   0  0  0  0  0  0  0  0  0  0  0  0
   58.4193   27.6604   49.0776 H   0  0  0  0  0  0  0  0  0  0  0  0
   58.0602   29.4253   48.9391 H   0  0  0  0  0  0  0  0  0  0  0  0
   57.0842   28.0209   47.0667 H   0  0  0  0  0  0  0  0  0  0  0  0
   58.1824   29.3263   46.5123 H   0  0  0  0  0  0  0  0  0  0  0  0
   56.0615   32.8275   44.5495 H   0  0  0  0  0  0  0  0  0  0  0  0
   57.0540   34.5538   46.0459 H   0  0  0  0  0  0  0  0  0  0  0  0
  1  2  1  0
  2  3  1  0
  3  4  1  0
  4  5  2  0
  5  6  1  0
  6  7  2  0
  7  8  1  0
  8  9  2  0
  2 10  1  0
 10 11  2  0
 10 12  2  0
 10 13  1  0
 13 14  2  0
 14 15  1  0
 15 16  1  0
 16 17  1  0
 17 18  2  0
 17 19  1  0
 19 20  1  0
 20 21  2  0
 21 22  1  0
 22 23  2  0
 23 24  1  0
 24 25  2  0
 25 26  1  0
 26 27  1  0
 27 28  1  0
 28 29  1  0
 29 30  1  0
 30 31  1  0
 15 32  2  0
 32 33  1  0
 33 34  2  0
 34 35  1  0
  9  4  1  0
 34 13  1  0
 25 20  1  0
 31 26  1  0
  1 36  1  0
  1 37  1  0
  1 38  1  0
  3 39  1  0
  3 40  1  0
  5 41  1  0
  6 42  1  0
  7 43  1  0
  8 44  1  0
  9 45  1  0
 14 46  1  0
 19 47  1  0
 21 48  1  0
 22 49  1  0
 23 50  1  0
 24 51  1  0
 27 52  1  0
 27 53  1  0
 28 54  1  0
 28 55  1  0
 30 56  1  0
 30 57  1  0
 31 58  1  0
 31 59  1  0
 32 60  1  0
 33 61  1  0
M  CHG  1  16  -1
M  END
>  <UniqueID>  (55) 
50

>  <SMILES>  (55) 
CN(Cc1ccccc1)S(=O)(=O)c1cc([N-]C(=O)Nc2ccccc2N2CCOCC2)ccc1Cl

>  <Energy>  (55) 
80.90150099499084

>  <Genealogy>  (55) 
CN(Cc1ccccc1)S(=O)(=O)c1cc([N-]C(=O)Nc2ccccc2N2CCOCC2)ccc1Cl (protonated)
CN(Cc1ccccc1)S(=O)(=O)c1cc([N-]C(=O)Nc2ccccc2N2CCOCC2)ccc1Cl (3D coordinates assigned)
CN(Cc1ccccc1)S(=O)(=O)c1cc([N-]C(=O)Nc2ccccc2N2CCOCC2)ccc1Cl (nonaromatic ring conformer: 80.90150099499084 kcal/mol)

>  <smiles>  (55) 
CN(Cc1ccccc1)S(=O)(=O)c1cc(NC(=O)Nc2ccccc2N2CCOCC2)ccc1Cl

>  <score_type>  (55) 
oracle

>  <origin>  (55) 
adg

>  <m_score__min__energy>  (55) 
-10.800000000000001

>  <m_primary>  (55) 
energy

$$$$
55:0
     RDKit          3D

 37 38  0  0  0  0  0  0  0  0999 V2000
   54.8990   24.9830   45.6200 C   0  0  0  0  0  0  0  0  0  0  0  0
   55.0310   26.3420   46.0160 O   0  0  0  0  0  0  0  0  0  0  0  0
   56.2630   26.9960   46.0270 C   0  0  0  0  0  0  0  0  0  0  0  0
   57.3320   26.6490   46.8140 C   0  0  0  0  0  0  0  0  0  0  0  0
   58.3440   27.4960   46.5610 N   0  0  0  0  0  0  0  0  0  0  0  0
   57.8420   28.3370   45.6270 C   0  0  0  0  0  0  0  0  0  0  0  0
   58.6360   29.4500   45.0220 C   0  0  0  0  0  0  0  0  0  0  0  0
   58.3460   30.7240   45.7080 N   0  0  0  0  0  0  0  0  0  0  0  0
   59.5690   31.5060   45.9860 C   0  0  0  0  0  0  0  0  0  0  0  0
   59.4210   32.4700   47.1340 C   0  0  0  0  0  0  0  0  0  0  0  0
   59.2790   33.8450   47.0620 C   0  0  0  0  0  0  0  0  0  0  0  0
   59.1860   34.3290   48.3150 N   0  0  0  0  0  0  0  0  0  0  0  0
   59.2540   33.3180   49.1670 N   0  0  0  0  0  0  0  0  0  0  0  0
   59.2650   33.4610   50.6160 C   0  0  0  0  0  0  0  0  0  0  0  0
   59.4130   32.1680   48.4840 C   0  0  0  0  0  0  0  0  0  0  0  0
   57.1490   31.6750   44.8460 S   0  0  0  0  0  0  0  0  0  0  0  0
   57.7870   32.1940   43.2670 C   0  0  0  0  0  0  0  0  0  0  0  0
   56.7650   32.8920   45.6430 O   0  0  0  0  0  0  0  0  0  0  0  0
   55.9200   30.8440   44.5980 O   0  0  0  0  0  0  0  0  0  0  0  0
   56.5710   28.0590   45.2640 N   0  0  0  0  0  0  0  0  0  0  0  0
   54.8370   24.3450   46.5139 H   0  0  0  0  0  0  0  0  0  0  0  0
   53.9850   24.8631   45.0198 H   0  0  0  0  0  0  0  0  0  0  0  0
   55.7729   24.6894   45.0198 H   0  0  0  0  0  0  0  0  0  0  0  0
   57.3565   25.8163   47.5323 H   0  0  0  0  0  0  0  0  0  0  0  0
   59.7081   29.2233   45.1175 H   0  0  0  0  0  0  0  0  0  0  0  0
   58.3619   29.5468   43.9611 H   0  0  0  0  0  0  0  0  0  0  0  0
   60.3832   30.8054   46.2231 H   0  0  0  0  0  0  0  0  0  0  0  0
   59.7801   32.1046   45.0876 H   0  0  0  0  0  0  0  0  0  0  0  0
   59.2475   34.4411   46.1380 H   0  0  0  0  0  0  0  0  0  0  0  0
   59.0900   35.3340   48.5820 H   0  0  0  0  0  0  0  0  0  0  0  0
   59.1886   32.4680   51.0830 H   0  0  0  0  0  0  0  0  0  0  0  0
   60.2028   33.9426   50.9298 H   0  0  0  0  0  0  0  0  0  0  0  0
   58.4118   34.0804   50.9298 H   0  0  0  0  0  0  0  0  0  0  0  0
   59.5180   31.1647   48.9227 H   0  0  0  0  0  0  0  0  0  0  0  0
   58.6319   32.8813   43.4209 H   0  0  0  0  0  0  0  0  0  0  0  0
   58.1284   31.3139   42.7023 H   0  0  0  0  0  0  0  0  0  0  0  0
   56.9949   32.7074   42.7023 H   0  0  0  0  0  0  0  0  0  0  0  0
  1  2  1  0
  2  3  1  0
  3  4  2  0
  4  5  1  0
  5  6  1  0
  6  7  1  0
  7  8  1  0
  8  9  1  0
  9 10  1  0
 10 11  1  0
 11 12  2  0
 12 13  1  0
 13 14  1  0
 13 15  1  0
  8 16  1  0
 16 17  1  0
 16 18  2  0
 16 19  2  0
  6 20  2  0
 20  3  1  0
 15 10  2  0
  1 21  1  0
  1 22  1  0
  1 23  1  0
  4 24  1  0
  7 25  1  0
  7 26  1  0
  9 27  1  0
  9 28  1  0
 11 29  1  0
 12 30  1  0
 14 31  1  0
 14 32  1  0
 14 33  1  0
 15 34  1  0
 17 35  1  0
 17 36  1  0
 17 37  1  0
M  CHG  2   5  -1  12   1
M  END
>  <UniqueID>  (56) 
51

>  <SMILES>  (56) 
COc1c[n-]c(CN(Cc2c[nH+]n(C)c2)S(C)(=O)=O)n1

>  <Energy>  (56) 
87.51271723964184

>  <Genealogy>  (56) 
COc1c[n-]c(CN(Cc2c[nH+]n(C)c2)S(C)(=O)=O)n1 (protonated)
COc1c[n-]c(CN(Cc2c[nH+]n(C)c2)S(C)(=O)=O)n1 (3D coordinates assigned)
COc1c[n-]c(CN(Cc2c[nH+]n(C)c2)S(C)(=O)=O)n1 (optimized conformer: 87.51271723964184 kcal/mol)

>  <smiles>  (56) 
COc1c[nH]c(CN(Cc2cnn(C)c2)S(C)(=O)=O)n1

>  <score_type>  (56) 
oracle

>  <origin>  (56) 
adg

>  <m_score__min__energy>  (56) 
-6.8799999999999999

>  <m_primary>  (56) 
energy

$$$$
56:0
     RDKit          3D

 47 50  0  0  0  0  0  0  0  0999 V2000
   56.1310   30.5790   44.5130 O   0  0  0  0  0  0  0  0  0  0  0  0
   57.1350   30.2220   43.8370 C   0  0  0  0  0  0  0  0  0  0  0  0
   58.0800   31.2010   43.3840 N   0  0  0  0  0  0  0  0  0  0  0  0
   57.7720   32.6300   43.3860 C   0  0  0  0  0  0  0  0  0  0  0  0
   58.1880   33.2450   44.6960 C   0  0  0  0  0  0  0  0  0  0  0  0
   57.6280   32.7820   45.8980 C   0  0  0  0  0  0  0  0  0  0  0  0
   58.0580   33.3030   47.1230 C   0  0  0  0  0  0  0  0  0  0  0  0
   59.0500   34.2870   47.1560 C   0  0  0  0  0  0  0  0  0  0  0  0
   59.6120   34.7530   45.9640 C   0  0  0  0  0  0  0  0  0  0  0  0
   59.1850   34.2350   44.7380 C   0  0  0  0  0  0  0  0  0  0  0  0
   57.3210   28.7990   43.5090 C   0  0  0  0  0  0  0  0  0  0  0  0
   57.0330   28.3860   42.3540 O   0  0  0  0  0  0  0  0  0  0  0  0
   57.8560   27.8480   44.5010 C   0  0  0  0  0  0  0  0  0  0  0  0
   57.8700   26.4640   44.3740 C   0  0  0  0  0  0  0  0  0  0  0  0
   58.4310   25.8970   45.4680 N   0  0  0  0  0  0  0  0  0  0  0  0
   58.6840   24.4670   45.6510 C   0  0  0  0  0  0  0  0  0  0  0  0
   57.7060   23.6610   44.8400 C   0  0  0  0  0  0  0  0  0  0  0  0
   56.3450   23.9980   44.8170 C   0  0  0  0  0  0  0  0  0  0  0  0
   55.4550   23.2120   44.0800 C   0  0  0  0  0  0  0  0  0  0  0  0
   55.9070   22.1280   43.3950 N   0  0  0  0  0  0  0  0  0  0  0  0
   57.2200   21.7760   43.4050 C   0  0  0  0  0  0  0  0  0  0  0  0
   58.1430   22.5340   44.1280 C   0  0  0  0  0  0  0  0  0  0  0  0
   58.7710   26.9110   46.2920 C   0  0  0  0  0  0  0  0  0  0  0  0
   59.3660   26.8330   47.5550 C   0  0  0  0  0  0  0  0  0  0  0  0
   59.5890   28.0320   48.2560 C   0  0  0  0  0  0  0  0  0  0  0  0
   59.2070   29.2690   47.6970 C   0  0  0  0  0  0  0  0  0  0  0  0
   58.6090   29.3220   46.4260 C   0  0  0  0  0  0  0  0  0  0  0  0
   58.4230   28.1200   45.7370 C   0  0  0  0  0  0  0  0  0  0  0  0
   58.9710   30.8870   42.9390 H   0  0  0  0  0  0  0  0  0  0  0  0
   58.3147   33.1207   42.5646 H   0  0  0  0  0  0  0  0  0  0  0  0
   56.6888   32.7659   43.2513 H   0  0  0  0  0  0  0  0  0  0  0  0
   56.8481   32.0066   45.8760 H   0  0  0  0  0  0  0  0  0  0  0  0
   57.6149   32.9378   48.0613 H   0  0  0  0  0  0  0  0  0  0  0  0
   59.3885   34.6947   48.1200 H   0  0  0  0  0  0  0  0  0  0  0  0
   60.3916   35.5286   45.9908 H   0  0  0  0  0  0  0  0  0  0  0  0
   59.6309   34.6035   43.8024 H   0  0  0  0  0  0  0  0  0  0  0  0
   57.4807   25.9085   43.5080 H   0  0  0  0  0  0  0  0  0  0  0  0
   59.7078   24.2338   45.3232 H   0  0  0  0  0  0  0  0  0  0  0  0
   58.5647   24.2135   46.7147 H   0  0  0  0  0  0  0  0  0  0  0  0
   55.9810   24.8737   45.3744 H   0  0  0  0  0  0  0  0  0  0  0  0
   54.3862   23.4710   44.0540 H   0  0  0  0  0  0  0  0  0  0  0  0
   57.5558   20.8924   42.8425 H   0  0  0  0  0  0  0  0  0  0  0  0
   59.2055   22.2495   44.1393 H   0  0  0  0  0  0  0  0  0  0  0  0
   59.6513   25.8627   47.9876 H   0  0  0  0  0  0  0  0  0  0  0  0
   60.0648   28.0045   49.2474 H   0  0  0  0  0  0  0  0  0  0  0  0
   59.3782   30.1987   48.2594 H   0  0  0  0  0  0  0  0  0  0  0  0
   58.2967   30.2808   45.9866 H   0  0  0  0  0  0  0  0  0  0  0  0
  1  2  2  0
  2  3  1  0
  3  4  1  0
  4  5  1  0
  5  6  2  0
  6  7  1  0
  7  8  2  0
  8  9  1  0
  9 10  2  0
  2 11  1  0
 11 12  2  0
 11 13  1  0
 13 14  2  0
 14 15  1  0
 15 16  1  0
 16 17  1  0
 17 18  2  0
 18 19  1  0
 19 20  2  0
 20 21  1  0
 21 22  2  0
 15 23  1  0
 23 24  2  0
 24 25  1  0
 25 26  2  0
 26 27  1  0
 27 28  2  0
 10  5  1  0
 28 13  1  0
 22 17  1  0
 28 23  1  0
  3 29  1  0
  4 30  1  0
  4 31  1  0
  6 32  1  0
  7 33  1  0
  8 34  1  0
  9 35  1  0
 10 36  1  0
 14 37  1  0
 16 38  1  0
 16 39  1  0
 18 40  1  0
 19 41  1  0
 21 42  1  0
 22 43  1  0
 24 44  1  0
 25 45  1  0
 26 46  1  0
 27 47  1  0
M  END
>  <UniqueID>  (57) 
52

>  <SMILES>  (57) 
O=C(NCc1ccccc1)C(=O)c1cn(Cc2ccncc2)c2ccccc12

>  <Energy>  (57) 
85.00489175567012

>  <Genealogy>  (57) 
O=C(NCc1ccccc1)C(=O)c1cn(Cc2ccncc2)c2ccccc12 (3D coordinates assigned)
O=C(NCc1ccccc1)C(=O)c1cn(Cc2ccncc2)c2ccccc12 (optimized conformer: 85.00489175567012 kcal/mol)

>  <smiles>  (57) 
O=C(NCc1ccccc1)C(=O)c1cn(Cc2ccncc2)c2ccccc12

>  <score_type>  (57) 
oracle

>  <origin>  (57) 
adg

>  <m_score__min__energy>  (57) 
-9.4700000000000006

>  <m_primary>  (57) 
energy

$$$$
57:0
     RDKit          3D

 57 60  0  0  1  0  0  0  0  0999 V2000
   55.7410   26.0930   46.4210 O   0  0  0  0  0  0  0  0  0  0  0  0
   57.0040   26.2690   46.3930 C   0  0  0  0  0  0  0  0  0  0  0  0
   57.8830   25.7720   47.4850 C   0  0  0  0  0  0  0  0  0  0  0  0
   59.2380   26.2380   47.3060 N   0  0  0  0  0  0  0  0  0  0  0  0
   59.4970   27.4870   47.1940 C   0  0  0  0  0  0  0  0  0  0  0  0
   59.0820   28.4040   48.0800 N   0  0  0  0  0  0  0  0  0  0  0  0
   59.3620   29.7270   47.9380 C   0  0  0  0  0  0  0  0  0  0  0  0
   58.8930   30.7290   48.9630 C   0  0  0  0  0  0  0  0  0  0  0  0
   59.5670   31.7760   49.1430 O   0  0  0  0  0  0  0  0  0  0  0  0
   60.2300   32.8070   49.3220 C   0  0  0  0  0  0  0  0  0  0  0  0
   61.5480   32.9530   48.5650 C   0  0  0  0  0  0  0  0  0  0  0  0
   62.6620   32.2920   49.0920 C   0  0  0  0  0  0  0  0  0  0  0  0
   63.8700   32.3890   48.4340 C   0  0  0  0  0  0  0  0  0  0  0  0
   63.9640   33.1290   47.2740 C   0  0  0  0  0  0  0  0  0  0  0  0
   62.8370   33.7810   46.7670 C   0  0  0  0  0  0  0  0  0  0  0  0
   61.6170   33.6990   47.4090 C   0  0  0  0  0  0  0  0  0  0  0  0
   60.0960   30.0750   46.8340 C   0  0  0  0  0  0  0  0  0  0  0  0
   60.5360   29.1440   45.9080 C   0  0  0  0  0  0  0  0  0  0  0  0
   60.2280   27.8510   46.1020 N   0  0  0  0  0  0  0  0  0  0  0  0
   57.5590   26.9540   45.2910 N   0  0  0  0  0  0  0  0  0  0  0  0
   57.0950   28.0830   44.8870 C   0  0  0  0  0  0  0  0  0  0  0  0
   57.7720   29.0140   44.1200 C   0  0  0  0  0  0  0  0  0  0  0  0
   56.9740   30.1020   43.8740 C   0  0  0  0  0  0  0  0  0  0  0  0
   57.0910   31.2950   43.0920 C   0  0  0  0  0  0  0  0  0  0  0  0
   57.7470   32.3810   43.3380 C   0  0  0  0  0  0  0  0  0  0  0  0
   58.0360   33.0120   44.5870 C   0  0  0  0  0  0  0  0  0  0  0  0
   57.5310   32.7660   45.8260 C   0  0  0  0  0  0  0  0  0  0  0  0
   57.7890   33.5220   46.9550 C   0  0  0  0  0  0  0  0  0  0  0  0
   58.6200   34.6150   46.8600 C   0  0  0  0  0  0  0  0  0  0  0  0
   59.1490   34.8890   45.6220 C   0  0  0  0  0  0  0  0  0  0  0  0
   58.8860   34.1350   44.5060 C   0  0  0  0  0  0  0  0  0  0  0  0
   55.8070   29.7910   44.5160 N   0  0  0  0  0  0  0  0  0  0  0  0
   55.8930   28.6210   45.0970 N   0  0  0  0  0  0  0  0  0  0  0  0
   57.5008   26.1370   48.4497 H   0  0  0  0  0  0  0  0  0  0  0  0
   57.8831   24.6722   47.4640 H   0  0  0  0  0  0  0  0  0  0  0  0
   57.8811   31.0434   48.6676 H   0  0  0  0  0  0  0  0  0  0  0  0
   58.9799   30.1908   49.9184 H   0  0  0  0  0  0  0  0  0  0  0  0
   59.5938   33.6583   49.0380 H   0  0  0  0  0  0  0  0  0  0  0  0
   60.5251   32.7631   50.3808 H   0  0  0  0  0  0  0  0  0  0  0  0
   62.5760   31.7036   50.0174 H   0  0  0  0  0  0  0  0  0  0  0  0
   64.7575   31.8768   48.8339 H   0  0  0  0  0  0  0  0  0  0  0  0
   64.9268   33.2060   46.7476 H   0  0  0  0  0  0  0  0  0  0  0  0
   62.9229   34.3692   45.8414 H   0  0  0  0  0  0  0  0  0  0  0  0
   60.7296   34.2125   47.0104 H   0  0  0  0  0  0  0  0  0  0  0  0
   60.3452   31.1349   46.6774 H   0  0  0  0  0  0  0  0  0  0  0  0
   61.1247   29.4564   45.0329 H   0  0  0  0  0  0  0  0  0  0  0  0
   60.5580   27.1450   45.4040 H   0  0  0  0  0  0  0  0  0  0  0  0
   58.8044   28.8981   43.7585 H   0  0  0  0  0  0  0  0  0  0  0  0
   56.5405   31.2863   42.1397 H   0  0  0  0  0  0  0  0  0  0  0  0
   58.1429   32.8980   42.4514 H   0  0  0  0  0  0  0  0  0  0  0  0
   56.8652   31.8977   45.9387 H   0  0  0  0  0  0  0  0  0  0  0  0
   57.3344   33.2523   47.9197 H   0  0  0  0  0  0  0  0  0  0  0  0
   58.8501   35.2405   47.7351 H   0  0  0  0  0  0  0  0  0  0  0  0
   59.8173   35.7568   45.5202 H   0  0  0  0  0  0  0  0  0  0  0  0
   59.3408   34.4079   43.5423 H   0  0  0  0  0  0  0  0  0  0  0  0
   54.9300   30.3760   44.5680 H   0  0  0  0  0  0  0  0  0  0  0  0
   55.1440   28.1560   45.6460 H   0  0  0  0  0  0  0  0  0  0  0  0
  1  2  2  0
  2  3  1  0
  3  4  1  0
  4  5  2  0
  5  6  1  0
  6  7  2  0
  7  8  1  0
  8  9  1  0
  9 10  1  0
 10 11  1  0
 11 12  2  0
 12 13  1  0
 13 14  2  0
 14 15  1  0
 15 16  2  0
  7 17  1  0
 17 18  2  0
 18 19  1  0
  2 20  1  0
 20 21  2  0
 21 22  1  0
 22 23  2  0
 23 24  1  0
 24 25  2  0
 25 26  1  0
 26 27  2  0
 27 28  1  0
 28 29  2  0
 29 30  1  0
 30 31  2  0
 23 32  1  0
 32 33  1  0
 19  5  1  0
 33 21  1  0
 16 11  1  0
 31 26  1  0
  3 34  1  0
  3 35  1  0
  8 36  1  0
  8 37  1  0
 10 38  1  0
 10 39  1  0
 12 40  1  0
 13 41  1  0
 14 42  1  0
 15 43  1  0
 16 44  1  0
 17 45  1  0
 18 46  1  0
 19 47  1  0
 22 48  1  0
 24 49  1  0
 25 50  1  0
 27 51  1  0
 28 52  1  0
 29 53  1  0
 30 54  1  0
 31 55  1  0
 32 56  1  0
 33 57  1  0
M  END
>  <smiles>  (58) 
O=C(CN=c1nc(COCc2ccccc2)cc[nH]1)N=c1cc(C=Cc2ccccc2)[nH][nH]1

>  <score_type>  (58) 
oracle

>  <origin>  (58) 
adg

>  <m_score__min__energy>  (58) 
-10.01

>  <m_primary>  (58) 
energy

$$$$
58:0
     RDKit          3D

 50 51  0  0  0  0  0  0  0  0999 V2000
   63.8920   33.4690   48.1740 C   0  0  0  0  0  0  0  0  0  0  0  0
   62.8310   33.8490   47.1480 C   0  0  0  0  0  0  0  0  0  0  0  0
   61.6240   34.2510   47.7950 O   0  0  0  0  0  0  0  0  0  0  0  0
   60.3340   34.1820   47.2410 C   0  0  0  0  0  0  0  0  0  0  0  0
   60.0210   34.7380   45.9830 C   0  0  0  0  0  0  0  0  0  0  0  0
   58.7280   34.6240   45.4630 C   0  0  0  0  0  0  0  0  0  0  0  0
   57.7380   33.9560   46.1840 C   0  0  0  0  0  0  0  0  0  0  0  0
   58.0340   33.4070   47.4320 C   0  0  0  0  0  0  0  0  0  0  0  0
   59.3240   33.5280   47.9710 C   0  0  0  0  0  0  0  0  0  0  0  0
   59.6080   32.9550   49.2600 N   0  0  0  0  0  0  0  0  0  0  0  0
   60.1020   33.8360   50.3280 C   0  0  0  0  0  0  0  0  0  0  0  0
   59.2270   33.7150   51.5720 C   0  0  0  0  0  0  0  0  0  0  0  0
   59.3080   31.5590   49.4820 C   0  0  0  0  0  0  0  0  0  0  0  0
   58.1500   31.1280   49.2210 O   0  0  0  0  0  0  0  0  0  0  0  0
   60.3410   30.5780   49.9720 C   0  0  0  0  0  0  0  0  0  0  0  0
   61.5730   30.7090   49.2030 N   0  0  0  0  0  0  0  0  0  0  0  0
   61.6160   30.6720   47.7710 C   0  0  0  0  0  0  0  0  0  0  0  0
   62.6940   30.9310   47.1710 O   0  0  0  0  0  0  0  0  0  0  0  0
   60.3990   30.3290   46.9980 C   0  0  0  0  0  0  0  0  0  0  0  0
   59.9240   31.1940   45.9950 C   0  0  0  0  0  0  0  0  0  0  0  0
   58.7740   30.8760   45.2680 C   0  0  0  0  0  0  0  0  0  0  0  0
   58.0740   29.6920   45.5360 C   0  0  0  0  0  0  0  0  0  0  0  0
   56.6250   29.2840   44.6170 S   0  0  0  0  0  0  0  0  0  0  0  0
   57.0300   28.9070   42.9770 N   0  0  0  0  0  0  0  0  0  0  0  0
   55.9500   28.1020   45.2530 O   0  0  0  0  0  0  0  0  0  0  0  0
   55.6810   30.4530   44.6160 O   0  0  0  0  0  0  0  0  0  0  0  0
   58.5480   28.8210   46.5250 C   0  0  0  0  0  0  0  0  0  0  0  0
   59.7030   29.1350   47.2480 C   0  0  0  0  0  0  0  0  0  0  0  0
   63.4900   33.6130   49.1877 H   0  0  0  0  0  0  0  0  0  0  0  0
   64.1731   32.4143   48.0374 H   0  0  0  0  0  0  0  0  0  0  0  0
   64.7787   34.1054   48.0374 H   0  0  0  0  0  0  0  0  0  0  0  0
   63.2051   34.6807   46.5329 H   0  0  0  0  0  0  0  0  0  0  0  0
   62.6192   32.9728   46.5175 H   0  0  0  0  0  0  0  0  0  0  0  0
   60.7977   35.2637   45.4083 H   0  0  0  0  0  0  0  0  0  0  0  0
   58.4907   35.0624   44.4824 H   0  0  0  0  0  0  0  0  0  0  0  0
   56.7238   33.8621   45.7685 H   0  0  0  0  0  0  0  0  0  0  0  0
   57.2525   32.8768   47.9961 H   0  0  0  0  0  0  0  0  0  0  0  0
   61.1337   33.5518   50.5827 H   0  0  0  0  0  0  0  0  0  0  0  0
   60.0705   34.8764   49.9723 H   0  0  0  0  0  0  0  0  0  0  0  0
   59.8543   33.8018   52.4714 H   0  0  0  0  0  0  0  0  0  0  0  0
   58.4749   34.5177   51.5707 H   0  0  0  0  0  0  0  0  0  0  0  0
   58.7209   32.7383   51.5707 H   0  0  0  0  0  0  0  0  0  0  0  0
   60.5535   30.7755   51.0331 H   0  0  0  0  0  0  0  0  0  0  0  0
   59.9502   29.5573   49.8478 H   0  0  0  0  0  0  0  0  0  0  0  0
   60.4628   32.1289   45.7814 H   0  0  0  0  0  0  0  0  0  0  0  0
   58.4167   31.5577   44.4822 H   0  0  0  0  0  0  0  0  0  0  0  0
   56.9720   27.8690   42.8710 H   0  0  0  0  0  0  0  0  0  0  0  0
   58.0290   29.1770   42.8330 H   0  0  0  0  0  0  0  0  0  0  0  0
   58.0090   27.8852   46.7341 H   0  0  0  0  0  0  0  0  0  0  0  0
   60.0695   28.4412   48.0189 H   0  0  0  0  0  0  0  0  0  0  0  0
  1  2  1  0
  2  3  1  0
  3  4  1  0
  4  5  2  0
  5  6  1  0
  6  7  2  0
  7  8  1  0
  8  9  2  0
  9 10  1  0
 10 11  1  0
 11 12  1  0
 10 13  1  0
 13 14  2  0
 13 15  1  0
 15 16  1  0
 16 17  1  0
 17 18  2  0
 17 19  1  0
 19 20  2  0
 20 21  1  0
 21 22  2  0
 22 23  1  0
 23 24  1  0
 23 25  2  0
 23 26  2  0
 22 27  1  0
 27 28  2  0
  9  4  1  0
 28 19  1  0
  1 29  1  0
  1 30  1  0
  1 31  1  0
  2 32  1  0
  2 33  1  0
  5 34  1  0
  6 35  1  0
  7 36  1  0
  8 37  1  0
 11 38  1  0
 11 39  1  0
 12 40  1  0
 12 41  1  0
 12 42  1  0
 15 43  1  0
 15 44  1  0
 20 45  1  0
 21 46  1  0
 24 47  1  0
 24 48  1  0
 27 49  1  0
 28 50  1  0
M  CHG  1  16  -1
M  END
>  <UniqueID>  (59) 
53

>  <SMILES>  (59) 
CCOc1ccccc1N(CC)C(=O)C[N-]C(=O)c1ccc(S(N)(=O)=O)cc1

>  <Energy>  (59) 
49.7278647631703

>  <Genealogy>  (59) 
CCOc1ccccc1N(CC)C(=O)C[N-]C(=O)c1ccc(S(N)(=O)=O)cc1 (protonated)
CCOc1ccccc1N(CC)C(=O)C[N-]C(=O)c1ccc(S(N)(=O)=O)cc1 (3D coordinates assigned)
CCOc1ccccc1N(CC)C(=O)C[N-]C(=O)c1ccc(S(N)(=O)=O)cc1 (optimized conformer: 49.7278647631703 kcal/mol)

>  <smiles>  (59) 
CCOc1ccccc1N(CC)C(=O)CNC(=O)c1ccc(S(N)(=O)=O)cc1

>  <score_type>  (59) 
oracle

>  <origin>  (59) 
adg

>  <m_score__min__energy>  (59) 
-9.6500000000000004

>  <m_primary>  (59) 
energy

$$$$
59:0
     RDKit          3D

 49 52  0  0  0  0  0  0  0  0999 V2000
   59.9642   34.2943   51.3516 H   0  0  0  0  0  0  0  0  0  0  0  0
   60.9190   33.7620   51.4740 C   0  0  0  0  0  0  0  0  0  0  0  0
   61.0010   32.6620   52.4580 C   0  0  0  0  0  0  0  0  0  0  0  0
   61.2040   32.9180   53.6750 O   0  0  0  0  0  0  0  0  0  0  0  0
   60.9330   31.2920   52.0450 N   0  0  0  0  0  0  0  0  0  0  0  0
   60.5770   30.8160   50.7390 C   0  0  0  0  0  0  0  0  0  0  0  0
   59.3020   31.1000   50.2380 C   0  0  0  0  0  0  0  0  0  0  0  0
   58.5869   31.6652   50.8538 H   0  0  0  0  0  0  0  0  0  0  0  0
   58.9300   30.6710   48.9610 C   0  0  0  0  0  0  0  0  0  0  0  0
   57.9190   30.8871   48.5852 H   0  0  0  0  0  0  0  0  0  0  0  0
   59.8390   29.9650   48.1530 C   0  0  0  0  0  0  0  0  0  0  0  0
   59.4440   29.5080   46.7960 C   0  0  0  0  0  0  0  0  0  0  0  0
   60.2570   28.6100   46.0800 C   0  0  0  0  0  0  0  0  0  0  0  0
   61.1890   28.2386   46.5309 H   0  0  0  0  0  0  0  0  0  0  0  0
   59.8890   28.1870   44.8010 C   0  0  0  0  0  0  0  0  0  0  0  0
   60.5331   27.4872   44.2484 H   0  0  0  0  0  0  0  0  0  0  0  0
   58.7050   28.6500   44.2210 C   0  0  0  0  0  0  0  0  0  0  0  0
   58.4212   28.3174   43.2116 H   0  0  0  0  0  0  0  0  0  0  0  0
   57.8790   29.5370   44.9230 C   0  0  0  0  0  0  0  0  0  0  0  0
   56.3910   30.1330   44.1950 S   0  0  0  0  0  0  0  0  0  0  0  0
   56.1990   31.5810   44.5490 O   0  0  0  0  0  0  0  0  0  0  0  0
   55.2180   29.3500   44.7130 O   0  0  0  0  0  0  0  0  0  0  0  0
   56.4840   29.9600   42.4770 N   0  0  0  0  0  0  0  0  0  0  0  0
   57.4150   29.5360   42.2630 H   0  0  0  0  0  0  0  0  0  0  0  0
   55.7620   29.2570   42.2020 H   0  0  0  0  0  0  0  0  0  0  0  0
   58.2530   29.9670   46.2040 C   0  0  0  0  0  0  0  0  0  0  0  0
   57.6087   30.6704   46.7518 H   0  0  0  0  0  0  0  0  0  0  0  0
   61.1300   29.7060   48.6480 C   0  0  0  0  0  0  0  0  0  0  0  0
   61.8550   29.1625   48.0243 H   0  0  0  0  0  0  0  0  0  0  0  0
   61.4980   30.1340   49.9260 C   0  0  0  0  0  0  0  0  0  0  0  0
   62.5142   29.9360   50.2977 H   0  0  0  0  0  0  0  0  0  0  0  0
   61.9650   34.1330   50.7270 C   0  0  0  0  0  0  0  0  0  0  0  0
   62.7179   34.8091   51.1583 H   0  0  0  0  0  0  0  0  0  0  0  0
   62.1360   33.6580   49.3360 C   0  0  0  0  0  0  0  0  0  0  0  0
   63.3430   33.0230   49.0150 C   0  0  0  0  0  0  0  0  0  0  0  0
   64.0996   32.8540   49.7954 H   0  0  0  0  0  0  0  0  0  0  0  0
   63.5860   32.6050   47.7070 C   0  0  0  0  0  0  0  0  0  0  0  0
   64.5396   32.1176   47.4559 H   0  0  0  0  0  0  0  0  0  0  0  0
   62.6510   32.7970   46.7430 N   0  0  0  0  0  0  0  0  0  0  0  0
   61.4540   33.3800   47.0110 C   0  0  0  0  0  0  0  0  0  0  0  0
   60.5150   33.5320   45.9840 C   0  0  0  0  0  0  0  0  0  0  0  0
   60.7627   33.2081   44.9624 H   0  0  0  0  0  0  0  0  0  0  0  0
   59.2660   34.0930   46.2520 C   0  0  0  0  0  0  0  0  0  0  0  0
   58.5351   34.2188   45.4396 H   0  0  0  0  0  0  0  0  0  0  0  0
   58.9420   34.4950   47.5490 C   0  0  0  0  0  0  0  0  0  0  0  0
   57.9517   34.9261   47.7575 H   0  0  0  0  0  0  0  0  0  0  0  0
   59.8710   34.3520   48.5840 C   0  0  0  0  0  0  0  0  0  0  0  0
   59.6022   34.6596   49.6053 H   0  0  0  0  0  0  0  0  0  0  0  0
   61.1510   33.8160   48.3280 C   0  0  0  0  0  0  0  0  0  0  0  0
  1  2  1  0
  2  3  1  0
  3  4  2  0
  3  5  1  0
  5  6  1  0
  6  7  2  0
  7  8  1  0
  7  9  1  0
  9 10  1  0
  9 11  2  0
 11 12  1  0
 12 13  2  0
 13 14  1  0
 13 15  1  0
 15 16  1  0
 15 17  2  0
 17 18  1  0
 17 19  1  0
 19 20  1  0
 20 21  2  0
 20 22  2  0
 20 23  1  0
 23 24  1  0
 23 25  1  0
 19 26  2  0
 26 27  1  0
 11 28  1  0
 28 29  1  0
 28 30  2  0
 30 31  1  0
  2 32  2  0
 32 33  1  0
 32 34  1  0
 34 35  2  0
 35 36  1  0
 35 37  1  0
 37 38  1  0
 37 39  2  0
 39 40  1  0
 40 41  2  0
 41 42  1  0
 41 43  1  0
 43 44  1  0
 43 45  2  0
 45 46  1  0
 45 47  1  0
 47 48  1  0
 47 49  2  0
 30  6  1  0
 49 34  1  0
 26 12  1  0
 49 40  1  0
M  CHG  1   5  -1
M  END
>  <UniqueID>  (60) 
54

>  <SMILES>  (60) 
NS(=O)(=O)c1cccc(-c2ccc([N-]C(=O)/C=C/c3ccnc4ccccc34)cc2)c1

>  <Energy>  (60) 
72.23327315183259

>  <Genealogy>  (60) 
NS(=O)(=O)c1cccc(-c2ccc([N-]C(=O)C=Cc3ccnc4ccccc34)cc2)c1 (protonated)
NS(=O)(=O)c1cccc(-c2ccc([N-]C(=O)/C=C/c3ccnc4ccccc34)cc2)c1 (cis-trans isomerization)
NS(=O)(=O)c1cccc(-c2ccc([N-]C(=O)/C=C/c3ccnc4ccccc34)cc2)c1 (3D coordinates assigned)
NS(=O)(=O)c1cccc(-c2ccc([N-]C(=O)/C=C/c3ccnc4ccccc34)cc2)c1 (optimized conformer: 72.23327315183259 kcal/mol)

>  <smiles>  (60) 
NS(=O)(=O)c1cccc(-c2ccc(NC(=O)C=Cc3ccnc4ccccc34)cc2)c1

>  <score_type>  (60) 
oracle

>  <origin>  (60) 
adg

>  <m_score__min__energy>  (60) 
-11.640000000000001

>  <m_primary>  (60) 
energy

$$$$
60:0
     RDKit          3D

 35 38  0  0  0  0  0  0  0  0999 V2000
   55.2250   28.8560   44.8580 O   0  0  0  0  0  0  0  0  0  0  0  0
   56.2700   29.7160   45.1700 C   0  0  0  0  0  0  0  0  0  0  0  0
   57.3910   29.3470   45.9010 C   0  0  0  0  0  0  0  0  0  0  0  0
   58.1430   30.4950   45.9640 C   0  0  0  0  0  0  0  0  0  0  0  0
   59.3750   30.7360   46.5670 C   0  0  0  0  0  0  0  0  0  0  0  0
   59.9260   32.0350   46.4660 C   0  0  0  0  0  0  0  0  0  0  0  0
   61.2380   32.3430   47.0890 C   0  0  0  0  0  0  0  0  0  0  0  0
   62.0550   33.3630   46.5730 C   0  0  0  0  0  0  0  0  0  0  0  0
   63.2850   33.6380   47.1760 C   0  0  0  0  0  0  0  0  0  0  0  0
   63.6870   32.9250   48.2600 N   0  0  0  0  0  0  0  0  0  0  0  0
   62.9200   31.9340   48.7860 C   0  0  0  0  0  0  0  0  0  0  0  0
   63.4950   31.0390   50.2270 S   0  0  0  0  0  0  0  0  0  0  0  0
   64.7360   32.2770   50.6100 C   0  0  0  0  0  0  0  0  0  0  0  0
   66.0600   32.0850   50.1950 C   0  0  0  0  0  0  0  0  0  0  0  0
   67.0340   33.0430   50.4940 C   0  0  0  0  0  0  0  0  0  0  0  0
   66.6870   34.1940   51.2060 C   0  0  0  0  0  0  0  0  0  0  0  0
   65.3660   34.3910   51.6180 C   0  0  0  0  0  0  0  0  0  0  0  0
   64.3890   33.4350   51.3210 C   0  0  0  0  0  0  0  0  0  0  0  0
   63.1100   33.6350   51.7270 F   0  0  0  0  0  0  0  0  0  0  0  0
   61.6840   31.6220   48.2090 C   0  0  0  0  0  0  0  0  0  0  0  0
   59.2100   33.0420   45.7610 C   0  0  0  0  0  0  0  0  0  0  0  0
   57.9690   32.7600   45.1650 C   0  0  0  0  0  0  0  0  0  0  0  0
   57.4610   31.4700   45.2850 C   0  0  0  0  0  0  0  0  0  0  0  0
   56.2980   31.0130   44.7850 N   0  0  0  0  0  0  0  0  0  0  0  0
   57.6237   28.3617   46.3311 H   0  0  0  0  0  0  0  0  0  0  0  0
   59.9053   29.9379   47.1072 H   0  0  0  0  0  0  0  0  0  0  0  0
   61.7275   33.9429   45.6975 H   0  0  0  0  0  0  0  0  0  0  0  0
   63.9289   34.4332   46.7722 H   0  0  0  0  0  0  0  0  0  0  0  0
   66.3339   31.1797   49.6333 H   0  0  0  0  0  0  0  0  0  0  0  0
   68.0736   32.8903   50.1685 H   0  0  0  0  0  0  0  0  0  0  0  0
   67.4542   34.9459   51.4426 H   0  0  0  0  0  0  0  0  0  0  0  0
   65.0943   35.2989   52.1765 H   0  0  0  0  0  0  0  0  0  0  0  0
   61.0648   30.8163   48.6303 H   0  0  0  0  0  0  0  0  0  0  0  0
   59.6331   34.0542   45.6814 H   0  0  0  0  0  0  0  0  0  0  0  0
   57.4146   33.5373   44.6188 H   0  0  0  0  0  0  0  0  0  0  0  0
  1  2  1  0
  2  3  2  0
  3  4  1  0
  4  5  2  0
  5  6  1  0
  6  7  1  0
  7  8  2  0
  8  9  1  0
  9 10  2  0
 10 11  1  0
 11 12  1  0
 12 13  1  0
 13 14  2  0
 14 15  1  0
 15 16  2  0
 16 17  1  0
 17 18  2  0
 18 19  1  0
 11 20  2  0
  6 21  2  0
 21 22  1  0
 22 23  2  0
 23 24  1  0
 24  2  1  0
 23  4  1  0
 20  7  1  0
 18 13  1  0
  3 25  1  0
  5 26  1  0
  8 27  1  0
  9 28  1  0
 14 29  1  0
 15 30  1  0
 16 31  1  0
 17 32  1  0
 20 33  1  0
 21 34  1  0
 22 35  1  0
M  CHG  2   1  -1  24  -1
M  END
>  <UniqueID>  (61) 
55

>  <SMILES>  (61) 
[O-]c1cc2cc(-c3ccnc(Sc4ccccc4F)c3)ccc2[n-]1

>  <Energy>  (61) 
73.7171546331877

>  <Genealogy>  (61) 
[O-]c1cc2cc(-c3ccnc(Sc4ccccc4F)c3)ccc2[n-]1 (protonated)
[O-]c1cc2cc(-c3ccnc(Sc4ccccc4F)c3)ccc2[n-]1 (3D coordinates assigned)
[O-]c1cc2cc(-c3ccnc(Sc4ccccc4F)c3)ccc2[n-]1 (optimized conformer: 73.7171546331877 kcal/mol)

>  <smiles>  (61) 
Oc1cc2cc(-c3ccnc(Sc4ccccc4F)c3)ccc2[nH]1

>  <score_type>  (61) 
oracle

>  <origin>  (61) 
adg

>  <m_score__min__energy>  (61) 
-12.800000000000001

>  <m_primary>  (61) 
energy

$$$$
61:0
     RDKit          3D

 65 69  0  0  0  0  0  0  0  0999 V2000
   57.3669   31.7806   46.8995 H   0  0  0  0  0  0  0  0  0  0  0  0
   58.1730   32.2710   46.3340 C   0  0  0  0  0  0  0  0  0  0  0  0
   58.7210   33.5290   46.8940 C   0  0  0  0  0  0  0  0  0  0  0  0
   58.0750   34.5930   46.7080 O   0  0  0  0  0  0  0  0  0  0  0  0
   60.0390   33.5930   47.5670 C   0  0  0  0  0  0  0  0  0  0  0  0
   61.2070   33.6540   46.7980 C   0  0  0  0  0  0  0  0  0  0  0  0
   61.1359   33.7111   45.7018 H   0  0  0  0  0  0  0  0  0  0  0  0
   62.4600   33.6430   47.4100 C   0  0  0  0  0  0  0  0  0  0  0  0
   63.3688   33.6709   46.7909 H   0  0  0  0  0  0  0  0  0  0  0  0
   62.5720   33.5970   48.7990 C   0  0  0  0  0  0  0  0  0  0  0  0
   63.8640   33.5810   49.3520 O   0  0  0  0  0  0  0  0  0  0  0  0
   64.5470   32.4080   49.8090 C   0  0  0  0  0  0  0  0  0  0  0  0
   65.1735   32.0150   48.9947 H   0  0  0  0  0  0  0  0  0  0  0  0
   65.1698   32.6769   50.6749 H   0  0  0  0  0  0  0  0  0  0  0  0
   63.5690   31.3540   50.2290 C   0  0  0  0  0  0  0  0  0  0  0  0
   63.6120   30.5520   51.7020 S   0  0  0  0  0  0  0  0  0  0  0  0
   62.3340   29.5220   51.3110 C   0  0  0  0  0  0  0  0  0  0  0  0
   61.8860   28.4070   52.1720 C   0  0  0  0  0  0  0  0  0  0  0  0
   60.6450   28.4860   52.8280 C   0  0  0  0  0  0  0  0  0  0  0  0
   60.0041   29.3684   52.6842 H   0  0  0  0  0  0  0  0  0  0  0  0
   60.2220   27.4450   53.6640 C   0  0  0  0  0  0  0  0  0  0  0  0
   59.2471   27.5101   54.1693 H   0  0  0  0  0  0  0  0  0  0  0  0
   61.0340   26.3230   53.8590 C   0  0  0  0  0  0  0  0  0  0  0  0
   60.7023   25.5106   54.5224 H   0  0  0  0  0  0  0  0  0  0  0  0
   62.2690   26.2370   53.2080 C   0  0  0  0  0  0  0  0  0  0  0  0
   62.9108   25.3569   53.3616 H   0  0  0  0  0  0  0  0  0  0  0  0
   62.6900   27.2710   52.3600 C   0  0  0  0  0  0  0  0  0  0  0  0
   63.6555   27.1920   51.8389 H   0  0  0  0  0  0  0  0  0  0  0  0
   61.9030   29.8350   50.0100 C   0  0  0  0  0  0  0  0  0  0  0  0
   60.7500   29.2030   49.3320 C   0  0  0  0  0  0  0  0  0  0  0  0
   60.7720   27.8300   49.0340 C   0  0  0  0  0  0  0  0  0  0  0  0
   61.6459   27.2228   49.3125 H   0  0  0  0  0  0  0  0  0  0  0  0
   59.6860   27.2320   48.3840 C   0  0  0  0  0  0  0  0  0  0  0  0
   59.7054   26.1546   48.1630 H   0  0  0  0  0  0  0  0  0  0  0  0
   58.5750   28.0000   48.0140 C   0  0  0  0  0  0  0  0  0  0  0  0
   57.4960   27.4010   47.3690 O   0  0  0  0  0  0  0  0  0  0  0  0
   58.5550   29.3700   48.2890 C   0  0  0  0  0  0  0  0  0  0  0  0
   57.6834   29.9755   48.0000 H   0  0  0  0  0  0  0  0  0  0  0  0
   59.6430   29.9730   48.9320 C   0  0  0  0  0  0  0  0  0  0  0  0
   59.6319   31.0558   49.1255 H   0  0  0  0  0  0  0  0  0  0  0  0
   62.6080   30.8440   49.4250 N   0  0  0  0  0  0  0  0  0  0  0  0
   62.4240   31.1990   48.4580 H   0  0  0  0  0  0  0  0  0  0  0  0
   61.4000   33.5760   49.5860 C   0  0  0  0  0  0  0  0  0  0  0  0
   61.4781   33.5729   50.6832 H   0  0  0  0  0  0  0  0  0  0  0  0
   60.1310   33.5590   48.9740 C   0  0  0  0  0  0  0  0  0  0  0  0
   58.9480   33.4770   49.7280 O   0  0  0  0  0  0  0  0  0  0  0  0
   58.8020   32.7160   50.9190 C   0  0  0  0  0  0  0  0  0  0  0  0
   58.9281   33.3733   51.7919 H   0  0  0  0  0  0  0  0  0  0  0  0
   57.8004   32.2620   50.9436 H   0  0  0  0  0  0  0  0  0  0  0  0
   59.5645   31.9235   50.9436 H   0  0  0  0  0  0  0  0  0  0  0  0
   58.5730   31.6750   45.1960 C   0  0  0  0  0  0  0  0  0  0  0  0
   58.7988   32.3210   44.3348 H   0  0  0  0  0  0  0  0  0  0  0  0
   58.7320   30.2110   45.0170 C   0  0  0  0  0  0  0  0  0  0  0  0
   60.0190   29.6470   45.1180 C   0  0  0  0  0  0  0  0  0  0  0  0
   60.8834   30.2978   45.3165 H   0  0  0  0  0  0  0  0  0  0  0  0
   60.2110   28.2700   44.9690 C   0  0  0  0  0  0  0  0  0  0  0  0
   61.2229   27.8440   45.0364 H   0  0  0  0  0  0  0  0  0  0  0  0
   59.1180   27.4390   44.7350 C   0  0  0  0  0  0  0  0  0  0  0  0
   59.2699   26.3579   44.6001 H   0  0  0  0  0  0  0  0  0  0  0  0
   57.8260   27.9760   44.6710 C   0  0  0  0  0  0  0  0  0  0  0  0
   56.9685   27.3087   44.4997 H   0  0  0  0  0  0  0  0  0  0  0  0
   57.6110   29.3580   44.8230 C   0  0  0  0  0  0  0  0  0  0  0  0
   56.2210   29.8700   44.7290 C   0  0  0  0  0  0  0  0  0  0  0  0
   55.9930   31.0780   44.4360 O   0  0  0  0  0  0  0  0  0  0  0  0
   55.1500   28.9910   44.8690 O   0  0  0  0  0  0  0  0  0  0  0  0
  1  2  1  0
  2  3  1  0
  3  4  2  0
  3  5  1  0
  5  6  2  0
  6  7  1  0
  6  8  1  0
  8  9  1  0
  8 10  2  0
 10 11  1  0
 11 12  1  0
 12 13  1  0
 12 14  1  0
 12 15  1  0
 15 16  1  0
 16 17  1  0
 17 18  1  0
 18 19  2  0
 19 20  1  0
 19 21  1  0
 21 22  1  0
 21 23  2  0
 23 24  1  0
 23 25  1  0
 25 26  1  0
 25 27  2  0
 27 28  1  0
 17 29  2  0
 29 30  1  0
 30 31  2  0
 31 32  1  0
 31 33  1  0
 33 34  1  0
 33 35  2  0
 35 36  1  0
 35 37  1  0
 37 38  1  0
 37 39  2  0
 39 40  1  0
 29 41  1  0
 41 42  1  0
 10 43  1  0
 43 44  1  0
 43 45  2  0
 45 46  1  0
 46 47  1  0
 47 48  1  0
 47 49  1  0
 47 50  1  0
  2 51  2  0
 51 52  1  0
 51 53  1  0
 53 54  2  0
 54 55  1  0
 54 56  1  0
 56 57  1  0
 56 58  2  0
 58 59  1  0
 58 60  1  0
 60 61  1  0
 60 62  2  0
 62 63  1  0
 63 64  2  0
 63 65  1  0
 45  5  1  0
 62 53  1  0
 41 15  2  0
 27 18  1  0
 39 30  1  0
M  CHG  3  36  -1  41   1  65  -1
M  END
>  <UniqueID>  (62) 
56

>  <SMILES>  (62) 
COc1cc(OCc2[nH+]c(-c3ccc([O-])cc3)c(-c3ccccc3)s2)ccc1C(=O)/C=C\c1ccccc1C(=O)[O-]

>  <Energy>  (62) 
120.99618295184155

>  <Genealogy>  (62) 
COc1cc(OCc2[nH+]c(-c3ccc([O-])cc3)c(-c3ccccc3)s2)ccc1C(=O)C=Cc1ccccc1C(=O)[O-] (protonated)
COc1cc(OCc2[nH+]c(-c3ccc([O-])cc3)c(-c3ccccc3)s2)ccc1C(=O)/C=C\c1ccccc1C(=O)[O-] (cis-trans isomerization)
COc1cc(OCc2[nH+]c(-c3ccc([O-])cc3)c(-c3ccccc3)s2)ccc1C(=O)/C=C\c1ccccc1C(=O)[O-] (3D coordinates assigned)
COc1cc(OCc2[nH+]c(-c3ccc([O-])cc3)c(-c3ccccc3)s2)ccc1C(=O)/C=C\c1ccccc1C(=O)[O-] (optimized conformer: 120.99618295184155 kcal/mol)

>  <smiles>  (62) 
COc1cc(OCc2nc(-c3ccc(O)cc3)c(-c3ccccc3)s2)ccc1C(=O)C=Cc1ccccc1C(=O)O

>  <score_type>  (62) 
oracle

>  <origin>  (62) 
adg

>  <m_score__min__energy>  (62) 
-15.07

>  <m_primary>  (62) 
energy

$$$$
62:0
     RDKit          3D

 47 50  0  0  0  0  0  0  0  0999 V2000
   59.5310   29.1520   45.2440 C   0  0  0  0  0  0  0  0  0  0  0  0
   58.3600   28.2680   45.5570 C   0  0  0  0  0  0  0  0  0  0  0  0
   57.0220   28.4800   45.2440 C   0  0  0  0  0  0  0  0  0  0  0  0
   56.4170   29.6660   44.6100 C   0  0  0  0  0  0  0  0  0  0  0  0
   55.1620   29.7710   44.5910 O   0  0  0  0  0  0  0  0  0  0  0  0
   57.2060   30.7000   44.0080 N   0  0  0  0  0  0  0  0  0  0  0  0
   57.7640   31.8370   44.6820 C   0  0  0  0  0  0  0  0  0  0  0  0
   58.1240   32.9730   43.9180 C   0  0  0  0  0  0  0  0  0  0  0  0
   58.6850   34.1040   44.5380 C   0  0  0  0  0  0  0  0  0  0  0  0
   58.8570   34.0690   45.9180 C   0  0  0  0  0  0  0  0  0  0  0  0
   58.4950   32.9940   46.6610 C   0  0  0  0  0  0  0  0  0  0  0  0
   57.9340   31.8570   46.0870 C   0  0  0  0  0  0  0  0  0  0  0  0
   58.7710   33.2390   47.9920 O   0  0  0  0  0  0  0  0  0  0  0  0
   59.3470   34.5490   48.0910 C   0  0  0  0  0  0  0  0  0  0  0  0
   59.3820   35.0450   46.7450 O   0  0  0  0  0  0  0  0  0  0  0  0
   56.2980   27.4110   45.6270 N   0  0  0  0  0  0  0  0  0  0  0  0
   57.1190   26.5410   46.1930 N   0  0  0  0  0  0  0  0  0  0  0  0
   56.6530   25.2810   46.7640 C   0  0  0  0  0  0  0  0  0  0  0  0
   58.3840   27.0260   46.1790 C   0  0  0  0  0  0  0  0  0  0  0  0
   59.5730   26.3600   46.7610 C   0  0  0  0  0  0  0  0  0  0  0  0
   60.4290   25.8300   46.0020 O   0  0  0  0  0  0  0  0  0  0  0  0
   59.7620   26.3200   48.1780 N   0  0  0  0  0  0  0  0  0  0  0  0
   60.7560   27.1190   48.8830 C   0  0  0  0  0  0  0  0  0  0  0  0
   60.1270   28.3800   49.4100 C   0  0  0  0  0  0  0  0  0  0  0  0
   60.1380   28.6470   50.7890 C   0  0  0  0  0  0  0  0  0  0  0  0
   59.5250   29.8000   51.2890 C   0  0  0  0  0  0  0  0  0  0  0  0
   58.8920   30.6920   50.4170 C   0  0  0  0  0  0  0  0  0  0  0  0
   58.1190   32.1350   51.0460 Cl  0  0  0  0  0  0  0  0  0  0  0  0
   58.8720   30.4290   49.0430 C   0  0  0  0  0  0  0  0  0  0  0  0
   59.4850   29.2770   48.5400 C   0  0  0  0  0  0  0  0  0  0  0  0
   59.9899   29.4984   46.1818 H   0  0  0  0  0  0  0  0  0  0  0  0
   60.2720   28.5861   44.6604 H   0  0  0  0  0  0  0  0  0  0  0  0
   59.1897   30.0197   44.6604 H   0  0  0  0  0  0  0  0  0  0  0  0
   57.9636   32.9712   42.8298 H   0  0  0  0  0  0  0  0  0  0  0  0
   58.9780   34.9870   43.9511 H   0  0  0  0  0  0  0  0  0  0  0  0
   57.6318   30.9998   46.7066 H   0  0  0  0  0  0  0  0  0  0  0  0
   58.7248   35.1974   48.7254 H   0  0  0  0  0  0  0  0  0  0  0  0
   60.3475   34.5258   48.5477 H   0  0  0  0  0  0  0  0  0  0  0  0
   56.6767   25.3450   47.8619 H   0  0  0  0  0  0  0  0  0  0  0  0
   55.6232   25.0858   46.4302 H   0  0  0  0  0  0  0  0  0  0  0  0
   57.3080   24.4627   46.4302 H   0  0  0  0  0  0  0  0  0  0  0  0
   61.1618   26.5363   49.7231 H   0  0  0  0  0  0  0  0  0  0  0  0
   61.5647   27.3842   48.1861 H   0  0  0  0  0  0  0  0  0  0  0  0
   60.6310   27.9460   51.4786 H   0  0  0  0  0  0  0  0  0  0  0  0
   59.5406   30.0059   52.3695 H   0  0  0  0  0  0  0  0  0  0  0  0
   58.3732   31.1296   48.3571 H   0  0  0  0  0  0  0  0  0  0  0  0
   59.4644   29.0725   47.4594 H   0  0  0  0  0  0  0  0  0  0  0  0
  1  2  1  0
  2  3  1  0
  3  4  1  0
  4  5  2  0
  4  6  1  0
  6  7  1  0
  7  8  2  0
  8  9  1  0
  9 10  2  0
 10 11  1  0
 11 12  2  0
 11 13  1  0
 13 14  1  0
 14 15  1  0
  3 16  2  0
 16 17  1  0
 17 18  1  0
 17 19  1  0
 19 20  1  0
 20 21  2  0
 20 22  1  0
 22 23  1  0
 23 24  1  0
 24 25  2  0
 25 26  1  0
 26 27  2  0
 27 28  1  0
 27 29  1  0
 29 30  2  0
 19  2  2  0
 30 24  1  0
 12  7  1  0
 15 10  1  0
  1 31  1  0
  1 32  1  0
  1 33  1  0
  8 34  1  0
  9 35  1  0
 12 36  1  0
 14 37  1  0
 14 38  1  0
 18 39  1  0
 18 40  1  0
 18 41  1  0
 23 42  1  0
 23 43  1  0
 25 44  1  0
 26 45  1  0
 29 46  1  0
 30 47  1  0
M  CHG  2   6  -1  22  -1
M  END
>  <UniqueID>  (63) 
57

>  <SMILES>  (63) 
Cc1c(C(=O)[N-]c2ccc3c(c2)OCO3)nn(C)c1C(=O)[N-]Cc1ccc(Cl)cc1

>  <Energy>  (63) 
113.0456584276188

>  <Genealogy>  (63) 
Cc1c(C(=O)[N-]c2ccc3c(c2)OCO3)nn(C)c1C(=O)[N-]Cc1ccc(Cl)cc1 (protonated)
Cc1c(C(=O)[N-]c2ccc3c(c2)OCO3)nn(C)c1C(=O)[N-]Cc1ccc(Cl)cc1 (3D coordinates assigned)
Cc1c(C(=O)[N-]c2ccc3c(c2)OCO3)nn(C)c1C(=O)[N-]Cc1ccc(Cl)cc1 (nonaromatic ring conformer: 113.0456584276188 kcal/mol)

>  <smiles>  (63) 
Cc1c(C(=O)Nc2ccc3c(c2)OCO3)nn(C)c1C(=O)NCc1ccc(Cl)cc1

>  <score_type>  (63) 
oracle

>  <origin>  (63) 
adg

>  <m_score__min__energy>  (63) 
-11.08

>  <m_primary>  (63) 
energy

$$$$
63:0
     RDKit          3D

 35 36  0  0  1  0  0  0  0  0999 V2000
   52.8140   24.0520   45.2080 C   0  0  0  0  0  0  0  0  0  0  0  0
   54.0840   23.3210   45.4560 C   0  0  0  0  0  0  0  0  0  0  0  0
   55.0300   24.3520   45.8390 C   0  0  0  0  0  0  0  0  0  0  0  0
   54.9530   25.5690   45.9770 N   0  0  0  0  0  0  0  0  0  0  0  0
   55.8610   26.4250   46.3500 N   0  0  0  0  0  0  0  0  0  0  0  0
   57.1190   25.8100   46.6630 C   0  0  0  0  0  0  0  0  0  0  0  0
   58.2030   26.3960   46.9810 N   0  0  0  0  0  0  0  0  0  0  0  0
   58.8360   27.4460   46.5520 C   0  0  0  0  0  0  0  0  0  0  0  0
   60.1920   26.8190   47.1400 O   0  0  0  0  0  0  0  0  0  0  0  0
   59.5460   28.5310   46.1170 C   0  0  0  0  0  0  0  0  0  0  0  0
   59.7170   29.3750   44.9080 C   0  0  0  0  0  0  0  0  0  0  0  0
   58.6220   29.2780   44.0200 N   0  0  0  0  0  0  0  0  0  0  0  0
   57.1020   30.0070   44.4470 S   0  0  0  0  0  0  0  0  0  0  0  0
   56.4610   29.3660   45.6020 O   0  0  0  0  0  0  0  0  0  0  0  0
   56.1350   30.0360   43.2220 O   0  0  0  0  0  0  0  0  0  0  0  0
   57.6160   31.6550   44.8450 C   0  0  0  0  0  0  0  0  0  0  0  0
   57.7800   32.1360   46.0860 C   0  0  0  0  0  0  0  0  0  0  0  0
   58.2060   33.4200   46.2930 C   0  0  0  0  0  0  0  0  0  0  0  0
   58.4190   34.1440   45.1040 C   0  0  0  0  0  0  0  0  0  0  0  0
   58.0660   32.9810   43.7370 S   0  0  0  0  0  0  0  0  0  0  0  0
   56.7750   24.0570   46.3310 S   0  0  0  0  0  0  0  0  0  0  0  0
   52.3507   24.3187   46.1694 H   0  0  0  0  0  0  0  0  0  0  0  0
   53.0237   24.9676   44.6355 H   0  0  0  0  0  0  0  0  0  0  0  0
   52.1276   23.4108   44.6355 H   0  0  0  0  0  0  0  0  0  0  0  0
   53.9585   22.5883   46.2668 H   0  0  0  0  0  0  0  0  0  0  0  0
   54.4184   22.7542   44.5746 H   0  0  0  0  0  0  0  0  0  0  0  0
   55.8180   27.4640   46.4270 H   0  0  0  0  0  0  0  0  0  0  0  0
   59.2693   29.2850   46.8686 H   0  0  0  0  0  0  0  0  0  0  0  0
   60.4224   27.9150   45.8672 H   0  0  0  0  0  0  0  0  0  0  0  0
   59.8242   30.4237   45.2223 H   0  0  0  0  0  0  0  0  0  0  0  0
   60.6111   29.0184   44.3757 H   0  0  0  0  0  0  0  0  0  0  0  0
   58.9120   29.5850   43.0570 H   0  0  0  0  0  0  0  0  0  0  0  0
   57.5690   31.4890   46.9502 H   0  0  0  0  0  0  0  0  0  0  0  0
   58.3669   33.8465   47.2941 H   0  0  0  0  0  0  0  0  0  0  0  0
   58.7334   35.1944   45.0154 H   0  0  0  0  0  0  0  0  0  0  0  0
  1  2  1  0
  2  3  1  0
  3  4  2  0
  4  5  1  0
  5  6  1  0
  6  7  2  0
  7  8  1  0
  8  9  2  0
  8 10  1  0
 10 11  1  0
 11 12  1  0
 12 13  1  0
 13 14  2  0
 13 15  2  0
 13 16  1  0
 16 17  2  0
 17 18  1  0
 18 19  2  0
 19 20  1  0
  6 21  1  0
 21  3  1  0
 20 16  1  0
  1 22  1  0
  1 23  1  0
  1 24  1  0
  2 25  1  0
  2 26  1  0
  5 27  1  0
 10 28  1  0
 10 29  1  0
 11 30  1  0
 11 31  1  0
 12 32  1  0
 17 33  1  0
 18 34  1  0
 19 35  1  0
M  END
>  <smiles>  (64) 
CCc1n[nH]c(=NC(=O)CCNS(=O)(=O)c2cccs2)s1

>  <score_type>  (64) 
oracle

>  <origin>  (64) 
adg

>  <m_score__min__energy>  (64) 
-8.1500000000000004

>  <m_primary>  (64) 
energy

$$$$
64:0
     RDKit          3D

 43 46  0  0  0  0  0  0  0  0999 V2000
   57.3110   26.1970   47.1830 O   0  0  0  0  0  0  0  0  0  0  0  0
   56.7620   26.4190   46.0690 C   0  0  0  0  0  0  0  0  0  0  0  0
   57.6020   26.7740   44.8880 C   0  0  0  0  0  0  0  0  0  0  0  0
   57.8370   28.2160   44.8700 N   0  0  0  0  0  0  0  0  0  0  0  0
   56.9290   29.2050   44.8040 C   0  0  0  0  0  0  0  0  0  0  0  0
   55.5490   29.0360   44.8350 O   0  0  0  0  0  0  0  0  0  0  0  0
   57.5820   30.4060   44.6900 C   0  0  0  0  0  0  0  0  0  0  0  0
   56.9500   31.7570   44.5620 C   0  0  0  0  0  0  0  0  0  0  0  0
   57.9180   32.8260   44.9610 C   0  0  0  0  0  0  0  0  0  0  0  0
   58.5070   33.7680   44.1260 C   0  0  0  0  0  0  0  0  0  0  0  0
   59.3530   34.5540   44.8270 N   0  0  0  0  0  0  0  0  0  0  0  0
   59.3080   34.1110   46.0930 C   0  0  0  0  0  0  0  0  0  0  0  0
   60.0070   34.6110   47.1900 C   0  0  0  0  0  0  0  0  0  0  0  0
   59.7920   34.0030   48.4390 C   0  0  0  0  0  0  0  0  0  0  0  0
   58.9050   32.9110   48.5610 C   0  0  0  0  0  0  0  0  0  0  0  0
   58.2210   32.4220   47.4350 C   0  0  0  0  0  0  0  0  0  0  0  0
   58.4460   33.0540   46.2130 C   0  0  0  0  0  0  0  0  0  0  0  0
   58.9130   30.1890   44.6670 N   0  0  0  0  0  0  0  0  0  0  0  0
   59.0220   28.8480   44.7700 C   0  0  0  0  0  0  0  0  0  0  0  0
   60.1320   28.2500   44.7590 O   0  0  0  0  0  0  0  0  0  0  0  0
   55.3500   26.2490   45.9110 N   0  0  0  0  0  0  0  0  0  0  0  0
   54.7380   24.9580   45.6210 C   0  0  0  0  0  0  0  0  0  0  0  0
   55.7150   24.0750   44.9100 C   0  0  0  0  0  0  0  0  0  0  0  0
   55.6750   23.7220   43.5680 C   0  0  0  0  0  0  0  0  0  0  0  0
   56.6780   22.8170   43.2000 C   0  0  0  0  0  0  0  0  0  0  0  0
   57.5060   22.4500   44.2500 C   0  0  0  0  0  0  0  0  0  0  0  0
   56.9810   23.2460   45.6340 S   0  0  0  0  0  0  0  0  0  0  0  0
   58.5653   26.2468   44.9520 H   0  0  0  0  0  0  0  0  0  0  0  0
   57.0806   26.4771   43.9661 H   0  0  0  0  0  0  0  0  0  0  0  0
   55.1330   28.1180   44.8670 H   0  0  0  0  0  0  0  0  0  0  0  0
   56.6442   31.9165   43.5175 H   0  0  0  0  0  0  0  0  0  0  0  0
   56.0730   31.8047   45.2243 H   0  0  0  0  0  0  0  0  0  0  0  0
   58.3120   33.8604   43.0474 H   0  0  0  0  0  0  0  0  0  0  0  0
   59.9200   35.3450   44.4560 H   0  0  0  0  0  0  0  0  0  0  0  0
   60.7047   35.4545   47.0820 H   0  0  0  0  0  0  0  0  0  0  0  0
   60.3186   34.3806   49.3279 H   0  0  0  0  0  0  0  0  0  0  0  0
   58.7486   32.4405   49.5429 H   0  0  0  0  0  0  0  0  0  0  0  0
   57.5311   31.5690   47.5152 H   0  0  0  0  0  0  0  0  0  0  0  0
   54.4338   24.4794   46.5636 H   0  0  0  0  0  0  0  0  0  0  0  0
   53.8581   25.1122   44.9791 H   0  0  0  0  0  0  0  0  0  0  0  0
   54.9281   24.1150   42.8625 H   0  0  0  0  0  0  0  0  0  0  0  0
   56.7977   22.4338   42.1759 H   0  0  0  0  0  0  0  0  0  0  0  0
   58.3587   21.7578   44.1879 H   0  0  0  0  0  0  0  0  0  0  0  0
  1  2  2  0
  2  3  1  0
  3  4  1  0
  4  5  1  0
  5  6  1  0
  5  7  2  0
  7  8  1  0
  8  9  1  0
  9 10  2  0
 10 11  1  0
 11 12  1  0
 12 13  2  0
 13 14  1  0
 14 15  2  0
 15 16  1  0
 16 17  2  0
  7 18  1  0
 18 19  1  0
 19 20  2  0
  2 21  1  0
 21 22  1  0
 22 23  1  0
 23 24  2  0
 24 25  1  0
 25 26  2  0
 26 27  1  0
 19  4  1  0
 27 23  1  0
 17  9  1  0
 17 12  1  0
  3 28  1  0
  3 29  1  0
  6 30  1  0
  8 31  1  0
  8 32  1  0
 10 33  1  0
 11 34  1  0
 13 35  1  0
 14 36  1  0
 15 37  1  0
 16 38  1  0
 22 39  1  0
 22 40  1  0
 24 41  1  0
 25 42  1  0
 26 43  1  0
M  CHG  2  18  -1  21  -1
M  END
>  <UniqueID>  (65) 
58

>  <SMILES>  (65) 
O=C(Cn1c(O)c(Cc2c[nH]c3ccccc23)[n-]c1=O)[N-]Cc1cccs1

>  <Energy>  (65) 
128.44892707056292

>  <Genealogy>  (65) 
O=C(Cn1c(O)c(Cc2c[nH]c3ccccc23)[n-]c1=O)[N-]Cc1cccs1 (protonated)
O=C(Cn1c(O)c(Cc2c[nH]c3ccccc23)[n-]c1=O)[N-]Cc1cccs1 (3D coordinates assigned)
O=C(Cn1c(O)c(Cc2c[nH]c3ccccc23)[n-]c1=O)[N-]Cc1cccs1 (optimized conformer: 128.44892707056292 kcal/mol)

>  <smiles>  (65) 
O=C(Cn1c(O)c(Cc2c[nH]c3ccccc23)[nH]c1=O)NCc1cccs1

>  <score_type>  (65) 
oracle

>  <origin>  (65) 
adg

>  <m_score__min__energy>  (65) 
-12.699999999999999

>  <m_primary>  (65) 
energy

$$$$
65:0
     RDKit          3D

 29 30  0  0  0  0  0  0  0  0999 V2000
   56.9670   30.9980   53.1820 O   0  0  0  0  0  0  0  0  0  0  0  0
   57.0110   30.1680   52.2350 C   0  0  0  0  0  0  0  0  0  0  0  0
   55.9390   29.2440   52.0340 N   0  0  0  0  0  0  0  0  0  0  0  0
   54.9290   28.9190   53.0390 C   0  0  0  0  0  0  0  0  0  0  0  0
   53.5380   29.3650   52.5780 C   0  0  0  0  0  0  0  0  0  0  0  0
   53.3790   31.1860   52.5290 S   0  0  0  0  0  0  0  0  0  0  0  0
   52.3250   31.2180   51.0790 C   0  0  0  0  0  0  0  0  0  0  0  0
   52.3520   30.0720   49.8460 S   0  0  0  0  0  0  0  0  0  0  0  0
   51.1110   30.8360   49.0060 C   0  0  0  0  0  0  0  0  0  0  0  0
   50.6430   30.4300   47.9120 O   0  0  0  0  0  0  0  0  0  0  0  0
   50.6580   31.9410   49.6340 N   0  0  0  0  0  0  0  0  0  0  0  0
   51.3350   32.1520   50.7940 C   0  0  0  0  0  0  0  0  0  0  0  0
   51.0380   33.2200   51.6290 O   0  0  0  0  0  0  0  0  0  0  0  0
   58.1490   30.1070   51.3690 N   0  0  0  0  0  0  0  0  0  0  0  0
   58.6890   31.1840   50.5880 C   0  0  0  0  0  0  0  0  0  0  0  0
   58.8060   32.4880   51.1090 C   0  0  0  0  0  0  0  0  0  0  0  0
   59.3140   33.5210   50.3170 C   0  0  0  0  0  0  0  0  0  0  0  0
   59.6970   33.2700   48.9980 C   0  0  0  0  0  0  0  0  0  0  0  0
   59.5610   31.9870   48.4640 C   0  0  0  0  0  0  0  0  0  0  0  0
   59.0520   30.9470   49.2500 C   0  0  0  0  0  0  0  0  0  0  0  0
   58.8930   29.3440   48.5450 Cl  0  0  0  0  0  0  0  0  0  0  0  0
   54.9223   27.8316   53.2047 H   0  0  0  0  0  0  0  0  0  0  0  0
   55.1772   29.4475   53.9713 H   0  0  0  0  0  0  0  0  0  0  0  0
   53.3539   28.9659   51.5696 H   0  0  0  0  0  0  0  0  0  0  0  0
   52.8029   28.9807   53.3004 H   0  0  0  0  0  0  0  0  0  0  0  0
   58.4959   32.6937   52.1442 H   0  0  0  0  0  0  0  0  0  0  0  0
   59.4124   34.5343   50.7336 H   0  0  0  0  0  0  0  0  0  0  0  0
   60.1058   34.0828   48.3797 H   0  0  0  0  0  0  0  0  0  0  0  0
   59.8550   31.7931   47.4219 H   0  0  0  0  0  0  0  0  0  0  0  0
  1  2  2  0
  2  3  1  0
  3  4  1  0
  4  5  1  0
  5  6  1  0
  6  7  1  0
  7  8  1  0
  8  9  1  0
  9 10  2  0
  9 11  1  0
 11 12  1  0
 12 13  1  0
  2 14  1  0
 14 15  1  0
 15 16  2  0
 16 17  1  0
 17 18  2  0
 18 19  1  0
 19 20  2  0
 20 21  1  0
 12  7  2  0
 20 15  1  0
  4 22  1  0
  4 23  1  0
  5 24  1  0
  5 25  1  0
 16 26  1  0
 17 27  1  0
 18 28  1  0
 19 29  1  0
M  CHG  4   3  -1  11  -1  13  -1  14  -1
M  END
>  <UniqueID>  (66) 
59

>  <SMILES>  (66) 
O=C([N-]CCSc1sc(=O)[n-]c1[O-])[N-]c1ccccc1Cl

>  <Energy>  (66) 
59.32965235699638

>  <Genealogy>  (66) 
O=C([N-]CCSc1sc(=O)[n-]c1[O-])[N-]c1ccccc1Cl (protonated)
O=C([N-]CCSc1sc(=O)[n-]c1[O-])[N-]c1ccccc1Cl (3D coordinates assigned)
O=C([N-]CCSc1sc(=O)[n-]c1[O-])[N-]c1ccccc1Cl (optimized conformer: 59.32965235699638 kcal/mol)

>  <smiles>  (66) 
O=C(NCCSc1sc(=O)[nH]c1O)Nc1ccccc1Cl

>  <score_type>  (66) 
oracle

>  <origin>  (66) 
adg

>  <m_score__min__energy>  (66) 
-15.98

>  <m_primary>  (66) 
energy

$$$$
66:0
     RDKit          3D

 52 55  0  0  0  0  0  0  0  0999 V2000
   58.6390   28.1630   48.3000 O   0  0  0  0  0  0  0  0  0  0  0  0
   59.4860   28.8230   47.6390 C   0  0  0  0  0  0  0  0  0  0  0  0
   59.3090   28.9800   46.1570 C   0  0  0  0  0  0  0  0  0  0  0  0
   58.6990   30.2840   45.8460 N   0  0  0  0  0  0  0  0  0  0  0  0
   59.4470   31.4960   46.0860 C   0  0  0  0  0  0  0  0  0  0  0  0
   60.6720   31.4210   46.3850 O   0  0  0  0  0  0  0  0  0  0  0  0
   58.7970   32.8250   45.9320 C   0  0  0  0  0  0  0  0  0  0  0  0
   59.3580   33.9720   46.3710 C   0  0  0  0  0  0  0  0  0  0  0  0
   60.0770   34.0640   47.6080 N   0  0  0  0  0  0  0  0  0  0  0  0
   59.4360   33.9490   48.9180 C   0  0  0  0  0  0  0  0  0  0  0  0
   60.5830   33.7670   49.9440 C   0  0  0  0  0  0  0  0  0  0  0  0
   61.7950   33.6510   49.0860 C   0  0  0  0  0  0  0  0  0  0  0  0
   63.1070   33.3820   49.4800 C   0  0  0  0  0  0  0  0  0  0  0  0
   64.0960   33.2750   48.4880 C   0  0  0  0  0  0  0  0  0  0  0  0
   63.7580   33.4290   47.1300 C   0  0  0  0  0  0  0  0  0  0  0  0
   62.4290   33.6960   46.7570 C   0  0  0  0  0  0  0  0  0  0  0  0
   61.4660   33.8140   47.7670 C   0  0  0  0  0  0  0  0  0  0  0  0
   57.4870   32.8600   45.2500 C   0  0  0  0  0  0  0  0  0  0  0  0
   56.9280   33.9530   44.9690 O   0  0  0  0  0  0  0  0  0  0  0  0
   56.8310   31.6410   44.9100 N   0  0  0  0  0  0  0  0  0  0  0  0
   57.3970   30.3680   45.2180 C   0  0  0  0  0  0  0  0  0  0  0  0
   56.5420   29.0270   44.8070 S   0  0  0  0  0  0  0  0  0  0  0  0
   60.6290   29.3900   48.2950 N   0  0  0  0  0  0  0  0  0  0  0  0
   60.7960   29.2930   49.7450 C   0  0  0  0  0  0  0  0  0  0  0  0
   61.1430   30.6540   50.3670 C   0  0  0  0  0  0  0  0  0  0  0  0
   60.5520   30.8460   51.7730 C   0  0  0  0  0  0  0  0  0  0  0  0
   59.0900   30.8200   51.7430 N   0  0  0  0  0  0  0  0  0  0  0  0
   58.2630   31.8740   51.6260 C   0  0  0  0  0  0  0  0  0  0  0  0
   56.9710   31.3950   51.6200 C   0  0  0  0  0  0  0  0  0  0  0  0
   56.9850   30.0500   51.7290 N   0  0  0  0  0  0  0  0  0  0  0  0
   58.2960   29.7330   51.8000 C   0  0  0  0  0  0  0  0  0  0  0  0
   60.2911   28.9134   45.6660 H   0  0  0  0  0  0  0  0  0  0  0  0
   58.6473   28.1812   45.7910 H   0  0  0  0  0  0  0  0  0  0  0  0
   59.2590   34.8760   45.7521 H   0  0  0  0  0  0  0  0  0  0  0  0
   58.8630   34.8604   49.1438 H   0  0  0  0  0  0  0  0  0  0  0  0
   58.7325   33.1039   48.9480 H   0  0  0  0  0  0  0  0  0  0  0  0
   60.6554   34.6374   50.6126 H   0  0  0  0  0  0  0  0  0  0  0  0
   60.4373   32.8983   50.6029 H   0  0  0  0  0  0  0  0  0  0  0  0
   63.3606   33.2567   50.5430 H   0  0  0  0  0  0  0  0  0  0  0  0
   65.1384   33.0701   48.7734 H   0  0  0  0  0  0  0  0  0  0  0  0
   64.5365   33.3401   46.3580 H   0  0  0  0  0  0  0  0  0  0  0  0
   62.1525   33.8094   45.6984 H   0  0  0  0  0  0  0  0  0  0  0  0
   61.3540   29.8680   47.7130 H   0  0  0  0  0  0  0  0  0  0  0  0
   59.8584   28.9265   50.1885 H   0  0  0  0  0  0  0  0  0  0  0  0
   61.6251   28.5998   49.9500 H   0  0  0  0  0  0  0  0  0  0  0  0
   62.2377   30.7391   50.4334 H   0  0  0  0  0  0  0  0  0  0  0  0
   60.7065   31.4295   49.7204 H   0  0  0  0  0  0  0  0  0  0  0  0
   60.9114   30.0373   52.4263 H   0  0  0  0  0  0  0  0  0  0  0  0
   60.8741   31.8263   52.1541 H   0  0  0  0  0  0  0  0  0  0  0  0
   58.5640   32.9292   51.5489 H   0  0  0  0  0  0  0  0  0  0  0  0
   56.0658   32.0147   51.5387 H   0  0  0  0  0  0  0  0  0  0  0  0
   58.6728   28.7038   51.8938 H   0  0  0  0  0  0  0  0  0  0  0  0
  1  2  2  0
  2  3  1  0
  3  4  1  0
  4  5  1  0
  5  6  2  0
  5  7  1  0
  7  8  2  3
  8  9  1  0
  9 10  1  0
 10 11  1  0
 11 12  1  0
 12 13  2  0
 13 14  1  0
 14 15  2  0
 15 16  1  0
 16 17  2  0
  7 18  1  0
 18 19  2  0
 18 20  1  0
 20 21  1  0
 21 22  2  0
  2 23  1  0
 23 24  1  0
 24 25  1  0
 25 26  1  0
 26 27  1  0
 27 28  1  0
 28 29  2  0
 29 30  1  0
 30 31  2  0
 21  4  1  0
 31 27  1  0
 17  9  1  0
 17 12  1  0
  3 32  1  0
  3 33  1  0
  8 34  1  0
 10 35  1  0
 10 36  1  0
 11 37  1  0
 11 38  1  0
 13 39  1  0
 14 40  1  0
 15 41  1  0
 16 42  1  0
 23 43  1  0
 24 44  1  0
 24 45  1  0
 25 46  1  0
 25 47  1  0
 26 48  1  0
 26 49  1  0
 28 50  1  0
 29 51  1  0
 31 52  1  0
M  CHG  1  20  -1
M  END
>  <UniqueID>  (67) 
60

>  <SMILES>  (67) 
O=C(CN1C(=O)C(=CN2CCc3ccccc32)C(=O)[N-]C1=S)NCCCn1ccnc1

>  <Energy>  (67) 
99.29075928376466

>  <Genealogy>  (67) 
O=C(CN1C(=O)C(=CN2CCc3ccccc32)C(=O)[N-]C1=S)NCCCn1ccnc1 (protonated)
O=C(CN1C(=O)C(=CN2CCc3ccccc32)C(=O)[N-]C1=S)NCCCn1ccnc1 (3D coordinates assigned)
O=C(CN1C(=O)C(=CN2CCc3ccccc32)C(=O)[N-]C1=S)NCCCn1ccnc1 (nonaromatic ring conformer: 99.29075928376466 kcal/mol)

>  <smiles>  (67) 
O=C(CN1C(=O)C(=CN2CCc3ccccc32)C(=O)NC1=S)NCCCn1ccnc1

>  <score_type>  (67) 
oracle

>  <origin>  (67) 
adg

>  <m_score__min__energy>  (67) 
-10.449999999999999

>  <m_primary>  (67) 
energy

$$$$
67:0
     RDKit          3D

 47 49  0  0  0  0  0  0  0  0999 V2000
   55.1270   29.6340   44.5920 O   0  0  0  0  0  0  0  0  0  0  0  0
   56.3130   29.2300   44.7180 C   0  0  0  0  0  0  0  0  0  0  0  0
   57.3680   29.7070   43.7690 C   0  0  0  0  0  0  0  0  0  0  0  0
   58.1700   30.7000   44.3790 O   0  0  0  0  0  0  0  0  0  0  0  0
   57.5650   31.9770   44.2800 C   0  0  0  0  0  0  0  0  0  0  0  0
   58.1580   32.9230   45.2910 C   0  0  0  0  0  0  0  0  0  0  0  0
   58.0770   32.6400   46.6640 C   0  0  0  0  0  0  0  0  0  0  0  0
   58.6480   33.5090   47.5980 C   0  0  0  0  0  0  0  0  0  0  0  0
   59.3050   34.6650   47.1670 C   0  0  0  0  0  0  0  0  0  0  0  0
   59.3930   34.9520   45.8010 C   0  0  0  0  0  0  0  0  0  0  0  0
   58.8230   34.0840   44.8650 C   0  0  0  0  0  0  0  0  0  0  0  0
   56.6720   28.3420   45.7810 N   0  0  0  0  0  0  0  0  0  0  0  0
   57.0510   26.9440   45.5890 C   0  0  1  0  0  0  0  0  0  0  0  0
   58.4360   26.6530   46.2100 C   0  0  0  0  0  0  0  0  0  0  0  0
   59.1880   27.9040   46.5930 C   0  0  0  0  0  0  0  0  0  0  0  0
   60.0490   28.5260   45.6730 C   0  0  0  0  0  0  0  0  0  0  0  0
   60.7230   29.7010   46.0200 C   0  0  0  0  0  0  0  0  0  0  0  0
   60.5430   30.2640   47.2860 C   0  0  0  0  0  0  0  0  0  0  0  0
   59.6870   29.6530   48.2070 C   0  0  0  0  0  0  0  0  0  0  0  0
   59.0120   28.4770   47.8640 C   0  0  0  0  0  0  0  0  0  0  0  0
   55.9830   26.0050   46.1150 C   0  0  0  0  0  0  0  0  0  0  0  0
   54.7750   26.3390   45.9870 O   0  0  0  0  0  0  0  0  0  0  0  0
   56.2870   24.8360   46.8920 N   0  0  0  0  0  0  0  0  0  0  0  0
   56.6570   23.6820   46.4250 C   0  0  0  0  0  0  0  0  0  0  0  0
   57.0320   22.6360   47.1920 N   0  0  0  0  0  0  0  0  0  0  0  0
   57.4080   21.5720   46.4340 C   0  0  0  0  0  0  0  0  0  0  0  0
   57.3440   21.7750   45.0600 C   0  0  0  0  0  0  0  0  0  0  0  0
   56.7910   23.3420   44.7880 S   0  0  0  0  0  0  0  0  0  0  0  0
   58.0031   28.8577   43.4769 H   0  0  0  0  0  0  0  0  0  0  0  0
   56.8805   30.1383   42.8822 H   0  0  0  0  0  0  0  0  0  0  0  0
   57.7299   32.3780   43.2691 H   0  0  0  0  0  0  0  0  0  0  0  0
   56.4876   31.8758   44.4775 H   0  0  0  0  0  0  0  0  0  0  0  0
   57.5618   31.7303   47.0060 H   0  0  0  0  0  0  0  0  0  0  0  0
   58.5803   33.2831   48.6724 H   0  0  0  0  0  0  0  0  0  0  0  0
   59.7530   35.3493   47.9025 H   0  0  0  0  0  0  0  0  0  0  0  0
   59.9112   35.8615   45.4628 H   0  0  0  0  0  0  0  0  0  0  0  0
   58.8957   34.3113   43.7912 H   0  0  0  0  0  0  0  0  0  0  0  0
   57.1341   26.7607   44.5076 H   0  0  0  0  0  0  0  0  0  0  0  0
   58.2933   26.0403   47.1124 H   0  0  0  0  0  0  0  0  0  0  0  0
   59.0339   26.1314   45.4481 H   0  0  0  0  0  0  0  0  0  0  0  0
   60.1935   28.0865   44.6750 H   0  0  0  0  0  0  0  0  0  0  0  0
   61.3958   30.1827   45.2953 H   0  0  0  0  0  0  0  0  0  0  0  0
   61.0747   31.1878   47.5579 H   0  0  0  0  0  0  0  0  0  0  0  0
   59.5441   30.0977   49.2029 H   0  0  0  0  0  0  0  0  0  0  0  0
   58.3405   27.9986   48.5922 H   0  0  0  0  0  0  0  0  0  0  0  0
   57.7386   20.6202   46.8753 H   0  0  0  0  0  0  0  0  0  0  0  0
   57.6085   21.0400   44.2856 H   0  0  0  0  0  0  0  0  0  0  0  0
  1  2  2  0
  2  3  1  0
  3  4  1  0
  4  5  1  0
  5  6  1  0
  6  7  2  0
  7  8  1  0
  8  9  2  0
  9 10  1  0
 10 11  2  0
  2 12  1  0
 12 13  1  0
 13 14  1  0
 14 15  1  0
 15 16  2  0
 16 17  1  0
 17 18  2  0
 18 19  1  0
 19 20  2  0
 13 21  1  0
 21 22  2  0
 21 23  1  0
 23 24  2  3
 24 25  1  0
 25 26  1  0
 26 27  2  0
 27 28  1  0
 11  6  1  0
 20 15  1  0
 28 24  1  0
  3 29  1  0
  3 30  1  0
  5 31  1  0
  5 32  1  0
  7 33  1  0
  8 34  1  0
  9 35  1  0
 10 36  1  0
 11 37  1  0
 13 38  1  6
 14 39  1  0
 14 40  1  0
 16 41  1  0
 17 42  1  0
 18 43  1  0
 19 44  1  0
 20 45  1  0
 26 46  1  0
 27 47  1  0
M  CHG  2  12  -1  25  -1
M  END
>  <UniqueID>  (68) 
61

>  <SMILES>  (68) 
O=C(COCc1ccccc1)[N-][C@@H](Cc1ccccc1)C(=O)N=c1[n-]ccs1

>  <Energy>  (68) 
81.11564764205038

>  <Genealogy>  (68) 
O=C(COCc1ccccc1)[N-]C(Cc1ccccc1)C(=O)N=c1[n-]ccs1 (protonated)
O=C(COCc1ccccc1)[N-][C@@H](Cc1ccccc1)C(=O)N=c1[n-]ccs1 (chirality)
O=C(COCc1ccccc1)[N-][C@@H](Cc1ccccc1)C(=O)N=c1[n-]ccs1 (3D coordinates assigned)
O=C(COCc1ccccc1)[N-][C@@H](Cc1ccccc1)C(=O)N=c1[n-]ccs1 (optimized conformer: 81.11564764205038 kcal/mol)

>  <smiles>  (68) 
O=C(COCc1ccccc1)NC(Cc1ccccc1)C(=O)N=c1[nH]ccs1

>  <score_type>  (68) 
oracle

>  <origin>  (68) 
adg

>  <m_score__min__energy>  (68) 
-12.81

>  <m_primary>  (68) 
energy

$$$$
68:0
     RDKit          3D

 51 53  0  0  0  0  0  0  0  0999 V2000
   63.7560   32.9780   46.8170 C   0  0  0  0  0  0  0  0  0  0  0  0
   62.7600   33.9540   47.1100 O   0  0  0  0  0  0  0  0  0  0  0  0
   61.7690   33.8190   48.0940 C   0  0  0  0  0  0  0  0  0  0  0  0
   62.0710   33.9540   49.4650 C   0  0  0  0  0  0  0  0  0  0  0  0
   61.0650   33.8380   50.4250 C   0  0  0  0  0  0  0  0  0  0  0  0
   59.7480   33.5950   50.0340 C   0  0  0  0  0  0  0  0  0  0  0  0
   59.4350   33.4560   48.6810 C   0  0  0  0  0  0  0  0  0  0  0  0
   60.4390   33.5500   47.6990 C   0  0  0  0  0  0  0  0  0  0  0  0
   60.0690   33.4000   46.2370 C   0  0  0  0  0  0  0  0  0  0  0  0
   59.2570   32.1810   46.0010 N   0  0  0  0  0  0  0  0  0  0  0  0
   58.0120   32.2590   45.4100 C   0  0  0  0  0  0  0  0  0  0  0  0
   57.3870   33.6740   44.8580 S   0  0  0  0  0  0  0  0  0  0  0  0
   57.2610   31.1410   45.2400 N   0  0  0  0  0  0  0  0  0  0  0  0
   57.6970   29.9210   45.6290 C   0  0  0  0  0  0  0  0  0  0  0  0
   56.8850   28.7970   45.4420 C   0  0  0  0  0  0  0  0  0  0  0  0
   57.3280   27.5300   45.8500 C   0  0  0  0  0  0  0  0  0  0  0  0
   56.4740   26.3470   45.6350 C   0  0  0  0  0  0  0  0  0  0  0  0
   56.9560   25.3450   45.0450 O   0  0  0  0  0  0  0  0  0  0  0  0
   55.1040   26.3060   46.0580 N   0  0  0  0  0  0  0  0  0  0  0  0
   54.0980   25.3490   45.6030 C   0  0  0  0  0  0  0  0  0  0  0  0
   54.5440   23.9050   45.8480 C   0  0  0  0  0  0  0  0  0  0  0  0
   53.4750   22.9660   45.4320 N   0  0  0  0  0  0  0  0  0  0  0  0
   53.0410   22.1240   46.5590 C   0  0  0  0  0  0  0  0  0  0  0  0
   52.3170   23.6880   44.8780 C   0  0  0  0  0  0  0  0  0  0  0  0
   58.6050   27.3940   46.4130 C   0  0  0  0  0  0  0  0  0  0  0  0
   59.4190   28.5160   46.5960 C   0  0  0  0  0  0  0  0  0  0  0  0
   58.9670   29.7900   46.2070 C   0  0  0  0  0  0  0  0  0  0  0  0
   59.7480   30.9470   46.3710 C   0  0  0  0  0  0  0  0  0  0  0  0
   60.9080   30.8420   46.8590 O   0  0  0  0  0  0  0  0  0  0  0  0
   64.1646   32.5776   47.7565 H   0  0  0  0  0  0  0  0  0  0  0  0
   63.3075   32.1600   46.2341 H   0  0  0  0  0  0  0  0  0  0  0  0
   64.5647   33.4430   46.2341 H   0  0  0  0  0  0  0  0  0  0  0  0
   63.1063   34.1520   49.7796 H   0  0  0  0  0  0  0  0  0  0  0  0
   61.3109   33.9384   51.4925 H   0  0  0  0  0  0  0  0  0  0  0  0
   58.9557   33.5129   50.7926 H   0  0  0  0  0  0  0  0  0  0  0  0
   58.3935   33.2712   48.3791 H   0  0  0  0  0  0  0  0  0  0  0  0
   59.4898   34.2809   45.9232 H   0  0  0  0  0  0  0  0  0  0  0  0
   60.9980   33.3125   45.6544 H   0  0  0  0  0  0  0  0  0  0  0  0
   55.8959   28.9072   44.9735 H   0  0  0  0  0  0  0  0  0  0  0  0
   53.1600   25.5305   46.1481 H   0  0  0  0  0  0  0  0  0  0  0  0
   53.9558   25.4868   44.5210 H   0  0  0  0  0  0  0  0  0  0  0  0
   55.4546   23.7013   45.2655 H   0  0  0  0  0  0  0  0  0  0  0  0
   54.7480   23.7674   46.9201 H   0  0  0  0  0  0  0  0  0  0  0  0
   53.2966   22.6200   47.5070 H   0  0  0  0  0  0  0  0  0  0  0  0
   51.9527   21.9729   46.5060 H   0  0  0  0  0  0  0  0  0  0  0  0
   53.5494   21.1500   46.5060 H   0  0  0  0  0  0  0  0  0  0  0  0
   51.6977   24.0741   45.7010 H   0  0  0  0  0  0  0  0  0  0  0  0
   52.6694   24.5267   44.2596 H   0  0  0  0  0  0  0  0  0  0  0  0
   51.7190   23.0024   44.2596 H   0  0  0  0  0  0  0  0  0  0  0  0
   58.9682   26.3997   46.7122 H   0  0  0  0  0  0  0  0  0  0  0  0
   60.4164   28.4020   47.0458 H   0  0  0  0  0  0  0  0  0  0  0  0
  1  2  1  0
  2  3  1  0
  3  4  2  0
  4  5  1  0
  5  6  2  0
  6  7  1  0
  7  8  2  0
  8  9  1  0
  9 10  1  0
 10 11  1  0
 11 12  2  0
 11 13  1  0
 13 14  1  0
 14 15  2  0
 15 16  1  0
 16 17  1  0
 17 18  2  0
 17 19  1  0
 19 20  1  0
 20 21  1  0
 21 22  1  0
 22 23  1  0
 22 24  1  0
 16 25  2  0
 25 26  1  0
 26 27  2  0
 27 28  1  0
 28 29  2  0
  8  3  1  0
 28 10  1  0
 27 14  1  0
  1 30  1  0
  1 31  1  0
  1 32  1  0
  4 33  1  0
  5 34  1  0
  6 35  1  0
  7 36  1  0
  9 37  1  0
  9 38  1  0
 15 39  1  0
 20 40  1  0
 20 41  1  0
 21 42  1  0
 21 43  1  0
 23 44  1  0
 23 45  1  0
 23 46  1  0
 24 47  1  0
 24 48  1  0
 24 49  1  0
 25 50  1  0
 26 51  1  0
M  CHG  2  13  -1  19  -1
M  END
>  <UniqueID>  (69) 
62

>  <SMILES>  (69) 
COc1ccccc1Cn1c(=S)[n-]c2cc(C(=O)[N-]CCN(C)C)ccc2c1=O

>  <Energy>  (69) 
67.42277998844993

>  <Genealogy>  (69) 
COc1ccccc1Cn1c(=S)[n-]c2cc(C(=O)[N-]CCN(C)C)ccc2c1=O (protonated)
COc1ccccc1Cn1c(=S)[n-]c2cc(C(=O)[N-]CCN(C)C)ccc2c1=O (3D coordinates assigned)
COc1ccccc1Cn1c(=S)[n-]c2cc(C(=O)[N-]CCN(C)C)ccc2c1=O (optimized conformer: 67.42277998844993 kcal/mol)

>  <smiles>  (69) 
COc1ccccc1Cn1c(=S)[nH]c2cc(C(=O)NCCN(C)C)ccc2c1=O

>  <score_type>  (69) 
oracle

>  <origin>  (69) 
adg

>  <m_score__min__energy>  (69) 
-11.130000000000001

>  <m_primary>  (69) 
energy

$$$$
69:0
     RDKit          3D

 58 61  0  0  0  0  0  0  0  0999 V2000
   58.0190   33.4560   52.4020 C   0  0  0  0  0  0  0  0  0  0  0  0
   58.8970   33.2180   51.2000 C   0  0  0  0  0  0  0  0  0  0  0  0
   59.3570   34.2190   50.5780 O   0  0  0  0  0  0  0  0  0  0  0  0
   59.2280   31.8450   50.7260 C   0  0  0  0  0  0  0  0  0  0  0  0
   59.8820   30.9400   51.5870 C   0  0  0  0  0  0  0  0  0  0  0  0
   60.1830   29.6450   51.1600 C   0  0  0  0  0  0  0  0  0  0  0  0
   59.8450   29.2350   49.8680 C   0  0  0  0  0  0  0  0  0  0  0  0
   59.2140   30.1220   48.9860 C   0  0  0  0  0  0  0  0  0  0  0  0
   58.8470   29.6710   47.6710 N   0  0  0  0  0  0  0  0  0  0  0  0
   59.7620   29.0250   46.7720 C   0  0  0  0  0  0  0  0  0  0  0  0
   60.7610   28.3930   47.2170 O   0  0  0  0  0  0  0  0  0  0  0  0
   59.5400   29.1150   45.2950 C   0  0  0  0  0  0  0  0  0  0  0  0
   58.4290   30.0270   45.0220 N   0  0  0  0  0  0  0  0  0  0  0  0
   57.2220   29.7390   44.4720 C   0  0  0  0  0  0  0  0  0  0  0  0
   56.9070   28.5990   44.0380 O   0  0  0  0  0  0  0  0  0  0  0  0
   56.4030   30.7760   44.4490 O   0  0  0  0  0  0  0  0  0  0  0  0
   57.0670   31.7620   45.0050 C   0  0  0  0  0  0  0  0  0  0  0  0
   56.6500   33.0680   45.2360 C   0  0  0  0  0  0  0  0  0  0  0  0
   57.5540   33.9390   45.8720 C   0  0  0  0  0  0  0  0  0  0  0  0
   58.8380   33.4850   46.2660 C   0  0  0  0  0  0  0  0  0  0  0  0
   59.9640   34.6060   47.0270 S   0  0  0  0  0  0  0  0  0  0  0  0
   59.2850   35.3260   48.1600 O   0  0  0  0  0  0  0  0  0  0  0  0
   60.4000   35.6210   46.0070 O   0  0  0  0  0  0  0  0  0  0  0  0
   61.3560   33.7320   47.6160 N   0  0  0  0  0  0  0  0  0  0  0  0
   61.7560   34.2560   48.9410 C   0  0  0  0  0  0  0  0  0  0  0  0
   63.1790   33.8100   49.3530 C   0  0  0  0  0  0  0  0  0  0  0  0
   63.6770   32.5900   48.5540 C   0  0  0  0  0  0  0  0  0  0  0  0
   62.9210   31.3110   48.9550 C   0  0  0  0  0  0  0  0  0  0  0  0
   63.5900   32.8530   47.0300 C   0  0  0  0  0  0  0  0  0  0  0  0
   62.4610   33.8310   46.6500 C   0  0  0  0  0  0  0  0  0  0  0  0
   59.2270   32.1540   46.0100 C   0  0  0  0  0  0  0  0  0  0  0  0
   58.3080   31.3220   45.3690 C   0  0  0  0  0  0  0  0  0  0  0  0
   58.8920   31.4210   49.4240 C   0  0  0  0  0  0  0  0  0  0  0  0
   58.6036   33.2975   53.3202 H   0  0  0  0  0  0  0  0  0  0  0  0
   57.6413   34.4889   52.3815 H   0  0  0  0  0  0  0  0  0  0  0  0
   57.1714   32.7552   52.3815 H   0  0  0  0  0  0  0  0  0  0  0  0
   60.1575   31.2568   52.6037 H   0  0  0  0  0  0  0  0  0  0  0  0
   60.6877   28.9457   51.8429 H   0  0  0  0  0  0  0  0  0  0  0  0
   60.0755   28.2102   49.5414 H   0  0  0  0  0  0  0  0  0  0  0  0
   57.8620   29.8180   47.3510 H   0  0  0  0  0  0  0  0  0  0  0  0
   60.4520   29.4929   44.8098 H   0  0  0  0  0  0  0  0  0  0  0  0
   59.3000   28.1170   44.8995 H   0  0  0  0  0  0  0  0  0  0  0  0
   55.6490   33.4084   44.9324 H   0  0  0  0  0  0  0  0  0  0  0  0
   57.2617   34.9817   46.0652 H   0  0  0  0  0  0  0  0  0  0  0  0
   61.7270   35.3551   48.9084 H   0  0  0  0  0  0  0  0  0  0  0  0
   61.0525   33.8531   49.6845 H   0  0  0  0  0  0  0  0  0  0  0  0
   63.8723   34.6472   49.1846 H   0  0  0  0  0  0  0  0  0  0  0  0
   63.1410   33.5187   50.4130 H   0  0  0  0  0  0  0  0  0  0  0  0
   64.7366   32.4314   48.8033 H   0  0  0  0  0  0  0  0  0  0  0  0
   62.8784   31.2389   50.0518 H   0  0  0  0  0  0  0  0  0  0  0  0
   61.8989   31.3469   48.5499 H   0  0  0  0  0  0  0  0  0  0  0  0
   63.4453   30.4329   48.5499 H   0  0  0  0  0  0  0  0  0  0  0  0
   64.5478   33.2754   46.6921 H   0  0  0  0  0  0  0  0  0  0  0  0
   63.3698   31.8917   46.5427 H   0  0  0  0  0  0  0  0  0  0  0  0
   62.8543   34.8583   46.6520 H   0  0  0  0  0  0  0  0  0  0  0  0
   62.0859   33.5742   45.6483 H   0  0  0  0  0  0  0  0  0  0  0  0
   60.2201   31.7844   46.3052 H   0  0  0  0  0  0  0  0  0  0  0  0
   58.3730   32.1120   48.7434 H   0  0  0  0  0  0  0  0  0  0  0  0
  1  2  1  0
  2  3  2  0
  2  4  1  0
  4  5  2  0
  5  6  1  0
  6  7  2  0
  7  8  1  0
  8  9  1  0
  9 10  1  0
 10 11  2  0
 10 12  1  0
 12 13  1  0
 13 14  1  0
 14 15  2  0
 14 16  1  0
 16 17  1  0
 17 18  2  0
 18 19  1  0
 19 20  2  0
 20 21  1  0
 21 22  2  0
 21 23  2  0
 21 24  1  0
 24 25  1  0
 25 26  1  0
 26 27  1  0
 27 28  1  0
 27 29  1  0
 29 30  1  0
 20 31  1  0
 31 32  2  0
  8 33  2  0
 33  4  1  0
 32 13  1  0
 32 17  1  0
 30 24  1  0
  1 34  1  0
  1 35  1  0
  1 36  1  0
  5 37  1  0
  6 38  1  0
  7 39  1  0
  9 40  1  0
 12 41  1  0
 12 42  1  0
 18 43  1  0
 19 44  1  0
 25 45  1  0
 25 46  1  0
 26 47  1  0
 26 48  1  0
 27 49  1  0
 28 50  1  0
 28 51  1  0
 28 52  1  0
 29 53  1  0
 29 54  1  0
 30 55  1  0
 30 56  1  0
 31 57  1  0
 33 58  1  0
M  END
>  <UniqueID>  (70) 
63

>  <SMILES>  (70) 
CC(=O)c1cccc(NC(=O)Cn2c(=O)oc3ccc(S(=O)(=O)N4CCC(C)CC4)cc32)c1

>  <Energy>  (70) 
105.33645698694569

>  <Genealogy>  (70) 
CC(=O)c1cccc(NC(=O)Cn2c(=O)oc3ccc(S(=O)(=O)N4CCC(C)CC4)cc32)c1 (3D coordinates assigned)
CC(=O)c1cccc(NC(=O)Cn2c(=O)oc3ccc(S(=O)(=O)N4CCC(C)CC4)cc32)c1 (nonaromatic ring conformer: 105.33645698694569 kcal/mol)

>  <smiles>  (70) 
CC(=O)c1cccc(NC(=O)Cn2c(=O)oc3ccc(S(=O)(=O)N4CCC(C)CC4)cc32)c1

>  <score_type>  (70) 
oracle

>  <origin>  (70) 
adg

>  <m_score__min__energy>  (70) 
-10.550000000000001

>  <m_primary>  (70) 
energy

$$$$
70:0
     RDKit          3D

 47 49  0  0  0  0  0  0  0  0999 V2000
   58.2740   31.8520   49.8380 H   0  0  0  0  0  0  0  0  0  0  0  0
   58.1320   32.7160   49.3290 O   0  0  0  0  0  0  0  0  0  0  0  0
   58.9700   33.0880   48.2790 C   0  0  0  0  0  0  0  0  0  0  0  0
   60.3020   33.4210   48.5450 C   0  0  0  0  0  0  0  0  0  0  0  0
   60.6830   33.3795   49.5761 H   0  0  0  0  0  0  0  0  0  0  0  0
   61.1490   33.8060   47.5040 C   0  0  0  0  0  0  0  0  0  0  0  0
   62.1945   34.0730   47.7175 H   0  0  0  0  0  0  0  0  0  0  0  0
   60.6710   33.8530   46.1900 C   0  0  0  0  0  0  0  0  0  0  0  0
   61.3408   34.1627   45.3742 H   0  0  0  0  0  0  0  0  0  0  0  0
   59.3340   33.5050   45.9070 C   0  0  0  0  0  0  0  0  0  0  0  0
   58.8000   33.5210   44.6070 O   0  0  0  0  0  0  0  0  0  0  0  0
   57.4380   33.2660   44.2610 C   0  0  0  0  0  0  0  0  0  0  0  0
   57.2152   33.7503   43.2988 H   0  0  0  0  0  0  0  0  0  0  0  0
   56.7943   33.6704   45.0561 H   0  0  0  0  0  0  0  0  0  0  0  0
   57.1770   31.7920   44.1400 C   0  0  0  0  0  0  0  0  0  0  0  0
   57.0280   30.9910   45.2300 N   0  0  0  0  0  0  0  0  0  0  0  0
   56.8640   29.6980   44.8890 C   0  0  0  0  0  0  0  0  0  0  0  0
   56.6800   28.7730   45.7830 N   0  0  0  0  0  0  0  0  0  0  0  0
   56.6000   27.3520   45.5810 C   0  0  0  0  0  0  0  0  0  0  0  0
   55.6350   26.6820   46.0350 O   0  0  0  0  0  0  0  0  0  0  0  0
   57.6330   26.6770   44.8550 N   0  0  0  0  0  0  0  0  0  0  0  0
   58.9730   26.4340   45.3840 C   0  0  0  0  0  0  0  0  0  0  0  0
   59.7017   26.4915   44.5620 H   0  0  0  0  0  0  0  0  0  0  0  0
   58.9956   25.4354   45.8448 H   0  0  0  0  0  0  0  0  0  0  0  0
   59.3260   27.4580   46.4300 C   0  0  0  0  0  0  0  0  0  0  0  0
   59.1200   27.1780   47.7880 C   0  0  0  0  0  0  0  0  0  0  0  0
   58.7806   26.1780   48.0958 H   0  0  0  0  0  0  0  0  0  0  0  0
   59.3440   28.1640   48.7520 C   0  0  0  0  0  0  0  0  0  0  0  0
   59.1947   27.9298   49.8164 H   0  0  0  0  0  0  0  0  0  0  0  0
   59.7570   29.4480   48.3750 C   0  0  0  0  0  0  0  0  0  0  0  0
   59.8980   30.4450   49.3950 N   0  0  0  0  0  0  0  0  0  0  0  0
   59.2430   30.3270   50.9980 S   0  0  0  0  0  0  0  0  0  0  0  0
   59.4310   31.6460   51.6920 O   0  0  0  0  0  0  0  0  0  0  0  0
   57.7740   30.0150   50.9360 O   0  0  0  0  0  0  0  0  0  0  0  0
   60.1090   29.0770   51.9280 C   0  0  0  0  0  0  0  0  0  0  0  0
   59.9790   29.2646   53.0041 H   0  0  0  0  0  0  0  0  0  0  0  0
   59.7029   28.0860   51.6769 H   0  0  0  0  0  0  0  0  0  0  0  0
   61.1795   29.1090   51.6769 H   0  0  0  0  0  0  0  0  0  0  0  0
   60.0200   29.7130   47.0170 C   0  0  0  0  0  0  0  0  0  0  0  0
   60.5120   30.9090   46.6140 F   0  0  0  0  0  0  0  0  0  0  0  0
   59.8020   28.7230   46.0550 C   0  0  0  0  0  0  0  0  0  0  0  0
   60.0053   28.9375   44.9954 H   0  0  0  0  0  0  0  0  0  0  0  0
   56.9030   29.4890   43.2140 S   0  0  0  0  0  0  0  0  0  0  0  0
   57.1470   31.1270   42.9140 C   0  0  0  0  0  0  0  0  0  0  0  0
   57.2627   31.5921   41.9239 H   0  0  0  0  0  0  0  0  0  0  0  0
   58.4910   33.1280   46.9620 C   0  0  0  0  0  0  0  0  0  0  0  0
   57.4442   32.8612   46.7545 H   0  0  0  0  0  0  0  0  0  0  0  0
  1  2  1  0
  2  3  1  0
  3  4  2  0
  4  5  1  0
  4  6  1  0
  6  7  1  0
  6  8  2  0
  8  9  1  0
  8 10  1  0
 10 11  1  0
 11 12  1  0
 12 13  1  0
 12 14  1  0
 12 15  1  0
 15 16  1  0
 16 17  1  0
 17 18  2  0
 18 19  1  0
 19 20  2  0
 19 21  1  0
 21 22  1  0
 22 23  1  0
 22 24  1  0
 22 25  1  0
 25 26  2  0
 26 27  1  0
 26 28  1  0
 28 29  1  0
 28 30  2  0
 30 31  1  0
 31 32  1  0
 32 33  2  0
 32 34  2  0
 32 35  1  0
 35 36  1  0
 35 37  1  0
 35 38  1  0
 30 39  1  0
 39 40  1  0
 39 41  2  0
 41 42  1  0
 17 43  1  0
 43 44  1  0
 44 45  1  0
 10 46  2  0
 46 47  1  0
 46  3  1  0
 44 15  2  0
 41 25  1  0
M  CHG  3  16  -1  21  -1  31  -1
M  END
>  <UniqueID>  (71) 
64

>  <SMILES>  (71) 
CS(=O)(=O)[N-]c1ccc(C[N-]C(=O)/N=c2/[n-]c(COc3cccc(O)c3)cs2)cc1F

>  <Energy>  (71) 
77.43082171324812

>  <Genealogy>  (71) 
CS(=O)(=O)[N-]c1ccc(C[N-]C(=O)N=c2[n-]c(COc3cccc(O)c3)cs2)cc1F (protonated)
CS(=O)(=O)[N-]c1ccc(C[N-]C(=O)/N=c2/[n-]c(COc3cccc(O)c3)cs2)cc1F (cis-trans isomerization)
CS(=O)(=O)[N-]c1ccc(C[N-]C(=O)/N=c2/[n-]c(COc3cccc(O)c3)cs2)cc1F (3D coordinates assigned)
CS(=O)(=O)[N-]c1ccc(C[N-]C(=O)/N=c2/[n-]c(COc3cccc(O)c3)cs2)cc1F (optimized conformer: 77.43082171324812 kcal/mol)

>  <smiles>  (71) 
CS(=O)(=O)Nc1ccc(CNC(=O)N=c2[nH]c(COc3cccc(O)c3)cs2)cc1F

>  <score_type>  (71) 
oracle

>  <origin>  (71) 
adg

>  <m_score__min__energy>  (71) 
-12.529999999999999

>  <m_primary>  (71) 
energy

$$$$
71:0
     RDKit          3D

 57 60  0  0  0  0  0  0  0  0999 V2000
   58.3850   32.1690   52.5260 C   0  0  0  0  0  0  0  0  0  0  0  0
   59.0750   32.6870   50.9690 S   0  0  0  0  0  0  0  0  0  0  0  0
   59.2990   34.1740   50.9910 O   0  0  0  0  0  0  0  0  0  0  0  0
   58.1040   32.3530   49.8710 O   0  0  0  0  0  0  0  0  0  0  0  0
   60.6190   31.8500   50.6520 C   0  0  0  0  0  0  0  0  0  0  0  0
   60.3880   30.5750   49.8890 C   0  0  0  0  0  0  0  0  0  0  0  0
   60.5460   29.3320   50.5190 C   0  0  0  0  0  0  0  0  0  0  0  0
   60.3520   28.1470   49.8030 C   0  0  0  0  0  0  0  0  0  0  0  0
   59.9800   28.1870   48.4540 C   0  0  0  0  0  0  0  0  0  0  0  0
   59.7530   26.9440   47.7620 N   0  0  0  0  0  0  0  0  0  0  0  0
   58.6690   26.6140   47.1200 C   0  0  0  0  0  0  0  0  0  0  0  0
   57.9040   27.5560   46.5100 N   0  0  0  0  0  0  0  0  0  0  0  0
   56.7400   27.2440   45.8820 C   0  0  0  0  0  0  0  0  0  0  0  0
   55.9890   28.2350   45.2310 O   0  0  0  0  0  0  0  0  0  0  0  0
   56.5360   29.3970   44.6590 C   0  0  0  0  0  0  0  0  0  0  0  0
   56.2480   29.6950   43.3220 C   0  0  0  0  0  0  0  0  0  0  0  0
   56.8500   30.7910   42.6990 C   0  0  0  0  0  0  0  0  0  0  0  0
   57.7270   31.6140   43.4150 C   0  0  0  0  0  0  0  0  0  0  0  0
   57.9680   31.3720   44.7800 C   0  0  0  0  0  0  0  0  0  0  0  0
   58.8760   32.1650   45.5630 N   0  0  0  0  0  0  0  0  0  0  0  0
   58.5670   33.2380   46.4620 C   0  0  0  0  0  0  0  0  0  0  0  0
   57.6040   33.1540   47.2690 O   0  0  0  0  0  0  0  0  0  0  0  0
   59.4370   34.4560   46.4710 C   0  0  0  0  0  0  0  0  0  0  0  0
   60.7500   34.1640   47.1410 C   0  0  0  0  0  0  0  0  0  0  0  0
   61.8230   33.6310   46.4050 C   0  0  0  0  0  0  0  0  0  0  0  0
   63.0470   33.3740   47.0310 C   0  0  0  0  0  0  0  0  0  0  0  0
   63.2140   33.6620   48.3910 C   0  0  0  0  0  0  0  0  0  0  0  0
   62.1590   34.2110   49.1240 C   0  0  0  0  0  0  0  0  0  0  0  0
   60.9300   34.4610   48.5040 C   0  0  0  0  0  0  0  0  0  0  0  0
   57.3620   30.2690   45.3910 C   0  0  0  0  0  0  0  0  0  0  0  0
   56.3180   25.9150   45.8570 C   0  0  0  0  0  0  0  0  0  0  0  0
   57.1120   24.9520   46.4850 C   0  0  0  0  0  0  0  0  0  0  0  0
   58.2650   25.3180   47.1070 N   0  0  0  0  0  0  0  0  0  0  0  0
   59.8670   29.4340   47.8100 C   0  0  0  0  0  0  0  0  0  0  0  0
   60.0610   30.6180   48.5260 C   0  0  0  0  0  0  0  0  0  0  0  0
   58.9683   32.6069   53.3494 H   0  0  0  0  0  0  0  0  0  0  0  0
   57.3409   32.5083   52.5954 H   0  0  0  0  0  0  0  0  0  0  0  0
   58.4194   31.0717   52.5954 H   0  0  0  0  0  0  0  0  0  0  0  0
   61.2725   32.5098   50.0625 H   0  0  0  0  0  0  0  0  0  0  0  0
   61.0912   31.6044   51.6147 H   0  0  0  0  0  0  0  0  0  0  0  0
   60.8241   29.2892   51.5824 H   0  0  0  0  0  0  0  0  0  0  0  0
   60.4925   27.1772   50.3027 H   0  0  0  0  0  0  0  0  0  0  0  0
   55.5446   29.0635   42.7594 H   0  0  0  0  0  0  0  0  0  0  0  0
   56.6341   31.0079   41.6424 H   0  0  0  0  0  0  0  0  0  0  0  0
   58.2291   32.4520   42.9094 H   0  0  0  0  0  0  0  0  0  0  0  0
   59.6231   34.7749   45.4348 H   0  0  0  0  0  0  0  0  0  0  0  0
   58.9243   35.2536   47.0287 H   0  0  0  0  0  0  0  0  0  0  0  0
   61.6993   33.4155   45.3334 H   0  0  0  0  0  0  0  0  0  0  0  0
   63.8796   32.9450   46.4541 H   0  0  0  0  0  0  0  0  0  0  0  0
   64.1763   33.4559   48.8825 H   0  0  0  0  0  0  0  0  0  0  0  0
   62.2948   34.4470   50.1898 H   0  0  0  0  0  0  0  0  0  0  0  0
   60.1010   34.8916   49.0849 H   0  0  0  0  0  0  0  0  0  0  0  0
   57.5342   30.0807   46.4610 H   0  0  0  0  0  0  0  0  0  0  0  0
   55.3815   25.6314   45.3544 H   0  0  0  0  0  0  0  0  0  0  0  0
   56.8041   23.8960   46.4764 H   0  0  0  0  0  0  0  0  0  0  0  0
   59.6248   29.4763   46.7378 H   0  0  0  0  0  0  0  0  0  0  0  0
   59.9568   31.5882   48.0183 H   0  0  0  0  0  0  0  0  0  0  0  0
  1  2  1  0
  2  3  2  0
  2  4  2  0
  2  5  1  0
  5  6  1  0
  6  7  2  0
  7  8  1  0
  8  9  2  0
  9 10  1  0
 10 11  2  3
 11 12  1  0
 12 13  2  0
 13 14  1  0
 14 15  1  0
 15 16  2  0
 16 17  1  0
 17 18  2  0
 18 19  1  0
 19 20  1  0
 20 21  1  0
 21 22  2  0
 21 23  1  0
 23 24  1  0
 24 25  2  0
 25 26  1  0
 26 27  2  0
 27 28  1  0
 28 29  2  0
 19 30  2  0
 13 31  1  0
 31 32  2  0
 32 33  1  0
  9 34  1  0
 34 35  2  0
 35  6  1  0
 33 11  1  0
 30 15  1  0
 29 24  1  0
  1 36  1  0
  1 37  1  0
  1 38  1  0
  5 39  1  0
  5 40  1  0
  7 41  1  0
  8 42  1  0
 16 43  1  0
 17 44  1  0
 18 45  1  0
 23 46  1  0
 23 47  1  0
 25 48  1  0
 26 49  1  0
 27 50  1  0
 28 51  1  0
 29 52  1  0
 30 53  1  0
 31 54  1  0
 32 55  1  0
 34 56  1  0
 35 57  1  0
M  CHG  2  20  -1  33  -1
M  END
>  <UniqueID>  (72) 
65

>  <SMILES>  (72) 
CS(=O)(=O)Cc1ccc(N=c2nc(Oc3cccc([N-]C(=O)Cc4ccccc4)c3)cc[n-]2)cc1

>  <Energy>  (72) 
63.17811854632367

>  <Genealogy>  (72) 
CS(=O)(=O)Cc1ccc(N=c2nc(Oc3cccc([N-]C(=O)Cc4ccccc4)c3)cc[n-]2)cc1 (protonated)
CS(=O)(=O)Cc1ccc(N=c2nc(Oc3cccc([N-]C(=O)Cc4ccccc4)c3)cc[n-]2)cc1 (3D coordinates assigned)
CS(=O)(=O)Cc1ccc(N=c2nc(Oc3cccc([N-]C(=O)Cc4ccccc4)c3)cc[n-]2)cc1 (optimized conformer: 63.17811854632367 kcal/mol)

>  <smiles>  (72) 
CS(=O)(=O)Cc1ccc(N=c2nc(Oc3cccc(NC(=O)Cc4ccccc4)c3)cc[nH]2)cc1

>  <score_type>  (72) 
oracle

>  <origin>  (72) 
adg

>  <m_score__min__energy>  (72) 
-12.68

>  <m_primary>  (72) 
energy

$$$$
72:0
     RDKit          3D

 26 27  0  0  0  0  0  0  0  0999 V2000
   55.1370   30.0910   45.6410 H   0  0  0  0  0  0  0  0  0  0  0  0
   55.4950   29.3160   45.0950 O   0  0  0  0  0  0  0  0  0  0  0  0
   56.8640   29.1170   44.9190 C   0  0  0  0  0  0  0  0  0  0  0  0
   57.6870   30.1560   44.4430 C   0  0  0  0  0  0  0  0  0  0  0  0
   57.1140   31.4830   44.1170 C   0  0  0  0  0  0  0  0  0  0  0  0
   56.0238   31.5778   44.0056 H   0  0  0  0  0  0  0  0  0  0  0  0
   57.8790   32.5730   43.9530 C   0  0  0  0  0  0  0  0  0  0  0  0
   58.0588   32.9321   42.9289 H   0  0  0  0  0  0  0  0  0  0  0  0
   58.4960   33.3210   45.0760 C   0  0  0  0  0  0  0  0  0  0  0  0
   59.1070   34.5810   44.9040 C   0  0  0  0  0  0  0  0  0  0  0  0
   59.1270   35.0480   43.9082 H   0  0  0  0  0  0  0  0  0  0  0  0
   59.6870   35.2390   45.9920 C   0  0  0  0  0  0  0  0  0  0  0  0
   60.1570   36.2234   45.8501 H   0  0  0  0  0  0  0  0  0  0  0  0
   59.6720   34.6510   47.2590 C   0  0  0  0  0  0  0  0  0  0  0  0
   60.1224   35.1756   48.1145 H   0  0  0  0  0  0  0  0  0  0  0  0
   59.0850   33.3970   47.4390 C   0  0  0  0  0  0  0  0  0  0  0  0
   59.0750   32.5870   49.1700 Br  0  0  0  0  0  0  0  0  0  0  0  0
   58.5050   32.7330   46.3530 C   0  0  0  0  0  0  0  0  0  0  0  0
   58.0517   31.7415   46.4995 H   0  0  0  0  0  0  0  0  0  0  0  0
   59.0220   29.9260   44.2800 N   0  0  0  0  0  0  0  0  0  0  0  0
   59.5910   28.7250   44.5630 C   0  0  0  0  0  0  0  0  0  0  0  0
   60.6719   28.5814   44.4178 H   0  0  0  0  0  0  0  0  0  0  0  0
   58.8070   27.6750   45.0370 C   0  0  0  0  0  0  0  0  0  0  0  0
   59.2628   26.7009   45.2682 H   0  0  0  0  0  0  0  0  0  0  0  0
   57.4380   27.8730   45.2150 C   0  0  0  0  0  0  0  0  0  0  0  0
   56.8080   27.0520   45.5881 H   0  0  0  0  0  0  0  0  0  0  0  0
  1  2  1  0
  2  3  1  0
  3  4  2  0
  4  5  1  0
  5  6  1  0
  5  7  2  0
  7  8  1  0
  7  9  1  0
  9 10  2  0
 10 11  1  0
 10 12  1  0
 12 13  1  0
 12 14  2  0
 14 15  1  0
 14 16  1  0
 16 17  1  0
 16 18  2  0
 18 19  1  0
  4 20  1  0
 20 21  2  0
 21 22  1  0
 21 23  1  0
 23 24  1  0
 23 25  2  0
 25 26  1  0
 25  3  1  0
 18  9  1  0
M  END
>  <UniqueID>  (73) 
66

>  <SMILES>  (73) 
Oc1cccnc1/C=C/c1cccc(Br)c1

>  <Energy>  (73) 
29.916583965646428

>  <Genealogy>  (73) 
Oc1cccnc1/C=C/c1cccc(Br)c1 (cis-trans isomerization)
Oc1cccnc1/C=C/c1cccc(Br)c1 (3D coordinates assigned)
Oc1cccnc1/C=C/c1cccc(Br)c1 (optimized conformer: 29.916583965646428 kcal/mol)

>  <smiles>  (73) 
Oc1cccnc1C=Cc1cccc(Br)c1

>  <score_type>  (73) 
oracle

>  <origin>  (73) 
adg

>  <m_score__min__energy>  (73) 
-7.7400000000000002

>  <m_primary>  (73) 
energy

$$$$
73:0
     RDKit          3D

 46 48  0  0  0  0  0  0  0  0999 V2000
   63.2687   33.5990   46.3593 H   0  0  0  0  0  0  0  0  0  0  0  0
   62.3660   33.7520   46.9690 C   0  0  0  0  0  0  0  0  0  0  0  0
   62.4690   33.8290   48.3590 C   0  0  0  0  0  0  0  0  0  0  0  0
   63.4511   33.7291   48.8442 H   0  0  0  0  0  0  0  0  0  0  0  0
   61.3240   34.0330   49.1340 C   0  0  0  0  0  0  0  0  0  0  0  0
   61.4270   34.1210   50.4830 F   0  0  0  0  0  0  0  0  0  0  0  0
   60.0740   34.1520   48.5190 C   0  0  0  0  0  0  0  0  0  0  0  0
   59.1777   34.3258   49.1325 H   0  0  0  0  0  0  0  0  0  0  0  0
   59.9550   34.0510   47.1220 C   0  0  0  0  0  0  0  0  0  0  0  0
   58.5980   34.1790   46.4590 C   0  0  0  0  0  0  0  0  0  0  0  0
   58.7204   34.7530   45.5287 H   0  0  0  0  0  0  0  0  0  0  0  0
   57.9368   34.6793   47.1818 H   0  0  0  0  0  0  0  0  0  0  0  0
   57.9650   32.8820   46.1260 N   0  0  0  0  0  0  0  0  0  0  0  0
   58.7920   31.7080   46.4780 C   0  0  0  0  0  0  0  0  0  0  0  0
   58.8066   31.5903   47.5716 H   0  0  0  0  0  0  0  0  0  0  0  0
   59.8129   31.8658   46.0999 H   0  0  0  0  0  0  0  0  0  0  0  0
   58.2190   30.4380   45.8420 C   0  0  0  0  0  0  0  0  0  0  0  0
   57.1782   30.3105   46.1744 H   0  0  0  0  0  0  0  0  0  0  0  0
   58.8389   29.5855   46.1567 H   0  0  0  0  0  0  0  0  0  0  0  0
   58.2460   30.5100   44.3570 N   0  0  0  0  0  0  0  0  0  0  0  0
   57.2300   29.6200   43.7550 C   0  0  0  0  0  0  0  0  0  0  0  0
   57.7371   28.7864   43.2472 H   0  0  0  0  0  0  0  0  0  0  0  0
   56.6342   30.2024   43.0368 H   0  0  0  0  0  0  0  0  0  0  0  0
   56.3120   29.0700   44.8030 C   0  0  0  0  0  0  0  0  0  0  0  0
   55.1470   29.5410   44.9090 O   0  0  0  0  0  0  0  0  0  0  0  0
   56.7670   27.9970   45.6420 N   0  0  0  0  0  0  0  0  0  0  0  0
   56.3880   26.7520   45.6130 C   0  0  0  0  0  0  0  0  0  0  0  0
   55.1520   26.3720   46.0020 N   0  0  0  0  0  0  0  0  0  0  0  0
   54.9500   25.0590   45.9020 N   0  0  0  0  0  0  0  0  0  0  0  0
   56.0280   24.3840   45.4430 C   0  0  0  0  0  0  0  0  0  0  0  0
   56.0320   22.9110   45.1840 C   0  0  0  0  0  0  0  0  0  0  0  0
   55.0150   22.5163   45.3256 H   0  0  0  0  0  0  0  0  0  0  0  0
   56.7283   22.4294   45.8863 H   0  0  0  0  0  0  0  0  0  0  0  0
   56.4890   22.6180   43.7610 C   0  0  0  0  0  0  0  0  0  0  0  0
   57.4147   22.0245   43.7881 H   0  0  0  0  0  0  0  0  0  0  0  0
   55.7064   22.0529   43.2336 H   0  0  0  0  0  0  0  0  0  0  0  0
   56.6759   23.5650   43.2336 H   0  0  0  0  0  0  0  0  0  0  0  0
   57.3090   25.4270   45.1090 S   0  0  0  0  0  0  0  0  0  0  0  0
   58.1360   31.8950   43.8310 C   0  0  0  0  0  0  0  0  0  0  0  0
   57.6208   31.8642   42.8596 H   0  0  0  0  0  0  0  0  0  0  0  0
   59.1545   32.2992   43.7340 H   0  0  0  0  0  0  0  0  0  0  0  0
   57.3520   32.8200   44.7770 C   0  0  0  0  0  0  0  0  0  0  0  0
   56.3232   32.4424   44.8712 H   0  0  0  0  0  0  0  0  0  0  0  0
   57.3657   33.8337   44.3502 H   0  0  0  0  0  0  0  0  0  0  0  0
   61.1170   33.8690   46.3500 C   0  0  0  0  0  0  0  0  0  0  0  0
   61.0430   33.8184   45.2537 H   0  0  0  0  0  0  0  0  0  0  0  0
  1  2  1  0
  2  3  2  0
  3  4  1  0
  3  5  1  0
  5  6  1  0
  5  7  2  0
  7  8  1  0
  7  9  1  0
  9 10  1  0
 10 11  1  0
 10 12  1  0
 10 13  1  0
 13 14  1  0
 14 15  1  0
 14 16  1  0
 14 17  1  0
 17 18  1  0
 17 19  1  0
 17 20  1  0
 20 21  1  0
 21 22  1  0
 21 23  1  0
 21 24  1  0
 24 25  2  0
 24 26  1  0
 26 27  2  0
 27 28  1  0
 28 29  1  0
 29 30  2  0
 30 31  1  0
 31 32  1  0
 31 33  1  0
 31 34  1  0
 34 35  1  0
 34 36  1  0
 34 37  1  0
 30 38  1  0
 20 39  1  0
 39 40  1  0
 39 41  1  0
 39 42  1  0
 42 43  1  0
 42 44  1  0
  9 45  2  0
 45 46  1  0
 45  2  1  0
 42 13  1  0
 38 27  1  0
M  CHG  1  28  -1
M  END
>  <UniqueID>  (74) 
67

>  <SMILES>  (74) 
CCc1n[n-]/c(=N/C(=O)CN2CCN(Cc3cccc(F)c3)CC2)s1

>  <Energy>  (74) 
95.38572631073446

>  <Genealogy>  (74) 
CCc1n[n-]c(=NC(=O)CN2CCN(Cc3cccc(F)c3)CC2)s1 (protonated)
CCc1n[n-]/c(=N/C(=O)CN2CCN(Cc3cccc(F)c3)CC2)s1 (cis-trans isomerization)
CCc1n[n-]/c(=N/C(=O)CN2CCN(Cc3cccc(F)c3)CC2)s1 (3D coordinates assigned)
CCc1n[n-]/c(=N/C(=O)CN2CCN(Cc3cccc(F)c3)CC2)s1 (nonaromatic ring conformer: 95.38572631073446 kcal/mol)

>  <smiles>  (74) 
CCc1n[nH]c(=NC(=O)CN2CCN(Cc3cccc(F)c3)CC2)s1

>  <score_type>  (74) 
oracle

>  <origin>  (74) 
adg

>  <m_score__min__energy>  (74) 
-11.460000000000001

>  <m_primary>  (74) 
energy

$$$$
74:0
     RDKit          3D

 39 41  0  0  0  0  0  0  0  0999 V2000
   56.1360   28.1460   45.2390 N   0  0  0  0  0  0  0  0  0  0  0  0
   56.7720   29.2410   45.4940 C   0  0  0  0  0  0  0  0  0  0  0  0
   56.4650   30.4200   44.9160 N   0  0  0  0  0  0  0  0  0  0  0  0
   57.2490   31.4150   45.3290 N   0  0  0  0  0  0  0  0  0  0  0  0
   58.1820   31.0240   46.2260 C   0  0  0  0  0  0  0  0  0  0  0  0
   59.1540   31.9610   46.8710 C   0  0  0  0  0  0  0  0  0  0  0  0
   58.4490   33.0260   47.7270 C   0  0  0  0  0  0  0  0  0  0  0  0
   58.9560   33.0880   49.1770 C   0  0  0  0  0  0  0  0  0  0  0  0
   58.0810   32.3530   50.0900 N   0  0  0  0  0  0  0  0  0  0  0  0
   58.3690   30.9980   50.4670 C   0  0  0  0  0  0  0  0  0  0  0  0
   59.2360   30.3450   49.8250 O   0  0  0  0  0  0  0  0  0  0  0  0
   57.6560   30.3500   51.5930 C   0  0  0  0  0  0  0  0  0  0  0  0
   58.2850   29.3530   52.3510 C   0  0  0  0  0  0  0  0  0  0  0  0
   57.6240   28.7710   53.3840 N   0  0  0  0  0  0  0  0  0  0  0  0
   56.3830   29.1340   53.7100 N   0  0  0  0  0  0  0  0  0  0  0  0
   55.7240   30.1110   53.0300 C   0  0  0  0  0  0  0  0  0  0  0  0
   54.5090   30.4540   53.3490 N   0  0  0  0  0  0  0  0  0  0  0  0
   53.3170   30.0620   52.6520 C   0  0  0  0  0  0  0  0  0  0  0  0
   53.0670   28.8340   52.5260 O   0  0  0  0  0  0  0  0  0  0  0  0
   52.4190   31.0490   52.0210 C   0  0  0  0  0  0  0  0  0  0  0  0
   51.5740   31.9410   52.6610 C   0  0  0  0  0  0  0  0  0  0  0  0
   50.9420   32.7250   51.7660 N   0  0  0  0  0  0  0  0  0  0  0  0
   51.3990   32.3260   50.5640 C   0  0  0  0  0  0  0  0  0  0  0  0
   50.9880   32.8950   49.3660 O   0  0  0  0  0  0  0  0  0  0  0  0
   52.3150   31.3040   50.6700 C   0  0  0  0  0  0  0  0  0  0  0  0
   56.3540   30.7310   51.9490 C   0  0  0  0  0  0  0  0  0  0  0  0
   58.0600   29.3740   46.5700 S   0  0  0  0  0  0  0  0  0  0  0  0
   55.1830   28.1610   44.8110 H   0  0  0  0  0  0  0  0  0  0  0  0
   59.8324   31.3811   47.5140 H   0  0  0  0  0  0  0  0  0  0  0  0
   59.7062   32.4788   46.0729 H   0  0  0  0  0  0  0  0  0  0  0  0
   58.6100   34.0090   47.2604 H   0  0  0  0  0  0  0  0  0  0  0  0
   57.3847   32.7512   47.7699 H   0  0  0  0  0  0  0  0  0  0  0  0
   59.9643   32.6505   49.2207 H   0  0  0  0  0  0  0  0  0  0  0  0
   58.9687   34.1424   49.4901 H   0  0  0  0  0  0  0  0  0  0  0  0
   57.2060   32.8040   50.4400 H   0  0  0  0  0  0  0  0  0  0  0  0
   59.3123   29.0427   52.1093 H   0  0  0  0  0  0  0  0  0  0  0  0
   51.4377   32.0009   53.7509 H   0  0  0  0  0  0  0  0  0  0  0  0
   52.8496   30.7989   49.8520 H   0  0  0  0  0  0  0  0  0  0  0  0
   55.8319   31.5141   51.3797 H   0  0  0  0  0  0  0  0  0  0  0  0
  1  2  2  3
  2  3  1  0
  3  4  1  0
  4  5  2  0
  5  6  1  0
  6  7  1  0
  7  8  1  0
  8  9  1  0
  9 10  1  0
 10 11  2  0
 10 12  1  0
 12 13  1  0
 13 14  2  0
 14 15  1  0
 15 16  1  0
 16 17  2  3
 17 18  1  0
 18 19  2  0
 18 20  1  0
 20 21  2  0
 21 22  1  0
 22 23  1  0
 23 24  1  0
 23 25  2  0
 16 26  1  0
  5 27  1  0
 27  2  1  0
 26 12  2  0
 25 20  1  0
  1 28  1  0
  6 29  1  0
  6 30  1  0
  7 31  1  0
  7 32  1  0
  8 33  1  0
  8 34  1  0
  9 35  1  0
 13 36  1  0
 21 37  1  0
 25 38  1  0
 26 39  1  0
M  CHG  4   3  -1  15  -1  22  -1  24  -1
M  END
>  <UniqueID>  (75) 
68

>  <SMILES>  (75) 
N=c1[n-]nc(CCCNC(=O)c2cn[n-]c(=NC(=O)c3c[n-]c([O-])c3)c2)s1

>  <Energy>  (75) 
104.39135085778074

>  <Genealogy>  (75) 
N=c1[n-]nc(CCCNC(=O)c2cn[n-]c(=NC(=O)c3c[n-]c([O-])c3)c2)s1 (protonated)
N=c1[n-]nc(CCCNC(=O)c2cn[n-]c(=NC(=O)c3c[n-]c([O-])c3)c2)s1 (3D coordinates assigned)
N=c1[n-]nc(CCCNC(=O)c2cn[n-]c(=NC(=O)c3c[n-]c([O-])c3)c2)s1 (optimized conformer: 104.39135085778074 kcal/mol)

>  <smiles>  (75) 
N=c1[nH]nc(CCCNC(=O)c2cn[nH]c(=NC(=O)c3c[nH]c(O)c3)c2)s1

>  <score_type>  (75) 
oracle

>  <origin>  (75) 
adg

>  <m_score__min__energy>  (75) 
-18.859999999999999

>  <m_primary>  (75) 
energy

$$$$
75:0
     RDKit          3D

 56 59  0  0  0  0  0  0  0  0999 V2000
   59.4920   22.2340   44.1350 O   0  0  0  0  0  0  0  0  0  0  0  0
   58.9800   22.4260   45.2710 C   0  0  0  0  0  0  0  0  0  0  0  0
   59.1420   23.7500   45.9440 C   0  0  0  0  0  0  0  0  0  0  0  0
   57.8350   24.3160   46.2860 N   0  0  0  0  0  0  0  0  0  0  0  0
   57.1370   25.2660   45.6290 C   0  0  0  0  0  0  0  0  0  0  0  0
   57.5630   25.9710   44.3680 C   0  0  0  0  0  0  0  0  0  0  0  0
   58.1310   27.3320   44.6660 C   0  0  0  0  0  0  0  0  0  0  0  0
   59.4090   27.4600   45.2350 C   0  0  0  0  0  0  0  0  0  0  0  0
   59.9190   28.7220   45.5440 C   0  0  0  0  0  0  0  0  0  0  0  0
   59.1650   29.8670   45.2810 C   0  0  0  0  0  0  0  0  0  0  0  0
   57.9000   29.7570   44.6900 C   0  0  0  0  0  0  0  0  0  0  0  0
   56.9270   31.1990   44.4180 S   0  0  0  0  0  0  0  0  0  0  0  0
   55.4940   30.8350   44.1550 O   0  0  0  0  0  0  0  0  0  0  0  0
   57.4580   31.9270   43.2150 O   0  0  0  0  0  0  0  0  0  0  0  0
   57.0520   32.2380   45.8020 N   0  0  0  0  0  0  0  0  0  0  0  0
   58.0550   33.2490   45.9460 C   0  0  0  0  0  0  0  0  0  0  0  0
   58.2460   34.1620   44.9000 C   0  0  0  0  0  0  0  0  0  0  0  0
   59.2180   35.1590   45.0010 C   0  0  0  0  0  0  0  0  0  0  0  0
   59.9890   35.2690   46.1610 C   0  0  0  0  0  0  0  0  0  0  0  0
   59.7830   34.3850   47.2210 C   0  0  0  0  0  0  0  0  0  0  0  0
   58.8210   33.3770   47.1210 C   0  0  0  0  0  0  0  0  0  0  0  0
   58.6040   32.5730   48.1900 F   0  0  0  0  0  0  0  0  0  0  0  0
   57.3880   28.4890   44.3780 C   0  0  0  0  0  0  0  0  0  0  0  0
   55.9530   25.4620   46.3090 C   0  0  0  0  0  0  0  0  0  0  0  0
   54.9610   26.3690   45.9570 O   0  0  0  0  0  0  0  0  0  0  0  0
   55.8780   24.6450   47.3780 N   0  0  0  0  0  0  0  0  0  0  0  0
   57.0420   23.9650   47.3230 C   0  0  0  0  0  0  0  0  0  0  0  0
   57.3500   23.0770   48.1620 O   0  0  0  0  0  0  0  0  0  0  0  0
   58.2350   21.3880   45.9140 N   0  0  0  0  0  0  0  0  0  0  0  0
   57.1030   20.7100   45.2950 C   0  0  0  0  0  0  0  0  0  0  0  0
   56.0870   21.7210   44.8350 C   0  0  0  0  0  0  0  0  0  0  0  0
   56.2710   22.4000   43.6190 C   0  0  0  0  0  0  0  0  0  0  0  0
   55.3650   23.3880   43.2180 C   0  0  0  0  0  0  0  0  0  0  0  0
   54.2690   23.7030   44.0270 C   0  0  0  0  0  0  0  0  0  0  0  0
   54.0770   23.0310   45.2380 C   0  0  0  0  0  0  0  0  0  0  0  0
   54.9850   22.0470   45.6460 C   0  0  0  0  0  0  0  0  0  0  0  0
   59.7313   23.6188   46.8635 H   0  0  0  0  0  0  0  0  0  0  0  0
   59.6580   24.4370   45.2571 H   0  0  0  0  0  0  0  0  0  0  0  0
   58.3295   25.3663   43.8612 H   0  0  0  0  0  0  0  0  0  0  0  0
   56.6787   26.0975   43.7261 H   0  0  0  0  0  0  0  0  0  0  0  0
   60.0105   26.5616   45.4379 H   0  0  0  0  0  0  0  0  0  0  0  0
   60.9176   28.8146   45.9959 H   0  0  0  0  0  0  0  0  0  0  0  0
   59.5656   30.8585   45.5387 H   0  0  0  0  0  0  0  0  0  0  0  0
   57.6262   34.0926   43.9939 H   0  0  0  0  0  0  0  0  0  0  0  0
   59.3769   35.8583   44.1669 H   0  0  0  0  0  0  0  0  0  0  0  0
   60.7578   36.0519   46.2387 H   0  0  0  0  0  0  0  0  0  0  0  0
   60.3807   34.4823   48.1393 H   0  0  0  0  0  0  0  0  0  0  0  0
   56.3989   28.4000   43.9050 H   0  0  0  0  0  0  0  0  0  0  0  0
   54.0440   26.3200   46.3840 H   0  0  0  0  0  0  0  0  0  0  0  0
   57.4551   20.1280   44.4306 H   0  0  0  0  0  0  0  0  0  0  0  0
   56.6371   20.0388   46.0314 H   0  0  0  0  0  0  0  0  0  0  0  0
   57.1313   22.1538   42.9792 H   0  0  0  0  0  0  0  0  0  0  0  0
   55.5151   23.9173   42.2655 H   0  0  0  0  0  0  0  0  0  0  0  0
   53.5574   24.4799   43.7106 H   0  0  0  0  0  0  0  0  0  0  0  0
   53.2113   23.2759   45.8709 H   0  0  0  0  0  0  0  0  0  0  0  0
   54.8363   21.5270   46.6039 H   0  0  0  0  0  0  0  0  0  0  0  0
  1  2  2  0
  2  3  1  0
  3  4  1  0
  4  5  1  0
  5  6  1  0
  6  7  1  0
  7  8  2  0
  8  9  1  0
  9 10  2  0
 10 11  1  0
 11 12  1  0
 12 13  2  0
 12 14  2  0
 12 15  1  0
 15 16  1  0
 16 17  2  0
 17 18  1  0
 18 19  2  0
 19 20  1  0
 20 21  2  0
 21 22  1  0
 11 23  2  0
  5 24  2  0
 24 25  1  0
 24 26  1  0
 26 27  1  0
 27 28  2  0
  2 29  1  0
 29 30  1  0
 30 31  1  0
 31 32  2  0
 32 33  1  0
 33 34  2  0
 34 35  1  0
 35 36  2  0
 27  4  1  0
 36 31  1  0
 23  7  1  0
 21 16  1  0
  3 37  1  0
  3 38  1  0
  6 39  1  0
  6 40  1  0
  8 41  1  0
  9 42  1  0
 10 43  1  0
 17 44  1  0
 18 45  1  0
 19 46  1  0
 20 47  1  0
 23 48  1  0
 25 49  1  0
 30 50  1  0
 30 51  1  0
 32 52  1  0
 33 53  1  0
 34 54  1  0
 35 55  1  0
 36 56  1  0
M  CHG  3  15  -1  26  -1  29  -1
M  END
>  <UniqueID>  (76) 
69

>  <SMILES>  (76) 
O=C(Cn1c(Cc2cccc(S(=O)(=O)[N-]c3ccccc3F)c2)c(O)[n-]c1=O)[N-]Cc1ccccc1

>  <Energy>  (76) 
88.39203129062142

>  <Genealogy>  (76) 
O=C(Cn1c(Cc2cccc(S(=O)(=O)[N-]c3ccccc3F)c2)c(O)[n-]c1=O)[N-]Cc1ccccc1 (protonated)
O=C(Cn1c(Cc2cccc(S(=O)(=O)[N-]c3ccccc3F)c2)c(O)[n-]c1=O)[N-]Cc1ccccc1 (3D coordinates assigned)
O=C(Cn1c(Cc2cccc(S(=O)(=O)[N-]c3ccccc3F)c2)c(O)[n-]c1=O)[N-]Cc1ccccc1 (optimized conformer: 88.39203129062142 kcal/mol)

>  <smiles>  (76) 
O=C(Cn1c(Cc2cccc(S(=O)(=O)Nc3ccccc3F)c2)c(O)[nH]c1=O)NCc1ccccc1

>  <score_type>  (76) 
oracle

>  <origin>  (76) 
adg

>  <m_score__min__energy>  (76) 
-14.91

>  <m_primary>  (76) 
energy

$$$$
76:0
     RDKit          3D

 46 49  0  0  0  0  0  0  0  0999 V2000
   56.3000   29.2910   52.3550 O   0  0  0  0  0  0  0  0  0  0  0  0
   56.5140   30.4390   51.8760 C   0  0  0  0  0  0  0  0  0  0  0  0
   57.9290   30.8790   51.6110 C   0  0  0  0  0  0  0  0  0  0  0  0
   58.0020   32.1750   50.7920 C   0  0  0  0  0  0  0  0  0  0  0  0
   59.3080   32.3140   50.0550 C   0  0  0  0  0  0  0  0  0  0  0  0
   60.4800   31.8610   50.5820 N   0  0  0  0  0  0  0  0  0  0  0  0
   61.3780   32.1800   49.6320 C   0  0  0  0  0  0  0  0  0  0  0  0
   62.7530   31.9770   49.6080 C   0  0  0  0  0  0  0  0  0  0  0  0
   63.5380   31.2440   50.8410 S   0  0  0  0  0  0  0  0  0  0  0  0
   63.4390   32.4100   48.5100 N   0  0  0  0  0  0  0  0  0  0  0  0
   62.8000   33.0280   47.4650 C   0  0  0  0  0  0  0  0  0  0  0  0
   63.4620   33.4150   46.4680 O   0  0  0  0  0  0  0  0  0  0  0  0
   61.4480   33.2260   47.5020 N   0  0  0  0  0  0  0  0  0  0  0  0
   60.7690   32.7920   48.5910 C   0  0  0  0  0  0  0  0  0  0  0  0
   59.4560   32.9040   48.8340 N   0  0  0  0  0  0  0  0  0  0  0  0
   58.4470   33.5230   47.9670 C   0  0  0  0  0  0  0  0  0  0  0  0
   58.3290   32.7980   46.6480 C   0  0  0  0  0  0  0  0  0  0  0  0
   57.9460   33.4770   45.4760 C   0  0  0  0  0  0  0  0  0  0  0  0
   57.7970   32.7820   44.2730 C   0  0  0  0  0  0  0  0  0  0  0  0
   58.0140   31.4040   44.2290 C   0  0  0  0  0  0  0  0  0  0  0  0
   58.3760   30.7170   45.3900 C   0  0  0  0  0  0  0  0  0  0  0  0
   58.5280   31.4090   46.5960 C   0  0  0  0  0  0  0  0  0  0  0  0
   55.4200   31.3190   51.5710 N   0  0  0  0  0  0  0  0  0  0  0  0
   54.0430   30.9970   51.8180 C   0  0  0  0  0  0  0  0  0  0  0  0
   53.7270   29.8500   52.5610 C   0  0  0  0  0  0  0  0  0  0  0  0
   52.3940   29.5250   52.8280 C   0  0  0  0  0  0  0  0  0  0  0  0
   51.3660   30.3520   52.3700 C   0  0  0  0  0  0  0  0  0  0  0  0
   51.6700   31.5110   51.6500 C   0  0  0  0  0  0  0  0  0  0  0  0
   50.6490   32.3420   51.2090 O   0  0  0  0  0  0  0  0  0  0  0  0
   53.0030   31.8370   51.3790 C   0  0  0  0  0  0  0  0  0  0  0  0
   58.4331   31.0428   52.5749 H   0  0  0  0  0  0  0  0  0  0  0  0
   58.4193   30.0874   51.0253 H   0  0  0  0  0  0  0  0  0  0  0  0
   57.1810   32.1773   50.0599 H   0  0  0  0  0  0  0  0  0  0  0  0
   57.9195   33.0197   51.4917 H   0  0  0  0  0  0  0  0  0  0  0  0
   57.4729   33.4968   48.4774 H   0  0  0  0  0  0  0  0  0  0  0  0
   58.7558   34.5591   47.7642 H   0  0  0  0  0  0  0  0  0  0  0  0
   57.7629   34.5612   45.5073 H   0  0  0  0  0  0  0  0  0  0  0  0
   57.5082   33.3218   43.3591 H   0  0  0  0  0  0  0  0  0  0  0  0
   57.9000   30.8591   43.2803 H   0  0  0  0  0  0  0  0  0  0  0  0
   58.5418   29.6301   45.3558 H   0  0  0  0  0  0  0  0  0  0  0  0
   58.8051   30.8618   47.5091 H   0  0  0  0  0  0  0  0  0  0  0  0
   55.6400   32.2940   51.2670 H   0  0  0  0  0  0  0  0  0  0  0  0
   54.5332   29.2023   52.9359 H   0  0  0  0  0  0  0  0  0  0  0  0
   52.1543   28.6164   53.3998 H   0  0  0  0  0  0  0  0  0  0  0  0
   50.3173   30.0914   52.5758 H   0  0  0  0  0  0  0  0  0  0  0  0
   53.2394   32.7544   50.8200 H   0  0  0  0  0  0  0  0  0  0  0  0
  1  2  2  0
  2  3  1  0
  3  4  1  0
  4  5  1  0
  5  6  2  0
  6  7  1  0
  7  8  1  0
  8  9  2  0
  8 10  1  0
 10 11  1  0
 11 12  2  0
 11 13  1  0
 13 14  1  0
 14 15  1  0
 15 16  1  0
 16 17  1  0
 17 18  2  0
 18 19  1  0
 19 20  2  0
 20 21  1  0
 21 22  2  0
  2 23  1  0
 23 24  1  0
 24 25  2  0
 25 26  1  0
 26 27  2  0
 27 28  1  0
 28 29  1  0
 28 30  2  0
 15  5  1  0
 22 17  1  0
 30 24  1  0
 14  7  2  0
  3 31  1  0
  3 32  1  0
  4 33  1  0
  4 34  1  0
 16 35  1  0
 16 36  1  0
 18 37  1  0
 19 38  1  0
 20 39  1  0
 21 40  1  0
 22 41  1  0
 23 42  1  0
 25 43  1  0
 26 44  1  0
 27 45  1  0
 30 46  1  0
M  CHG  3  10  -1  13  -1  29  -1
M  END
>  <UniqueID>  (77) 
70

>  <SMILES>  (77) 
O=C(CCc1nc2c(=S)[n-]c(=O)[n-]c2n1Cc1ccccc1)Nc1cccc([O-])c1

>  <Energy>  (77) 
90.67544565853275

>  <Genealogy>  (77) 
O=C(CCc1nc2c(=S)[n-]c(=O)[n-]c2n1Cc1ccccc1)Nc1cccc([O-])c1 (protonated)
O=C(CCc1nc2c(=S)[n-]c(=O)[n-]c2n1Cc1ccccc1)Nc1cccc([O-])c1 (3D coordinates assigned)
O=C(CCc1nc2c(=S)[n-]c(=O)[n-]c2n1Cc1ccccc1)Nc1cccc([O-])c1 (optimized conformer: 90.67544565853275 kcal/mol)

>  <smiles>  (77) 
O=C(CCc1nc2c(=S)[nH]c(=O)[nH]c2n1Cc1ccccc1)Nc1cccc(O)c1

>  <score_type>  (77) 
oracle

>  <origin>  (77) 
adg

>  <m_score__min__energy>  (77) 
-14.33

>  <m_primary>  (77) 
energy

$$$$
77:0
     RDKit          3D

 57 60  0  0  0  0  0  0  0  0999 V2000
   59.5880   26.0220   47.0760 O   0  0  0  0  0  0  0  0  0  0  0  0
   58.4520   26.5200   46.8420 C   0  0  0  0  0  0  0  0  0  0  0  0
   57.2650   25.8210   47.2490 N   0  0  0  0  0  0  0  0  0  0  0  0
   56.5000   25.0200   46.5580 C   0  0  0  0  0  0  0  0  0  0  0  0
   56.8650   23.7090   46.4860 N   0  0  0  0  0  0  0  0  0  0  0  0
   56.1580   22.7880   45.7810 C   0  0  0  0  0  0  0  0  0  0  0  0
   55.0070   23.1690   45.0940 C   0  0  0  0  0  0  0  0  0  0  0  0
   54.5800   24.4930   45.1660 C   0  0  0  0  0  0  0  0  0  0  0  0
   55.3030   25.4280   45.9120 C   0  0  0  0  0  0  0  0  0  0  0  0
   54.7850   26.7110   46.0370 O   0  0  0  0  0  0  0  0  0  0  0  0
   58.3500   27.8770   46.2530 C   0  0  0  0  0  0  0  0  0  0  0  0
   57.2620   28.2220   45.4290 C   0  0  0  0  0  0  0  0  0  0  0  0
   57.1670   29.5060   44.8840 C   0  0  0  0  0  0  0  0  0  0  0  0
   58.1530   30.4630   45.1520 C   0  0  0  0  0  0  0  0  0  0  0  0
   57.9940   32.0860   44.4870 S   0  0  0  0  0  0  0  0  0  0  0  0
   56.6270   32.6060   44.8310 O   0  0  0  0  0  0  0  0  0  0  0  0
   58.1260   32.0530   42.9880 O   0  0  0  0  0  0  0  0  0  0  0  0
   59.1950   33.1510   45.1710 N   0  0  0  0  0  0  0  0  0  0  0  0
   58.6530   33.9440   46.2930 C   0  0  0  0  0  0  0  0  0  0  0  0
   57.8190   33.0400   47.2390 C   0  0  0  0  0  0  0  0  0  0  0  0
   58.7050   32.4220   48.3260 C   0  0  0  0  0  0  0  0  0  0  0  0
   59.3030   33.4530   49.2180 N   0  0  0  0  0  0  0  0  0  0  0  0
   60.5520   32.9650   49.8430 C   0  0  0  0  0  0  0  0  0  0  0  0
   61.6580   32.8650   48.8240 C   0  0  0  0  0  0  0  0  0  0  0  0
   62.5700   33.9210   48.6700 C   0  0  0  0  0  0  0  0  0  0  0  0
   63.6190   33.8180   47.7510 C   0  0  0  0  0  0  0  0  0  0  0  0
   63.7680   32.6580   46.9850 C   0  0  0  0  0  0  0  0  0  0  0  0
   62.8690   31.6000   47.1370 C   0  0  0  0  0  0  0  0  0  0  0  0
   61.8170   31.7000   48.0550 C   0  0  0  0  0  0  0  0  0  0  0  0
   59.5000   34.7720   48.5610 C   0  0  0  0  0  0  0  0  0  0  0  0
   59.8050   34.6420   47.0620 C   0  0  0  0  0  0  0  0  0  0  0  0
   59.2440   30.1230   45.9610 C   0  0  0  0  0  0  0  0  0  0  0  0
   59.3420   28.8410   46.5100 C   0  0  0  0  0  0  0  0  0  0  0  0
   56.4942   21.7410   45.7524 H   0  0  0  0  0  0  0  0  0  0  0  0
   54.4426   22.4333   44.5022 H   0  0  0  0  0  0  0  0  0  0  0  0
   53.6694   24.8041   44.6331 H   0  0  0  0  0  0  0  0  0  0  0  0
   56.4821   27.4771   45.2127 H   0  0  0  0  0  0  0  0  0  0  0  0
   56.3130   29.7657   44.2412 H   0  0  0  0  0  0  0  0  0  0  0  0
   59.9430   32.5170   45.5350 H   0  0  0  0  0  0  0  0  0  0  0  0
   57.9877   34.7223   45.8910 H   0  0  0  0  0  0  0  0  0  0  0  0
   57.0335   33.6450   47.7154 H   0  0  0  0  0  0  0  0  0  0  0  0
   57.3721   32.2283   46.6461 H   0  0  0  0  0  0  0  0  0  0  0  0
   58.0945   31.7384   48.9343 H   0  0  0  0  0  0  0  0  0  0  0  0
   59.5278   31.8884   47.8278 H   0  0  0  0  0  0  0  0  0  0  0  0
   60.8550   33.6640   50.6364 H   0  0  0  0  0  0  0  0  0  0  0  0
   60.3684   31.9649   50.2627 H   0  0  0  0  0  0  0  0  0  0  0  0
   62.4590   34.8332   49.2747 H   0  0  0  0  0  0  0  0  0  0  0  0
   64.3277   34.6506   47.6307 H   0  0  0  0  0  0  0  0  0  0  0  0
   64.5935   32.5786   46.2624 H   0  0  0  0  0  0  0  0  0  0  0  0
   62.9878   30.6872   46.5347 H   0  0  0  0  0  0  0  0  0  0  0  0
   61.1125   30.8637   48.1747 H   0  0  0  0  0  0  0  0  0  0  0  0
   58.5837   35.3679   48.6842 H   0  0  0  0  0  0  0  0  0  0  0  0
   60.3648   35.2570   49.0374 H   0  0  0  0  0  0  0  0  0  0  0  0
   59.9546   35.6474   46.6415 H   0  0  0  0  0  0  0  0  0  0  0  0
   60.7095   34.0258   46.9515 H   0  0  0  0  0  0  0  0  0  0  0  0
   60.0273   30.8677   46.1655 H   0  0  0  0  0  0  0  0  0  0  0  0
   60.2009   28.5842   47.1475 H   0  0  0  0  0  0  0  0  0  0  0  0
  1  2  2  0
  2  3  1  0
  3  4  2  3
  4  5  1  0
  5  6  1  0
  6  7  2  0
  7  8  1  0
  8  9  2  0
  9 10  1  0
  2 11  1  0
 11 12  2  0
 12 13  1  0
 13 14  2  0
 14 15  1  0
 15 16  2  0
 15 17  2  0
 15 18  1  0
 18 19  1  0
 19 20  1  0
 20 21  1  0
 21 22  1  0
 22 23  1  0
 23 24  1  0
 24 25  2  0
 25 26  1  0
 26 27  2  0
 27 28  1  0
 28 29  2  0
 22 30  1  0
 30 31  1  0
 14 32  1  0
 32 33  2  0
  9  4  1  0
 33 11  1  0
 31 19  1  0
 29 24  1  0
  6 34  1  0
  7 35  1  0
  8 36  1  0
 12 37  1  0
 13 38  1  0
 18 39  1  0
 19 40  1  0
 20 41  1  0
 20 42  1  0
 21 43  1  0
 21 44  1  0
 23 45  1  0
 23 46  1  0
 25 47  1  0
 26 48  1  0
 27 49  1  0
 28 50  1  0
 29 51  1  0
 30 52  1  0
 30 53  1  0
 31 54  1  0
 31 55  1  0
 32 56  1  0
 33 57  1  0
M  CHG  2   5  -1  10  -1
M  END
>  <UniqueID>  (78) 
71

>  <SMILES>  (78) 
O=C(N=c1[n-]cccc1[O-])c1ccc(S(=O)(=O)NC2CCN(Cc3ccccc3)CC2)cc1

>  <Energy>  (78) 
82.17667075239855

>  <Genealogy>  (78) 
O=C(N=c1[n-]cccc1[O-])c1ccc(S(=O)(=O)NC2CCN(Cc3ccccc3)CC2)cc1 (protonated)
O=C(N=c1[n-]cccc1[O-])c1ccc(S(=O)(=O)NC2CCN(Cc3ccccc3)CC2)cc1 (3D coordinates assigned)
O=C(N=c1[n-]cccc1[O-])c1ccc(S(=O)(=O)NC2CCN(Cc3ccccc3)CC2)cc1 (nonaromatic ring conformer: 82.17667075239855 kcal/mol)

>  <smiles>  (78) 
O=C(N=c1[nH]cccc1O)c1ccc(S(=O)(=O)NC2CCN(Cc3ccccc3)CC2)cc1

>  <score_type>  (78) 
oracle

>  <origin>  (78) 
adg

>  <m_score__min__energy>  (78) 
-15.56

>  <m_primary>  (78) 
energy

$$$$
78:0
     RDKit          3D

 39 40  0  0  0  0  0  0  0  0999 V2000
   55.1850   29.3430   44.8230 O   0  0  0  0  0  0  0  0  0  0  0  0
   56.2730   29.8070   44.3920 C   0  0  0  0  0  0  0  0  0  0  0  0
   57.0110   29.0530   43.3170 C   0  0  0  0  0  0  0  0  0  0  0  0
   58.3540   28.7920   43.7190 O   0  0  0  0  0  0  0  0  0  0  0  0
   58.6950   27.8180   44.6640 C   0  0  0  0  0  0  0  0  0  0  0  0
   59.6670   27.9940   45.4490 O   0  0  0  0  0  0  0  0  0  0  0  0
   57.8630   26.5840   44.7810 C   0  0  0  0  0  0  0  0  0  0  0  0
   56.6770   26.8650   45.5910 N   0  0  0  0  0  0  0  0  0  0  0  0
   55.8180   25.3880   45.9150 S   0  0  0  0  0  0  0  0  0  0  0  0
   54.3500   25.5780   45.6420 O   0  0  0  0  0  0  0  0  0  0  0  0
   55.9850   25.0330   47.3650 O   0  0  0  0  0  0  0  0  0  0  0  0
   56.4690   24.0800   44.9240 C   0  0  0  0  0  0  0  0  0  0  0  0
   55.7970   23.7090   43.7480 C   0  0  0  0  0  0  0  0  0  0  0  0
   56.2810   22.6630   42.9580 C   0  0  0  0  0  0  0  0  0  0  0  0
   57.4370   21.9770   43.3380 C   0  0  0  0  0  0  0  0  0  0  0  0
   58.1100   22.3360   44.5090 C   0  0  0  0  0  0  0  0  0  0  0  0
   57.6290   23.3810   45.3060 C   0  0  0  0  0  0  0  0  0  0  0  0
   58.2890   23.6960   46.4480 F   0  0  0  0  0  0  0  0  0  0  0  0
   56.8000   30.9980   44.9940 N   0  0  0  0  0  0  0  0  0  0  0  0
   57.4910   32.0750   44.2940 C   0  0  0  0  0  0  0  0  0  0  0  0
   58.1450   33.0010   45.2720 C   0  0  0  0  0  0  0  0  0  0  0  0
   58.1860   32.8350   46.6510 C   0  0  0  0  0  0  0  0  0  0  0  0
   58.8450   33.8790   47.3120 C   0  0  0  0  0  0  0  0  0  0  0  0
   59.3090   34.8730   46.4610 C   0  0  0  0  0  0  0  0  0  0  0  0
   58.9040   34.4520   44.8840 S   0  0  0  0  0  0  0  0  0  0  0  0
   56.4982   28.0984   43.1280 H   0  0  0  0  0  0  0  0  0  0  0  0
   57.0269   29.6640   42.4024 H   0  0  0  0  0  0  0  0  0  0  0  0
   57.5518   26.2561   43.7782 H   0  0  0  0  0  0  0  0  0  0  0  0
   58.4535   25.7902   45.2619 H   0  0  0  0  0  0  0  0  0  0  0  0
   56.0340   27.4700   45.0280 H   0  0  0  0  0  0  0  0  0  0  0  0
   54.8846   24.2448   43.4471 H   0  0  0  0  0  0  0  0  0  0  0  0
   55.7515   22.3796   42.0364 H   0  0  0  0  0  0  0  0  0  0  0  0
   57.8177   21.1540   42.7153 H   0  0  0  0  0  0  0  0  0  0  0  0
   59.0210   21.7953   44.8053 H   0  0  0  0  0  0  0  0  0  0  0  0
   58.2587   31.6441   43.6345 H   0  0  0  0  0  0  0  0  0  0  0  0
   56.7578   32.6426   43.7021 H   0  0  0  0  0  0  0  0  0  0  0  0
   57.7456   31.9713   47.1706 H   0  0  0  0  0  0  0  0  0  0  0  0
   58.9821   33.9087   48.4030 H   0  0  0  0  0  0  0  0  0  0  0  0
   59.8494   35.7812   46.7662 H   0  0  0  0  0  0  0  0  0  0  0  0
  1  2  2  0
  2  3  1  0
  3  4  1  0
  4  5  1  0
  5  6  2  0
  5  7  1  0
  7  8  1  0
  8  9  1  0
  9 10  2  0
  9 11  2  0
  9 12  1  0
 12 13  2  0
 13 14  1  0
 14 15  2  0
 15 16  1  0
 16 17  2  0
 17 18  1  0
  2 19  1  0
 19 20  1  0
 20 21  1  0
 21 22  2  0
 22 23  1  0
 23 24  2  0
 24 25  1  0
 17 12  1  0
 25 21  1  0
  3 26  1  0
  3 27  1  0
  7 28  1  0
  7 29  1  0
  8 30  1  0
 13 31  1  0
 14 32  1  0
 15 33  1  0
 16 34  1  0
 20 35  1  0
 20 36  1  0
 22 37  1  0
 23 38  1  0
 24 39  1  0
M  CHG  1  19  -1
M  END
>  <UniqueID>  (79) 
72

>  <SMILES>  (79) 
O=C(COC(=O)CNS(=O)(=O)c1ccccc1F)[N-]Cc1cccs1

>  <Energy>  (79) 
57.24988416400168

>  <Genealogy>  (79) 
O=C(COC(=O)CNS(=O)(=O)c1ccccc1F)[N-]Cc1cccs1 (protonated)
O=C(COC(=O)CNS(=O)(=O)c1ccccc1F)[N-]Cc1cccs1 (3D coordinates assigned)
O=C(COC(=O)CNS(=O)(=O)c1ccccc1F)[N-]Cc1cccs1 (optimized conformer: 57.24988416400168 kcal/mol)

>  <smiles>  (79) 
O=C(COC(=O)CNS(=O)(=O)c1ccccc1F)NCc1cccs1

>  <score_type>  (79) 
oracle

>  <origin>  (79) 
adg

>  <m_score__min__energy>  (79) 
-9.9700000000000006

>  <m_primary>  (79) 
energy

$$$$
79:0
     RDKit          3D

 58 61  0  0  0  0  0  0  0  0999 V2000
   56.8630   29.8290   45.2850 O   0  0  0  0  0  0  0  0  0  0  0  0
   57.9140   29.7460   45.9760 C   0  0  0  0  0  0  0  0  0  0  0  0
   58.5670   28.4120   46.1660 C   0  0  0  0  0  0  0  0  0  0  0  0
   57.6800   27.4880   47.0000 C   0  0  0  0  0  0  0  0  0  0  0  0
   57.3330   26.2970   46.2280 N   0  0  0  0  0  0  0  0  0  0  0  0
   58.1610   25.2820   45.8940 C   0  0  0  0  0  0  0  0  0  0  0  0
   59.5260   25.2610   46.1670 O   0  0  0  0  0  0  0  0  0  0  0  0
   57.4600   24.2830   45.2520 C   0  0  0  0  0  0  0  0  0  0  0  0
   56.1540   24.7130   45.1640 C   0  0  0  0  0  0  0  0  0  0  0  0
   56.1030   25.9370   45.8010 C   0  0  0  0  0  0  0  0  0  0  0  0
   54.9520   26.6950   45.9950 O   0  0  0  0  0  0  0  0  0  0  0  0
   55.0370   23.8890   44.6030 C   0  0  0  0  0  0  0  0  0  0  0  0
   55.6010   22.7740   43.6980 C   0  0  0  0  0  0  0  0  0  0  0  0
   56.7920   22.0480   44.3610 C   0  0  0  0  0  0  0  0  0  0  0  0
   57.9650   23.0080   44.6470 C   0  0  0  0  0  0  0  0  0  0  0  0
   58.4500   30.8960   46.6430 N   0  0  0  0  0  0  0  0  0  0  0  0
   58.4590   32.2450   46.1470 C   0  0  0  0  0  0  0  0  0  0  0  0
   57.7010   32.6120   45.0190 C   0  0  0  0  0  0  0  0  0  0  0  0
   57.7470   33.9190   44.5290 C   0  0  0  0  0  0  0  0  0  0  0  0
   58.5570   34.8700   45.1480 C   0  0  0  0  0  0  0  0  0  0  0  0
   59.3340   34.5150   46.2530 C   0  0  0  0  0  0  0  0  0  0  0  0
   59.3090   33.2000   46.7480 C   0  0  0  0  0  0  0  0  0  0  0  0
   60.1350   32.8460   47.9230 C   0  0  0  0  0  0  0  0  0  0  0  0
   60.6210   31.6880   48.0010 O   0  0  0  0  0  0  0  0  0  0  0  0
   60.4090   33.7810   48.9770 N   0  0  0  0  0  0  0  0  0  0  0  0
   61.6270   34.5740   49.1190 C   0  0  0  0  0  0  0  0  0  0  0  0
   62.8200   33.8110   48.5400 C   0  0  0  0  0  0  0  0  0  0  0  0
   63.8120   33.4860   49.6240 C   0  0  0  0  0  0  0  0  0  0  0  0
   63.7240   34.1190   50.8750 C   0  0  0  0  0  0  0  0  0  0  0  0
   64.6690   33.8460   51.8700 C   0  0  0  0  0  0  0  0  0  0  0  0
   65.7150   32.9550   51.6160 C   0  0  0  0  0  0  0  0  0  0  0  0
   65.8170   32.3310   50.3700 C   0  0  0  0  0  0  0  0  0  0  0  0
   64.8740   32.5990   49.3740 C   0  0  0  0  0  0  0  0  0  0  0  0
   58.7419   27.9526   45.1820 H   0  0  0  0  0  0  0  0  0  0  0  0
   59.5203   28.5580   46.6950 H   0  0  0  0  0  0  0  0  0  0  0  0
   58.2206   27.1876   47.9097 H   0  0  0  0  0  0  0  0  0  0  0  0
   56.7581   28.0224   47.2730 H   0  0  0  0  0  0  0  0  0  0  0  0
   54.4700   23.4348   45.4290 H   0  0  0  0  0  0  0  0  0  0  0  0
   54.3773   24.5365   44.0067 H   0  0  0  0  0  0  0  0  0  0  0  0
   54.8051   22.0421   43.4960 H   0  0  0  0  0  0  0  0  0  0  0  0
   55.9572   23.2364   42.7657 H   0  0  0  0  0  0  0  0  0  0  0  0
   56.4550   21.6058   45.3102 H   0  0  0  0  0  0  0  0  0  0  0  0
   57.1479   21.2730   43.6662 H   0  0  0  0  0  0  0  0  0  0  0  0
   58.6649   22.5271   45.3462 H   0  0  0  0  0  0  0  0  0  0  0  0
   58.4760   23.2395   43.7008 H   0  0  0  0  0  0  0  0  0  0  0  0
   57.0678   31.8638   44.5198 H   0  0  0  0  0  0  0  0  0  0  0  0
   57.1431   34.1986   43.6531 H   0  0  0  0  0  0  0  0  0  0  0  0
   58.5842   35.9011   44.7657 H   0  0  0  0  0  0  0  0  0  0  0  0
   59.9697   35.2697   46.7390 H   0  0  0  0  0  0  0  0  0  0  0  0
   61.5070   35.5253   48.5800 H   0  0  0  0  0  0  0  0  0  0  0  0
   61.8076   34.7695   50.1863 H   0  0  0  0  0  0  0  0  0  0  0  0
   62.4645   32.8762   48.0821 H   0  0  0  0  0  0  0  0  0  0  0  0
   63.3120   34.4398   47.7833 H   0  0  0  0  0  0  0  0  0  0  0  0
   62.9096   34.8315   51.0729 H   0  0  0  0  0  0  0  0  0  0  0  0
   64.5885   34.3331   52.8530 H   0  0  0  0  0  0  0  0  0  0  0  0
   66.4593   32.7445   52.3982 H   0  0  0  0  0  0  0  0  0  0  0  0
   66.6401   31.6284   50.1729 H   0  0  0  0  0  0  0  0  0  0  0  0
   64.9629   32.1141   48.3906 H   0  0  0  0  0  0  0  0  0  0  0  0
  1  2  2  0
  2  3  1  0
  3  4  1  0
  4  5  1  0
  5  6  1  0
  6  7  1  0
  6  8  2  0
  8  9  1  0
  9 10  2  0
 10 11  1  0
  9 12  1  0
 12 13  1  0
 13 14  1  0
 14 15  1  0
  2 16  1  0
 16 17  1  0
 17 18  2  0
 18 19  1  0
 19 20  2  0
 20 21  1  0
 21 22  2  0
 22 23  1  0
 23 24  2  0
 23 25  1  0
 25 26  1  0
 26 27  1  0
 27 28  1  0
 28 29  2  0
 29 30  1  0
 30 31  2  0
 31 32  1  0
 32 33  2  0
 10  5  1  0
 22 17  1  0
 33 28  1  0
 15  8  1  0
  3 34  1  0
  3 35  1  0
  4 36  1  0
  4 37  1  0
 12 38  1  0
 12 39  1  0
 13 40  1  0
 13 41  1  0
 14 42  1  0
 14 43  1  0
 15 44  1  0
 15 45  1  0
 18 46  1  0
 19 47  1  0
 20 48  1  0
 21 49  1  0
 26 50  1  0
 26 51  1  0
 27 52  1  0
 27 53  1  0
 29 54  1  0
 30 55  1  0
 31 56  1  0
 32 57  1  0
 33 58  1  0
M  CHG  4   7  -1  11  -1  16  -1  25  -1
M  END
>  <UniqueID>  (80) 
73

>  <SMILES>  (80) 
O=C(CCn1c([O-])c2c(c1[O-])CCCC2)[N-]c1ccccc1C(=O)[N-]CCc1ccccc1

>  <Energy>  (80) 
93.07989557775157

>  <Genealogy>  (80) 
O=C(CCn1c([O-])c2c(c1[O-])CCCC2)[N-]c1ccccc1C(=O)[N-]CCc1ccccc1 (protonated)
O=C(CCn1c([O-])c2c(c1[O-])CCCC2)[N-]c1ccccc1C(=O)[N-]CCc1ccccc1 (3D coordinates assigned)
O=C(CCn1c([O-])c2c(c1[O-])CCCC2)[N-]c1ccccc1C(=O)[N-]CCc1ccccc1 (nonaromatic ring conformer: 93.07989557775157 kcal/mol)

>  <smiles>  (80) 
O=C(CCn1c(O)c2c(c1O)CCCC2)Nc1ccccc1C(=O)NCCc1ccccc1

>  <score_type>  (80) 
oracle

>  <origin>  (80) 
adg

>  <m_score__min__energy>  (80) 
-15.949999999999999

>  <m_primary>  (80) 
energy

$$$$
80:0
     RDKit          3D

 39 41  0  0  0  0  0  0  0  0999 V2000
   61.0820   30.2260   46.6900 C   0  0  0  0  0  0  0  0  0  0  0  0
   60.7510   29.3430   45.4900 C   0  0  0  0  0  0  0  0  0  0  0  0
   60.0950   28.0210   45.9060 C   0  0  0  0  0  0  0  0  0  0  0  0
   58.6060   28.0320   45.6930 C   0  0  0  0  0  0  0  0  0  0  0  0
   57.8060   26.9860   46.1660 C   0  0  0  0  0  0  0  0  0  0  0  0
   56.4310   27.0380   45.9270 C   0  0  0  0  0  0  0  0  0  0  0  0
   55.6820   26.1110   46.3340 O   0  0  0  0  0  0  0  0  0  0  0  0
   55.9000   28.0890   45.2510 N   0  0  0  0  0  0  0  0  0  0  0  0
   56.6870   29.1050   44.8120 C   0  0  0  0  0  0  0  0  0  0  0  0
   55.9710   30.4600   43.8860 S   0  0  0  0  0  0  0  0  0  0  0  0
   57.5690   31.2320   43.4460 C   0  0  0  0  0  0  0  0  0  0  0  0
   58.0700   32.1680   44.5170 C   0  0  0  0  0  0  0  0  0  0  0  0
   58.4470   33.4700   44.1850 C   0  0  0  0  0  0  0  0  0  0  0  0
   58.9540   34.3050   45.1780 C   0  0  0  0  0  0  0  0  0  0  0  0
   59.2920   35.4810   44.8660 O   0  0  0  0  0  0  0  0  0  0  0  0
   59.0720   33.8540   46.4690 N   0  0  0  0  0  0  0  0  0  0  0  0
   59.5470   34.6820   47.4560 C   0  0  0  0  0  0  0  0  0  0  0  0
   59.6610   34.2330   48.7720 C   0  0  0  0  0  0  0  0  0  0  0  0
   59.2900   32.9300   49.0870 C   0  0  0  0  0  0  0  0  0  0  0  0
   58.8110   32.0860   48.0890 C   0  0  0  0  0  0  0  0  0  0  0  0
   58.7020   32.5600   46.7730 C   0  0  0  0  0  0  0  0  0  0  0  0
   58.2250   31.7330   45.7970 N   0  0  0  0  0  0  0  0  0  0  0  0
   58.0280   29.0720   45.0340 N   0  0  0  0  0  0  0  0  0  0  0  0
   60.8753   29.6746   47.6191 H   0  0  0  0  0  0  0  0  0  0  0  0
   62.1456   30.5047   46.6579 H   0  0  0  0  0  0  0  0  0  0  0  0
   60.4636   31.1352   46.6579 H   0  0  0  0  0  0  0  0  0  0  0  0
   60.0611   29.8880   44.8289 H   0  0  0  0  0  0  0  0  0  0  0  0
   61.6940   29.1046   44.9763 H   0  0  0  0  0  0  0  0  0  0  0  0
   60.5318   27.2062   45.3100 H   0  0  0  0  0  0  0  0  0  0  0  0
   60.2807   27.8761   46.9805 H   0  0  0  0  0  0  0  0  0  0  0  0
   58.2501   26.1418   46.7138 H   0  0  0  0  0  0  0  0  0  0  0  0
   58.3148   30.4379   43.2938 H   0  0  0  0  0  0  0  0  0  0  0  0
   57.4154   31.8219   42.5303 H   0  0  0  0  0  0  0  0  0  0  0  0
   58.3450   33.8325   43.1515 H   0  0  0  0  0  0  0  0  0  0  0  0
   59.8413   35.7120   47.2060 H   0  0  0  0  0  0  0  0  0  0  0  0
   60.0417   34.9050   49.5553 H   0  0  0  0  0  0  0  0  0  0  0  0
   59.3749   32.5674   50.1221 H   0  0  0  0  0  0  0  0  0  0  0  0
   58.5196   31.0532   48.3308 H   0  0  0  0  0  0  0  0  0  0  0  0
   57.9720   30.7470   46.0360 H   0  0  0  0  0  0  0  0  0  0  0  0
  1  2  1  0
  2  3  1  0
  3  4  1  0
  4  5  2  0
  5  6  1  0
  6  7  2  0
  6  8  1  0
  8  9  1  0
  9 10  1  0
 10 11  1  0
 11 12  1  0
 12 13  2  0
 13 14  1  0
 14 15  2  0
 14 16  1  0
 16 17  1  0
 17 18  2  0
 18 19  1  0
 19 20  2  0
 20 21  1  0
 21 22  2  0
  9 23  2  0
 23  4  1  0
 22 12  1  0
 21 16  1  0
  1 24  1  0
  1 25  1  0
  1 26  1  0
  2 27  1  0
  2 28  1  0
  3 29  1  0
  3 30  1  0
  5 31  1  0
 11 32  1  0
 11 33  1  0
 13 34  1  0
 17 35  1  0
 18 36  1  0
 19 37  1  0
 20 38  1  0
 22 39  1  0
M  CHG  2   8  -1  22   1
M  END
>  <UniqueID>  (81) 
74

>  <SMILES>  (81) 
CCCc1cc(=O)[n-]c(SCc2cc(=O)n3ccccc3[nH+]2)n1

>  <Energy>  (81) 
36.077528189706

>  <Genealogy>  (81) 
CCCc1cc(=O)[n-]c(SCc2cc(=O)n3ccccc3[nH+]2)n1 (protonated)
CCCc1cc(=O)[n-]c(SCc2cc(=O)n3ccccc3[nH+]2)n1 (3D coordinates assigned)
CCCc1cc(=O)[n-]c(SCc2cc(=O)n3ccccc3[nH+]2)n1 (optimized conformer: 36.077528189706 kcal/mol)

>  <smiles>  (81) 
CCCc1cc(=O)[nH]c(SCc2cc(=O)n3ccccc3n2)n1

>  <score_type>  (81) 
oracle

>  <origin>  (81) 
adg

>  <m_score__min__energy>  (81) 
-7.9299999999999997

>  <m_primary>  (81) 
energy

$$$$
81:0
     RDKit          3D

 27 29  0  0  0  0  0  0  0  0999 V2000
   55.5030   24.2430   46.8770 O   0  0  0  0  0  0  0  0  0  0  0  0
   55.9070   25.3210   46.3660 C   0  0  0  0  0  0  0  0  0  0  0  0
   55.0930   26.3790   46.1640 N   0  0  0  0  0  0  0  0  0  0  0  0
   55.9210   27.2850   45.6180 C   0  0  0  0  0  0  0  0  0  0  0  0
   55.5290   28.5640   45.2450 O   0  0  0  0  0  0  0  0  0  0  0  0
   57.1850   26.7620   45.4960 C   0  0  0  0  0  0  0  0  0  0  0  0
   58.4050   27.4740   44.9980 C   0  0  0  0  0  0  0  0  0  0  0  0
   58.1690   28.9580   44.9910 C   0  0  0  0  0  0  0  0  0  0  0  0
   57.6630   29.5910   43.8430 C   0  0  0  0  0  0  0  0  0  0  0  0
   57.4040   30.9660   43.8500 C   0  0  0  0  0  0  0  0  0  0  0  0
   57.6510   31.7180   45.0050 C   0  0  0  0  0  0  0  0  0  0  0  0
   58.1500   31.0920   46.1530 C   0  0  0  0  0  0  0  0  0  0  0  0
   58.3970   29.7170   46.1520 C   0  0  0  0  0  0  0  0  0  0  0  0
   58.3730   31.8490   47.3080 O   0  0  0  0  0  0  0  0  0  0  0  0
   58.4270   33.2800   47.2920 C   0  0  0  0  0  0  0  0  0  0  0  0
   57.6430   33.8740   46.1480 C   0  0  0  0  0  0  0  0  0  0  0  0
   57.3430   33.1570   45.0610 C   0  0  0  0  0  0  0  0  0  0  0  0
   57.1890   25.5080   45.9830 N   0  0  0  0  0  0  0  0  0  0  0  0
   59.2552   27.2438   45.6569 H   0  0  0  0  0  0  0  0  0  0  0  0
   58.6246   27.1392   43.9735 H   0  0  0  0  0  0  0  0  0  0  0  0
   57.4695   29.0024   42.9341 H   0  0  0  0  0  0  0  0  0  0  0  0
   57.0066   31.4558   42.9488 H   0  0  0  0  0  0  0  0  0  0  0  0
   58.7712   29.2266   47.0628 H   0  0  0  0  0  0  0  0  0  0  0  0
   58.0133   33.6594   48.2380 H   0  0  0  0  0  0  0  0  0  0  0  0
   59.4794   33.5738   47.1647 H   0  0  0  0  0  0  0  0  0  0  0  0
   57.3109   34.9208   46.2101 H   0  0  0  0  0  0  0  0  0  0  0  0
   56.8620   33.6457   44.2009 H   0  0  0  0  0  0  0  0  0  0  0  0
  1  2  2  0
  2  3  1  0
  3  4  1  0
  4  5  1  0
  4  6  2  0
  6  7  1  0
  7  8  1  0
  8  9  2  0
  9 10  1  0
 10 11  2  0
 11 12  1  0
 12 13  2  0
 12 14  1  0
 14 15  1  0
 15 16  1  0
 16 17  2  0
  6 18  1  0
 18  2  1  0
 13  8  1  0
 17 11  1  0
  7 19  1  0
  7 20  1  0
  9 21  1  0
 10 22  1  0
 13 23  1  0
 15 24  1  0
 15 25  1  0
 16 26  1  0
 17 27  1  0
M  CHG  3   3  -1   5  -1  18  -1
M  END
>  <UniqueID>  (82) 
75

>  <SMILES>  (82) 
O=c1[n-]c([O-])c(Cc2ccc3c(c2)OCC=C3)[n-]1

>  <Energy>  (82) 
59.2104309264112

>  <Genealogy>  (82) 
O=c1[n-]c([O-])c(Cc2ccc3c(c2)OCC=C3)[n-]1 (protonated)
O=c1[n-]c([O-])c(Cc2ccc3c(c2)OCC=C3)[n-]1 (3D coordinates assigned)
O=c1[n-]c([O-])c(Cc2ccc3c(c2)OCC=C3)[n-]1 (nonaromatic ring conformer: 59.2104309264112 kcal/mol)

>  <smiles>  (82) 
O=c1[nH]c(O)c(Cc2ccc3c(c2)OCC=C3)[nH]1

>  <score_type>  (82) 
oracle

>  <origin>  (82) 
adg

>  <m_score__min__energy>  (82) 
-15.59

>  <m_primary>  (82) 
energy

$$$$
82:0
     RDKit          3D

 53 56  0  0  0  0  0  0  0  0999 V2000
   56.8260   26.7070   42.4480 H   0  0  0  0  0  0  0  0  0  0  0  0
   57.7740   26.9410   42.7180 O   0  0  0  0  0  0  0  0  0  0  0  0
   58.0390   27.7690   43.8060 C   0  0  0  0  0  0  0  0  0  0  0  0
   58.8570   27.3300   44.8520 C   0  0  0  0  0  0  0  0  0  0  0  0
   59.2915   26.3199   44.8220 H   0  0  0  0  0  0  0  0  0  0  0  0
   59.1230   28.1700   45.9330 C   0  0  0  0  0  0  0  0  0  0  0  0
   59.7580   27.8138   46.7576 H   0  0  0  0  0  0  0  0  0  0  0  0
   58.5870   29.4660   45.9770 C   0  0  0  0  0  0  0  0  0  0  0  0
   58.9080   30.3170   47.1460 C   0  0  0  0  0  0  0  0  0  0  0  0
   58.1275   31.0056   47.5019 H   0  0  0  0  0  0  0  0  0  0  0  0
   60.0780   30.3130   47.8050 C   0  0  0  0  0  0  0  0  0  0  0  0
   60.3672   29.3890   48.3270 H   0  0  0  0  0  0  0  0  0  0  0  0
   61.0080   31.4660   47.8790 C   0  0  0  0  0  0  0  0  0  0  0  0
   62.1970   31.4490   47.1270 C   0  0  0  0  0  0  0  0  0  0  0  0
   62.4355   30.5753   46.5027 H   0  0  0  0  0  0  0  0  0  0  0  0
   63.0760   32.5320   47.1670 C   0  0  0  0  0  0  0  0  0  0  0  0
   63.9989   32.5128   46.5688 H   0  0  0  0  0  0  0  0  0  0  0  0
   62.7860   33.6380   47.9640 C   0  0  0  0  0  0  0  0  0  0  0  0
   63.4761   34.4943   47.9859 H   0  0  0  0  0  0  0  0  0  0  0  0
   61.6230   33.6620   48.7340 C   0  0  0  0  0  0  0  0  0  0  0  0
   61.4035   34.5373   49.3630 H   0  0  0  0  0  0  0  0  0  0  0  0
   60.7290   32.5770   48.7130 C   0  0  0  0  0  0  0  0  0  0  0  0
   59.2500   32.6500   49.6890 S   0  0  0  0  0  0  0  0  0  0  0  0
   58.0470   32.7400   48.7920 O   0  0  0  0  0  0  0  0  0  0  0  0
   59.2960   33.8720   50.5640 O   0  0  0  0  0  0  0  0  0  0  0  0
   59.0930   31.2580   50.7170 N   0  0  0  0  0  0  0  0  0  0  0  0
   58.0060   30.9380   51.3510 C   0  0  0  0  0  0  0  0  0  0  0  0
   57.7630   29.6470   51.7180 N   0  0  0  0  0  0  0  0  0  0  0  0
   56.6370   29.2900   52.3920 C   0  0  0  0  0  0  0  0  0  0  0  0
   56.4726   28.2389   52.6716 H   0  0  0  0  0  0  0  0  0  0  0  0
   55.6890   30.2600   52.7290 C   0  0  0  0  0  0  0  0  0  0  0  0
   54.2340   29.8130   53.6010 Cl  0  0  0  0  0  0  0  0  0  0  0  0
   55.9140   31.5900   52.3650 C   0  0  0  0  0  0  0  0  0  0  0  0
   55.1766   32.3644   52.6230 H   0  0  0  0  0  0  0  0  0  0  0  0
   57.0770   31.9340   51.6730 C   0  0  0  0  0  0  0  0  0  0  0  0
   57.2615   32.9790   51.3834 H   0  0  0  0  0  0  0  0  0  0  0  0
   57.7280   29.9030   44.9450 C   0  0  0  0  0  0  0  0  0  0  0  0
   57.1350   31.1740   45.0430 O   0  0  0  0  0  0  0  0  0  0  0  0
   57.4360   32.2990   44.2180 C   0  0  0  0  0  0  0  0  0  0  0  0
   58.0732   31.9743   43.3822 H   0  0  0  0  0  0  0  0  0  0  0  0
   56.4946   32.7214   43.8368 H   0  0  0  0  0  0  0  0  0  0  0  0
   58.1530   33.3500   45.0030 C   0  0  0  0  0  0  0  0  0  0  0  0
   59.1360   34.0280   44.5230 N   0  0  0  0  0  0  0  0  0  0  0  0
   59.6450   34.9400   45.5410 C   0  0  0  0  0  0  0  0  0  0  0  0
   60.7050   34.7329   45.7494 H   0  0  0  0  0  0  0  0  0  0  0  0
   59.5847   35.9903   45.2198 H   0  0  0  0  0  0  0  0  0  0  0  0
   58.7880   34.6700   46.7870 C   0  0  0  0  0  0  0  0  0  0  0  0
   59.4105   34.3127   47.6205 H   0  0  0  0  0  0  0  0  0  0  0  0
   58.2780   35.5723   47.1554 H   0  0  0  0  0  0  0  0  0  0  0  0
   57.8630   33.6410   46.3560 N   0  0  0  0  0  0  0  0  0  0  0  0
   57.1190   33.1980   46.9380 H   0  0  0  0  0  0  0  0  0  0  0  0
   57.4760   29.0480   43.8530 C   0  0  0  0  0  0  0  0  0  0  0  0
   56.8307   29.3901   43.0305 H   0  0  0  0  0  0  0  0  0  0  0  0
  1  2  1  0
  2  3  1  0
  3  4  2  0
  4  5  1  0
  4  6  1  0
  6  7  1  0
  6  8  2  0
  8  9  1  0
  9 10  1  0
  9 11  2  0
 11 12  1  0
 11 13  1  0
 13 14  2  0
 14 15  1  0
 14 16  1  0
 16 17  1  0
 16 18  2  0
 18 19  1  0
 18 20  1  0
 20 21  1  0
 20 22  2  0
 22 23  1  0
 23 24  2  0
 23 25  2  0
 23 26  1  0
 26 27  2  0
 27 28  1  0
 28 29  1  0
 29 30  1  0
 29 31  2  0
 31 32  1  0
 31 33  1  0
 33 34  1  0
 33 35  2  0
 35 36  1  0
  8 37  1  0
 37 38  1  0
 38 39  1  0
 39 40  1  0
 39 41  1  0
 39 42  1  0
 42 43  2  0
 43 44  1  0
 44 45  1  0
 44 46  1  0
 44 47  1  0
 47 48  1  0
 47 49  1  0
 47 50  1  0
 50 51  1  0
 37 52  2  0
 52 53  1  0
 52  3  1  0
 22 13  1  0
 35 27  1  0
 50 42  1  0
M  CHG  1  28  -1
M  END
>  <UniqueID>  (83) 
76

>  <SMILES>  (83) 
O=S(=O)(/N=c1/ccc(Cl)c[n-]1)c1ccccc1/C=C\c1ccc(O)cc1OCC1=NCCN1

>  <Energy>  (83) 
81.85955518926004

>  <Genealogy>  (83) 
O=S(=O)(N=c1ccc(Cl)c[n-]1)c1ccccc1C=Cc1ccc(O)cc1OCC1=NCCN1 (protonated)
O=S(=O)(/N=c1/ccc(Cl)c[n-]1)c1ccccc1/C=C\c1ccc(O)cc1OCC1=NCCN1 (cis-trans isomerization)
O=S(=O)(/N=c1/ccc(Cl)c[n-]1)c1ccccc1/C=C\c1ccc(O)cc1OCC1=NCCN1 (3D coordinates assigned)
O=S(=O)(/N=c1/ccc(Cl)c[n-]1)c1ccccc1/C=C\c1ccc(O)cc1OCC1=NCCN1 (nonaromatic ring conformer: 81.85955518926004 kcal/mol)

>  <smiles>  (83) 
O=S(=O)(N=c1ccc(Cl)c[nH]1)c1ccccc1C=Cc1ccc(O)cc1OCC1=NCCN1

>  <score_type>  (83) 
oracle

>  <origin>  (83) 
adg

>  <m_score__min__energy>  (83) 
-10.460000000000001

>  <m_primary>  (83) 
energy

$$$$
83:0
     RDKit          3D

 50 51  0  0  0  0  0  0  0  0999 V2000
   50.0250   32.6170   54.5670 C   0  0  0  0  0  0  0  0  0  0  0  0
   50.7530   31.4300   54.2670 O   0  0  0  0  0  0  0  0  0  0  0  0
   51.7500   31.2970   53.2840 C   0  0  0  0  0  0  0  0  0  0  0  0
   52.8650   30.5120   53.6110 C   0  0  0  0  0  0  0  0  0  0  0  0
   53.9120   30.3160   52.6930 C   0  0  0  0  0  0  0  0  0  0  0  0
   55.0910   29.4840   53.0350 C   0  0  0  0  0  0  0  0  0  0  0  0
   54.9140   28.3640   53.5860 O   0  0  0  0  0  0  0  0  0  0  0  0
   56.4270   29.9230   52.7290 N   0  0  0  0  0  0  0  0  0  0  0  0
   57.6060   29.1280   53.0700 C   0  0  0  0  0  0  0  0  0  0  0  0
   58.8800   29.9650   52.9090 C   0  0  0  0  0  0  0  0  0  0  0  0
   58.8690   30.7400   51.5880 C   0  0  0  0  0  0  0  0  0  0  0  0
   58.2310   29.9070   50.4660 C   0  0  0  0  0  0  0  0  0  0  0  0
   58.9860   30.0410   49.1370 C   0  0  0  0  0  0  0  0  0  0  0  0
   59.3760   31.4610   48.8630 C   0  0  0  0  0  0  0  0  0  0  0  0
   60.5120   31.8750   49.2200 O   0  0  0  0  0  0  0  0  0  0  0  0
   58.4100   32.3560   48.2940 N   0  0  0  0  0  0  0  0  0  0  0  0
   58.5800   33.1980   47.1430 C   0  0  0  0  0  0  0  0  0  0  0  0
   57.8120   33.0140   45.9780 C   0  0  0  0  0  0  0  0  0  0  0  0
   57.9920   33.8510   44.8730 C   0  0  0  0  0  0  0  0  0  0  0  0
   58.9230   34.8890   44.9250 C   0  0  0  0  0  0  0  0  0  0  0  0
   59.6690   35.1010   46.0870 C   0  0  0  0  0  0  0  0  0  0  0  0
   59.5000   34.2660   47.2020 C   0  0  0  0  0  0  0  0  0  0  0  0
   60.2810   34.5040   48.3820 N   0  0  0  0  0  0  0  0  0  0  0  0
   53.8190   30.9050   51.4220 C   0  0  0  0  0  0  0  0  0  0  0  0
   52.7190   31.6940   51.0870 C   0  0  0  0  0  0  0  0  0  0  0  0
   51.6840   31.9000   52.0050 C   0  0  0  0  0  0  0  0  0  0  0  0
   50.6140   32.6990   51.6240 O   0  0  0  0  0  0  0  0  0  0  0  0
   49.9518   32.7364   55.6581 H   0  0  0  0  0  0  0  0  0  0  0  0
   50.5461   33.4852   54.1373 H   0  0  0  0  0  0  0  0  0  0  0  0
   49.0149   32.5461   54.1373 H   0  0  0  0  0  0  0  0  0  0  0  0
   52.9216   30.0411   54.6035 H   0  0  0  0  0  0  0  0  0  0  0  0
   56.5800   30.8210   52.2210 H   0  0  0  0  0  0  0  0  0  0  0  0
   57.5248   28.7885   54.1131 H   0  0  0  0  0  0  0  0  0  0  0  0
   57.6602   28.2622   52.3937 H   0  0  0  0  0  0  0  0  0  0  0  0
   58.9485   30.6786   53.7433 H   0  0  0  0  0  0  0  0  0  0  0  0
   59.7455   29.2861   52.9079 H   0  0  0  0  0  0  0  0  0  0  0  0
   58.2923   31.6674   51.7199 H   0  0  0  0  0  0  0  0  0  0  0  0
   59.9077   30.9686   51.3073 H   0  0  0  0  0  0  0  0  0  0  0  0
   58.2313   28.8491   50.7675 H   0  0  0  0  0  0  0  0  0  0  0  0
   57.2084   30.2812   50.3102 H   0  0  0  0  0  0  0  0  0  0  0  0
   59.8952   29.4233   49.1795 H   0  0  0  0  0  0  0  0  0  0  0  0
   58.3197   29.7059   48.3284 H   0  0  0  0  0  0  0  0  0  0  0  0
   57.0658   32.2069   45.9368 H   0  0  0  0  0  0  0  0  0  0  0  0
   57.3986   33.6910   43.9607 H   0  0  0  0  0  0  0  0  0  0  0  0
   59.0696   35.5405   44.0509 H   0  0  0  0  0  0  0  0  0  0  0  0
   60.3934   35.9277   46.1281 H   0  0  0  0  0  0  0  0  0  0  0  0
   60.2290   33.8500   49.1950 H   0  0  0  0  0  0  0  0  0  0  0  0
   60.9290   35.3190   48.4560 H   0  0  0  0  0  0  0  0  0  0  0  0
   54.6195   30.7430   50.6852 H   0  0  0  0  0  0  0  0  0  0  0  0
   52.6648   32.1587   50.0915 H   0  0  0  0  0  0  0  0  0  0  0  0
  1  2  1  0
  2  3  1  0
  3  4  2  0
  4  5  1  0
  5  6  1  0
  6  7  2  0
  6  8  1  0
  8  9  1  0
  9 10  1  0
 10 11  1  0
 11 12  1  0
 12 13  1  0
 13 14  1  0
 14 15  2  0
 14 16  1  0
 16 17  1  0
 17 18  2  0
 18 19  1  0
 19 20  2  0
 20 21  1  0
 21 22  2  0
 22 23  1  0
  5 24  2  0
 24 25  1  0
 25 26  2  0
 26 27  1  0
 26  3  1  0
 22 17  1  0
  1 28  1  0
  1 29  1  0
  1 30  1  0
  4 31  1  0
  8 32  1  0
  9 33  1  0
  9 34  1  0
 10 35  1  0
 10 36  1  0
 11 37  1  0
 11 38  1  0
 12 39  1  0
 12 40  1  0
 13 41  1  0
 13 42  1  0
 18 43  1  0
 19 44  1  0
 20 45  1  0
 21 46  1  0
 23 47  1  0
 23 48  1  0
 24 49  1  0
 25 50  1  0
M  CHG  2  16  -1  27  -1
M  END
>  <UniqueID>  (84) 
77

>  <SMILES>  (84) 
COc1cc(C(=O)NCCCCCC(=O)[N-]c2ccccc2N)ccc1[O-]

>  <Energy>  (84) 
46.83327143561942

>  <Genealogy>  (84) 
COc1cc(C(=O)NCCCCCC(=O)[N-]c2ccccc2N)ccc1[O-] (protonated)
COc1cc(C(=O)NCCCCCC(=O)[N-]c2ccccc2N)ccc1[O-] (3D coordinates assigned)
COc1cc(C(=O)NCCCCCC(=O)[N-]c2ccccc2N)ccc1[O-] (optimized conformer: 46.83327143561942 kcal/mol)

>  <smiles>  (84) 
COc1cc(C(=O)NCCCCCC(=O)Nc2ccccc2N)ccc1O

>  <score_type>  (84) 
oracle

>  <origin>  (84) 
adg

>  <m_score__min__energy>  (84) 
-10.949999999999999

>  <m_primary>  (84) 
energy

$$$$
84:0
     RDKit          3D

 48 51  0  0  0  0  0  0  0  0999 V2000
   56.1220   23.0560   44.1180 C   0  0  0  0  0  0  0  0  0  0  0  0
   55.6660   24.2150   44.8830 N   0  0  0  0  0  0  0  0  0  0  0  0
   56.3840   25.2680   45.3270 C   0  0  0  0  0  0  0  0  0  0  0  0
   57.8530   25.4740   45.0960 C   0  0  0  0  0  0  0  0  0  0  0  0
   58.1160   26.7830   44.3440 C   0  0  0  0  0  0  0  0  0  0  0  0
   58.0740   27.9230   45.2650 N   0  0  0  0  0  0  0  0  0  0  0  0
   57.3340   29.0620   45.1600 C   0  0  0  0  0  0  0  0  0  0  0  0
   56.2940   29.4810   43.7550 S   0  0  0  0  0  0  0  0  0  0  0  0
   57.3100   30.8960   43.2030 C   0  0  0  0  0  0  0  0  0  0  0  0
   57.3860   31.9830   44.2400 C   0  0  0  0  0  0  0  0  0  0  0  0
   56.4720   32.0820   45.1000 O   0  0  0  0  0  0  0  0  0  0  0  0
   58.5610   32.7910   44.3880 N   0  0  0  0  0  0  0  0  0  0  0  0
   59.0930   33.2530   45.6370 C   0  0  0  0  0  0  0  0  0  0  0  0
   58.8050   34.5420   46.1080 C   0  0  0  0  0  0  0  0  0  0  0  0
   59.3180   34.9750   47.3340 C   0  0  0  0  0  0  0  0  0  0  0  0
   60.1100   34.1190   48.1020 C   0  0  0  0  0  0  0  0  0  0  0  0
   60.6160   34.5480   49.2840 F   0  0  0  0  0  0  0  0  0  0  0  0
   60.3740   32.8210   47.6540 C   0  0  0  0  0  0  0  0  0  0  0  0
   61.1310   31.9860   48.4070 F   0  0  0  0  0  0  0  0  0  0  0  0
   59.8560   32.3840   46.4290 C   0  0  0  0  0  0  0  0  0  0  0  0
   60.1140   31.1230   46.0010 F   0  0  0  0  0  0  0  0  0  0  0  0
   57.5050   29.8960   46.2140 N   0  0  0  0  0  0  0  0  0  0  0  0
   58.3770   29.2530   47.0070 C   0  0  0  0  0  0  0  0  0  0  0  0
   58.8950   29.6690   48.2320 C   0  0  0  0  0  0  0  0  0  0  0  0
   59.8060   28.8140   48.8780 C   0  0  0  0  0  0  0  0  0  0  0  0
   60.1750   27.5830   48.2890 C   0  0  0  0  0  0  0  0  0  0  0  0
   59.6340   27.1930   47.0480 C   0  0  0  0  0  0  0  0  0  0  0  0
   58.7260   28.0610   46.4360 C   0  0  0  0  0  0  0  0  0  0  0  0
   55.6040   26.1480   45.9920 N   0  0  0  0  0  0  0  0  0  0  0  0
   54.3700   25.6590   45.9880 N   0  0  0  0  0  0  0  0  0  0  0  0
   54.4240   24.4950   45.3160 C   0  0  0  0  0  0  0  0  0  0  0  0
   53.4220   23.7600   45.1190 O   0  0  0  0  0  0  0  0  0  0  0  0
   56.4351   22.2602   44.8098 H   0  0  0  0  0  0  0  0  0  0  0  0
   55.3012   22.6890   43.4842 H   0  0  0  0  0  0  0  0  0  0  0  0
   56.9728   23.3466   43.4842 H   0  0  0  0  0  0  0  0  0  0  0  0
   58.3679   25.5083   46.0674 H   0  0  0  0  0  0  0  0  0  0  0  0
   58.2308   24.6396   44.4868 H   0  0  0  0  0  0  0  0  0  0  0  0
   59.1083   26.7358   43.8717 H   0  0  0  0  0  0  0  0  0  0  0  0
   57.3371   26.9157   43.5787 H   0  0  0  0  0  0  0  0  0  0  0  0
   58.3282   30.5386   42.9899 H   0  0  0  0  0  0  0  0  0  0  0  0
   56.8370   31.3200   42.3050 H   0  0  0  0  0  0  0  0  0  0  0  0
   58.1728   35.2151   45.5103 H   0  0  0  0  0  0  0  0  0  0  0  0
   59.0977   35.9908   47.6941 H   0  0  0  0  0  0  0  0  0  0  0  0
   57.0630   30.8300   46.3700 H   0  0  0  0  0  0  0  0  0  0  0  0
   58.6020   30.6311   48.6775 H   0  0  0  0  0  0  0  0  0  0  0  0
   60.2344   29.1052   49.8484 H   0  0  0  0  0  0  0  0  0  0  0  0
   60.8901   26.9245   48.8037 H   0  0  0  0  0  0  0  0  0  0  0  0
   59.9163   26.2395   46.5778 H   0  0  0  0  0  0  0  0  0  0  0  0
  1  2  1  0
  2  3  1  0
  3  4  1  0
  4  5  1  0
  5  6  1  0
  6  7  1  0
  7  8  1  0
  8  9  1  0
  9 10  1  0
 10 11  2  0
 10 12  1  0
 12 13  1  0
 13 14  2  0
 14 15  1  0
 15 16  2  0
 16 17  1  0
 16 18  1  0
 18 19  1  0
 18 20  2  0
 20 21  1  0
  7 22  2  0
 22 23  1  0
 23 24  2  0
 24 25  1  0
 25 26  2  0
 26 27  1  0
 27 28  2  0
  3 29  2  0
 29 30  1  0
 30 31  1  0
 31 32  2  0
 31  2  1  0
 28  6  1  0
 20 13  1  0
 28 23  1  0
  1 33  1  0
  1 34  1  0
  1 35  1  0
  4 36  1  0
  4 37  1  0
  5 38  1  0
  5 39  1  0
  9 40  1  0
  9 41  1  0
 14 42  1  0
 15 43  1  0
 22 44  1  0
 24 45  1  0
 25 46  1  0
 26 47  1  0
 27 48  1  0
M  CHG  3  12  -1  22   1  30  -1
M  END
>  <UniqueID>  (85) 
78

>  <SMILES>  (85) 
Cn1c(CCn2c(SCC(=O)[N-]c3ccc(F)c(F)c3F)[nH+]c3ccccc32)n[n-]c1=O

>  <Energy>  (85) 
121.71798594924729

>  <Genealogy>  (85) 
Cn1c(CCn2c(SCC(=O)[N-]c3ccc(F)c(F)c3F)[nH+]c3ccccc32)n[n-]c1=O (protonated)
Cn1c(CCn2c(SCC(=O)[N-]c3ccc(F)c(F)c3F)[nH+]c3ccccc32)n[n-]c1=O (3D coordinates assigned)
Cn1c(CCn2c(SCC(=O)[N-]c3ccc(F)c(F)c3F)[nH+]c3ccccc32)n[n-]c1=O (optimized conformer: 121.71798594924729 kcal/mol)

>  <smiles>  (85) 
Cn1c(CCn2c(SCC(=O)Nc3ccc(F)c(F)c3F)nc3ccccc32)n[nH]c1=O

>  <score_type>  (85) 
oracle

>  <origin>  (85) 
adg

>  <m_score__min__energy>  (85) 
-10.59

>  <m_primary>  (85) 
energy

$$$$
85:0
     RDKit          3D

 30 31  0  0  0  0  0  0  0  0999 V2000
   57.0710   21.6130   45.6850 C   0  0  0  0  0  0  0  0  0  0  0  0
   57.3670   22.4750   46.7630 O   0  0  0  0  0  0  0  0  0  0  0  0
   57.4270   23.8410   46.5080 C   0  0  0  0  0  0  0  0  0  0  0  0
   58.6580   24.4830   46.3790 C   0  0  0  0  0  0  0  0  0  0  0  0
   58.7330   25.8470   46.1240 C   0  0  0  0  0  0  0  0  0  0  0  0
   57.5780   26.5870   45.9930 C   0  0  0  0  0  0  0  0  0  0  0  0
   57.5940   28.0180   45.7260 C   0  0  0  0  0  0  0  0  0  0  0  0
   57.8200   28.8000   46.6850 O   0  0  0  0  0  0  0  0  0  0  0  0
   57.3430   28.4660   44.3370 C   0  0  0  0  0  0  0  0  0  0  0  0
   56.3910   29.6030   44.2840 C   0  0  0  0  0  0  0  0  0  0  0  0
   55.1520   29.3980   44.4370 O   0  0  0  0  0  0  0  0  0  0  0  0
   56.9510   30.9290   44.0510 C   0  0  0  0  0  0  0  0  0  0  0  0
   57.6480   31.3910   42.9940 N   0  0  0  0  0  0  0  0  0  0  0  0
   57.9710   32.6960   43.2090 C   0  0  0  0  0  0  0  0  0  0  0  0
   57.4490   33.0070   44.4270 N   0  0  0  0  0  0  0  0  0  0  0  0
   56.8350   31.9410   44.9310 N   0  0  0  0  0  0  0  0  0  0  0  0
   56.3410   25.9770   46.1160 C   0  0  0  0  0  0  0  0  0  0  0  0
   55.1520   26.6850   45.9920 O   0  0  0  0  0  0  0  0  0  0  0  0
   56.2840   24.6120   46.3720 C   0  0  0  0  0  0  0  0  0  0  0  0
   56.7369   20.6401   46.0746 H   0  0  0  0  0  0  0  0  0  0  0  0
   56.2733   22.0553   45.0702 H   0  0  0  0  0  0  0  0  0  0  0  0
   57.9722   21.4719   45.0702 H   0  0  0  0  0  0  0  0  0  0  0  0
   59.5853   23.9001   46.4808 H   0  0  0  0  0  0  0  0  0  0  0  0
   59.7137   26.3356   46.0268 H   0  0  0  0  0  0  0  0  0  0  0  0
   58.2965   28.7797   43.8871 H   0  0  0  0  0  0  0  0  0  0  0  0
   56.8998   27.6252   43.7833 H   0  0  0  0  0  0  0  0  0  0  0  0
   58.5358   33.3603   42.5384 H   0  0  0  0  0  0  0  0  0  0  0  0
   57.4960   33.9230   44.9290 H   0  0  0  0  0  0  0  0  0  0  0  0
   55.1480   27.6140   45.6110 H   0  0  0  0  0  0  0  0  0  0  0  0
   55.3006   24.1288   46.4697 H   0  0  0  0  0  0  0  0  0  0  0  0
  1  2  1  0
  2  3  1  0
  3  4  2  0
  4  5  1  0
  5  6  2  0
  6  7  1  0
  7  8  2  0
  7  9  1  0
  9 10  1  0
 10 11  2  0
 10 12  1  0
 12 13  1  0
 13 14  2  0
 14 15  1  0
 15 16  1  0
  6 17  1  0
 17 18  1  0
 17 19  2  0
 19  3  1  0
 16 12  2  0
  1 20  1  0
  1 21  1  0
  1 22  1  0
  4 23  1  0
  5 24  1  0
  9 25  1  0
  9 26  1  0
 14 27  1  0
 15 28  1  0
 18 29  1  0
 19 30  1  0
M  END
>  <smiles>  (86) 
COc1ccc(C(=O)CC(=O)c2nc[nH]n2)c(O)c1

>  <score_type>  (86) 
oracle

>  <origin>  (86) 
adg

>  <m_score__min__energy>  (86) 
-7.6900000000000004

>  <m_primary>  (86) 
energy

$$$$
86:0
     RDKit          3D

 52 55  0  0  0  0  0  0  0  0999 V2000
   61.6667   30.4825   49.5092 H   0  0  0  0  0  0  0  0  0  0  0  0
   62.2410   31.3730   49.2140 C   0  0  0  0  0  0  0  0  0  0  0  0
   61.7030   32.2730   48.3490 N   0  0  0  0  0  0  0  0  0  0  0  0
   62.3970   33.3750   47.9620 C   0  0  0  0  0  0  0  0  0  0  0  0
   61.8430   34.2270   47.1540 N   0  0  0  0  0  0  0  0  0  0  0  0
   60.1630   34.6680   47.2000 S   0  0  0  0  0  0  0  0  0  0  0  0
   59.7120   34.7080   48.6330 O   0  0  0  0  0  0  0  0  0  0  0  0
   59.9920   36.0310   46.5900 O   0  0  0  0  0  0  0  0  0  0  0  0
   59.1940   33.5140   46.2850 C   0  0  0  0  0  0  0  0  0  0  0  0
   58.5160   33.9150   45.1260 C   0  0  0  0  0  0  0  0  0  0  0  0
   58.6473   34.9364   44.7392 H   0  0  0  0  0  0  0  0  0  0  0  0
   57.6730   33.0200   44.4600 C   0  0  0  0  0  0  0  0  0  0  0  0
   57.1595   33.3333   43.5390 H   0  0  0  0  0  0  0  0  0  0  0  0
   57.4800   31.7280   44.9600 C   0  0  0  0  0  0  0  0  0  0  0  0
   56.5720   30.8460   44.2860 N   0  0  0  0  0  0  0  0  0  0  0  0
   56.3270   29.4850   44.6620 C   0  0  0  0  0  0  0  0  0  0  0  0
   55.1420   29.1130   44.8640 O   0  0  0  0  0  0  0  0  0  0  0  0
   57.4220   28.5870   44.9050 N   0  0  0  0  0  0  0  0  0  0  0  0
   58.3480   29.0070   45.1470 H   0  0  0  0  0  0  0  0  0  0  0  0
   57.3000   27.1550   44.9470 C   0  0  0  0  0  0  0  0  0  0  0  0
   57.7780   26.3930   43.8720 C   0  0  0  0  0  0  0  0  0  0  0  0
   58.2589   26.8947   43.0193 H   0  0  0  0  0  0  0  0  0  0  0  0
   57.6490   25.0020   43.8740 C   0  0  0  0  0  0  0  0  0  0  0  0
   58.0405   24.4167   43.0289 H   0  0  0  0  0  0  0  0  0  0  0  0
   57.0230   24.3440   44.9470 C   0  0  0  0  0  0  0  0  0  0  0  0
   56.8840   22.8650   44.9490 C   0  0  0  0  0  0  0  0  0  0  0  0
   56.8590   22.1510   46.1620 C   0  0  0  0  0  0  0  0  0  0  0  0
   56.9447   22.6917   47.1161 H   0  0  0  0  0  0  0  0  0  0  0  0
   56.7260   20.7590   46.1620 C   0  0  0  0  0  0  0  0  0  0  0  0
   56.7048   20.2096   47.1147 H   0  0  0  0  0  0  0  0  0  0  0  0
   56.6200   20.0650   44.9550 C   0  0  0  0  0  0  0  0  0  0  0  0
   56.5168   18.9699   44.9574 H   0  0  0  0  0  0  0  0  0  0  0  0
   56.6450   20.7620   43.7440 C   0  0  0  0  0  0  0  0  0  0  0  0
   56.5622   20.2143   42.7936 H   0  0  0  0  0  0  0  0  0  0  0  0
   56.7750   22.1540   43.7380 C   0  0  0  0  0  0  0  0  0  0  0  0
   56.7923   22.6973   42.7817 H   0  0  0  0  0  0  0  0  0  0  0  0
   56.5240   25.1110   46.0150 C   0  0  0  0  0  0  0  0  0  0  0  0
   56.0266   24.6117   46.8596 H   0  0  0  0  0  0  0  0  0  0  0  0
   56.6550   26.5030   46.0120 C   0  0  0  0  0  0  0  0  0  0  0  0
   56.2506   27.0917   46.8486 H   0  0  0  0  0  0  0  0  0  0  0  0
   58.1990   31.3100   46.0920 C   0  0  0  0  0  0  0  0  0  0  0  0
   58.0888   30.2801   46.4623 H   0  0  0  0  0  0  0  0  0  0  0  0
   59.0540   32.1990   46.7490 C   0  0  0  0  0  0  0  0  0  0  0  0
   59.6184   31.8658   47.6324 H   0  0  0  0  0  0  0  0  0  0  0  0
   63.6530   33.5820   48.4450 N   0  0  0  0  0  0  0  0  0  0  0  0
   64.2260   32.7170   49.3230 C   0  0  0  0  0  0  0  0  0  0  0  0
   65.5950   32.9940   49.8570 C   0  0  0  0  0  0  0  0  0  0  0  0
   65.5677   32.9885   50.9566 H   0  0  0  0  0  0  0  0  0  0  0  0
   66.2903   32.2183   49.5036 H   0  0  0  0  0  0  0  0  0  0  0  0
   65.9341   33.9790   49.5036 H   0  0  0  0  0  0  0  0  0  0  0  0
   63.5210   31.5790   49.7270 C   0  0  0  0  0  0  0  0  0  0  0  0
   63.9660   30.8627   50.4333 H   0  0  0  0  0  0  0  0  0  0  0  0
  1  2  1  0
  2  3  1  0
  3  4  1  0
  4  5  2  0
  5  6  1  0
  6  7  2  0
  6  8  2  0
  6  9  1  0
  9 10  2  0
 10 11  1  0
 10 12  1  0
 12 13  1  0
 12 14  2  0
 14 15  1  0
 15 16  1  0
 16 17  2  0
 16 18  1  0
 18 19  1  0
 18 20  1  0
 20 21  2  0
 21 22  1  0
 21 23  1  0
 23 24  1  0
 23 25  2  0
 25 26  1  0
 26 27  2  0
 27 28  1  0
 27 29  1  0
 29 30  1  0
 29 31  2  0
 31 32  1  0
 31 33  1  0
 33 34  1  0
 33 35  2  0
 35 36  1  0
 25 37  1  0
 37 38  1  0
 37 39  2  0
 39 40  1  0
 14 41  1  0
 41 42  1  0
 41 43  2  0
 43 44  1  0
  4 45  1  0
 45 46  2  0
 46 47  1  0
 47 48  1  0
 47 49  1  0
 47 50  1  0
 46 51  1  0
 51 52  1  0
 51  2  2  0
 43  9  1  0
 39 20  1  0
 35 26  1  0
M  CHG  2   3  -1  15  -1
M  END
>  <UniqueID>  (87) 
79

>  <SMILES>  (87) 
Cc1cc[n-]/c(=N/S(=O)(=O)c2ccc([N-]C(=O)Nc3ccc(-c4ccccc4)cc3)cc2)n1

>  <Energy>  (87) 
70.72335032485361

>  <Genealogy>  (87) 
Cc1cc[n-]c(=NS(=O)(=O)c2ccc([N-]C(=O)Nc3ccc(-c4ccccc4)cc3)cc2)n1 (protonated)
Cc1cc[n-]/c(=N/S(=O)(=O)c2ccc([N-]C(=O)Nc3ccc(-c4ccccc4)cc3)cc2)n1 (cis-trans isomerization)
Cc1cc[n-]/c(=N/S(=O)(=O)c2ccc([N-]C(=O)Nc3ccc(-c4ccccc4)cc3)cc2)n1 (3D coordinates assigned)
Cc1cc[n-]/c(=N/S(=O)(=O)c2ccc([N-]C(=O)Nc3ccc(-c4ccccc4)cc3)cc2)n1 (optimized conformer: 70.72335032485361 kcal/mol)

>  <smiles>  (87) 
Cc1cc[nH]c(=NS(=O)(=O)c2ccc(NC(=O)Nc3ccc(-c4ccccc4)cc3)cc2)n1

>  <score_type>  (87) 
oracle

>  <origin>  (87) 
adg

>  <m_score__min__energy>  (87) 
-12.19

>  <m_primary>  (87) 
energy

$$$$
87:0
     RDKit          3D

 44 46  0  0  0  0  0  0  0  0999 V2000
   61.9710   30.6890   48.4980 N   0  0  0  0  0  0  0  0  0  0  0  0
   61.1460   29.9340   48.7930 C   0  0  0  0  0  0  0  0  0  0  0  0
   60.1150   28.9930   49.1600 C   0  0  0  0  0  0  0  0  0  0  0  0
   58.8760   29.4700   49.3800 C   0  0  0  0  0  0  0  0  0  0  0  0
   58.5400   30.5850   50.2840 C   0  0  0  0  0  0  0  0  0  0  0  0
   59.3150   31.7130   50.4580 C   0  0  0  0  0  0  0  0  0  0  0  0
   58.6010   32.5480   51.2950 C   0  0  0  0  0  0  0  0  0  0  0  0
   57.4130   31.9030   51.5750 C   0  0  0  0  0  0  0  0  0  0  0  0
   57.3740   30.7130   50.9490 N   0  0  0  0  0  0  0  0  0  0  0  0
   60.5210   27.5820   49.3790 C   0  0  0  0  0  0  0  0  0  0  0  0
   61.4610   27.2960   50.1700 O   0  0  0  0  0  0  0  0  0  0  0  0
   59.9080   26.5450   48.6030 N   0  0  0  0  0  0  0  0  0  0  0  0
   59.9100   26.5180   47.1410 C   0  0  0  0  0  0  0  0  0  0  0  0
   58.6680   27.1760   46.5750 C   0  0  0  0  0  0  0  0  0  0  0  0
   58.7460   28.4580   46.0030 C   0  0  0  0  0  0  0  0  0  0  0  0
   57.6350   29.0370   45.3770 C   0  0  0  0  0  0  0  0  0  0  0  0
   57.8220   30.3230   44.6080 C   0  0  0  0  0  0  0  0  0  0  0  0
   58.2050   31.4070   45.5300 N   0  0  0  0  0  0  0  0  0  0  0  0
   59.4160   31.3540   46.1650 C   0  0  0  0  0  0  0  0  0  0  0  0
   59.8350   32.4030   46.9830 C   0  0  0  0  0  0  0  0  0  0  0  0
   58.9960   33.5010   47.1350 C   0  0  0  0  0  0  0  0  0  0  0  0
   59.3440   34.4690   47.8610 O   0  0  0  0  0  0  0  0  0  0  0  0
   57.7990   33.5300   46.4980 N   0  0  0  0  0  0  0  0  0  0  0  0
   57.3980   32.5030   45.7020 C   0  0  0  0  0  0  0  0  0  0  0  0
   56.2810   32.5790   45.1240 O   0  0  0  0  0  0  0  0  0  0  0  0
   56.4000   28.3620   45.4040 C   0  0  0  0  0  0  0  0  0  0  0  0
   55.2760   28.9190   44.8000 O   0  0  0  0  0  0  0  0  0  0  0  0
   56.2900   27.1190   46.0390 C   0  0  0  0  0  0  0  0  0  0  0  0
   55.0490   26.4820   46.0730 O   0  0  0  0  0  0  0  0  0  0  0  0
   57.4220   26.5220   46.6200 C   0  0  0  0  0  0  0  0  0  0  0  0
   57.3070   25.2790   47.2350 O   0  0  0  0  0  0  0  0  0  0  0  0
   58.0464   28.9887   48.8414 H   0  0  0  0  0  0  0  0  0  0  0  0
   60.3041   31.9084   50.0180 H   0  0  0  0  0  0  0  0  0  0  0  0
   58.9171   33.5341   51.6660 H   0  0  0  0  0  0  0  0  0  0  0  0
   56.6145   32.3038   52.2166 H   0  0  0  0  0  0  0  0  0  0  0  0
   56.5710   30.0450   50.9490 H   0  0  0  0  0  0  0  0  0  0  0  0
   60.7979   27.0539   46.7742 H   0  0  0  0  0  0  0  0  0  0  0  0
   59.9255   25.4679   46.8138 H   0  0  0  0  0  0  0  0  0  0  0  0
   59.6938   29.0145   46.0478 H   0  0  0  0  0  0  0  0  0  0  0  0
   58.6134   30.1868   43.8563 H   0  0  0  0  0  0  0  0  0  0  0  0
   56.8778   30.5878   44.1097 H   0  0  0  0  0  0  0  0  0  0  0  0
   60.0648   30.4762   46.0291 H   0  0  0  0  0  0  0  0  0  0  0  0
   60.8071   32.3625   47.4962 H   0  0  0  0  0  0  0  0  0  0  0  0
   54.3550   26.6880   46.7810 H   0  0  0  0  0  0  0  0  0  0  0  0
  1  2  3  0
  2  3  1  0
  3  4  2  3
  4  5  1  0
  5  6  2  0
  6  7  1  0
  7  8  2  0
  8  9  1  0
  3 10  1  0
 10 11  2  0
 10 12  1  0
 12 13  1  0
 13 14  1  0
 14 15  2  0
 15 16  1  0
 16 17  1  0
 17 18  1  0
 18 19  1  0
 19 20  2  0
 20 21  1  0
 21 22  2  0
 21 23  1  0
 23 24  1  0
 24 25  2  0
 16 26  2  0
 26 27  1  0
 26 28  1  0
 28 29  1  0
 28 30  2  0
 30 31  1  0
  9  5  1  0
 30 14  1  0
 24 18  1  0
  4 32  1  0
  6 33  1  0
  7 34  1  0
  8 35  1  0
  9 36  1  0
 13 37  1  0
 13 38  1  0
 15 39  1  0
 17 40  1  0
 17 41  1  0
 19 42  1  0
 20 43  1  0
 29 44  1  0
M  CHG  4  12  -1  23  -1  27  -1  31  -1
M  END
>  <UniqueID>  (88) 
80

>  <SMILES>  (88) 
N#CC(=Cc1ccc[nH]1)C(=O)[N-]Cc1cc(Cn2ccc(=O)[n-]c2=O)c([O-])c(O)c1[O-]

>  <Energy>  (88) 
78.32045329073237

>  <Genealogy>  (88) 
N#CC(=Cc1ccc[nH]1)C(=O)[N-]Cc1cc(Cn2ccc(=O)[n-]c2=O)c([O-])c(O)c1[O-] (protonated)
N#CC(=Cc1ccc[nH]1)C(=O)[N-]Cc1cc(Cn2ccc(=O)[n-]c2=O)c([O-])c(O)c1[O-] (3D coordinates assigned)
N#CC(=Cc1ccc[nH]1)C(=O)[N-]Cc1cc(Cn2ccc(=O)[n-]c2=O)c([O-])c(O)c1[O-] (optimized conformer: 78.32045329073237 kcal/mol)

>  <smiles>  (88) 
N#CC(=Cc1ccc[nH]1)C(=O)NCc1cc(Cn2ccc(=O)[nH]c2=O)c(O)c(O)c1O

>  <score_type>  (88) 
oracle

>  <origin>  (88) 
adg

>  <m_score__min__energy>  (88) 
-15.720000000000001

>  <m_primary>  (88) 
energy

$$$$
88:0
     RDKit          3D

 23 23  0  0  0  0  0  0  0  0999 V2000
   59.4430   22.2630   44.8330 C   0  0  0  0  0  0  0  0  0  0  0  0
   59.1080   23.1330   45.9100 O   0  0  0  0  0  0  0  0  0  0  0  0
   58.0090   24.0090   45.9170 C   0  0  0  0  0  0  0  0  0  0  0  0
   56.6860   23.5380   45.8890 C   0  0  0  0  0  0  0  0  0  0  0  0
   55.6040   24.4280   45.9130 C   0  0  0  0  0  0  0  0  0  0  0  0
   54.2330   23.8680   45.8960 C   0  0  0  0  0  0  0  0  0  0  0  0
   53.8610   23.0540   45.0090 O   0  0  0  0  0  0  0  0  0  0  0  0
   55.8510   25.8160   45.9550 C   0  0  0  0  0  0  0  0  0  0  0  0
   54.7880   26.7150   46.0010 O   0  0  0  0  0  0  0  0  0  0  0  0
   57.1750   26.3040   45.9560 C   0  0  0  0  0  0  0  0  0  0  0  0
   57.4190   27.7960   46.0240 C   0  0  0  0  0  0  0  0  0  0  0  0
   56.3970   28.5040   45.2600 N   0  0  0  0  0  0  0  0  0  0  0  0
   58.2520   25.3900   45.9580 C   0  0  0  0  0  0  0  0  0  0  0  0
   59.9270   25.9450   46.0250 Cl  0  0  0  0  0  0  0  0  0  0  0  0
   59.8110   21.3073   45.2345 H   0  0  0  0  0  0  0  0  0  0  0  0
   58.5502   22.0822   44.2164 H   0  0  0  0  0  0  0  0  0  0  0  0
   60.2265   22.7277   44.2164 H   0  0  0  0  0  0  0  0  0  0  0  0
   56.4967   22.4552   45.8477 H   0  0  0  0  0  0  0  0  0  0  0  0
   53.5210   24.1705   46.6780 H   0  0  0  0  0  0  0  0  0  0  0  0
   57.3818   28.1238   47.0734 H   0  0  0  0  0  0  0  0  0  0  0  0
   58.4082   28.0200   45.5981 H   0  0  0  0  0  0  0  0  0  0  0  0
   55.9960   27.8420   44.5570 H   0  0  0  0  0  0  0  0  0  0  0  0
   55.6180   28.7450   45.9170 H   0  0  0  0  0  0  0  0  0  0  0  0
  1  2  1  0
  2  3  1  0
  3  4  2  0
  4  5  1  0
  5  6  1  0
  6  7  2  0
  5  8  2  0
  8  9  1  0
  8 10  1  0
 10 11  1  0
 11 12  1  0
 10 13  2  0
 13 14  1  0
 13  3  1  0
  1 15  1  0
  1 16  1  0
  1 17  1  0
  4 18  1  0
  6 19  1  0
 11 20  1  0
 11 21  1  0
 12 22  1  0
 12 23  1  0
M  CHG  1   9  -1
M  END
>  <UniqueID>  (89) 
81

>  <SMILES>  (89) 
COc1cc(C=O)c([O-])c(CN)c1Cl

>  <Energy>  (89) 
23.65273827935386

>  <Genealogy>  (89) 
COc1cc(C=O)c([O-])c(CN)c1Cl (protonated)
COc1cc(C=O)c([O-])c(CN)c1Cl (3D coordinates assigned)
COc1cc(C=O)c([O-])c(CN)c1Cl (optimized conformer: 23.65273827935386 kcal/mol)

>  <smiles>  (89) 
COc1cc(C=O)c(O)c(CN)c1Cl

>  <score_type>  (89) 
oracle

>  <origin>  (89) 
adg

>  <m_score__min__energy>  (89) 
-9.1099999999999994

>  <m_primary>  (89) 
energy

$$$$
89:0
     RDKit          3D

 41 43  0  0  0  0  0  0  0  0999 V2000
   54.9450   27.8270   46.0040 H   0  0  0  0  0  0  0  0  0  0  0  0
   55.6610   27.1140   45.9690 O   0  0  0  0  0  0  0  0  0  0  0  0
   56.9930   27.3800   45.6400 C   0  0  0  0  0  0  0  0  0  0  0  0
   57.9630   26.4300   45.9990 C   0  0  0  0  0  0  0  0  0  0  0  0
   57.5480   25.2670   46.6560 O   0  0  0  0  0  0  0  0  0  0  0  0
   56.3490   24.5830   46.2980 C   0  0  0  0  0  0  0  0  0  0  0  0
   55.9578   24.0503   47.1773 H   0  0  0  0  0  0  0  0  0  0  0  0
   55.6089   25.3157   45.9440 H   0  0  0  0  0  0  0  0  0  0  0  0
   56.6260   23.5930   45.1990 C   0  0  0  0  0  0  0  0  0  0  0  0
   55.9420   23.6840   43.9750 C   0  0  0  0  0  0  0  0  0  0  0  0
   55.1641   24.4494   43.8372 H   0  0  0  0  0  0  0  0  0  0  0  0
   56.2470   22.8050   42.9320 C   0  0  0  0  0  0  0  0  0  0  0  0
   55.7041   22.8752   41.9779 H   0  0  0  0  0  0  0  0  0  0  0  0
   57.2410   21.8370   43.1000 C   0  0  0  0  0  0  0  0  0  0  0  0
   57.4772   21.1434   42.2796 H   0  0  0  0  0  0  0  0  0  0  0  0
   57.9350   21.7500   44.3100 C   0  0  0  0  0  0  0  0  0  0  0  0
   58.7193   20.9897   44.4398 H   0  0  0  0  0  0  0  0  0  0  0  0
   57.6340   22.6280   45.3560 C   0  0  0  0  0  0  0  0  0  0  0  0
   58.1881   22.5626   46.3040 H   0  0  0  0  0  0  0  0  0  0  0  0
   59.3290   26.6680   45.7340 C   0  0  0  0  0  0  0  0  0  0  0  0
   60.3280   25.6710   46.0170 N   0  0  0  0  0  0  0  0  0  0  0  0
   61.5000   26.0100   46.2870 O   0  0  0  0  0  0  0  0  0  0  0  0
   60.0430   24.3330   45.8720 O   0  0  0  0  0  0  0  0  0  0  0  0
   59.7080   27.8950   45.1680 C   0  0  0  0  0  0  0  0  0  0  0  0
   60.7734   28.1114   45.0005 H   0  0  0  0  0  0  0  0  0  0  0  0
   58.7480   28.8420   44.8160 C   0  0  0  0  0  0  0  0  0  0  0  0
   59.0646   29.8011   44.3803 H   0  0  0  0  0  0  0  0  0  0  0  0
   57.3820   28.5860   45.0110 C   0  0  0  0  0  0  0  0  0  0  0  0
   56.3990   29.5830   44.5230 C   0  0  0  0  0  0  0  0  0  0  0  0
   55.1810   29.2690   44.4820 O   0  0  0  0  0  0  0  0  0  0  0  0
   56.7900   30.8810   44.0440 N   0  0  0  0  0  0  0  0  0  0  0  0
   57.4210   31.8250   44.6860 C   0  0  0  0  0  0  0  0  0  0  0  0
   57.7140   31.6250   46.0000 N   0  0  0  0  0  0  0  0  0  0  0  0
   58.3700   32.5510   46.7500 C   0  0  0  0  0  0  0  0  0  0  0  0
   58.5804   32.3501   47.8108 H   0  0  0  0  0  0  0  0  0  0  0  0
   58.7760   33.7550   46.1750 C   0  0  0  0  0  0  0  0  0  0  0  0
   59.6230   34.9560   47.1320 Cl  0  0  0  0  0  0  0  0  0  0  0  0
   58.5140   33.9870   44.8240 C   0  0  0  0  0  0  0  0  0  0  0  0
   58.8369   34.9277   44.3541 H   0  0  0  0  0  0  0  0  0  0  0  0
   57.8410   33.0230   44.0690 C   0  0  0  0  0  0  0  0  0  0  0  0
   57.6399   33.1964   43.0015 H   0  0  0  0  0  0  0  0  0  0  0  0
  1  2  1  0
  2  3  1  0
  3  4  2  0
  4  5  1  0
  5  6  1  0
  6  7  1  0
  6  8  1  0
  6  9  1  0
  9 10  2  0
 10 11  1  0
 10 12  1  0
 12 13  1  0
 12 14  2  0
 14 15  1  0
 14 16  1  0
 16 17  1  0
 16 18  2  0
 18 19  1  0
  4 20  1  0
 20 21  1  0
 21 22  2  0
 21 23  1  0
 20 24  2  0
 24 25  1  0
 24 26  1  0
 26 27  1  0
 26 28  2  0
 28 29  1  0
 29 30  2  0
 29 31  1  0
 31 32  2  0
 32 33  1  0
 33 34  1  0
 34 35  1  0
 34 36  2  0
 36 37  1  0
 36 38  1  0
 38 39  1  0
 38 40  2  0
 40 41  1  0
 28  3  1  0
 40 32  1  0
 18  9  1  0
M  CHG  3  21   1  23  -1  33  -1
M  END
>  <UniqueID>  (90) 
82

>  <SMILES>  (90) 
O=C(/N=c1\ccc(Cl)c[n-]1)c1ccc([N+](=O)[O-])c(OCc2ccccc2)c1O

>  <Energy>  (90) 
66.6368803941785

>  <Genealogy>  (90) 
O=C(N=c1ccc(Cl)c[n-]1)c1ccc([N+](=O)[O-])c(OCc2ccccc2)c1O (protonated)
O=C(/N=c1\ccc(Cl)c[n-]1)c1ccc([N+](=O)[O-])c(OCc2ccccc2)c1O (cis-trans isomerization)
O=C(/N=c1\ccc(Cl)c[n-]1)c1ccc([N+](=O)[O-])c(OCc2ccccc2)c1O (3D coordinates assigned)
O=C(/N=c1\ccc(Cl)c[n-]1)c1ccc([N+](=O)[O-])c(OCc2ccccc2)c1O (optimized conformer: 66.6368803941785 kcal/mol)

>  <smiles>  (90) 
O=C(N=c1ccc(Cl)c[nH]1)c1ccc([N+](=O)[O-])c(OCc2ccccc2)c1O

>  <score_type>  (90) 
oracle

>  <origin>  (90) 
adg

>  <m_score__min__energy>  (90) 
-10.720000000000001

>  <m_primary>  (90) 
energy

$$$$
90:0
     RDKit          3D

 35 37  0  0  0  0  0  0  0  0999 V2000
   56.7950   30.1330   43.3270 O   0  0  0  0  0  0  0  0  0  0  0  0
   57.2070   30.8610   44.2700 C   0  0  0  0  0  0  0  0  0  0  0  0
   57.0690   32.2070   44.1700 N   0  0  0  0  0  0  0  0  0  0  0  0
   57.4990   33.0390   45.1480 C   0  0  0  0  0  0  0  0  0  0  0  0
   57.3310   34.4100   44.9920 O   0  0  0  0  0  0  0  0  0  0  0  0
   58.1050   32.5140   46.2990 C   0  0  0  0  0  0  0  0  0  0  0  0
   58.5550   33.4210   47.4230 C   0  0  0  0  0  0  0  0  0  0  0  0
   60.0580   33.4410   47.5180 C   0  0  0  0  0  0  0  0  0  0  0  0
   60.8370   33.7990   46.4050 C   0  0  0  0  0  0  0  0  0  0  0  0
   62.2330   33.7850   46.4860 C   0  0  0  0  0  0  0  0  0  0  0  0
   62.8660   33.4100   47.6790 C   0  0  0  0  0  0  0  0  0  0  0  0
   64.2550   33.3930   47.7700 O   0  0  0  0  0  0  0  0  0  0  0  0
   62.0950   33.0490   48.7880 C   0  0  0  0  0  0  0  0  0  0  0  0
   60.6990   33.0610   48.7090 C   0  0  0  0  0  0  0  0  0  0  0  0
   58.2350   31.1150   46.3940 C   0  0  0  0  0  0  0  0  0  0  0  0
   58.7570   30.6030   47.4250 O   0  0  0  0  0  0  0  0  0  0  0  0
   57.7900   30.3080   45.3790 N   0  0  0  0  0  0  0  0  0  0  0  0
   57.9240   28.8770   45.4820 C   0  0  0  0  0  0  0  0  0  0  0  0
   59.1920   28.3020   45.6570 C   0  0  0  0  0  0  0  0  0  0  0  0
   59.3310   26.9140   45.7530 C   0  0  0  0  0  0  0  0  0  0  0  0
   58.2030   26.0920   45.6760 C   0  0  0  0  0  0  0  0  0  0  0  0
   56.9360   26.6560   45.5040 C   0  0  0  0  0  0  0  0  0  0  0  0
   56.7910   28.0450   45.4100 C   0  0  0  0  0  0  0  0  0  0  0  0
   55.5240   28.5940   45.2520 O   0  0  0  0  0  0  0  0  0  0  0  0
   58.1912   34.4414   47.2320 H   0  0  0  0  0  0  0  0  0  0  0  0
   58.1446   33.0421   48.3706 H   0  0  0  0  0  0  0  0  0  0  0  0
   60.3463   34.0918   45.4650 H   0  0  0  0  0  0  0  0  0  0  0  0
   62.8360   34.0691   45.6110 H   0  0  0  0  0  0  0  0  0  0  0  0
   64.8020   32.6320   47.3850 H   0  0  0  0  0  0  0  0  0  0  0  0
   62.5883   32.7545   49.7260 H   0  0  0  0  0  0  0  0  0  0  0  0
   60.0992   32.7712   49.5844 H   0  0  0  0  0  0  0  0  0  0  0  0
   60.0812   28.9465   45.7190 H   0  0  0  0  0  0  0  0  0  0  0  0
   60.3277   26.4690   45.8891 H   0  0  0  0  0  0  0  0  0  0  0  0
   58.3128   25.0001   45.7509 H   0  0  0  0  0  0  0  0  0  0  0  0
   56.0503   26.0066   45.4423 H   0  0  0  0  0  0  0  0  0  0  0  0
  1  2  2  0
  2  3  1  0
  3  4  1  0
  4  5  1  0
  4  6  2  0
  6  7  1  0
  7  8  1  0
  8  9  2  0
  9 10  1  0
 10 11  2  0
 11 12  1  0
 11 13  1  0
 13 14  2  0
  6 15  1  0
 15 16  2  0
 15 17  1  0
 17 18  1  0
 18 19  2  0
 19 20  1  0
 20 21  2  0
 21 22  1  0
 22 23  2  0
 23 24  1  0
 17  2  1  0
 23 18  1  0
 14  8  1  0
  7 25  1  0
  7 26  1  0
  9 27  1  0
 10 28  1  0
 12 29  1  0
 13 30  1  0
 14 31  1  0
 19 32  1  0
 20 33  1  0
 21 34  1  0
 22 35  1  0
M  CHG  3   3  -1   5  -1  24  -1
M  END
>  <UniqueID>  (91) 
83

>  <SMILES>  (91) 
O=c1[n-]c([O-])c(Cc2ccc(O)cc2)c(=O)n1-c1ccccc1[O-]

>  <Energy>  (91) 
49.57644993231709

>  <Genealogy>  (91) 
O=c1[n-]c([O-])c(Cc2ccc(O)cc2)c(=O)n1-c1ccccc1[O-] (protonated)
O=c1[n-]c([O-])c(Cc2ccc(O)cc2)c(=O)n1-c1ccccc1[O-] (3D coordinates assigned)
O=c1[n-]c([O-])c(Cc2ccc(O)cc2)c(=O)n1-c1ccccc1[O-] (optimized conformer: 49.57644993231709 kcal/mol)

>  <smiles>  (91) 
O=c1[nH]c(O)c(Cc2ccc(O)cc2)c(=O)n1-c1ccccc1O

>  <score_type>  (91) 
oracle

>  <origin>  (91) 
adg

>  <m_score__min__energy>  (91) 
-12.69

>  <m_primary>  (91) 
energy

$$$$
