0:0
     RDKit          3D

 46 48  0  0  0  0  0  0  0  0999 V2000
   57.3100   29.7640   52.1640 C   0  0  0  0  0  0  0  0  0  0  0  0
   57.7700   31.1810   52.2120 C   0  0  0  0  0  0  0  0  0  0  0  0
   58.3230   31.8170   51.1580 N   0  0  0  0  0  0  0  0  0  0  0  0
   58.7320   33.0770   51.4750 C   0  0  0  0  0  0  0  0  0  0  0  0
   59.4260   33.9460   50.4610 C   0  0  0  0  0  0  0  0  0  0  0  0
   60.0130   33.1220   49.3810 N   0  0  0  0  0  0  0  0  0  0  0  0
   61.3470   32.8040   49.3790 C   0  0  0  0  0  0  0  0  0  0  0  0
   62.1070   33.2700   50.2740 O   0  0  0  0  0  0  0  0  0  0  0  0
   61.8650   31.9880   48.4090 N   0  0  0  0  0  0  0  0  0  0  0  0
   63.3020   31.6600   48.4080 C   0  0  0  0  0  0  0  0  0  0  0  0
   61.0550   31.5360   47.4060 C   0  0  0  0  0  0  0  0  0  0  0  0
   61.5310   30.8100   46.4860 O   0  0  0  0  0  0  0  0  0  0  0  0
   59.7300   31.8620   47.3900 N   0  0  0  0  0  0  0  0  0  0  0  0
   58.8730   31.3610   46.3450 C   0  0  0  0  0  0  0  0  0  0  0  0
   58.4690   30.0190   46.3630 C   0  0  0  0  0  0  0  0  0  0  0  0
   57.6470   29.5050   45.3410 C   0  0  0  0  0  0  0  0  0  0  0  0
   57.2300   28.1650   45.3200 O   0  0  0  0  0  0  0  0  0  0  0  0
   57.4300   27.2380   46.3850 C   0  0  0  0  0  0  0  0  0  0  0  0
   56.2440   26.3400   46.4770 C   0  0  0  0  0  0  0  0  0  0  0  0
   55.1360   26.7020   46.0000 O   0  0  0  0  0  0  0  0  0  0  0  0
   56.3420   25.1260   47.1470 O   0  0  0  0  0  0  0  0  0  0  0  0
   57.2310   30.3550   44.3030 C   0  0  0  0  0  0  0  0  0  0  0  0
   56.2060   29.7490   43.0120 Cl  0  0  0  0  0  0  0  0  0  0  0  0
   57.6280   31.6960   44.2880 C   0  0  0  0  0  0  0  0  0  0  0  0
   58.4450   32.2030   45.3020 C   0  0  0  0  0  0  0  0  0  0  0  0
   58.9080   33.9010   45.2570 Cl  0  0  0  0  0  0  0  0  0  0  0  0
   59.2150   32.6650   48.3680 C   0  0  0  0  0  0  0  0  0  0  0  0
   57.9930   32.9890   48.3300 O   0  0  0  0  0  0  0  0  0  0  0  0
   58.5100   33.4380   52.8080 C   0  0  0  0  0  0  0  0  0  0  0  0
   58.9020   34.7170   53.4750 C   0  0  0  0  0  0  0  0  0  0  0  0
   57.8020   32.1310   53.5970 S   0  0  0  0  0  0  0  0  0  0  0  0
   57.1865   29.3837   53.1887 H   0  0  0  0  0  0  0  0  0  0  0  0
   56.3477   29.7086   51.6339 H   0  0  0  0  0  0  0  0  0  0  0  0
   58.0563   29.1540   51.6339 H   0  0  0  0  0  0  0  0  0  0  0  0
   58.6973   34.6458   50.0259 H   0  0  0  0  0  0  0  0  0  0  0  0
   60.2336   34.4993   50.9627 H   0  0  0  0  0  0  0  0  0  0  0  0
   63.6602   31.5782   49.4448 H   0  0  0  0  0  0  0  0  0  0  0  0
   63.4593   30.7029   47.8892 H   0  0  0  0  0  0  0  0  0  0  0  0
   63.8590   32.4541   47.8892 H   0  0  0  0  0  0  0  0  0  0  0  0
   58.7965   29.3617   47.1820 H   0  0  0  0  0  0  0  0  0  0  0  0
   58.3314   26.6391   46.1881 H   0  0  0  0  0  0  0  0  0  0  0  0
   57.5577   27.7826   47.3322 H   0  0  0  0  0  0  0  0  0  0  0  0
   57.2951   32.3556   43.4731 H   0  0  0  0  0  0  0  0  0  0  0  0
   58.8625   34.5883   54.5667 H   0  0  0  0  0  0  0  0  0  0  0  0
   59.9247   34.9888   53.1746 H   0  0  0  0  0  0  0  0  0  0  0  0
   58.2072   35.5152   53.1746 H   0  0  0  0  0  0  0  0  0  0  0  0
  1  2  1  0
  2  3  2  0
  3  4  1  0
  4  5  1  0
  5  6  1  0
  6  7  1  0
  7  8  2  0
  7  9  1  0
  9 10  1  0
  9 11  1  0
 11 12  2  0
 11 13  1  0
 13 14  1  0
 14 15  2  0
 15 16  1  0
 16 17  1  0
 17 18  1  0
 18 19  1  0
 19 20  2  0
 19 21  1  0
 16 22  2  0
 22 23  1  0
 22 24  1  0
 24 25  2  0
 25 26  1  0
 13 27  1  0
 27 28  2  0
  4 29  2  0
 29 30  1  0
 29 31  1  0
 31  2  1  0
 27  6  1  0
 25 14  1  0
  1 32  1  0
  1 33  1  0
  1 34  1  0
  5 35  1  0
  5 36  1  0
 10 37  1  0
 10 38  1  0
 10 39  1  0
 15 40  1  0
 18 41  1  0
 18 42  1  0
 24 43  1  0
 30 44  1  0
 30 45  1  0
 30 46  1  0
M  CHG  1  21  -1
M  END
>  <UniqueID>  (1) 
1

>  <SMILES>  (1) 
Cc1nc(Cn2c(=O)n(C)c(=O)n(-c3cc(OCC(=O)[O-])c(Cl)cc3Cl)c2=O)c(C)s1

>  <Energy>  (1) 
89.80825009248613

>  <Genealogy>  (1) 
Cc1nc(Cn2c(=O)n(C)c(=O)n(-c3cc(OCC(=O)[O-])c(Cl)cc3Cl)c2=O)c(C)s1 (protonated)
Cc1nc(Cn2c(=O)n(C)c(=O)n(-c3cc(OCC(=O)[O-])c(Cl)cc3Cl)c2=O)c(C)s1 (3D coordinates assigned)
Cc1nc(Cn2c(=O)n(C)c(=O)n(-c3cc(OCC(=O)[O-])c(Cl)cc3Cl)c2=O)c(C)s1 (optimized conformer: 89.80825009248613 kcal/mol)

>  <smiles>  (1) 
Cc1nc(Cn2c(=O)n(C)c(=O)n(-c3cc(OCC(=O)O)c(Cl)cc3Cl)c2=O)c(C)s1

>  <score_type>  (1) 
oracle

>  <origin>  (1) 
adg

>  <m_score__min__energy>  (1) 
-11.77

>  <m_primary>  (1) 
energy

$$$$
1:0
     RDKit          3D

 22 22  0  0  0  0  0  0  0  0999 V2000
   57.8459   32.8266   42.6124 H   0  0  0  0  0  0  0  0  0  0  0  0
   57.4490   31.9610   43.1630 C   0  0  0  0  0  0  0  0  0  0  0  0
   57.3980   31.9740   44.5610 C   0  0  0  0  0  0  0  0  0  0  0  0
   57.9670   33.3700   45.4520 Cl  0  0  0  0  0  0  0  0  0  0  0  0
   56.9050   30.9000   45.2330 N   0  0  0  0  0  0  0  0  0  0  0  0
   56.4480   29.7900   44.5840 C   0  0  0  0  0  0  0  0  0  0  0  0
   55.9770   28.7750   45.2460 N   0  0  0  0  0  0  0  0  0  0  0  0
   56.7090   27.5350   45.5050 C   0  0  0  0  0  0  0  0  0  0  0  0
   57.1554   27.1754   44.5662 H   0  0  0  0  0  0  0  0  0  0  0  0
   56.0094   26.7857   45.9038 H   0  0  0  0  0  0  0  0  0  0  0  0
   57.7960   27.7670   46.5110 C   0  0  0  0  0  0  0  0  0  0  0  0
   58.4190   26.7840   46.9950 O   0  0  0  0  0  0  0  0  0  0  0  0
   58.1330   29.1020   46.9060 N   0  0  0  0  0  0  0  0  0  0  0  0
   57.6070   29.9070   46.4960 H   0  0  0  0  0  0  0  0  0  0  0  0
   59.2010   29.3730   47.8600 C   0  0  0  0  0  0  0  0  0  0  0  0
   58.8117   29.2742   48.8841 H   0  0  0  0  0  0  0  0  0  0  0  0
   60.0196   28.6541   47.7080 H   0  0  0  0  0  0  0  0  0  0  0  0
   59.5778   30.3952   47.7080 H   0  0  0  0  0  0  0  0  0  0  0  0
   56.4860   29.7440   43.1860 C   0  0  0  0  0  0  0  0  0  0  0  0
   56.1218   28.8547   42.6508 H   0  0  0  0  0  0  0  0  0  0  0  0
   56.9900   30.8360   42.4750 C   0  0  0  0  0  0  0  0  0  0  0  0
   57.0251   30.8095   41.3759 H   0  0  0  0  0  0  0  0  0  0  0  0
  1  2  1  0
  2  3  2  0
  3  4  1  0
  3  5  1  0
  5  6  1  0
  6  7  2  0
  7  8  1  0
  8  9  1  0
  8 10  1  0
  8 11  1  0
 11 12  2  0
 11 13  1  0
 13 14  1  0
 13 15  1  0
 15 16  1  0
 15 17  1  0
 15 18  1  0
  6 19  1  0
 19 20  1  0
 19 21  2  0
 21 22  1  0
 21  2  1  0
M  CHG  1   5  -1
M  END
>  <UniqueID>  (2) 
2

>  <SMILES>  (2) 
CNC(=O)C/N=c1/cccc(Cl)[n-]1

>  <Energy>  (2) 
15.89564578746219

>  <Genealogy>  (2) 
CNC(=O)CN=c1cccc(Cl)[n-]1 (protonated)
CNC(=O)C/N=c1/cccc(Cl)[n-]1 (cis-trans isomerization)
CNC(=O)C/N=c1/cccc(Cl)[n-]1 (3D coordinates assigned)
CNC(=O)C/N=c1/cccc(Cl)[n-]1 (optimized conformer: 15.89564578746219 kcal/mol)

>  <smiles>  (2) 
CNC(=O)CN=c1cccc(Cl)[nH]1

>  <score_type>  (2) 
oracle

>  <origin>  (2) 
adg

>  <m_score__min__energy>  (2) 
-7.21

>  <m_primary>  (2) 
energy

$$$$
2:0
     RDKit          3D

 48 50  0  0  0  0  0  0  0  0999 V2000
   53.4460   26.3170   45.2700 H   0  0  0  0  0  0  0  0  0  0  0  0
   54.2450   25.9290   45.8190 N   0  0  0  0  0  0  0  0  0  0  0  0
   54.2550   24.2220   45.5560 S   0  0  0  0  0  0  0  0  0  0  0  0
   53.6470   23.5270   46.7420 O   0  0  0  0  0  0  0  0  0  0  0  0
   53.4350   23.8990   44.3370 O   0  0  0  0  0  0  0  0  0  0  0  0
   55.9100   23.6720   45.3220 C   0  0  0  0  0  0  0  0  0  0  0  0
   56.1640   22.4350   44.7120 C   0  0  0  0  0  0  0  0  0  0  0  0
   55.3258   21.8040   44.3815 H   0  0  0  0  0  0  0  0  0  0  0  0
   57.4790   22.0020   44.5230 C   0  0  0  0  0  0  0  0  0  0  0  0
   57.6746   21.0376   44.0314 H   0  0  0  0  0  0  0  0  0  0  0  0
   58.5460   22.7930   44.9580 C   0  0  0  0  0  0  0  0  0  0  0  0
   59.5805   22.4590   44.7900 H   0  0  0  0  0  0  0  0  0  0  0  0
   58.3010   24.0130   45.6090 C   0  0  0  0  0  0  0  0  0  0  0  0
   59.3830   24.8680   46.0160 N   0  0  0  0  0  0  0  0  0  0  0  0
   59.4610   26.1720   45.9600 C   0  0  0  0  0  0  0  0  0  0  0  0
   58.7570   26.7570   44.9640 N   0  0  0  0  0  0  0  0  0  0  0  0
   58.5800   28.0210   44.5130 C   0  0  0  0  0  0  0  0  0  0  0  0
   57.7830   28.1640   43.5480 O   0  0  0  0  0  0  0  0  0  0  0  0
   59.2100   29.1730   45.0130 C   0  0  0  0  0  0  0  0  0  0  0  0
   58.9730   30.4210   44.3340 N   0  0  0  0  0  0  0  0  0  0  0  0
   59.6380   30.7040   43.5790 H   0  0  0  0  0  0  0  0  0  0  0  0
   57.7410   31.1490   44.4560 C   0  0  0  0  0  0  0  0  0  0  0  0
   56.8200   30.7270   45.2070 O   0  0  0  0  0  0  0  0  0  0  0  0
   57.5080   32.3760   43.6240 C   0  0  0  0  0  0  0  0  0  0  0  0
   58.3660   32.5193   42.9507 H   0  0  0  0  0  0  0  0  0  0  0  0
   56.5797   32.2330   43.0514 H   0  0  0  0  0  0  0  0  0  0  0  0
   57.3460   33.6270   44.4980 C   0  0  0  0  0  0  0  0  0  0  0  0
   57.4615   34.5199   43.8661 H   0  0  0  0  0  0  0  0  0  0  0  0
   56.3478   33.5944   44.9590 H   0  0  0  0  0  0  0  0  0  0  0  0
   58.3710   33.6760   45.6040 C   0  0  0  0  0  0  0  0  0  0  0  0
   58.0220   33.3010   46.9130 C   0  0  0  0  0  0  0  0  0  0  0  0
   57.0064   32.9365   47.1267 H   0  0  0  0  0  0  0  0  0  0  0  0
   58.9620   33.3900   47.9440 C   0  0  0  0  0  0  0  0  0  0  0  0
   58.6866   33.0893   48.9656 H   0  0  0  0  0  0  0  0  0  0  0  0
   60.2500   33.8600   47.6790 C   0  0  0  0  0  0  0  0  0  0  0  0
   60.9877   33.9289   48.4921 H   0  0  0  0  0  0  0  0  0  0  0  0
   60.6030   34.2430   46.3820 C   0  0  0  0  0  0  0  0  0  0  0  0
   61.6175   34.6144   46.1751 H   0  0  0  0  0  0  0  0  0  0  0  0
   59.6660   34.1540   45.3470 C   0  0  0  0  0  0  0  0  0  0  0  0
   59.9449   34.4597   44.3278 H   0  0  0  0  0  0  0  0  0  0  0  0
   60.0010   29.2520   46.1570 C   0  0  0  0  0  0  0  0  0  0  0  0
   60.3610   30.2599   46.4109 H   0  0  0  0  0  0  0  0  0  0  0  0
   60.4000   28.2460   47.0210 C   0  0  0  0  0  0  0  0  0  0  0  0
   60.9747   28.5768   47.8987 H   0  0  0  0  0  0  0  0  0  0  0  0
   60.1770   26.8820   46.9350 C   0  0  0  0  0  0  0  0  0  0  0  0
   60.6202   26.2747   47.7379 H   0  0  0  0  0  0  0  0  0  0  0  0
   56.9830   24.4600   45.7630 C   0  0  0  0  0  0  0  0  0  0  0  0
   56.7880   25.4353   46.2328 H   0  0  0  0  0  0  0  0  0  0  0  0
  1  2  1  0
  2  3  1  0
  3  4  2  0
  3  5  2  0
  3  6  1  0
  6  7  2  0
  7  8  1  0
  7  9  1  0
  9 10  1  0
  9 11  2  0
 11 12  1  0
 11 13  1  0
 13 14  1  0
 14 15  2  0
 15 16  1  0
 16 17  1  0
 17 18  2  0
 17 19  1  0
 19 20  1  0
 20 21  1  0
 20 22  1  0
 22 23  2  0
 22 24  1  0
 24 25  1  0
 24 26  1  0
 24 27  1  0
 27 28  1  0
 27 29  1  0
 27 30  1  0
 30 31  2  0
 31 32  1  0
 31 33  1  0
 33 34  1  0
 33 35  2  0
 35 36  1  0
 35 37  1  0
 37 38  1  0
 37 39  2  0
 39 40  1  0
 19 41  2  0
 41 42  1  0
 41 43  1  0
 43 44  1  0
 43 45  2  0
 45 46  1  0
 13 47  2  0
 47 48  1  0
 47  6  1  0
 45 15  1  0
 39 30  1  0
M  CHG  2   2  -1  16  -1
M  END
>  <UniqueID>  (3) 
3

>  <SMILES>  (3) 
[NH-]S(=O)(=O)c1cccc(/N=c2\cccc(NC(=O)CCc3ccccc3)c(=O)[n-]2)c1

>  <Energy>  (3) 
82.38658917958533

>  <Genealogy>  (3) 
[NH-]S(=O)(=O)c1cccc(N=c2cccc(NC(=O)CCc3ccccc3)c(=O)[n-]2)c1 (protonated)
[NH-]S(=O)(=O)c1cccc(/N=c2\cccc(NC(=O)CCc3ccccc3)c(=O)[n-]2)c1 (cis-trans isomerization)
[NH-]S(=O)(=O)c1cccc(/N=c2\cccc(NC(=O)CCc3ccccc3)c(=O)[n-]2)c1 (3D coordinates assigned)
[NH-]S(=O)(=O)c1cccc(/N=c2\cccc(NC(=O)CCc3ccccc3)c(=O)[n-]2)c1 (optimized conformer: 82.38658917958533 kcal/mol)

>  <smiles>  (3) 
NS(=O)(=O)c1cccc(N=c2cccc(NC(=O)CCc3ccccc3)c(=O)[nH]2)c1

>  <score_type>  (3) 
oracle

>  <origin>  (3) 
adg

>  <m_score__min__energy>  (3) 
-13.6

>  <m_primary>  (3) 
energy

$$$$
3:0
     RDKit          3D

 40 42  0  0  0  0  0  0  0  0999 V2000
   53.8310   29.2500   53.7330 O   0  0  0  0  0  0  0  0  0  0  0  0
   54.1640   29.7510   52.6260 C   0  0  0  0  0  0  0  0  0  0  0  0
   55.5350   29.7170   52.2040 N   0  0  0  0  0  0  0  0  0  0  0  0
   56.6090   30.5280   52.7100 C   0  0  0  0  0  0  0  0  0  0  0  0
   56.6460   30.9180   54.0590 C   0  0  0  0  0  0  0  0  0  0  0  0
   57.7230   31.6540   54.5490 C   0  0  0  0  0  0  0  0  0  0  0  0
   58.7710   32.0110   53.7010 C   0  0  0  0  0  0  0  0  0  0  0  0
   58.7600   31.6410   52.3510 C   0  0  0  0  0  0  0  0  0  0  0  0
   59.8800   32.0530   51.5470 N   0  0  0  0  0  0  0  0  0  0  0  0
   60.0190   33.4850   50.5770 S   0  0  0  0  0  0  0  0  0  0  0  0
   59.2150   34.5890   51.2060 O   0  0  0  0  0  0  0  0  0  0  0  0
   61.4620   33.9070   50.5370 O   0  0  0  0  0  0  0  0  0  0  0  0
   59.4760   33.1650   48.9320 C   0  0  0  0  0  0  0  0  0  0  0  0
   58.9430   31.9140   48.5890 C   0  0  0  0  0  0  0  0  0  0  0  0
   58.5330   31.6630   47.2750 C   0  0  0  0  0  0  0  0  0  0  0  0
   58.6400   32.6600   46.2970 C   0  0  0  0  0  0  0  0  0  0  0  0
   58.1160   32.3060   44.6570 Cl  0  0  0  0  0  0  0  0  0  0  0  0
   59.1600   33.9220   46.6410 C   0  0  0  0  0  0  0  0  0  0  0  0
   59.3030   35.2080   45.4470 Cl  0  0  0  0  0  0  0  0  0  0  0  0
   59.5780   34.1680   47.9550 C   0  0  0  0  0  0  0  0  0  0  0  0
   57.6810   30.8670   51.8560 C   0  0  0  0  0  0  0  0  0  0  0  0
   57.6820   30.4220   50.5330 O   0  0  0  0  0  0  0  0  0  0  0  0
   53.1450   30.4180   51.7790 C   0  0  0  0  0  0  0  0  0  0  0  0
   52.7600   29.8580   50.5470 C   0  0  0  0  0  0  0  0  0  0  0  0
   51.7950   30.4870   49.7510 C   0  0  0  0  0  0  0  0  0  0  0  0
   51.4270   29.9190   48.5360 O   0  0  0  0  0  0  0  0  0  0  0  0
   51.2060   31.6840   50.1760 C   0  0  0  0  0  0  0  0  0  0  0  0
   50.2500   32.3100   49.3820 O   0  0  0  0  0  0  0  0  0  0  0  0
   51.5860   32.2530   51.3970 C   0  0  0  0  0  0  0  0  0  0  0  0
   51.0180   33.4520   51.8170 O   0  0  0  0  0  0  0  0  0  0  0  0
   52.5480   31.6230   52.1950 C   0  0  0  0  0  0  0  0  0  0  0  0
   55.8209   30.6411   54.7317 H   0  0  0  0  0  0  0  0  0  0  0  0
   57.7466   31.9541   55.6070 H   0  0  0  0  0  0  0  0  0  0  0  0
   59.6172   32.5908   54.0981 H   0  0  0  0  0  0  0  0  0  0  0  0
   58.8472   31.1292   49.3538 H   0  0  0  0  0  0  0  0  0  0  0  0
   58.1243   30.6771   47.0085 H   0  0  0  0  0  0  0  0  0  0  0  0
   59.9885   35.1527   48.2230 H   0  0  0  0  0  0  0  0  0  0  0  0
   57.0060   29.7570   50.1750 H   0  0  0  0  0  0  0  0  0  0  0  0
   53.2206   28.9189   50.2066 H   0  0  0  0  0  0  0  0  0  0  0  0
   52.8399   32.0733   53.1552 H   0  0  0  0  0  0  0  0  0  0  0  0
  1  2  2  0
  2  3  1  0
  3  4  1  0
  4  5  2  0
  5  6  1  0
  6  7  2  0
  7  8  1  0
  8  9  1  0
  9 10  1  0
 10 11  2  0
 10 12  2  0
 10 13  1  0
 13 14  2  0
 14 15  1  0
 15 16  2  0
 16 17  1  0
 16 18  1  0
 18 19  1  0
 18 20  2  0
  8 21  2  0
 21 22  1  0
  2 23  1  0
 23 24  2  0
 24 25  1  0
 25 26  1  0
 25 27  2  0
 27 28  1  0
 27 29  1  0
 29 30  1  0
 29 31  2  0
 21  4  1  0
 31 23  1  0
 20 13  1  0
  5 32  1  0
  6 33  1  0
  7 34  1  0
 14 35  1  0
 15 36  1  0
 20 37  1  0
 22 38  1  0
 24 39  1  0
 31 40  1  0
M  CHG  5   3  -1   9  -1  26  -1  28  -1  30  -1
M  END
>  <UniqueID>  (4) 
4

>  <SMILES>  (4) 
O=C([N-]c1cccc([N-]S(=O)(=O)c2ccc(Cl)c(Cl)c2)c1O)c1cc([O-])c([O-])c([O-])c1

>  <Energy>  (4) 
56.572778645525474

>  <Genealogy>  (4) 
O=C([N-]c1cccc([N-]S(=O)(=O)c2ccc(Cl)c(Cl)c2)c1O)c1cc([O-])c([O-])c([O-])c1 (protonated)
O=C([N-]c1cccc([N-]S(=O)(=O)c2ccc(Cl)c(Cl)c2)c1O)c1cc([O-])c([O-])c([O-])c1 (3D coordinates assigned)
O=C([N-]c1cccc([N-]S(=O)(=O)c2ccc(Cl)c(Cl)c2)c1O)c1cc([O-])c([O-])c([O-])c1 (optimized conformer: 56.572778645525474 kcal/mol)

>  <smiles>  (4) 
O=C(Nc1cccc(NS(=O)(=O)c2ccc(Cl)c(Cl)c2)c1O)c1cc(O)c(O)c(O)c1

>  <score_type>  (4) 
oracle

>  <origin>  (4) 
adg

>  <m_score__min__energy>  (4) 
-21.690000000000001

>  <m_primary>  (4) 
energy

$$$$
4:0
     RDKit          3D

 46 48  0  0  0  0  0  0  0  0999 V2000
   55.7560   20.0480   45.1970 C   0  0  0  0  0  0  0  0  0  0  0  0
   56.4460   20.3430   43.8700 C   0  0  0  0  0  0  0  0  0  0  0  0
   56.0400   21.6130   43.3610 O   0  0  0  0  0  0  0  0  0  0  0  0
   56.6480   22.8210   43.7200 C   0  0  0  0  0  0  0  0  0  0  0  0
   57.4760   22.8670   44.8390 C   0  0  0  0  0  0  0  0  0  0  0  0
   58.0640   24.0760   45.2000 C   0  0  0  0  0  0  0  0  0  0  0  0
   57.8120   25.2220   44.4350 C   0  0  0  0  0  0  0  0  0  0  0  0
   58.4120   26.5260   44.8080 C   0  0  0  0  0  0  0  0  0  0  0  0
   59.5530   26.5760   45.6240 C   0  0  0  0  0  0  0  0  0  0  0  0
   60.1270   27.8020   45.9610 C   0  0  0  0  0  0  0  0  0  0  0  0
   59.5720   28.9910   45.4850 C   0  0  0  0  0  0  0  0  0  0  0  0
   58.4270   28.9660   44.6660 C   0  0  0  0  0  0  0  0  0  0  0  0
   57.8820   30.1660   44.0810 N   0  0  0  0  0  0  0  0  0  0  0  0
   56.6430   30.7550   44.4940 C   0  0  0  0  0  0  0  0  0  0  0  0
   55.5730   30.0950   44.4060 O   0  0  0  0  0  0  0  0  0  0  0  0
   56.6030   32.0930   44.9970 N   0  0  0  0  0  0  0  0  0  0  0  0
   57.8270   33.2730   44.6510 S   0  0  0  0  0  0  0  0  0  0  0  0
   58.5030   32.9100   43.3580 O   0  0  0  0  0  0  0  0  0  0  0  0
   57.1880   34.6250   44.5080 O   0  0  0  0  0  0  0  0  0  0  0  0
   58.9980   33.3350   45.9670 C   0  0  0  0  0  0  0  0  0  0  0  0
   59.1980   34.5350   46.6650 C   0  0  0  0  0  0  0  0  0  0  0  0
   60.0670   34.5740   47.7610 C   0  0  0  0  0  0  0  0  0  0  0  0
   60.7480   33.4190   48.1570 C   0  0  0  0  0  0  0  0  0  0  0  0
   60.5630   32.2250   47.4570 C   0  0  0  0  0  0  0  0  0  0  0  0
   59.6900   32.1810   46.3650 C   0  0  0  0  0  0  0  0  0  0  0  0
   57.8500   27.7260   44.3410 C   0  0  0  0  0  0  0  0  0  0  0  0
   57.0080   25.1170   43.3360 N   0  0  0  0  0  0  0  0  0  0  0  0
   56.4430   23.9560   42.9970 N   0  0  0  0  0  0  0  0  0  0  0  0
   56.4201   20.3319   46.0267 H   0  0  0  0  0  0  0  0  0  0  0  0
   54.8219   20.6254   45.2609 H   0  0  0  0  0  0  0  0  0  0  0  0
   55.5281   18.9738   45.2609 H   0  0  0  0  0  0  0  0  0  0  0  0
   57.5354   20.3468   44.0226 H   0  0  0  0  0  0  0  0  0  0  0  0
   56.1646   19.5653   43.1448 H   0  0  0  0  0  0  0  0  0  0  0  0
   57.6631   21.9587   45.4305 H   0  0  0  0  0  0  0  0  0  0  0  0
   58.7219   24.1310   46.0798 H   0  0  0  0  0  0  0  0  0  0  0  0
   59.9973   25.6427   46.0001 H   0  0  0  0  0  0  0  0  0  0  0  0
   61.0193   27.8318   46.6035 H   0  0  0  0  0  0  0  0  0  0  0  0
   60.0322   29.9539   45.7515 H   0  0  0  0  0  0  0  0  0  0  0  0
   58.5020   30.7430   43.4690 H   0  0  0  0  0  0  0  0  0  0  0  0
   58.6705   35.4475   46.3501 H   0  0  0  0  0  0  0  0  0  0  0  0
   60.2145   35.5147   48.3118 H   0  0  0  0  0  0  0  0  0  0  0  0
   61.4295   33.4508   49.0199 H   0  0  0  0  0  0  0  0  0  0  0  0
   61.1043   31.3182   47.7646 H   0  0  0  0  0  0  0  0  0  0  0  0
   59.5454   31.2386   45.8164 H   0  0  0  0  0  0  0  0  0  0  0  0
   56.9473   27.6948   43.7132 H   0  0  0  0  0  0  0  0  0  0  0  0
   56.8020   25.9580   42.7510 H   0  0  0  0  0  0  0  0  0  0  0  0
  1  2  1  0
  2  3  1  0
  3  4  1  0
  4  5  2  0
  5  6  1  0
  6  7  2  0
  7  8  1  0
  8  9  2  0
  9 10  1  0
 10 11  2  0
 11 12  1  0
 12 13  1  0
 13 14  1  0
 14 15  2  0
 14 16  1  0
 16 17  1  0
 17 18  2  0
 17 19  2  0
 17 20  1  0
 20 21  2  0
 21 22  1  0
 22 23  2  0
 23 24  1  0
 24 25  2  0
 12 26  2  0
  7 27  1  0
 27 28  2  0
 28  4  1  0
 26  8  1  0
 25 20  1  0
  1 29  1  0
  1 30  1  0
  1 31  1  0
  2 32  1  0
  2 33  1  0
  5 34  1  0
  6 35  1  0
  9 36  1  0
 10 37  1  0
 11 38  1  0
 13 39  1  0
 21 40  1  0
 22 41  1  0
 23 42  1  0
 24 43  1  0
 25 44  1  0
 26 45  1  0
 27 46  1  0
M  CHG  2  16  -1  27   1
M  END
>  <UniqueID>  (5) 
5

>  <SMILES>  (5) 
CCOc1ccc(-c2cccc(NC(=O)[N-]S(=O)(=O)c3ccccc3)c2)[nH+]n1

>  <Energy>  (5) 
53.66938632510111

>  <Genealogy>  (5) 
CCOc1ccc(-c2cccc(NC(=O)[N-]S(=O)(=O)c3ccccc3)c2)[nH+]n1 (protonated)
CCOc1ccc(-c2cccc(NC(=O)[N-]S(=O)(=O)c3ccccc3)c2)[nH+]n1 (3D coordinates assigned)
CCOc1ccc(-c2cccc(NC(=O)[N-]S(=O)(=O)c3ccccc3)c2)[nH+]n1 (optimized conformer: 53.66938632510111 kcal/mol)

>  <smiles>  (5) 
CCOc1ccc(-c2cccc(NC(=O)NS(=O)(=O)c3ccccc3)c2)nn1

>  <score_type>  (5) 
oracle

>  <origin>  (5) 
adg

>  <m_score__min__energy>  (5) 
-9.6600000000000001

>  <m_primary>  (5) 
energy

$$$$
5:0
     RDKit          3D

 48 50  0  0  0  0  0  0  0  0999 V2000
   57.2840   20.6390   47.8260 O   0  0  0  0  0  0  0  0  0  0  0  0
   56.7250   21.7240   47.5120 C   0  0  0  0  0  0  0  0  0  0  0  0
   55.4560   21.7030   46.7220 C   0  0  0  0  0  0  0  0  0  0  0  0
   55.7330   22.1010   45.2950 C   0  0  0  0  0  0  0  0  0  0  0  0
   56.8770   21.6090   44.6450 C   0  0  0  0  0  0  0  0  0  0  0  0
   57.1680   21.9970   43.3340 C   0  0  0  0  0  0  0  0  0  0  0  0
   56.3250   22.8880   42.6650 C   0  0  0  0  0  0  0  0  0  0  0  0
   55.1930   23.3950   43.3060 C   0  0  0  0  0  0  0  0  0  0  0  0
   54.8930   23.0120   44.6210 C   0  0  0  0  0  0  0  0  0  0  0  0
   53.7680   23.5340   45.2600 O   0  0  0  0  0  0  0  0  0  0  0  0
   57.2930   22.9820   47.8970 N   0  0  0  0  0  0  0  0  0  0  0  0
   57.4690   24.1280   47.0530 C   0  0  0  0  0  0  0  0  0  0  0  0
   58.4500   24.1690   46.0460 C   0  0  0  0  0  0  0  0  0  0  0  0
   58.6060   25.3160   45.2620 C   0  0  0  0  0  0  0  0  0  0  0  0
   57.7930   26.4360   45.4770 C   0  0  0  0  0  0  0  0  0  0  0  0
   57.9950   27.8780   44.4880 S   0  0  0  0  0  0  0  0  0  0  0  0
   57.8790   27.4970   43.0390 O   0  0  0  0  0  0  0  0  0  0  0  0
   59.3460   28.4920   44.7280 O   0  0  0  0  0  0  0  0  0  0  0  0
   56.7710   29.0410   44.8830 N   0  0  0  0  0  0  0  0  0  0  0  0
   55.5220   28.6040   45.1650 O   0  0  0  0  0  0  0  0  0  0  0  0
   57.0650   30.4440   44.9090 C   0  0  0  0  0  0  0  0  0  0  0  0
   56.2060   31.2710   44.4970 O   0  0  0  0  0  0  0  0  0  0  0  0
   58.3490   30.9060   45.3610 N   0  0  0  0  0  0  0  0  0  0  0  0
   58.6520   32.2810   45.6520 C   0  0  0  0  0  0  0  0  0  0  0  0
   59.1820   32.6690   46.8980 C   0  0  0  0  0  0  0  0  0  0  0  0
   59.4910   34.0110   47.1450 C   0  0  0  0  0  0  0  0  0  0  0  0
   59.2900   34.9710   46.1520 C   0  0  0  0  0  0  0  0  0  0  0  0
   58.7860   34.5910   44.9050 C   0  0  0  0  0  0  0  0  0  0  0  0
   58.4760   33.2510   44.6540 C   0  0  0  0  0  0  0  0  0  0  0  0
   56.8360   26.4080   46.5000 C   0  0  0  0  0  0  0  0  0  0  0  0
   56.6810   25.2620   47.2870 C   0  0  0  0  0  0  0  0  0  0  0  0
   55.0309   20.6886   46.7417 H   0  0  0  0  0  0  0  0  0  0  0  0
   54.7426   22.4140   47.1641 H   0  0  0  0  0  0  0  0  0  0  0  0
   57.5481   20.9140   45.1710 H   0  0  0  0  0  0  0  0  0  0  0  0
   58.0611   21.6006   42.8288 H   0  0  0  0  0  0  0  0  0  0  0  0
   56.5534   23.1903   41.6323 H   0  0  0  0  0  0  0  0  0  0  0  0
   54.5333   24.0984   42.7768 H   0  0  0  0  0  0  0  0  0  0  0  0
   53.6950   23.5590   46.2700 H   0  0  0  0  0  0  0  0  0  0  0  0
   59.0966   23.2958   45.8747 H   0  0  0  0  0  0  0  0  0  0  0  0
   59.3713   25.3389   44.4722 H   0  0  0  0  0  0  0  0  0  0  0  0
   59.1340   30.2170   45.3900 H   0  0  0  0  0  0  0  0  0  0  0  0
   59.3536   31.9142   47.6796 H   0  0  0  0  0  0  0  0  0  0  0  0
   59.8933   34.3102   48.1241 H   0  0  0  0  0  0  0  0  0  0  0  0
   59.5282   36.0263   46.3508 H   0  0  0  0  0  0  0  0  0  0  0  0
   58.6331   35.3468   44.1205 H   0  0  0  0  0  0  0  0  0  0  0  0
   58.0913   32.9552   43.6668 H   0  0  0  0  0  0  0  0  0  0  0  0
   56.2048   27.2897   46.6848 H   0  0  0  0  0  0  0  0  0  0  0  0
   55.9350   25.2514   48.0953 H   0  0  0  0  0  0  0  0  0  0  0  0
  1  2  2  0
  2  3  1  0
  3  4  1  0
  4  5  2  0
  5  6  1  0
  6  7  2  0
  7  8  1  0
  8  9  2  0
  9 10  1  0
  2 11  1  0
 11 12  1  0
 12 13  2  0
 13 14  1  0
 14 15  2  0
 15 16  1  0
 16 17  2  0
 16 18  2  0
 16 19  1  0
 19 20  1  0
 19 21  1  0
 21 22  2  0
 21 23  1  0
 23 24  1  0
 24 25  2  0
 25 26  1  0
 26 27  2  0
 27 28  1  0
 28 29  2  0
 15 30  1  0
 30 31  2  0
  9  4  1  0
 31 12  1  0
 29 24  1  0
  3 32  1  0
  3 33  1  0
  5 34  1  0
  6 35  1  0
  7 36  1  0
  8 37  1  0
 10 38  1  0
 13 39  1  0
 14 40  1  0
 23 41  1  0
 25 42  1  0
 26 43  1  0
 27 44  1  0
 28 45  1  0
 29 46  1  0
 30 47  1  0
 31 48  1  0
M  CHG  2  11  -1  20  -1
M  END
>  <UniqueID>  (6) 
6

>  <SMILES>  (6) 
O=C(Cc1ccccc1O)[N-]c1ccc(S(=O)(=O)N([O-])C(=O)Nc2ccccc2)cc1

>  <Energy>  (6) 
57.21458086782311

>  <Genealogy>  (6) 
O=C(Cc1ccccc1O)[N-]c1ccc(S(=O)(=O)N([O-])C(=O)Nc2ccccc2)cc1 (protonated)
O=C(Cc1ccccc1O)[N-]c1ccc(S(=O)(=O)N([O-])C(=O)Nc2ccccc2)cc1 (3D coordinates assigned)
O=C(Cc1ccccc1O)[N-]c1ccc(S(=O)(=O)N([O-])C(=O)Nc2ccccc2)cc1 (optimized conformer: 57.21458086782311 kcal/mol)

>  <smiles>  (6) 
O=C(Cc1ccccc1O)Nc1ccc(S(=O)(=O)N(O)C(=O)Nc2ccccc2)cc1

>  <score_type>  (6) 
oracle

>  <origin>  (6) 
adg

>  <m_score__min__energy>  (6) 
-12.859999999999999

>  <m_primary>  (6) 
energy

$$$$
6:0
     RDKit          3D

 55 58  0  0  1  0  0  0  0  0999 V2000
   60.8270   30.8470   49.7210 C   0  0  0  0  0  0  0  0  0  0  0  0
   59.9770   29.9810   48.8500 C   0  0  0  0  0  0  0  0  0  0  0  0
   60.0490   28.5980   48.7080 C   0  0  0  0  0  0  0  0  0  0  0  0
   59.0800   28.1820   47.8010 C   0  0  0  0  0  0  0  0  0  0  0  0
   58.8620   26.9460   47.4270 N   0  0  0  0  0  0  0  0  0  0  0  0
   58.3670   26.6690   46.1130 C   0  0  0  0  0  0  0  0  0  0  0  0
   57.9720   25.3530   45.8510 C   0  0  0  0  0  0  0  0  0  0  0  0
   57.5010   25.1160   44.5800 C   0  0  0  0  0  0  0  0  0  0  0  0
   57.0800   23.8000   44.2370 N   0  0  0  0  0  0  0  0  0  0  0  0
   57.9630   22.6590   44.3640 C   0  0  0  0  0  0  0  0  0  0  0  0
   57.0390   21.4360   44.2960 C   0  0  0  0  0  0  0  0  0  0  0  0
   56.5450   21.3780   42.9960 O   0  0  0  0  0  0  0  0  0  0  0  0
   55.8900   22.5410   42.6210 C   0  0  0  0  0  0  0  0  0  0  0  0
   55.7390   23.5380   43.7430 C   0  0  0  0  0  0  0  0  0  0  0  0
   57.4220   26.0830   43.6500 N   0  0  0  0  0  0  0  0  0  0  0  0
   57.8130   27.3610   43.9300 C   0  0  0  0  0  0  0  0  0  0  0  0
   57.7110   28.2380   42.9930 N   0  0  0  0  0  0  0  0  0  0  0  0
   56.7310   29.2770   43.1230 C   0  0  0  0  0  0  0  0  0  0  0  0
   57.1550   30.3400   44.1010 C   0  0  0  0  0  0  0  0  0  0  0  0
   57.5980   31.6220   43.7870 C   0  0  0  0  0  0  0  0  0  0  0  0
   57.8880   32.2790   44.9740 C   0  0  0  0  0  0  0  0  0  0  0  0
   58.3840   33.6540   45.1070 C   0  0  0  0  0  0  0  0  0  0  0  0
   57.1800   34.5790   44.8970 C   0  0  0  0  0  0  0  0  0  0  0  0
   59.0570   33.9490   46.4270 C   0  0  0  0  0  0  0  0  0  0  0  0
   57.6050   31.3580   45.9350 N   0  0  0  0  0  0  0  0  0  0  0  0
   57.1930   30.2740   45.3960 O   0  0  0  0  0  0  0  0  0  0  0  0
   58.2790   27.6260   45.1610 N   0  0  0  0  0  0  0  0  0  0  0  0
   58.4570   29.2990   47.4200 N   0  0  0  0  0  0  0  0  0  0  0  0
   58.9750   30.3550   48.0300 N   0  0  0  0  0  0  0  0  0  0  0  0
   60.6120   30.6280   50.7773 H   0  0  0  0  0  0  0  0  0  0  0  0
   61.8884   30.6462   49.5136 H   0  0  0  0  0  0  0  0  0  0  0  0
   60.6065   31.9045   49.5136 H   0  0  0  0  0  0  0  0  0  0  0  0
   60.7589   27.9394   49.2298 H   0  0  0  0  0  0  0  0  0  0  0  0
   58.0338   24.5600   46.6108 H   0  0  0  0  0  0  0  0  0  0  0  0
   58.6917   22.6399   43.5402 H   0  0  0  0  0  0  0  0  0  0  0  0
   58.5449   22.6873   45.2970 H   0  0  0  0  0  0  0  0  0  0  0  0
   57.6039   20.5210   44.5278 H   0  0  0  0  0  0  0  0  0  0  0  0
   56.2205   21.5181   45.0263 H   0  0  0  0  0  0  0  0  0  0  0  0
   56.4608   23.0152   41.8090 H   0  0  0  0  0  0  0  0  0  0  0  0
   54.8759   22.2530   42.3069 H   0  0  0  0  0  0  0  0  0  0  0  0
   55.2824   24.4663   43.3691 H   0  0  0  0  0  0  0  0  0  0  0  0
   55.0878   23.1488   44.5395 H   0  0  0  0  0  0  0  0  0  0  0  0
   56.5760   29.7429   42.1387 H   0  0  0  0  0  0  0  0  0  0  0  0
   55.8039   28.8212   43.5008 H   0  0  0  0  0  0  0  0  0  0  0  0
   57.7002   32.0407   42.7749 H   0  0  0  0  0  0  0  0  0  0  0  0
   59.1718   33.8144   44.3562 H   0  0  0  0  0  0  0  0  0  0  0  0
   56.7793   34.8868   45.8741 H   0  0  0  0  0  0  0  0  0  0  0  0
   57.4955   35.4692   44.3331 H   0  0  0  0  0  0  0  0  0  0  0  0
   56.4011   34.0448   44.3331 H   0  0  0  0  0  0  0  0  0  0  0  0
   58.3904   33.6568   47.2518 H   0  0  0  0  0  0  0  0  0  0  0  0
   59.9959   33.3799   46.4952 H   0  0  0  0  0  0  0  0  0  0  0  0
   59.2747   35.0251   46.4952 H   0  0  0  0  0  0  0  0  0  0  0  0
   58.5830   28.5920   45.3990 H   0  0  0  0  0  0  0  0  0  0  0  0
   57.6750   29.3430   46.7440 H   0  0  0  0  0  0  0  0  0  0  0  0
   58.6700   31.3460   47.9090 H   0  0  0  0  0  0  0  0  0  0  0  0
  1  2  1  0
  2  3  2  0
  3  4  1  0
  4  5  2  0
  5  6  1  0
  6  7  2  0
  7  8  1  0
  8  9  1  0
  9 10  1  0
 10 11  1  0
 11 12  1  0
 12 13  1  0
 13 14  1  0
  8 15  2  0
 15 16  1  0
 16 17  2  0
 17 18  1  0
 18 19  1  0
 19 20  2  0
 20 21  1  0
 21 22  1  0
 22 23  1  0
 22 24  1  0
 21 25  2  0
 25 26  1  0
 16 27  1  0
  4 28  1  0
 28 29  1  0
 29  2  1  0
 27  6  1  0
 14  9  1  0
 26 19  1  0
  1 30  1  0
  1 31  1  0
  1 32  1  0
  3 33  1  0
  7 34  1  0
 10 35  1  0
 10 36  1  0
 11 37  1  0
 11 38  1  0
 13 39  1  0
 13 40  1  0
 14 41  1  0
 14 42  1  0
 18 43  1  0
 18 44  1  0
 20 45  1  0
 22 46  1  0
 23 47  1  0
 23 48  1  0
 23 49  1  0
 24 50  1  0
 24 51  1  0
 24 52  1  0
 27 53  1  0
 28 54  1  0
 29 55  1  0
M  END
>  <smiles>  (7) 
Cc1cc(=Nc2cc(N3CCOCC3)nc(=NCc3cc(C(C)C)no3)[nH]2)[nH][nH]1

>  <score_type>  (7) 
oracle

>  <origin>  (7) 
adg

>  <m_score__min__energy>  (7) 
-9.1999999999999993

>  <m_primary>  (7) 
energy

$$$$
7:0
     RDKit          3D

 46 48  0  0  0  0  0  0  0  0999 V2000
   55.8480   19.7710   43.6170 N   0  0  0  0  0  0  0  0  0  0  0  0
   56.6560   21.2910   43.4800 S   0  0  0  0  0  0  0  0  0  0  0  0
   55.9020   22.1780   42.5280 O   0  0  0  0  0  0  0  0  0  0  0  0
   58.0440   21.0770   42.9440 O   0  0  0  0  0  0  0  0  0  0  0  0
   56.7400   22.0510   45.0650 C   0  0  0  0  0  0  0  0  0  0  0  0
   56.5090   21.2960   46.2220 C   0  0  0  0  0  0  0  0  0  0  0  0
   56.5780   21.8980   47.4790 C   0  0  0  0  0  0  0  0  0  0  0  0
   56.8920   23.2560   47.5920 C   0  0  0  0  0  0  0  0  0  0  0  0
   57.1560   24.0200   46.4410 C   0  0  0  0  0  0  0  0  0  0  0  0
   57.4610   25.4220   46.5250 N   0  0  0  0  0  0  0  0  0  0  0  0
   56.5340   26.4710   46.2110 C   0  0  0  0  0  0  0  0  0  0  0  0
   55.3130   26.2160   46.0230 O   0  0  0  0  0  0  0  0  0  0  0  0
   57.0000   27.8220   46.1520 N   0  0  0  0  0  0  0  0  0  0  0  0
   57.2260   28.5240   44.8970 C   0  0  0  0  0  0  0  0  0  0  0  0
   56.2350   29.6310   44.7630 C   0  0  0  0  0  0  0  0  0  0  0  0
   55.0350   29.3610   44.4830 O   0  0  0  0  0  0  0  0  0  0  0  0
   56.6810   30.9890   44.8480 N   0  0  0  0  0  0  0  0  0  0  0  0
   57.8230   31.4710   45.5740 C   0  0  0  0  0  0  0  0  0  0  0  0
   58.9930   30.7070   45.7140 C   0  0  0  0  0  0  0  0  0  0  0  0
   60.0880   31.2230   46.4110 C   0  0  0  0  0  0  0  0  0  0  0  0
   60.0210   32.5180   46.9520 C   0  0  0  0  0  0  0  0  0  0  0  0
   61.1570   33.1120   47.7040 C   0  0  0  0  0  0  0  0  0  0  0  0
   62.4520   33.0800   47.1530 C   0  0  0  0  0  0  0  0  0  0  0  0
   63.5340   33.6270   47.8500 C   0  0  0  0  0  0  0  0  0  0  0  0
   63.3390   34.2050   49.1060 C   0  0  0  0  0  0  0  0  0  0  0  0
   62.0620   34.2330   49.6700 C   0  0  0  0  0  0  0  0  0  0  0  0
   60.9760   33.6880   48.9770 C   0  0  0  0  0  0  0  0  0  0  0  0
   58.8780   33.2430   46.7900 N   0  0  0  0  0  0  0  0  0  0  0  0
   57.7980   32.7620   46.1180 C   0  0  0  0  0  0  0  0  0  0  0  0
   56.7740   33.4850   45.9950 O   0  0  0  0  0  0  0  0  0  0  0  0
   57.0610   23.4110   45.1790 C   0  0  0  0  0  0  0  0  0  0  0  0
   56.4930   19.1260   44.1260 H   0  0  0  0  0  0  0  0  0  0  0  0
   56.2724   20.2249   46.1394 H   0  0  0  0  0  0  0  0  0  0  0  0
   56.3848   21.3026   48.3836 H   0  0  0  0  0  0  0  0  0  0  0  0
   56.9327   23.7284   48.5846 H   0  0  0  0  0  0  0  0  0  0  0  0
   58.3850   25.7040   46.9240 H   0  0  0  0  0  0  0  0  0  0  0  0
   58.2443   28.9399   44.8873 H   0  0  0  0  0  0  0  0  0  0  0  0
   57.1093   27.8228   44.0576 H   0  0  0  0  0  0  0  0  0  0  0  0
   59.0472   29.7003   45.2739 H   0  0  0  0  0  0  0  0  0  0  0  0
   60.9984   30.6184   46.5358 H   0  0  0  0  0  0  0  0  0  0  0  0
   62.6141   32.6212   46.1665 H   0  0  0  0  0  0  0  0  0  0  0  0
   64.5409   33.6018   47.4078 H   0  0  0  0  0  0  0  0  0  0  0  0
   64.1909   34.6380   49.6508 H   0  0  0  0  0  0  0  0  0  0  0  0
   61.9097   34.6846   50.6614 H   0  0  0  0  0  0  0  0  0  0  0  0
   59.9735   33.7093   49.4292 H   0  0  0  0  0  0  0  0  0  0  0  0
   57.2401   24.0065   44.2717 H   0  0  0  0  0  0  0  0  0  0  0  0
  1  2  1  0
  2  3  2  0
  2  4  2  0
  2  5  1  0
  5  6  2  0
  6  7  1  0
  7  8  2  0
  8  9  1  0
  9 10  1  0
 10 11  1  0
 11 12  2  0
 11 13  1  0
 13 14  1  0
 14 15  1  0
 15 16  2  0
 15 17  1  0
 17 18  1  0
 18 19  2  0
 19 20  1  0
 20 21  2  0
 21 22  1  0
 22 23  2  0
 23 24  1  0
 24 25  2  0
 25 26  1  0
 26 27  2  0
 21 28  1  0
 28 29  1  0
 29 30  2  0
  9 31  2  0
 31  5  1  0
 29 18  1  0
 27 22  1  0
  1 32  1  0
  6 33  1  0
  7 34  1  0
  8 35  1  0
 10 36  1  0
 14 37  1  0
 14 38  1  0
 19 39  1  0
 20 40  1  0
 23 41  1  0
 24 42  1  0
 25 43  1  0
 26 44  1  0
 27 45  1  0
 31 46  1  0
M  CHG  4   1  -1  13  -1  17  -1  28  -1
M  END
>  <UniqueID>  (8) 
7

>  <SMILES>  (8) 
[NH-]S(=O)(=O)c1cccc(NC(=O)[N-]CC(=O)[N-]c2ccc(-c3ccccc3)[n-]c2=O)c1

>  <Energy>  (8) 
56.694873899080534

>  <Genealogy>  (8) 
[NH-]S(=O)(=O)c1cccc(NC(=O)[N-]CC(=O)[N-]c2ccc(-c3ccccc3)[n-]c2=O)c1 (protonated)
[NH-]S(=O)(=O)c1cccc(NC(=O)[N-]CC(=O)[N-]c2ccc(-c3ccccc3)[n-]c2=O)c1 (3D coordinates assigned)
[NH-]S(=O)(=O)c1cccc(NC(=O)[N-]CC(=O)[N-]c2ccc(-c3ccccc3)[n-]c2=O)c1 (optimized conformer: 56.694873899080534 kcal/mol)

>  <smiles>  (8) 
NS(=O)(=O)c1cccc(NC(=O)NCC(=O)Nc2ccc(-c3ccccc3)[nH]c2=O)c1

>  <score_type>  (8) 
oracle

>  <origin>  (8) 
adg

>  <m_score__min__energy>  (8) 
-15.369999999999999

>  <m_primary>  (8) 
energy

$$$$
8:0
     RDKit          3D

 57 60  0  0  0  0  0  0  0  0999 V2000
   63.3910   34.1800   46.0540 C   0  0  0  0  0  0  0  0  0  0  0  0
   63.0910   33.1120   47.1000 C   0  0  0  0  0  0  0  0  0  0  0  0
   63.6600   33.4660   48.3610 O   0  0  0  0  0  0  0  0  0  0  0  0
   63.8450   32.6000   49.4540 C   0  0  0  0  0  0  0  0  0  0  0  0
   65.1270   32.2090   49.8910 C   0  0  0  0  0  0  0  0  0  0  0  0
   65.2690   31.3010   50.9440 C   0  0  0  0  0  0  0  0  0  0  0  0
   64.1410   30.7680   51.5660 C   0  0  0  0  0  0  0  0  0  0  0  0
   62.8660   31.1500   51.1460 C   0  0  0  0  0  0  0  0  0  0  0  0
   62.7080   32.0800   50.1080 C   0  0  0  0  0  0  0  0  0  0  0  0
   61.3800   32.4440   49.7010 N   0  0  0  0  0  0  0  0  0  0  0  0
   60.2560   31.5570   49.7990 C   0  0  0  0  0  0  0  0  0  0  0  0
   60.4000   30.3870   50.2460 O   0  0  0  0  0  0  0  0  0  0  0  0
   58.9020   31.9990   49.3310 C   0  0  0  0  0  0  0  0  0  0  0  0
   59.0320   32.9230   48.2030 N   0  0  0  0  0  0  0  0  0  0  0  0
   59.4940   34.1990   48.2130 C   0  0  0  0  0  0  0  0  0  0  0  0
   59.9110   34.7850   49.2470 O   0  0  0  0  0  0  0  0  0  0  0  0
   59.4590   34.7710   47.0210 O   0  0  0  0  0  0  0  0  0  0  0  0
   58.9630   33.8670   46.2110 C   0  0  0  0  0  0  0  0  0  0  0  0
   58.7110   33.9690   44.8470 C   0  0  0  0  0  0  0  0  0  0  0  0
   58.1490   32.8510   44.2010 C   0  0  0  0  0  0  0  0  0  0  0  0
   57.8540   31.6700   44.9300 C   0  0  0  0  0  0  0  0  0  0  0  0
   57.1410   30.2750   44.1250 S   0  0  0  0  0  0  0  0  0  0  0  0
   55.9170   29.8640   44.8920 O   0  0  0  0  0  0  0  0  0  0  0  0
   56.7240   30.6470   42.7290 O   0  0  0  0  0  0  0  0  0  0  0  0
   58.2710   28.9380   44.0860 N   0  0  0  0  0  0  0  0  0  0  0  0
   57.7360   27.7360   44.7550 C   0  0  0  0  0  0  0  0  0  0  0  0
   57.7220   27.8620   46.2900 C   0  0  0  0  0  0  0  0  0  0  0  0
   58.9730   28.5590   46.8520 C   0  0  0  0  0  0  0  0  0  0  0  0
   60.1000   28.6310   45.8220 C   0  0  0  0  0  0  0  0  0  0  0  0
   59.6250   29.3470   44.5450 C   0  0  0  0  0  0  0  0  0  0  0  0
   58.1400   31.6000   46.3090 C   0  0  0  0  0  0  0  0  0  0  0  0
   58.6940   32.7280   46.9140 C   0  0  0  0  0  0  0  0  0  0  0  0
   63.6555   35.1218   46.5570 H   0  0  0  0  0  0  0  0  0  0  0  0
   64.2316   33.8515   45.4252 H   0  0  0  0  0  0  0  0  0  0  0  0
   62.5023   34.3372   45.4252 H   0  0  0  0  0  0  0  0  0  0  0  0
   62.0012   33.0115   47.2111 H   0  0  0  0  0  0  0  0  0  0  0  0
   63.5305   32.1596   46.7688 H   0  0  0  0  0  0  0  0  0  0  0  0
   66.0211   32.6211   49.4002 H   0  0  0  0  0  0  0  0  0  0  0  0
   66.2732   31.0063   51.2827 H   0  0  0  0  0  0  0  0  0  0  0  0
   64.2558   30.0462   52.3880 H   0  0  0  0  0  0  0  0  0  0  0  0
   61.9787   30.7186   51.6325 H   0  0  0  0  0  0  0  0  0  0  0  0
   61.2650   33.3290   49.1570 H   0  0  0  0  0  0  0  0  0  0  0  0
   58.3221   31.1194   49.0148 H   0  0  0  0  0  0  0  0  0  0  0  0
   58.3874   32.5120   50.1568 H   0  0  0  0  0  0  0  0  0  0  0  0
   58.9425   34.8904   44.2925 H   0  0  0  0  0  0  0  0  0  0  0  0
   57.9370   32.8936   43.1225 H   0  0  0  0  0  0  0  0  0  0  0  0
   56.7059   27.5695   44.4069 H   0  0  0  0  0  0  0  0  0  0  0  0
   58.3954   26.8937   44.4984 H   0  0  0  0  0  0  0  0  0  0  0  0
   56.8358   28.4430   46.5851 H   0  0  0  0  0  0  0  0  0  0  0  0
   57.7032   26.8421   46.7017 H   0  0  0  0  0  0  0  0  0  0  0  0
   58.7036   29.5814   47.1557 H   0  0  0  0  0  0  0  0  0  0  0  0
   59.3332   27.9711   47.7091 H   0  0  0  0  0  0  0  0  0  0  0  0
   60.9476   29.1845   46.2523 H   0  0  0  0  0  0  0  0  0  0  0  0
   60.4060   27.6073   45.5605 H   0  0  0  0  0  0  0  0  0  0  0  0
   59.6107   30.4293   44.7411 H   0  0  0  0  0  0  0  0  0  0  0  0
   60.3277   29.0685   43.7459 H   0  0  0  0  0  0  0  0  0  0  0  0
   57.9334   30.6875   46.8875 H   0  0  0  0  0  0  0  0  0  0  0  0
  1  2  1  0
  2  3  1  0
  3  4  1  0
  4  5  2  0
  5  6  1  0
  6  7  2  0
  7  8  1  0
  8  9  2  0
  9 10  1  0
 10 11  1  0
 11 12  2  0
 11 13  1  0
 13 14  1  0
 14 15  1  0
 15 16  2  0
 15 17  1  0
 17 18  1  0
 18 19  2  0
 19 20  1  0
 20 21  2  0
 21 22  1  0
 22 23  2  0
 22 24  2  0
 22 25  1  0
 25 26  1  0
 26 27  1  0
 27 28  1  0
 28 29  1  0
 29 30  1  0
 21 31  1  0
 31 32  2  0
  9  4  1  0
 32 14  1  0
 32 18  1  0
 30 25  1  0
  1 33  1  0
  1 34  1  0
  1 35  1  0
  2 36  1  0
  2 37  1  0
  5 38  1  0
  6 39  1  0
  7 40  1  0
  8 41  1  0
 10 42  1  0
 13 43  1  0
 13 44  1  0
 19 45  1  0
 20 46  1  0
 26 47  1  0
 26 48  1  0
 27 49  1  0
 27 50  1  0
 28 51  1  0
 28 52  1  0
 29 53  1  0
 29 54  1  0
 30 55  1  0
 30 56  1  0
 31 57  1  0
M  END
>  <UniqueID>  (9) 
8

>  <SMILES>  (9) 
CCOc1ccccc1NC(=O)Cn1c(=O)oc2ccc(S(=O)(=O)N3CCCCC3)cc21

>  <Energy>  (9) 
108.46674053023031

>  <Genealogy>  (9) 
CCOc1ccccc1NC(=O)Cn1c(=O)oc2ccc(S(=O)(=O)N3CCCCC3)cc21 (3D coordinates assigned)
CCOc1ccccc1NC(=O)Cn1c(=O)oc2ccc(S(=O)(=O)N3CCCCC3)cc21 (nonaromatic ring conformer: 108.46674053023031 kcal/mol)

>  <smiles>  (9) 
CCOc1ccccc1NC(=O)Cn1c(=O)oc2ccc(S(=O)(=O)N3CCCCC3)cc21

>  <score_type>  (9) 
oracle

>  <origin>  (9) 
adg

>  <m_score__min__energy>  (9) 
-9.6400000000000006

>  <m_primary>  (9) 
energy

$$$$
9:0
     RDKit          3D

 43 45  0  0  0  0  0  0  0  0999 V2000
   61.7330   27.1870   54.8180 C   0  0  0  0  0  0  0  0  0  0  0  0
   60.3890   26.9610   55.2310 O   0  0  0  0  0  0  0  0  0  0  0  0
   59.2720   27.6140   54.6880 C   0  0  0  0  0  0  0  0  0  0  0  0
   59.4260   28.3030   53.4800 C   0  0  0  0  0  0  0  0  0  0  0  0
   58.3430   28.9680   52.8980 C   0  0  0  0  0  0  0  0  0  0  0  0
   57.0800   28.9400   53.5120 C   0  0  0  0  0  0  0  0  0  0  0  0
   55.9270   29.6490   52.9170 C   0  0  0  0  0  0  0  0  0  0  0  0
   54.6590   29.2030   53.0350 N   0  0  0  0  0  0  0  0  0  0  0  0
   53.9200   30.1490   52.4210 C   0  0  0  0  0  0  0  0  0  0  0  0
   52.1380   30.0470   52.2560 S   0  0  0  0  0  0  0  0  0  0  0  0
   52.1070   30.7750   50.5820 C   0  0  0  0  0  0  0  0  0  0  0  0
   51.2190   31.9750   50.5480 C   0  0  0  0  0  0  0  0  0  0  0  0
   51.0120   32.6390   51.5970 O   0  0  0  0  0  0  0  0  0  0  0  0
   50.5910   32.3470   49.3650 O   0  0  0  0  0  0  0  0  0  0  0  0
   54.6520   31.1630   51.9280 N   0  0  0  0  0  0  0  0  0  0  0  0
   55.9260   30.8540   52.2220 C   0  0  0  0  0  0  0  0  0  0  0  0
   57.0850   31.6460   51.7580 C   0  0  0  0  0  0  0  0  0  0  0  0
   57.7970   31.2750   50.6060 C   0  0  0  0  0  0  0  0  0  0  0  0
   58.8830   32.0380   50.1680 C   0  0  0  0  0  0  0  0  0  0  0  0
   59.2660   33.1960   50.8720 C   0  0  0  0  0  0  0  0  0  0  0  0
   60.3490   33.9940   50.4750 O   0  0  0  0  0  0  0  0  0  0  0  0
   60.7870   34.1430   49.1270 C   0  0  0  0  0  0  0  0  0  0  0  0
   58.5420   33.5740   52.0080 C   0  0  0  0  0  0  0  0  0  0  0  0
   57.4570   32.8100   52.4460 C   0  0  0  0  0  0  0  0  0  0  0  0
   56.9290   28.2680   54.7350 C   0  0  0  0  0  0  0  0  0  0  0  0
   58.0120   27.6040   55.3160 C   0  0  0  0  0  0  0  0  0  0  0  0
   62.3757   27.2951   55.7042 H   0  0  0  0  0  0  0  0  0  0  0  0
   62.0797   26.3345   54.2154 H   0  0  0  0  0  0  0  0  0  0  0  0
   61.7818   28.1060   54.2154 H   0  0  0  0  0  0  0  0  0  0  0  0
   60.4077   28.3215   52.9841 H   0  0  0  0  0  0  0  0  0  0  0  0
   58.4805   29.5161   51.9542 H   0  0  0  0  0  0  0  0  0  0  0  0
   53.1273   31.0720   50.2978 H   0  0  0  0  0  0  0  0  0  0  0  0
   51.7186   30.0259   49.8763 H   0  0  0  0  0  0  0  0  0  0  0  0
   54.3030   31.9850   51.3850 H   0  0  0  0  0  0  0  0  0  0  0  0
   57.4980   30.3777   50.0444 H   0  0  0  0  0  0  0  0  0  0  0  0
   59.4406   31.7329   49.2702 H   0  0  0  0  0  0  0  0  0  0  0  0
   61.8283   34.4973   49.1169 H   0  0  0  0  0  0  0  0  0  0  0  0
   60.7246   33.1731   48.6119 H   0  0  0  0  0  0  0  0  0  0  0  0
   60.1461   34.8737   48.6119 H   0  0  0  0  0  0  0  0  0  0  0  0
   58.8293   34.4804   52.5611 H   0  0  0  0  0  0  0  0  0  0  0  0
   56.8913   33.1235   53.3358 H   0  0  0  0  0  0  0  0  0  0  0  0
   55.9514   28.2642   55.2393 H   0  0  0  0  0  0  0  0  0  0  0  0
   57.8797   27.0707   56.2689 H   0  0  0  0  0  0  0  0  0  0  0  0
  1  2  1  0
  2  3  1  0
  3  4  2  0
  4  5  1  0
  5  6  2  0
  6  7  1  0
  7  8  1  0
  8  9  2  0
  9 10  1  0
 10 11  1  0
 11 12  1  0
 12 13  2  0
 12 14  1  0
  9 15  1  0
 15 16  1  0
 16 17  1  0
 17 18  2  0
 18 19  1  0
 19 20  2  0
 20 21  1  0
 21 22  1  0
 20 23  1  0
 23 24  2  0
  6 25  1  0
 25 26  2  0
 26  3  1  0
 16  7  2  0
 24 17  1  0
  1 27  1  0
  1 28  1  0
  1 29  1  0
  4 30  1  0
  5 31  1  0
 11 32  1  0
 11 33  1  0
 15 34  1  0
 18 35  1  0
 19 36  1  0
 22 37  1  0
 22 38  1  0
 22 39  1  0
 23 40  1  0
 24 41  1  0
 25 42  1  0
 26 43  1  0
M  CHG  1  14  -1
M  END
>  <UniqueID>  (10) 
9

>  <SMILES>  (10) 
COc1ccc(-c2nc(SCC(=O)[O-])[nH]c2-c2ccc(OC)cc2)cc1

>  <Energy>  (10) 
75.64069286839862

>  <Genealogy>  (10) 
COc1ccc(-c2nc(SCC(=O)[O-])[nH]c2-c2ccc(OC)cc2)cc1 (protonated)
COc1ccc(-c2nc(SCC(=O)[O-])[nH]c2-c2ccc(OC)cc2)cc1 (3D coordinates assigned)
COc1ccc(-c2nc(SCC(=O)[O-])[nH]c2-c2ccc(OC)cc2)cc1 (optimized conformer: 75.64069286839862 kcal/mol)

>  <smiles>  (10) 
COc1ccc(-c2nc(SCC(=O)O)[nH]c2-c2ccc(OC)cc2)cc1

>  <score_type>  (10) 
oracle

>  <origin>  (10) 
adg

>  <m_score__min__energy>  (10) 
-9.7899999999999991

>  <m_primary>  (10) 
energy

$$$$
10:0
     RDKit          3D

 50 52  0  0  0  0  0  0  0  0999 V2000
   56.1732   22.6722   41.5409 H   0  0  0  0  0  0  0  0  0  0  0  0
   56.2370   22.6590   42.6390 C   0  0  0  0  0  0  0  0  0  0  0  0
   55.9770   21.5170   43.3190 N   0  0  0  0  0  0  0  0  0  0  0  0
   56.0090   21.4710   44.6740 C   0  0  0  0  0  0  0  0  0  0  0  0
   55.7917   20.5238   45.1894 H   0  0  0  0  0  0  0  0  0  0  0  0
   56.3160   22.6170   45.4300 C   0  0  0  0  0  0  0  0  0  0  0  0
   55.9220   22.5330   47.1620 S   0  0  0  0  0  0  0  0  0  0  0  0
   57.0620   21.8790   47.8910 O   0  0  0  0  0  0  0  0  0  0  0  0
   54.6970   21.6970   47.3970 O   0  0  0  0  0  0  0  0  0  0  0  0
   55.6940   24.1210   47.8080 N   0  0  0  0  0  0  0  0  0  0  0  0
   56.4210   24.7340   47.3770 H   0  0  0  0  0  0  0  0  0  0  0  0
   54.7680   24.4600   47.4660 H   0  0  0  0  0  0  0  0  0  0  0  0
   56.6980   23.8030   44.7270 C   0  0  0  0  0  0  0  0  0  0  0  0
   57.1690   24.8920   45.2700 N   0  0  0  0  0  0  0  0  0  0  0  0
   56.5050   26.0620   45.7580 C   0  0  0  0  0  0  0  0  0  0  0  0
   55.2750   26.0190   46.0210 O   0  0  0  0  0  0  0  0  0  0  0  0
   57.2720   27.3240   46.0810 C   0  0  0  0  0  0  0  0  0  0  0  0
   56.7736   27.8199   46.9270 H   0  0  0  0  0  0  0  0  0  0  0  0
   58.3020   27.0105   46.3062 H   0  0  0  0  0  0  0  0  0  0  0  0
   57.3670   28.2960   44.9690 N   0  0  0  0  0  0  0  0  0  0  0  0
   56.3070   29.3260   44.9860 C   0  0  0  0  0  0  0  0  0  0  0  0
   55.3245   28.8353   45.0486 H   0  0  0  0  0  0  0  0  0  0  0  0
   56.4563   29.9802   45.8576 H   0  0  0  0  0  0  0  0  0  0  0  0
   56.3700   30.1720   43.7090 C   0  0  0  0  0  0  0  0  0  0  0  0
   56.0928   29.5385   42.8536 H   0  0  0  0  0  0  0  0  0  0  0  0
   55.6740   31.0145   43.8349 H   0  0  0  0  0  0  0  0  0  0  0  0
   57.7820   30.7660   43.4500 C   0  0  0  0  0  0  0  0  0  0  0  0
   58.1033   30.3566   42.4809 H   0  0  0  0  0  0  0  0  0  0  0  0
   57.7700   32.3070   43.2770 C   0  0  0  0  0  0  0  0  0  0  0  0
   58.4833   32.5690   42.4816 H   0  0  0  0  0  0  0  0  0  0  0  0
   56.7341   32.5866   43.0349 H   0  0  0  0  0  0  0  0  0  0  0  0
   58.1450   33.0810   44.5220 C   0  0  0  0  0  0  0  0  0  0  0  0
   59.2260   33.9800   44.5140 C   0  0  0  0  0  0  0  0  0  0  0  0
   59.8149   34.1199   43.5955 H   0  0  0  0  0  0  0  0  0  0  0  0
   59.5560   34.6970   45.6680 C   0  0  0  0  0  0  0  0  0  0  0  0
   60.3962   35.4068   45.6516 H   0  0  0  0  0  0  0  0  0  0  0  0
   58.8210   34.5140   46.8420 C   0  0  0  0  0  0  0  0  0  0  0  0
   59.0805   35.0821   47.7475 H   0  0  0  0  0  0  0  0  0  0  0  0
   57.7570   33.6100   46.8660 C   0  0  0  0  0  0  0  0  0  0  0  0
   57.1841   33.4602   47.7930 H   0  0  0  0  0  0  0  0  0  0  0  0
   57.4190   32.8950   45.7130 C   0  0  0  0  0  0  0  0  0  0  0  0
   56.5808   32.1831   45.7370 H   0  0  0  0  0  0  0  0  0  0  0  0
   58.8250   30.2960   44.4860 C   0  0  0  0  0  0  0  0  0  0  0  0
   59.8315   30.5564   44.1266 H   0  0  0  0  0  0  0  0  0  0  0  0
   58.6166   30.7949   45.4439 H   0  0  0  0  0  0  0  0  0  0  0  0
   58.7450   28.7780   44.6980 C   0  0  0  0  0  0  0  0  0  0  0  0
   59.1180   28.2785   43.7917 H   0  0  0  0  0  0  0  0  0  0  0  0
   59.3541   28.5394   45.5824 H   0  0  0  0  0  0  0  0  0  0  0  0
   56.5850   23.8160   43.3300 C   0  0  0  0  0  0  0  0  0  0  0  0
   56.7727   24.7474   42.7757 H   0  0  0  0  0  0  0  0  0  0  0  0
  1  2  1  0
  2  3  1  0
  3  4  1  0
  4  5  1  0
  4  6  2  0
  6  7  1  0
  7  8  2  0
  7  9  2  0
  7 10  1  0
 10 11  1  0
 10 12  1  0
  6 13  1  0
 13 14  2  0
 14 15  1  0
 15 16  2  0
 15 17  1  0
 17 18  1  0
 17 19  1  0
 17 20  1  0
 20 21  1  0
 21 22  1  0
 21 23  1  0
 21 24  1  0
 24 25  1  0
 24 26  1  0
 24 27  1  0
 27 28  1  0
 27 29  1  0
 29 30  1  0
 29 31  1  0
 29 32  1  0
 32 33  2  0
 33 34  1  0
 33 35  1  0
 35 36  1  0
 35 37  2  0
 37 38  1  0
 37 39  1  0
 39 40  1  0
 39 41  2  0
 41 42  1  0
 27 43  1  0
 43 44  1  0
 43 45  1  0
 43 46  1  0
 46 47  1  0
 46 48  1  0
 13 49  1  0
 49 50  1  0
 49  2  2  0
 46 20  1  0
 41 32  1  0
M  CHG  1   3  -1
M  END
>  <UniqueID>  (11) 
10

>  <SMILES>  (11) 
NS(=O)(=O)c1c[n-]cc/c1=N/C(=O)CN1CCC(Cc2ccccc2)CC1

>  <Energy>  (11) 
80.51271844416857

>  <Genealogy>  (11) 
NS(=O)(=O)c1c[n-]ccc1=NC(=O)CN1CCC(Cc2ccccc2)CC1 (protonated)
NS(=O)(=O)c1c[n-]cc/c1=N/C(=O)CN1CCC(Cc2ccccc2)CC1 (cis-trans isomerization)
NS(=O)(=O)c1c[n-]cc/c1=N/C(=O)CN1CCC(Cc2ccccc2)CC1 (3D coordinates assigned)
NS(=O)(=O)c1c[n-]cc/c1=N/C(=O)CN1CCC(Cc2ccccc2)CC1 (nonaromatic ring conformer: 80.51271844416857 kcal/mol)

>  <smiles>  (11) 
NS(=O)(=O)c1c[nH]ccc1=NC(=O)CN1CCC(Cc2ccccc2)CC1

>  <score_type>  (11) 
oracle

>  <origin>  (11) 
adg

>  <m_score__min__energy>  (11) 
-11.31

>  <m_primary>  (11) 
energy

$$$$
11:0
     RDKit          3D

 33 34  0  0  0  0  0  0  0  0999 V2000
   58.6730   25.8600   45.6530 C   0  0  0  0  0  0  0  0  0  0  0  0
   57.7680   26.2990   46.5260 C   0  0  0  0  0  0  0  0  0  0  0  0
   56.3510   26.4860   46.1720 C   0  0  0  0  0  0  0  0  0  0  0  0
   55.5380   25.5440   46.3750 O   0  0  0  0  0  0  0  0  0  0  0  0
   55.8930   27.7190   45.6070 N   0  0  0  0  0  0  0  0  0  0  0  0
   56.7910   28.7010   45.0130 C   0  0  0  0  0  0  0  0  0  0  0  0
   55.9910   29.7670   44.2630 C   0  0  0  0  0  0  0  0  0  0  0  0
   56.8760   30.8870   43.7990 C   0  0  0  0  0  0  0  0  0  0  0  0
   57.0870   31.2800   42.4810 C   0  0  0  0  0  0  0  0  0  0  0  0
   57.8650   32.3870   42.4370 N   0  0  0  0  0  0  0  0  0  0  0  0
   58.1350   32.7010   43.7160 C   0  0  0  0  0  0  0  0  0  0  0  0
   58.8770   33.7850   44.1800 C   0  0  0  0  0  0  0  0  0  0  0  0
   59.0100   33.9480   45.5700 C   0  0  0  0  0  0  0  0  0  0  0  0
   58.3970   33.0300   46.4700 C   0  0  0  0  0  0  0  0  0  0  0  0
   58.5000   33.1650   47.8620 O   0  0  0  0  0  0  0  0  0  0  0  0
   59.5780   33.8120   48.5290 C   0  0  0  0  0  0  0  0  0  0  0  0
   57.6570   31.9460   45.9600 C   0  0  0  0  0  0  0  0  0  0  0  0
   57.5460   31.8130   44.5760 C   0  0  0  0  0  0  0  0  0  0  0  0
   59.7211   25.7357   45.9629 H   0  0  0  0  0  0  0  0  0  0  0  0
   58.3724   25.6218   44.6221 H   0  0  0  0  0  0  0  0  0  0  0  0
   58.0917   26.5309   47.5514 H   0  0  0  0  0  0  0  0  0  0  0  0
   57.3799   29.1818   45.8080 H   0  0  0  0  0  0  0  0  0  0  0  0
   57.4600   28.1912   44.3041 H   0  0  0  0  0  0  0  0  0  0  0  0
   55.5098   29.3047   43.3885 H   0  0  0  0  0  0  0  0  0  0  0  0
   55.2369   30.1814   44.9483 H   0  0  0  0  0  0  0  0  0  0  0  0
   56.6792   30.7640   41.5993 H   0  0  0  0  0  0  0  0  0  0  0  0
   58.1740   32.9000   41.5820 H   0  0  0  0  0  0  0  0  0  0  0  0
   59.3449   34.4924   43.4795 H   0  0  0  0  0  0  0  0  0  0  0  0
   59.5930   34.7925   45.9662 H   0  0  0  0  0  0  0  0  0  0  0  0
   59.4390   33.7286   49.6170 H   0  0  0  0  0  0  0  0  0  0  0  0
   60.5263   33.3337   48.2428 H   0  0  0  0  0  0  0  0  0  0  0  0
   59.6019   34.8738   48.2428 H   0  0  0  0  0  0  0  0  0  0  0  0
   57.1785   31.2222   46.6361 H   0  0  0  0  0  0  0  0  0  0  0  0
  1  2  2  0
  2  3  1  0
  3  4  2  0
  3  5  1  0
  5  6  1  0
  6  7  1  0
  7  8  1  0
  8  9  2  0
  9 10  1  0
 10 11  1  0
 11 12  2  0
 12 13  1  0
 13 14  2  0
 14 15  1  0
 15 16  1  0
 14 17  1  0
 17 18  2  0
 18  8  1  0
 18 11  1  0
  1 19  1  0
  1 20  1  0
  2 21  1  0
  6 22  1  0
  6 23  1  0
  7 24  1  0
  7 25  1  0
  9 26  1  0
 10 27  1  0
 12 28  1  0
 13 29  1  0
 16 30  1  0
 16 31  1  0
 16 32  1  0
 17 33  1  0
M  CHG  1   5  -1
M  END
>  <UniqueID>  (12) 
11

>  <SMILES>  (12) 
C=CC(=O)[N-]CCc1c[nH]c2ccc(OC)cc12

>  <Energy>  (12) 
56.53244797794754

>  <Genealogy>  (12) 
C=CC(=O)[N-]CCc1c[nH]c2ccc(OC)cc12 (protonated)
C=CC(=O)[N-]CCc1c[nH]c2ccc(OC)cc12 (3D coordinates assigned)
C=CC(=O)[N-]CCc1c[nH]c2ccc(OC)cc12 (optimized conformer: 56.53244797794754 kcal/mol)

>  <smiles>  (12) 
C=CC(=O)NCCc1c[nH]c2ccc(OC)cc12

>  <score_type>  (12) 
oracle

>  <origin>  (12) 
adg

>  <m_score__min__energy>  (12) 
-8.2100000000000009

>  <m_primary>  (12) 
energy

$$$$
12:0
     RDKit          3D

 43 45  0  0  0  0  0  0  0  0999 V2000
   56.9000   24.0820   46.7670 C   0  0  0  0  0  0  0  0  0  0  0  0
   56.4100   25.4070   47.1130 N   0  0  0  0  0  0  0  0  0  0  0  0
   56.5360   26.5340   46.2380 C   0  0  0  0  0  0  0  0  0  0  0  0
   55.5190   26.9550   45.6250 O   0  0  0  0  0  0  0  0  0  0  0  0
   57.8510   27.2130   46.0980 C   0  0  0  0  0  0  0  0  0  0  0  0
   58.8080   27.0000   47.1100 C   0  0  0  0  0  0  0  0  0  0  0  0
   60.0640   27.6020   47.0500 C   0  0  0  0  0  0  0  0  0  0  0  0
   60.3990   28.4130   45.9710 C   0  0  0  0  0  0  0  0  0  0  0  0
   59.4780   28.6260   44.9470 C   0  0  0  0  0  0  0  0  0  0  0  0
   58.1950   28.0460   44.9900 C   0  0  0  0  0  0  0  0  0  0  0  0
   57.2820   28.3050   43.8950 N   0  0  0  0  0  0  0  0  0  0  0  0
   56.4160   29.4710   44.1580 C   0  0  0  0  0  0  0  0  0  0  0  0
   57.0410   30.7710   43.6760 C   0  0  0  0  0  0  0  0  0  0  0  0
   57.0120   31.0280   42.2950 C   0  0  0  0  0  0  0  0  0  0  0  0
   57.5850   32.1920   41.7860 C   0  0  0  0  0  0  0  0  0  0  0  0
   57.5530   32.4230   40.5490 O   0  0  0  0  0  0  0  0  0  0  0  0
   58.1830   33.0780   42.6190 N   0  0  0  0  0  0  0  0  0  0  0  0
   58.2500   32.8710   43.9610 C   0  0  0  0  0  0  0  0  0  0  0  0
   58.8930   33.8160   44.7650 C   0  0  0  0  0  0  0  0  0  0  0  0
   58.9910   33.6190   46.1400 C   0  0  0  0  0  0  0  0  0  0  0  0
   58.4490   32.4770   46.7360 C   0  0  0  0  0  0  0  0  0  0  0  0
   58.5850   32.3270   48.1250 O   0  0  0  0  0  0  0  0  0  0  0  0
   59.4210   33.1370   48.9470 C   0  0  0  0  0  0  0  0  0  0  0  0
   57.7930   31.5230   45.9330 C   0  0  0  0  0  0  0  0  0  0  0  0
   57.6810   31.7060   44.5360 C   0  0  0  0  0  0  0  0  0  0  0  0
   57.1091   23.5166   47.6871 H   0  0  0  0  0  0  0  0  0  0  0  0
   56.1384   23.5521   46.1761 H   0  0  0  0  0  0  0  0  0  0  0  0
   57.8231   24.1752   46.1761 H   0  0  0  0  0  0  0  0  0  0  0  0
   58.5602   26.3484   47.9609 H   0  0  0  0  0  0  0  0  0  0  0  0
   60.7917   27.4352   47.8579 H   0  0  0  0  0  0  0  0  0  0  0  0
   61.3909   28.8863   45.9258 H   0  0  0  0  0  0  0  0  0  0  0  0
   59.7576   29.2576   44.0909 H   0  0  0  0  0  0  0  0  0  0  0  0
   56.6950   27.4630   43.7030 H   0  0  0  0  0  0  0  0  0  0  0  0
   57.8230   28.4710   43.0130 H   0  0  0  0  0  0  0  0  0  0  0  0
   55.4575   29.3248   43.6385 H   0  0  0  0  0  0  0  0  0  0  0  0
   56.2739   29.5476   45.2461 H   0  0  0  0  0  0  0  0  0  0  0  0
   56.5355   30.3081   41.6133 H   0  0  0  0  0  0  0  0  0  0  0  0
   59.3238   34.7198   44.3095 H   0  0  0  0  0  0  0  0  0  0  0  0
   59.4998   34.3693   46.7630 H   0  0  0  0  0  0  0  0  0  0  0  0
   59.2065   32.9291   50.0057 H   0  0  0  0  0  0  0  0  0  0  0  0
   60.4759   32.9085   48.7349 H   0  0  0  0  0  0  0  0  0  0  0  0
   59.2260   34.1986   48.7349 H   0  0  0  0  0  0  0  0  0  0  0  0
   57.3626   30.6245   46.3992 H   0  0  0  0  0  0  0  0  0  0  0  0
  1  2  1  0
  2  3  1  0
  3  4  2  0
  3  5  1  0
  5  6  2  0
  6  7  1  0
  7  8  2  0
  8  9  1  0
  9 10  2  0
 10 11  1  0
 11 12  1  0
 12 13  1  0
 13 14  2  0
 14 15  1  0
 15 16  2  0
 15 17  1  0
 17 18  1  0
 18 19  2  0
 19 20  1  0
 20 21  2  0
 21 22  1  0
 22 23  1  0
 21 24  1  0
 24 25  2  0
 10  5  1  0
 25 13  1  0
 25 18  1  0
  1 26  1  0
  1 27  1  0
  1 28  1  0
  6 29  1  0
  7 30  1  0
  8 31  1  0
  9 32  1  0
 11 33  1  0
 11 34  1  0
 12 35  1  0
 12 36  1  0
 14 37  1  0
 19 38  1  0
 20 39  1  0
 23 40  1  0
 23 41  1  0
 23 42  1  0
 24 43  1  0
M  CHG  3   2  -1  11   1  17  -1
M  END
>  <UniqueID>  (13) 
12

>  <SMILES>  (13) 
C[N-]C(=O)c1ccccc1[NH2+]Cc1cc(=O)[n-]c2ccc(OC)cc12

>  <Energy>  (13) 
53.4287422325201

>  <Genealogy>  (13) 
C[N-]C(=O)c1ccccc1[NH2+]Cc1cc(=O)[n-]c2ccc(OC)cc12 (protonated)
C[N-]C(=O)c1ccccc1[NH2+]Cc1cc(=O)[n-]c2ccc(OC)cc12 (3D coordinates assigned)
C[N-]C(=O)c1ccccc1[NH2+]Cc1cc(=O)[n-]c2ccc(OC)cc12 (optimized conformer: 53.4287422325201 kcal/mol)

>  <smiles>  (13) 
CNC(=O)c1ccccc1NCc1cc(=O)[nH]c2ccc(OC)cc12

>  <score_type>  (13) 
oracle

>  <origin>  (13) 
adg

>  <m_score__min__energy>  (13) 
-9.1999999999999993

>  <m_primary>  (13) 
energy

$$$$
13:0
     RDKit          3D

 51 55  0  0  0  0  0  0  0  0999 V2000
   59.0575   33.7111   43.6879 H   0  0  0  0  0  0  0  0  0  0  0  0
   58.6830   32.9990   44.4380 C   0  0  0  0  0  0  0  0  0  0  0  0
   57.7660   32.0120   44.0630 C   0  0  0  0  0  0  0  0  0  0  0  0
   57.4211   31.9528   43.0201 H   0  0  0  0  0  0  0  0  0  0  0  0
   57.2840   31.0970   45.0110 C   0  0  0  0  0  0  0  0  0  0  0  0
   56.3350   30.0430   44.6060 C   0  0  0  0  0  0  0  0  0  0  0  0
   55.2280   30.3710   44.1040 O   0  0  0  0  0  0  0  0  0  0  0  0
   56.6400   28.6510   44.7500 N   0  0  0  0  0  0  0  0  0  0  0  0
   57.2430   28.0410   45.9360 C   0  0  1  0  0  0  0  0  0  0  0  0
   57.1810   28.7406   46.7826 H   0  0  0  0  0  0  0  0  0  0  0  0
   56.5000   26.7830   46.2800 C   0  0  0  0  0  0  0  0  0  0  0  0
   57.1040   25.8190   46.8200 O   0  0  0  0  0  0  0  0  0  0  0  0
   55.1470   26.6680   45.9860 O   0  0  0  0  0  0  0  0  0  0  0  0
   58.7200   27.7260   45.6640 C   0  0  0  0  0  0  0  0  0  0  0  0
   58.9672   26.7480   46.1027 H   0  0  0  0  0  0  0  0  0  0  0  0
   58.8831   27.7090   44.5763 H   0  0  0  0  0  0  0  0  0  0  0  0
   59.6070   28.7750   46.2680 C   0  0  0  0  0  0  0  0  0  0  0  0
   60.5080   29.5860   45.5830 C   0  0  0  0  0  0  0  0  0  0  0  0
   60.6252   29.6096   44.4895 H   0  0  0  0  0  0  0  0  0  0  0  0
   61.2190   30.3410   46.4520 N   0  0  0  0  0  0  0  0  0  0  0  0
   61.9690   31.0280   46.2140 H   0  0  0  0  0  0  0  0  0  0  0  0
   60.7860   30.0030   47.6790 C   0  0  0  0  0  0  0  0  0  0  0  0
   61.2440   30.4940   48.9000 C   0  0  0  0  0  0  0  0  0  0  0  0
   62.0312   31.2610   48.9441 H   0  0  0  0  0  0  0  0  0  0  0  0
   60.6670   29.9770   50.0750 C   0  0  0  0  0  0  0  0  0  0  0  0
   61.0020   30.3451   51.0559 H   0  0  0  0  0  0  0  0  0  0  0  0
   59.6610   28.9890   50.0030 C   0  0  0  0  0  0  0  0  0  0  0  0
   59.2190   28.5911   50.9284 H   0  0  0  0  0  0  0  0  0  0  0  0
   59.2200   28.5100   48.7560 C   0  0  0  0  0  0  0  0  0  0  0  0
   58.4386   27.7388   48.6880 H   0  0  0  0  0  0  0  0  0  0  0  0
   59.8060   29.0450   47.6080 C   0  0  0  0  0  0  0  0  0  0  0  0
   57.7700   31.1510   46.3270 C   0  0  0  0  0  0  0  0  0  0  0  0
   57.4273   30.4139   47.0682 H   0  0  0  0  0  0  0  0  0  0  0  0
   58.6870   32.1370   46.6990 C   0  0  0  0  0  0  0  0  0  0  0  0
   59.0652   32.1682   47.7315 H   0  0  0  0  0  0  0  0  0  0  0  0
   59.1290   33.0860   45.7690 C   0  0  0  0  0  0  0  0  0  0  0  0
   60.0940   34.0640   46.1890 N   0  0  0  0  0  0  0  0  0  0  0  0
   61.0450   33.8920   47.0600 C   0  0  0  0  0  0  0  0  0  0  0  0
   62.1740   33.1690   46.8170 N   0  0  0  0  0  0  0  0  0  0  0  0
   62.8610   33.3070   47.9660 C   0  0  0  0  0  0  0  0  0  0  0  0
   64.1060   32.7710   48.2850 C   0  0  0  0  0  0  0  0  0  0  0  0
   64.6564   32.1447   47.5675 H   0  0  0  0  0  0  0  0  0  0  0  0
   64.6360   33.0580   49.5570 C   0  0  0  0  0  0  0  0  0  0  0  0
   65.6163   32.6506   49.8452 H   0  0  0  0  0  0  0  0  0  0  0  0
   63.9160   33.8670   50.4670 C   0  0  0  0  0  0  0  0  0  0  0  0
   64.3399   34.0844   51.4585 H   0  0  0  0  0  0  0  0  0  0  0  0
   62.6600   34.3960   50.1120 C   0  0  0  0  0  0  0  0  0  0  0  0
   62.0893   35.0286   50.8078 H   0  0  0  0  0  0  0  0  0  0  0  0
   62.1680   34.0870   48.8450 C   0  0  0  0  0  0  0  0  0  0  0  0
   61.0150   34.4710   48.2840 N   0  0  0  0  0  0  0  0  0  0  0  0
   60.2690   35.0780   48.6930 H   0  0  0  0  0  0  0  0  0  0  0  0
  1  2  1  0
  2  3  2  0
  3  4  1  0
  3  5  1  0
  5  6  1  0
  6  7  2  0
  6  8  1  0
  8  9  1  0
  9 10  1  1
  9 11  1  0
 11 12  2  0
 11 13  1  0
  9 14  1  0
 14 15  1  0
 14 16  1  0
 14 17  1  0
 17 18  2  0
 18 19  1  0
 18 20  1  0
 20 21  1  0
 20 22  1  0
 22 23  2  0
 23 24  1  0
 23 25  1  0
 25 26  1  0
 25 27  2  0
 27 28  1  0
 27 29  1  0
 29 30  1  0
 29 31  2  0
  5 32  2  0
 32 33  1  0
 32 34  1  0
 34 35  1  0
 34 36  2  0
 36 37  1  0
 37 38  2  0
 38 39  1  0
 39 40  1  0
 40 41  2  0
 41 42  1  0
 41 43  1  0
 43 44  1  0
 43 45  2  0
 45 46  1  0
 45 47  1  0
 47 48  1  0
 47 49  2  0
 49 50  1  0
 50 51  1  0
 36  2  1  0
 50 38  1  0
 31 17  1  0
 49 40  1  0
 31 22  1  0
M  CHG  3   8  -1  13  -1  39  -1
M  END
>  <UniqueID>  (14) 
13

>  <SMILES>  (14) 
O=C([N-][C@H](Cc1c[nH]c2ccccc12)C(=O)[O-])c1ccc(/N=c2\[n-]c3ccccc3[nH]2)cc1

>  <Energy>  (14) 
133.67656407600978

>  <Genealogy>  (14) 
O=C([N-]C(Cc1c[nH]c2ccccc12)C(=O)[O-])c1ccc(N=c2[n-]c3ccccc3[nH]2)cc1 (protonated)
O=C([N-][C@H](Cc1c[nH]c2ccccc12)C(=O)[O-])c1ccc(N=c2[n-]c3ccccc3[nH]2)cc1 (chirality)
O=C([N-][C@H](Cc1c[nH]c2ccccc12)C(=O)[O-])c1ccc(/N=c2\[n-]c3ccccc3[nH]2)cc1 (cis-trans isomerization)
O=C([N-][C@H](Cc1c[nH]c2ccccc12)C(=O)[O-])c1ccc(/N=c2\[n-]c3ccccc3[nH]2)cc1 (3D coordinates assigned)
O=C([N-][C@H](Cc1c[nH]c2ccccc12)C(=O)[O-])c1ccc(/N=c2\[n-]c3ccccc3[nH]2)cc1 (optimized conformer: 133.67656407600978 kcal/mol)

>  <smiles>  (14) 
O=C(NC(Cc1c[nH]c2ccccc12)C(=O)O)c1ccc(N=c2[nH]c3ccccc3[nH]2)cc1

>  <score_type>  (14) 
oracle

>  <origin>  (14) 
adg

>  <m_score__min__energy>  (14) 
-16.190000000000001

>  <m_primary>  (14) 
energy

$$$$
14:0
     RDKit          3D

 67 70  0  0  0  0  0  0  0  0999 V2000
   56.4420   24.1340   44.3930 C   0  0  0  0  0  0  0  0  0  0  0  0
   56.5110   24.6350   45.8330 C   0  0  0  0  0  0  0  0  0  0  0  0
   57.4680   25.7910   45.9500 C   0  0  0  0  0  0  0  0  0  0  0  0
   58.7670   25.6940   45.4310 C   0  0  0  0  0  0  0  0  0  0  0  0
   59.6740   26.7440   45.5910 C   0  0  0  0  0  0  0  0  0  0  0  0
   59.3040   27.9050   46.2940 C   0  0  0  0  0  0  0  0  0  0  0  0
   60.2750   29.0050   46.5020 C   0  0  0  0  0  0  0  0  0  0  0  0
   60.7440   29.6250   45.5090 O   0  0  0  0  0  0  0  0  0  0  0  0
   60.7420   29.3720   47.8560 C   0  0  0  0  0  0  0  0  0  0  0  0
   61.2180   30.6610   48.0920 C   0  0  0  0  0  0  0  0  0  0  0  0
   61.6150   31.0660   49.3390 N   0  0  0  0  0  0  0  0  0  0  0  0
   62.0360   32.4750   49.4780 C   0  0  0  0  0  0  0  0  0  0  0  0
   62.0190   33.1540   48.1380 C   0  0  0  0  0  0  0  0  0  0  0  0
   63.1000   33.3020   47.5050 O   0  0  0  0  0  0  0  0  0  0  0  0
   60.7890   33.6500   47.5840 N   0  0  0  0  0  0  0  0  0  0  0  0
   60.7530   34.4800   46.3820 C   0  0  0  0  0  0  0  0  0  0  0  0
   59.3080   34.7470   45.9520 C   0  0  0  0  0  0  0  0  0  0  0  0
   58.6630   33.4850   45.4450 C   0  0  0  0  0  0  0  0  0  0  0  0
   58.3840   33.3280   44.0770 C   0  0  0  0  0  0  0  0  0  0  0  0
   57.7800   32.1550   43.6120 C   0  0  0  0  0  0  0  0  0  0  0  0
   57.4650   31.1220   44.5060 C   0  0  0  0  0  0  0  0  0  0  0  0
   56.6680   29.6530   43.9460 S   0  0  0  0  0  0  0  0  0  0  0  0
   55.5600   29.1150   45.1560 N   0  0  0  0  0  0  0  0  0  0  0  0
   57.6950   28.5850   43.6960 O   0  0  0  0  0  0  0  0  0  0  0  0
   55.9210   29.9170   42.6700 O   0  0  0  0  0  0  0  0  0  0  0  0
   57.7640   31.2690   45.8660 C   0  0  0  0  0  0  0  0  0  0  0  0
   58.3650   32.4390   46.3330 C   0  0  0  0  0  0  0  0  0  0  0  0
   61.5450   30.1880   50.4090 C   0  0  0  0  0  0  0  0  0  0  0  0
   61.8880   30.5760   51.7280 C   0  0  0  0  0  0  0  0  0  0  0  0
   61.8280   29.6660   52.7830 C   0  0  0  0  0  0  0  0  0  0  0  0
   61.4200   28.3500   52.5720 C   0  0  0  0  0  0  0  0  0  0  0  0
   61.3880   27.4800   53.6730 O   0  0  0  0  0  0  0  0  0  0  0  0
   62.4900   26.6930   54.1170 C   0  0  0  0  0  0  0  0  0  0  0  0
   61.0510   27.9470   51.2780 C   0  0  0  0  0  0  0  0  0  0  0  0
   61.0970   28.8540   50.1990 C   0  0  0  0  0  0  0  0  0  0  0  0
   60.6840   28.4590   48.9120 C   0  0  0  0  0  0  0  0  0  0  0  0
   60.2620   27.2880   48.7030 O   0  0  0  0  0  0  0  0  0  0  0  0
   58.0030   27.9970   46.8190 C   0  0  0  0  0  0  0  0  0  0  0  0
   57.0900   26.9540   46.6400 C   0  0  0  0  0  0  0  0  0  0  0  0
   56.2919   23.0443   44.3907 H   0  0  0  0  0  0  0  0  0  0  0  0
   55.6024   24.6209   43.8752 H   0  0  0  0  0  0  0  0  0  0  0  0
   57.3819   24.3758   43.8752 H   0  0  0  0  0  0  0  0  0  0  0  0
   55.5096   24.9620   46.1497 H   0  0  0  0  0  0  0  0  0  0  0  0
   56.8665   23.8158   46.4753 H   0  0  0  0  0  0  0  0  0  0  0  0
   59.0739   24.7844   44.8940 H   0  0  0  0  0  0  0  0  0  0  0  0
   60.6846   26.6626   45.1644 H   0  0  0  0  0  0  0  0  0  0  0  0
   61.2763   31.3718   47.2545 H   0  0  0  0  0  0  0  0  0  0  0  0
   61.3458   32.9954   50.1583 H   0  0  0  0  0  0  0  0  0  0  0  0
   63.0576   32.5068   49.8846 H   0  0  0  0  0  0  0  0  0  0  0  0
   59.8960   33.5030   48.1090 H   0  0  0  0  0  0  0  0  0  0  0  0
   61.2509   35.4386   46.5900 H   0  0  0  0  0  0  0  0  0  0  0  0
   61.2714   33.9491   45.5699 H   0  0  0  0  0  0  0  0  0  0  0  0
   58.7380   35.1227   46.8145 H   0  0  0  0  0  0  0  0  0  0  0  0
   59.3113   35.4926   45.1432 H   0  0  0  0  0  0  0  0  0  0  0  0
   58.6413   34.1299   43.3694 H   0  0  0  0  0  0  0  0  0  0  0  0
   57.5516   32.0428   42.5418 H   0  0  0  0  0  0  0  0  0  0  0  0
   54.5990   29.3200   44.8050 H   0  0  0  0  0  0  0  0  0  0  0  0
   57.5241   30.4584   46.5698 H   0  0  0  0  0  0  0  0  0  0  0  0
   58.6062   32.5420   47.4013 H   0  0  0  0  0  0  0  0  0  0  0  0
   62.2064   31.6107   51.9227 H   0  0  0  0  0  0  0  0  0  0  0  0
   62.1066   29.9914   53.7962 H   0  0  0  0  0  0  0  0  0  0  0  0
   62.5106   26.6783   55.2167 H   0  0  0  0  0  0  0  0  0  0  0  0
   62.3830   25.6657   53.7385 H   0  0  0  0  0  0  0  0  0  0  0  0
   63.4270   27.1275   53.7385 H   0  0  0  0  0  0  0  0  0  0  0  0
   60.7223   26.9118   51.1042 H   0  0  0  0  0  0  0  0  0  0  0  0
   57.7013   28.8969   47.3750 H   0  0  0  0  0  0  0  0  0  0  0  0
   56.0700   27.0447   47.0418 H   0  0  0  0  0  0  0  0  0  0  0  0
  1  2  1  0
  2  3  1  0
  3  4  2  0
  4  5  1  0
  5  6  2  0
  6  7  1  0
  7  8  2  0
  7  9  1  0
  9 10  2  0
 10 11  1  0
 11 12  1  0
 12 13  1  0
 13 14  2  0
 13 15  1  0
 15 16  1  0
 16 17  1  0
 17 18  1  0
 18 19  2  0
 19 20  1  0
 20 21  2  0
 21 22  1  0
 22 23  1  0
 22 24  2  0
 22 25  2  0
 21 26  1  0
 26 27  2  0
 11 28  1  0
 28 29  2  0
 29 30  1  0
 30 31  2  0
 31 32  1  0
 32 33  1  0
 31 34  1  0
 34 35  2  0
 35 36  1  0
 36 37  2  0
  6 38  1  0
 38 39  2  0
 39  3  1  0
 36  9  1  0
 27 18  1  0
 35 28  1  0
  1 40  1  0
  1 41  1  0
  1 42  1  0
  2 43  1  0
  2 44  1  0
  4 45  1  0
  5 46  1  0
 10 47  1  0
 12 48  1  0
 12 49  1  0
 15 50  1  0
 16 51  1  0
 16 52  1  0
 17 53  1  0
 17 54  1  0
 19 55  1  0
 20 56  1  0
 23 57  1  0
 26 58  1  0
 27 59  1  0
 29 60  1  0
 30 61  1  0
 33 62  1  0
 33 63  1  0
 33 64  1  0
 34 65  1  0
 38 66  1  0
 39 67  1  0
M  CHG  1  23  -1
M  END
>  <UniqueID>  (15) 
14

>  <SMILES>  (15) 
CCc1ccc(C(=O)c2cn(CC(=O)NCCc3ccc(S([NH-])(=O)=O)cc3)c3ccc(OC)cc3c2=O)cc1

>  <Energy>  (15) 
80.83454410511949

>  <Genealogy>  (15) 
CCc1ccc(C(=O)c2cn(CC(=O)NCCc3ccc(S([NH-])(=O)=O)cc3)c3ccc(OC)cc3c2=O)cc1 (protonated)
CCc1ccc(C(=O)c2cn(CC(=O)NCCc3ccc(S([NH-])(=O)=O)cc3)c3ccc(OC)cc3c2=O)cc1 (3D coordinates assigned)
CCc1ccc(C(=O)c2cn(CC(=O)NCCc3ccc(S([NH-])(=O)=O)cc3)c3ccc(OC)cc3c2=O)cc1 (optimized conformer: 80.83454410511949 kcal/mol)

>  <smiles>  (15) 
CCc1ccc(C(=O)c2cn(CC(=O)NCCc3ccc(S(N)(=O)=O)cc3)c3ccc(OC)cc3c2=O)cc1

>  <score_type>  (15) 
oracle

>  <origin>  (15) 
adg

>  <m_score__min__energy>  (15) 
-13.32

>  <m_primary>  (15) 
energy

$$$$
15:0
     RDKit          3D

 54 56  0  0  0  0  0  0  0  0999 V2000
   56.7541   34.6251   45.5317 H   0  0  0  0  0  0  0  0  0  0  0  0
   57.6440   34.1130   45.1370 C   0  0  0  0  0  0  0  0  0  0  0  0
   58.9570   34.3920   45.7510 C   0  0  0  0  0  0  0  0  0  0  0  0
   59.6470   35.3790   45.3650 O   0  0  0  0  0  0  0  0  0  0  0  0
   59.4320   33.5460   46.8100 N   0  0  0  0  0  0  0  0  0  0  0  0
   58.7990   32.7960   47.1740 H   0  0  0  0  0  0  0  0  0  0  0  0
   60.7560   33.6480   47.3690 C   0  0  0  0  0  0  0  0  0  0  0  0
   61.8630   33.7670   46.5090 C   0  0  0  0  0  0  0  0  0  0  0  0
   61.7035   33.8593   45.4245 H   0  0  0  0  0  0  0  0  0  0  0  0
   63.1600   33.7690   47.0190 C   0  0  0  0  0  0  0  0  0  0  0  0
   64.0171   33.8736   46.3375 H   0  0  0  0  0  0  0  0  0  0  0  0
   63.3740   33.6390   48.3890 C   0  0  0  0  0  0  0  0  0  0  0  0
   64.3997   33.6366   48.7865 H   0  0  0  0  0  0  0  0  0  0  0  0
   62.2920   33.5120   49.2570 C   0  0  0  0  0  0  0  0  0  0  0  0
   62.4705   33.4020   50.3368 H   0  0  0  0  0  0  0  0  0  0  0  0
   60.9730   33.5230   48.7670 C   0  0  0  0  0  0  0  0  0  0  0  0
   59.8520   33.4460   49.7410 C   0  0  0  0  0  0  0  0  0  0  0  0
   59.9810   33.8770   50.9170 O   0  0  0  0  0  0  0  0  0  0  0  0
   58.6400   32.8750   49.3680 O   0  0  0  0  0  0  0  0  0  0  0  0
   57.4980   33.2580   44.1160 C   0  0  0  0  0  0  0  0  0  0  0  0
   57.3869   33.6759   43.1045 H   0  0  0  0  0  0  0  0  0  0  0  0
   57.4770   31.7810   44.2660 C   0  0  0  0  0  0  0  0  0  0  0  0
   58.6920   31.0790   44.1550 C   0  0  0  0  0  0  0  0  0  0  0  0
   59.6265   31.6336   43.9844 H   0  0  0  0  0  0  0  0  0  0  0  0
   58.7250   29.6850   44.2590 C   0  0  0  0  0  0  0  0  0  0  0  0
   59.6814   29.1499   44.1649 H   0  0  0  0  0  0  0  0  0  0  0  0
   57.5360   28.9650   44.4840 C   0  0  0  0  0  0  0  0  0  0  0  0
   57.5120   27.5660   44.5550 O   0  0  0  0  0  0  0  0  0  0  0  0
   57.8390   26.8070   45.7150 C   0  0  0  0  0  0  0  0  0  0  0  0
   58.6312   27.3212   46.2790 H   0  0  0  0  0  0  0  0  0  0  0  0
   58.1930   25.8098   45.4145 H   0  0  0  0  0  0  0  0  0  0  0  0
   56.5970   26.6650   46.5940 C   0  0  0  0  0  0  0  0  0  0  0  0
   56.2800   27.6617   46.9349 H   0  0  0  0  0  0  0  0  0  0  0  0
   56.8447   26.0278   47.4557 H   0  0  0  0  0  0  0  0  0  0  0  0
   55.5290   26.0570   45.8650 O   0  0  0  0  0  0  0  0  0  0  0  0
   55.1100   24.7210   46.0000 C   0  0  0  0  0  0  0  0  0  0  0  0
   55.8920   23.7420   46.6390 C   0  0  0  0  0  0  0  0  0  0  0  0
   56.8746   24.0097   47.0547 H   0  0  0  0  0  0  0  0  0  0  0  0
   55.4230   22.4290   46.7470 C   0  0  0  0  0  0  0  0  0  0  0  0
   56.0375   21.6691   47.2519 H   0  0  0  0  0  0  0  0  0  0  0  0
   54.1820   22.0770   46.2190 C   0  0  0  0  0  0  0  0  0  0  0  0
   53.8195   21.0424   46.3093 H   0  0  0  0  0  0  0  0  0  0  0  0
   53.3910   23.0470   45.5690 C   0  0  0  0  0  0  0  0  0  0  0  0
   52.1480   22.7420   44.9950 O   0  0  0  0  0  0  0  0  0  0  0  0
   51.1040   23.6950   44.7900 C   0  0  0  0  0  0  0  0  0  0  0  0
   50.7261   24.0400   45.7637 H   0  0  0  0  0  0  0  0  0  0  0  0
   51.4965   24.5528   44.2242 H   0  0  0  0  0  0  0  0  0  0  0  0
   50.2854   23.2261   44.2242 H   0  0  0  0  0  0  0  0  0  0  0  0
   53.8590   24.3650   45.4790 C   0  0  0  0  0  0  0  0  0  0  0  0
   53.2359   25.1301   44.9929 H   0  0  0  0  0  0  0  0  0  0  0  0
   56.3270   29.6620   44.6340 C   0  0  0  0  0  0  0  0  0  0  0  0
   55.1450   28.9660   44.8760 O   0  0  0  0  0  0  0  0  0  0  0  0
   56.2940   31.0550   44.5320 C   0  0  0  0  0  0  0  0  0  0  0  0
   55.3414   31.5900   44.6595 H   0  0  0  0  0  0  0  0  0  0  0  0
  1  2  1  0
  2  3  1  0
  3  4  2  0
  3  5  1  0
  5  6  1  0
  5  7  1  0
  7  8  2  0
  8  9  1  0
  8 10  1  0
 10 11  1  0
 10 12  2  0
 12 13  1  0
 12 14  1  0
 14 15  1  0
 14 16  2  0
 16 17  1  0
 17 18  2  0
 17 19  1  0
  2 20  2  0
 20 21  1  0
 20 22  1  0
 22 23  2  0
 23 24  1  0
 23 25  1  0
 25 26  1  0
 25 27  2  0
 27 28  1  0
 28 29  1  0
 29 30  1  0
 29 31  1  0
 29 32  1  0
 32 33  1  0
 32 34  1  0
 32 35  1  0
 35 36  1  0
 36 37  2  0
 37 38  1  0
 37 39  1  0
 39 40  1  0
 39 41  2  0
 41 42  1  0
 41 43  1  0
 43 44  1  0
 44 45  1  0
 45 46  1  0
 45 47  1  0
 45 48  1  0
 43 49  2  0
 49 50  1  0
 27 51  1  0
 51 52  1  0
 51 53  2  0
 53 54  1  0
 16  7  1  0
 53 22  1  0
 49 36  1  0
M  CHG  2  19  -1  52  -1
M  END
>  <UniqueID>  (16) 
15

>  <SMILES>  (16) 
COc1cccc(OCCOc2ccc(/C=C/C(=O)Nc3ccccc3C(=O)[O-])cc2[O-])c1

>  <Energy>  (16) 
64.41452666004581

>  <Genealogy>  (16) 
COc1cccc(OCCOc2ccc(C=CC(=O)Nc3ccccc3C(=O)[O-])cc2[O-])c1 (protonated)
COc1cccc(OCCOc2ccc(/C=C/C(=O)Nc3ccccc3C(=O)[O-])cc2[O-])c1 (cis-trans isomerization)
COc1cccc(OCCOc2ccc(/C=C/C(=O)Nc3ccccc3C(=O)[O-])cc2[O-])c1 (3D coordinates assigned)
COc1cccc(OCCOc2ccc(/C=C/C(=O)Nc3ccccc3C(=O)[O-])cc2[O-])c1 (optimized conformer: 64.41452666004581 kcal/mol)

>  <smiles>  (16) 
COc1cccc(OCCOc2ccc(C=CC(=O)Nc3ccccc3C(=O)O)cc2O)c1

>  <score_type>  (16) 
oracle

>  <origin>  (16) 
adg

>  <m_score__min__energy>  (16) 
-14.98

>  <m_primary>  (16) 
energy

$$$$
16:0
     RDKit          3D

 40 43  0  0  0  0  0  0  0  0999 V2000
   57.7726   32.0622   42.3057 H   0  0  0  0  0  0  0  0  0  0  0  0
   57.3570   31.4210   43.0970 C   0  0  0  0  0  0  0  0  0  0  0  0
   56.5420   29.9660   42.8610 S   0  0  0  0  0  0  0  0  0  0  0  0
   56.2960   29.7220   44.5000 C   0  0  0  0  0  0  0  0  0  0  0  0
   55.6890   28.6830   44.9930 N   0  0  0  0  0  0  0  0  0  0  0  0
   56.3210   27.5470   45.6010 C   0  0  0  0  0  0  0  0  0  0  0  0
   55.5580   26.4980   46.0010 N   0  0  0  0  0  0  0  0  0  0  0  0
   56.1360   25.4090   46.5690 C   0  0  0  0  0  0  0  0  0  0  0  0
   55.4250   24.4390   46.9350 O   0  0  0  0  0  0  0  0  0  0  0  0
   57.4820   25.3670   46.7400 N   0  0  0  0  0  0  0  0  0  0  0  0
   58.2470   26.4140   46.3450 C   0  0  0  0  0  0  0  0  0  0  0  0
   60.0250   26.3540   46.5510 S   0  0  0  0  0  0  0  0  0  0  0  0
   60.3300   27.9540   45.7200 C   0  0  0  0  0  0  0  0  0  0  0  0
   61.3356   27.9422   45.2744 H   0  0  0  0  0  0  0  0  0  0  0  0
   59.5658   28.0964   44.9417 H   0  0  0  0  0  0  0  0  0  0  0  0
   60.2380   29.0940   46.6970 C   0  0  0  0  0  0  0  0  0  0  0  0
   60.9320   30.2900   46.4500 C   0  0  0  0  0  0  0  0  0  0  0  0
   61.5650   30.3815   45.5551 H   0  0  0  0  0  0  0  0  0  0  0  0
   60.8210   31.3650   47.3380 C   0  0  0  0  0  0  0  0  0  0  0  0
   61.3691   32.2984   47.1423 H   0  0  0  0  0  0  0  0  0  0  0  0
   60.0140   31.2540   48.4740 C   0  0  0  0  0  0  0  0  0  0  0  0
   59.9276   32.1001   49.1716 H   0  0  0  0  0  0  0  0  0  0  0  0
   59.3170   30.0690   48.7240 C   0  0  0  0  0  0  0  0  0  0  0  0
   58.6809   29.9840   49.6174 H   0  0  0  0  0  0  0  0  0  0  0  0
   59.4270   28.9910   47.8400 C   0  0  0  0  0  0  0  0  0  0  0  0
   58.8770   28.0596   48.0400 H   0  0  0  0  0  0  0  0  0  0  0  0
   57.6680   27.5010   45.7810 N   0  0  0  0  0  0  0  0  0  0  0  0
   56.8220   30.7200   45.2420 N   0  0  0  0  0  0  0  0  0  0  0  0
   57.4150   31.6750   44.4740 C   0  0  0  0  0  0  0  0  0  0  0  0
   58.0660   32.8620   45.0910 C   0  0  0  0  0  0  0  0  0  0  0  0
   58.7550   33.8180   44.3160 C   0  0  0  0  0  0  0  0  0  0  0  0
   58.8202   33.6920   43.2252 H   0  0  0  0  0  0  0  0  0  0  0  0
   59.3560   34.9250   44.9240 C   0  0  0  0  0  0  0  0  0  0  0  0
   59.8930   35.6629   44.3099 H   0  0  0  0  0  0  0  0  0  0  0  0
   59.2770   35.0970   46.3070 C   0  0  0  0  0  0  0  0  0  0  0  0
   59.7522   35.9680   46.7820 H   0  0  0  0  0  0  0  0  0  0  0  0
   58.5940   34.1620   47.0860 C   0  0  0  0  0  0  0  0  0  0  0  0
   58.5299   34.2979   48.1757 H   0  0  0  0  0  0  0  0  0  0  0  0
   57.9910   33.0530   46.4850 C   0  0  0  0  0  0  0  0  0  0  0  0
   57.4527   32.3223   47.1066 H   0  0  0  0  0  0  0  0  0  0  0  0
  1  2  1  0
  2  3  1  0
  3  4  1  0
  4  5  2  0
  5  6  1  0
  6  7  2  0
  7  8  1  0
  8  9  2  0
  8 10  1  0
 10 11  2  0
 11 12  1  0
 12 13  1  0
 13 14  1  0
 13 15  1  0
 13 16  1  0
 16 17  2  0
 17 18  1  0
 17 19  1  0
 19 20  1  0
 19 21  2  0
 21 22  1  0
 21 23  1  0
 23 24  1  0
 23 25  2  0
 25 26  1  0
 11 27  1  0
  4 28  1  0
 28 29  1  0
 29 30  1  0
 30 31  2  0
 31 32  1  0
 31 33  1  0
 33 34  1  0
 33 35  2  0
 35 36  1  0
 35 37  1  0
 37 38  1  0
 37 39  2  0
 39 40  1  0
 29  2  2  0
 39 30  1  0
 27  6  1  0
 25 16  1  0
M  CHG  2  27  -1  28  -1
M  END
>  <UniqueID>  (17) 
16

>  <SMILES>  (17) 
O=c1nc(/N=c2\[n-]c(-c3ccccc3)cs2)[n-]c(SCc2ccccc2)n1

>  <Energy>  (17) 
74.4062214507445

>  <Genealogy>  (17) 
O=c1nc(N=c2[n-]c(-c3ccccc3)cs2)[n-]c(SCc2ccccc2)n1 (protonated)
O=c1nc(/N=c2\[n-]c(-c3ccccc3)cs2)[n-]c(SCc2ccccc2)n1 (cis-trans isomerization)
O=c1nc(/N=c2\[n-]c(-c3ccccc3)cs2)[n-]c(SCc2ccccc2)n1 (3D coordinates assigned)
O=c1nc(/N=c2\[n-]c(-c3ccccc3)cs2)[n-]c(SCc2ccccc2)n1 (optimized conformer: 74.4062214507445 kcal/mol)

>  <smiles>  (17) 
O=c1nc(N=c2[nH]c(-c3ccccc3)cs2)[nH]c(SCc2ccccc2)n1

>  <score_type>  (17) 
oracle

>  <origin>  (17) 
adg

>  <m_score__min__energy>  (17) 
-12.41

>  <m_primary>  (17) 
energy

$$$$
17:0
     RDKit          3D

 55 57  0  0  0  0  0  0  0  0999 V2000
   56.7100   23.1410   43.7500 C   0  0  0  0  0  0  0  0  0  0  0  0
   57.1930   23.8340   45.0200 C   0  0  0  0  0  0  0  0  0  0  0  0
   57.0530   25.2840   44.9000 N   0  0  0  0  0  0  0  0  0  0  0  0
   58.1150   26.1920   45.2390 C   0  0  0  0  0  0  0  0  0  0  0  0
   59.2460   25.7400   45.5630 O   0  0  0  0  0  0  0  0  0  0  0  0
   57.9120   27.6570   45.1750 C   0  0  0  0  0  0  0  0  0  0  0  0
   59.0190   28.4940   44.9540 C   0  0  0  0  0  0  0  0  0  0  0  0
   58.8560   29.8790   44.8740 C   0  0  0  0  0  0  0  0  0  0  0  0
   57.5940   30.4560   45.0340 C   0  0  0  0  0  0  0  0  0  0  0  0
   57.4730   31.8490   44.9240 O   0  0  0  0  0  0  0  0  0  0  0  0
   58.1180   32.7910   45.7380 C   0  0  0  0  0  0  0  0  0  0  0  0
   58.4820   34.0640   45.2600 C   0  0  0  0  0  0  0  0  0  0  0  0
   59.1020   34.9830   46.1110 C   0  0  0  0  0  0  0  0  0  0  0  0
   59.3520   34.6480   47.4430 C   0  0  0  0  0  0  0  0  0  0  0  0
   58.9820   33.3890   47.9340 C   0  0  0  0  0  0  0  0  0  0  0  0
   59.2610   32.9850   49.6250 S   0  0  0  0  0  0  0  0  0  0  0  0
   57.9800   32.4920   50.2360 O   0  0  0  0  0  0  0  0  0  0  0  0
   59.7100   34.2070   50.3780 O   0  0  0  0  0  0  0  0  0  0  0  0
   60.5060   31.7100   49.7560 C   0  0  0  0  0  0  0  0  0  0  0  0
   61.0000   31.2780   48.3720 C   0  0  0  0  0  0  0  0  0  0  0  0
   62.2710   31.9600   48.0420 N   0  0  0  0  0  0  0  0  0  0  0  0
   62.0680   32.9440   46.9590 C   0  0  0  0  0  0  0  0  0  0  0  0
   63.3090   33.8400   46.7800 C   0  0  0  0  0  0  0  0  0  0  0  0
   64.4260   33.2960   47.4540 O   0  0  0  0  0  0  0  0  0  0  0  0
   64.1890   33.2980   48.8520 C   0  0  0  0  0  0  0  0  0  0  0  0
   62.8470   32.6330   49.2220 C   0  0  0  0  0  0  0  0  0  0  0  0
   58.3570   32.4680   47.0800 C   0  0  0  0  0  0  0  0  0  0  0  0
   56.4820   29.6260   45.2550 C   0  0  0  0  0  0  0  0  0  0  0  0
   56.6380   28.2370   45.3420 C   0  0  0  0  0  0  0  0  0  0  0  0
   55.5240   27.4540   45.6210 O   0  0  0  0  0  0  0  0  0  0  0  0
   56.1001   22.2660   44.0191 H   0  0  0  0  0  0  0  0  0  0  0  0
   56.1039   23.8422   43.1575 H   0  0  0  0  0  0  0  0  0  0  0  0
   57.5776   22.8151   43.1575 H   0  0  0  0  0  0  0  0  0  0  0  0
   56.5947   23.4825   45.8735 H   0  0  0  0  0  0  0  0  0  0  0  0
   58.2549   23.5918   45.1741 H   0  0  0  0  0  0  0  0  0  0  0  0
   56.1540   25.6580   44.5210 H   0  0  0  0  0  0  0  0  0  0  0  0
   60.0216   28.0551   44.8432 H   0  0  0  0  0  0  0  0  0  0  0  0
   59.7288   30.5207   44.6834 H   0  0  0  0  0  0  0  0  0  0  0  0
   58.2779   34.3361   44.2139 H   0  0  0  0  0  0  0  0  0  0  0  0
   59.3938   35.9729   45.7303 H   0  0  0  0  0  0  0  0  0  0  0  0
   59.8408   35.3744   48.1089 H   0  0  0  0  0  0  0  0  0  0  0  0
   61.3566   32.0966   50.3366 H   0  0  0  0  0  0  0  0  0  0  0  0
   60.0613   30.8373   50.2565 H   0  0  0  0  0  0  0  0  0  0  0  0
   61.1609   30.1898   48.3679 H   0  0  0  0  0  0  0  0  0  0  0  0
   60.2433   31.5510   47.6218 H   0  0  0  0  0  0  0  0  0  0  0  0
   61.8742   32.4075   46.0185 H   0  0  0  0  0  0  0  0  0  0  0  0
   61.2127   33.5827   47.2246 H   0  0  0  0  0  0  0  0  0  0  0  0
   63.5410   33.9237   45.7080 H   0  0  0  0  0  0  0  0  0  0  0  0
   63.0909   34.8310   47.2048 H   0  0  0  0  0  0  0  0  0  0  0  0
   65.0034   32.7506   49.3491 H   0  0  0  0  0  0  0  0  0  0  0  0
   64.1466   34.3460   49.1835 H   0  0  0  0  0  0  0  0  0  0  0  0
   63.0155   31.8918   50.0171 H   0  0  0  0  0  0  0  0  0  0  0  0
   62.1472   33.4060   49.5723 H   0  0  0  0  0  0  0  0  0  0  0  0
   58.0522   31.4845   47.4672 H   0  0  0  0  0  0  0  0  0  0  0  0
   55.4814   30.0706   45.3605 H   0  0  0  0  0  0  0  0  0  0  0  0
  1  2  1  0
  2  3  1  0
  3  4  1  0
  4  5  2  0
  4  6  1  0
  6  7  2  0
  7  8  1  0
  8  9  2  0
  9 10  1  0
 10 11  1  0
 11 12  2  0
 12 13  1  0
 13 14  2  0
 14 15  1  0
 15 16  1  0
 16 17  2  0
 16 18  2  0
 16 19  1  0
 19 20  1  0
 20 21  1  0
 21 22  1  0
 22 23  1  0
 23 24  1  0
 24 25  1  0
 25 26  1  0
 15 27  2  0
  9 28  1  0
 28 29  2  0
 29 30  1  0
 29  6  1  0
 27 11  1  0
 26 21  1  0
  1 31  1  0
  1 32  1  0
  1 33  1  0
  2 34  1  0
  2 35  1  0
  3 36  1  0
  7 37  1  0
  8 38  1  0
 12 39  1  0
 13 40  1  0
 14 41  1  0
 19 42  1  0
 19 43  1  0
 20 44  1  0
 20 45  1  0
 22 46  1  0
 22 47  1  0
 23 48  1  0
 23 49  1  0
 25 50  1  0
 25 51  1  0
 26 52  1  0
 26 53  1  0
 27 54  1  0
 28 55  1  0
M  CHG  1  30  -1
M  END
>  <UniqueID>  (18) 
17

>  <SMILES>  (18) 
CCNC(=O)c1ccc(Oc2cccc(S(=O)(=O)CCN3CCOCC3)c2)cc1[O-]

>  <Energy>  (18) 
67.4689357471729

>  <Genealogy>  (18) 
CCNC(=O)c1ccc(Oc2cccc(S(=O)(=O)CCN3CCOCC3)c2)cc1[O-] (protonated)
CCNC(=O)c1ccc(Oc2cccc(S(=O)(=O)CCN3CCOCC3)c2)cc1[O-] (3D coordinates assigned)
CCNC(=O)c1ccc(Oc2cccc(S(=O)(=O)CCN3CCOCC3)c2)cc1[O-] (nonaromatic ring conformer: 67.4689357471729 kcal/mol)

>  <smiles>  (18) 
CCNC(=O)c1ccc(Oc2cccc(S(=O)(=O)CCN3CCOCC3)c2)cc1O

>  <score_type>  (18) 
oracle

>  <origin>  (18) 
adg

>  <m_score__min__energy>  (18) 
-12.949999999999999

>  <m_primary>  (18) 
energy

$$$$
18:0
     RDKit          3D

 41 44  0  0  0  0  0  0  0  0999 V2000
   54.6780   26.3170   46.0460 N   0  0  0  0  0  0  0  0  0  0  0  0
   55.9970   25.8480   46.0850 C   0  0  0  0  0  0  0  0  0  0  0  0
   55.9730   24.5120   46.2950 O   0  0  0  0  0  0  0  0  0  0  0  0
   57.3000   26.3000   45.9790 C   0  0  0  0  0  0  0  0  0  0  0  0
   56.7450   27.7900   45.3900 C   0  0  0  0  0  0  0  0  0  0  0  0
   57.5310   28.7620   45.0600 C   0  0  0  0  0  0  0  0  0  0  0  0
   56.8230   30.2250   44.2950 S   0  0  0  0  0  0  0  0  0  0  0  0
   56.7850   29.9110   42.7910 O   0  0  0  0  0  0  0  0  0  0  0  0
   55.3340   30.2310   44.6750 O   0  0  0  0  0  0  0  0  0  0  0  0
   57.5470   31.5660   44.7050 N   0  0  0  0  0  0  0  0  0  0  0  0
   58.1580   32.6710   45.0610 C   0  0  0  0  0  0  0  0  0  0  0  0
   57.8890   33.9130   44.4740 C   0  0  0  0  0  0  0  0  0  0  0  0
   58.6340   35.0160   44.9170 C   0  0  0  0  0  0  0  0  0  0  0  0
   59.5990   34.9260   45.8880 C   0  0  0  0  0  0  0  0  0  0  0  0
   59.8370   33.7070   46.4410 C   0  0  0  0  0  0  0  0  0  0  0  0
   60.9370   33.4800   47.4450 C   0  0  0  0  0  0  0  0  0  0  0  0
   62.0010   33.0040   47.4900 N   0  0  0  0  0  0  0  0  0  0  0  0
   62.8210   32.9760   48.5470 C   0  0  0  0  0  0  0  0  0  0  0  0
   64.1070   32.4050   48.5690 C   0  0  0  0  0  0  0  0  0  0  0  0
   64.8120   32.4970   49.7730 C   0  0  0  0  0  0  0  0  0  0  0  0
   64.3220   33.0960   50.8900 C   0  0  0  0  0  0  0  0  0  0  0  0
   63.0400   33.6660   50.8780 C   0  0  0  0  0  0  0  0  0  0  0  0
   62.3780   33.5520   49.6650 C   0  0  0  0  0  0  0  0  0  0  0  0
   60.7210   34.1570   49.1830 S   0  0  0  0  0  0  0  0  0  0  0  0
   59.1650   32.5960   46.0720 C   0  0  0  0  0  0  0  0  0  0  0  0
   58.9270   28.8240   45.1070 C   0  0  0  0  0  0  0  0  0  0  0  0
   59.4370   27.6100   45.5920 C   0  0  0  0  0  0  0  0  0  0  0  0
   58.5120   26.7210   45.8810 C   0  0  0  0  0  0  0  0  0  0  0  0
   59.2610   25.4520   46.3960 O   0  0  0  0  0  0  0  0  0  0  0  0
   54.3850   27.0910   46.7520 H   0  0  0  0  0  0  0  0  0  0  0  0
   55.6601   27.9372   45.2831 H   0  0  0  0  0  0  0  0  0  0  0  0
   57.1212   34.0202   43.6936 H   0  0  0  0  0  0  0  0  0  0  0  0
   58.4352   35.9988   44.4648 H   0  0  0  0  0  0  0  0  0  0  0  0
   60.1634   35.8137   46.2096 H   0  0  0  0  0  0  0  0  0  0  0  0
   64.5357   31.9115   47.6843 H   0  0  0  0  0  0  0  0  0  0  0  0
   65.8203   32.0598   49.8186 H   0  0  0  0  0  0  0  0  0  0  0  0
   64.9314   33.1341   51.8050 H   0  0  0  0  0  0  0  0  0  0  0  0
   62.5981   34.1608   51.7554 H   0  0  0  0  0  0  0  0  0  0  0  0
   59.3928   31.6319   46.5501 H   0  0  0  0  0  0  0  0  0  0  0  0
   59.5332   29.6922   44.8091 H   0  0  0  0  0  0  0  0  0  0  0  0
   60.5129   27.4193   45.7189 H   0  0  0  0  0  0  0  0  0  0  0  0
  1  2  1  0
  2  3  2  0
  2  4  1  0
  4  5  2  0
  5  6  1  0
  6  7  1  0
  7  8  2  0
  7  9  2  0
  7 10  1  0
 10 11  1  0
 11 12  2  0
 12 13  1  0
 13 14  2  0
 14 15  1  0
 15 16  1  0
 16 17  2  0
 17 18  1  0
 18 19  2  0
 19 20  1  0
 20 21  2  0
 21 22  1  0
 22 23  2  0
 23 24  1  0
 15 25  2  0
  6 26  2  0
 26 27  1  0
 27 28  2  0
 28 29  1  0
 28  4  1  0
 25 11  1  0
 24 16  1  0
 23 18  1  0
  1 30  1  0
  5 31  1  0
 12 32  1  0
 13 33  1  0
 14 34  1  0
 19 35  1  0
 20 36  1  0
 21 37  1  0
 22 38  1  0
 25 39  1  0
 26 40  1  0
 27 41  1  0
M  CHG  3   1  -1  10  -1  29  -1
M  END
>  <UniqueID>  (19) 
18

>  <SMILES>  (19) 
[NH-]C(=O)c1cc(S(=O)(=O)[N-]c2cccc(-c3nc4ccccc4s3)c2)ccc1[O-]

>  <Energy>  (19) 
573.6303451994398

>  <Genealogy>  (19) 
[NH-]C(=O)c1cc(S(=O)(=O)[N-]c2cccc(-c3nc4ccccc4s3)c2)ccc1[O-] (protonated)
[NH-]C(=O)c1cc(S(=O)(=O)[N-]c2cccc(-c3nc4ccccc4s3)c2)ccc1[O-] (3D coordinates assigned)
[NH-]C(=O)c1cc(S(=O)(=O)[N-]c2cccc(-c3nc4ccccc4s3)c2)ccc1[O-] (optimized conformer: 573.6303451994398 kcal/mol)

>  <smiles>  (19) 
NC(=O)c1cc(S(=O)(=O)Nc2cccc(-c3nc4ccccc4s3)c2)ccc1O

>  <score_type>  (19) 
oracle

>  <origin>  (19) 
adg

>  <m_score__min__energy>  (19) 
-16.550000000000001

>  <m_primary>  (19) 
energy

$$$$
19:0
     RDKit          3D

 22 22  0  0  0  0  0  0  0  0999 V2000
   55.7780   29.7130   46.0070 H   0  0  0  0  0  0  0  0  0  0  0  0
   56.5360   29.5630   45.3520 O   0  0  0  0  0  0  0  0  0  0  0  0
   57.0470   30.5950   44.5640 C   0  0  0  0  0  0  0  0  0  0  0  0
   56.9240   30.6110   43.1750 C   0  0  0  0  0  0  0  0  0  0  0  0
   56.2670   29.5720   42.3260 C   0  0  0  0  0  0  0  0  0  0  0  0
   55.7908   28.8189   42.9710 H   0  0  0  0  0  0  0  0  0  0  0  0
   55.5041   30.0461   41.6910 H   0  0  0  0  0  0  0  0  0  0  0  0
   57.0224   29.0860   41.6910 H   0  0  0  0  0  0  0  0  0  0  0  0
   57.7270   31.9610   42.5920 S   0  0  0  0  0  0  0  0  0  0  0  0
   58.1630   32.5090   44.1190 C   0  0  0  0  0  0  0  0  0  0  0  0
   58.8710   33.5960   44.2610 N   0  0  0  0  0  0  0  0  0  0  0  0
   58.6610   34.7120   45.1250 C   0  0  0  0  0  0  0  0  0  0  0  0
   57.8604   35.4367   44.9155 H   0  0  0  0  0  0  0  0  0  0  0  0
   59.6250   34.8980   46.4280 S   0  0  0  0  0  0  0  0  0  0  0  0
   57.7300   31.6540   45.1040 N   0  0  0  0  0  0  0  0  0  0  0  0
   58.0900   31.6740   46.5330 C   0  0  0  0  0  0  0  0  0  0  0  0
   57.2513   31.2740   47.1216 H   0  0  0  0  0  0  0  0  0  0  0  0
   58.3046   32.7119   46.8276 H   0  0  0  0  0  0  0  0  0  0  0  0
   59.3320   30.8260   46.7920 C   0  0  0  0  0  0  0  0  0  0  0  0
   59.4851   30.7215   47.8763 H   0  0  0  0  0  0  0  0  0  0  0  0
   59.1967   29.8309   46.3432 H   0  0  0  0  0  0  0  0  0  0  0  0
   60.2095   31.3144   46.3432 H   0  0  0  0  0  0  0  0  0  0  0  0
  1  2  1  0
  2  3  1  0
  3  4  2  0
  4  5  1  0
  5  6  1  0
  5  7  1  0
  5  8  1  0
  4  9  1  0
  9 10  1  0
 10 11  2  0
 11 12  1  0
 12 13  1  0
 12 14  2  0
 10 15  1  0
 15 16  1  0
 16 17  1  0
 16 18  1  0
 16 19  1  0
 19 20  1  0
 19 21  1  0
 19 22  1  0
 15  3  1  0
M  END
>  <UniqueID>  (20) 
19

>  <SMILES>  (20) 
CCn1c(O)c(C)s/c1=N/C=S

>  <Energy>  (20) 
59.29313334287569

>  <Genealogy>  (20) 
CCn1c(O)c(C)s/c1=N/C=S (cis-trans isomerization)
CCn1c(O)c(C)s/c1=N/C=S (3D coordinates assigned)
CCn1c(O)c(C)s/c1=N/C=S (optimized conformer: 59.29313334287569 kcal/mol)

>  <smiles>  (20) 
CCn1c(O)c(C)sc1=NC=S

>  <score_type>  (20) 
oracle

>  <origin>  (20) 
adg

>  <m_score__min__energy>  (20) 
-4.9800000000000004

>  <m_primary>  (20) 
energy

$$$$
20:0
     RDKit          3D

 35 37  0  0  0  0  0  0  0  0999 V2000
   55.1330   28.3100   44.4720 H   0  0  0  0  0  0  0  0  0  0  0  0
   55.1350   29.3500   44.3730 N   0  0  0  0  0  0  0  0  0  0  0  0
   56.1650   30.0540   44.7130 C   0  0  0  0  0  0  0  0  0  0  0  0
   56.5150   31.1940   44.0820 N   0  0  0  0  0  0  0  0  0  0  0  0
   57.6150   31.5940   44.7440 C   0  0  0  0  0  0  0  0  0  0  0  0
   58.2030   32.4955   44.5171 H   0  0  0  0  0  0  0  0  0  0  0  0
   57.8890   30.6930   45.7540 C   0  0  0  0  0  0  0  0  0  0  0  0
   59.0220   30.7590   46.7090 C   0  0  0  0  0  0  0  0  0  0  0  0
   59.7550   31.9550   46.8210 C   0  0  0  0  0  0  0  0  0  0  0  0
   59.4286   32.8479   46.2677 H   0  0  0  0  0  0  0  0  0  0  0  0
   60.8930   32.0190   47.6280 C   0  0  0  0  0  0  0  0  0  0  0  0
   61.4548   32.9610   47.7114 H   0  0  0  0  0  0  0  0  0  0  0  0
   61.3180   30.8910   48.3280 C   0  0  0  0  0  0  0  0  0  0  0  0
   62.2246   30.9392   48.9490 H   0  0  0  0  0  0  0  0  0  0  0  0
   60.5950   29.7010   48.2420 C   0  0  0  0  0  0  0  0  0  0  0  0
   60.9402   28.8121   48.7903 H   0  0  0  0  0  0  0  0  0  0  0  0
   59.4330   29.6290   47.4630 C   0  0  0  0  0  0  0  0  0  0  0  0
   58.6920   28.4010   47.4680 N   0  0  0  0  0  0  0  0  0  0  0  0
   59.1390   27.1920   46.8420 C   0  0  0  0  0  0  0  0  0  0  0  0
   60.3720   26.9270   46.7990 O   0  0  0  0  0  0  0  0  0  0  0  0
   58.1520   26.2650   46.2430 C   0  0  0  0  0  0  0  0  0  0  0  0
   57.9510   26.3120   44.8120 C   0  0  0  0  0  0  0  0  0  0  0  0
   57.7900   26.3480   43.6660 N   0  0  0  0  0  0  0  0  0  0  0  0
   57.4070   25.4560   47.0220 C   0  0  0  0  0  0  0  0  0  0  0  0
   57.6718   25.3773   48.0868 H   0  0  0  0  0  0  0  0  0  0  0  0
   56.2530   24.6660   46.5320 C   0  0  0  0  0  0  0  0  0  0  0  0
   55.1330   25.3210   45.9980 C   0  0  0  0  0  0  0  0  0  0  0  0
   55.1060   26.7070   45.8940 O   0  0  0  0  0  0  0  0  0  0  0  0
   54.0660   24.5990   45.5670 N   0  0  0  0  0  0  0  0  0  0  0  0
   54.0550   23.2440   45.6550 C   0  0  0  0  0  0  0  0  0  0  0  0
   53.0570   22.5970   45.2440 O   0  0  0  0  0  0  0  0  0  0  0  0
   55.1150   22.5890   46.1910 N   0  0  0  0  0  0  0  0  0  0  0  0
   56.2060   23.2630   46.6370 C   0  0  0  0  0  0  0  0  0  0  0  0
   57.1560   22.6230   47.1610 O   0  0  0  0  0  0  0  0  0  0  0  0
   56.9740   29.7060   45.7330 N   0  0  0  0  0  0  0  0  0  0  0  0
  1  2  1  0
  2  3  2  3
  3  4  1  0
  4  5  1  0
  5  6  1  0
  5  7  2  0
  7  8  1  0
  8  9  2  0
  9 10  1  0
  9 11  1  0
 11 12  1  0
 11 13  2  0
 13 14  1  0
 13 15  1  0
 15 16  1  0
 15 17  2  0
 17 18  1  0
 18 19  1  0
 19 20  2  0
 19 21  1  0
 21 22  1  0
 22 23  3  0
 21 24  2  0
 24 25  1  0
 24 26  1  0
 26 27  2  0
 27 28  1  0
 27 29  1  0
 29 30  1  0
 30 31  2  0
 30 32  1  0
 32 33  1  0
 33 34  2  0
  7 35  1  0
 35  3  1  0
 17  8  1  0
 33 26  1  0
M  CHG  6   4  -1  18  -1  28  -1  29  -1  32  -1  35  -1
M  END
>  <UniqueID>  (21) 
20

>  <SMILES>  (21) 
N#C/C(=C\c1c([O-])[n-]c(=O)[n-]c1=O)C(=O)[N-]c1ccccc1-c1c[n-]c(=N)[n-]1

>  <Energy>  (21) 
84.2799939958453

>  <Genealogy>  (21) 
N#CC(=Cc1c([O-])[n-]c(=O)[n-]c1=O)C(=O)[N-]c1ccccc1-c1c[n-]c(=N)[n-]1 (protonated)
N#C/C(=C\c1c([O-])[n-]c(=O)[n-]c1=O)C(=O)[N-]c1ccccc1-c1c[n-]c(=N)[n-]1 (cis-trans isomerization)
N#C/C(=C\c1c([O-])[n-]c(=O)[n-]c1=O)C(=O)[N-]c1ccccc1-c1c[n-]c(=N)[n-]1 (3D coordinates assigned)
N#C/C(=C\c1c([O-])[n-]c(=O)[n-]c1=O)C(=O)[N-]c1ccccc1-c1c[n-]c(=N)[n-]1 (optimized conformer: 84.2799939958453 kcal/mol)

>  <smiles>  (21) 
N#CC(=Cc1c(O)[nH]c(=O)[nH]c1=O)C(=O)Nc1ccccc1-c1c[nH]c(=N)[nH]1

>  <score_type>  (21) 
oracle

>  <origin>  (21) 
adg

>  <m_score__min__energy>  (21) 
-19.469999999999999

>  <m_primary>  (21) 
energy

$$$$
21:0
     RDKit          3D

 72 76  0  0  0  0  0  0  0  0999 V2000
   51.9660   23.3340   45.9560 C   0  0  0  0  0  0  0  0  0  0  0  0
   53.3650   23.6370   45.6830 N   0  0  0  0  0  0  0  0  0  0  0  0
   54.3590   23.5800   46.7160 C   0  0  0  0  0  0  0  0  0  0  0  0
   54.0570   23.1110   47.8470 O   0  0  0  0  0  0  0  0  0  0  0  0
   55.7520   24.0140   46.4640 C   0  0  0  0  0  0  0  0  0  0  0  0
   56.8180   23.0970   46.6080 C   0  0  0  0  0  0  0  0  0  0  0  0
   58.1510   23.4920   46.3730 C   0  0  0  0  0  0  0  0  0  0  0  0
   58.4470   24.8110   45.9970 C   0  0  0  0  0  0  0  0  0  0  0  0
   57.3860   25.7060   45.8570 C   0  0  0  0  0  0  0  0  0  0  0  0
   57.3630   27.0380   45.4910 C   0  0  0  0  0  0  0  0  0  0  0  0
   58.5050   27.8980   45.0160 C   0  0  0  0  0  0  0  0  0  0  0  0
   58.1630   29.3670   45.1790 C   0  0  0  0  0  0  0  0  0  0  0  0
   57.9360   30.1260   44.0160 C   0  0  0  0  0  0  0  0  0  0  0  0
   57.8110   31.5130   44.0790 C   0  0  0  0  0  0  0  0  0  0  0  0
   57.9310   32.1680   45.3050 C   0  0  0  0  0  0  0  0  0  0  0  0
   57.9970   33.9240   45.3920 S   0  0  0  0  0  0  0  0  0  0  0  0
   59.0250   34.4750   44.4430 O   0  0  0  0  0  0  0  0  0  0  0  0
   56.6480   34.4840   45.0370 O   0  0  0  0  0  0  0  0  0  0  0  0
   58.4050   34.3800   47.0140 N   0  0  0  0  0  0  0  0  0  0  0  0
   59.7200   34.2070   47.5490 C   0  0  0  0  0  0  0  0  0  0  0  0
   60.7240   34.5420   46.8620 O   0  0  0  0  0  0  0  0  0  0  0  0
   59.9080   33.6420   48.9060 C   0  0  0  0  0  0  0  0  0  0  0  0
   58.9730   32.7370   49.4430 C   0  0  0  0  0  0  0  0  0  0  0  0
   59.1480   32.2200   50.7300 C   0  0  0  0  0  0  0  0  0  0  0  0
   60.2560   32.5960   51.4960 C   0  0  0  0  0  0  0  0  0  0  0  0
   61.1970   33.4840   50.9690 C   0  0  0  0  0  0  0  0  0  0  0  0
   61.0290   34.0020   49.6780 C   0  0  0  0  0  0  0  0  0  0  0  0
   58.1120   31.4270   46.4750 C   0  0  0  0  0  0  0  0  0  0  0  0
   58.1830   30.0210   46.4450 C   0  0  0  0  0  0  0  0  0  0  0  0
   58.4580   29.2480   47.7240 C   0  0  0  0  0  0  0  0  0  0  0  0
   60.1740   29.2280   48.2510 S   0  0  0  0  0  0  0  0  0  0  0  0
   60.2480   29.6050   49.7030 O   0  0  0  0  0  0  0  0  0  0  0  0
   60.7360   27.8450   48.0860 O   0  0  0  0  0  0  0  0  0  0  0  0
   61.1300   30.3450   47.3310 N   0  0  0  0  0  0  0  0  0  0  0  0
   62.1590   31.1780   47.8750 C   0  0  0  0  0  0  0  0  0  0  0  0
   62.7410   31.9920   47.1100 O   0  0  0  0  0  0  0  0  0  0  0  0
   62.4950   31.1290   49.2710 N   0  0  0  0  0  0  0  0  0  0  0  0
   63.7460   31.5800   49.8270 C   0  0  0  0  0  0  0  0  0  0  0  0
   64.4490   32.6750   49.2850 C   0  0  0  0  0  0  0  0  0  0  0  0
   65.6550   33.0910   49.8610 C   0  0  0  0  0  0  0  0  0  0  0  0
   66.1850   32.4060   50.9550 C   0  0  0  0  0  0  0  0  0  0  0  0
   65.5200   31.2920   51.4660 C   0  0  0  0  0  0  0  0  0  0  0  0
   64.3100   30.8770   50.9030 C   0  0  0  0  0  0  0  0  0  0  0  0
   56.0210   27.3940   45.5510 C   0  0  0  0  0  0  0  0  0  0  0  0
   55.5220   28.6560   45.2530 O   0  0  0  0  0  0  0  0  0  0  0  0
   55.2310   26.3610   45.9220 N   0  0  0  0  0  0  0  0  0  0  0  0
   56.0810   25.3290   46.0910 C   0  0  0  0  0  0  0  0  0  0  0  0
   51.8039   23.2989   47.0434 H   0  0  0  0  0  0  0  0  0  0  0  0
   51.3289   24.1150   45.5153 H   0  0  0  0  0  0  0  0  0  0  0  0
   51.7092   22.3594   45.5153 H   0  0  0  0  0  0  0  0  0  0  0  0
   53.6490   23.8130   44.6940 H   0  0  0  0  0  0  0  0  0  0  0  0
   56.6046   22.0604   46.9077 H   0  0  0  0  0  0  0  0  0  0  0  0
   58.9649   22.7606   46.4853 H   0  0  0  0  0  0  0  0  0  0  0  0
   59.4845   25.1298   45.8180 H   0  0  0  0  0  0  0  0  0  0  0  0
   59.4033   27.6670   45.6074 H   0  0  0  0  0  0  0  0  0  0  0  0
   58.6900   27.6903   43.9517 H   0  0  0  0  0  0  0  0  0  0  0  0
   57.8561   29.6178   43.0437 H   0  0  0  0  0  0  0  0  0  0  0  0
   57.6179   32.0905   43.1629 H   0  0  0  0  0  0  0  0  0  0  0  0
   58.0996   32.4349   48.8465 H   0  0  0  0  0  0  0  0  0  0  0  0
   58.4112   31.5146   51.1418 H   0  0  0  0  0  0  0  0  0  0  0  0
   60.3863   32.1934   52.5113 H   0  0  0  0  0  0  0  0  0  0  0  0
   62.0714   33.7771   51.5687 H   0  0  0  0  0  0  0  0  0  0  0  0
   61.7776   34.6942   49.2651 H   0  0  0  0  0  0  0  0  0  0  0  0
   58.2007   31.9515   47.4378 H   0  0  0  0  0  0  0  0  0  0  0  0
   57.8599   29.6990   48.5295 H   0  0  0  0  0  0  0  0  0  0  0  0
   58.1916   28.2020   47.5118 H   0  0  0  0  0  0  0  0  0  0  0  0
   61.7520   30.8270   49.9400 H   0  0  0  0  0  0  0  0  0  0  0  0
   64.0489   33.2038   48.4073 H   0  0  0  0  0  0  0  0  0  0  0  0
   66.1871   33.9614   49.4496 H   0  0  0  0  0  0  0  0  0  0  0  0
   67.1259   32.7442   51.4136 H   0  0  0  0  0  0  0  0  0  0  0  0
   65.9488   30.7384   52.3143 H   0  0  0  0  0  0  0  0  0  0  0  0
   63.7955   29.9923   51.3064 H   0  0  0  0  0  0  0  0  0  0  0  0
  1  2  1  0
  2  3  1  0
  3  4  2  0
  3  5  1  0
  5  6  2  0
  6  7  1  0
  7  8  2  0
  8  9  1  0
  9 10  1  0
 10 11  1  0
 11 12  1  0
 12 13  2  0
 13 14  1  0
 14 15  2  0
 15 16  1  0
 16 17  2  0
 16 18  2  0
 16 19  1  0
 19 20  1  0
 20 21  2  0
 20 22  1  0
 22 23  2  0
 23 24  1  0
 24 25  2  0
 25 26  1  0
 26 27  2  0
 15 28  1  0
 28 29  2  0
 29 30  1  0
 30 31  1  0
 31 32  2  0
 31 33  2  0
 31 34  1  0
 34 35  1  0
 35 36  2  0
 35 37  1  0
 37 38  1  0
 38 39  2  0
 39 40  1  0
 40 41  2  0
 41 42  1  0
 42 43  2  0
 10 44  2  0
 44 45  1  0
 44 46  1  0
 46 47  1  0
 47  5  1  0
 47  9  2  0
 29 12  1  0
 43 38  1  0
 27 22  1  0
  1 48  1  0
  1 49  1  0
  1 50  1  0
  2 51  1  0
  6 52  1  0
  7 53  1  0
  8 54  1  0
 11 55  1  0
 11 56  1  0
 13 57  1  0
 14 58  1  0
 23 59  1  0
 24 60  1  0
 25 61  1  0
 26 62  1  0
 27 63  1  0
 28 64  1  0
 30 65  1  0
 30 66  1  0
 37 67  1  0
 39 68  1  0
 40 69  1  0
 41 70  1  0
 42 71  1  0
 43 72  1  0
M  CHG  4  19  -1  34  -1  45  -1  46  -1
M  END
>  <UniqueID>  (22) 
21

>  <SMILES>  (22) 
CNC(=O)c1cccc2c(Cc3ccc(S(=O)(=O)[N-]C(=O)c4ccccc4)cc3CS(=O)(=O)[N-]C(=O)Nc3ccccc3)c([O-])[n-]c12

>  <Energy>  (22) 
110.89917042722408

>  <Genealogy>  (22) 
CNC(=O)c1cccc2c(Cc3ccc(S(=O)(=O)[N-]C(=O)c4ccccc4)cc3CS(=O)(=O)[N-]C(=O)Nc3ccccc3)c([O-])[n-]c12 (protonated)
CNC(=O)c1cccc2c(Cc3ccc(S(=O)(=O)[N-]C(=O)c4ccccc4)cc3CS(=O)(=O)[N-]C(=O)Nc3ccccc3)c([O-])[n-]c12 (3D coordinates assigned)
CNC(=O)c1cccc2c(Cc3ccc(S(=O)(=O)[N-]C(=O)c4ccccc4)cc3CS(=O)(=O)[N-]C(=O)Nc3ccccc3)c([O-])[n-]c12 (optimized conformer: 110.89917042722408 kcal/mol)

>  <smiles>  (22) 
CNC(=O)c1cccc2c(Cc3ccc(S(=O)(=O)NC(=O)c4ccccc4)cc3CS(=O)(=O)NC(=O)Nc3ccccc3)c(O)[nH]c12

>  <score_type>  (22) 
oracle

>  <origin>  (22) 
adg

>  <m_score__min__energy>  (22) 
-19.800000000000001

>  <m_primary>  (22) 
energy

$$$$
22:0
     RDKit          3D

 28 29  0  0  0  0  0  0  0  0999 V2000
   55.1620   30.4210   44.4570 O   0  0  0  0  0  0  0  0  0  0  0  0
   56.1390   29.6990   44.7930 C   0  0  0  0  0  0  0  0  0  0  0  0
   55.9060   28.3700   45.2490 N   0  0  0  0  0  0  0  0  0  0  0  0
   57.0030   27.5310   45.6050 C   0  0  0  0  0  0  0  0  0  0  0  0
   58.2530   27.9940   45.6050 C   0  0  0  0  0  0  0  0  0  0  0  0
   58.5870   29.4410   45.3370 C   0  0  0  0  0  0  0  0  0  0  0  0
   57.4870   30.1910   44.7090 N   0  0  0  0  0  0  0  0  0  0  0  0
   57.7620   31.5220   44.1540 C   0  0  0  0  0  0  0  0  0  0  0  0
   57.0160   32.5950   44.9510 C   0  0  0  0  0  0  0  0  0  0  0  0
   57.9810   33.4340   45.7440 C   0  0  0  0  0  0  0  0  0  0  0  0
   58.7290   34.4420   45.1120 C   0  0  0  0  0  0  0  0  0  0  0  0
   59.6500   35.1990   45.8430 C   0  0  0  0  0  0  0  0  0  0  0  0
   59.8370   34.9490   47.2050 C   0  0  0  0  0  0  0  0  0  0  0  0
   59.1070   33.9390   47.8390 C   0  0  0  0  0  0  0  0  0  0  0  0
   59.2960   33.6930   49.1580 F   0  0  0  0  0  0  0  0  0  0  0  0
   58.1850   33.1800   47.1100 C   0  0  0  0  0  0  0  0  0  0  0  0
   56.8143   26.4839   45.8844 H   0  0  0  0  0  0  0  0  0  0  0  0
   59.0751   27.2922   45.8088 H   0  0  0  0  0  0  0  0  0  0  0  0
   58.8360   29.9238   46.2935 H   0  0  0  0  0  0  0  0  0  0  0  0
   59.4309   29.4529   44.6315 H   0  0  0  0  0  0  0  0  0  0  0  0
   58.8430   31.7194   44.2034 H   0  0  0  0  0  0  0  0  0  0  0  0
   57.4207   31.5510   43.1087 H   0  0  0  0  0  0  0  0  0  0  0  0
   56.4619   33.2421   44.2551 H   0  0  0  0  0  0  0  0  0  0  0  0
   56.3218   32.1009   45.6466 H   0  0  0  0  0  0  0  0  0  0  0  0
   58.5895   34.6363   44.0383 H   0  0  0  0  0  0  0  0  0  0  0  0
   60.2277   35.9919   45.3454 H   0  0  0  0  0  0  0  0  0  0  0  0
   60.5595   35.5476   47.7792 H   0  0  0  0  0  0  0  0  0  0  0  0
   57.6174   32.3808   47.6091 H   0  0  0  0  0  0  0  0  0  0  0  0
  1  2  2  0
  2  3  1  0
  3  4  1  0
  4  5  2  0
  5  6  1  0
  6  7  1  0
  7  8  1  0
  8  9  1  0
  9 10  1  0
 10 11  2  0
 11 12  1  0
 12 13  2  0
 13 14  1  0
 14 15  1  0
 14 16  2  0
  7  2  1  0
 16 10  1  0
  4 17  1  0
  5 18  1  0
  6 19  1  0
  6 20  1  0
  8 21  1  0
  8 22  1  0
  9 23  1  0
  9 24  1  0
 11 25  1  0
 12 26  1  0
 13 27  1  0
 16 28  1  0
M  CHG  1   3  -1
M  END
>  <UniqueID>  (23) 
22

>  <SMILES>  (23) 
O=C1[N-]C=CCN1CCc1cccc(F)c1

>  <Energy>  (23) 
23.993051585047045

>  <Genealogy>  (23) 
O=C1[N-]C=CCN1CCc1cccc(F)c1 (protonated)
O=C1[N-]C=CCN1CCc1cccc(F)c1 (3D coordinates assigned)
O=C1[N-]C=CCN1CCc1cccc(F)c1 (nonaromatic ring conformer: 23.993051585047045 kcal/mol)

>  <smiles>  (23) 
O=C1NC=CCN1CCc1cccc(F)c1

>  <score_type>  (23) 
oracle

>  <origin>  (23) 
adg

>  <m_score__min__energy>  (23) 
-8.1400000000000006

>  <m_primary>  (23) 
energy

$$$$
23:0
     RDKit          3D

 38 39  0  0  0  0  0  0  0  0999 V2000
   57.5083   28.2471   43.7157 H   0  0  0  0  0  0  0  0  0  0  0  0
   57.0490   28.8050   44.5450 C   0  0  0  0  0  0  0  0  0  0  0  0
   56.8850   28.1830   45.6780 N   0  0  0  0  0  0  0  0  0  0  0  0
   56.6340   26.7860   45.8900 C   0  0  0  0  0  0  0  0  0  0  0  0
   55.4590   26.3480   46.0200 O   0  0  0  0  0  0  0  0  0  0  0  0
   57.7820   25.8210   45.8430 C   0  0  0  0  0  0  0  0  0  0  0  0
   57.3973   24.8058   46.0200 H   0  0  0  0  0  0  0  0  0  0  0  0
   58.2519   25.9074   44.8522 H   0  0  0  0  0  0  0  0  0  0  0  0
   58.8540   26.1330   46.8980 C   0  0  0  0  0  0  0  0  0  0  0  0
   58.3905   26.0888   47.8946 H   0  0  0  0  0  0  0  0  0  0  0  0
   59.6550   25.3871   46.7888 H   0  0  0  0  0  0  0  0  0  0  0  0
   59.4730   27.4980   46.7130 C   0  0  0  0  0  0  0  0  0  0  0  0
   59.3740   28.4660   47.7270 C   0  0  0  0  0  0  0  0  0  0  0  0
   58.8379   28.2303   48.6581 H   0  0  0  0  0  0  0  0  0  0  0  0
   59.9540   29.7280   47.5580 C   0  0  0  0  0  0  0  0  0  0  0  0
   59.8695   30.4824   48.3540 H   0  0  0  0  0  0  0  0  0  0  0  0
   60.6400   30.0310   46.3800 C   0  0  0  0  0  0  0  0  0  0  0  0
   61.0944   31.0240   46.2478 H   0  0  0  0  0  0  0  0  0  0  0  0
   60.7490   29.0720   45.3690 C   0  0  0  0  0  0  0  0  0  0  0  0
   61.2890   29.3115   44.4411 H   0  0  0  0  0  0  0  0  0  0  0  0
   60.1730   27.8090   45.5350 C   0  0  0  0  0  0  0  0  0  0  0  0
   60.2682   27.0551   44.7396 H   0  0  0  0  0  0  0  0  0  0  0  0
   56.6610   30.2050   44.2990 C   0  0  0  0  0  0  0  0  0  0  0  0
   55.4660   30.5490   44.4990 O   0  0  0  0  0  0  0  0  0  0  0  0
   57.6040   31.1740   43.6440 C   0  0  0  0  0  0  0  0  0  0  0  0
   58.5064   30.6374   43.3158 H   0  0  0  0  0  0  0  0  0  0  0  0
   57.1038   31.6321   42.7780 H   0  0  0  0  0  0  0  0  0  0  0  0
   57.9940   32.2550   44.6140 C   0  0  0  0  0  0  0  0  0  0  0  0
   57.8160   32.0720   45.9960 C   0  0  0  0  0  0  0  0  0  0  0  0
   57.3973   31.1281   46.3752 H   0  0  0  0  0  0  0  0  0  0  0  0
   58.1700   33.0870   46.8900 C   0  0  0  0  0  0  0  0  0  0  0  0
   58.0328   32.9388   47.9713 H   0  0  0  0  0  0  0  0  0  0  0  0
   58.6980   34.2900   46.4120 C   0  0  0  0  0  0  0  0  0  0  0  0
   58.9829   35.0842   47.1178 H   0  0  0  0  0  0  0  0  0  0  0  0
   58.8640   34.4840   45.0390 C   0  0  0  0  0  0  0  0  0  0  0  0
   59.2760   35.4324   44.6639 H   0  0  0  0  0  0  0  0  0  0  0  0
   58.5070   33.4740   44.1410 C   0  0  0  0  0  0  0  0  0  0  0  0
   58.6283   33.6345   43.0596 H   0  0  0  0  0  0  0  0  0  0  0  0
  1  2  1  0
  2  3  2  0
  3  4  1  0
  4  5  2  0
  4  6  1  0
  6  7  1  0
  6  8  1  0
  6  9  1  0
  9 10  1  0
  9 11  1  0
  9 12  1  0
 12 13  2  0
 13 14  1  0
 13 15  1  0
 15 16  1  0
 15 17  2  0
 17 18  1  0
 17 19  1  0
 19 20  1  0
 19 21  2  0
 21 22  1  0
  2 23  1  0
 23 24  2  0
 23 25  1  0
 25 26  1  0
 25 27  1  0
 25 28  1  0
 28 29  2  0
 29 30  1  0
 29 31  1  0
 31 32  1  0
 31 33  2  0
 33 34  1  0
 33 35  1  0
 35 36  1  0
 35 37  2  0
 37 38  1  0
 21 12  1  0
 37 28  1  0
M  END
>  <UniqueID>  (24) 
23

>  <SMILES>  (24) 
O=C(/C=N\C(=O)CCc1ccccc1)Cc1ccccc1

>  <Energy>  (24) 
39.99160869444634

>  <Genealogy>  (24) 
O=C(/C=N\C(=O)CCc1ccccc1)Cc1ccccc1 (cis-trans isomerization)
O=C(/C=N\C(=O)CCc1ccccc1)Cc1ccccc1 (3D coordinates assigned)
O=C(/C=N\C(=O)CCc1ccccc1)Cc1ccccc1 (optimized conformer: 39.99160869444634 kcal/mol)

>  <smiles>  (24) 
O=C(C=NC(=O)CCc1ccccc1)Cc1ccccc1

>  <score_type>  (24) 
oracle

>  <origin>  (24) 
adg

>  <m_score__min__energy>  (24) 
-7.7800000000000002

>  <m_primary>  (24) 
energy

$$$$
24:0
     RDKit          3D

 48 50  0  0  0  0  0  0  0  0999 V2000
   67.1810   32.7870   50.5350 C   0  0  0  0  0  0  0  0  0  0  0  0
   65.7640   32.3870   50.1390 C   0  0  0  0  0  0  0  0  0  0  0  0
   65.1350   33.4300   49.3930 O   0  0  0  0  0  0  0  0  0  0  0  0
   63.8010   33.4270   48.9520 C   0  0  0  0  0  0  0  0  0  0  0  0
   63.4730   32.6360   47.8450 C   0  0  0  0  0  0  0  0  0  0  0  0
   62.1630   32.5970   47.3600 C   0  0  0  0  0  0  0  0  0  0  0  0
   61.1550   33.3480   47.9820 C   0  0  0  0  0  0  0  0  0  0  0  0
   59.7730   33.3390   47.4660 C   0  0  0  0  0  0  0  0  0  0  0  0
   58.7500   32.6510   48.0130 N   0  0  0  0  0  0  0  0  0  0  0  0
   57.6970   32.8680   47.2370 N   0  0  0  0  0  0  0  0  0  0  0  0
   58.1210   33.6790   46.2520 C   0  0  0  0  0  0  0  0  0  0  0  0
   57.1060   34.2450   44.8880 S   0  0  0  0  0  0  0  0  0  0  0  0
   57.6170   32.9200   43.7300 C   0  0  0  0  0  0  0  0  0  0  0  0
   57.4040   31.5580   44.3170 C   0  0  0  0  0  0  0  0  0  0  0  0
   56.2980   31.2880   44.8560 O   0  0  0  0  0  0  0  0  0  0  0  0
   58.4940   30.6260   44.3480 N   0  0  0  0  0  0  0  0  0  0  0  0
   58.6640   29.5040   45.2300 C   0  0  0  0  0  0  0  0  0  0  0  0
   59.7680   29.5000   46.0840 C   0  0  0  0  0  0  0  0  0  0  0  0
   59.9510   28.4680   47.0040 C   0  0  0  0  0  0  0  0  0  0  0  0
   59.0400   27.4020   47.0750 C   0  0  0  0  0  0  0  0  0  0  0  0
   59.2580   26.3270   48.1060 C   0  0  0  0  0  0  0  0  0  0  0  0
   57.9290   27.3840   46.1970 C   0  0  0  0  0  0  0  0  0  0  0  0
   56.7500   26.0600   46.2120 S   0  0  0  0  0  0  0  0  0  0  0  0
   55.1590   26.6970   45.9950 N   0  0  0  0  0  0  0  0  0  0  0  0
   57.0590   25.0840   45.1120 O   0  0  0  0  0  0  0  0  0  0  0  0
   56.8060   25.3280   47.5240 O   0  0  0  0  0  0  0  0  0  0  0  0
   57.7630   28.4270   45.2700 C   0  0  0  0  0  0  0  0  0  0  0  0
   59.3880   33.9800   46.3900 O   0  0  0  0  0  0  0  0  0  0  0  0
   61.4790   34.1350   49.0980 C   0  0  0  0  0  0  0  0  0  0  0  0
   62.7900   34.1790   49.5800 C   0  0  0  0  0  0  0  0  0  0  0  0
   67.2625   32.8100   51.6317 H   0  0  0  0  0  0  0  0  0  0  0  0
   67.8954   32.0554   50.1295 H   0  0  0  0  0  0  0  0  0  0  0  0
   67.4074   33.7841   50.1295 H   0  0  0  0  0  0  0  0  0  0  0  0
   65.8046   31.4765   49.5231 H   0  0  0  0  0  0  0  0  0  0  0  0
   65.1797   32.2039   51.0528 H   0  0  0  0  0  0  0  0  0  0  0  0
   64.2542   32.0390   47.3517 H   0  0  0  0  0  0  0  0  0  0  0  0
   61.9212   31.9742   46.4861 H   0  0  0  0  0  0  0  0  0  0  0  0
   57.0260   33.0064   42.8063 H   0  0  0  0  0  0  0  0  0  0  0  0
   58.6908   33.0403   43.5238 H   0  0  0  0  0  0  0  0  0  0  0  0
   60.5007   30.3187   46.0309 H   0  0  0  0  0  0  0  0  0  0  0  0
   60.8178   28.4894   47.6809 H   0  0  0  0  0  0  0  0  0  0  0  0
   59.1699   26.7613   49.1128 H   0  0  0  0  0  0  0  0  0  0  0  0
   58.5015   25.5386   47.9793 H   0  0  0  0  0  0  0  0  0  0  0  0
   60.2619   25.8956   47.9793 H   0  0  0  0  0  0  0  0  0  0  0  0
   54.8520   27.0710   46.9200 H   0  0  0  0  0  0  0  0  0  0  0  0
   56.9173   28.3998   44.5672 H   0  0  0  0  0  0  0  0  0  0  0  0
   60.6943   34.7222   49.5975 H   0  0  0  0  0  0  0  0  0  0  0  0
   63.0327   34.8031   50.4527 H   0  0  0  0  0  0  0  0  0  0  0  0
  1  2  1  0
  2  3  1  0
  3  4  1  0
  4  5  2  0
  5  6  1  0
  6  7  2  0
  7  8  1  0
  8  9  2  0
  9 10  1  0
 10 11  2  0
 11 12  1  0
 12 13  1  0
 13 14  1  0
 14 15  2  0
 14 16  1  0
 16 17  1  0
 17 18  2  0
 18 19  1  0
 19 20  2  0
 20 21  1  0
 20 22  1  0
 22 23  1  0
 23 24  1  0
 23 25  2  0
 23 26  2  0
 22 27  2  0
 11 28  1  0
  7 29  1  0
 29 30  2  0
 30  4  1  0
 28  8  1  0
 27 17  1  0
  1 31  1  0
  1 32  1  0
  1 33  1  0
  2 34  1  0
  2 35  1  0
  5 36  1  0
  6 37  1  0
 13 38  1  0
 13 39  1  0
 18 40  1  0
 19 41  1  0
 21 42  1  0
 21 43  1  0
 21 44  1  0
 24 45  1  0
 27 46  1  0
 29 47  1  0
 30 48  1  0
M  CHG  2  16  -1  24  -1
M  END
>  <UniqueID>  (25) 
24

>  <SMILES>  (25) 
CCOc1ccc(-c2nnc(SCC(=O)[N-]c3ccc(C)c(S([NH-])(=O)=O)c3)o2)cc1

>  <Energy>  (25) 
80.84304729418719

>  <Genealogy>  (25) 
CCOc1ccc(-c2nnc(SCC(=O)[N-]c3ccc(C)c(S([NH-])(=O)=O)c3)o2)cc1 (protonated)
CCOc1ccc(-c2nnc(SCC(=O)[N-]c3ccc(C)c(S([NH-])(=O)=O)c3)o2)cc1 (3D coordinates assigned)
CCOc1ccc(-c2nnc(SCC(=O)[N-]c3ccc(C)c(S([NH-])(=O)=O)c3)o2)cc1 (optimized conformer: 80.84304729418719 kcal/mol)

>  <smiles>  (25) 
CCOc1ccc(-c2nnc(SCC(=O)Nc3ccc(C)c(S(N)(=O)=O)c3)o2)cc1

>  <score_type>  (25) 
oracle

>  <origin>  (25) 
adg

>  <m_score__min__energy>  (25) 
-13.859999999999999

>  <m_primary>  (25) 
energy

$$$$
25:0
     RDKit          3D

 55 57  0  0  0  0  0  0  0  0999 V2000
   59.9830   28.2770   44.9650 C   0  0  0  0  0  0  0  0  0  0  0  0
   59.1410   27.1770   45.6210 C   0  0  0  0  0  0  0  0  0  0  0  0
   58.9810   27.4540   47.1240 C   0  0  0  0  0  0  0  0  0  0  0  0
   57.7690   27.0680   44.9270 C   0  0  0  0  0  0  0  0  0  0  0  0
   56.7620   27.8630   45.6250 N   0  0  0  0  0  0  0  0  0  0  0  0
   56.3340   29.1590   45.1940 C   0  0  0  0  0  0  0  0  0  0  0  0
   55.1530   29.3400   44.7900 O   0  0  0  0  0  0  0  0  0  0  0  0
   57.2720   30.2870   45.2260 C   0  0  0  0  0  0  0  0  0  0  0  0
   57.4010   31.2660   44.2680 C   0  0  0  0  0  0  0  0  0  0  0  0
   58.3500   32.0770   44.6630 O   0  0  0  0  0  0  0  0  0  0  0  0
   58.7960   31.6270   45.8170 C   0  0  0  0  0  0  0  0  0  0  0  0
   59.8740   32.2790   46.5870 C   0  0  0  0  0  0  0  0  0  0  0  0
   59.7250   33.5950   47.0560 C   0  0  0  0  0  0  0  0  0  0  0  0
   60.7540   34.2090   47.7770 C   0  0  0  0  0  0  0  0  0  0  0  0
   61.9440   33.5160   48.0440 C   0  0  0  0  0  0  0  0  0  0  0  0
   63.0520   34.1650   48.8300 C   0  0  0  0  0  0  0  0  0  0  0  0
   62.5540   34.5730   50.1510 N   0  0  0  0  0  0  0  0  0  0  0  0
   62.4310   33.4230   51.0560 C   0  0  0  0  0  0  0  0  0  0  0  0
   60.9830   33.0640   51.2700 C   0  0  0  0  0  0  0  0  0  0  0  0
   60.1930   33.8260   52.1430 C   0  0  0  0  0  0  0  0  0  0  0  0
   58.8660   33.4690   52.3840 C   0  0  0  0  0  0  0  0  0  0  0  0
   58.3140   32.3530   51.7520 C   0  0  0  0  0  0  0  0  0  0  0  0
   59.0830   31.5840   50.8600 C   0  0  0  0  0  0  0  0  0  0  0  0
   58.4810   30.4070   50.1860 C   0  0  0  0  0  0  0  0  0  0  0  0
   58.5910   30.2220   48.7710 N   0  0  0  0  0  0  0  0  0  0  0  0
   57.8430   29.5570   50.8640 O   0  0  0  0  0  0  0  0  0  0  0  0
   60.4250   31.9420   50.6350 C   0  0  0  0  0  0  0  0  0  0  0  0
   62.0880   32.1970   47.5880 C   0  0  0  0  0  0  0  0  0  0  0  0
   61.0640   31.5850   46.8600 C   0  0  0  0  0  0  0  0  0  0  0  0
   58.1560   30.5070   46.2180 N   0  0  0  0  0  0  0  0  0  0  0  0
   60.4542   28.8926   45.7454 H   0  0  0  0  0  0  0  0  0  0  0  0
   60.7627   27.8180   44.3394 H   0  0  0  0  0  0  0  0  0  0  0  0
   59.3363   28.9098   44.3394 H   0  0  0  0  0  0  0  0  0  0  0  0
   59.6591   26.2136   45.5047 H   0  0  0  0  0  0  0  0  0  0  0  0
   59.4502   26.6417   47.6985 H   0  0  0  0  0  0  0  0  0  0  0  0
   59.4669   28.4085   47.3747 H   0  0  0  0  0  0  0  0  0  0  0  0
   57.9114   27.5101   47.3747 H   0  0  0  0  0  0  0  0  0  0  0  0
   57.8598   27.4311   43.8926 H   0  0  0  0  0  0  0  0  0  0  0  0
   57.4533   26.0144   44.9406 H   0  0  0  0  0  0  0  0  0  0  0  0
   56.8149   31.3516   43.3411 H   0  0  0  0  0  0  0  0  0  0  0  0
   58.7940   34.1453   46.8550 H   0  0  0  0  0  0  0  0  0  0  0  0
   60.6295   35.2410   48.1367 H   0  0  0  0  0  0  0  0  0  0  0  0
   63.8776   33.4491   48.9564 H   0  0  0  0  0  0  0  0  0  0  0  0
   63.4099   35.0524   48.2874 H   0  0  0  0  0  0  0  0  0  0  0  0
   61.5960   34.9750   50.0210 H   0  0  0  0  0  0  0  0  0  0  0  0
   62.9554   32.5612   50.6176 H   0  0  0  0  0  0  0  0  0  0  0  0
   62.8760   33.6883   52.0264 H   0  0  0  0  0  0  0  0  0  0  0  0
   60.6215   34.7089   52.6398 H   0  0  0  0  0  0  0  0  0  0  0  0
   58.2532   34.0681   53.0735 H   0  0  0  0  0  0  0  0  0  0  0  0
   57.2695   32.0730   51.9533 H   0  0  0  0  0  0  0  0  0  0  0  0
   58.9820   30.9630   48.1500 H   0  0  0  0  0  0  0  0  0  0  0  0
   58.1900   29.3670   48.3230 H   0  0  0  0  0  0  0  0  0  0  0  0
   61.0433   31.3374   49.9552 H   0  0  0  0  0  0  0  0  0  0  0  0
   63.0123   31.6413   47.8048 H   0  0  0  0  0  0  0  0  0  0  0  0
   61.1908   30.5538   46.4987 H   0  0  0  0  0  0  0  0  0  0  0  0
  1  2  1  0
  2  3  1  0
  2  4  1  0
  4  5  1  0
  5  6  1  0
  6  7  2  0
  6  8  1  0
  8  9  2  0
  9 10  1  0
 10 11  1  0
 11 12  1  0
 12 13  2  0
 13 14  1  0
 14 15  2  0
 15 16  1  0
 16 17  1  0
 17 18  1  0
 18 19  1  0
 19 20  2  0
 20 21  1  0
 21 22  2  0
 22 23  1  0
 23 24  1  0
 24 25  1  0
 24 26  2  0
 23 27  2  0
 15 28  1  0
 28 29  2  0
 11 30  2  0
 30  8  1  0
 29 12  1  0
 27 19  1  0
  1 31  1  0
  1 32  1  0
  1 33  1  0
  2 34  1  0
  3 35  1  0
  3 36  1  0
  3 37  1  0
  4 38  1  0
  4 39  1  0
  9 40  1  0
 13 41  1  0
 14 42  1  0
 16 43  1  0
 16 44  1  0
 17 45  1  0
 18 46  1  0
 18 47  1  0
 20 48  1  0
 21 49  1  0
 22 50  1  0
 25 51  1  0
 25 52  1  0
 27 53  1  0
 28 54  1  0
 29 55  1  0
M  CHG  1   5  -1
M  END
>  <UniqueID>  (26) 
25

>  <SMILES>  (26) 
CC(C)C[N-]C(=O)c1coc(-c2ccc(CNCc3cccc(C(N)=O)c3)cc2)n1

>  <Energy>  (26) 
77.66473978867396

>  <Genealogy>  (26) 
CC(C)C[N-]C(=O)c1coc(-c2ccc(CNCc3cccc(C(N)=O)c3)cc2)n1 (protonated)
CC(C)C[N-]C(=O)c1coc(-c2ccc(CNCc3cccc(C(N)=O)c3)cc2)n1 (3D coordinates assigned)
CC(C)C[N-]C(=O)c1coc(-c2ccc(CNCc3cccc(C(N)=O)c3)cc2)n1 (optimized conformer: 77.66473978867396 kcal/mol)

>  <smiles>  (26) 
CC(C)CNC(=O)c1coc(-c2ccc(CNCc3cccc(C(N)=O)c3)cc2)n1

>  <score_type>  (26) 
oracle

>  <origin>  (26) 
adg

>  <m_score__min__energy>  (26) 
-10.710000000000001

>  <m_primary>  (26) 
energy

$$$$
26:0
     RDKit          3D

 44 47  0  0  0  0  0  0  0  0999 V2000
   60.8370   31.8780   49.4450 O   0  0  0  0  0  0  0  0  0  0  0  0
   61.6320   32.7450   48.9910 C   0  0  0  0  0  0  0  0  0  0  0  0
   61.2510   33.5120   47.8370 N   0  0  0  0  0  0  0  0  0  0  0  0
   60.0690   33.2160   47.1290 N   0  0  0  0  0  0  0  0  0  0  0  0
   59.0970   34.1720   47.0420 C   0  0  0  0  0  0  0  0  0  0  0  0
   59.2620   35.3010   47.5770 O   0  0  0  0  0  0  0  0  0  0  0  0
   57.9350   33.9150   46.3900 N   0  0  0  0  0  0  0  0  0  0  0  0
   57.6990   32.7180   45.8020 C   0  0  0  0  0  0  0  0  0  0  0  0
   56.6000   32.5270   45.2150 O   0  0  0  0  0  0  0  0  0  0  0  0
   58.6780   31.7150   45.8500 C   0  0  0  0  0  0  0  0  0  0  0  0
   58.4840   30.4630   45.2380 C   0  0  0  0  0  0  0  0  0  0  0  0
   59.4880   29.4860   45.2820 C   0  0  0  0  0  0  0  0  0  0  0  0
   59.2920   28.1640   44.5890 C   0  0  0  0  0  0  0  0  0  0  0  0
   58.3990   27.2750   45.4110 C   0  0  0  0  0  0  0  0  0  0  0  0
   58.9540   26.3580   46.3200 C   0  0  0  0  0  0  0  0  0  0  0  0
   58.1210   25.5580   47.1100 C   0  0  0  0  0  0  0  0  0  0  0  0
   56.7330   25.6760   47.0060 C   0  0  0  0  0  0  0  0  0  0  0  0
   56.1730   26.5950   46.1140 C   0  0  0  0  0  0  0  0  0  0  0  0
   54.7910   26.7150   46.0160 O   0  0  0  0  0  0  0  0  0  0  0  0
   57.0020   27.3960   45.3210 C   0  0  0  0  0  0  0  0  0  0  0  0
   60.7020   29.7750   45.9190 C   0  0  0  0  0  0  0  0  0  0  0  0
   60.9050   31.0120   46.5320 C   0  0  0  0  0  0  0  0  0  0  0  0
   59.8920   31.9940   46.5240 C   0  0  0  0  0  0  0  0  0  0  0  0
   62.9360   32.9640   49.6600 C   0  0  0  0  0  0  0  0  0  0  0  0
   63.0790   33.9950   50.6070 C   0  0  0  0  0  0  0  0  0  0  0  0
   64.3040   34.2050   51.2480 C   0  0  0  0  0  0  0  0  0  0  0  0
   65.3960   33.3840   50.9580 C   0  0  0  0  0  0  0  0  0  0  0  0
   65.2640   32.3500   50.0290 C   0  0  0  0  0  0  0  0  0  0  0  0
   64.0410   32.1360   49.3840 C   0  0  0  0  0  0  0  0  0  0  0  0
   61.7170   34.4310   47.6670 H   0  0  0  0  0  0  0  0  0  0  0  0
   57.5369   30.2493   44.7209 H   0  0  0  0  0  0  0  0  0  0  0  0
   58.8297   28.3341   43.6054 H   0  0  0  0  0  0  0  0  0  0  0  0
   60.2695   27.6751   44.4645 H   0  0  0  0  0  0  0  0  0  0  0  0
   60.0466   26.2689   46.4107 H   0  0  0  0  0  0  0  0  0  0  0  0
   58.5597   24.8353   47.8138 H   0  0  0  0  0  0  0  0  0  0  0  0
   56.0800   25.0450   47.6268 H   0  0  0  0  0  0  0  0  0  0  0  0
   56.5586   28.1230   44.6247 H   0  0  0  0  0  0  0  0  0  0  0  0
   61.5020   29.0202   45.9360 H   0  0  0  0  0  0  0  0  0  0  0  0
   61.8645   31.2236   47.0265 H   0  0  0  0  0  0  0  0  0  0  0  0
   62.2207   34.6406   50.8448 H   0  0  0  0  0  0  0  0  0  0  0  0
   64.4077   35.0180   51.9817 H   0  0  0  0  0  0  0  0  0  0  0  0
   66.3596   33.5519   51.4612 H   0  0  0  0  0  0  0  0  0  0  0  0
   66.1238   31.7020   49.8036 H   0  0  0  0  0  0  0  0  0  0  0  0
   63.9421   31.3163   48.6572 H   0  0  0  0  0  0  0  0  0  0  0  0
  1  2  2  0
  2  3  1  0
  3  4  1  0
  4  5  1  0
  5  6  2  0
  5  7  1  0
  7  8  1  0
  8  9  2  0
  8 10  1  0
 10 11  2  0
 11 12  1  0
 12 13  1  0
 13 14  1  0
 14 15  2  0
 15 16  1  0
 16 17  2  0
 17 18  1  0
 18 19  1  0
 18 20  2  0
 12 21  2  0
 21 22  1  0
 22 23  2  0
  2 24  1  0
 24 25  2  0
 25 26  1  0
 26 27  2  0
 27 28  1  0
 28 29  2  0
 23  4  1  0
 29 24  1  0
 23 10  1  0
 20 14  1  0
  3 30  1  0
 11 31  1  0
 13 32  1  0
 13 33  1  0
 15 34  1  0
 16 35  1  0
 17 36  1  0
 20 37  1  0
 21 38  1  0
 22 39  1  0
 25 40  1  0
 26 41  1  0
 27 42  1  0
 28 43  1  0
 29 44  1  0
M  CHG  2   7  -1  19  -1
M  END
>  <UniqueID>  (27) 
26

>  <SMILES>  (27) 
O=C(Nn1c(=O)[n-]c(=O)c2cc(Cc3cccc([O-])c3)ccc21)c1ccccc1

>  <Energy>  (27) 
63.23293530023634

>  <Genealogy>  (27) 
O=C(Nn1c(=O)[n-]c(=O)c2cc(Cc3cccc([O-])c3)ccc21)c1ccccc1 (protonated)
O=C(Nn1c(=O)[n-]c(=O)c2cc(Cc3cccc([O-])c3)ccc21)c1ccccc1 (3D coordinates assigned)
O=C(Nn1c(=O)[n-]c(=O)c2cc(Cc3cccc([O-])c3)ccc21)c1ccccc1 (optimized conformer: 63.23293530023634 kcal/mol)

>  <smiles>  (27) 
O=C(Nn1c(=O)[nH]c(=O)c2cc(Cc3cccc(O)c3)ccc21)c1ccccc1

>  <score_type>  (27) 
oracle

>  <origin>  (27) 
adg

>  <m_score__min__energy>  (27) 
-13.6

>  <m_primary>  (27) 
energy

$$$$
27:0
     RDKit          3D

 32 34  0  0  0  0  0  0  0  0999 V2000
   57.1670   30.9470   43.0880 O   0  0  0  0  0  0  0  0  0  0  0  0
   57.5490   30.7410   44.2720 C   0  0  0  0  0  0  0  0  0  0  0  0
   57.9900   31.8920   45.0990 C   0  0  0  0  0  0  0  0  0  0  0  0
   57.1450   32.9950   45.3140 C   0  0  0  0  0  0  0  0  0  0  0  0
   57.5660   34.0650   46.1060 C   0  0  0  0  0  0  0  0  0  0  0  0
   58.8310   34.0470   46.6970 C   0  0  0  0  0  0  0  0  0  0  0  0
   59.6910   32.9540   46.5010 C   0  0  0  0  0  0  0  0  0  0  0  0
   61.0310   32.9230   47.1400 C   0  0  0  0  0  0  0  0  0  0  0  0
   62.0090   33.8600   46.7780 C   0  0  0  0  0  0  0  0  0  0  0  0
   63.2370   33.8250   47.3550 N   0  0  0  0  0  0  0  0  0  0  0  0
   63.5420   32.8930   48.2930 C   0  0  0  0  0  0  0  0  0  0  0  0
   64.6870   32.8770   48.8150 O   0  0  0  0  0  0  0  0  0  0  0  0
   62.6130   31.9800   48.6710 N   0  0  0  0  0  0  0  0  0  0  0  0
   61.3690   31.9730   48.1230 C   0  0  0  0  0  0  0  0  0  0  0  0
   60.5280   31.1220   48.5200 O   0  0  0  0  0  0  0  0  0  0  0  0
   59.2590   31.8760   45.7100 C   0  0  0  0  0  0  0  0  0  0  0  0
   57.5480   29.3530   44.7890 C   0  0  0  0  0  0  0  0  0  0  0  0
   58.7570   28.6400   44.8990 C   0  0  0  0  0  0  0  0  0  0  0  0
   59.9360   29.2240   44.5630 F   0  0  0  0  0  0  0  0  0  0  0  0
   58.7610   27.3280   45.3800 C   0  0  0  0  0  0  0  0  0  0  0  0
   57.5630   26.7110   45.7450 C   0  0  0  0  0  0  0  0  0  0  0  0
   56.3550   27.4000   45.6250 C   0  0  0  0  0  0  0  0  0  0  0  0
   55.1640   26.7760   45.9780 O   0  0  0  0  0  0  0  0  0  0  0  0
   56.3410   28.7160   45.1460 C   0  0  0  0  0  0  0  0  0  0  0  0
   55.1520   29.3550   44.9990 F   0  0  0  0  0  0  0  0  0  0  0  0
   56.1455   33.0151   44.8551 H   0  0  0  0  0  0  0  0  0  0  0  0
   56.8989   34.9251   46.2649 H   0  0  0  0  0  0  0  0  0  0  0  0
   59.1558   34.8937   47.3196 H   0  0  0  0  0  0  0  0  0  0  0  0
   61.7802   34.6267   46.0232 H   0  0  0  0  0  0  0  0  0  0  0  0
   59.9201   31.0087   45.5661 H   0  0  0  0  0  0  0  0  0  0  0  0
   59.7104   26.7800   45.4713 H   0  0  0  0  0  0  0  0  0  0  0  0
   57.5711   25.6798   46.1279 H   0  0  0  0  0  0  0  0  0  0  0  0
  1  2  2  0
  2  3  1  0
  3  4  2  0
  4  5  1  0
  5  6  2  0
  6  7  1  0
  7  8  1  0
  8  9  2  0
  9 10  1  0
 10 11  1  0
 11 12  2  0
 11 13  1  0
 13 14  1  0
 14 15  2  0
  7 16  2  0
  2 17  1  0
 17 18  2  0
 18 19  1  0
 18 20  1  0
 20 21  2  0
 21 22  1  0
 22 23  1  0
 22 24  2  0
 24 25  1  0
 16  3  1  0
 24 17  1  0
 14  8  1  0
  4 26  1  0
  5 27  1  0
  6 28  1  0
  9 29  1  0
 16 30  1  0
 20 31  1  0
 21 32  1  0
M  CHG  3  10  -1  13  -1  23  -1
M  END
>  <UniqueID>  (28) 
27

>  <SMILES>  (28) 
O=C(c1cccc(-c2c[n-]c(=O)[n-]c2=O)c1)c1c(F)ccc([O-])c1F

>  <Energy>  (28) 
51.51620939889017

>  <Genealogy>  (28) 
O=C(c1cccc(-c2c[n-]c(=O)[n-]c2=O)c1)c1c(F)ccc([O-])c1F (protonated)
O=C(c1cccc(-c2c[n-]c(=O)[n-]c2=O)c1)c1c(F)ccc([O-])c1F (3D coordinates assigned)
O=C(c1cccc(-c2c[n-]c(=O)[n-]c2=O)c1)c1c(F)ccc([O-])c1F (optimized conformer: 51.51620939889017 kcal/mol)

>  <smiles>  (28) 
O=C(c1cccc(-c2c[nH]c(=O)[nH]c2=O)c1)c1c(F)ccc(O)c1F

>  <score_type>  (28) 
oracle

>  <origin>  (28) 
adg

>  <m_score__min__energy>  (28) 
-13.59

>  <m_primary>  (28) 
energy

$$$$
28:0
     RDKit          3D

 41 45  0  0  0  0  0  0  0  0999 V2000
   54.3760   26.7130   45.3670 H   0  0  0  0  0  0  0  0  0  0  0  0
   55.1550   26.8720   45.9940 O   0  0  0  0  0  0  0  0  0  0  0  0
   56.0520   25.8570   46.3130 C   0  0  0  0  0  0  0  0  0  0  0  0
   55.6750   24.6810   46.8400 N   0  0  0  0  0  0  0  0  0  0  0  0
   56.8380   24.0000   46.9180 C   0  0  0  0  0  0  0  0  0  0  0  0
   56.9080   22.8260   47.3640 O   0  0  0  0  0  0  0  0  0  0  0  0
   57.9200   24.6730   46.4690 N   0  0  0  0  0  0  0  0  0  0  0  0
   57.4180   25.8660   46.1060 C   0  0  0  0  0  0  0  0  0  0  0  0
   58.2230   26.9240   45.4740 C   0  0  0  0  0  0  0  0  0  0  0  0
   59.1760   26.6358   45.0063 H   0  0  0  0  0  0  0  0  0  0  0  0
   57.8690   28.2160   45.4320 C   0  0  0  0  0  0  0  0  0  0  0  0
   56.8450   28.7590   44.6700 C   0  0  0  0  0  0  0  0  0  0  0  0
   56.1784   28.1884   44.0066 H   0  0  0  0  0  0  0  0  0  0  0  0
   56.7900   30.0960   44.8660 N   0  0  0  0  0  0  0  0  0  0  0  0
   57.7450   30.4250   45.7200 N   0  0  0  0  0  0  0  0  0  0  0  0
   58.1100   31.6510   46.2130 C   0  0  0  0  0  0  0  0  0  0  0  0
   57.5130   32.7930   45.9590 N   0  0  0  0  0  0  0  0  0  0  0  0
   57.7770   34.2330   45.7770 C   0  0  0  0  0  0  0  0  0  0  0  0
   56.7061   34.4766   45.7157 H   0  0  0  0  0  0  0  0  0  0  0  0
   59.0000   34.6290   44.9820 C   0  0  0  0  0  0  0  0  0  0  0  0
   59.6469   33.8552   44.5429 H   0  0  0  0  0  0  0  0  0  0  0  0
   59.1916   35.2780   44.1148 H   0  0  0  0  0  0  0  0  0  0  0  0
   58.9600   34.8270   46.5080 C   0  0  0  0  0  0  0  0  0  0  0  0
   59.5780   34.1950   47.1627 H   0  0  0  0  0  0  0  0  0  0  0  0
   59.1108   35.6768   47.1900 H   0  0  0  0  0  0  0  0  0  0  0  0
   59.1870   31.6900   47.0480 N   0  0  0  0  0  0  0  0  0  0  0  0
   59.8850   30.5660   47.3740 C   0  0  0  0  0  0  0  0  0  0  0  0
   60.8970   30.6580   48.1860 N   0  0  0  0  0  0  0  0  0  0  0  0
   61.4170   31.8820   48.7290 C   0  0  0  0  0  0  0  0  0  0  0  0
   62.7240   32.2670   48.4040 C   0  0  0  0  0  0  0  0  0  0  0  0
   63.3271   31.6415   47.7295 H   0  0  0  0  0  0  0  0  0  0  0  0
   63.2660   33.4430   48.9330 C   0  0  0  0  0  0  0  0  0  0  0  0
   64.2867   33.7487   48.6597 H   0  0  0  0  0  0  0  0  0  0  0  0
   62.5130   34.2300   49.8080 C   0  0  0  0  0  0  0  0  0  0  0  0
   63.0400   35.3680   50.3210 F   0  0  0  0  0  0  0  0  0  0  0  0
   61.2200   33.8340   50.1640 C   0  0  0  0  0  0  0  0  0  0  0  0
   60.6329   34.4459   50.8647 H   0  0  0  0  0  0  0  0  0  0  0  0
   60.6710   32.6640   49.6330 C   0  0  0  0  0  0  0  0  0  0  0  0
   59.4330   32.2740   50.0320 F   0  0  0  0  0  0  0  0  0  0  0  0
   59.4920   29.3590   46.8800 N   0  0  0  0  0  0  0  0  0  0  0  0
   58.4140   29.3150   46.0670 C   0  0  0  0  0  0  0  0  0  0  0  0
  1  2  1  0
  2  3  1  0
  3  4  1  0
  4  5  1  0
  5  6  2  0
  5  7  1  0
  7  8  1  0
  8  9  1  0
  9 10  1  0
  9 11  2  3
 11 12  1  0
 12 13  1  0
 12 14  2  0
 14 15  1  0
 15 16  1  0
 16 17  2  0
 17 18  1  0
 18 19  1  0
 18 20  1  0
 20 21  1  0
 20 22  1  0
 20 23  1  0
 23 24  1  0
 23 25  1  0
 16 26  1  0
 26 27  1  0
 27 28  2  3
 28 29  1  0
 29 30  2  0
 30 31  1  0
 30 32  1  0
 32 33  1  0
 32 34  2  0
 34 35  1  0
 34 36  1  0
 36 37  1  0
 36 38  2  0
 38 39  1  0
 27 40  1  0
 40 41  2  0
  8  3  2  0
 41 11  1  0
 41 15  1  0
 23 18  1  0
 38 29  1  0
M  CHG  3   4  -1   7  -1  26  -1
M  END
>  <UniqueID>  (29) 
28

>  <SMILES>  (29) 
O=c1[n-]c(O)c(C=c2cnn3/c(=N\C4CC4)[n-]c(=Nc4ccc(F)cc4F)nc23)[n-]1

>  <Energy>  (29) 
416.48066299895396

>  <Genealogy>  (29) 
O=c1[n-]c(O)c(C=c2cnn3c(=NC4CC4)[n-]c(=Nc4ccc(F)cc4F)nc23)[n-]1 (protonated)
O=c1[n-]c(O)c(C=c2cnn3/c(=N\C4CC4)[n-]c(=Nc4ccc(F)cc4F)nc23)[n-]1 (cis-trans isomerization)
O=c1[n-]c(O)c(C=c2cnn3/c(=N\C4CC4)[n-]c(=Nc4ccc(F)cc4F)nc23)[n-]1 (3D coordinates assigned)
O=c1[n-]c(O)c(C=c2cnn3/c(=N\C4CC4)[n-]c(=Nc4ccc(F)cc4F)nc23)[n-]1 (nonaromatic ring conformer: 416.48066299895396 kcal/mol)

>  <smiles>  (29) 
O=c1[nH]c(O)c(C=c2cnn3c(=NC4CC4)[nH]c(=Nc4ccc(F)cc4F)nc23)[nH]1

>  <score_type>  (29) 
oracle

>  <origin>  (29) 
adg

>  <m_score__min__energy>  (29) 
-14.529999999999999

>  <m_primary>  (29) 
energy

$$$$
29:0
     RDKit          3D

 62 66  0  0  0  0  0  0  0  0999 V2000
   59.8050   33.7660   52.0350 O   0  0  0  0  0  0  0  0  0  0  0  0
   60.7790   32.9640   52.0670 C   0  0  0  0  0  0  0  0  0  0  0  0
   62.1670   33.4700   52.3400 C   0  0  0  0  0  0  0  0  0  0  0  0
   63.1280   32.7720   51.5690 O   0  0  0  0  0  0  0  0  0  0  0  0
   63.7410   33.6410   50.6410 C   0  0  0  0  0  0  0  0  0  0  0  0
   63.0680   33.4790   49.3090 C   0  0  0  0  0  0  0  0  0  0  0  0
   61.8590   34.1400   49.0390 C   0  0  0  0  0  0  0  0  0  0  0  0
   61.2140   33.9540   47.8130 C   0  0  0  0  0  0  0  0  0  0  0  0
   61.7660   33.1010   46.8530 C   0  0  0  0  0  0  0  0  0  0  0  0
   62.9600   32.4260   47.1210 C   0  0  0  0  0  0  0  0  0  0  0  0
   63.6060   32.6080   48.3480 C   0  0  0  0  0  0  0  0  0  0  0  0
   60.5700   31.5680   51.8210 N   0  0  0  0  0  0  0  0  0  0  0  0
   59.2540   31.0400   51.4640 C   0  0  0  0  0  0  0  0  0  0  0  0
   59.0050   31.2060   49.9880 C   0  0  0  0  0  0  0  0  0  0  0  0
   58.3930   32.3710   49.5080 C   0  0  0  0  0  0  0  0  0  0  0  0
   58.2050   32.5450   48.1740 N   0  0  0  0  0  0  0  0  0  0  0  0
   58.6010   31.6210   47.2580 C   0  0  0  0  0  0  0  0  0  0  0  0
   58.3960   31.8850   45.8630 N   0  0  0  0  0  0  0  0  0  0  0  0
   58.7550   33.1950   45.3220 C   0  0  0  0  0  0  0  0  0  0  0  0
   57.8630   33.5170   44.1180 C   0  0  0  0  0  0  0  0  0  0  0  0
   57.8720   32.4530   43.1830 O   0  0  0  0  0  0  0  0  0  0  0  0
   57.2920   31.2990   43.7600 C   0  0  0  0  0  0  0  0  0  0  0  0
   58.1470   30.7900   44.9230 C   0  0  0  0  0  0  0  0  0  0  0  0
   59.2680   30.4610   47.6860 C   0  0  0  0  0  0  0  0  0  0  0  0
   59.7340   29.5380   46.7410 O   0  0  0  0  0  0  0  0  0  0  0  0
   59.3130   28.2040   46.6550 C   0  0  0  0  0  0  0  0  0  0  0  0
   60.2320   27.1210   46.7290 C   0  0  0  0  0  0  0  0  0  0  0  0
   59.7840   25.7930   46.6180 C   0  0  0  0  0  0  0  0  0  0  0  0
   58.4230   25.5760   46.4280 C   0  0  0  0  0  0  0  0  0  0  0  0
   57.5320   26.6160   46.3460 C   0  0  0  0  0  0  0  0  0  0  0  0
   57.9450   27.9430   46.4510 C   0  0  0  0  0  0  0  0  0  0  0  0
   56.2110   26.0390   46.1340 C   0  0  0  0  0  0  0  0  0  0  0  0
   55.1440   26.6930   46.0080 O   0  0  0  0  0  0  0  0  0  0  0  0
   56.2730   24.6110   46.0810 N   0  0  0  0  0  0  0  0  0  0  0  0
   57.6650   24.3430   46.2680 C   0  0  0  0  0  0  0  0  0  0  0  0
   58.1540   23.1830   46.2860 O   0  0  0  0  0  0  0  0  0  0  0  0
   59.4520   30.2490   49.0630 C   0  0  0  0  0  0  0  0  0  0  0  0
   60.0560   29.1120   49.4980 F   0  0  0  0  0  0  0  0  0  0  0  0
   62.2145   34.5400   52.0893 H   0  0  0  0  0  0  0  0  0  0  0  0
   62.3925   33.3104   53.4048 H   0  0  0  0  0  0  0  0  0  0  0  0
   63.6368   34.6810   50.9838 H   0  0  0  0  0  0  0  0  0  0  0  0
   64.8102   33.3983   50.5515 H   0  0  0  0  0  0  0  0  0  0  0  0
   61.4180   34.8065   49.7949 H   0  0  0  0  0  0  0  0  0  0  0  0
   60.2707   34.4796   47.6033 H   0  0  0  0  0  0  0  0  0  0  0  0
   61.2604   32.9610   45.8862 H   0  0  0  0  0  0  0  0  0  0  0  0
   63.3917   31.7515   46.3669 H   0  0  0  0  0  0  0  0  0  0  0  0
   64.5395   32.0665   48.5611 H   0  0  0  0  0  0  0  0  0  0  0  0
   61.3970   30.9280   51.8590 H   0  0  0  0  0  0  0  0  0  0  0  0
   59.2102   29.9714   51.7211 H   0  0  0  0  0  0  0  0  0  0  0  0
   58.4839   31.5943   52.0205 H   0  0  0  0  0  0  0  0  0  0  0  0
   58.0635   33.1477   50.2138 H   0  0  0  0  0  0  0  0  0  0  0  0
   58.6140   33.9623   46.0975 H   0  0  0  0  0  0  0  0  0  0  0  0
   59.8077   33.1822   45.0032 H   0  0  0  0  0  0  0  0  0  0  0  0
   56.8328   33.6812   44.4668 H   0  0  0  0  0  0  0  0  0  0  0  0
   58.2506   34.4209   43.6254 H   0  0  0  0  0  0  0  0  0  0  0  0
   56.2869   31.5470   44.1318 H   0  0  0  0  0  0  0  0  0  0  0  0
   57.2311   30.5120   42.9939 H   0  0  0  0  0  0  0  0  0  0  0  0
   57.6161   29.9770   45.4398 H   0  0  0  0  0  0  0  0  0  0  0  0
   59.1057   30.4146   44.5358 H   0  0  0  0  0  0  0  0  0  0  0  0
   61.3032   27.3243   46.8744 H   0  0  0  0  0  0  0  0  0  0  0  0
   60.4886   24.9506   46.6796 H   0  0  0  0  0  0  0  0  0  0  0  0
   57.2194   28.7664   46.3763 H   0  0  0  0  0  0  0  0  0  0  0  0
  1  2  2  0
  2  3  1  0
  3  4  1  0
  4  5  1  0
  5  6  1  0
  6  7  2  0
  7  8  1  0
  8  9  2  0
  9 10  1  0
 10 11  2  0
  2 12  1  0
 12 13  1  0
 13 14  1  0
 14 15  2  0
 15 16  1  0
 16 17  2  0
 17 18  1  0
 18 19  1  0
 19 20  1  0
 20 21  1  0
 21 22  1  0
 22 23  1  0
 17 24  1  0
 24 25  1  0
 25 26  1  0
 26 27  2  0
 27 28  1  0
 28 29  2  0
 29 30  1  0
 30 31  2  0
 30 32  1  0
 32 33  2  0
 32 34  1  0
 34 35  1  0
 35 36  2  0
 24 37  2  0
 37 38  1  0
 11  6  1  0
 37 14  1  0
 23 18  1  0
 31 26  1  0
 35 29  1  0
  3 39  1  0
  3 40  1  0
  5 41  1  0
  5 42  1  0
  7 43  1  0
  8 44  1  0
  9 45  1  0
 10 46  1  0
 11 47  1  0
 12 48  1  0
 13 49  1  0
 13 50  1  0
 15 51  1  0
 19 52  1  0
 19 53  1  0
 20 54  1  0
 20 55  1  0
 22 56  1  0
 22 57  1  0
 23 58  1  0
 23 59  1  0
 27 60  1  0
 28 61  1  0
 31 62  1  0
M  CHG  1  34  -1
M  END
>  <UniqueID>  (30) 
29

>  <SMILES>  (30) 
O=C(COCc1ccccc1)NCc1cnc(N2CCOCC2)c(Oc2ccc3c(c2)C(=O)[N-]C3=O)c1F

>  <Energy>  (30) 
111.08278046748123

>  <Genealogy>  (30) 
O=C(COCc1ccccc1)NCc1cnc(N2CCOCC2)c(Oc2ccc3c(c2)C(=O)[N-]C3=O)c1F (protonated)
O=C(COCc1ccccc1)NCc1cnc(N2CCOCC2)c(Oc2ccc3c(c2)C(=O)[N-]C3=O)c1F (3D coordinates assigned)
O=C(COCc1ccccc1)NCc1cnc(N2CCOCC2)c(Oc2ccc3c(c2)C(=O)[N-]C3=O)c1F (nonaromatic ring conformer: 111.08278046748123 kcal/mol)

>  <smiles>  (30) 
O=C(COCc1ccccc1)NCc1cnc(N2CCOCC2)c(Oc2ccc3c(c2)C(=O)NC3=O)c1F

>  <score_type>  (30) 
oracle

>  <origin>  (30) 
adg

>  <m_score__min__energy>  (30) 
-11.49

>  <m_primary>  (30) 
energy

$$$$
30:0
     RDKit          3D

 41 44  0  0  0  0  0  0  0  0999 V2000
   54.6127   22.9590   45.0166 H   0  0  0  0  0  0  0  0  0  0  0  0
   55.4170   23.7000   44.8980 C   0  0  0  0  0  0  0  0  0  0  0  0
   55.4740   24.8100   45.7470 C   0  0  0  0  0  0  0  0  0  0  0  0
   54.7240   24.9301   46.5427 H   0  0  0  0  0  0  0  0  0  0  0  0
   56.4830   25.7700   45.5880 C   0  0  0  0  0  0  0  0  0  0  0  0
   56.9660   31.2320   44.8620 N   0  0  0  0  0  0  0  0  0  0  0  0
   57.4330   30.1860   45.4880 C   0  0  0  0  0  0  0  0  0  0  0  0
   58.4590   28.0670   46.8530 N   0  0  0  0  0  0  0  0  0  0  0  0
   59.1870   29.2080   46.7260 C   0  0  0  0  0  0  0  0  0  0  0  0
   60.4760   29.3100   47.2650 O   0  0  0  0  0  0  0  0  0  0  0  0
   61.0170   30.4590   47.8600 C   0  0  0  0  0  0  0  0  0  0  0  0
   60.7700   30.6870   49.2170 C   0  0  0  0  0  0  0  0  0  0  0  0
   60.1582   29.9731   49.7880 H   0  0  0  0  0  0  0  0  0  0  0  0
   61.2950   31.8160   49.8540 C   0  0  0  0  0  0  0  0  0  0  0  0
   61.0857   31.9911   50.9196 H   0  0  0  0  0  0  0  0  0  0  0  0
   62.0860   32.7240   49.1400 C   0  0  0  0  0  0  0  0  0  0  0  0
   62.6160   33.8810   49.8180 C   0  0  0  0  0  0  0  0  0  0  0  0
   63.0420   34.8090   50.3630 N   0  0  0  0  0  0  0  0  0  0  0  0
   62.3590   32.4910   47.7800 C   0  0  0  0  0  0  0  0  0  0  0  0
   63.3670   33.5920   46.8460 Cl  0  0  0  0  0  0  0  0  0  0  0  0
   61.8290   31.3600   47.1470 C   0  0  0  0  0  0  0  0  0  0  0  0
   62.0490   31.1747   46.0853 H   0  0  0  0  0  0  0  0  0  0  0  0
   58.6720   30.2580   46.0400 N   0  0  0  0  0  0  0  0  0  0  0  0
   57.2250   27.9760   46.2990 C   0  0  0  0  0  0  0  0  0  0  0  0
   56.5280   26.8930   46.4800 N   0  0  0  0  0  0  0  0  0  0  0  0
   57.5500   32.5420   44.5170 C   0  0  0  0  0  0  0  0  0  0  0  0
   57.6418   32.2929   43.4495 H   0  0  0  0  0  0  0  0  0  0  0  0
   58.4720   33.2140   45.5240 C   0  0  0  0  0  0  0  0  0  0  0  0
   58.7449   32.6936   46.4539 H   0  0  0  0  0  0  0  0  0  0  0  0
   59.4746   33.6648   45.4835 H   0  0  0  0  0  0  0  0  0  0  0  0
   57.0450   33.7250   45.3230 C   0  0  0  0  0  0  0  0  0  0  0  0
   56.2905   33.5734   46.1090 H   0  0  0  0  0  0  0  0  0  0  0  0
   56.5940   34.6979   45.0781 H   0  0  0  0  0  0  0  0  0  0  0  0
   56.7170   29.0390   45.6170 N   0  0  0  0  0  0  0  0  0  0  0  0
   57.4700   25.5760   44.6090 C   0  0  0  0  0  0  0  0  0  0  0  0
   58.2920   26.3002   44.5099 H   0  0  0  0  0  0  0  0  0  0  0  0
   57.4140   24.4670   43.7590 C   0  0  0  0  0  0  0  0  0  0  0  0
   58.1805   24.3305   42.9819 H   0  0  0  0  0  0  0  0  0  0  0  0
   56.3820   23.5300   43.8970 C   0  0  0  0  0  0  0  0  0  0  0  0
   56.3230   22.3870   43.0240 C   0  0  0  0  0  0  0  0  0  0  0  0
   56.2730   21.4680   42.3220 N   0  0  0  0  0  0  0  0  0  0  0  0
  1  2  1  0
  2  3  2  0
  3  4  1  0
  3  5  1  0
  5  6  1  0
  6  7  2  0
  7  8  1  0
  8  9  2  0
  9 10  1  0
 10 11  1  0
 11 12  2  0
 12 13  1  0
 12 14  1  0
 14 15  1  0
 14 16  2  0
 16 17  1  0
 17 18  3  0
 16 19  1  0
 19 20  1  0
 19 21  2  0
 21 22  1  0
  9 23  1  0
 23 24  1  0
 24 25  2  0
 25 26  1  0
 26 27  1  0
 26 28  1  0
 28 29  1  0
 28 30  1  0
 28 31  1  0
 31 32  1  0
 31 33  1  0
 24 34  1  0
  5 35  2  0
 35 36  1  0
 35 37  1  0
 37 38  1  0
 37 39  2  0
 39 40  1  0
 40 41  3  0
 39  2  1  0
 34  7  1  0
 21 11  1  0
 31 26  1  0
M  CHG  2  23  -1  34  -1
M  END
>  <UniqueID>  (31) 
30

>  <SMILES>  (31) 
N#Cc1ccc(/N=c2/nc(Oc3ccc(C#N)c(Cl)c3)[n-]/c(=N/C3CC3)[n-]2)cc1

>  <Energy>  (31) 
329.7267001720649

>  <Genealogy>  (31) 
N#Cc1ccc(N=c2nc(Oc3ccc(C#N)c(Cl)c3)[n-]c(=NC3CC3)[n-]2)cc1 (protonated)
N#Cc1ccc(/N=c2/nc(Oc3ccc(C#N)c(Cl)c3)[n-]/c(=N/C3CC3)[n-]2)cc1 (cis-trans isomerization)
N#Cc1ccc(/N=c2/nc(Oc3ccc(C#N)c(Cl)c3)[n-]/c(=N/C3CC3)[n-]2)cc1 (3D coordinates assigned)
N#Cc1ccc(/N=c2/nc(Oc3ccc(C#N)c(Cl)c3)[n-]/c(=N/C3CC3)[n-]2)cc1 (nonaromatic ring conformer: 329.7267001720649 kcal/mol)

>  <smiles>  (31) 
N#Cc1ccc(N=c2nc(Oc3ccc(C#N)c(Cl)c3)[nH]c(=NC3CC3)[nH]2)cc1

>  <score_type>  (31) 
oracle

>  <origin>  (31) 
adg

>  <m_score__min__energy>  (31) 
-11.199999999999999

>  <m_primary>  (31) 
energy

$$$$
31:0
     RDKit          3D

 55 57  0  0  0  0  0  0  0  0999 V2000
   54.4600   24.9700   45.6210 C   0  0  0  0  0  0  0  0  0  0  0  0
   54.9170   26.2730   45.9720 O   0  0  0  0  0  0  0  0  0  0  0  0
   56.2640   26.6100   46.1760 C   0  0  0  0  0  0  0  0  0  0  0  0
   56.7470   27.7900   45.6010 C   0  0  0  0  0  0  0  0  0  0  0  0
   58.0760   28.1790   45.7890 C   0  0  0  0  0  0  0  0  0  0  0  0
   58.9460   27.3850   46.5510 C   0  0  0  0  0  0  0  0  0  0  0  0
   60.3710   27.8170   46.7860 C   0  0  0  0  0  0  0  0  0  0  0  0
   60.6820   28.0350   48.2730 C   0  0  0  0  0  0  0  0  0  0  0  0
   60.6010   29.4560   48.6590 N   0  0  0  0  0  0  0  0  0  0  0  0
   60.8480   29.8250   50.0670 C   0  0  0  0  0  0  0  0  0  0  0  0
   59.7260   30.6680   50.6210 C   0  0  0  0  0  0  0  0  0  0  0  0
   59.9450   32.0210   50.9390 C   0  0  0  0  0  0  0  0  0  0  0  0
   58.9020   32.8090   51.4330 C   0  0  0  0  0  0  0  0  0  0  0  0
   57.6350   32.2520   51.6280 C   0  0  0  0  0  0  0  0  0  0  0  0
   57.4140   30.9040   51.3370 C   0  0  0  0  0  0  0  0  0  0  0  0
   58.4550   30.1140   50.8390 C   0  0  0  0  0  0  0  0  0  0  0  0
   60.2150   30.4340   47.6580 C   0  0  0  0  0  0  0  0  0  0  0  0
   61.0490   30.7770   46.7750 O   0  0  0  0  0  0  0  0  0  0  0  0
   58.8810   30.9710   47.6000 N   0  0  0  0  0  0  0  0  0  0  0  0
   58.4990   31.9440   46.6140 C   0  0  0  0  0  0  0  0  0  0  0  0
   57.7940   31.5170   45.4780 C   0  0  0  0  0  0  0  0  0  0  0  0
   57.4490   32.4250   44.4750 C   0  0  0  0  0  0  0  0  0  0  0  0
   57.7980   33.7700   44.5980 C   0  0  0  0  0  0  0  0  0  0  0  0
   58.4770   34.2140   45.7350 C   0  0  0  0  0  0  0  0  0  0  0  0
   58.8140   33.3150   46.7560 C   0  0  0  0  0  0  0  0  0  0  0  0
   59.5910   33.9570   48.2460 S   0  0  0  0  0  0  0  0  0  0  0  0
   61.2760   33.8360   47.5710 C   0  0  0  0  0  0  0  0  0  0  0  0
   58.4670   26.1950   47.1210 C   0  0  0  0  0  0  0  0  0  0  0  0
   57.1360   25.8100   46.9380 C   0  0  0  0  0  0  0  0  0  0  0  0
   54.2578   24.3936   46.5358 H   0  0  0  0  0  0  0  0  0  0  0  0
   53.5371   25.0525   45.0281 H   0  0  0  0  0  0  0  0  0  0  0  0
   55.2322   24.4580   45.0281 H   0  0  0  0  0  0  0  0  0  0  0  0
   56.0754   28.4168   44.9960 H   0  0  0  0  0  0  0  0  0  0  0  0
   58.4419   29.1128   45.3371 H   0  0  0  0  0  0  0  0  0  0  0  0
   61.0441   27.0397   46.3952 H   0  0  0  0  0  0  0  0  0  0  0  0
   60.5184   28.7771   46.2697 H   0  0  0  0  0  0  0  0  0  0  0  0
   59.9587   27.4636   48.8732 H   0  0  0  0  0  0  0  0  0  0  0  0
   61.7122   27.6950   48.4548 H   0  0  0  0  0  0  0  0  0  0  0  0
   60.9359   28.9074   50.6672 H   0  0  0  0  0  0  0  0  0  0  0  0
   61.7769   30.4124   50.1127 H   0  0  0  0  0  0  0  0  0  0  0  0
   60.9432   32.4611   50.7979 H   0  0  0  0  0  0  0  0  0  0  0  0
   59.0783   33.8689   51.6687 H   0  0  0  0  0  0  0  0  0  0  0  0
   56.8127   32.8747   52.0103 H   0  0  0  0  0  0  0  0  0  0  0  0
   56.4195   30.4630   51.4998 H   0  0  0  0  0  0  0  0  0  0  0  0
   58.2765   29.0516   50.6167 H   0  0  0  0  0  0  0  0  0  0  0  0
   58.1050   30.4540   48.0650 H   0  0  0  0  0  0  0  0  0  0  0  0
   57.5111   30.4588   45.3771 H   0  0  0  0  0  0  0  0  0  0  0  0
   56.9010   32.0791   43.5862 H   0  0  0  0  0  0  0  0  0  0  0  0
   57.5385   34.4808   43.7997 H   0  0  0  0  0  0  0  0  0  0  0  0
   58.7489   35.2757   45.8296 H   0  0  0  0  0  0  0  0  0  0  0  0
   61.9994   33.7840   48.3980 H   0  0  0  0  0  0  0  0  0  0  0  0
   61.3594   32.9296   46.9534 H   0  0  0  0  0  0  0  0  0  0  0  0
   61.4880   34.7212   46.9534 H   0  0  0  0  0  0  0  0  0  0  0  0
   59.1428   25.5621   47.7149 H   0  0  0  0  0  0  0  0  0  0  0  0
   56.7683   24.8777   47.3915 H   0  0  0  0  0  0  0  0  0  0  0  0
  1  2  1  0
  2  3  1  0
  3  4  2  0
  4  5  1  0
  5  6  2  0
  6  7  1  0
  7  8  1  0
  8  9  1  0
  9 10  1  0
 10 11  1  0
 11 12  2  0
 12 13  1  0
 13 14  2  0
 14 15  1  0
 15 16  2  0
  9 17  1  0
 17 18  2  0
 17 19  1  0
 19 20  1  0
 20 21  2  0
 21 22  1  0
 22 23  2  0
 23 24  1  0
 24 25  2  0
 25 26  1  0
 26 27  1  0
  6 28  1  0
 28 29  2  0
 29  3  1  0
 16 11  1  0
 25 20  1  0
  1 30  1  0
  1 31  1  0
  1 32  1  0
  4 33  1  0
  5 34  1  0
  7 35  1  0
  7 36  1  0
  8 37  1  0
  8 38  1  0
 10 39  1  0
 10 40  1  0
 12 41  1  0
 13 42  1  0
 14 43  1  0
 15 44  1  0
 16 45  1  0
 19 46  1  0
 21 47  1  0
 22 48  1  0
 23 49  1  0
 24 50  1  0
 27 51  1  0
 27 52  1  0
 27 53  1  0
 28 54  1  0
 29 55  1  0
M  END
>  <UniqueID>  (32) 
31

>  <SMILES>  (32) 
COc1ccc(CCN(Cc2ccccc2)C(=O)Nc2ccccc2SC)cc1

>  <Energy>  (32) 
52.02264479443663

>  <Genealogy>  (32) 
COc1ccc(CCN(Cc2ccccc2)C(=O)Nc2ccccc2SC)cc1 (3D coordinates assigned)
COc1ccc(CCN(Cc2ccccc2)C(=O)Nc2ccccc2SC)cc1 (optimized conformer: 52.02264479443663 kcal/mol)

>  <smiles>  (32) 
COc1ccc(CCN(Cc2ccccc2)C(=O)Nc2ccccc2SC)cc1

>  <score_type>  (32) 
oracle

>  <origin>  (32) 
adg

>  <m_score__min__energy>  (32) 
-8.3699999999999992

>  <m_primary>  (32) 
energy

$$$$
32:0
     RDKit          3D

 56 60  0  0  0  0  0  0  0  0999 V2000
   56.1440   21.4700   42.6260 O   0  0  0  0  0  0  0  0  0  0  0  0
   57.1440   21.7320   43.3470 C   0  0  0  0  0  0  0  0  0  0  0  0
   57.1600   22.9150   44.2260 C   0  0  0  0  0  0  0  0  0  0  0  0
   55.9790   23.6470   44.4260 C   0  0  0  0  0  0  0  0  0  0  0  0
   55.9760   24.7710   45.2570 C   0  0  0  0  0  0  0  0  0  0  0  0
   57.1520   25.1880   45.8910 C   0  0  0  0  0  0  0  0  0  0  0  0
   57.1040   26.3150   46.7250 O   0  0  0  0  0  0  0  0  0  0  0  0
   58.2220   26.9620   47.2680 C   0  0  0  0  0  0  0  0  0  0  0  0
   59.1610   26.2160   47.9050 N   0  0  0  0  0  0  0  0  0  0  0  0
   60.2660   26.7860   48.4470 C   0  0  0  0  0  0  0  0  0  0  0  0
   60.4430   28.1290   48.3780 N   0  0  0  0  0  0  0  0  0  0  0  0
   59.5250   28.9290   47.7760 C   0  0  0  0  0  0  0  0  0  0  0  0
   59.7300   30.3450   47.7680 N   0  0  0  0  0  0  0  0  0  0  0  0
   59.7640   31.1370   48.9810 C   0  0  0  0  0  0  0  0  0  0  0  0
   60.1170   32.5480   48.5310 C   0  0  0  0  0  0  0  0  0  0  0  0
   60.7630   32.3970   47.1430 C   0  0  2  0  0  0  0  0  0  0  0  0
   60.4340   33.5530   46.1600 C   0  0  0  0  0  0  0  0  0  0  0  0
   58.9920   33.8120   45.9500 N   0  0  0  0  0  0  0  0  0  0  0  0
   58.0680   32.9980   46.7640 C   0  0  0  0  0  0  0  0  0  0  0  0
   57.7410   31.7750   46.1110 O   0  0  0  0  0  0  0  0  0  0  0  0
   57.5790   31.7060   44.7290 C   0  0  0  0  0  0  0  0  0  0  0  0
   57.0530   30.5490   44.1450 C   0  0  0  0  0  0  0  0  0  0  0  0
   56.8940   30.4750   42.7580 C   0  0  0  0  0  0  0  0  0  0  0  0
   57.2600   31.5580   41.9530 C   0  0  0  0  0  0  0  0  0  0  0  0
   57.7940   32.7130   42.5330 C   0  0  0  0  0  0  0  0  0  0  0  0
   57.9690   32.7860   43.9230 C   0  0  0  0  0  0  0  0  0  0  0  0
   58.5550   34.0240   44.5530 C   0  0  0  0  0  0  0  0  0  0  0  0
   60.2450   31.0520   46.6120 C   0  0  0  0  0  0  0  0  0  0  0  0
   58.3780   28.3580   47.1990 C   0  0  0  0  0  0  0  0  0  0  0  0
   57.4070   29.1420   46.5710 O   0  0  0  0  0  0  0  0  0  0  0  0
   58.3320   24.4460   45.7070 C   0  0  0  0  0  0  0  0  0  0  0  0
   58.3370   23.3210   44.8770 C   0  0  0  0  0  0  0  0  0  0  0  0
   58.0195   21.0666   43.3198 H   0  0  0  0  0  0  0  0  0  0  0  0
   55.0505   23.3343   43.9259 H   0  0  0  0  0  0  0  0  0  0  0  0
   55.0427   25.3318   45.4138 H   0  0  0  0  0  0  0  0  0  0  0  0
   61.0202   26.1578   48.9436 H   0  0  0  0  0  0  0  0  0  0  0  0
   58.7819   31.1251   49.4763 H   0  0  0  0  0  0  0  0  0  0  0  0
   60.4917   30.7443   49.7064 H   0  0  0  0  0  0  0  0  0  0  0  0
   59.2102   33.1673   48.4660 H   0  0  0  0  0  0  0  0  0  0  0  0
   60.7963   33.0412   49.2418 H   0  0  0  0  0  0  0  0  0  0  0  0
   61.8590   32.4343   47.2296 H   0  0  0  0  0  0  0  0  0  0  0  0
   60.8912   34.4734   46.5522 H   0  0  0  0  0  0  0  0  0  0  0  0
   60.8338   33.2449   45.1826 H   0  0  0  0  0  0  0  0  0  0  0  0
   58.5451   32.7722   47.7291 H   0  0  0  0  0  0  0  0  0  0  0  0
   57.1405   33.5705   46.9121 H   0  0  0  0  0  0  0  0  0  0  0  0
   56.7642   29.6966   44.7775 H   0  0  0  0  0  0  0  0  0  0  0  0
   56.4808   29.5643   42.2998 H   0  0  0  0  0  0  0  0  0  0  0  0
   57.1278   31.5015   40.8624 H   0  0  0  0  0  0  0  0  0  0  0  0
   58.0773   33.5656   41.8983 H   0  0  0  0  0  0  0  0  0  0  0  0
   59.4243   34.3415   43.9585 H   0  0  0  0  0  0  0  0  0  0  0  0
   57.7653   34.7896   44.5686 H   0  0  0  0  0  0  0  0  0  0  0  0
   59.4456   31.2135   45.8739 H   0  0  0  0  0  0  0  0  0  0  0  0
   61.0394   30.4816   46.1084 H   0  0  0  0  0  0  0  0  0  0  0  0
   57.4740   30.1500   46.5140 H   0  0  0  0  0  0  0  0  0  0  0  0
   59.2562   24.7523   46.2189 H   0  0  0  0  0  0  0  0  0  0  0  0
   59.2668   22.7511   44.7330 H   0  0  0  0  0  0  0  0  0  0  0  0
  1  2  2  0
  2  3  1  0
  3  4  2  0
  4  5  1  0
  5  6  2  0
  6  7  1  0
  7  8  1  0
  8  9  2  0
  9 10  1  0
 10 11  2  0
 11 12  1  0
 12 13  1  0
 13 14  1  0
 14 15  1  0
 15 16  1  0
 16 17  1  0
 17 18  1  0
 18 19  1  0
 19 20  1  0
 20 21  1  0
 21 22  2  0
 22 23  1  0
 23 24  2  0
 24 25  1  0
 25 26  2  0
 26 27  1  0
 16 28  1  0
 12 29  2  0
 29 30  1  0
  6 31  1  0
 31 32  2  0
 32  3  1  0
 29  8  1  0
 28 13  1  0
 27 18  1  0
 26 21  1  0
  2 33  1  0
  4 34  1  0
  5 35  1  0
 10 36  1  0
 14 37  1  0
 14 38  1  0
 15 39  1  0
 15 40  1  0
 16 41  1  1
 17 42  1  0
 17 43  1  0
 19 44  1  0
 19 45  1  0
 22 46  1  0
 23 47  1  0
 24 48  1  0
 25 49  1  0
 27 50  1  0
 27 51  1  0
 28 52  1  0
 28 53  1  0
 30 54  1  0
 31 55  1  0
 32 56  1  0
M  END
>  <UniqueID>  (33) 
32

>  <SMILES>  (33) 
O=Cc1ccc(Oc2ncnc(N3CC[C@H](CN4COc5ccccc5C4)C3)c2O)cc1

>  <Energy>  (33) 
87.27949169711768

>  <Genealogy>  (33) 
O=Cc1ccc(Oc2ncnc(N3CC[C@H](CN4COc5ccccc5C4)C3)c2O)cc1 (chirality)
O=Cc1ccc(Oc2ncnc(N3CC[C@H](CN4COc5ccccc5C4)C3)c2O)cc1 (3D coordinates assigned)
O=Cc1ccc(Oc2ncnc(N3CC[C@H](CN4COc5ccccc5C4)C3)c2O)cc1 (nonaromatic ring conformer: 87.27949169711768 kcal/mol)

>  <smiles>  (33) 
O=Cc1ccc(Oc2ncnc(N3CCC(CN4COc5ccccc5C4)C3)c2O)cc1

>  <score_type>  (33) 
oracle

>  <origin>  (33) 
adg

>  <m_score__min__energy>  (33) 
-9.4199999999999999

>  <m_primary>  (33) 
energy

$$$$
33:0
     RDKit          3D

 34 35  0  0  0  0  0  0  0  0999 V2000
   57.4150   31.9250   45.0590 C   0  0  0  0  0  0  0  0  0  0  0  0
   56.6950   30.6990   45.1410 O   0  0  0  0  0  0  0  0  0  0  0  0
   57.2260   29.4460   44.8040 C   0  0  0  0  0  0  0  0  0  0  0  0
   57.2170   28.9520   43.4850 C   0  0  0  0  0  0  0  0  0  0  0  0
   57.7750   27.7030   43.1990 C   0  0  0  0  0  0  0  0  0  0  0  0
   58.3500   26.9410   44.2170 C   0  0  0  0  0  0  0  0  0  0  0  0
   58.3710   27.4220   45.5350 C   0  0  0  0  0  0  0  0  0  0  0  0
   59.0400   26.6190   46.6190 C   0  0  0  0  0  0  0  0  0  0  0  0
   58.0410   25.9750   47.4670 N   0  0  0  0  0  0  0  0  0  0  0  0
   57.1500   24.9370   47.0410 C   0  0  0  0  0  0  0  0  0  0  0  0
   56.1450   24.6610   47.7480 O   0  0  0  0  0  0  0  0  0  0  0  0
   57.3940   24.1670   45.8100 C   0  0  0  0  0  0  0  0  0  0  0  0
   58.6710   23.5140   45.6740 C   0  0  0  0  0  0  0  0  0  0  0  0
   59.6970   22.9890   45.5630 N   0  0  0  0  0  0  0  0  0  0  0  0
   56.4950   24.0580   44.8140 C   0  0  0  0  0  0  0  0  0  0  0  0
   55.0250   24.0090   44.9970 C   0  0  0  0  0  0  0  0  0  0  0  0
   54.2390   22.9600   44.6880 N   0  0  0  0  0  0  0  0  0  0  0  0
   53.0040   23.3680   45.0430 C   0  0  0  0  0  0  0  0  0  0  0  0
   51.9840   22.6440   44.9070 O   0  0  0  0  0  0  0  0  0  0  0  0
   52.9480   24.6120   45.5600 N   0  0  0  0  0  0  0  0  0  0  0  0
   54.2310   25.0080   45.5270 C   0  0  0  0  0  0  0  0  0  0  0  0
   54.6520   26.2530   45.9910 O   0  0  0  0  0  0  0  0  0  0  0  0
   57.7930   28.6680   45.8220 C   0  0  0  0  0  0  0  0  0  0  0  0
   57.6306   32.2921   46.0733 H   0  0  0  0  0  0  0  0  0  0  0  0
   58.3597   31.7601   44.5202 H   0  0  0  0  0  0  0  0  0  0  0  0
   56.8108   32.6697   44.5202 H   0  0  0  0  0  0  0  0  0  0  0  0
   56.7696   29.5508   42.6780 H   0  0  0  0  0  0  0  0  0  0  0  0
   57.7609   27.3193   42.1682 H   0  0  0  0  0  0  0  0  0  0  0  0
   58.7886   25.9592   43.9852 H   0  0  0  0  0  0  0  0  0  0  0  0
   59.6757   25.8482   46.1589 H   0  0  0  0  0  0  0  0  0  0  0  0
   59.6505   27.2938   47.2371 H   0  0  0  0  0  0  0  0  0  0  0  0
   56.8809   24.0009   43.7855 H   0  0  0  0  0  0  0  0  0  0  0  0
   55.1390   26.3620   46.8710 H   0  0  0  0  0  0  0  0  0  0  0  0
   57.7849   29.0381   46.8578 H   0  0  0  0  0  0  0  0  0  0  0  0
  1  2  1  0
  2  3  1  0
  3  4  2  0
  4  5  1  0
  5  6  2  0
  6  7  1  0
  7  8  1  0
  8  9  1  0
  9 10  1  0
 10 11  2  0
 10 12  1  0
 12 13  1  0
 13 14  3  0
 12 15  2  3
 15 16  1  0
 16 17  1  0
 17 18  1  0
 18 19  2  0
 18 20  1  0
 20 21  1  0
 21 22  1  0
  7 23  2  0
 23  3  1  0
 21 16  2  0
  1 24  1  0
  1 25  1  0
  1 26  1  0
  4 27  1  0
  5 28  1  0
  6 29  1  0
  8 30  1  0
  8 31  1  0
 15 32  1  0
 22 33  1  0
 23 34  1  0
M  CHG  3   9  -1  17  -1  20  -1
M  END
>  <UniqueID>  (34) 
33

>  <SMILES>  (34) 
COc1cccc(C[N-]C(=O)C(C#N)=Cc2[n-]c(=O)[n-]c2O)c1

>  <Energy>  (34) 
64.03569600189338

>  <Genealogy>  (34) 
COc1cccc(C[N-]C(=O)C(C#N)=Cc2[n-]c(=O)[n-]c2O)c1 (protonated)
COc1cccc(C[N-]C(=O)C(C#N)=Cc2[n-]c(=O)[n-]c2O)c1 (3D coordinates assigned)
COc1cccc(C[N-]C(=O)C(C#N)=Cc2[n-]c(=O)[n-]c2O)c1 (optimized conformer: 64.03569600189338 kcal/mol)

>  <smiles>  (34) 
COc1cccc(CNC(=O)C(C#N)=Cc2[nH]c(=O)[nH]c2O)c1

>  <score_type>  (34) 
oracle

>  <origin>  (34) 
adg

>  <m_score__min__energy>  (34) 
-14

>  <m_primary>  (34) 
energy

$$$$
34:0
     RDKit          3D

 53 57  0  0  0  0  0  0  0  0999 V2000
   60.2260   32.3480   52.6580 H   0  0  0  0  0  0  0  0  0  0  0  0
   60.7320   32.9010   51.9780 O   0  0  0  0  0  0  0  0  0  0  0  0
   61.3590   32.3440   50.8630 C   0  0  0  0  0  0  0  0  0  0  0  0
   62.6570   32.7650   50.5500 C   0  0  0  0  0  0  0  0  0  0  0  0
   63.1591   33.5072   51.1880 H   0  0  0  0  0  0  0  0  0  0  0  0
   63.3180   32.2500   49.4350 C   0  0  0  0  0  0  0  0  0  0  0  0
   64.3329   32.5961   49.1896 H   0  0  0  0  0  0  0  0  0  0  0  0
   62.6940   31.2970   48.6310 C   0  0  0  0  0  0  0  0  0  0  0  0
   63.2149   30.9039   47.7455 H   0  0  0  0  0  0  0  0  0  0  0  0
   61.4090   30.8370   48.9430 C   0  0  0  0  0  0  0  0  0  0  0  0
   60.8060   29.8520   48.0900 N   0  0  0  0  0  0  0  0  0  0  0  0
   59.7730   30.0640   47.3320 C   0  0  0  0  0  0  0  0  0  0  0  0
   59.2460   29.0290   46.6200 N   0  0  0  0  0  0  0  0  0  0  0  0
   58.1760   29.2700   45.8250 C   0  0  0  0  0  0  0  0  0  0  0  0
   57.4550   28.3840   45.0470 C   0  0  0  0  0  0  0  0  0  0  0  0
   57.6280   27.0710   44.8370 C   0  0  0  0  0  0  0  0  0  0  0  0
   58.1582   26.7620   43.9241 H   0  0  0  0  0  0  0  0  0  0  0  0
   57.1550   26.0160   45.7480 C   0  0  0  0  0  0  0  0  0  0  0  0
   57.9650   25.1000   46.3060 N   0  0  0  0  0  0  0  0  0  0  0  0
   57.1410   24.4140   47.1280 C   0  0  0  0  0  0  0  0  0  0  0  0
   57.5350   23.4450   47.8270 O   0  0  0  0  0  0  0  0  0  0  0  0
   55.8650   24.8540   47.1480 N   0  0  0  0  0  0  0  0  0  0  0  0
   55.8930   25.8780   46.2800 C   0  0  0  0  0  0  0  0  0  0  0  0
   54.7990   26.6910   46.0130 O   0  0  0  0  0  0  0  0  0  0  0  0
   56.4230   29.1640   44.5360 C   0  0  0  0  0  0  0  0  0  0  0  0
   55.6264   28.7999   43.8705 H   0  0  0  0  0  0  0  0  0  0  0  0
   56.5440   30.4380   44.9790 N   0  0  0  0  0  0  0  0  0  0  0  0
   57.6140   30.4820   45.7570 N   0  0  0  0  0  0  0  0  0  0  0  0
   58.1170   31.5340   46.4660 C   0  0  0  0  0  0  0  0  0  0  0  0
   57.6190   32.7370   46.4190 N   0  0  0  0  0  0  0  0  0  0  0  0
   57.7520   33.7170   45.3450 C   0  0  0  0  0  0  0  0  0  0  0  0
   57.0921   33.4339   44.5117 H   0  0  0  0  0  0  0  0  0  0  0  0
   57.4703   34.7087   45.7286 H   0  0  0  0  0  0  0  0  0  0  0  0
   59.2030   33.7680   44.8470 C   0  0  0  0  0  0  0  0  0  0  0  0
   59.5812   32.7398   44.7478 H   0  0  0  0  0  0  0  0  0  0  0  0
   59.2127   34.2896   43.8786 H   0  0  0  0  0  0  0  0  0  0  0  0
   60.0820   34.5140   45.7790 N   0  0  0  0  0  0  0  0  0  0  0  0
   59.2930   35.2780   46.7770 C   0  0  0  0  0  0  0  0  0  0  0  0
   59.7517   36.2690   46.9096 H   0  0  0  0  0  0  0  0  0  0  0  0
   58.2624   35.3644   46.4023 H   0  0  0  0  0  0  0  0  0  0  0  0
   59.2460   34.5650   48.1410 C   0  0  0  0  0  0  0  0  0  0  0  0
   58.6513   35.1786   48.8337 H   0  0  0  0  0  0  0  0  0  0  0  0
   58.8002   33.5738   47.9713 H   0  0  0  0  0  0  0  0  0  0  0  0
   60.5280   34.3520   48.7170 O   0  0  0  0  0  0  0  0  0  0  0  0
   61.5680   34.2100   47.7590 C   0  0  0  0  0  0  0  0  0  0  0  0
   62.0104   35.2005   47.5765 H   0  0  0  0  0  0  0  0  0  0  0  0
   62.2953   33.4975   48.1754 H   0  0  0  0  0  0  0  0  0  0  0  0
   61.0920   33.6350   46.4150 C   0  0  0  0  0  0  0  0  0  0  0  0
   61.9561   33.5367   45.7414 H   0  0  0  0  0  0  0  0  0  0  0  0
   60.6297   32.6545   46.6018 H   0  0  0  0  0  0  0  0  0  0  0  0
   59.2010   31.3070   47.2550 N   0  0  0  0  0  0  0  0  0  0  0  0
   60.7210   31.3820   50.0510 C   0  0  0  0  0  0  0  0  0  0  0  0
   59.0490   30.9170   50.3750 Cl  0  0  0  0  0  0  0  0  0  0  0  0
  1  2  1  0
  2  3  1  0
  3  4  2  0
  4  5  1  0
  4  6  1  0
  6  7  1  0
  6  8  2  0
  8  9  1  0
  8 10  1  0
 10 11  1  0
 11 12  2  3
 12 13  1  0
 13 14  2  0
 14 15  1  0
 15 16  2  3
 16 17  1  0
 16 18  1  0
 18 19  1  0
 19 20  1  0
 20 21  2  0
 20 22  1  0
 22 23  1  0
 23 24  1  0
 15 25  1  0
 25 26  1  0
 25 27  2  0
 27 28  1  0
 28 29  1  0
 29 30  2  0
 30 31  1  0
 31 32  1  0
 31 33  1  0
 31 34  1  0
 34 35  1  0
 34 36  1  0
 34 37  1  0
 37 38  1  0
 38 39  1  0
 38 40  1  0
 38 41  1  0
 41 42  1  0
 41 43  1  0
 41 44  1  0
 44 45  1  0
 45 46  1  0
 45 47  1  0
 45 48  1  0
 48 49  1  0
 48 50  1  0
 29 51  1  0
 10 52  2  0
 52 53  1  0
 52  3  1  0
 51 12  1  0
 28 14  1  0
 48 37  1  0
 23 18  2  0
M  CHG  4  19  -1  22  -1  24  -1  51  -1
M  END
>  <UniqueID>  (35) 
34

>  <SMILES>  (35) 
O=c1[n-]c([O-])c(C=c2cnn3/c(=N\CCN4CCOCC4)[n-]c(=Nc4cccc(O)c4Cl)nc23)[n-]1

>  <Energy>  (35) 
159.59586199198134

>  <Genealogy>  (35) 
O=c1[n-]c([O-])c(C=c2cnn3c(=NCCN4CCOCC4)[n-]c(=Nc4cccc(O)c4Cl)nc23)[n-]1 (protonated)
O=c1[n-]c([O-])c(C=c2cnn3/c(=N\CCN4CCOCC4)[n-]c(=Nc4cccc(O)c4Cl)nc23)[n-]1 (cis-trans isomerization)
O=c1[n-]c([O-])c(C=c2cnn3/c(=N\CCN4CCOCC4)[n-]c(=Nc4cccc(O)c4Cl)nc23)[n-]1 (3D coordinates assigned)
O=c1[n-]c([O-])c(C=c2cnn3/c(=N\CCN4CCOCC4)[n-]c(=Nc4cccc(O)c4Cl)nc23)[n-]1 (nonaromatic ring conformer: 159.59586199198134 kcal/mol)

>  <smiles>  (35) 
O=c1[nH]c(O)c(C=c2cnn3c(=NCCN4CCOCC4)[nH]c(=Nc4cccc(O)c4Cl)nc23)[nH]1

>  <score_type>  (35) 
oracle

>  <origin>  (35) 
adg

>  <m_score__min__energy>  (35) 
-17.149999999999999

>  <m_primary>  (35) 
energy

$$$$
35:0
     RDKit          3D

 52 55  0  0  0  0  0  0  0  0999 V2000
   58.8903   35.7326   44.8592 H   0  0  0  0  0  0  0  0  0  0  0  0
   58.8510   34.6970   45.2280 C   0  0  0  0  0  0  0  0  0  0  0  0
   57.7650   33.9230   44.9680 N   0  0  0  0  0  0  0  0  0  0  0  0
   57.6910   32.6390   45.4190 C   0  0  0  0  0  0  0  0  0  0  0  0
   56.6590   31.8980   45.1570 N   0  0  0  0  0  0  0  0  0  0  0  0
   56.6700   30.6140   43.9880 S   0  0  0  0  0  0  0  0  0  0  0  0
   57.1730   31.1380   42.6690 O   0  0  0  0  0  0  0  0  0  0  0  0
   55.2700   30.0980   43.8030 O   0  0  0  0  0  0  0  0  0  0  0  0
   57.6870   29.3070   44.5820 C   0  0  0  0  0  0  0  0  0  0  0  0
   59.0860   29.3920   44.5170 C   0  0  0  0  0  0  0  0  0  0  0  0
   59.5631   30.2885   44.0944 H   0  0  0  0  0  0  0  0  0  0  0  0
   59.8740   28.3380   44.9890 C   0  0  0  0  0  0  0  0  0  0  0  0
   60.9705   28.4045   44.9321 H   0  0  0  0  0  0  0  0  0  0  0  0
   59.2720   27.2000   45.5330 C   0  0  0  0  0  0  0  0  0  0  0  0
   59.8971   26.3689   45.8917 H   0  0  0  0  0  0  0  0  0  0  0  0
   57.8760   27.1120   45.6240 C   0  0  0  0  0  0  0  0  0  0  0  0
   57.2900   25.9160   46.1550 N   0  0  0  0  0  0  0  0  0  0  0  0
   55.9110   25.5330   46.0390 C   0  0  0  0  0  0  0  0  0  0  0  0
   55.0030   26.3480   46.3650 O   0  0  0  0  0  0  0  0  0  0  0  0
   55.5640   24.2040   45.6030 N   0  0  0  0  0  0  0  0  0  0  0  0
   56.5550   23.3030   45.0730 C   0  0  0  0  0  0  0  0  0  0  0  0
   56.3400   22.6500   43.8420 C   0  0  0  0  0  0  0  0  0  0  0  0
   55.4089   22.8283   43.2842 H   0  0  0  0  0  0  0  0  0  0  0  0
   57.3040   21.7760   43.3250 C   0  0  0  0  0  0  0  0  0  0  0  0
   57.1257   21.2629   42.3685 H   0  0  0  0  0  0  0  0  0  0  0  0
   58.4950   21.5560   44.0270 C   0  0  0  0  0  0  0  0  0  0  0  0
   59.2523   20.8687   43.6219 H   0  0  0  0  0  0  0  0  0  0  0  0
   58.7240   22.2100   45.2450 C   0  0  0  0  0  0  0  0  0  0  0  0
   59.6623   22.0378   45.7927 H   0  0  0  0  0  0  0  0  0  0  0  0
   57.7610   23.0820   45.7660 C   0  0  0  0  0  0  0  0  0  0  0  0
   57.9468   23.5966   46.7203 H   0  0  0  0  0  0  0  0  0  0  0  0
   54.1860   23.8010   45.6040 C   0  0  0  0  0  0  0  0  0  0  0  0
   53.3620   24.0830   44.5000 C   0  0  0  0  0  0  0  0  0  0  0  0
   53.7730   24.6134   43.6283 H   0  0  0  0  0  0  0  0  0  0  0  0
   52.0190   23.6890   44.5100 C   0  0  0  0  0  0  0  0  0  0  0  0
   51.3726   23.9195   43.6503 H   0  0  0  0  0  0  0  0  0  0  0  0
   51.4980   23.0030   45.6110 C   0  0  0  0  0  0  0  0  0  0  0  0
   50.4416   22.6963   45.6179 H   0  0  0  0  0  0  0  0  0  0  0  0
   52.3200   22.7060   46.7050 C   0  0  0  0  0  0  0  0  0  0  0  0
   51.9101   22.1578   47.5661 H   0  0  0  0  0  0  0  0  0  0  0  0
   53.6630   23.1050   46.7060 C   0  0  0  0  0  0  0  0  0  0  0  0
   54.3062   22.8737   47.5678 H   0  0  0  0  0  0  0  0  0  0  0  0
   57.0860   28.1650   45.1270 C   0  0  0  0  0  0  0  0  0  0  0  0
   55.9892   28.0910   45.1667 H   0  0  0  0  0  0  0  0  0  0  0  0
   58.7200   32.1180   46.1400 N   0  0  0  0  0  0  0  0  0  0  0  0
   59.8290   32.8560   46.4220 C   0  0  0  0  0  0  0  0  0  0  0  0
   60.9620   32.2400   47.1810 C   0  0  0  0  0  0  0  0  0  0  0  0
   60.7775   32.3403   48.2608 H   0  0  0  0  0  0  0  0  0  0  0  0
   61.0417   31.1744   46.9201 H   0  0  0  0  0  0  0  0  0  0  0  0
   61.8997   32.7525   46.9201 H   0  0  0  0  0  0  0  0  0  0  0  0
   59.9170   34.1760   45.9640 C   0  0  0  0  0  0  0  0  0  0  0  0
   60.8052   34.7884   46.1789 H   0  0  0  0  0  0  0  0  0  0  0  0
  1  2  1  0
  2  3  1  0
  3  4  1  0
  4  5  2  0
  5  6  1  0
  6  7  2  0
  6  8  2  0
  6  9  1  0
  9 10  2  0
 10 11  1  0
 10 12  1  0
 12 13  1  0
 12 14  2  0
 14 15  1  0
 14 16  1  0
 16 17  1  0
 17 18  1  0
 18 19  2  0
 18 20  1  0
 20 21  1  0
 21 22  2  0
 22 23  1  0
 22 24  1  0
 24 25  1  0
 24 26  2  0
 26 27  1  0
 26 28  1  0
 28 29  1  0
 28 30  2  0
 30 31  1  0
 20 32  1  0
 32 33  2  0
 33 34  1  0
 33 35  1  0
 35 36  1  0
 35 37  2  0
 37 38  1  0
 37 39  1  0
 39 40  1  0
 39 41  2  0
 41 42  1  0
 16 43  2  0
 43 44  1  0
  4 45  1  0
 45 46  2  0
 46 47  1  0
 47 48  1  0
 47 49  1  0
 47 50  1  0
 46 51  1  0
 51 52  1  0
 51  2  2  0
 43  9  1  0
 30 21  1  0
 41 32  1  0
M  CHG  2   3  -1  17  -1
M  END
>  <UniqueID>  (36) 
35

>  <SMILES>  (36) 
Cc1cc[n-]/c(=N\S(=O)(=O)c2cccc([N-]C(=O)N(c3ccccc3)c3ccccc3)c2)n1

>  <Energy>  (36) 
75.66164033789721

>  <Genealogy>  (36) 
Cc1cc[n-]c(=NS(=O)(=O)c2cccc([N-]C(=O)N(c3ccccc3)c3ccccc3)c2)n1 (protonated)
Cc1cc[n-]/c(=N\S(=O)(=O)c2cccc([N-]C(=O)N(c3ccccc3)c3ccccc3)c2)n1 (cis-trans isomerization)
Cc1cc[n-]/c(=N\S(=O)(=O)c2cccc([N-]C(=O)N(c3ccccc3)c3ccccc3)c2)n1 (3D coordinates assigned)
Cc1cc[n-]/c(=N\S(=O)(=O)c2cccc([N-]C(=O)N(c3ccccc3)c3ccccc3)c2)n1 (optimized conformer: 75.66164033789721 kcal/mol)

>  <smiles>  (36) 
Cc1cc[nH]c(=NS(=O)(=O)c2cccc(NC(=O)N(c3ccccc3)c3ccccc3)c2)n1

>  <score_type>  (36) 
oracle

>  <origin>  (36) 
adg

>  <m_score__min__energy>  (36) 
-12.970000000000001

>  <m_primary>  (36) 
energy

$$$$
36:0
     RDKit          3D

 38 40  0  0  0  0  0  0  0  0999 V2000
   59.2490   25.4520   45.7980 O   0  0  0  0  0  0  0  0  0  0  0  0
   57.9960   25.4250   45.6640 C   0  0  0  0  0  0  0  0  0  0  0  0
   57.3390   24.3740   45.1260 N   0  0  0  0  0  0  0  0  0  0  0  0
   56.0400   24.7390   45.1860 C   0  0  0  0  0  0  0  0  0  0  0  0
   55.9510   25.9880   45.7530 C   0  0  0  0  0  0  0  0  0  0  0  0
   54.7780   26.6900   45.9980 O   0  0  0  0  0  0  0  0  0  0  0  0
   57.1850   26.4320   46.0460 N   0  0  0  0  0  0  0  0  0  0  0  0
   57.5490   27.6820   46.7110 C   0  0  0  0  0  0  0  0  0  0  0  0
   57.5820   28.8050   45.7120 C   0  0  0  0  0  0  0  0  0  0  0  0
   56.4360   29.1410   44.9800 C   0  0  0  0  0  0  0  0  0  0  0  0
   56.4920   30.1490   44.0170 C   0  0  0  0  0  0  0  0  0  0  0  0
   57.7080   30.8050   43.7770 C   0  0  0  0  0  0  0  0  0  0  0  0
   57.8290   31.8360   42.6920 C   0  0  0  0  0  0  0  0  0  0  0  0
   58.1930   33.0900   43.2430 O   0  0  0  0  0  0  0  0  0  0  0  0
   57.4060   33.4130   44.3770 C   0  0  0  0  0  0  0  0  0  0  0  0
   58.2620   33.6810   45.5880 C   0  0  0  0  0  0  0  0  0  0  0  0
   59.2470   34.6830   45.5490 C   0  0  0  0  0  0  0  0  0  0  0  0
   60.0120   34.9640   46.6860 C   0  0  0  0  0  0  0  0  0  0  0  0
   59.8060   34.2420   47.8640 C   0  0  0  0  0  0  0  0  0  0  0  0
   58.8320   33.2410   47.9100 C   0  0  0  0  0  0  0  0  0  0  0  0
   58.0640   32.9580   46.7770 C   0  0  0  0  0  0  0  0  0  0  0  0
   58.8100   30.4620   44.4970 N   0  0  0  0  0  0  0  0  0  0  0  0
   58.7760   29.4910   45.4470 C   0  0  0  0  0  0  0  0  0  0  0  0
   55.1900   24.1341   44.8372 H   0  0  0  0  0  0  0  0  0  0  0  0
   56.8069   27.9095   47.4905 H   0  0  0  0  0  0  0  0  0  0  0  0
   58.5451   27.5729   47.1648 H   0  0  0  0  0  0  0  0  0  0  0  0
   55.4908   28.6095   45.1646 H   0  0  0  0  0  0  0  0  0  0  0  0
   55.5905   30.4266   43.4511 H   0  0  0  0  0  0  0  0  0  0  0  0
   58.5990   31.5181   41.9737 H   0  0  0  0  0  0  0  0  0  0  0  0
   56.8583   31.9366   42.1843 H   0  0  0  0  0  0  0  0  0  0  0  0
   56.8110   34.3110   44.1546 H   0  0  0  0  0  0  0  0  0  0  0  0
   56.7543   32.5552   44.5993 H   0  0  0  0  0  0  0  0  0  0  0  0
   59.4170   35.2484   44.6208 H   0  0  0  0  0  0  0  0  0  0  0  0
   60.7765   35.7542   46.6524 H   0  0  0  0  0  0  0  0  0  0  0  0
   60.4109   34.4616   48.7561 H   0  0  0  0  0  0  0  0  0  0  0  0
   58.6695   32.6750   48.8391 H   0  0  0  0  0  0  0  0  0  0  0  0
   57.3015   32.1662   46.8160 H   0  0  0  0  0  0  0  0  0  0  0  0
   59.6878   29.2423   46.0098 H   0  0  0  0  0  0  0  0  0  0  0  0
  1  2  2  0
  2  3  1  0
  3  4  1  0
  4  5  2  0
  5  6  1  0
  5  7  1  0
  7  8  1  0
  8  9  1  0
  9 10  2  0
 10 11  1  0
 11 12  2  0
 12 13  1  0
 13 14  1  0
 14 15  1  0
 15 16  1  0
 16 17  2  0
 17 18  1  0
 18 19  2  0
 19 20  1  0
 20 21  2  0
 12 22  1  0
 22 23  2  0
  7  2  1  0
 23  9  1  0
 21 16  1  0
  4 24  1  0
  8 25  1  0
  8 26  1  0
 10 27  1  0
 11 28  1  0
 13 29  1  0
 13 30  1  0
 15 31  1  0
 15 32  1  0
 17 33  1  0
 18 34  1  0
 19 35  1  0
 20 36  1  0
 21 37  1  0
 23 38  1  0
M  CHG  2   3  -1   6  -1
M  END
>  <UniqueID>  (37) 
36

>  <SMILES>  (37) 
O=c1[n-]cc([O-])n1Cc1ccc(COCc2ccccc2)nc1

>  <Energy>  (37) 
69.96556569264943

>  <Genealogy>  (37) 
O=c1[n-]cc([O-])n1Cc1ccc(COCc2ccccc2)nc1 (protonated)
O=c1[n-]cc([O-])n1Cc1ccc(COCc2ccccc2)nc1 (3D coordinates assigned)
O=c1[n-]cc([O-])n1Cc1ccc(COCc2ccccc2)nc1 (optimized conformer: 69.96556569264943 kcal/mol)

>  <smiles>  (37) 
O=c1[nH]cc(O)n1Cc1ccc(COCc2ccccc2)nc1

>  <score_type>  (37) 
oracle

>  <origin>  (37) 
adg

>  <m_score__min__energy>  (37) 
-12.94

>  <m_primary>  (37) 
energy

$$$$
37:0
     RDKit          3D

 71 74  0  0  0  0  0  0  0  0999 V2000
   53.9210   21.5530   46.4260 C   0  0  0  0  0  0  0  0  0  0  0  0
   54.1590   22.3240   45.2510 O   0  0  0  0  0  0  0  0  0  0  0  0
   55.1050   23.3580   45.1570 C   0  0  0  0  0  0  0  0  0  0  0  0
   55.1500   24.4150   46.0850 C   0  0  0  0  0  0  0  0  0  0  0  0
   56.1030   25.4280   45.9550 C   0  0  0  0  0  0  0  0  0  0  0  0
   57.0120   25.4180   44.8880 C   0  0  0  0  0  0  0  0  0  0  0  0
   57.9740   26.4810   44.7710 N   0  0  0  0  0  0  0  0  0  0  0  0
   57.5550   28.1580   44.9300 S   0  0  0  0  0  0  0  0  0  0  0  0
   56.0580   28.2960   44.9220 O   0  0  0  0  0  0  0  0  0  0  0  0
   58.1060   28.9120   43.7520 O   0  0  0  0  0  0  0  0  0  0  0  0
   58.1730   28.7980   46.4590 C   0  0  0  0  0  0  0  0  0  0  0  0
   58.7380   27.9130   47.3840 C   0  0  0  0  0  0  0  0  0  0  0  0
   59.2690   28.3920   48.5820 C   0  0  0  0  0  0  0  0  0  0  0  0
   59.2370   29.7680   48.8480 C   0  0  0  0  0  0  0  0  0  0  0  0
   59.8380   30.3220   50.0780 C   0  0  0  0  0  0  0  0  0  0  0  0
   61.1420   30.8380   50.0180 C   0  0  0  0  0  0  0  0  0  0  0  0
   61.7550   31.3680   51.1610 C   0  0  0  0  0  0  0  0  0  0  0  0
   63.1870   31.8210   51.0980 C   0  0  0  0  0  0  0  0  0  0  0  0
   63.2150   33.2790   50.9180 N   0  0  0  0  0  0  0  0  0  0  0  0
   63.0300   33.6860   49.5150 C   0  0  0  0  0  0  0  0  0  0  0  0
   63.6340   32.6610   48.5350 C   0  0  0  0  0  0  0  0  0  0  0  0
   63.3220   33.0450   47.0790 C   0  0  0  0  0  0  0  0  0  0  0  0
   61.8760   33.2370   46.8330 N   0  0  0  0  0  0  0  0  0  0  0  0
   61.1350   31.9640   46.7760 C   0  0  0  0  0  0  0  0  0  0  0  0
   61.2730   34.2080   47.7670 C   0  0  0  0  0  0  0  0  0  0  0  0
   61.5300   33.8500   49.2400 C   0  0  0  0  0  0  0  0  0  0  0  0
   61.0570   31.3790   52.3740 C   0  0  0  0  0  0  0  0  0  0  0  0
   59.7510   30.8880   52.4420 C   0  0  0  0  0  0  0  0  0  0  0  0
   59.1270   30.3550   51.2950 C   0  0  0  0  0  0  0  0  0  0  0  0
   57.8090   29.8700   51.3290 O   0  0  0  0  0  0  0  0  0  0  0  0
   56.7280   30.5100   52.0020 C   0  0  0  0  0  0  0  0  0  0  0  0
   58.6920   30.6140   47.9320 N   0  0  0  0  0  0  0  0  0  0  0  0
   58.1580   30.1730   46.7630 C   0  0  0  0  0  0  0  0  0  0  0  0
   57.6680   31.0100   45.9600 O   0  0  0  0  0  0  0  0  0  0  0  0
   56.9730   24.3590   43.9650 C   0  0  0  0  0  0  0  0  0  0  0  0
   56.0270   23.3240   44.0980 C   0  0  0  0  0  0  0  0  0  0  0  0
   55.9680   22.2500   43.1950 O   0  0  0  0  0  0  0  0  0  0  0  0
   56.9990   21.2820   43.0260 C   0  0  0  0  0  0  0  0  0  0  0  0
   54.1119   22.1716   47.3153 H   0  0  0  0  0  0  0  0  0  0  0  0
   52.8755   21.2111   46.4347 H   0  0  0  0  0  0  0  0  0  0  0  0
   54.5919   20.6813   46.4347 H   0  0  0  0  0  0  0  0  0  0  0  0
   54.4310   24.4436   46.9170 H   0  0  0  0  0  0  0  0  0  0  0  0
   56.1404   26.2401   46.6960 H   0  0  0  0  0  0  0  0  0  0  0  0
   58.9920   26.2460   44.7910 H   0  0  0  0  0  0  0  0  0  0  0  0
   58.7636   26.8352   47.1657 H   0  0  0  0  0  0  0  0  0  0  0  0
   59.7089   27.6960   49.3114 H   0  0  0  0  0  0  0  0  0  0  0  0
   61.6885   30.8261   49.0634 H   0  0  0  0  0  0  0  0  0  0  0  0
   63.7007   31.5540   52.0333 H   0  0  0  0  0  0  0  0  0  0  0  0
   63.6974   31.3306   50.2560 H   0  0  0  0  0  0  0  0  0  0  0  0
   62.4680   33.7080   51.5150 H   0  0  0  0  0  0  0  0  0  0  0  0
   63.5560   34.6392   49.3577 H   0  0  0  0  0  0  0  0  0  0  0  0
   64.7248   32.6296   48.6735 H   0  0  0  0  0  0  0  0  0  0  0  0
   63.1923   31.6749   48.7410 H   0  0  0  0  0  0  0  0  0  0  0  0
   63.8460   33.9829   46.8431 H   0  0  0  0  0  0  0  0  0  0  0  0
   63.6592   32.2164   46.4389 H   0  0  0  0  0  0  0  0  0  0  0  0
   60.9305   31.6127   47.7981 H   0  0  0  0  0  0  0  0  0  0  0  0
   60.1845   32.1165   46.2437 H   0  0  0  0  0  0  0  0  0  0  0  0
   61.7370   31.2128   46.2437 H   0  0  0  0  0  0  0  0  0  0  0  0
   61.7000   35.2017   47.5663 H   0  0  0  0  0  0  0  0  0  0  0  0
   60.1850   34.1937   47.6057 H   0  0  0  0  0  0  0  0  0  0  0  0
   61.1332   34.6525   49.8792 H   0  0  0  0  0  0  0  0  0  0  0  0
   61.0282   32.8963   49.4604 H   0  0  0  0  0  0  0  0  0  0  0  0
   61.5396   31.7766   53.2790 H   0  0  0  0  0  0  0  0  0  0  0  0
   59.2055   30.9173   53.3968 H   0  0  0  0  0  0  0  0  0  0  0  0
   56.8713   30.4252   53.0893 H   0  0  0  0  0  0  0  0  0  0  0  0
   56.6967   31.5723   51.7181 H   0  0  0  0  0  0  0  0  0  0  0  0
   55.7816   30.0266   51.7181 H   0  0  0  0  0  0  0  0  0  0  0  0
   57.6887   24.3382   43.1300 H   0  0  0  0  0  0  0  0  0  0  0  0
   57.3541   20.9486   44.0123 H   0  0  0  0  0  0  0  0  0  0  0  0
   56.6048   20.4201   42.4676 H   0  0  0  0  0  0  0  0  0  0  0  0
   57.8343   21.7297   42.4676 H   0  0  0  0  0  0  0  0  0  0  0  0
  1  2  1  0
  2  3  1  0
  3  4  2  0
  4  5  1  0
  5  6  2  0
  6  7  1  0
  7  8  1  0
  8  9  2  0
  8 10  2  0
  8 11  1  0
 11 12  2  0
 12 13  1  0
 13 14  2  0
 14 15  1  0
 15 16  2  0
 16 17  1  0
 17 18  1  0
 18 19  1  0
 19 20  1  0
 20 21  1  0
 21 22  1  0
 22 23  1  0
 23 24  1  0
 23 25  1  0
 25 26  1  0
 17 27  2  0
 27 28  1  0
 28 29  2  0
 29 30  1  0
 30 31  1  0
 14 32  1  0
 32 33  1  0
 33 34  2  0
  6 35  1  0
 35 36  2  0
 36 37  1  0
 37 38  1  0
 36  3  1  0
 33 11  1  0
 29 15  1  0
 26 20  1  0
  1 39  1  0
  1 40  1  0
  1 41  1  0
  4 42  1  0
  5 43  1  0
  7 44  1  0
 12 45  1  0
 13 46  1  0
 16 47  1  0
 18 48  1  0
 18 49  1  0
 19 50  1  0
 20 51  1  0
 21 52  1  0
 21 53  1  0
 22 54  1  0
 22 55  1  0
 24 56  1  0
 24 57  1  0
 24 58  1  0
 25 59  1  0
 25 60  1  0
 26 61  1  0
 26 62  1  0
 27 63  1  0
 28 64  1  0
 31 65  1  0
 31 66  1  0
 31 67  1  0
 35 68  1  0
 38 69  1  0
 38 70  1  0
 38 71  1  0
M  CHG  1  32  -1
M  END
>  <UniqueID>  (38) 
37

>  <SMILES>  (38) 
COc1ccc(NS(=O)(=O)c2ccc(-c3cc(CNC4CCN(C)CC4)ccc3OC)[n-]c2=O)cc1OC

>  <Energy>  (38) 
83.28119629139991

>  <Genealogy>  (38) 
COc1ccc(NS(=O)(=O)c2ccc(-c3cc(CNC4CCN(C)CC4)ccc3OC)[n-]c2=O)cc1OC (protonated)
COc1ccc(NS(=O)(=O)c2ccc(-c3cc(CNC4CCN(C)CC4)ccc3OC)[n-]c2=O)cc1OC (3D coordinates assigned)
COc1ccc(NS(=O)(=O)c2ccc(-c3cc(CNC4CCN(C)CC4)ccc3OC)[n-]c2=O)cc1OC (nonaromatic ring conformer: 83.28119629139991 kcal/mol)

>  <smiles>  (38) 
COc1ccc(NS(=O)(=O)c2ccc(-c3cc(CNC4CCN(C)CC4)ccc3OC)[nH]c2=O)cc1OC

>  <score_type>  (38) 
oracle

>  <origin>  (38) 
adg

>  <m_score__min__energy>  (38) 
-10.77

>  <m_primary>  (38) 
energy

$$$$
38:0
     RDKit          3D

 23 24  0  0  0  0  0  0  0  0999 V2000
   55.1310   26.4390   45.9860 N   0  0  0  0  0  0  0  0  0  0  0  0
   56.8550   26.3140   46.0410 S   0  0  0  0  0  0  0  0  0  0  0  0
   57.2410   25.5670   47.2870 O   0  0  0  0  0  0  0  0  0  0  0  0
   57.3200   25.5550   44.8310 O   0  0  0  0  0  0  0  0  0  0  0  0
   57.6080   27.9190   46.0540 C   0  0  0  0  0  0  0  0  0  0  0  0
   58.8910   28.0570   46.6080 C   0  0  0  0  0  0  0  0  0  0  0  0
   59.5300   29.2960   46.6320 C   0  0  0  0  0  0  0  0  0  0  0  0
   58.8960   30.4250   46.1040 C   0  0  0  0  0  0  0  0  0  0  0  0
   59.5120   31.6420   46.1210 N   0  0  0  0  0  0  0  0  0  0  0  0
   58.8990   32.7460   45.6110 C   0  0  0  0  0  0  0  0  0  0  0  0
   59.4850   33.8620   45.6370 O   0  0  0  0  0  0  0  0  0  0  0  0
   57.6170   32.6300   45.0600 C   0  0  0  0  0  0  0  0  0  0  0  0
   57.0280   33.6350   44.5830 O   0  0  0  0  0  0  0  0  0  0  0  0
   57.0040   31.4180   45.0430 N   0  0  0  0  0  0  0  0  0  0  0  0
   57.6030   30.3070   45.5490 C   0  0  0  0  0  0  0  0  0  0  0  0
   56.9480   29.0560   45.5210 C   0  0  0  0  0  0  0  0  0  0  0  0
   55.6280   28.9610   44.9620 N   0  0  0  0  0  0  0  0  0  0  0  0
   54.8410   27.0530   46.7800 H   0  0  0  0  0  0  0  0  0  0  0  0
   59.3984   27.1762   47.0285 H   0  0  0  0  0  0  0  0  0  0  0  0
   60.5361   29.3857   47.0677 H   0  0  0  0  0  0  0  0  0  0  0  0
   60.4690   31.7390   46.5310 H   0  0  0  0  0  0  0  0  0  0  0  0
   55.1380   28.0430   44.8820 H   0  0  0  0  0  0  0  0  0  0  0  0
   55.1100   29.7900   44.5980 H   0  0  0  0  0  0  0  0  0  0  0  0
  1  2  1  0
  2  3  2  0
  2  4  2  0
  2  5  1  0
  5  6  2  0
  6  7  1  0
  7  8  2  0
  8  9  1  0
  9 10  1  0
 10 11  2  0
 10 12  1  0
 12 13  2  0
 12 14  1  0
 14 15  1  0
 15 16  2  0
 16 17  1  0
 16  5  1  0
 15  8  1  0
  1 18  1  0
  6 19  1  0
  7 20  1  0
  9 21  1  0
 17 22  1  0
 17 23  1  0
M  CHG  2   1  -1  14  -1
M  END
>  <UniqueID>  (39) 
38

>  <SMILES>  (39) 
[NH-]S(=O)(=O)c1ccc2[nH]c(=O)c(=O)[n-]c2c1N

>  <Energy>  (39) 
31.142276863893752

>  <Genealogy>  (39) 
[NH-]S(=O)(=O)c1ccc2[nH]c(=O)c(=O)[n-]c2c1N (protonated)
[NH-]S(=O)(=O)c1ccc2[nH]c(=O)c(=O)[n-]c2c1N (3D coordinates assigned)
[NH-]S(=O)(=O)c1ccc2[nH]c(=O)c(=O)[n-]c2c1N (optimized conformer: 31.142276863893752 kcal/mol)

>  <smiles>  (39) 
Nc1c(S(N)(=O)=O)ccc2[nH]c(=O)c(=O)[nH]c12

>  <score_type>  (39) 
oracle

>  <origin>  (39) 
adg

>  <m_score__min__energy>  (39) 
-10.869999999999999

>  <m_primary>  (39) 
energy

$$$$
39:0
     RDKit          3D

 30 31  0  0  0  0  0  0  0  0999 V2000
   59.5600   32.6550   48.0340 C   0  0  0  0  0  0  0  0  0  0  0  0
   58.5430   33.6490   46.9640 S   0  0  0  0  0  0  0  0  0  0  0  0
   58.9020   35.0940   47.1720 O   0  0  0  0  0  0  0  0  0  0  0  0
   57.0890   33.4630   47.2990 O   0  0  0  0  0  0  0  0  0  0  0  0
   58.8310   33.2330   45.3040 N   0  0  0  0  0  0  0  0  0  0  0  0
   58.1870   32.1500   44.6090 C   0  0  0  0  0  0  0  0  0  0  0  0
   57.6800   32.2930   43.3030 C   0  0  0  0  0  0  0  0  0  0  0  0
   57.0560   31.2190   42.6660 C   0  0  0  0  0  0  0  0  0  0  0  0
   56.9380   29.9880   43.3120 C   0  0  0  0  0  0  0  0  0  0  0  0
   57.4600   29.8150   44.6050 C   0  0  0  0  0  0  0  0  0  0  0  0
   57.3230   28.5230   45.3160 C   0  0  0  0  0  0  0  0  0  0  0  0
   56.0980   27.9320   45.3460 N   0  0  0  0  0  0  0  0  0  0  0  0
   55.8940   26.7450   45.9740 C   0  0  0  0  0  0  0  0  0  0  0  0
   54.7200   26.2040   45.9810 N   0  0  0  0  0  0  0  0  0  0  0  0
   56.9270   26.1220   46.5970 N   0  0  0  0  0  0  0  0  0  0  0  0
   58.1680   26.6680   46.6140 C   0  0  0  0  0  0  0  0  0  0  0  0
   59.0990   26.0650   47.2140 O   0  0  0  0  0  0  0  0  0  0  0  0
   58.4050   27.8970   45.9750 C   0  0  0  0  0  0  0  0  0  0  0  0
   59.7100   28.5130   46.0560 C   0  0  0  0  0  0  0  0  0  0  0  0
   60.7550   29.0060   46.1200 N   0  0  0  0  0  0  0  0  0  0  0  0
   58.0690   30.9040   45.2500 C   0  0  0  0  0  0  0  0  0  0  0  0
   59.3236   32.8860   49.0832 H   0  0  0  0  0  0  0  0  0  0  0  0
   59.3647   31.5900   47.8401 H   0  0  0  0  0  0  0  0  0  0  0  0
   60.6203   32.8746   47.8401 H   0  0  0  0  0  0  0  0  0  0  0  0
   59.5720   33.7790   44.8080 H   0  0  0  0  0  0  0  0  0  0  0  0
   57.7763   33.2568   42.7817 H   0  0  0  0  0  0  0  0  0  0  0  0
   56.6552   31.3439   41.6493 H   0  0  0  0  0  0  0  0  0  0  0  0
   56.4346   29.1501   42.8074 H   0  0  0  0  0  0  0  0  0  0  0  0
   53.8880   26.7090   46.3610 H   0  0  0  0  0  0  0  0  0  0  0  0
   58.4592   30.7804   46.2710 H   0  0  0  0  0  0  0  0  0  0  0  0
  1  2  1  0
  2  3  2  0
  2  4  2  0
  2  5  1  0
  5  6  1  0
  6  7  2  0
  7  8  1  0
  8  9  2  0
  9 10  1  0
 10 11  1  0
 11 12  1  0
 12 13  1  0
 13 14  2  3
 13 15  1  0
 15 16  1  0
 16 17  2  0
 16 18  1  0
 18 19  1  0
 19 20  3  0
 10 21  2  0
 21  6  1  0
 18 11  2  0
  1 22  1  0
  1 23  1  0
  1 24  1  0
  5 25  1  0
  7 26  1  0
  8 27  1  0
  9 28  1  0
 14 29  1  0
 21 30  1  0
M  CHG  2  12  -1  15  -1
M  END
>  <UniqueID>  (40) 
39

>  <SMILES>  (40) 
CS(=O)(=O)Nc1cccc(-c2[n-]c(=N)[n-]c(=O)c2C#N)c1

>  <Energy>  (40) 
37.2954252809073

>  <Genealogy>  (40) 
CS(=O)(=O)Nc1cccc(-c2[n-]c(=N)[n-]c(=O)c2C#N)c1 (protonated)
CS(=O)(=O)Nc1cccc(-c2[n-]c(=N)[n-]c(=O)c2C#N)c1 (3D coordinates assigned)
CS(=O)(=O)Nc1cccc(-c2[n-]c(=N)[n-]c(=O)c2C#N)c1 (optimized conformer: 37.2954252809073 kcal/mol)

>  <smiles>  (40) 
CS(=O)(=O)Nc1cccc(-c2[nH]c(=N)[nH]c(=O)c2C#N)c1

>  <score_type>  (40) 
oracle

>  <origin>  (40) 
adg

>  <m_score__min__energy>  (40) 
-11.84

>  <m_primary>  (40) 
energy

$$$$
40:0
     RDKit          3D

 41 43  0  0  0  0  0  0  0  0999 V2000
   60.2261   28.4592   51.2892 H   0  0  0  0  0  0  0  0  0  0  0  0
   60.3420   28.8860   50.2820 C   0  0  0  0  0  0  0  0  0  0  0  0
   60.0030   28.1510   49.1940 N   0  0  0  0  0  0  0  0  0  0  0  0
   60.1310   28.6390   47.9340 C   0  0  0  0  0  0  0  0  0  0  0  0
   59.8481   28.0129   47.0749 H   0  0  0  0  0  0  0  0  0  0  0  0
   60.6230   29.9400   47.7180 C   0  0  0  0  0  0  0  0  0  0  0  0
   60.7540   30.4450   46.3670 N   0  0  0  0  0  0  0  0  0  0  0  0
   61.5310   29.9610   45.8600 H   0  0  0  0  0  0  0  0  0  0  0  0
   61.0190   31.4520   46.4450 H   0  0  0  0  0  0  0  0  0  0  0  0
   59.5330   30.2580   45.6050 C   0  0  0  0  0  0  0  0  0  0  0  0
   59.2710   29.0090   44.9980 C   0  0  0  0  0  0  0  0  0  0  0  0
   60.0109   28.1995   45.0825 H   0  0  0  0  0  0  0  0  0  0  0  0
   58.0890   28.7880   44.2940 C   0  0  0  0  0  0  0  0  0  0  0  0
   57.8932   27.8028   43.8456 H   0  0  0  0  0  0  0  0  0  0  0  0
   57.1550   29.8120   44.1570 C   0  0  0  0  0  0  0  0  0  0  0  0
   56.2132   29.6286   43.6191 H   0  0  0  0  0  0  0  0  0  0  0  0
   57.4130   31.0690   44.7010 C   0  0  0  0  0  0  0  0  0  0  0  0
   56.6751   31.8756   44.5786 H   0  0  0  0  0  0  0  0  0  0  0  0
   58.6040   31.3190   45.4040 C   0  0  0  0  0  0  0  0  0  0  0  0
   58.8620   32.7020   45.8690 C   0  0  0  0  0  0  0  0  0  0  0  0
   58.8730   32.9960   47.2430 C   0  0  0  0  0  0  0  0  0  0  0  0
   58.7006   32.1940   47.9758 H   0  0  0  0  0  0  0  0  0  0  0  0
   59.1020   34.3030   47.6830 C   0  0  0  0  0  0  0  0  0  0  0  0
   59.1239   34.5237   48.7604 H   0  0  0  0  0  0  0  0  0  0  0  0
   59.3030   35.3290   46.7570 C   0  0  0  0  0  0  0  0  0  0  0  0
   59.4881   36.3558   47.1054 H   0  0  0  0  0  0  0  0  0  0  0  0
   59.2690   35.0510   45.3870 C   0  0  0  0  0  0  0  0  0  0  0  0
   59.4210   35.8606   44.6580 H   0  0  0  0  0  0  0  0  0  0  0  0
   59.0420   33.7450   44.9430 C   0  0  0  0  0  0  0  0  0  0  0  0
   59.0040   33.5322   43.8644 H   0  0  0  0  0  0  0  0  0  0  0  0
   60.9820   30.7270   48.8370 C   0  0  0  0  0  0  0  0  0  0  0  0
   61.4330   31.9370   48.6430 N   0  0  0  0  0  0  0  0  0  0  0  0
   62.6250   32.4200   47.4750 S   0  0  0  0  0  0  0  0  0  0  0  0
   63.1530   31.2130   46.7510 O   0  0  0  0  0  0  0  0  0  0  0  0
   62.0190   33.3850   46.4940 O   0  0  0  0  0  0  0  0  0  0  0  0
   63.9720   33.2190   48.3140 C   0  0  0  0  0  0  0  0  0  0  0  0
   63.8288   33.1340   49.4013 H   0  0  0  0  0  0  0  0  0  0  0  0
   64.9188   32.7363   48.0301 H   0  0  0  0  0  0  0  0  0  0  0  0
   64.0024   34.2813   48.0301 H   0  0  0  0  0  0  0  0  0  0  0  0
   60.8370   30.1810   50.1290 C   0  0  0  0  0  0  0  0  0  0  0  0
   61.1133   30.7743   51.0131 H   0  0  0  0  0  0  0  0  0  0  0  0
  1  2  1  0
  2  3  1  0
  3  4  1  0
  4  5  1  0
  4  6  2  0
  6  7  1  0
  7  8  1  0
  7  9  1  0
  7 10  1  0
 10 11  2  0
 11 12  1  0
 11 13  1  0
 13 14  1  0
 13 15  2  0
 15 16  1  0
 15 17  1  0
 17 18  1  0
 17 19  2  0
 19 20  1  0
 20 21  2  0
 21 22  1  0
 21 23  1  0
 23 24  1  0
 23 25  2  0
 25 26  1  0
 25 27  1  0
 27 28  1  0
 27 29  2  0
 29 30  1  0
  6 31  1  0
 31 32  2  0
 32 33  1  0
 33 34  2  0
 33 35  2  0
 33 36  1  0
 36 37  1  0
 36 38  1  0
 36 39  1  0
 31 40  1  0
 40 41  1  0
 40  2  2  0
 19 10  1  0
 29 20  1  0
M  CHG  2   3  -1   7   1
M  END
>  <UniqueID>  (41) 
40

>  <SMILES>  (41) 
CS(=O)(=O)/N=c1\cc[n-]cc1[NH2+]c1ccccc1-c1ccccc1

>  <Energy>  (41) 
57.03712471995085

>  <Genealogy>  (41) 
CS(=O)(=O)N=c1cc[n-]cc1[NH2+]c1ccccc1-c1ccccc1 (protonated)
CS(=O)(=O)/N=c1\cc[n-]cc1[NH2+]c1ccccc1-c1ccccc1 (cis-trans isomerization)
CS(=O)(=O)/N=c1\cc[n-]cc1[NH2+]c1ccccc1-c1ccccc1 (3D coordinates assigned)
CS(=O)(=O)/N=c1\cc[n-]cc1[NH2+]c1ccccc1-c1ccccc1 (optimized conformer: 57.03712471995085 kcal/mol)

>  <smiles>  (41) 
CS(=O)(=O)N=c1cc[nH]cc1Nc1ccccc1-c1ccccc1

>  <score_type>  (41) 
oracle

>  <origin>  (41) 
adg

>  <m_score__min__energy>  (41) 
-6.96

>  <m_primary>  (41) 
energy

$$$$
41:0
     RDKit          3D

 60 63  0  0  0  0  0  0  0  0999 V2000
   56.0330   30.4730   44.7230 O   0  0  0  0  0  0  0  0  0  0  0  0
   56.6490   29.3910   44.9100 C   0  0  0  0  0  0  0  0  0  0  0  0
   58.1460   29.3280   44.7340 C   0  0  0  0  0  0  0  0  0  0  0  0
   58.8550   30.6180   45.1670 C   0  0  0  0  0  0  0  0  0  0  0  0
   58.9620   30.6830   46.6670 C   0  0  0  0  0  0  0  0  0  0  0  0
   58.6760   31.8770   47.3470 C   0  0  0  0  0  0  0  0  0  0  0  0
   58.7330   31.9250   48.7440 C   0  0  0  0  0  0  0  0  0  0  0  0
   59.0700   30.7770   49.4780 C   0  0  0  0  0  0  0  0  0  0  0  0
   59.0920   30.8210   50.9820 C   0  0  0  0  0  0  0  0  0  0  0  0
   57.7080   31.0420   51.5120 C   0  0  0  0  0  0  0  0  0  0  0  0
   57.2790   32.1410   52.2250 C   0  0  0  0  0  0  0  0  0  0  0  0
   55.9710   32.0010   52.4950 N   0  0  0  0  0  0  0  0  0  0  0  0
   55.6520   30.8180   51.9220 C   0  0  0  0  0  0  0  0  0  0  0  0
   54.4570   30.3060   51.9530 N   0  0  0  0  0  0  0  0  0  0  0  0
   53.2780   30.9190   51.3390 C   0  0  0  0  0  0  0  0  0  0  0  0
   52.2320   31.2260   52.3820 C   0  0  0  0  0  0  0  0  0  0  0  0
   52.3230   30.6550   53.6630 C   0  0  0  0  0  0  0  0  0  0  0  0
   51.3740   30.9610   54.6430 C   0  0  0  0  0  0  0  0  0  0  0  0
   50.3270   31.8390   54.3540 C   0  0  0  0  0  0  0  0  0  0  0  0
   50.2260   32.4110   53.0830 C   0  0  0  0  0  0  0  0  0  0  0  0
   51.1740   32.1110   52.0970 C   0  0  0  0  0  0  0  0  0  0  0  0
   51.0620   32.6970   50.8410 O   0  0  0  0  0  0  0  0  0  0  0  0
   56.6810   30.2000   51.3060 N   0  0  0  0  0  0  0  0  0  0  0  0
   59.3340   29.5770   48.7990 C   0  0  0  0  0  0  0  0  0  0  0  0
   59.2780   29.5300   47.4030 C   0  0  0  0  0  0  0  0  0  0  0  0
   55.8910   28.2240   45.2420 N   0  0  0  0  0  0  0  0  0  0  0  0
   56.5730   26.7250   45.7910 S   0  0  0  0  0  0  0  0  0  0  0  0
   57.3360   26.9400   47.0690 O   0  0  0  0  0  0  0  0  0  0  0  0
   55.4750   25.7250   46.0200 O   0  0  0  0  0  0  0  0  0  0  0  0
   57.6920   26.1020   44.5490 C   0  0  0  0  0  0  0  0  0  0  0  0
   57.4950   24.6210   44.3720 C   0  0  0  0  0  0  0  0  0  0  0  0
   58.2130   23.7130   45.1670 C   0  0  0  0  0  0  0  0  0  0  0  0
   58.0710   22.3380   44.9670 C   0  0  0  0  0  0  0  0  0  0  0  0
   57.2190   21.8590   43.9690 C   0  0  0  0  0  0  0  0  0  0  0  0
   56.5060   22.7550   43.1700 C   0  0  0  0  0  0  0  0  0  0  0  0
   56.6480   24.1330   43.3640 C   0  0  0  0  0  0  0  0  0  0  0  0
   58.5352   28.4946   45.3373 H   0  0  0  0  0  0  0  0  0  0  0  0
   58.3457   29.1867   43.6616 H   0  0  0  0  0  0  0  0  0  0  0  0
   59.8646   30.6400   44.7308 H   0  0  0  0  0  0  0  0  0  0  0  0
   58.2705   31.4806   44.8144 H   0  0  0  0  0  0  0  0  0  0  0  0
   58.4058   32.7793   46.7788 H   0  0  0  0  0  0  0  0  0  0  0  0
   58.5129   32.8661   49.2693 H   0  0  0  0  0  0  0  0  0  0  0  0
   59.4812   29.8673   51.3680 H   0  0  0  0  0  0  0  0  0  0  0  0
   59.7384   31.6491   51.3081 H   0  0  0  0  0  0  0  0  0  0  0  0
   57.9060   32.9939   52.5241 H   0  0  0  0  0  0  0  0  0  0  0  0
   53.5753   31.8531   50.8400 H   0  0  0  0  0  0  0  0  0  0  0  0
   52.8531   30.2146   50.6088 H   0  0  0  0  0  0  0  0  0  0  0  0
   53.1459   29.9632   53.8959 H   0  0  0  0  0  0  0  0  0  0  0  0
   51.4521   30.5096   55.6431 H   0  0  0  0  0  0  0  0  0  0  0  0
   49.5821   32.0802   55.1266 H   0  0  0  0  0  0  0  0  0  0  0  0
   49.3987   33.0995   52.8562 H   0  0  0  0  0  0  0  0  0  0  0  0
   59.5860   28.6699   49.3679 H   0  0  0  0  0  0  0  0  0  0  0  0
   59.4825   28.5849   46.8786 H   0  0  0  0  0  0  0  0  0  0  0  0
   57.4961   26.6118   43.5941 H   0  0  0  0  0  0  0  0  0  0  0  0
   58.7271   26.2919   44.8691 H   0  0  0  0  0  0  0  0  0  0  0  0
   58.8896   24.0860   45.9500 H   0  0  0  0  0  0  0  0  0  0  0  0
   58.6311   21.6310   45.5966 H   0  0  0  0  0  0  0  0  0  0  0  0
   57.1098   20.7757   43.8125 H   0  0  0  0  0  0  0  0  0  0  0  0
   55.8320   22.3769   42.3872 H   0  0  0  0  0  0  0  0  0  0  0  0
   56.0944   24.8366   42.7249 H   0  0  0  0  0  0  0  0  0  0  0  0
  1  2  2  0
  2  3  1  0
  3  4  1  0
  4  5  1  0
  5  6  2  0
  6  7  1  0
  7  8  2  0
  8  9  1  0
  9 10  1  0
 10 11  2  0
 11 12  1  0
 12 13  1  0
 13 14  2  3
 14 15  1  0
 15 16  1  0
 16 17  2  0
 17 18  1  0
 18 19  2  0
 19 20  1  0
 20 21  2  0
 21 22  1  0
 13 23  1  0
  8 24  1  0
 24 25  2  0
  2 26  1  0
 26 27  1  0
 27 28  2  0
 27 29  2  0
 27 30  1  0
 30 31  1  0
 31 32  2  0
 32 33  1  0
 33 34  2  0
 34 35  1  0
 35 36  2  0
 25  5  1  0
 36 31  1  0
 23 10  1  0
 21 16  1  0
  3 37  1  0
  3 38  1  0
  4 39  1  0
  4 40  1  0
  6 41  1  0
  7 42  1  0
  9 43  1  0
  9 44  1  0
 11 45  1  0
 15 46  1  0
 15 47  1  0
 17 48  1  0
 18 49  1  0
 19 50  1  0
 20 51  1  0
 24 52  1  0
 25 53  1  0
 30 54  1  0
 30 55  1  0
 32 56  1  0
 33 57  1  0
 34 58  1  0
 35 59  1  0
 36 60  1  0
M  CHG  4  12  -1  22  -1  23  -1  26  -1
M  END
>  <UniqueID>  (42) 
41

>  <SMILES>  (42) 
O=C(CCc1ccc(Cc2c[n-]c(=NCc3ccccc3[O-])[n-]2)cc1)[N-]S(=O)(=O)Cc1ccccc1

>  <Energy>  (42) 
84.61967485163052

>  <Genealogy>  (42) 
O=C(CCc1ccc(Cc2c[n-]c(=NCc3ccccc3[O-])[n-]2)cc1)[N-]S(=O)(=O)Cc1ccccc1 (protonated)
O=C(CCc1ccc(Cc2c[n-]c(=NCc3ccccc3[O-])[n-]2)cc1)[N-]S(=O)(=O)Cc1ccccc1 (3D coordinates assigned)
O=C(CCc1ccc(Cc2c[n-]c(=NCc3ccccc3[O-])[n-]2)cc1)[N-]S(=O)(=O)Cc1ccccc1 (optimized conformer: 84.61967485163052 kcal/mol)

>  <smiles>  (42) 
O=C(CCc1ccc(Cc2c[nH]c(=NCc3ccccc3O)[nH]2)cc1)NS(=O)(=O)Cc1ccccc1

>  <score_type>  (42) 
oracle

>  <origin>  (42) 
adg

>  <m_score__min__energy>  (42) 
-19.41

>  <m_primary>  (42) 
energy

$$$$
42:0
     RDKit          3D

 61 65  0  0  0  0  0  0  0  0999 V2000
   64.1118   33.6008   46.2818 H   0  0  0  0  0  0  0  0  0  0  0  0
   63.2180   33.6010   46.9230 C   0  0  0  0  0  0  0  0  0  0  0  0
   63.3470   33.3800   48.2690 N   0  0  0  0  0  0  0  0  0  0  0  0
   62.2680   33.3650   49.1050 C   0  0  0  0  0  0  0  0  0  0  0  0
   62.3915   33.1870   50.1835 H   0  0  0  0  0  0  0  0  0  0  0  0
   61.0070   33.5810   48.5560 C   0  0  0  0  0  0  0  0  0  0  0  0
   59.7470   33.5960   49.1240 C   0  0  0  0  0  0  0  0  0  0  0  0
   59.3770   33.3120   50.5220 C   0  0  0  0  0  0  0  0  0  0  0  0
   59.4140   34.2530   51.3600 O   0  0  0  0  0  0  0  0  0  0  0  0
   58.9150   31.9690   50.9490 C   0  0  0  0  0  0  0  0  0  0  0  0
   57.6000   31.7750   51.3930 C   0  0  0  0  0  0  0  0  0  0  0  0
   56.9058   32.6261   51.4543 H   0  0  0  0  0  0  0  0  0  0  0  0
   57.1760   30.4960   51.7570 C   0  0  0  0  0  0  0  0  0  0  0  0
   56.1531   30.3433   52.1316 H   0  0  0  0  0  0  0  0  0  0  0  0
   58.0230   29.4390   51.6500 N   0  0  0  0  0  0  0  0  0  0  0  0
   59.2970   29.5740   51.1950 C   0  0  0  0  0  0  0  0  0  0  0  0
   60.0410   28.5040   51.0960 N   0  0  0  0  0  0  0  0  0  0  0  0
   60.3900   27.7940   49.8940 C   0  0  0  0  0  0  0  0  0  0  0  0
   61.1190   26.7710   49.9840 O   0  0  0  0  0  0  0  0  0  0  0  0
   59.8720   28.2000   48.5660 C   0  0  0  0  0  0  0  0  0  0  0  0
   59.1340   27.3000   47.7860 C   0  0  0  0  0  0  0  0  0  0  0  0
   58.9936   26.2629   48.1246 H   0  0  0  0  0  0  0  0  0  0  0  0
   58.5780   27.7230   46.5790 C   0  0  0  0  0  0  0  0  0  0  0  0
   57.8930   26.8340   45.8160 F   0  0  0  0  0  0  0  0  0  0  0  0
   58.7550   29.0480   46.1520 C   0  0  0  0  0  0  0  0  0  0  0  0
   58.1640   29.5110   44.9240 N   0  0  0  0  0  0  0  0  0  0  0  0
   58.3530   30.8960   44.4720 C   0  0  0  0  0  0  0  0  0  0  0  0
   58.6439   31.5196   45.3302 H   0  0  0  0  0  0  0  0  0  0  0  0
   59.1402   30.9134   43.7039 H   0  0  0  0  0  0  0  0  0  0  0  0
   57.0470   31.4530   43.8590 C   0  0  0  0  0  0  0  0  0  0  0  0
   56.6184   32.1827   44.5618 H   0  0  0  0  0  0  0  0  0  0  0  0
   57.3155   31.9043   42.8924 H   0  0  0  0  0  0  0  0  0  0  0  0
   56.0670   30.4610   43.5920 O   0  0  0  0  0  0  0  0  0  0  0  0
   56.6580   29.3280   42.9910 C   0  0  0  0  0  0  0  0  0  0  0  0
   55.8706   28.6716   42.5920 H   0  0  0  0  0  0  0  0  0  0  0  0
   57.3171   29.6490   42.1710 H   0  0  0  0  0  0  0  0  0  0  0  0
   57.4770   28.5660   44.0370 C   0  0  0  0  0  0  0  0  0  0  0  0
   56.8055   27.9301   44.6326 H   0  0  0  0  0  0  0  0  0  0  0  0
   58.2252   27.9430   43.5251 H   0  0  0  0  0  0  0  0  0  0  0  0
   59.5380   29.9060   46.9380 C   0  0  0  0  0  0  0  0  0  0  0  0
   59.7199   30.9380   46.6035 H   0  0  0  0  0  0  0  0  0  0  0  0
   60.0750   29.4720   48.1120 N   0  0  0  0  0  0  0  0  0  0  0  0
   60.6240   30.1510   48.6870 H   0  0  0  0  0  0  0  0  0  0  0  0
   59.7700   30.8600   50.8640 C   0  0  0  0  0  0  0  0  0  0  0  0
   60.8120   30.9943   50.5383 H   0  0  0  0  0  0  0  0  0  0  0  0
   58.8670   33.8530   48.0800 C   0  0  0  0  0  0  0  0  0  0  0  0
   57.7742   33.9244   48.1838 H   0  0  0  0  0  0  0  0  0  0  0  0
   59.5470   34.0040   46.9110 N   0  0  0  0  0  0  0  0  0  0  0  0
   58.9740   34.1560   45.5630 C   0  0  0  0  0  0  0  0  0  0  0  0
   59.4020   33.3711   44.9221 H   0  0  0  0  0  0  0  0  0  0  0  0
   57.4550   33.9830   45.6200 C   0  0  0  0  0  0  0  0  0  0  0  0
   57.1293   33.9459   46.6700 H   0  0  0  0  0  0  0  0  0  0  0  0
   56.9701   34.8317   45.1155 H   0  0  0  0  0  0  0  0  0  0  0  0
   57.1734   33.0470   45.1155 H   0  0  0  0  0  0  0  0  0  0  0  0
   59.3470   35.5040   44.9300 C   0  0  0  0  0  0  0  0  0  0  0  0
   59.5501   36.2381   45.7237 H   0  0  0  0  0  0  0  0  0  0  0  0
   60.2447   35.3804   44.3064 H   0  0  0  0  0  0  0  0  0  0  0  0
   58.5135   35.8594   44.3064 H   0  0  0  0  0  0  0  0  0  0  0  0
   60.8510   33.8220   47.2170 C   0  0  0  0  0  0  0  0  0  0  0  0
   61.9520   33.8280   46.3550 C   0  0  0  0  0  0  0  0  0  0  0  0
   61.8324   34.0033   45.2757 H   0  0  0  0  0  0  0  0  0  0  0  0
  1  2  1  0
  2  3  2  0
  3  4  1  0
  4  5  1  0
  4  6  2  0
  6  7  1  0
  7  8  1  0
  8  9  2  0
  8 10  1  0
 10 11  1  0
 11 12  1  0
 11 13  2  0
 13 14  1  0
 13 15  1  0
 15 16  1  0
 16 17  2  0
 17 18  1  0
 18 19  2  0
 18 20  1  0
 20 21  2  0
 21 22  1  0
 21 23  1  0
 23 24  1  0
 23 25  2  0
 25 26  1  0
 26 27  1  0
 27 28  1  0
 27 29  1  0
 27 30  1  0
 30 31  1  0
 30 32  1  0
 30 33  1  0
 33 34  1  0
 34 35  1  0
 34 36  1  0
 34 37  1  0
 37 38  1  0
 37 39  1  0
 25 40  1  0
 40 41  1  0
 40 42  2  0
 42 43  1  0
 16 44  1  0
 44 45  1  0
  7 46  2  0
 46 47  1  0
 46 48  1  0
 48 49  1  0
 49 50  1  0
 49 51  1  0
 51 52  1  0
 51 53  1  0
 51 54  1  0
 49 55  1  0
 55 56  1  0
 55 57  1  0
 55 58  1  0
 48 59  1  0
 59 60  2  0
 60 61  1  0
 60  2  1  0
 59  6  1  0
 44 10  2  0
 42 20  1  0
 37 26  1  0
M  CHG  2  15  -1  42   1
M  END
>  <UniqueID>  (43) 
42

>  <SMILES>  (43) 
CC(C)n1cc(C(=O)c2cc[n-]/c(=N/C(=O)c3cc(F)c(N4CCOCC4)c[nH+]3)c2)c2cnccc21

>  <Energy>  (43) 
122.95232568823523

>  <Genealogy>  (43) 
CC(C)n1cc(C(=O)c2cc[n-]c(=NC(=O)c3cc(F)c(N4CCOCC4)c[nH+]3)c2)c2cnccc21 (protonated)
CC(C)n1cc(C(=O)c2cc[n-]/c(=N/C(=O)c3cc(F)c(N4CCOCC4)c[nH+]3)c2)c2cnccc21 (cis-trans isomerization)
CC(C)n1cc(C(=O)c2cc[n-]/c(=N/C(=O)c3cc(F)c(N4CCOCC4)c[nH+]3)c2)c2cnccc21 (3D coordinates assigned)
CC(C)n1cc(C(=O)c2cc[n-]/c(=N/C(=O)c3cc(F)c(N4CCOCC4)c[nH+]3)c2)c2cnccc21 (nonaromatic ring conformer: 122.95232568823523 kcal/mol)

>  <smiles>  (43) 
CC(C)n1cc(C(=O)c2cc[nH]c(=NC(=O)c3cc(F)c(N4CCOCC4)cn3)c2)c2cnccc21

>  <score_type>  (43) 
oracle

>  <origin>  (43) 
adg

>  <m_score__min__energy>  (43) 
-9.5299999999999994

>  <m_primary>  (43) 
energy

$$$$
43:0
     RDKit          3D

 44 46  0  0  0  0  0  0  0  0999 V2000
   58.2560   31.0590   47.4870 N   0  0  0  0  0  0  0  0  0  0  0  0
   58.2080   31.9710   46.3830 C   0  0  0  0  0  0  0  0  0  0  0  0
   58.9530   33.1600   46.4370 C   0  0  0  0  0  0  0  0  0  0  0  0
   58.9210   34.0630   45.3720 C   0  0  0  0  0  0  0  0  0  0  0  0
   59.6420   35.2100   45.4340 F   0  0  0  0  0  0  0  0  0  0  0  0
   58.1390   33.7920   44.2490 C   0  0  0  0  0  0  0  0  0  0  0  0
   57.3920   32.6130   44.1840 C   0  0  0  0  0  0  0  0  0  0  0  0
   57.4370   31.6820   45.2380 C   0  0  0  0  0  0  0  0  0  0  0  0
   56.6470   30.4850   45.1940 N   0  0  0  0  0  0  0  0  0  0  0  0
   56.4140   29.6640   44.0430 C   0  0  0  0  0  0  0  0  0  0  0  0
   55.3260   29.7840   43.4200 O   0  0  0  0  0  0  0  0  0  0  0  0
   57.3980   28.6140   43.6050 C   0  0  0  0  0  0  0  0  0  0  0  0
   58.3540   28.2930   44.7230 C   0  0  0  0  0  0  0  0  0  0  0  0
   58.2780   27.0610   45.3930 C   0  0  0  0  0  0  0  0  0  0  0  0
   59.1490   26.7800   46.4480 C   0  0  0  0  0  0  0  0  0  0  0  0
   60.0990   27.7240   46.8460 C   0  0  0  0  0  0  0  0  0  0  0  0
   60.1920   28.9610   46.1820 C   0  0  0  0  0  0  0  0  0  0  0  0
   61.1390   29.9600   46.5910 N   0  0  0  0  0  0  0  0  0  0  0  0
   61.1240   30.5930   47.8830 C   0  0  0  0  0  0  0  0  0  0  0  0
   60.4800   30.0720   48.8330 O   0  0  0  0  0  0  0  0  0  0  0  0
   61.8850   31.8440   48.1060 C   0  0  0  0  0  0  0  0  0  0  0  0
   63.1440   32.0110   47.4930 C   0  0  0  0  0  0  0  0  0  0  0  0
   63.6590   31.0480   46.6870 F   0  0  0  0  0  0  0  0  0  0  0  0
   63.8690   33.1930   47.6760 C   0  0  0  0  0  0  0  0  0  0  0  0
   63.3510   34.2180   48.4680 C   0  0  0  0  0  0  0  0  0  0  0  0
   62.1080   34.0660   49.0840 C   0  0  0  0  0  0  0  0  0  0  0  0
   61.3700   32.8890   48.9110 C   0  0  0  0  0  0  0  0  0  0  0  0
   59.8360   32.7470   49.7670 Cl  0  0  0  0  0  0  0  0  0  0  0  0
   59.3010   29.2440   45.1350 C   0  0  0  0  0  0  0  0  0  0  0  0
   57.7650   30.1370   47.4380 H   0  0  0  0  0  0  0  0  0  0  0  0
   58.7730   31.2880   48.3650 H   0  0  0  0  0  0  0  0  0  0  0  0
   59.5655   33.3816   47.3234 H   0  0  0  0  0  0  0  0  0  0  0  0
   58.1104   34.5073   43.4138 H   0  0  0  0  0  0  0  0  0  0  0  0
   56.7647   32.4114   43.3032 H   0  0  0  0  0  0  0  0  0  0  0  0
   56.8526   27.7019   43.3211 H   0  0  0  0  0  0  0  0  0  0  0  0
   57.9687   28.9956   42.7455 H   0  0  0  0  0  0  0  0  0  0  0  0
   57.5302   26.3151   45.0859 H   0  0  0  0  0  0  0  0  0  0  0  0
   59.0868   25.8123   46.9673 H   0  0  0  0  0  0  0  0  0  0  0  0
   60.7773   27.4991   47.6823 H   0  0  0  0  0  0  0  0  0  0  0  0
   61.9540   30.1510   45.9670 H   0  0  0  0  0  0  0  0  0  0  0  0
   64.8503   33.3147   47.1941 H   0  0  0  0  0  0  0  0  0  0  0  0
   63.9230   35.1472   48.6071 H   0  0  0  0  0  0  0  0  0  0  0  0
   61.7055   34.8763   49.7096 H   0  0  0  0  0  0  0  0  0  0  0  0
   59.3452   30.2212   44.6320 H   0  0  0  0  0  0  0  0  0  0  0  0
  1  2  1  0
  2  3  2  0
  3  4  1  0
  4  5  1  0
  4  6  2  0
  6  7  1  0
  7  8  2  0
  8  9  1  0
  9 10  1  0
 10 11  2  0
 10 12  1  0
 12 13  1  0
 13 14  2  0
 14 15  1  0
 15 16  2  0
 16 17  1  0
 17 18  1  0
 18 19  1  0
 19 20  2  0
 19 21  1  0
 21 22  2  0
 22 23  1  0
 22 24  1  0
 24 25  2  0
 25 26  1  0
 26 27  2  0
 27 28  1  0
 17 29  2  0
  8  2  1  0
 29 13  1  0
 27 21  1  0
  1 30  1  0
  1 31  1  0
  3 32  1  0
  6 33  1  0
  7 34  1  0
 12 35  1  0
 12 36  1  0
 14 37  1  0
 15 38  1  0
 16 39  1  0
 18 40  1  0
 24 41  1  0
 25 42  1  0
 26 43  1  0
 29 44  1  0
M  CHG  1   9  -1
M  END
>  <UniqueID>  (44) 
43

>  <SMILES>  (44) 
Nc1cc(F)ccc1[N-]C(=O)Cc1cccc(NC(=O)c2c(F)cccc2Cl)c1

>  <Energy>  (44) 
60.047139729655996

>  <Genealogy>  (44) 
Nc1cc(F)ccc1[N-]C(=O)Cc1cccc(NC(=O)c2c(F)cccc2Cl)c1 (protonated)
Nc1cc(F)ccc1[N-]C(=O)Cc1cccc(NC(=O)c2c(F)cccc2Cl)c1 (3D coordinates assigned)
Nc1cc(F)ccc1[N-]C(=O)Cc1cccc(NC(=O)c2c(F)cccc2Cl)c1 (optimized conformer: 60.047139729655996 kcal/mol)

>  <smiles>  (44) 
Nc1cc(F)ccc1NC(=O)Cc1cccc(NC(=O)c2c(F)cccc2Cl)c1

>  <score_type>  (44) 
oracle

>  <origin>  (44) 
adg

>  <m_score__min__energy>  (44) 
-11.43

>  <m_primary>  (44) 
energy

$$$$
44:0
     RDKit          3D

 30 31  0  0  0  0  0  0  0  0999 V2000
   59.2960   35.7010   49.3730 H   0  0  0  0  0  0  0  0  0  0  0  0
   59.4780   34.8120   48.9230 O   0  0  0  0  0  0  0  0  0  0  0  0
   59.9160   34.7780   47.6190 N   0  0  0  0  0  0  0  0  0  0  0  0
   59.1120   34.8600   46.6010 C   0  0  0  0  0  0  0  0  0  0  0  0
   58.8031   35.8595   46.2609 H   0  0  0  0  0  0  0  0  0  0  0  0
   58.5900   33.6810   45.8750 C   0  0  0  0  0  0  0  0  0  0  0  0
   58.2620   33.8100   44.5170 C   0  0  0  0  0  0  0  0  0  0  0  0
   58.4145   34.7729   44.0075 H   0  0  0  0  0  0  0  0  0  0  0  0
   57.7430   32.7240   43.8070 C   0  0  0  0  0  0  0  0  0  0  0  0
   57.4961   32.8368   42.7410 H   0  0  0  0  0  0  0  0  0  0  0  0
   57.5350   31.4950   44.4410 C   0  0  0  0  0  0  0  0  0  0  0  0
   57.0050   30.4350   43.6880 O   0  0  0  0  0  0  0  0  0  0  0  0
   55.8970   29.6600   44.0490 C   0  0  0  0  0  0  0  0  0  0  0  0
   54.8280   29.7180   43.3820 O   0  0  0  0  0  0  0  0  0  0  0  0
   55.9610   28.8840   45.2500 N   0  0  0  0  0  0  0  0  0  0  0  0
   56.9140   27.8540   45.5510 C   0  0  0  0  0  0  0  0  0  0  0  0
   58.3020   28.0790   45.4750 C   0  0  0  0  0  0  0  0  0  0  0  0
   58.6812   29.0624   45.1603 H   0  0  0  0  0  0  0  0  0  0  0  0
   59.2000   27.0570   45.7980 C   0  0  0  0  0  0  0  0  0  0  0  0
   60.2832   27.2349   45.7266 H   0  0  0  0  0  0  0  0  0  0  0  0
   58.7240   25.8110   46.2110 C   0  0  0  0  0  0  0  0  0  0  0  0
   59.4318   25.0059   46.4576 H   0  0  0  0  0  0  0  0  0  0  0  0
   57.3480   25.5870   46.3110 C   0  0  0  0  0  0  0  0  0  0  0  0
   56.9735   24.6070   46.6419 H   0  0  0  0  0  0  0  0  0  0  0  0
   56.4470   26.6070   45.9910 C   0  0  0  0  0  0  0  0  0  0  0  0
   55.1130   26.3770   46.0960 F   0  0  0  0  0  0  0  0  0  0  0  0
   57.8180   31.3740   45.8130 C   0  0  0  0  0  0  0  0  0  0  0  0
   57.6289   30.4211   46.3290 H   0  0  0  0  0  0  0  0  0  0  0  0
   58.3390   32.4600   46.5250 C   0  0  0  0  0  0  0  0  0  0  0  0
   58.5533   32.3578   47.5991 H   0  0  0  0  0  0  0  0  0  0  0  0
  1  2  1  0
  2  3  1  0
  3  4  2  0
  4  5  1  0
  4  6  1  0
  6  7  2  0
  7  8  1  0
  7  9  1  0
  9 10  1  0
  9 11  2  0
 11 12  1  0
 12 13  1  0
 13 14  2  0
 13 15  1  0
 15 16  1  0
 16 17  2  0
 17 18  1  0
 17 19  1  0
 19 20  1  0
 19 21  2  0
 21 22  1  0
 21 23  1  0
 23 24  1  0
 23 25  2  0
 25 26  1  0
 11 27  1  0
 27 28  1  0
 27 29  2  0
 29 30  1  0
 29  6  1  0
 25 16  1  0
M  CHG  1  15  -1
M  END
>  <UniqueID>  (45) 
44

>  <SMILES>  (45) 
O=C([N-]c1ccccc1F)Oc1ccc(/C=N\O)cc1

>  <Energy>  (45) 
42.728423320474384

>  <Genealogy>  (45) 
O=C([N-]c1ccccc1F)Oc1ccc(C=NO)cc1 (protonated)
O=C([N-]c1ccccc1F)Oc1ccc(/C=N\O)cc1 (cis-trans isomerization)
O=C([N-]c1ccccc1F)Oc1ccc(/C=N\O)cc1 (3D coordinates assigned)
O=C([N-]c1ccccc1F)Oc1ccc(/C=N\O)cc1 (optimized conformer: 42.728423320474384 kcal/mol)

>  <smiles>  (45) 
O=C(Nc1ccccc1F)Oc1ccc(C=NO)cc1

>  <score_type>  (45) 
oracle

>  <origin>  (45) 
adg

>  <m_score__min__energy>  (45) 
-8.5

>  <m_primary>  (45) 
energy

$$$$
45:0
     RDKit          3D

 47 50  0  0  0  0  0  0  0  0999 V2000
   58.5660   32.6670   46.3070 O   0  0  0  0  0  0  0  0  0  0  0  0
   59.3250   31.7250   46.6650 C   0  0  0  0  0  0  0  0  0  0  0  0
   58.7950   30.3450   46.6650 C   0  0  0  0  0  0  0  0  0  0  0  0
   58.4160   29.7450   45.4560 C   0  0  0  0  0  0  0  0  0  0  0  0
   57.9110   28.4420   45.4360 C   0  0  0  0  0  0  0  0  0  0  0  0
   57.7930   27.7050   46.6280 C   0  0  0  0  0  0  0  0  0  0  0  0
   57.2530   26.3230   46.6370 C   0  0  0  0  0  0  0  0  0  0  0  0
   58.0020   25.2360   46.8990 N   0  0  0  0  0  0  0  0  0  0  0  0
   57.1310   24.2110   46.7900 C   0  0  0  0  0  0  0  0  0  0  0  0
   57.4670   23.0120   46.9740 O   0  0  0  0  0  0  0  0  0  0  0  0
   55.8730   24.5720   46.4650 N   0  0  0  0  0  0  0  0  0  0  0  0
   55.9630   25.9090   46.3670 C   0  0  0  0  0  0  0  0  0  0  0  0
   54.8940   26.7170   46.0040 O   0  0  0  0  0  0  0  0  0  0  0  0
   58.1790   28.3060   47.8380 C   0  0  0  0  0  0  0  0  0  0  0  0
   58.6850   29.6080   47.8580 C   0  0  0  0  0  0  0  0  0  0  0  0
   59.1080   30.1320   49.0380 F   0  0  0  0  0  0  0  0  0  0  0  0
   60.6770   32.0180   47.0670 N   0  0  0  0  0  0  0  0  0  0  0  0
   61.3480   31.2240   48.1070 C   0  0  0  0  0  0  0  0  0  0  0  0
   62.0420   32.1250   49.1440 C   0  0  0  0  0  0  0  0  0  0  0  0
   62.5870   33.4720   48.5810 C   0  0  0  0  0  0  0  0  0  0  0  0
   63.8660   33.8390   49.2500 N   0  0  0  0  0  0  0  0  0  0  0  0
   63.6980   34.1620   50.6740 C   0  0  0  0  0  0  0  0  0  0  0  0
   65.0150   33.8500   51.3680 C   0  0  0  0  0  0  0  0  0  0  0  0
   65.7770   32.9570   50.4090 C   0  0  0  0  0  0  0  0  0  0  0  0
   64.8390   32.7380   49.2350 C   0  0  0  0  0  0  0  0  0  0  0  0
   62.7590   33.3760   47.0480 C   0  0  0  0  0  0  0  0  0  0  0  0
   61.4030   33.0990   46.3870 C   0  0  0  0  0  0  0  0  0  0  0  0
   58.5170   30.3049   44.5145 H   0  0  0  0  0  0  0  0  0  0  0  0
   57.6037   27.9898   44.4815 H   0  0  0  0  0  0  0  0  0  0  0  0
   58.0817   27.7454   48.7794 H   0  0  0  0  0  0  0  0  0  0  0  0
   60.6003   30.6003   48.6187 H   0  0  0  0  0  0  0  0  0  0  0  0
   62.1142   30.5996   47.6242 H   0  0  0  0  0  0  0  0  0  0  0  0
   61.3159   32.3549   49.9376 H   0  0  0  0  0  0  0  0  0  0  0  0
   62.9170   31.5641   49.5044 H   0  0  0  0  0  0  0  0  0  0  0  0
   61.8597   34.2694   48.7936 H   0  0  0  0  0  0  0  0  0  0  0  0
   63.4540   35.2281   50.7918 H   0  0  0  0  0  0  0  0  0  0  0  0
   62.8784   33.5737   51.1123 H   0  0  0  0  0  0  0  0  0  0  0  0
   65.5771   34.7759   51.5600 H   0  0  0  0  0  0  0  0  0  0  0  0
   64.8577   33.3627   52.3415 H   0  0  0  0  0  0  0  0  0  0  0  0
   66.7024   33.4499   50.0762 H   0  0  0  0  0  0  0  0  0  0  0  0
   66.0736   32.0081   50.8797 H   0  0  0  0  0  0  0  0  0  0  0  0
   65.4055   32.7476   48.2922 H   0  0  0  0  0  0  0  0  0  0  0  0
   64.3317   31.7652   49.3146 H   0  0  0  0  0  0  0  0  0  0  0  0
   63.1638   34.3249   46.6662 H   0  0  0  0  0  0  0  0  0  0  0  0
   63.4515   32.5546   46.8120 H   0  0  0  0  0  0  0  0  0  0  0  0
   60.7949   34.0149   46.4239 H   0  0  0  0  0  0  0  0  0  0  0  0
   61.5856   32.7882   45.3477 H   0  0  0  0  0  0  0  0  0  0  0  0
  1  2  2  0
  2  3  1  0
  3  4  2  0
  4  5  1  0
  5  6  2  0
  6  7  1  0
  7  8  1  0
  8  9  1  0
  9 10  2  0
  9 11  1  0
 11 12  1  0
 12 13  1  0
  6 14  1  0
 14 15  2  0
 15 16  1  0
  2 17  1  0
 17 18  1  0
 18 19  1  0
 19 20  1  0
 20 21  1  0
 21 22  1  0
 22 23  1  0
 23 24  1  0
 24 25  1  0
 20 26  1  0
 26 27  1  0
 15  3  1  0
 27 17  1  0
 12  7  2  0
 25 21  1  0
  4 28  1  0
  5 29  1  0
 14 30  1  0
 18 31  1  0
 18 32  1  0
 19 33  1  0
 19 34  1  0
 20 35  1  0
 22 36  1  0
 22 37  1  0
 23 38  1  0
 23 39  1  0
 24 40  1  0
 24 41  1  0
 25 42  1  0
 25 43  1  0
 26 44  1  0
 26 45  1  0
 27 46  1  0
 27 47  1  0
M  CHG  3   8  -1  11  -1  13  -1
M  END
>  <UniqueID>  (46) 
45

>  <SMILES>  (46) 
O=C(c1ccc(-c2[n-]c(=O)[n-]c2[O-])cc1F)N1CCC(N2CCCC2)CC1

>  <Energy>  (46) 
95.2135911274587

>  <Genealogy>  (46) 
O=C(c1ccc(-c2[n-]c(=O)[n-]c2[O-])cc1F)N1CCC(N2CCCC2)CC1 (protonated)
O=C(c1ccc(-c2[n-]c(=O)[n-]c2[O-])cc1F)N1CCC(N2CCCC2)CC1 (3D coordinates assigned)
O=C(c1ccc(-c2[n-]c(=O)[n-]c2[O-])cc1F)N1CCC(N2CCCC2)CC1 (nonaromatic ring conformer: 95.2135911274587 kcal/mol)

>  <smiles>  (46) 
O=C(c1ccc(-c2[nH]c(=O)[nH]c2O)cc1F)N1CCC(N2CCCC2)CC1

>  <score_type>  (46) 
oracle

>  <origin>  (46) 
adg

>  <m_score__min__energy>  (46) 
-14.9

>  <m_primary>  (46) 
energy

$$$$
46:0
     RDKit          3D

 57 60  0  0  0  0  0  0  0  0999 V2000
   58.4150   28.9660   44.4490 O   0  0  0  0  0  0  0  0  0  0  0  0
   58.0580   29.5730   45.4930 C   0  0  0  0  0  0  0  0  0  0  0  0
   58.4990   29.0510   46.8360 C   0  0  0  0  0  0  0  0  0  0  0  0
   59.5230   27.5430   46.6790 S   0  0  0  0  0  0  0  0  0  0  0  0
   58.1350   26.4160   46.7420 C   0  0  0  0  0  0  0  0  0  0  0  0
   56.9350   26.7910   46.2290 N   0  0  0  0  0  0  0  0  0  0  0  0
   55.8620   25.9600   46.2800 C   0  0  0  0  0  0  0  0  0  0  0  0
   54.7600   26.3390   45.8020 O   0  0  0  0  0  0  0  0  0  0  0  0
   55.9880   24.6880   46.8540 C   0  0  0  0  0  0  0  0  0  0  0  0
   54.8560   23.8090   46.8750 N   0  0  0  0  0  0  0  0  0  0  0  0
   54.4510   22.9920   45.7710 C   0  0  0  0  0  0  0  0  0  0  0  0
   53.2240   22.7630   45.5820 O   0  0  0  0  0  0  0  0  0  0  0  0
   55.4550   22.4170   44.8400 C   0  0  0  0  0  0  0  0  0  0  0  0
   55.6540   23.0450   43.5940 C   0  0  0  0  0  0  0  0  0  0  0  0
   56.5920   22.5520   42.6860 C   0  0  0  0  0  0  0  0  0  0  0  0
   57.3410   21.4200   43.0000 C   0  0  0  0  0  0  0  0  0  0  0  0
   57.1520   20.7760   44.2230 C   0  0  0  0  0  0  0  0  0  0  0  0
   56.2150   21.2590   45.1460 C   0  0  0  0  0  0  0  0  0  0  0  0
   55.9910   20.3270   46.6260 Cl  0  0  0  0  0  0  0  0  0  0  0  0
   57.2330   24.3320   47.4120 C   0  0  0  0  0  0  0  0  0  0  0  0
   57.4190   23.1290   48.0920 O   0  0  0  0  0  0  0  0  0  0  0  0
   58.2740   25.2000   47.3270 N   0  0  0  0  0  0  0  0  0  0  0  0
   57.4000   30.8400   45.3580 N   0  0  0  0  0  0  0  0  0  0  0  0
   57.9850   32.1270   45.5990 C   0  0  0  0  0  0  0  0  0  0  0  0
   57.8400   33.1770   44.6790 C   0  0  0  0  0  0  0  0  0  0  0  0
   58.4340   34.4160   44.9260 C   0  0  0  0  0  0  0  0  0  0  0  0
   59.1960   34.6100   46.0820 C   0  0  0  0  0  0  0  0  0  0  0  0
   59.3830   33.5550   46.9840 C   0  0  0  0  0  0  0  0  0  0  0  0
   60.3370   33.7940   48.4460 S   0  0  0  0  0  0  0  0  0  0  0  0
   59.7160   34.8820   49.2780 O   0  0  0  0  0  0  0  0  0  0  0  0
   60.3320   32.5100   49.2270 O   0  0  0  0  0  0  0  0  0  0  0  0
   61.9790   34.2290   48.0150 N   0  0  0  0  0  0  0  0  0  0  0  0
   62.9070   34.0910   49.1590 C   0  0  0  0  0  0  0  0  0  0  0  0
   63.7370   32.7950   49.1010 C   0  0  0  0  0  0  0  0  0  0  0  0
   62.9800   31.7590   48.5190 O   0  0  0  0  0  0  0  0  0  0  0  0
   62.7760   32.0140   47.1390 C   0  0  0  0  0  0  0  0  0  0  0  0
   62.4400   33.4920   46.8240 C   0  0  0  0  0  0  0  0  0  0  0  0
   58.7820   32.3140   46.7350 C   0  0  0  0  0  0  0  0  0  0  0  0
   59.0874   29.8291   47.3442 H   0  0  0  0  0  0  0  0  0  0  0  0
   57.5992   28.7934   47.4139 H   0  0  0  0  0  0  0  0  0  0  0  0
   55.0623   23.9351   43.3340 H   0  0  0  0  0  0  0  0  0  0  0  0
   56.7403   23.0580   41.7206 H   0  0  0  0  0  0  0  0  0  0  0  0
   58.0813   21.0341   42.2837 H   0  0  0  0  0  0  0  0  0  0  0  0
   57.7439   19.8809   44.4649 H   0  0  0  0  0  0  0  0  0  0  0  0
   57.7440   22.2860   47.6360 H   0  0  0  0  0  0  0  0  0  0  0  0
   57.2560   33.0230   43.7596 H   0  0  0  0  0  0  0  0  0  0  0  0
   58.3023   35.2407   44.2101 H   0  0  0  0  0  0  0  0  0  0  0  0
   59.6490   35.5920   46.2833 H   0  0  0  0  0  0  0  0  0  0  0  0
   63.5950   34.9493   49.1590 H   0  0  0  0  0  0  0  0  0  0  0  0
   62.2999   34.0548   50.0756 H   0  0  0  0  0  0  0  0  0  0  0  0
   64.6402   32.9684   48.4975 H   0  0  0  0  0  0  0  0  0  0  0  0
   64.0193   32.5031   50.1233 H   0  0  0  0  0  0  0  0  0  0  0  0
   63.6934   31.7428   46.5961 H   0  0  0  0  0  0  0  0  0  0  0  0
   61.9101   31.4127   46.8248 H   0  0  0  0  0  0  0  0  0  0  0  0
   63.3423   33.9836   46.4315 H   0  0  0  0  0  0  0  0  0  0  0  0
   61.6236   33.5009   46.0868 H   0  0  0  0  0  0  0  0  0  0  0  0
   58.9373   31.4811   47.4366 H   0  0  0  0  0  0  0  0  0  0  0  0
  1  2  2  0
  2  3  1  0
  3  4  1  0
  4  5  1  0
  5  6  2  0
  6  7  1  0
  7  8  2  0
  7  9  1  0
  9 10  1  0
 10 11  1  0
 11 12  2  0
 11 13  1  0
 13 14  2  0
 14 15  1  0
 15 16  2  0
 16 17  1  0
 17 18  2  0
 18 19  1  0
  9 20  2  0
 20 21  1  0
 20 22  1  0
  2 23  1  0
 23 24  1  0
 24 25  2  0
 25 26  1  0
 26 27  2  0
 27 28  1  0
 28 29  1  0
 29 30  2  0
 29 31  2  0
 29 32  1  0
 32 33  1  0
 33 34  1  0
 34 35  1  0
 35 36  1  0
 36 37  1  0
 28 38  2  0
 22  5  1  0
 38 24  1  0
 18 13  1  0
 37 32  1  0
  3 39  1  0
  3 40  1  0
 14 41  1  0
 15 42  1  0
 16 43  1  0
 17 44  1  0
 21 45  1  0
 25 46  1  0
 26 47  1  0
 27 48  1  0
 33 49  1  0
 33 50  1  0
 34 51  1  0
 34 52  1  0
 36 53  1  0
 36 54  1  0
 37 55  1  0
 37 56  1  0
 38 57  1  0
M  CHG  3  10  -1  22  -1  23  -1
M  END
>  <UniqueID>  (47) 
46

>  <SMILES>  (47) 
O=C(CSc1nc(=O)c([N-]C(=O)c2ccccc2Cl)c(O)[n-]1)[N-]c1cccc(S(=O)(=O)N2CCOCC2)c1

>  <Energy>  (47) 
85.2019385723067

>  <Genealogy>  (47) 
O=C(CSc1nc(=O)c([N-]C(=O)c2ccccc2Cl)c(O)[n-]1)[N-]c1cccc(S(=O)(=O)N2CCOCC2)c1 (protonated)
O=C(CSc1nc(=O)c([N-]C(=O)c2ccccc2Cl)c(O)[n-]1)[N-]c1cccc(S(=O)(=O)N2CCOCC2)c1 (3D coordinates assigned)
O=C(CSc1nc(=O)c([N-]C(=O)c2ccccc2Cl)c(O)[n-]1)[N-]c1cccc(S(=O)(=O)N2CCOCC2)c1 (nonaromatic ring conformer: 85.2019385723067 kcal/mol)

>  <smiles>  (47) 
O=C(CSc1nc(=O)c(NC(=O)c2ccccc2Cl)c(O)[nH]1)Nc1cccc(S(=O)(=O)N2CCOCC2)c1

>  <score_type>  (47) 
oracle

>  <origin>  (47) 
adg

>  <m_score__min__energy>  (47) 
-15.15

>  <m_primary>  (47) 
energy

$$$$
47:0
     RDKit          3D

 44 46  0  0  0  0  0  0  0  0999 V2000
   56.2180   29.7360   43.4190 C   0  0  0  0  0  0  0  0  0  0  0  0
   57.5140   30.2950   43.6040 O   0  0  0  0  0  0  0  0  0  0  0  0
   57.7910   31.4330   44.3820 C   0  0  0  0  0  0  0  0  0  0  0  0
   57.4520   32.7260   43.9440 C   0  0  0  0  0  0  0  0  0  0  0  0
   57.7500   33.8390   44.7290 C   0  0  0  0  0  0  0  0  0  0  0  0
   58.3750   33.6800   45.9640 C   0  0  0  0  0  0  0  0  0  0  0  0
   58.7170   32.4020   46.4300 C   0  0  0  0  0  0  0  0  0  0  0  0
   59.4170   32.2420   48.0500 S   0  0  0  0  0  0  0  0  0  0  0  0
   58.4630   31.5390   48.9740 O   0  0  0  0  0  0  0  0  0  0  0  0
   59.7010   33.6180   48.5860 O   0  0  0  0  0  0  0  0  0  0  0  0
   60.8770   31.3090   47.9350 N   0  0  0  0  0  0  0  0  0  0  0  0
   62.1350   31.7230   48.4890 C   0  0  0  0  0  0  0  0  0  0  0  0
   62.6170   31.1930   49.7000 C   0  0  0  0  0  0  0  0  0  0  0  0
   63.8420   31.6250   50.2210 C   0  0  0  0  0  0  0  0  0  0  0  0
   64.6010   32.5810   49.5340 C   0  0  0  0  0  0  0  0  0  0  0  0
   65.8590   33.0260   50.0720 C   0  0  0  0  0  0  0  0  0  0  0  0
   66.8700   33.3830   50.5060 N   0  0  0  0  0  0  0  0  0  0  0  0
   64.1370   33.0950   48.3170 C   0  0  0  0  0  0  0  0  0  0  0  0
   62.9150   32.6600   47.7950 C   0  0  0  0  0  0  0  0  0  0  0  0
   58.4390   31.2690   45.6250 C   0  0  0  0  0  0  0  0  0  0  0  0
   58.8100   29.9090   46.0660 C   0  0  0  0  0  0  0  0  0  0  0  0
   60.0230   29.5650   46.0670 O   0  0  0  0  0  0  0  0  0  0  0  0
   57.7810   28.9970   46.4810 N   0  0  0  0  0  0  0  0  0  0  0  0
   57.8160   27.6970   46.4030 C   0  0  0  0  0  0  0  0  0  0  0  0
   58.9330   26.9990   46.7590 N   0  0  0  0  0  0  0  0  0  0  0  0
   58.9800   25.6410   46.7140 C   0  0  0  0  0  0  0  0  0  0  0  0
   57.8640   24.9160   46.2950 C   0  0  0  0  0  0  0  0  0  0  0  0
   56.7070   25.6030   45.9200 C   0  0  0  0  0  0  0  0  0  0  0  0
   56.6770   27.0000   45.9740 C   0  0  0  0  0  0  0  0  0  0  0  0
   55.5200   27.6810   45.6100 O   0  0  0  0  0  0  0  0  0  0  0  0
   55.7604   29.5386   44.3996 H   0  0  0  0  0  0  0  0  0  0  0  0
   55.5903   30.4434   42.8572 H   0  0  0  0  0  0  0  0  0  0  0  0
   56.3018   28.7940   42.8572 H   0  0  0  0  0  0  0  0  0  0  0  0
   56.9483   32.8599   42.9753 H   0  0  0  0  0  0  0  0  0  0  0  0
   57.4907   34.8466   44.3719 H   0  0  0  0  0  0  0  0  0  0  0  0
   58.6020   34.5637   46.5785 H   0  0  0  0  0  0  0  0  0  0  0  0
   60.8570   30.4810   47.2970 H   0  0  0  0  0  0  0  0  0  0  0  0
   62.0287   30.4361   50.2394 H   0  0  0  0  0  0  0  0  0  0  0  0
   64.2096   31.2128   51.1723 H   0  0  0  0  0  0  0  0  0  0  0  0
   64.7338   33.8409   47.7717 H   0  0  0  0  0  0  0  0  0  0  0  0
   62.5620   33.0561   46.8314 H   0  0  0  0  0  0  0  0  0  0  0  0
   59.8991   25.1132   47.0083 H   0  0  0  0  0  0  0  0  0  0  0  0
   57.8949   23.8170   46.2604 H   0  0  0  0  0  0  0  0  0  0  0  0
   55.8206   25.0458   45.5826 H   0  0  0  0  0  0  0  0  0  0  0  0
  1  2  1  0
  2  3  1  0
  3  4  2  0
  4  5  1  0
  5  6  2  0
  6  7  1  0
  7  8  1  0
  8  9  2  0
  8 10  2  0
  8 11  1  0
 11 12  1  0
 12 13  2  0
 13 14  1  0
 14 15  2  0
 15 16  1  0
 16 17  3  0
 15 18  1  0
 18 19  2  0
  7 20  2  0
 20 21  1  0
 21 22  2  0
 21 23  1  0
 23 24  2  3
 24 25  1  0
 25 26  1  0
 26 27  2  0
 27 28  1  0
 28 29  2  0
 29 30  1  0
 20  3  1  0
 29 24  1  0
 19 12  1  0
  1 31  1  0
  1 32  1  0
  1 33  1  0
  4 34  1  0
  5 35  1  0
  6 36  1  0
 11 37  1  0
 13 38  1  0
 14 39  1  0
 18 40  1  0
 19 41  1  0
 26 42  1  0
 27 43  1  0
 28 44  1  0
M  CHG  2  25  -1  30  -1
M  END
>  <UniqueID>  (48) 
47

>  <SMILES>  (48) 
COc1cccc(S(=O)(=O)Nc2ccc(C#N)cc2)c1C(=O)N=c1[n-]cccc1[O-]

>  <Energy>  (48) 
58.5105832349636

>  <Genealogy>  (48) 
COc1cccc(S(=O)(=O)Nc2ccc(C#N)cc2)c1C(=O)N=c1[n-]cccc1[O-] (protonated)
COc1cccc(S(=O)(=O)Nc2ccc(C#N)cc2)c1C(=O)N=c1[n-]cccc1[O-] (3D coordinates assigned)
COc1cccc(S(=O)(=O)Nc2ccc(C#N)cc2)c1C(=O)N=c1[n-]cccc1[O-] (optimized conformer: 58.5105832349636 kcal/mol)

>  <smiles>  (48) 
COc1cccc(S(=O)(=O)Nc2ccc(C#N)cc2)c1C(=O)N=c1[nH]cccc1O

>  <score_type>  (48) 
oracle

>  <origin>  (48) 
adg

>  <m_score__min__energy>  (48) 
-12.65

>  <m_primary>  (48) 
energy

$$$$
48:0
     RDKit          3D

 42 44  0  0  0  0  0  0  0  0999 V2000
   60.3070   26.8460   45.9980 C   0  0  0  0  0  0  0  0  0  0  0  0
   58.9490   27.4020   45.6830 C   0  0  0  0  0  0  0  0  0  0  0  0
   58.8260   28.6350   45.0280 C   0  0  0  0  0  0  0  0  0  0  0  0
   57.5590   29.1660   44.7440 C   0  0  0  0  0  0  0  0  0  0  0  0
   57.4320   30.4800   44.0260 C   0  0  0  0  0  0  0  0  0  0  0  0
   56.4070   28.4700   45.1530 C   0  0  0  0  0  0  0  0  0  0  0  0
   55.1450   28.9870   44.8780 O   0  0  0  0  0  0  0  0  0  0  0  0
   56.5230   27.2590   45.8510 C   0  0  0  0  0  0  0  0  0  0  0  0
   55.3310   26.5590   46.2370 N   0  0  0  0  0  0  0  0  0  0  0  0
   54.8040   25.3750   45.6260 C   0  0  0  0  0  0  0  0  0  0  0  0
   53.5580   25.2700   45.4790 O   0  0  0  0  0  0  0  0  0  0  0  0
   55.6910   24.2370   45.2000 C   0  0  0  0  0  0  0  0  0  0  0  0
   55.5350   23.1040   46.1120 N   0  0  0  0  0  0  0  0  0  0  0  0
   54.5150   22.2200   46.1310 C   0  0  0  0  0  0  0  0  0  0  0  0
   53.3990   22.2940   45.3050 O   0  0  0  0  0  0  0  0  0  0  0  0
   54.7460   21.2390   47.0750 C   0  0  0  0  0  0  0  0  0  0  0  0
   55.9450   21.5520   47.6770 C   0  0  0  0  0  0  0  0  0  0  0  0
   56.4180   22.6820   47.0430 C   0  0  0  0  0  0  0  0  0  0  0  0
   57.6350   23.3030   47.3060 O   0  0  0  0  0  0  0  0  0  0  0  0
   56.6120   20.6940   48.7080 C   0  0  0  0  0  0  0  0  0  0  0  0
   55.5860   19.7390   49.3540 C   0  0  0  0  0  0  0  0  0  0  0  0
   54.6870   19.0630   48.2950 C   0  0  0  0  0  0  0  0  0  0  0  0
   53.8710   20.0970   47.4920 C   0  0  0  0  0  0  0  0  0  0  0  0
   57.7960   26.7200   46.0970 C   0  0  0  0  0  0  0  0  0  0  0  0
   60.4373   26.7926   47.0889 H   0  0  0  0  0  0  0  0  0  0  0  0
   60.3992   25.8377   45.5680 H   0  0  0  0  0  0  0  0  0  0  0  0
   61.0798   27.5001   45.5680 H   0  0  0  0  0  0  0  0  0  0  0  0
   59.7292   29.1901   44.7346 H   0  0  0  0  0  0  0  0  0  0  0  0
   57.3533   31.2938   44.7619 H   0  0  0  0  0  0  0  0  0  0  0  0
   58.3188   30.6404   43.3953 H   0  0  0  0  0  0  0  0  0  0  0  0
   56.5309   30.4676   43.3953 H   0  0  0  0  0  0  0  0  0  0  0  0
   55.4162   23.9240   44.1819 H   0  0  0  0  0  0  0  0  0  0  0  0
   56.7385   24.5721   45.2210 H   0  0  0  0  0  0  0  0  0  0  0  0
   57.4068   20.1031   48.2295 H   0  0  0  0  0  0  0  0  0  0  0  0
   57.0410   21.3398   49.4883 H   0  0  0  0  0  0  0  0  0  0  0  0
   56.1264   18.9602   49.9121 H   0  0  0  0  0  0  0  0  0  0  0  0
   54.9425   20.3294   50.0228 H   0  0  0  0  0  0  0  0  0  0  0  0
   55.3218   18.4933   47.6004 H   0  0  0  0  0  0  0  0  0  0  0  0
   53.9806   18.4016   48.8180 H   0  0  0  0  0  0  0  0  0  0  0  0
   53.4538   19.6136   46.5963 H   0  0  0  0  0  0  0  0  0  0  0  0
   53.0583   20.4817   48.1256 H   0  0  0  0  0  0  0  0  0  0  0  0
   57.8894   25.7558   46.6182 H   0  0  0  0  0  0  0  0  0  0  0  0
  1  2  1  0
  2  3  2  0
  3  4  1  0
  4  5  1  0
  4  6  2  0
  6  7  1  0
  6  8  1  0
  8  9  1  0
  9 10  1  0
 10 11  2  0
 10 12  1  0
 12 13  1  0
 13 14  1  0
 14 15  1  0
 14 16  2  0
 16 17  1  0
 17 18  2  0
 18 19  1  0
 17 20  1  0
 20 21  1  0
 21 22  1  0
 22 23  1  0
  8 24  2  0
 24  2  1  0
 18 13  1  0
 23 16  1  0
  1 25  1  0
  1 26  1  0
  1 27  1  0
  3 28  1  0
  5 29  1  0
  5 30  1  0
  5 31  1  0
 12 32  1  0
 12 33  1  0
 20 34  1  0
 20 35  1  0
 21 36  1  0
 21 37  1  0
 22 38  1  0
 22 39  1  0
 23 40  1  0
 23 41  1  0
 24 42  1  0
M  CHG  4   7  -1   9  -1  15  -1  19  -1
M  END
>  <UniqueID>  (49) 
48

>  <SMILES>  (49) 
Cc1cc(C)c([O-])c([N-]C(=O)Cn2c([O-])c3c(c2[O-])CCCC3)c1

>  <Energy>  (49) 
74.90251028186258

>  <Genealogy>  (49) 
Cc1cc(C)c([O-])c([N-]C(=O)Cn2c([O-])c3c(c2[O-])CCCC3)c1 (protonated)
Cc1cc(C)c([O-])c([N-]C(=O)Cn2c([O-])c3c(c2[O-])CCCC3)c1 (3D coordinates assigned)
Cc1cc(C)c([O-])c([N-]C(=O)Cn2c([O-])c3c(c2[O-])CCCC3)c1 (nonaromatic ring conformer: 74.90251028186258 kcal/mol)

>  <smiles>  (49) 
Cc1cc(C)c(O)c(NC(=O)Cn2c(O)c3c(c2O)CCCC3)c1

>  <score_type>  (49) 
oracle

>  <origin>  (49) 
adg

>  <m_score__min__energy>  (49) 
-16.32

>  <m_primary>  (49) 
energy

$$$$
49:0
     RDKit          3D

 52 55  0  0  0  0  0  0  0  0999 V2000
   58.0710   32.3290   42.4370 C   0  0  0  0  0  0  0  0  0  0  0  0
   57.3770   31.2140   43.2210 C   0  0  0  0  0  0  0  0  0  0  0  0
   57.4120   31.4900   44.6700 N   0  0  0  0  0  0  0  0  0  0  0  0
   56.8030   32.7350   45.1670 C   0  0  0  0  0  0  0  0  0  0  0  0
   57.8580   33.6620   45.7150 C   0  0  0  0  0  0  0  0  0  0  0  0
   58.6290   34.4590   44.8560 C   0  0  0  0  0  0  0  0  0  0  0  0
   59.6350   35.2750   45.3760 C   0  0  0  0  0  0  0  0  0  0  0  0
   59.8620   35.2870   46.7530 C   0  0  0  0  0  0  0  0  0  0  0  0
   59.1070   34.5120   47.5790 N   0  0  0  0  0  0  0  0  0  0  0  0
   58.1200   33.7090   47.0940 C   0  0  0  0  0  0  0  0  0  0  0  0
   57.9810   30.5450   45.6120 C   0  0  0  0  0  0  0  0  0  0  0  0
   58.6060   30.9670   46.7990 C   0  0  0  0  0  0  0  0  0  0  0  0
   59.1410   30.0030   47.6650 C   0  0  0  0  0  0  0  0  0  0  0  0
   59.8420   30.4190   48.9400 C   0  0  2  0  0  0  0  0  0  0  0  0
   59.3270   31.8140   49.4180 C   0  0  0  0  0  0  0  0  0  0  0  0
   60.3640   32.7860   49.5870 O   0  0  0  0  0  0  0  0  0  0  0  0
   61.4950   32.8060   48.7730 C   0  0  0  0  0  0  0  0  0  0  0  0
   62.1440   34.0120   48.4830 C   0  0  0  0  0  0  0  0  0  0  0  0
   63.2700   34.0150   47.6530 C   0  0  0  0  0  0  0  0  0  0  0  0
   63.7540   32.8100   47.1250 C   0  0  0  0  0  0  0  0  0  0  0  0
   63.1200   31.6010   47.4380 C   0  0  0  0  0  0  0  0  0  0  0  0
   61.9840   31.6000   48.2620 C   0  0  0  0  0  0  0  0  0  0  0  0
   61.3800   30.3230   48.7740 C   0  0  0  0  0  0  0  0  0  0  0  0
   59.0590   28.6860   47.3340 N   0  0  0  0  0  0  0  0  0  0  0  0
   58.4320   28.2860   46.1990 C   0  0  0  0  0  0  0  0  0  0  0  0
   58.3790   26.8360   45.8460 C   0  0  0  0  0  0  0  0  0  0  0  0
   57.9130   29.2100   45.3500 N   0  0  0  0  0  0  0  0  0  0  0  0
   58.5183   33.0476   43.1396 H   0  0  0  0  0  0  0  0  0  0  0  0
   58.8594   31.8960   41.8038 H   0  0  0  0  0  0  0  0  0  0  0  0
   57.3344   32.8452   41.8038 H   0  0  0  0  0  0  0  0  0  0  0  0
   56.3295   31.1413   42.8933 H   0  0  0  0  0  0  0  0  0  0  0  0
   57.9054   30.2683   43.0301 H   0  0  0  0  0  0  0  0  0  0  0  0
   56.2771   33.2349   44.3403 H   0  0  0  0  0  0  0  0  0  0  0  0
   56.0971   32.4863   45.9732 H   0  0  0  0  0  0  0  0  0  0  0  0
   58.4408   34.4409   43.7724 H   0  0  0  0  0  0  0  0  0  0  0  0
   60.2427   35.9023   44.7073 H   0  0  0  0  0  0  0  0  0  0  0  0
   60.6539   35.9250   47.1723 H   0  0  0  0  0  0  0  0  0  0  0  0
   59.2900   34.5310   48.6070 H   0  0  0  0  0  0  0  0  0  0  0  0
   57.5251   33.0943   47.7855 H   0  0  0  0  0  0  0  0  0  0  0  0
   58.6741   32.0371   47.0442 H   0  0  0  0  0  0  0  0  0  0  0  0
   59.5910   29.7187   49.7503 H   0  0  0  0  0  0  0  0  0  0  0  0
   58.6134   32.1943   48.6723 H   0  0  0  0  0  0  0  0  0  0  0  0
   58.8649   31.6638   50.4049 H   0  0  0  0  0  0  0  0  0  0  0  0
   61.7693   34.9553   48.9069 H   0  0  0  0  0  0  0  0  0  0  0  0
   63.7754   34.9625   47.4147 H   0  0  0  0  0  0  0  0  0  0  0  0
   64.6331   32.8140   46.4638 H   0  0  0  0  0  0  0  0  0  0  0  0
   63.5118   30.6539   47.0387 H   0  0  0  0  0  0  0  0  0  0  0  0
   61.6084   29.5149   48.0635 H   0  0  0  0  0  0  0  0  0  0  0  0
   61.8115   30.1231   49.7659 H   0  0  0  0  0  0  0  0  0  0  0  0
   58.3570   26.2350   46.7670 H   0  0  0  0  0  0  0  0  0  0  0  0
   57.4729   26.6353   45.2555 H   0  0  0  0  0  0  0  0  0  0  0  0
   59.2680   26.5697   45.2555 H   0  0  0  0  0  0  0  0  0  0  0  0
  1  2  1  0
  2  3  1  0
  3  4  1  0
  4  5  1  0
  5  6  2  0
  6  7  1  0
  7  8  2  0
  8  9  1  0
  9 10  2  0
  3 11  1  0
 11 12  2  0
 12 13  1  0
 13 14  1  0
 14 15  1  0
 15 16  1  0
 16 17  1  0
 17 18  2  0
 18 19  1  0
 19 20  2  0
 20 21  1  0
 21 22  2  0
 22 23  1  0
 13 24  2  0
 24 25  1  0
 25 26  1  0
 25 27  2  0
 10  5  1  0
 27 11  1  0
 23 14  1  0
 22 17  1  0
  1 28  1  0
  1 29  1  0
  1 30  1  0
  2 31  1  0
  2 32  1  0
  4 33  1  0
  4 34  1  0
  6 35  1  0
  7 36  1  0
  8 37  1  0
  9 38  1  0
 10 39  1  0
 12 40  1  0
 14 41  1  1
 15 42  1  0
 15 43  1  0
 18 44  1  0
 19 45  1  0
 20 46  1  0
 21 47  1  0
 23 48  1  0
 23 49  1  0
 26 50  1  0
 26 51  1  0
 26 52  1  0
M  CHG  1   9   1
M  END
>  <UniqueID>  (50) 
49

>  <SMILES>  (50) 
CCN(Cc1ccc[nH+]c1)c1cc([C@@H]2COc3ccccc3C2)nc(C)n1

>  <Energy>  (50) 
60.97223186948602

>  <Genealogy>  (50) 
CCN(Cc1ccc[nH+]c1)c1cc(C2COc3ccccc3C2)nc(C)n1 (protonated)
CCN(Cc1ccc[nH+]c1)c1cc([C@@H]2COc3ccccc3C2)nc(C)n1 (chirality)
CCN(Cc1ccc[nH+]c1)c1cc([C@@H]2COc3ccccc3C2)nc(C)n1 (3D coordinates assigned)
CCN(Cc1ccc[nH+]c1)c1cc([C@@H]2COc3ccccc3C2)nc(C)n1 (nonaromatic ring conformer: 60.97223186948602 kcal/mol)

>  <smiles>  (50) 
CCN(Cc1cccnc1)c1cc(C2COc3ccccc3C2)nc(C)n1

>  <score_type>  (50) 
oracle

>  <origin>  (50) 
adg

>  <m_score__min__energy>  (50) 
-7.2599999999999998

>  <m_primary>  (50) 
energy

$$$$
50:0
     RDKit          3D

 51 54  0  0  1  0  0  0  0  0999 V2000
   59.2970   34.5150   47.4010 C   0  0  0  0  0  0  0  0  0  0  0  0
   59.5860   33.5950   46.4340 O   0  0  0  0  0  0  0  0  0  0  0  0
   59.0280   33.9060   45.2110 C   0  0  0  0  0  0  0  0  0  0  0  0
   57.8910   33.0530   44.8970 C   0  0  0  0  0  0  0  0  0  0  0  0
   56.7000   33.2160   45.2290 O   0  0  0  0  0  0  0  0  0  0  0  0
   58.8110   29.5300   47.9150 N   0  0  0  0  0  0  0  0  0  0  0  0
   58.5490   29.5700   46.6770 C   0  0  0  0  0  0  0  0  0  0  0  0
   58.4910   30.7560   46.0230 N   0  0  0  0  0  0  0  0  0  0  0  0
   58.2080   30.7080   44.7150 C   0  0  0  0  0  0  0  0  0  0  0  0
   58.1570   31.8700   44.1070 N   0  0  0  0  0  0  0  0  0  0  0  0
   59.2410   30.6710   48.6420 C   0  0  0  0  0  0  0  0  0  0  0  0
   58.5190   31.7110   48.7770 O   0  0  0  0  0  0  0  0  0  0  0  0
   60.6090   30.5880   49.2520 C   0  0  0  0  0  0  0  0  0  0  0  0
   61.5470   31.5820   48.7260 C   0  0  0  0  0  0  0  0  0  0  0  0
   62.3590   31.4140   47.6300 C   0  0  0  0  0  0  0  0  0  0  0  0
   63.2260   32.3810   47.1670 C   0  0  0  0  0  0  0  0  0  0  0  0
   63.2860   33.5880   47.8410 C   0  0  0  0  0  0  0  0  0  0  0  0
   64.1210   34.5750   47.4310 F   0  0  0  0  0  0  0  0  0  0  0  0
   62.4800   33.8020   48.9600 C   0  0  0  0  0  0  0  0  0  0  0  0
   61.6230   32.8060   49.3910 C   0  0  0  0  0  0  0  0  0  0  0  0
   58.3140   28.4330   45.9420 C   0  0  0  0  0  0  0  0  0  0  0  0
   58.3080   26.6730   46.4750 S   0  0  0  0  0  0  0  0  0  0  0  0
   57.9160   26.0660   44.8410 C   0  0  0  0  0  0  0  0  0  0  0  0
   57.7610   24.6600   44.5600 C   0  0  0  0  0  0  0  0  0  0  0  0
   56.8410   24.2790   43.6060 C   0  0  0  0  0  0  0  0  0  0  0  0
   56.7120   22.9170   43.3550 C   0  0  0  0  0  0  0  0  0  0  0  0
   57.4770   21.9790   44.0350 C   0  0  0  0  0  0  0  0  0  0  0  0
   58.4000   22.3880   44.9940 C   0  0  0  0  0  0  0  0  0  0  0  0
   58.5170   23.7600   45.2350 C   0  0  0  0  0  0  0  0  0  0  0  0
   57.8250   27.1660   44.0620 C   0  0  0  0  0  0  0  0  0  0  0  0
   58.0240   28.3780   44.6030 C   0  0  0  0  0  0  0  0  0  0  0  0
   57.9800   29.6160   43.9990 N   0  0  0  0  0  0  0  0  0  0  0  0
   59.4395   34.0614   48.3929 H   0  0  0  0  0  0  0  0  0  0  0  0
   59.9662   35.3815   47.2945 H   0  0  0  0  0  0  0  0  0  0  0  0
   58.2525   34.8431   47.2945 H   0  0  0  0  0  0  0  0  0  0  0  0
   58.6916   34.9531   45.2302 H   0  0  0  0  0  0  0  0  0  0  0  0
   59.7946   33.7481   44.4381 H   0  0  0  0  0  0  0  0  0  0  0  0
   58.6660   31.6290   46.5630 H   0  0  0  0  0  0  0  0  0  0  0  0
   60.5153   30.7386   50.3376 H   0  0  0  0  0  0  0  0  0  0  0  0
   61.0147   29.5970   49.0004 H   0  0  0  0  0  0  0  0  0  0  0  0
   62.3148   30.4553   47.0925 H   0  0  0  0  0  0  0  0  0  0  0  0
   63.8547   32.1974   46.2833 H   0  0  0  0  0  0  0  0  0  0  0  0
   62.5263   34.7605   49.4978 H   0  0  0  0  0  0  0  0  0  0  0  0
   60.9903   32.9819   50.2735 H   0  0  0  0  0  0  0  0  0  0  0  0
   56.2346   25.0211   43.0661 H   0  0  0  0  0  0  0  0  0  0  0  0
   55.9877   22.5754   42.6009 H   0  0  0  0  0  0  0  0  0  0  0  0
   57.3535   20.9083   43.8153 H   0  0  0  0  0  0  0  0  0  0  0  0
   59.0145   21.6584   45.5418 H   0  0  0  0  0  0  0  0  0  0  0  0
   59.2365   24.1161   45.9870 H   0  0  0  0  0  0  0  0  0  0  0  0
   57.5895   27.0690   42.9919 H   0  0  0  0  0  0  0  0  0  0  0  0
   57.7710   29.7250   42.9880 H   0  0  0  0  0  0  0  0  0  0  0  0
  1  2  1  0
  2  3  1  0
  3  4  1  0
  4  5  2  0
  4  6  1  0
  6  7  2  0
  7  8  1  0
  8  9  1  0
  9 10  2  0
 10 11  1  0
 11 12  2  0
 11 13  1  0
 13 14  1  0
 14 15  2  0
 15 16  1  0
 16 17  2  0
 17 18  1  0
 17 19  1  0
 19 20  2  0
  9 21  1  0
 21 22  1  0
 22 23  1  0
 23 24  1  0
 24 25  2  0
 25 26  1  0
 26 27  2  0
 27 28  1  0
 28 29  2  0
 23 30  2  0
 30 31  1  0
 31 32  1  0
 32  7  1  0
 20 14  1  0
 31 21  2  0
 29 24  1  0
  1 33  1  0
  1 34  1  0
  1 35  1  0
  3 36  1  0
  3 37  1  0
  8 38  1  0
 13 39  1  0
 13 40  1  0
 15 41  1  0
 16 42  1  0
 19 43  1  0
 20 44  1  0
 25 45  1  0
 26 46  1  0
 27 47  1  0
 28 48  1  0
 29 49  1  0
 30 50  1  0
 32 51  1  0
M  END
>  <smiles>  (51) 
COCC(=O)N=c1[nH]c(=NC(=O)Cc2ccc(F)cc2)c2sc(-c3ccccc3)cc2[nH]1

>  <score_type>  (51) 
oracle

>  <origin>  (51) 
adg

>  <m_score__min__energy>  (51) 
-10.109999999999999

>  <m_primary>  (51) 
energy

$$$$
51:0
     RDKit          3D

 42 44  0  0  0  0  0  0  0  0999 V2000
   54.0770   24.6090   45.5890 C   0  0  0  0  0  0  0  0  0  0  0  0
   54.5440   25.9520   45.9240 N   0  0  0  0  0  0  0  0  0  0  0  0
   55.7860   26.3230   46.0490 C   0  0  0  0  0  0  0  0  0  0  0  0
   56.7720   25.4870   46.6120 C   0  0  0  0  0  0  0  0  0  0  0  0
   58.0860   25.9480   46.7160 C   0  0  0  0  0  0  0  0  0  0  0  0
   58.4150   27.2310   46.2700 C   0  0  0  0  0  0  0  0  0  0  0  0
   60.0780   27.8030   46.3780 S   0  0  0  0  0  0  0  0  0  0  0  0
   60.2820   28.9090   45.3820 O   0  0  0  0  0  0  0  0  0  0  0  0
   61.0320   26.6870   46.0500 O   0  0  0  0  0  0  0  0  0  0  0  0
   60.4080   28.4030   47.9750 N   0  0  0  0  0  0  0  0  0  0  0  0
   59.3850   29.3760   48.3610 C   0  0  0  0  0  0  0  0  0  0  0  0
   59.7410   30.7270   47.8120 C   0  0  0  0  0  0  0  0  0  0  0  0
   61.0870   31.1570   47.7990 C   0  0  0  0  0  0  0  0  0  0  0  0
   61.4320   32.4080   47.2570 C   0  0  0  0  0  0  0  0  0  0  0  0
   63.1030   32.9440   47.2610 Cl  0  0  0  0  0  0  0  0  0  0  0  0
   60.4140   33.1980   46.7190 C   0  0  0  0  0  0  0  0  0  0  0  0
   59.1120   32.7810   46.7060 C   0  0  0  0  0  0  0  0  0  0  0  0
   58.7420   31.5490   47.2480 C   0  0  0  0  0  0  0  0  0  0  0  0
   58.2370   33.8200   46.0790 C   0  0  2  0  0  0  0  0  0  0  0  0
   57.5320   33.2740   44.8330 C   0  0  0  0  0  0  0  0  0  0  0  0
   59.2370   34.9610   45.7320 C   0  0  0  0  0  0  0  0  0  0  0  0
   60.5520   34.4820   46.1470 N   0  0  0  0  0  0  0  0  0  0  0  0
   57.4140   28.0320   45.7130 C   0  0  0  0  0  0  0  0  0  0  0  0
   56.1400   27.5650   45.6190 N   0  0  0  0  0  0  0  0  0  0  0  0
   53.8817   24.0473   46.5144 H   0  0  0  0  0  0  0  0  0  0  0  0
   53.1505   24.6792   45.0002 H   0  0  0  0  0  0  0  0  0  0  0  0
   54.8472   24.0892   45.0002 H   0  0  0  0  0  0  0  0  0  0  0  0
   56.5082   24.4796   46.9665 H   0  0  0  0  0  0  0  0  0  0  0  0
   58.8628   25.3008   47.1493 H   0  0  0  0  0  0  0  0  0  0  0  0
   61.3280   28.8990   47.9260 H   0  0  0  0  0  0  0  0  0  0  0  0
   58.4109   29.0622   47.9577 H   0  0  0  0  0  0  0  0  0  0  0  0
   59.3293   29.4311   49.4582 H   0  0  0  0  0  0  0  0  0  0  0  0
   61.8712   30.5081   48.2161 H   0  0  0  0  0  0  0  0  0  0  0  0
   57.6910   31.2247   47.2357 H   0  0  0  0  0  0  0  0  0  0  0  0
   57.4212   34.1578   46.7351 H   0  0  0  0  0  0  0  0  0  0  0  0
   56.6965   32.6269   45.1384 H   0  0  0  0  0  0  0  0  0  0  0  0
   57.1467   34.1116   44.2330 H   0  0  0  0  0  0  0  0  0  0  0  0
   58.2466   32.6914   44.2330 H   0  0  0  0  0  0  0  0  0  0  0  0
   59.2271   35.1624   44.6506 H   0  0  0  0  0  0  0  0  0  0  0  0
   58.9706   35.8994   46.2404 H   0  0  0  0  0  0  0  0  0  0  0  0
   61.4430   35.0210   46.0590 H   0  0  0  0  0  0  0  0  0  0  0  0
   57.6570   29.0416   45.3501 H   0  0  0  0  0  0  0  0  0  0  0  0
  1  2  1  0
  2  3  2  3
  3  4  1  0
  4  5  2  0
  5  6  1  0
  6  7  1  0
  7  8  2  0
  7  9  2  0
  7 10  1  0
 10 11  1  0
 11 12  1  0
 12 13  2  0
 13 14  1  0
 14 15  1  0
 14 16  2  0
 16 17  1  0
 17 18  2  0
 17 19  1  0
 19 20  1  0
 19 21  1  0
 21 22  1  0
  6 23  2  0
 23 24  1  0
 24  3  1  0
 18 12  1  0
 22 16  1  0
  1 25  1  0
  1 26  1  0
  1 27  1  0
  4 28  1  0
  5 29  1  0
 10 30  1  0
 11 31  1  0
 11 32  1  0
 13 33  1  0
 18 34  1  0
 19 35  1  1
 20 36  1  0
 20 37  1  0
 20 38  1  0
 21 39  1  0
 21 40  1  0
 22 41  1  0
 23 42  1  0
M  CHG  1  24  -1
M  END
>  <UniqueID>  (52) 
50

>  <SMILES>  (52) 
CN=c1ccc(S(=O)(=O)NCc2cc(Cl)c3c(c2)[C@H](C)CN3)c[n-]1

>  <Energy>  (52) 
54.24838781897809

>  <Genealogy>  (52) 
CN=c1ccc(S(=O)(=O)NCc2cc(Cl)c3c(c2)C(C)CN3)c[n-]1 (protonated)
CN=c1ccc(S(=O)(=O)NCc2cc(Cl)c3c(c2)[C@H](C)CN3)c[n-]1 (chirality)
CN=c1ccc(S(=O)(=O)NCc2cc(Cl)c3c(c2)[C@H](C)CN3)c[n-]1 (3D coordinates assigned)
CN=c1ccc(S(=O)(=O)NCc2cc(Cl)c3c(c2)[C@H](C)CN3)c[n-]1 (nonaromatic ring conformer: 54.24838781897809 kcal/mol)

>  <smiles>  (52) 
CN=c1ccc(S(=O)(=O)NCc2cc(Cl)c3c(c2)C(C)CN3)c[nH]1

>  <score_type>  (52) 
oracle

>  <origin>  (52) 
adg

>  <m_score__min__energy>  (52) 
-10.1

>  <m_primary>  (52) 
energy

$$$$
52:0
     RDKit          3D

 29 30  0  0  0  0  0  0  0  0999 V2000
   55.1330   29.3850   45.2160 O   0  0  0  0  0  0  0  0  0  0  0  0
   56.3240   29.6000   44.8680 C   0  0  0  0  0  0  0  0  0  0  0  0
   56.9310   30.8040   45.2000 O   0  0  0  0  0  0  0  0  0  0  0  0
   57.0710   28.5750   44.0740 C   0  0  0  0  0  0  0  0  0  0  0  0
   58.4270   28.3150   44.6920 C   0  0  0  0  0  0  0  0  0  0  0  0
   59.5280   29.0530   44.2210 C   0  0  0  0  0  0  0  0  0  0  0  0
   60.7840   28.9190   44.8160 C   0  0  0  0  0  0  0  0  0  0  0  0
   60.9560   28.0610   45.9010 C   0  0  0  0  0  0  0  0  0  0  0  0
   59.8750   27.3280   46.3900 C   0  0  0  0  0  0  0  0  0  0  0  0
   58.6080   27.4320   45.7920 C   0  0  0  0  0  0  0  0  0  0  0  0
   57.5060   26.6220   46.3560 C   0  0  0  0  0  0  0  0  0  0  0  0
   57.0170   26.9710   47.4650 O   0  0  0  0  0  0  0  0  0  0  0  0
   56.9970   25.3930   45.6900 C   0  0  0  0  0  0  0  0  0  0  0  0
   57.8680   24.3330   45.3450 C   0  0  0  0  0  0  0  0  0  0  0  0
   59.2240   24.3880   45.6480 O   0  0  0  0  0  0  0  0  0  0  0  0
   57.3710   23.1930   44.7030 C   0  0  0  0  0  0  0  0  0  0  0  0
   56.0120   23.0840   44.4100 C   0  0  0  0  0  0  0  0  0  0  0  0
   55.5260   21.9480   43.7750 O   0  0  0  0  0  0  0  0  0  0  0  0
   55.1400   24.1160   44.7580 C   0  0  0  0  0  0  0  0  0  0  0  0
   55.6210   25.2650   45.3920 C   0  0  0  0  0  0  0  0  0  0  0  0
   54.7240   26.2810   45.7080 O   0  0  0  0  0  0  0  0  0  0  0  0
   56.4945   27.6383   44.0577 H   0  0  0  0  0  0  0  0  0  0  0  0
   57.2117   28.9501   43.0495 H   0  0  0  0  0  0  0  0  0  0  0  0
   59.3980   29.7433   43.3745 H   0  0  0  0  0  0  0  0  0  0  0  0
   61.6393   29.4915   44.4278 H   0  0  0  0  0  0  0  0  0  0  0  0
   61.9452   27.9620   46.3719 H   0  0  0  0  0  0  0  0  0  0  0  0
   60.0159   26.6611   47.2534 H   0  0  0  0  0  0  0  0  0  0  0  0
   58.0566   22.3780   44.4278 H   0  0  0  0  0  0  0  0  0  0  0  0
   54.0673   24.0248   44.5320 H   0  0  0  0  0  0  0  0  0  0  0  0
  1  2  2  0
  2  3  1  0
  2  4  1  0
  4  5  1  0
  5  6  2  0
  6  7  1  0
  7  8  2  0
  8  9  1  0
  9 10  2  0
 10 11  1  0
 11 12  2  0
 11 13  1  0
 13 14  2  0
 14 15  1  0
 14 16  1  0
 16 17  2  0
 17 18  1  0
 17 19  1  0
 19 20  2  0
 20 21  1  0
 10  5  1  0
 20 13  1  0
  4 22  1  0
  4 23  1  0
  6 24  1  0
  7 25  1  0
  8 26  1  0
  9 27  1  0
 16 28  1  0
 19 29  1  0
M  CHG  4   3  -1  15  -1  18  -1  21  -1
M  END
>  <UniqueID>  (53) 
51

>  <SMILES>  (53) 
O=C([O-])Cc1ccccc1C(=O)c1c([O-])cc([O-])cc1[O-]

>  <Energy>  (53) 
41.15791274257187

>  <Genealogy>  (53) 
O=C([O-])Cc1ccccc1C(=O)c1c([O-])cc([O-])cc1[O-] (protonated)
O=C([O-])Cc1ccccc1C(=O)c1c([O-])cc([O-])cc1[O-] (3D coordinates assigned)
O=C([O-])Cc1ccccc1C(=O)c1c([O-])cc([O-])cc1[O-] (optimized conformer: 41.15791274257187 kcal/mol)

>  <smiles>  (53) 
O=C(O)Cc1ccccc1C(=O)c1c(O)cc(O)cc1O

>  <score_type>  (53) 
oracle

>  <origin>  (53) 
adg

>  <m_score__min__energy>  (53) 
-15.83

>  <m_primary>  (53) 
energy

$$$$
53:0
     RDKit          3D

 20 21  0  0  0  0  0  0  0  0999 V2000
   59.9809   28.2464   45.7089 H   0  0  0  0  0  0  0  0  0  0  0  0
   59.6300   29.2840   45.8100 C   0  0  0  0  0  0  0  0  0  0  0  0
   60.3256   30.0703   46.1385 H   0  0  0  0  0  0  0  0  0  0  0  0
   58.3600   29.5890   45.5340 C   0  0  0  0  0  0  0  0  0  0  0  0
   57.8920   30.8500   45.6460 N   0  0  0  0  0  0  0  0  0  0  0  0
   56.6590   30.8510   45.2270 O   0  0  0  0  0  0  0  0  0  0  0  0
   56.3000   29.6510   44.8480 C   0  0  0  0  0  0  0  0  0  0  0  0
   55.1570   29.3690   44.4010 O   0  0  0  0  0  0  0  0  0  0  0  0
   57.3450   28.7640   45.0320 C   0  0  0  0  0  0  0  0  0  0  0  0
   57.3000   27.4440   44.7650 C   0  0  0  0  0  0  0  0  0  0  0  0
   57.3362   27.1382   43.7090 H   0  0  0  0  0  0  0  0  0  0  0  0
   57.2060   26.3780   45.7790 C   0  0  0  0  0  0  0  0  0  0  0  0
   55.9710   26.0190   46.3430 C   0  0  0  0  0  0  0  0  0  0  0  0
   54.8070   26.6900   45.9880 O   0  0  0  0  0  0  0  0  0  0  0  0
   55.9080   25.0050   47.2440 N   0  0  0  0  0  0  0  0  0  0  0  0
   57.0210   24.3140   47.6010 C   0  0  0  0  0  0  0  0  0  0  0  0
   56.9140   23.1010   48.6870 S   0  0  0  0  0  0  0  0  0  0  0  0
   58.2210   24.6250   47.0480 N   0  0  0  0  0  0  0  0  0  0  0  0
   58.3380   25.6320   46.1430 C   0  0  0  0  0  0  0  0  0  0  0  0
   59.4650   25.8890   45.6440 O   0  0  0  0  0  0  0  0  0  0  0  0
  1  2  1  0
  2  3  1  0
  2  4  2  0
  4  5  1  0
  5  6  1  0
  6  7  1  0
  7  8  2  0
  7  9  1  0
  9 10  2  0
 10 11  1  0
 10 12  1  0
 12 13  2  0
 13 14  1  0
 13 15  1  0
 15 16  1  0
 16 17  2  0
 16 18  1  0
 18 19  1  0
 19 20  2  0
  9  4  1  0
 19 12  1  0
M  CHG  4   5  -1  14  -1  15  -1  18  -1
M  END
>  <UniqueID>  (54) 
52

>  <SMILES>  (54) 
C=c1[n-]oc(=O)/c1=C/c1c([O-])[n-]c(=S)[n-]c1=O

>  <Energy>  (54) 
68.4171538848774

>  <Genealogy>  (54) 
C=c1[n-]oc(=O)c1=Cc1c([O-])[n-]c(=S)[n-]c1=O (protonated)
C=c1[n-]oc(=O)/c1=C/c1c([O-])[n-]c(=S)[n-]c1=O (cis-trans isomerization)
C=c1[n-]oc(=O)/c1=C/c1c([O-])[n-]c(=S)[n-]c1=O (3D coordinates assigned)
C=c1[n-]oc(=O)/c1=C/c1c([O-])[n-]c(=S)[n-]c1=O (optimized conformer: 68.4171538848774 kcal/mol)

>  <smiles>  (54) 
C=c1[nH]oc(=O)c1=Cc1c(O)[nH]c(=S)[nH]c1=O

>  <score_type>  (54) 
oracle

>  <origin>  (54) 
adg

>  <m_score__min__energy>  (54) 
-14.699999999999999

>  <m_primary>  (54) 
energy

$$$$
54:0
     RDKit          3D

 53 56  0  0  0  0  0  0  0  0999 V2000
   54.7830   25.8930   45.6260 N   0  0  0  0  0  0  0  0  0  0  0  0
   54.6020   24.1770   45.7440 S   0  0  0  0  0  0  0  0  0  0  0  0
   54.3440   23.7950   47.1740 O   0  0  0  0  0  0  0  0  0  0  0  0
   53.4200   23.7700   44.9100 O   0  0  0  0  0  0  0  0  0  0  0  0
   56.0630   23.3610   45.1630 C   0  0  0  0  0  0  0  0  0  0  0  0
   55.9830   22.0030   44.8110 C   0  0  0  0  0  0  0  0  0  0  0  0
   57.0970   21.3330   44.3030 C   0  0  0  0  0  0  0  0  0  0  0  0
   58.3050   22.0090   44.1380 C   0  0  0  0  0  0  0  0  0  0  0  0
   58.4060   23.3560   44.4900 C   0  0  0  0  0  0  0  0  0  0  0  0
   57.2980   24.0410   45.0150 C   0  0  0  0  0  0  0  0  0  0  0  0
   57.4670   25.4570   45.3990 C   0  0  0  0  0  0  0  0  0  0  0  0
   57.7000   26.4290   44.4150 C   0  0  0  0  0  0  0  0  0  0  0  0
   57.8640   27.7690   44.7760 C   0  0  0  0  0  0  0  0  0  0  0  0
   57.7940   28.1580   46.1210 C   0  0  0  0  0  0  0  0  0  0  0  0
   57.9840   29.5410   46.4670 N   0  0  0  0  0  0  0  0  0  0  0  0
   59.2700   30.1910   46.4860 C   0  0  0  0  0  0  0  0  0  0  0  0
   60.3180   29.4880   46.4460 O   0  0  0  0  0  0  0  0  0  0  0  0
   59.3680   31.7180   46.5940 C   0  0  0  0  0  0  0  0  0  0  0  0
   58.8910   32.3080   45.2330 C   0  0  0  0  0  0  0  0  0  0  0  0
   57.8550   31.5080   44.5780 N   0  0  0  0  0  0  0  0  0  0  0  0
   57.9240   30.9310   43.3660 C   0  0  0  0  0  0  0  0  0  0  0  0
   56.7670   30.3190   43.0520 N   0  0  0  0  0  0  0  0  0  0  0  0
   56.0010   30.5700   44.1360 C   0  0  0  0  0  0  0  0  0  0  0  0
   56.6460   31.2990   45.0670 N   0  0  0  0  0  0  0  0  0  0  0  0
   60.8340   32.1600   46.9000 C   0  0  0  0  0  0  0  0  0  0  0  0
   61.1810   32.0330   48.4010 C   0  0  0  0  0  0  0  0  0  0  0  0
   60.3120   31.1350   49.0620 O   0  0  0  0  0  0  0  0  0  0  0  0
   59.0000   31.6710   49.1280 C   0  0  0  0  0  0  0  0  0  0  0  0
   58.4860   32.2100   47.7700 C   0  0  0  0  0  0  0  0  0  0  0  0
   57.6020   27.1760   47.1090 C   0  0  0  0  0  0  0  0  0  0  0  0
   57.4390   25.8350   46.7490 C   0  0  0  0  0  0  0  0  0  0  0  0
   53.8540   26.3140   45.8530 H   0  0  0  0  0  0  0  0  0  0  0  0
   55.0332   21.4627   44.9370 H   0  0  0  0  0  0  0  0  0  0  0  0
   57.0217   20.2695   44.0323 H   0  0  0  0  0  0  0  0  0  0  0  0
   59.1793   21.4805   43.7301 H   0  0  0  0  0  0  0  0  0  0  0  0
   59.3609   23.8851   44.3551 H   0  0  0  0  0  0  0  0  0  0  0  0
   57.7538   26.1357   43.3562 H   0  0  0  0  0  0  0  0  0  0  0  0
   58.0495   28.5247   43.9985 H   0  0  0  0  0  0  0  0  0  0  0  0
   57.1480   30.0730   46.7930 H   0  0  0  0  0  0  0  0  0  0  0  0
   58.4899   33.3164   45.4127 H   0  0  0  0  0  0  0  0  0  0  0  0
   59.7630   32.3177   44.5625 H   0  0  0  0  0  0  0  0  0  0  0  0
   58.8106   30.9557   42.7154 H   0  0  0  0  0  0  0  0  0  0  0  0
   54.9647   30.2179   44.2462 H   0  0  0  0  0  0  0  0  0  0  0  0
   61.5230   31.5263   46.3223 H   0  0  0  0  0  0  0  0  0  0  0  0
   60.9331   33.2189   46.6189 H   0  0  0  0  0  0  0  0  0  0  0  0
   62.2139   31.6675   48.4989 H   0  0  0  0  0  0  0  0  0  0  0  0
   61.0693   33.0241   48.8649 H   0  0  0  0  0  0  0  0  0  0  0  0
   58.3169   30.8795   49.4699 H   0  0  0  0  0  0  0  0  0  0  0  0
   59.0320   32.5223   49.8238 H   0  0  0  0  0  0  0  0  0  0  0  0
   57.4546   31.8608   47.6139 H   0  0  0  0  0  0  0  0  0  0  0  0
   58.5271   33.3089   47.7965 H   0  0  0  0  0  0  0  0  0  0  0  0
   57.5800   27.4644   48.1703 H   0  0  0  0  0  0  0  0  0  0  0  0
   57.2881   25.0732   47.5280 H   0  0  0  0  0  0  0  0  0  0  0  0
  1  2  1  0
  2  3  2  0
  2  4  2  0
  2  5  1  0
  5  6  2  0
  6  7  1  0
  7  8  2  0
  8  9  1  0
  9 10  2  0
 10 11  1  0
 11 12  2  0
 12 13  1  0
 13 14  2  0
 14 15  1  0
 15 16  1  0
 16 17  2  0
 16 18  1  0
 18 19  1  0
 19 20  1  0
 20 21  1  0
 21 22  2  0
 22 23  1  0
 23 24  2  0
 18 25  1  0
 25 26  1  0
 26 27  1  0
 27 28  1  0
 28 29  1  0
 14 30  1  0
 30 31  2  0
 10  5  1  0
 31 11  1  0
 29 18  1  0
 24 20  1  0
  1 32  1  0
  6 33  1  0
  7 34  1  0
  8 35  1  0
  9 36  1  0
 12 37  1  0
 13 38  1  0
 15 39  1  0
 19 40  1  0
 19 41  1  0
 21 42  1  0
 23 43  1  0
 25 44  1  0
 25 45  1  0
 26 46  1  0
 26 47  1  0
 28 48  1  0
 28 49  1  0
 29 50  1  0
 29 51  1  0
 30 52  1  0
 31 53  1  0
M  CHG  1   1  -1
M  END
>  <UniqueID>  (55) 
53

>  <SMILES>  (55) 
[NH-]S(=O)(=O)c1ccccc1-c1ccc(NC(=O)C2(Cn3cncn3)CCOCC2)cc1

>  <Energy>  (55) 
111.78798417862276

>  <Genealogy>  (55) 
[NH-]S(=O)(=O)c1ccccc1-c1ccc(NC(=O)C2(Cn3cncn3)CCOCC2)cc1 (protonated)
[NH-]S(=O)(=O)c1ccccc1-c1ccc(NC(=O)C2(Cn3cncn3)CCOCC2)cc1 (3D coordinates assigned)
[NH-]S(=O)(=O)c1ccccc1-c1ccc(NC(=O)C2(Cn3cncn3)CCOCC2)cc1 (nonaromatic ring conformer: 111.78798417862276 kcal/mol)

>  <smiles>  (55) 
NS(=O)(=O)c1ccccc1-c1ccc(NC(=O)C2(Cn3cncn3)CCOCC2)cc1

>  <score_type>  (55) 
oracle

>  <origin>  (55) 
adg

>  <m_score__min__energy>  (55) 
-11.5

>  <m_primary>  (55) 
energy

$$$$
55:0
     RDKit          3D

 50 53  0  0  0  0  0  0  0  0999 V2000
   59.6630   30.6900   48.8100 O   0  0  0  0  0  0  0  0  0  0  0  0
   60.4540   30.8300   47.8140 C   0  0  0  0  0  0  0  0  0  0  0  0
   60.2880   29.9460   46.7480 N   0  0  0  0  0  0  0  0  0  0  0  0
   59.3390   28.9020   46.6180 C   0  0  0  0  0  0  0  0  0  0  0  0
   58.2660   29.0720   45.7560 C   0  0  0  0  0  0  0  0  0  0  0  0
   57.2910   28.1150   45.5690 C   0  0  0  0  0  0  0  0  0  0  0  0
   57.3410   26.9100   46.2490 C   0  0  0  0  0  0  0  0  0  0  0  0
   56.1240   25.6830   46.0180 S   0  0  0  0  0  0  0  0  0  0  0  0
   56.2630   24.6140   47.0420 O   0  0  0  0  0  0  0  0  0  0  0  0
   54.7670   26.3280   46.0030 O   0  0  0  0  0  0  0  0  0  0  0  0
   56.3010   24.9450   44.4430 N   0  0  0  0  0  0  0  0  0  0  0  0
   56.8760   23.8020   44.3210 C   0  0  0  0  0  0  0  0  0  0  0  0
   56.5040   22.9540   43.3290 N   0  0  0  0  0  0  0  0  0  0  0  0
   57.1070   21.7450   43.2010 C   0  0  0  0  0  0  0  0  0  0  0  0
   58.0930   21.4440   44.1150 C   0  0  0  0  0  0  0  0  0  0  0  0
   58.4730   22.3140   45.1290 C   0  0  0  0  0  0  0  0  0  0  0  0
   57.8380   23.5060   45.2100 N   0  0  0  0  0  0  0  0  0  0  0  0
   58.3990   26.7320   47.1060 C   0  0  0  0  0  0  0  0  0  0  0  0
   59.3840   27.7060   47.2930 C   0  0  0  0  0  0  0  0  0  0  0  0
   61.4230   31.8990   47.9360 C   0  0  0  0  0  0  0  0  0  0  0  0
   62.7890   31.5870   47.8220 C   0  0  0  0  0  0  0  0  0  0  0  0
   63.7660   32.5470   47.9150 C   0  0  0  0  0  0  0  0  0  0  0  0
   63.4670   33.8690   48.1260 C   0  0  0  0  0  0  0  0  0  0  0  0
   62.1180   34.2100   48.2460 C   0  0  0  0  0  0  0  0  0  0  0  0
   61.1430   33.2210   48.1480 C   0  0  0  0  0  0  0  0  0  0  0  0
   59.8380   33.6390   48.2780 O   0  0  0  0  0  0  0  0  0  0  0  0
   59.0530   33.7490   47.1490 C   0  0  0  0  0  0  0  0  0  0  0  0
   57.8200   33.1640   47.0200 C   0  0  0  0  0  0  0  0  0  0  0  0
   57.0230   33.2570   45.9130 C   0  0  0  0  0  0  0  0  0  0  0  0
   57.5260   34.0080   44.8460 C   0  0  0  0  0  0  0  0  0  0  0  0
   58.7760   34.6190   44.9380 C   0  0  0  0  0  0  0  0  0  0  0  0
   59.5530   34.4960   46.0880 C   0  0  0  0  0  0  0  0  0  0  0  0
   60.9400   30.0560   45.9260 H   0  0  0  0  0  0  0  0  0  0  0  0
   58.1890   30.0150   45.1948 H   0  0  0  0  0  0  0  0  0  0  0  0
   56.4636   28.3113   44.8712 H   0  0  0  0  0  0  0  0  0  0  0  0
   56.8224   21.0397   42.4063 H   0  0  0  0  0  0  0  0  0  0  0  0
   58.6018   20.4718   44.0384 H   0  0  0  0  0  0  0  0  0  0  0  0
   59.2645   22.0426   45.8430 H   0  0  0  0  0  0  0  0  0  0  0  0
   58.1240   24.1660   45.9790 H   0  0  0  0  0  0  0  0  0  0  0  0
   58.4742   25.7882   47.6660 H   0  0  0  0  0  0  0  0  0  0  0  0
   60.2099   27.5116   47.9930 H   0  0  0  0  0  0  0  0  0  0  0  0
   63.0843   30.5409   47.6530 H   0  0  0  0  0  0  0  0  0  0  0  0
   64.8198   32.2472   47.8174 H   0  0  0  0  0  0  0  0  0  0  0  0
   64.2580   34.6300   48.1978 H   0  0  0  0  0  0  0  0  0  0  0  0
   61.8267   35.2568   48.4174 H   0  0  0  0  0  0  0  0  0  0  0  0
   57.4439   32.5761   47.8703 H   0  0  0  0  0  0  0  0  0  0  0  0
   56.0391   32.7675   45.8643 H   0  0  0  0  0  0  0  0  0  0  0  0
   56.9311   34.1176   43.9272 H   0  0  0  0  0  0  0  0  0  0  0  0
   59.1547   35.2074   44.0893 H   0  0  0  0  0  0  0  0  0  0  0  0
   60.5392   34.9787   46.1551 H   0  0  0  0  0  0  0  0  0  0  0  0
  1  2  2  0
  2  3  1  0
  3  4  1  0
  4  5  2  0
  5  6  1  0
  6  7  2  0
  7  8  1  0
  8  9  2  0
  8 10  2  0
  8 11  1  0
 11 12  2  3
 12 13  1  0
 13 14  2  0
 14 15  1  0
 15 16  2  0
 16 17  1  0
  7 18  1  0
 18 19  2  0
  2 20  1  0
 20 21  2  0
 21 22  1  0
 22 23  2  0
 23 24  1  0
 24 25  2  0
 25 26  1  0
 26 27  1  0
 27 28  2  0
 28 29  1  0
 29 30  2  0
 30 31  1  0
 31 32  2  0
 19  4  1  0
 25 20  1  0
 32 27  1  0
 17 12  1  0
  3 33  1  0
  5 34  1  0
  6 35  1  0
 14 36  1  0
 15 37  1  0
 16 38  1  0
 17 39  1  0
 18 40  1  0
 19 41  1  0
 21 42  1  0
 22 43  1  0
 23 44  1  0
 24 45  1  0
 28 46  1  0
 29 47  1  0
 30 48  1  0
 31 49  1  0
 32 50  1  0
M  END
>  <smiles>  (56) 
O=C(Nc1ccc(S(=O)(=O)N=c2nccc[nH]2)cc1)c1ccccc1Oc1ccccc1

>  <score_type>  (56) 
oracle

>  <origin>  (56) 
adg

>  <m_score__min__energy>  (56) 
-9.6400000000000006

>  <m_primary>  (56) 
energy

$$$$
56:0
     RDKit          3D

 48 50  0  0  0  0  0  0  0  0999 V2000
   55.7300   28.6220   44.8730 O   0  0  0  0  0  0  0  0  0  0  0  0
   56.6540   29.4290   45.1730 C   0  0  0  0  0  0  0  0  0  0  0  0
   56.5390   30.8070   44.8050 N   0  0  0  0  0  0  0  0  0  0  0  0
   57.6020   31.5510   44.1430 C   0  0  0  0  0  0  0  0  0  0  0  0
   58.1130   32.6360   45.0530 C   0  0  0  0  0  0  0  0  0  0  0  0
   57.9940   32.4960   46.4460 C   0  0  0  0  0  0  0  0  0  0  0  0
   58.5100   33.4780   47.2990 C   0  0  0  0  0  0  0  0  0  0  0  0
   59.1470   34.6020   46.7690 C   0  0  0  0  0  0  0  0  0  0  0  0
   59.2740   34.7460   45.3840 C   0  0  0  0  0  0  0  0  0  0  0  0
   58.7630   33.7650   44.5270 C   0  0  0  0  0  0  0  0  0  0  0  0
   57.8830   28.9250   45.8290 C   0  0  0  0  0  0  0  0  0  0  0  0
   58.2070   29.4250   47.0990 C   0  0  0  0  0  0  0  0  0  0  0  0
   59.3050   28.9300   47.8180 C   0  0  0  0  0  0  0  0  0  0  0  0
   59.5380   29.3910   49.2080 C   0  0  0  0  0  0  0  0  0  0  0  0
   58.5650   29.7220   49.9390 O   0  0  0  0  0  0  0  0  0  0  0  0
   60.8730   29.5170   49.7150 N   0  0  0  0  0  0  0  0  0  0  0  0
   61.3010   30.7220   50.4180 C   0  0  0  0  0  0  0  0  0  0  0  0
   61.6810   31.7780   49.4160 C   0  0  0  0  0  0  0  0  0  0  0  0
   61.6830   33.1340   49.7880 C   0  0  0  0  0  0  0  0  0  0  0  0
   62.1130   34.1130   48.8860 C   0  0  0  0  0  0  0  0  0  0  0  0
   62.5530   33.7450   47.6110 C   0  0  0  0  0  0  0  0  0  0  0  0
   62.5620   32.3970   47.2370 C   0  0  0  0  0  0  0  0  0  0  0  0
   62.1340   31.4160   48.1370 C   0  0  0  0  0  0  0  0  0  0  0  0
   60.0910   27.9270   47.2200 C   0  0  0  0  0  0  0  0  0  0  0  0
   61.0890   27.4440   47.8190 O   0  0  0  0  0  0  0  0  0  0  0  0
   59.7870   27.4760   45.9750 N   0  0  0  0  0  0  0  0  0  0  0  0
   58.7230   27.9350   45.2610 C   0  0  0  0  0  0  0  0  0  0  0  0
   58.5070   27.3700   43.8840 C   0  0  0  0  0  0  0  0  0  0  0  0
   57.5110   26.3840   43.9210 O   0  0  0  0  0  0  0  0  0  0  0  0
   58.4259   30.8660   43.8940 H   0  0  0  0  0  0  0  0  0  0  0  0
   57.2060   32.0068   43.2236 H   0  0  0  0  0  0  0  0  0  0  0  0
   57.4936   31.6116   46.8674 H   0  0  0  0  0  0  0  0  0  0  0  0
   58.4137   33.3643   48.3889 H   0  0  0  0  0  0  0  0  0  0  0  0
   59.5490   35.3743   47.4413 H   0  0  0  0  0  0  0  0  0  0  0  0
   59.7763   35.6316   44.9676 H   0  0  0  0  0  0  0  0  0  0  0  0
   58.8705   33.8781   43.4381 H   0  0  0  0  0  0  0  0  0  0  0  0
   57.5881   30.2206   47.5395 H   0  0  0  0  0  0  0  0  0  0  0  0
   61.6100   28.8620   49.3700 H   0  0  0  0  0  0  0  0  0  0  0  0
   60.4775   31.0920   51.0465 H   0  0  0  0  0  0  0  0  0  0  0  0
   62.1691   30.4883   51.0519 H   0  0  0  0  0  0  0  0  0  0  0  0
   61.3448   33.4264   50.7931 H   0  0  0  0  0  0  0  0  0  0  0  0
   62.1049   35.1729   49.1801 H   0  0  0  0  0  0  0  0  0  0  0  0
   62.8919   34.5150   46.9023 H   0  0  0  0  0  0  0  0  0  0  0  0
   62.9064   32.1082   46.2330 H   0  0  0  0  0  0  0  0  0  0  0  0
   62.1522   30.3565   47.8419 H   0  0  0  0  0  0  0  0  0  0  0  0
   58.1959   28.1767   43.2040 H   0  0  0  0  0  0  0  0  0  0  0  0
   59.4457   26.9217   43.5263 H   0  0  0  0  0  0  0  0  0  0  0  0
   56.6470   26.8670   43.9790 H   0  0  0  0  0  0  0  0  0  0  0  0
  1  2  2  0
  2  3  1  0
  3  4  1  0
  4  5  1  0
  5  6  2  0
  6  7  1  0
  7  8  2  0
  8  9  1  0
  9 10  2  0
  2 11  1  0
 11 12  1  0
 12 13  2  0
 13 14  1  0
 14 15  2  0
 14 16  1  0
 16 17  1  0
 17 18  1  0
 18 19  2  0
 19 20  1  0
 20 21  2  0
 21 22  1  0
 22 23  2  0
 13 24  1  0
 24 25  2  0
 24 26  1  0
 26 27  1  0
 27 28  1  0
 28 29  1  0
 10  5  1  0
 27 11  2  0
 23 18  1  0
  4 30  1  0
  4 31  1  0
  6 32  1  0
  7 33  1  0
  8 34  1  0
  9 35  1  0
 10 36  1  0
 12 37  1  0
 16 38  1  0
 17 39  1  0
 17 40  1  0
 19 41  1  0
 20 42  1  0
 21 43  1  0
 22 44  1  0
 23 45  1  0
 28 46  1  0
 28 47  1  0
 29 48  1  0
M  CHG  2   3  -1  26  -1
M  END
>  <UniqueID>  (57) 
54

>  <SMILES>  (57) 
O=C([N-]Cc1ccccc1)c1cc(C(=O)NCc2ccccc2)c(=O)[n-]c1CO

>  <Energy>  (57) 
54.30060612823711

>  <Genealogy>  (57) 
O=C([N-]Cc1ccccc1)c1cc(C(=O)NCc2ccccc2)c(=O)[n-]c1CO (protonated)
O=C([N-]Cc1ccccc1)c1cc(C(=O)NCc2ccccc2)c(=O)[n-]c1CO (3D coordinates assigned)
O=C([N-]Cc1ccccc1)c1cc(C(=O)NCc2ccccc2)c(=O)[n-]c1CO (optimized conformer: 54.30060612823711 kcal/mol)

>  <smiles>  (57) 
O=C(NCc1ccccc1)c1cc(C(=O)NCc2ccccc2)c(=O)[nH]c1CO

>  <score_type>  (57) 
oracle

>  <origin>  (57) 
adg

>  <m_score__min__energy>  (57) 
-12.529999999999999

>  <m_primary>  (57) 
energy

$$$$
57:0
     RDKit          3D

 53 56  0  0  0  0  0  0  0  0999 V2000
   60.3830   27.9190   46.1170 C   0  0  0  0  0  0  0  0  0  0  0  0
   58.9330   27.5430   46.0370 C   0  0  0  0  0  0  0  0  0  0  0  0
   58.4620   26.3970   46.6930 C   0  0  0  0  0  0  0  0  0  0  0  0
   57.1030   26.0760   46.6600 C   0  0  0  0  0  0  0  0  0  0  0  0
   56.2010   26.8960   45.9750 C   0  0  0  0  0  0  0  0  0  0  0  0
   54.8450   26.5880   46.0120 O   0  0  0  0  0  0  0  0  0  0  0  0
   56.6660   28.0390   45.2940 C   0  0  0  0  0  0  0  0  0  0  0  0
   55.7790   28.9190   44.5910 N   0  0  0  0  0  0  0  0  0  0  0  0
   56.0870   30.2570   44.1880 C   0  0  0  0  0  0  0  0  0  0  0  0
   55.3160   31.2060   44.4950 O   0  0  0  0  0  0  0  0  0  0  0  0
   57.3240   30.5000   43.4200 C   0  0  0  0  0  0  0  0  0  0  0  0
   58.0620   31.6210   43.4570 C   0  0  0  0  0  0  0  0  0  0  0  0
   58.3410   32.4220   44.6680 C   0  0  0  0  0  0  0  0  0  0  0  0
   58.5050   33.8150   44.5980 C   0  0  0  0  0  0  0  0  0  0  0  0
   58.8040   34.5450   45.7480 C   0  0  0  0  0  0  0  0  0  0  0  0
   58.9770   33.8950   46.9730 C   0  0  0  0  0  0  0  0  0  0  0  0
   59.2370   34.6400   48.0740 F   0  0  0  0  0  0  0  0  0  0  0  0
   58.8800   32.4910   47.0500 C   0  0  0  0  0  0  0  0  0  0  0  0
   59.0660   31.7590   48.3620 C   0  0  0  0  0  0  0  0  0  0  0  0
   60.0360   32.4440   49.2410 N   0  0  0  0  0  0  0  0  0  0  0  0
   59.6190   32.8920   50.5510 C   0  0  0  0  0  0  0  0  0  0  0  0
   58.5000   32.5560   51.0270 O   0  0  0  0  0  0  0  0  0  0  0  0
   60.4970   33.8160   51.3350 C   0  0  0  0  0  0  0  0  0  0  0  0
   61.9540   33.3800   51.2130 C   0  0  0  0  0  0  0  0  0  0  0  0
   62.3490   33.1780   49.7740 C   0  0  0  0  0  0  0  0  0  0  0  0
   63.6830   33.3970   49.3910 C   0  0  0  0  0  0  0  0  0  0  0  0
   64.0930   33.1430   48.0830 C   0  0  0  0  0  0  0  0  0  0  0  0
   63.1830   32.6480   47.1520 C   0  0  0  0  0  0  0  0  0  0  0  0
   61.8580   32.4070   47.5210 C   0  0  0  0  0  0  0  0  0  0  0  0
   61.4140   32.6730   48.8350 C   0  0  0  0  0  0  0  0  0  0  0  0
   58.5460   31.7680   45.8900 C   0  0  0  0  0  0  0  0  0  0  0  0
   58.0250   28.3720   45.3610 C   0  0  0  0  0  0  0  0  0  0  0  0
   60.6839   27.9970   47.1722 H   0  0  0  0  0  0  0  0  0  0  0  0
   60.9896   27.1485   45.6187 H   0  0  0  0  0  0  0  0  0  0  0  0
   60.5388   28.8872   45.6187 H   0  0  0  0  0  0  0  0  0  0  0  0
   59.1653   25.7482   47.2357 H   0  0  0  0  0  0  0  0  0  0  0  0
   56.7407   25.1741   47.1752 H   0  0  0  0  0  0  0  0  0  0  0  0
   57.6716   29.6919   42.7596 H   0  0  0  0  0  0  0  0  0  0  0  0
   58.4945   31.9723   42.5086 H   0  0  0  0  0  0  0  0  0  0  0  0
   58.3973   34.3319   43.6330 H   0  0  0  0  0  0  0  0  0  0  0  0
   58.9043   35.6389   45.6905 H   0  0  0  0  0  0  0  0  0  0  0  0
   58.0964   31.7021   48.8783 H   0  0  0  0  0  0  0  0  0  0  0  0
   59.4561   30.7547   48.1403 H   0  0  0  0  0  0  0  0  0  0  0  0
   60.3891   34.8390   50.9455 H   0  0  0  0  0  0  0  0  0  0  0  0
   60.1986   33.7864   52.3933 H   0  0  0  0  0  0  0  0  0  0  0  0
   62.5975   34.1547   51.6553 H   0  0  0  0  0  0  0  0  0  0  0  0
   62.0743   32.4233   51.7423 H   0  0  0  0  0  0  0  0  0  0  0  0
   64.4086   33.7713   50.1281 H   0  0  0  0  0  0  0  0  0  0  0  0
   65.1350   33.3335   47.7863 H   0  0  0  0  0  0  0  0  0  0  0  0
   63.5096   32.4460   46.1212 H   0  0  0  0  0  0  0  0  0  0  0  0
   61.1518   32.0052   46.7795 H   0  0  0  0  0  0  0  0  0  0  0  0
   58.4444   30.6740   45.9433 H   0  0  0  0  0  0  0  0  0  0  0  0
   58.3841   29.2931   44.8786 H   0  0  0  0  0  0  0  0  0  0  0  0
  1  2  1  0
  2  3  2  0
  3  4  1  0
  4  5  2  0
  5  6  1  0
  5  7  1  0
  7  8  1  0
  8  9  1  0
  9 10  2  0
  9 11  1  0
 11 12  2  3
 12 13  1  0
 13 14  2  0
 14 15  1  0
 15 16  2  0
 16 17  1  0
 16 18  1  0
 18 19  1  0
 19 20  1  0
 20 21  1  0
 21 22  2  0
 21 23  1  0
 23 24  1  0
 24 25  1  0
 25 26  2  0
 26 27  1  0
 27 28  2  0
 28 29  1  0
 29 30  2  0
 18 31  2  0
  7 32  2  0
 32  2  1  0
 31 13  1  0
 30 20  1  0
 30 25  1  0
  1 33  1  0
  1 34  1  0
  1 35  1  0
  3 36  1  0
  4 37  1  0
 11 38  1  0
 12 39  1  0
 14 40  1  0
 15 41  1  0
 19 42  1  0
 19 43  1  0
 23 44  1  0
 23 45  1  0
 24 46  1  0
 24 47  1  0
 26 48  1  0
 27 49  1  0
 28 50  1  0
 29 51  1  0
 31 52  1  0
 32 53  1  0
M  CHG  2   6  -1   8  -1
M  END
>  <UniqueID>  (58) 
55

>  <SMILES>  (58) 
Cc1ccc([O-])c([N-]C(=O)C=Cc2ccc(F)c(CN3C(=O)CCc4ccccc43)c2)c1

>  <Energy>  (58) 
73.94322074841132

>  <Genealogy>  (58) 
Cc1ccc([O-])c([N-]C(=O)C=Cc2ccc(F)c(CN3C(=O)CCc4ccccc43)c2)c1 (protonated)
Cc1ccc([O-])c([N-]C(=O)C=Cc2ccc(F)c(CN3C(=O)CCc4ccccc43)c2)c1 (3D coordinates assigned)
Cc1ccc([O-])c([N-]C(=O)C=Cc2ccc(F)c(CN3C(=O)CCc4ccccc43)c2)c1 (nonaromatic ring conformer: 73.94322074841132 kcal/mol)

>  <smiles>  (58) 
Cc1ccc(O)c(NC(=O)C=Cc2ccc(F)c(CN3C(=O)CCc4ccccc43)c2)c1

>  <score_type>  (58) 
oracle

>  <origin>  (58) 
adg

>  <m_score__min__energy>  (58) 
-16.699999999999999

>  <m_primary>  (58) 
energy

$$$$
58:0
     RDKit          3D

 50 53  0  0  0  0  0  0  0  0999 V2000
   64.0970   32.0010   46.7390 N   0  0  0  0  0  0  0  0  0  0  0  0
   62.9140   33.1130   47.3400 S   0  0  0  0  0  0  0  0  0  0  0  0
   63.5200   34.4880   47.3260 O   0  0  0  0  0  0  0  0  0  0  0  0
   61.7110   33.1130   46.4400 O   0  0  0  0  0  0  0  0  0  0  0  0
   62.4250   32.6880   48.9940 C   0  0  0  0  0  0  0  0  0  0  0  0
   63.0250   33.3610   50.0710 C   0  0  0  0  0  0  0  0  0  0  0  0
   62.6990   33.0300   51.3880 C   0  0  0  0  0  0  0  0  0  0  0  0
   61.7740   32.0220   51.6480 C   0  0  0  0  0  0  0  0  0  0  0  0
   61.1620   31.3450   50.5900 C   0  0  0  0  0  0  0  0  0  0  0  0
   61.4700   31.6750   49.2600 C   0  0  0  0  0  0  0  0  0  0  0  0
   60.7840   30.9390   48.1820 C   0  0  0  0  0  0  0  0  0  0  0  0
   59.4000   30.7260   48.2490 C   0  0  0  0  0  0  0  0  0  0  0  0
   58.7510   30.0050   47.2440 C   0  0  0  0  0  0  0  0  0  0  0  0
   59.4750   29.5030   46.1510 C   0  0  0  0  0  0  0  0  0  0  0  0
   58.7930   28.6760   45.0960 C   0  0  0  0  0  0  0  0  0  0  0  0
   57.4370   29.1750   44.8620 N   0  0  0  0  0  0  0  0  0  0  0  0
   57.0500   30.3680   44.3680 C   0  0  0  0  0  0  0  0  0  0  0  0
   58.1630   31.6550   43.7940 S   0  0  0  0  0  0  0  0  0  0  0  0
   57.2580   33.0150   44.6080 C   0  0  0  0  0  0  0  0  0  0  0  0
   58.1250   33.7030   45.6260 C   0  0  0  0  0  0  0  0  0  0  0  0
   58.9930   34.7350   45.2320 C   0  0  0  0  0  0  0  0  0  0  0  0
   59.8190   35.3570   46.1720 C   0  0  0  0  0  0  0  0  0  0  0  0
   59.7890   34.9510   47.5090 C   0  0  0  0  0  0  0  0  0  0  0  0
   58.9330   33.9220   47.9090 C   0  0  0  0  0  0  0  0  0  0  0  0
   58.9080   33.5250   49.2050 F   0  0  0  0  0  0  0  0  0  0  0  0
   58.1030   33.2980   46.9720 C   0  0  0  0  0  0  0  0  0  0  0  0
   55.7080   30.4950   44.3730 N   0  0  0  0  0  0  0  0  0  0  0  0
   55.2120   29.3730   44.8790 N   0  0  0  0  0  0  0  0  0  0  0  0
   56.2670   28.5920   45.1740 C   0  0  0  0  0  0  0  0  0  0  0  0
   56.1610   27.4480   45.6890 O   0  0  0  0  0  0  0  0  0  0  0  0
   60.8560   29.7440   46.0720 C   0  0  0  0  0  0  0  0  0  0  0  0
   61.5050   30.4640   47.0780 C   0  0  0  0  0  0  0  0  0  0  0  0
   64.8700   32.5620   46.3180 H   0  0  0  0  0  0  0  0  0  0  0  0
   64.4940   31.4860   47.5570 H   0  0  0  0  0  0  0  0  0  0  0  0
   63.7589   34.1566   49.8752 H   0  0  0  0  0  0  0  0  0  0  0  0
   63.1742   33.5669   52.2222 H   0  0  0  0  0  0  0  0  0  0  0  0
   61.5251   31.7587   52.6866 H   0  0  0  0  0  0  0  0  0  0  0  0
   60.4337   30.5478   50.8002 H   0  0  0  0  0  0  0  0  0  0  0  0
   58.8236   31.1278   49.0953 H   0  0  0  0  0  0  0  0  0  0  0  0
   57.6670   29.8296   47.3093 H   0  0  0  0  0  0  0  0  0  0  0  0
   59.3683   28.7342   44.1602 H   0  0  0  0  0  0  0  0  0  0  0  0
   58.7376   27.6320   45.4380 H   0  0  0  0  0  0  0  0  0  0  0  0
   56.9463   33.7460   43.8475 H   0  0  0  0  0  0  0  0  0  0  0  0
   56.3798   32.5954   45.1205 H   0  0  0  0  0  0  0  0  0  0  0  0
   59.0225   35.0546   44.1799 H   0  0  0  0  0  0  0  0  0  0  0  0
   60.4938   36.1674   45.8592 H   0  0  0  0  0  0  0  0  0  0  0  0
   60.4401   35.4422   48.2471 H   0  0  0  0  0  0  0  0  0  0  0  0
   57.4306   32.4874   47.2895 H   0  0  0  0  0  0  0  0  0  0  0  0
   61.4297   29.3640   45.2138 H   0  0  0  0  0  0  0  0  0  0  0  0
   62.5851   30.6587   47.0034 H   0  0  0  0  0  0  0  0  0  0  0  0
  1  2  1  0
  2  3  2  0
  2  4  2  0
  2  5  1  0
  5  6  2  0
  6  7  1  0
  7  8  2  0
  8  9  1  0
  9 10  2  0
 10 11  1  0
 11 12  2  0
 12 13  1  0
 13 14  2  0
 14 15  1  0
 15 16  1  0
 16 17  1  0
 17 18  1  0
 18 19  1  0
 19 20  1  0
 20 21  2  0
 21 22  1  0
 22 23  2  0
 23 24  1  0
 24 25  1  0
 24 26  2  0
 17 27  2  0
 27 28  1  0
 28 29  1  0
 29 30  2  0
 14 31  1  0
 31 32  2  0
 10  5  1  0
 32 11  1  0
 29 16  1  0
 26 20  1  0
  1 33  1  0
  1 34  1  0
  6 35  1  0
  7 36  1  0
  8 37  1  0
  9 38  1  0
 12 39  1  0
 13 40  1  0
 15 41  1  0
 15 42  1  0
 19 43  1  0
 19 44  1  0
 21 45  1  0
 22 46  1  0
 23 47  1  0
 26 48  1  0
 31 49  1  0
 32 50  1  0
M  CHG  1  28  -1
M  END
>  <UniqueID>  (59) 
56

>  <SMILES>  (59) 
NS(=O)(=O)c1ccccc1-c1ccc(Cn2c(SCc3cccc(F)c3)n[n-]c2=O)cc1

>  <Energy>  (59) 
91.4320358681743

>  <Genealogy>  (59) 
NS(=O)(=O)c1ccccc1-c1ccc(Cn2c(SCc3cccc(F)c3)n[n-]c2=O)cc1 (protonated)
NS(=O)(=O)c1ccccc1-c1ccc(Cn2c(SCc3cccc(F)c3)n[n-]c2=O)cc1 (3D coordinates assigned)
NS(=O)(=O)c1ccccc1-c1ccc(Cn2c(SCc3cccc(F)c3)n[n-]c2=O)cc1 (optimized conformer: 91.4320358681743 kcal/mol)

>  <smiles>  (59) 
NS(=O)(=O)c1ccccc1-c1ccc(Cn2c(SCc3cccc(F)c3)n[nH]c2=O)cc1

>  <score_type>  (59) 
oracle

>  <origin>  (59) 
adg

>  <m_score__min__energy>  (59) 
-11.76

>  <m_primary>  (59) 
energy

$$$$
59:0
     RDKit          3D

 40 42  0  0  0  0  0  0  0  0999 V2000
   56.5190   30.2690   44.8220 O   0  0  0  0  0  0  0  0  0  0  0  0
   58.0170   30.3780   44.8490 S   0  0  0  0  0  0  0  0  0  0  0  0
   58.5060   30.7620   43.4810 O   0  0  0  0  0  0  0  0  0  0  0  0
   58.6900   28.8390   45.2790 N   0  0  0  0  0  0  0  0  0  0  0  0
   57.9520   27.7420   45.8360 C   0  0  0  0  0  0  0  0  0  0  0  0
   58.6350   26.8060   46.6180 C   0  0  0  0  0  0  0  0  0  0  0  0
   57.9620   25.7100   47.1640 C   0  0  0  0  0  0  0  0  0  0  0  0
   56.5850   25.5390   46.9390 C   0  0  0  0  0  0  0  0  0  0  0  0
   55.8600   24.4230   47.4750 N   0  0  0  0  0  0  0  0  0  0  0  0
   56.1580   22.7590   47.0900 S   0  0  0  0  0  0  0  0  0  0  0  0
   54.9870   21.9310   47.5330 O   0  0  0  0  0  0  0  0  0  0  0  0
   57.3860   22.2910   47.8210 O   0  0  0  0  0  0  0  0  0  0  0  0
   56.3530   22.5820   45.3490 C   0  0  0  0  0  0  0  0  0  0  0  0
   55.6310   23.4160   44.4830 C   0  0  0  0  0  0  0  0  0  0  0  0
   55.7890   23.2960   43.0990 C   0  0  0  0  0  0  0  0  0  0  0  0
   56.6630   22.3410   42.5740 C   0  0  0  0  0  0  0  0  0  0  0  0
   57.3860   21.5060   43.4330 C   0  0  0  0  0  0  0  0  0  0  0  0
   57.2310   21.6250   44.8190 C   0  0  0  0  0  0  0  0  0  0  0  0
   55.8960   26.4850   46.1670 C   0  0  0  0  0  0  0  0  0  0  0  0
   54.5340   26.3370   45.9320 O   0  0  0  0  0  0  0  0  0  0  0  0
   56.5730   27.5800   45.6190 C   0  0  0  0  0  0  0  0  0  0  0  0
   58.4800   31.5890   46.0400 C   0  0  0  0  0  0  0  0  0  0  0  0
   58.0660   32.9210   45.8980 C   0  0  0  0  0  0  0  0  0  0  0  0
   58.4540   33.8800   46.8380 C   0  0  0  0  0  0  0  0  0  0  0  0
   59.2560   33.5130   47.9230 C   0  0  0  0  0  0  0  0  0  0  0  0
   59.6340   34.4440   48.8310 F   0  0  0  0  0  0  0  0  0  0  0  0
   59.6660   32.1860   48.0700 C   0  0  0  0  0  0  0  0  0  0  0  0
   59.2790   31.2250   47.1320 C   0  0  0  0  0  0  0  0  0  0  0  0
   59.7115   26.9334   46.8051 H   0  0  0  0  0  0  0  0  0  0  0  0
   58.5123   24.9775   47.7728 H   0  0  0  0  0  0  0  0  0  0  0  0
   54.9390   24.1661   44.8935 H   0  0  0  0  0  0  0  0  0  0  0  0
   55.2243   23.9545   42.4226 H   0  0  0  0  0  0  0  0  0  0  0  0
   56.7829   22.2454   41.4847 H   0  0  0  0  0  0  0  0  0  0  0  0
   58.0762   20.7561   43.0191 H   0  0  0  0  0  0  0  0  0  0  0  0
   57.7985   20.9671   45.4936 H   0  0  0  0  0  0  0  0  0  0  0  0
   56.0234   28.3174   45.0156 H   0  0  0  0  0  0  0  0  0  0  0  0
   57.4348   33.2118   45.0454 H   0  0  0  0  0  0  0  0  0  0  0  0
   58.1281   34.9244   46.7241 H   0  0  0  0  0  0  0  0  0  0  0  0
   60.2944   31.8968   48.9253 H   0  0  0  0  0  0  0  0  0  0  0  0
   59.6024   30.1804   47.2513 H   0  0  0  0  0  0  0  0  0  0  0  0
  1  2  2  0
  2  3  2  0
  2  4  1  0
  4  5  1  0
  5  6  2  0
  6  7  1  0
  7  8  2  0
  8  9  1  0
  9 10  1  0
 10 11  2  0
 10 12  2  0
 10 13  1  0
 13 14  2  0
 14 15  1  0
 15 16  2  0
 16 17  1  0
 17 18  2  0
  8 19  1  0
 19 20  1  0
 19 21  2  0
  2 22  1  0
 22 23  2  0
 23 24  1  0
 24 25  2  0
 25 26  1  0
 25 27  1  0
 27 28  2  0
 21  5  1  0
 28 22  1  0
 18 13  1  0
  6 29  1  0
  7 30  1  0
 14 31  1  0
 15 32  1  0
 16 33  1  0
 17 34  1  0
 18 35  1  0
 21 36  1  0
 23 37  1  0
 24 38  1  0
 27 39  1  0
 28 40  1  0
M  CHG  3   4  -1   9  -1  20  -1
M  END
>  <UniqueID>  (60) 
57

>  <SMILES>  (60) 
O=S(=O)([N-]c1ccc([N-]S(=O)(=O)c2ccccc2)c([O-])c1)c1ccc(F)cc1

>  <Energy>  (60) 
49.49431157056808

>  <Genealogy>  (60) 
O=S(=O)([N-]c1ccc([N-]S(=O)(=O)c2ccccc2)c([O-])c1)c1ccc(F)cc1 (protonated)
O=S(=O)([N-]c1ccc([N-]S(=O)(=O)c2ccccc2)c([O-])c1)c1ccc(F)cc1 (3D coordinates assigned)
O=S(=O)([N-]c1ccc([N-]S(=O)(=O)c2ccccc2)c([O-])c1)c1ccc(F)cc1 (optimized conformer: 49.49431157056808 kcal/mol)

>  <smiles>  (60) 
O=S(=O)(Nc1ccc(NS(=O)(=O)c2ccccc2)c(O)c1)c1ccc(F)cc1

>  <score_type>  (60) 
oracle

>  <origin>  (60) 
adg

>  <m_score__min__energy>  (60) 
-15.9

>  <m_primary>  (60) 
energy

$$$$
60:0
     RDKit          3D

 25 26  0  0  0  0  0  0  0  0999 V2000
   58.1670   32.4280   45.6660 H   0  0  0  0  0  0  0  0  0  0  0  0
   58.8360   31.6700   45.7540 O   0  0  0  0  0  0  0  0  0  0  0  0
   58.5120   30.3550   45.4220 C   0  0  0  0  0  0  0  0  0  0  0  0
   59.4740   29.3560   45.5810 C   0  0  0  0  0  0  0  0  0  0  0  0
   60.4718   29.6140   45.9653 H   0  0  0  0  0  0  0  0  0  0  0  0
   59.1770   28.0310   45.2550 C   0  0  0  0  0  0  0  0  0  0  0  0
   59.9406   27.2515   45.3941 H   0  0  0  0  0  0  0  0  0  0  0  0
   57.9120   27.6840   44.7510 C   0  0  0  0  0  0  0  0  0  0  0  0
   57.6450   26.2600   44.4260 C   0  0  0  0  0  0  0  0  0  0  0  0
   57.7571   25.9379   43.3802 H   0  0  0  0  0  0  0  0  0  0  0  0
   57.2750   25.3430   45.3330 C   0  0  0  0  0  0  0  0  0  0  0  0
   57.9755   25.0883   46.1420 H   0  0  0  0  0  0  0  0  0  0  0  0
   55.9600   24.6590   45.2890 C   0  0  0  0  0  0  0  0  0  0  0  0
   54.7960   25.3730   45.6210 C   0  0  0  0  0  0  0  0  0  0  0  0
   54.8680   26.7070   46.0090 O   0  0  0  0  0  0  0  0  0  0  0  0
   53.5840   24.7620   45.5750 N   0  0  0  0  0  0  0  0  0  0  0  0
   53.4680   23.4620   45.2040 C   0  0  0  0  0  0  0  0  0  0  0  0
   52.3360   22.9150   45.1750 O   0  0  0  0  0  0  0  0  0  0  0  0
   54.5720   22.7550   44.8540 N   0  0  0  0  0  0  0  0  0  0  0  0
   55.8070   23.3180   44.8790 C   0  0  0  0  0  0  0  0  0  0  0  0
   56.7980   22.6360   44.5050 O   0  0  0  0  0  0  0  0  0  0  0  0
   56.9400   28.6940   44.6050 C   0  0  0  0  0  0  0  0  0  0  0  0
   55.9388   28.4372   44.2286 H   0  0  0  0  0  0  0  0  0  0  0  0
   57.2380   30.0210   44.9350 C   0  0  0  0  0  0  0  0  0  0  0  0
   56.2630   31.0010   44.7810 O   0  0  0  0  0  0  0  0  0  0  0  0
  1  2  1  0
  2  3  1  0
  3  4  2  0
  4  5  1  0
  4  6  1  0
  6  7  1  0
  6  8  2  0
  8  9  1  0
  9 10  1  0
  9 11  2  0
 11 12  1  0
 11 13  1  0
 13 14  2  0
 14 15  1  0
 14 16  1  0
 16 17  1  0
 17 18  2  0
 17 19  1  0
 19 20  1  0
 20 21  2  0
  8 22  1  0
 22 23  1  0
 22 24  2  0
 24 25  1  0
 24  3  1  0
 20 13  1  0
M  CHG  4  15  -1  16  -1  19  -1  25  -1
M  END
>  <UniqueID>  (61) 
58

>  <SMILES>  (61) 
O=c1[n-]c([O-])c(/C=C/c2ccc(O)c([O-])c2)c(=O)[n-]1

>  <Energy>  (61) 
35.64986261211007

>  <Genealogy>  (61) 
O=c1[n-]c([O-])c(C=Cc2ccc(O)c([O-])c2)c(=O)[n-]1 (protonated)
O=c1[n-]c([O-])c(/C=C/c2ccc(O)c([O-])c2)c(=O)[n-]1 (cis-trans isomerization)
O=c1[n-]c([O-])c(/C=C/c2ccc(O)c([O-])c2)c(=O)[n-]1 (3D coordinates assigned)
O=c1[n-]c([O-])c(/C=C/c2ccc(O)c([O-])c2)c(=O)[n-]1 (optimized conformer: 35.64986261211007 kcal/mol)

>  <smiles>  (61) 
O=c1[nH]c(O)c(C=Cc2ccc(O)c(O)c2)c(=O)[nH]1

>  <score_type>  (61) 
oracle

>  <origin>  (61) 
adg

>  <m_score__min__energy>  (61) 
-15.74

>  <m_primary>  (61) 
energy

$$$$
61:0
     RDKit          3D

 39 41  0  0  0  0  0  0  0  0999 V2000
   61.6704   30.3310   46.0030 H   0  0  0  0  0  0  0  0  0  0  0  0
   60.6700   29.9380   46.2370 C   0  0  0  0  0  0  0  0  0  0  0  0
   60.1420   30.1870   47.5970 C   0  0  0  0  0  0  0  0  0  0  0  0
   60.4820   29.4430   48.5540 O   0  0  0  0  0  0  0  0  0  0  0  0
   59.3420   31.3420   47.8750 N   0  0  0  0  0  0  0  0  0  0  0  0
   59.0440   32.4050   46.9560 C   0  0  0  0  0  0  0  0  0  0  0  0
   57.8030   32.4520   46.2930 C   0  0  0  0  0  0  0  0  0  0  0  0
   57.0772   31.6376   46.4344 H   0  0  0  0  0  0  0  0  0  0  0  0
   57.4870   33.5240   45.4580 C   0  0  0  0  0  0  0  0  0  0  0  0
   56.5208   33.5440   44.9325 H   0  0  0  0  0  0  0  0  0  0  0  0
   58.3930   34.5700   45.2880 C   0  0  0  0  0  0  0  0  0  0  0  0
   58.1415   35.4127   44.6272 H   0  0  0  0  0  0  0  0  0  0  0  0
   59.6200   34.5490   45.9560 C   0  0  0  0  0  0  0  0  0  0  0  0
   60.3271   35.3813   45.8247 H   0  0  0  0  0  0  0  0  0  0  0  0
   59.9580   33.4720   46.7950 C   0  0  0  0  0  0  0  0  0  0  0  0
   61.2750   33.4710   47.4770 C   0  0  0  0  0  0  0  0  0  0  0  0
   62.4390   33.1220   46.7690 C   0  0  0  0  0  0  0  0  0  0  0  0
   62.3729   32.8558   45.7038 H   0  0  0  0  0  0  0  0  0  0  0  0
   63.6810   33.1120   47.4140 C   0  0  0  0  0  0  0  0  0  0  0  0
   64.5884   32.8416   46.8541 H   0  0  0  0  0  0  0  0  0  0  0  0
   63.7700   33.4450   48.7680 C   0  0  0  0  0  0  0  0  0  0  0  0
   64.7475   33.4402   49.2724 H   0  0  0  0  0  0  0  0  0  0  0  0
   62.6180   33.7840   49.4810 C   0  0  0  0  0  0  0  0  0  0  0  0
   62.6891   34.0422   50.5479 H   0  0  0  0  0  0  0  0  0  0  0  0
   61.3750   33.7960   48.8420 C   0  0  0  0  0  0  0  0  0  0  0  0
   60.4705   34.0609   49.4092 H   0  0  0  0  0  0  0  0  0  0  0  0
   60.0260   29.2710   45.2660 C   0  0  0  0  0  0  0  0  0  0  0  0
   60.4888   29.2579   44.2682 H   0  0  0  0  0  0  0  0  0  0  0  0
   58.7450   28.5530   45.4310 C   0  0  0  0  0  0  0  0  0  0  0  0
   58.6910   27.2820   46.0340 C   0  0  0  0  0  0  0  0  0  0  0  0
   59.6194   26.7903   46.3599 H   0  0  0  0  0  0  0  0  0  0  0  0
   57.4630   26.6430   46.2200 C   0  0  0  0  0  0  0  0  0  0  0  0
   57.4288   25.6422   46.6753 H   0  0  0  0  0  0  0  0  0  0  0  0
   56.2770   27.2720   45.8290 C   0  0  0  0  0  0  0  0  0  0  0  0
   55.0590   26.6300   46.0150 O   0  0  0  0  0  0  0  0  0  0  0  0
   56.3200   28.5490   45.2560 C   0  0  0  0  0  0  0  0  0  0  0  0
   55.1430   29.1840   44.8750 O   0  0  0  0  0  0  0  0  0  0  0  0
   57.5490   29.1910   45.0690 C   0  0  0  0  0  0  0  0  0  0  0  0
   57.5777   30.2017   44.6357 H   0  0  0  0  0  0  0  0  0  0  0  0
  1  2  1  0
  2  3  1  0
  3  4  2  0
  3  5  1  0
  5  6  1  0
  6  7  2  0
  7  8  1  0
  7  9  1  0
  9 10  1  0
  9 11  2  0
 11 12  1  0
 11 13  1  0
 13 14  1  0
 13 15  2  0
 15 16  1  0
 16 17  2  0
 17 18  1  0
 17 19  1  0
 19 20  1  0
 19 21  2  0
 21 22  1  0
 21 23  1  0
 23 24  1  0
 23 25  2  0
 25 26  1  0
  2 27  2  0
 27 28  1  0
 27 29  1  0
 29 30  2  0
 30 31  1  0
 30 32  1  0
 32 33  1  0
 32 34  2  0
 34 35  1  0
 34 36  1  0
 36 37  1  0
 36 38  2  0
 38 39  1  0
 15  6  1  0
 25 16  1  0
 38 29  1  0
M  CHG  3   5  -1  35  -1  37  -1
M  END
>  <UniqueID>  (62) 
59

>  <SMILES>  (62) 
O=C(/C=C\c1ccc([O-])c([O-])c1)[N-]c1ccccc1-c1ccccc1

>  <Energy>  (62) 
60.709969418919

>  <Genealogy>  (62) 
O=C(C=Cc1ccc([O-])c([O-])c1)[N-]c1ccccc1-c1ccccc1 (protonated)
O=C(/C=C\c1ccc([O-])c([O-])c1)[N-]c1ccccc1-c1ccccc1 (cis-trans isomerization)
O=C(/C=C\c1ccc([O-])c([O-])c1)[N-]c1ccccc1-c1ccccc1 (3D coordinates assigned)
O=C(/C=C\c1ccc([O-])c([O-])c1)[N-]c1ccccc1-c1ccccc1 (optimized conformer: 60.709969418919 kcal/mol)

>  <smiles>  (62) 
O=C(C=Cc1ccc(O)c(O)c1)Nc1ccccc1-c1ccccc1

>  <score_type>  (62) 
oracle

>  <origin>  (62) 
adg

>  <m_score__min__energy>  (62) 
-17.550000000000001

>  <m_primary>  (62) 
energy

$$$$
62:0
     RDKit          3D

 28 30  0  0  0  0  0  0  0  0999 V2000
   55.9390   31.0150   45.1710 H   0  0  0  0  0  0  0  0  0  0  0  0
   56.6700   31.6630   44.9020 O   0  0  0  0  0  0  0  0  0  0  0  0
   57.6900   32.0070   45.7840 C   0  0  0  0  0  0  0  0  0  0  0  0
   57.6690   33.1200   46.5440 N   0  0  0  0  0  0  0  0  0  0  0  0
   58.8380   33.0540   47.2170 C   0  0  0  0  0  0  0  0  0  0  0  0
   59.2010   33.9350   48.0410 O   0  0  0  0  0  0  0  0  0  0  0  0
   59.5820   31.9680   46.9150 N   0  0  0  0  0  0  0  0  0  0  0  0
   60.9160   31.6560   47.4270 C   0  0  0  0  0  0  0  0  0  0  0  0
   60.8969   31.6605   48.5268 H   0  0  0  0  0  0  0  0  0  0  0  0
   61.2227   30.6619   47.0696 H   0  0  0  0  0  0  0  0  0  0  0  0
   61.6317   32.4110   47.0696 H   0  0  0  0  0  0  0  0  0  0  0  0
   58.8420   31.2850   46.0170 C   0  0  0  0  0  0  0  0  0  0  0  0
   59.2420   30.0470   45.3280 C   0  0  0  0  0  0  0  0  0  0  0  0
   60.0518   30.1009   44.5855 H   0  0  0  0  0  0  0  0  0  0  0  0
   58.6710   28.8610   45.5590 C   0  0  0  0  0  0  0  0  0  0  0  0
   59.4010   27.6870   45.7570 O   0  0  0  0  0  0  0  0  0  0  0  0
   58.4850   26.6590   45.9630 C   0  0  0  0  0  0  0  0  0  0  0  0
   58.7730   25.3170   46.2060 C   0  0  0  0  0  0  0  0  0  0  0  0
   59.8134   24.9638   46.2580 H   0  0  0  0  0  0  0  0  0  0  0  0
   57.6990   24.4260   46.3830 C   0  0  0  0  0  0  0  0  0  0  0  0
   57.8986   23.3617   46.5765 H   0  0  0  0  0  0  0  0  0  0  0  0
   56.3670   24.8880   46.3140 C   0  0  0  0  0  0  0  0  0  0  0  0
   55.5350   24.1821   46.4540 H   0  0  0  0  0  0  0  0  0  0  0  0
   56.0980   26.2470   46.0670 C   0  0  0  0  0  0  0  0  0  0  0  0
   54.7910   26.7130   45.9960 O   0  0  0  0  0  0  0  0  0  0  0  0
   57.1820   27.1090   45.8990 C   0  0  0  0  0  0  0  0  0  0  0  0
   57.2410   28.5340   45.6280 C   0  0  0  0  0  0  0  0  0  0  0  0
   56.2620   29.3000   45.4210 O   0  0  0  0  0  0  0  0  0  0  0  0
  1  2  1  0
  2  3  1  0
  3  4  1  0
  4  5  1  0
  5  6  2  0
  5  7  1  0
  7  8  1  0
  8  9  1  0
  8 10  1  0
  8 11  1  0
  7 12  1  0
 12 13  1  0
 13 14  1  0
 13 15  2  0
 15 16  1  0
 16 17  1  0
 17 18  2  0
 18 19  1  0
 18 20  1  0
 20 21  1  0
 20 22  2  0
 22 23  1  0
 22 24  1  0
 24 25  1  0
 24 26  2  0
 26 27  1  0
 27 28  2  0
 12  3  2  0
 27 15  1  0
 26 17  1  0
M  CHG  2   4  -1  25  -1
M  END
>  <UniqueID>  (63) 
60

>  <SMILES>  (63) 
Cn1c(/C=C2/Oc3cccc([O-])c3C2=O)c(O)[n-]c1=O

>  <Energy>  (63) 
100.24935191616424

>  <Genealogy>  (63) 
Cn1c(C=C2Oc3cccc([O-])c3C2=O)c(O)[n-]c1=O (protonated)
Cn1c(/C=C2/Oc3cccc([O-])c3C2=O)c(O)[n-]c1=O (cis-trans isomerization)
Cn1c(/C=C2/Oc3cccc([O-])c3C2=O)c(O)[n-]c1=O (3D coordinates assigned)
Cn1c(/C=C2/Oc3cccc([O-])c3C2=O)c(O)[n-]c1=O (nonaromatic ring conformer: 100.24935191616424 kcal/mol)

>  <smiles>  (63) 
Cn1c(C=C2Oc3cccc(O)c3C2=O)c(O)[nH]c1=O

>  <score_type>  (63) 
oracle

>  <origin>  (63) 
adg

>  <m_score__min__energy>  (63) 
-12.49

>  <m_primary>  (63) 
energy

$$$$
63:0
     RDKit          3D

 45 47  0  0  0  0  0  0  0  0999 V2000
   64.1360   32.6360   46.9320 N   0  0  0  0  0  0  0  0  0  0  0  0
   63.0860   33.6160   47.1890 C   0  0  0  0  0  0  0  0  0  0  0  0
   61.7780   32.9150   47.4300 C   0  0  0  0  0  0  0  0  0  0  0  0
   60.6470   33.6460   47.8230 C   0  0  0  0  0  0  0  0  0  0  0  0
   59.4430   32.9890   48.0880 C   0  0  0  0  0  0  0  0  0  0  0  0
   59.3590   31.6000   47.9670 C   0  0  0  0  0  0  0  0  0  0  0  0
   60.4810   30.8520   47.5720 C   0  0  0  0  0  0  0  0  0  0  0  0
   60.3930   29.3430   47.4520 C   0  0  0  0  0  0  0  0  0  0  0  0
   59.1880   28.8700   46.7330 N   0  0  0  0  0  0  0  0  0  0  0  0
   58.7780   27.5040   47.0930 C   0  0  0  0  0  0  0  0  0  0  0  0
   57.3130   27.2960   46.6940 C   0  0  0  0  0  0  0  0  0  0  0  0
   57.0170   27.7670   45.2470 C   0  0  0  0  0  0  0  0  0  0  0  0
   55.9570   28.7800   45.1930 N   0  0  0  0  0  0  0  0  0  0  0  0
   55.7220   29.7470   44.1610 C   0  0  0  0  0  0  0  0  0  0  0  0
   54.7330   29.6400   43.3900 O   0  0  0  0  0  0  0  0  0  0  0  0
   56.6570   30.8650   43.9850 C   0  0  0  0  0  0  0  0  0  0  0  0
   57.2880   31.2230   42.7970 C   0  0  0  0  0  0  0  0  0  0  0  0
   58.1310   32.3330   42.9330 C   0  0  0  0  0  0  0  0  0  0  0  0
   58.1590   32.8410   44.2230 C   0  0  0  0  0  0  0  0  0  0  0  0
   59.0980   34.2170   44.7590 Cl  0  0  0  0  0  0  0  0  0  0  0  0
   57.1460   31.9230   45.2010 S   0  0  0  0  0  0  0  0  0  0  0  0
   58.2690   28.2190   44.4670 C   0  0  0  0  0  0  0  0  0  0  0  0
   59.2370   29.1110   45.2730 C   0  0  0  0  0  0  0  0  0  0  0  0
   61.6950   31.5170   47.3260 C   0  0  0  0  0  0  0  0  0  0  0  0
   64.5560   32.3720   47.8520 H   0  0  0  0  0  0  0  0  0  0  0  0
   64.8940   33.1050   46.3830 H   0  0  0  0  0  0  0  0  0  0  0  0
   63.3505   34.2094   48.0767 H   0  0  0  0  0  0  0  0  0  0  0  0
   62.9865   34.2769   46.3153 H   0  0  0  0  0  0  0  0  0  0  0  0
   60.7084   34.7397   47.9228 H   0  0  0  0  0  0  0  0  0  0  0  0
   58.5584   33.5673   48.3929 H   0  0  0  0  0  0  0  0  0  0  0  0
   58.4091   31.0888   48.1822 H   0  0  0  0  0  0  0  0  0  0  0  0
   61.2819   28.9856   46.9116 H   0  0  0  0  0  0  0  0  0  0  0  0
   60.3333   28.9432   48.4750 H   0  0  0  0  0  0  0  0  0  0  0  0
   59.4107   26.7779   46.5616 H   0  0  0  0  0  0  0  0  0  0  0  0
   58.8899   27.3582   48.1775 H   0  0  0  0  0  0  0  0  0  0  0  0
   57.0754   26.2248   46.7714 H   0  0  0  0  0  0  0  0  0  0  0  0
   56.6935   27.8990   47.3741 H   0  0  0  0  0  0  0  0  0  0  0  0
   56.6471   26.8691   44.7304 H   0  0  0  0  0  0  0  0  0  0  0  0
   57.1395   30.6881   41.8474 H   0  0  0  0  0  0  0  0  0  0  0  0
   58.7117   32.7585   42.1013 H   0  0  0  0  0  0  0  0  0  0  0  0
   58.8165   27.3207   44.1454 H   0  0  0  0  0  0  0  0  0  0  0  0
   57.9100   28.8282   43.6244 H   0  0  0  0  0  0  0  0  0  0  0  0
   60.2616   28.9174   44.9227 H   0  0  0  0  0  0  0  0  0  0  0  0
   58.9285   30.1538   45.1075 H   0  0  0  0  0  0  0  0  0  0  0  0
   62.5879   30.9370   47.0496 H   0  0  0  0  0  0  0  0  0  0  0  0
  1  2  1  0
  2  3  1  0
  3  4  2  0
  4  5  1  0
  5  6  2  0
  6  7  1  0
  7  8  1  0
  8  9  1  0
  9 10  1  0
 10 11  1  0
 11 12  1  0
 12 13  1  0
 13 14  1  0
 14 15  2  0
 14 16  1  0
 16 17  2  0
 17 18  1  0
 18 19  2  0
 19 20  1  0
 19 21  1  0
 12 22  1  0
 22 23  1  0
  7 24  2  0
 24  3  1  0
 23  9  1  0
 21 16  1  0
  1 25  1  0
  1 26  1  0
  2 27  1  0
  2 28  1  0
  4 29  1  0
  5 30  1  0
  6 31  1  0
  8 32  1  0
  8 33  1  0
 10 34  1  0
 10 35  1  0
 11 36  1  0
 11 37  1  0
 12 38  1  0
 17 39  1  0
 18 40  1  0
 22 41  1  0
 22 42  1  0
 23 43  1  0
 23 44  1  0
 24 45  1  0
M  CHG  1  13  -1
M  END
>  <UniqueID>  (64) 
61

>  <SMILES>  (64) 
NCc1cccc(CN2CCC([N-]C(=O)c3ccc(Cl)s3)CC2)c1

>  <Energy>  (64) 
81.298059966069

>  <Genealogy>  (64) 
NCc1cccc(CN2CCC([N-]C(=O)c3ccc(Cl)s3)CC2)c1 (protonated)
NCc1cccc(CN2CCC([N-]C(=O)c3ccc(Cl)s3)CC2)c1 (3D coordinates assigned)
NCc1cccc(CN2CCC([N-]C(=O)c3ccc(Cl)s3)CC2)c1 (nonaromatic ring conformer: 81.298059966069 kcal/mol)

>  <smiles>  (64) 
NCc1cccc(CN2CCC(NC(=O)c3ccc(Cl)s3)CC2)c1

>  <score_type>  (64) 
oracle

>  <origin>  (64) 
adg

>  <m_score__min__energy>  (64) 
-10.710000000000001

>  <m_primary>  (64) 
energy

$$$$
64:0
     RDKit          3D

 71 75  0  0  0  0  0  0  0  0999 V2000
   65.4098   33.5803   50.4865 H   0  0  0  0  0  0  0  0  0  0  0  0
   64.4560   33.4840   49.9470 C   0  0  0  0  0  0  0  0  0  0  0  0
   64.3770   32.6810   48.8050 C   0  0  0  0  0  0  0  0  0  0  0  0
   65.2711   32.1534   48.4414 H   0  0  0  0  0  0  0  0  0  0  0  0
   63.1630   32.5480   48.1250 C   0  0  0  0  0  0  0  0  0  0  0  0
   63.1075   31.9222   47.2221 H   0  0  0  0  0  0  0  0  0  0  0  0
   62.0120   33.2100   48.5890 C   0  0  0  0  0  0  0  0  0  0  0  0
   60.7440   33.0670   47.9180 N   0  0  0  0  0  0  0  0  0  0  0  0
   60.3960   33.8020   46.8730 N   0  0  0  0  0  0  0  0  0  0  0  0
   59.1420   33.4500   46.5120 C   0  0  0  0  0  0  0  0  0  0  0  0
   58.4240   33.9900   45.2850 C   0  0  0  0  0  0  0  0  0  0  0  0
   56.9330   34.2450   45.5950 C   0  0  0  0  0  0  0  0  0  0  0  0
   56.7842   34.2705   46.6846 H   0  0  0  0  0  0  0  0  0  0  0  0
   56.6277   35.2084   45.1606 H   0  0  0  0  0  0  0  0  0  0  0  0
   56.3249   33.4378   45.1606 H   0  0  0  0  0  0  0  0  0  0  0  0
   59.0840   35.3200   44.8600 C   0  0  0  0  0  0  0  0  0  0  0  0
   59.3676   35.8914   45.7561 H   0  0  0  0  0  0  0  0  0  0  0  0
   59.9818   35.1087   44.2606 H   0  0  0  0  0  0  0  0  0  0  0  0
   58.3727   35.9072   44.2606 H   0  0  0  0  0  0  0  0  0  0  0  0
   58.5260   32.9690   44.1320 C   0  0  0  0  0  0  0  0  0  0  0  0
   58.6272   31.9556   44.5475 H   0  0  0  0  0  0  0  0  0  0  0  0
   57.6180   33.0226   43.5134 H   0  0  0  0  0  0  0  0  0  0  0  0
   59.4054   33.2012   43.5134 H   0  0  0  0  0  0  0  0  0  0  0  0
   58.6700   32.4590   47.3610 C   0  0  0  0  0  0  0  0  0  0  0  0
   57.6917   31.9566   47.3390 H   0  0  0  0  0  0  0  0  0  0  0  0
   59.7170   32.2500   48.2420 C   0  0  0  0  0  0  0  0  0  0  0  0
   59.7610   31.3900   49.2180 N   0  0  0  0  0  0  0  0  0  0  0  0
   59.5810   29.9680   49.1370 C   0  0  0  0  0  0  0  0  0  0  0  0
   60.2800   29.1880   49.8320 O   0  0  0  0  0  0  0  0  0  0  0  0
   58.6710   29.4220   48.1800 N   0  0  0  0  0  0  0  0  0  0  0  0
   58.8330   28.1420   47.5560 C   0  0  0  0  0  0  0  0  0  0  0  0
   57.7130   27.4850   47.0340 C   0  0  0  0  0  0  0  0  0  0  0  0
   56.7236   27.9621   47.0921 H   0  0  0  0  0  0  0  0  0  0  0  0
   57.8430   26.2260   46.4390 C   0  0  0  0  0  0  0  0  0  0  0  0
   56.9521   25.7054   46.0580 H   0  0  0  0  0  0  0  0  0  0  0  0
   59.1090   25.6230   46.3260 C   0  0  0  0  0  0  0  0  0  0  0  0
   59.2470   24.2870   45.7190 C   0  0  0  0  0  0  0  0  0  0  0  0
   60.3480   23.5230   45.8380 N   0  0  0  0  0  0  0  0  0  0  0  0
   60.1250   22.4270   45.1370 N   0  0  0  0  0  0  0  0  0  0  0  0
   58.8930   22.5450   44.6130 C   0  0  0  0  0  0  0  0  0  0  0  0
   58.2580   21.4890   43.7490 C   0  0  0  0  0  0  0  0  0  0  0  0
   58.6004   21.6423   42.7150 H   0  0  0  0  0  0  0  0  0  0  0  0
   58.5647   20.5204   44.1705 H   0  0  0  0  0  0  0  0  0  0  0  0
   56.6970   21.4910   43.7480 C   0  0  0  0  0  0  0  0  0  0  0  0
   56.2210   20.1840   43.2580 N   0  0  0  0  0  0  0  0  0  0  0  0
   55.1880   20.1120   43.4040 H   0  0  0  0  0  0  0  0  0  0  0  0
   56.6470   19.4080   43.8120 H   0  0  0  0  0  0  0  0  0  0  0  0
   56.1310   21.7630   45.1850 C   0  0  0  0  0  0  0  0  0  0  0  0
   55.9505   20.7982   45.6815 H   0  0  0  0  0  0  0  0  0  0  0  0
   56.8743   22.3648   45.7286 H   0  0  0  0  0  0  0  0  0  0  0  0
   54.8200   22.5550   45.1590 C   0  0  0  0  0  0  0  0  0  0  0  0
   54.0816   22.0106   44.5520 H   0  0  0  0  0  0  0  0  0  0  0  0
   54.4566   22.6702   46.1908 H   0  0  0  0  0  0  0  0  0  0  0  0
   55.0390   23.9520   44.5540 C   0  0  0  0  0  0  0  0  0  0  0  0
   54.0752   24.3226   44.1747 H   0  0  0  0  0  0  0  0  0  0  0  0
   55.4457   24.5909   45.3518 H   0  0  0  0  0  0  0  0  0  0  0  0
   56.0580   23.9660   43.3960 C   0  0  0  0  0  0  0  0  0  0  0  0
   55.7194   24.6847   42.6352 H   0  0  0  0  0  0  0  0  0  0  0  0
   57.0358   24.2520   43.8109 H   0  0  0  0  0  0  0  0  0  0  0  0
   56.2110   22.5860   42.7390 C   0  0  0  0  0  0  0  0  0  0  0  0
   55.2369   22.2806   42.3293 H   0  0  0  0  0  0  0  0  0  0  0  0
   56.9723   22.6744   41.9499 H   0  0  0  0  0  0  0  0  0  0  0  0
   58.3010   23.7080   44.9520 N   0  0  0  0  0  0  0  0  0  0  0  0
   60.2370   26.3010   46.8170 C   0  0  0  0  0  0  0  0  0  0  0  0
   61.2337   25.8456   46.7209 H   0  0  0  0  0  0  0  0  0  0  0  0
   60.1000   27.5510   47.4270 C   0  0  0  0  0  0  0  0  0  0  0  0
   60.9893   28.0744   47.8079 H   0  0  0  0  0  0  0  0  0  0  0  0
   62.1080   34.0330   49.7240 C   0  0  0  0  0  0  0  0  0  0  0  0
   61.2214   34.5776   50.0808 H   0  0  0  0  0  0  0  0  0  0  0  0
   63.3240   34.1640   50.4030 C   0  0  0  0  0  0  0  0  0  0  0  0
   63.3889   34.8026   51.2963 H   0  0  0  0  0  0  0  0  0  0  0  0
  1  2  1  0
  2  3  2  0
  3  4  1  0
  3  5  1  0
  5  6  1  0
  5  7  2  0
  7  8  1  0
  8  9  1  0
  9 10  1  0
 10 11  1  0
 11 12  1  0
 12 13  1  0
 12 14  1  0
 12 15  1  0
 11 16  1  0
 16 17  1  0
 16 18  1  0
 16 19  1  0
 11 20  1  0
 20 21  1  0
 20 22  1  0
 20 23  1  0
 10 24  2  0
 24 25  1  0
 24 26  1  0
 26 27  2  0
 27 28  1  0
 28 29  2  0
 28 30  1  0
 30 31  1  0
 31 32  2  0
 32 33  1  0
 32 34  1  0
 34 35  1  0
 34 36  2  0
 36 37  1  0
 37 38  2  0
 38 39  1  0
 39 40  1  0
 40 41  1  0
 41 42  1  0
 41 43  1  0
 41 44  1  0
 44 45  1  0
 45 46  1  0
 45 47  1  0
 44 48  1  0
 48 49  1  0
 48 50  1  0
 48 51  1  0
 51 52  1  0
 51 53  1  0
 51 54  1  0
 54 55  1  0
 54 56  1  0
 54 57  1  0
 57 58  1  0
 57 59  1  0
 57 60  1  0
 60 61  1  0
 60 62  1  0
 40 63  2  0
 36 64  1  0
 64 65  1  0
 64 66  2  0
 66 67  1  0
  7 68  1  0
 68 69  1  0
 68 70  2  0
 70 71  1  0
 70  2  1  0
 26  8  1  0
 66 31  1  0
 63 37  1  0
 60 44  1  0
M  CHG  3   9  -1  30  -1  39  -1
M  END
>  <UniqueID>  (65) 
62

>  <SMILES>  (65) 
CC(C)(C)c1c/c(=N\C(=O)[N-]c2ccc(-c3n[n-]c(CC4(N)CCCCC4)n3)cc2)n(-c2ccccc2)[n-]1

>  <Energy>  (65) 
151.82930277843272

>  <Genealogy>  (65) 
CC(C)(C)c1cc(=NC(=O)[N-]c2ccc(-c3n[n-]c(CC4(N)CCCCC4)n3)cc2)n(-c2ccccc2)[n-]1 (protonated)
CC(C)(C)c1c/c(=N\C(=O)[N-]c2ccc(-c3n[n-]c(CC4(N)CCCCC4)n3)cc2)n(-c2ccccc2)[n-]1 (cis-trans isomerization)
CC(C)(C)c1c/c(=N\C(=O)[N-]c2ccc(-c3n[n-]c(CC4(N)CCCCC4)n3)cc2)n(-c2ccccc2)[n-]1 (3D coordinates assigned)
CC(C)(C)c1c/c(=N\C(=O)[N-]c2ccc(-c3n[n-]c(CC4(N)CCCCC4)n3)cc2)n(-c2ccccc2)[n-]1 (nonaromatic ring conformer: 151.82930277843272 kcal/mol)

>  <smiles>  (65) 
CC(C)(C)c1cc(=NC(=O)Nc2ccc(-c3n[nH]c(CC4(N)CCCCC4)n3)cc2)n(-c2ccccc2)[nH]1

>  <score_type>  (65) 
oracle

>  <origin>  (65) 
adg

>  <m_score__min__energy>  (65) 
-15.01

>  <m_primary>  (65) 
energy

$$$$
65:0
     RDKit          3D

 58 61  0  0  0  0  0  0  0  0999 V2000
   56.3020   30.5160   44.8290 O   0  0  0  0  0  0  0  0  0  0  0  0
   57.5320   30.5500   45.1070 C   0  0  0  0  0  0  0  0  0  0  0  0
   58.1630   31.8620   45.3540 C   0  0  0  0  0  0  0  0  0  0  0  0
   58.0740   32.8310   44.3420 C   0  0  0  0  0  0  0  0  0  0  0  0
   58.6010   34.1090   44.5340 C   0  0  0  0  0  0  0  0  0  0  0  0
   59.2040   34.4420   45.7470 C   0  0  0  0  0  0  0  0  0  0  0  0
   59.2910   33.4940   46.7670 C   0  0  0  0  0  0  0  0  0  0  0  0
   58.7900   32.1910   46.5850 C   0  0  0  0  0  0  0  0  0  0  0  0
   58.8990   31.2110   47.7320 C   0  0  0  0  0  0  0  0  0  0  0  0
   60.5360   30.4900   47.8300 S   0  0  0  0  0  0  0  0  0  0  0  0
   60.6010   29.5720   49.0180 O   0  0  0  0  0  0  0  0  0  0  0  0
   60.8290   29.6930   46.5890 O   0  0  0  0  0  0  0  0  0  0  0  0
   61.7400   31.7610   48.0190 C   0  0  0  0  0  0  0  0  0  0  0  0
   61.5980   32.7060   49.0460 C   0  0  0  0  0  0  0  0  0  0  0  0
   62.5250   33.7460   49.1760 C   0  0  0  0  0  0  0  0  0  0  0  0
   63.5940   33.8480   48.2810 C   0  0  0  0  0  0  0  0  0  0  0  0
   63.7390   32.9080   47.2560 C   0  0  0  0  0  0  0  0  0  0  0  0
   62.8170   31.8660   47.1240 C   0  0  0  0  0  0  0  0  0  0  0  0
   58.3250   29.3400   45.0610 N   0  0  0  0  0  0  0  0  0  0  0  0
   58.1280   28.5080   46.2820 C   0  0  0  0  0  0  0  0  0  0  0  0
   57.1250   27.3630   46.0520 C   0  0  0  0  0  0  0  0  0  0  0  0
   57.5410   26.4580   44.9500 N   0  0  0  0  0  0  0  0  0  0  0  0
   58.1800   25.2290   45.4680 C   0  0  0  0  0  0  0  0  0  0  0  0
   57.7610   24.0250   44.6640 C   0  0  0  0  0  0  0  0  0  0  0  0
   56.6520   24.0880   43.8020 C   0  0  0  0  0  0  0  0  0  0  0  0
   56.2690   22.9620   43.0650 C   0  0  0  0  0  0  0  0  0  0  0  0
   56.9880   21.7710   43.1830 C   0  0  0  0  0  0  0  0  0  0  0  0
   58.0910   21.7000   44.0410 C   0  0  0  0  0  0  0  0  0  0  0  0
   58.4760   22.8230   44.7790 C   0  0  0  0  0  0  0  0  0  0  0  0
   58.3930   27.1250   43.9320 C   0  0  0  0  0  0  0  0  0  0  0  0
   58.0450   28.6120   43.7990 C   0  0  0  0  0  0  0  0  0  0  0  0
   57.5845   32.5807   43.3892 H   0  0  0  0  0  0  0  0  0  0  0  0
   58.5408   34.8548   43.7276 H   0  0  0  0  0  0  0  0  0  0  0  0
   59.6111   35.4525   45.8994 H   0  0  0  0  0  0  0  0  0  0  0  0
   59.7568   33.7681   47.7251 H   0  0  0  0  0  0  0  0  0  0  0  0
   58.6841   31.7379   48.6734 H   0  0  0  0  0  0  0  0  0  0  0  0
   58.1755   30.4001   47.5616 H   0  0  0  0  0  0  0  0  0  0  0  0
   60.7565   32.6293   49.7503 H   0  0  0  0  0  0  0  0  0  0  0  0
   62.4124   34.4843   49.9836 H   0  0  0  0  0  0  0  0  0  0  0  0
   64.3208   34.6674   48.3830 H   0  0  0  0  0  0  0  0  0  0  0  0
   64.5804   32.9888   46.5521 H   0  0  0  0  0  0  0  0  0  0  0  0
   62.9351   31.1270   46.3178 H   0  0  0  0  0  0  0  0  0  0  0  0
   59.3320   29.6160   45.0420 H   0  0  0  0  0  0  0  0  0  0  0  0
   59.0961   28.0766   46.5763 H   0  0  0  0  0  0  0  0  0  0  0  0
   57.7220   29.1582   47.0709 H   0  0  0  0  0  0  0  0  0  0  0  0
   57.0407   26.7759   46.9784 H   0  0  0  0  0  0  0  0  0  0  0  0
   56.1615   27.8129   45.7706 H   0  0  0  0  0  0  0  0  0  0  0  0
   59.2729   25.3390   45.4089 H   0  0  0  0  0  0  0  0  0  0  0  0
   57.8645   25.0819   46.5115 H   0  0  0  0  0  0  0  0  0  0  0  0
   56.0839   25.0251   43.7068 H   0  0  0  0  0  0  0  0  0  0  0  0
   55.4006   23.0152   42.3920 H   0  0  0  0  0  0  0  0  0  0  0  0
   56.6870   20.8875   42.6008 H   0  0  0  0  0  0  0  0  0  0  0  0
   58.6552   20.7604   44.1348 H   0  0  0  0  0  0  0  0  0  0  0  0
   59.3434   22.7642   45.4530 H   0  0  0  0  0  0  0  0  0  0  0  0
   59.4476   27.0295   44.2297 H   0  0  0  0  0  0  0  0  0  0  0  0
   58.2162   26.6398   42.9608 H   0  0  0  0  0  0  0  0  0  0  0  0
   58.6469   29.0510   42.9897 H   0  0  0  0  0  0  0  0  0  0  0  0
   56.9719   28.7014   43.5743 H   0  0  0  0  0  0  0  0  0  0  0  0
  1  2  2  0
  2  3  1  0
  3  4  2  0
  4  5  1  0
  5  6  2  0
  6  7  1  0
  7  8  2  0
  8  9  1  0
  9 10  1  0
 10 11  2  0
 10 12  2  0
 10 13  1  0
 13 14  2  0
 14 15  1  0
 15 16  2  0
 16 17  1  0
 17 18  2  0
  2 19  1  0
 19 20  1  0
 20 21  1  0
 21 22  1  0
 22 23  1  0
 23 24  1  0
 24 25  2  0
 25 26  1  0
 26 27  2  0
 27 28  1  0
 28 29  2  0
 22 30  1  0
 30 31  1  0
  8  3  1  0
 18 13  1  0
 31 19  1  0
 29 24  1  0
  4 32  1  0
  5 33  1  0
  6 34  1  0
  7 35  1  0
  9 36  1  0
  9 37  1  0
 14 38  1  0
 15 39  1  0
 16 40  1  0
 17 41  1  0
 18 42  1  0
 19 43  1  0
 20 44  1  0
 20 45  1  0
 21 46  1  0
 21 47  1  0
 23 48  1  0
 23 49  1  0
 25 50  1  0
 26 51  1  0
 27 52  1  0
 28 53  1  0
 29 54  1  0
 30 55  1  0
 30 56  1  0
 31 57  1  0
 31 58  1  0
M  CHG  1  19   1
M  END
>  <UniqueID>  (66) 
63

>  <SMILES>  (66) 
O=C(c1ccccc1CS(=O)(=O)c1ccccc1)[NH+]1CCN(Cc2ccccc2)CC1

>  <Energy>  (66) 
80.52245779855082

>  <Genealogy>  (66) 
O=C(c1ccccc1CS(=O)(=O)c1ccccc1)[NH+]1CCN(Cc2ccccc2)CC1 (protonated)
O=C(c1ccccc1CS(=O)(=O)c1ccccc1)[NH+]1CCN(Cc2ccccc2)CC1 (3D coordinates assigned)
O=C(c1ccccc1CS(=O)(=O)c1ccccc1)[NH+]1CCN(Cc2ccccc2)CC1 (nonaromatic ring conformer: 80.52245779855082 kcal/mol)

>  <smiles>  (66) 
O=C(c1ccccc1CS(=O)(=O)c1ccccc1)N1CCN(Cc2ccccc2)CC1

>  <score_type>  (66) 
oracle

>  <origin>  (66) 
adg

>  <m_score__min__energy>  (66) 
-8.2100000000000009

>  <m_primary>  (66) 
energy

$$$$
66:0
     RDKit          3D

 56 59  0  0  0  0  0  0  0  0999 V2000
   56.6400   21.4110   43.5940 C   0  0  0  0  0  0  0  0  0  0  0  0
   57.4330   22.4520   44.3270 C   0  0  0  0  0  0  0  0  0  0  0  0
   58.7940   22.2460   44.5810 C   0  0  0  0  0  0  0  0  0  0  0  0
   59.5440   23.2230   45.2390 C   0  0  0  0  0  0  0  0  0  0  0  0
   58.9480   24.4270   45.6520 C   0  0  0  0  0  0  0  0  0  0  0  0
   59.7950   25.4580   46.3600 C   0  0  0  0  0  0  0  0  0  0  0  0
   57.5770   24.6520   45.3790 C   0  0  0  0  0  0  0  0  0  0  0  0
   56.7600   26.1350   45.8960 S   0  0  0  0  0  0  0  0  0  0  0  0
   57.2580   26.5780   47.2460 O   0  0  0  0  0  0  0  0  0  0  0  0
   55.2800   25.8860   45.9930 O   0  0  0  0  0  0  0  0  0  0  0  0
   57.0490   27.3800   44.7520 O   0  0  0  0  0  0  0  0  0  0  0  0
   57.6980   28.5860   45.0440 C   0  0  0  0  0  0  0  0  0  0  0  0
   59.0570   28.6470   45.3980 C   0  0  0  0  0  0  0  0  0  0  0  0
   59.6660   29.8750   45.6670 C   0  0  0  0  0  0  0  0  0  0  0  0
   58.9200   31.0570   45.5880 C   0  0  0  0  0  0  0  0  0  0  0  0
   59.4910   32.2990   45.8720 C   0  0  0  0  0  0  0  0  0  0  0  0
   58.7050   33.4550   45.8180 C   0  0  0  0  0  0  0  0  0  0  0  0
   59.3060   34.7610   46.1680 C   0  0  0  0  0  0  0  0  0  0  0  0
   59.5650   35.5760   45.2470 O   0  0  0  0  0  0  0  0  0  0  0  0
   59.6560   35.1160   47.5130 N   0  0  0  0  0  0  0  0  0  0  0  0
   60.5050   34.3510   48.4310 C   0  0  0  0  0  0  0  0  0  0  0  0
   59.6640   33.5420   49.4260 C   0  0  0  0  0  0  0  0  0  0  0  0
   59.8210   32.0550   49.2350 C   0  0  0  0  0  0  0  0  0  0  0  0
   61.0490   31.5150   48.8060 C   0  0  0  0  0  0  0  0  0  0  0  0
   61.1930   30.1330   48.6400 C   0  0  0  0  0  0  0  0  0  0  0  0
   60.1140   29.2840   48.8970 C   0  0  0  0  0  0  0  0  0  0  0  0
   58.8860   29.8140   49.3140 C   0  0  0  0  0  0  0  0  0  0  0  0
   58.7380   31.1930   49.4820 C   0  0  0  0  0  0  0  0  0  0  0  0
   57.3690   33.3310   45.3860 C   0  0  0  0  0  0  0  0  0  0  0  0
   56.6520   34.3540   45.2090 O   0  0  0  0  0  0  0  0  0  0  0  0
   56.8520   32.1300   45.1340 O   0  0  0  0  0  0  0  0  0  0  0  0
   57.5600   31.0070   45.2320 C   0  0  0  0  0  0  0  0  0  0  0  0
   56.9570   29.7720   44.9730 C   0  0  0  0  0  0  0  0  0  0  0  0
   56.8360   23.6620   44.7090 C   0  0  0  0  0  0  0  0  0  0  0  0
   56.1390   20.7534   44.3196 H   0  0  0  0  0  0  0  0  0  0  0  0
   55.8852   21.9024   42.9624 H   0  0  0  0  0  0  0  0  0  0  0  0
   57.3142   20.8138   42.9624 H   0  0  0  0  0  0  0  0  0  0  0  0
   59.2751   21.3100   44.2608 H   0  0  0  0  0  0  0  0  0  0  0  0
   60.6120   23.0485   45.4361 H   0  0  0  0  0  0  0  0  0  0  0  0
   59.6920   25.3327   47.4480 H   0  0  0  0  0  0  0  0  0  0  0  0
   60.8489   25.3259   46.0738 H   0  0  0  0  0  0  0  0  0  0  0  0
   59.4609   26.4662   46.0738 H   0  0  0  0  0  0  0  0  0  0  0  0
   59.6457   27.7201   45.4637 H   0  0  0  0  0  0  0  0  0  0  0  0
   60.7307   29.9132   45.9406 H   0  0  0  0  0  0  0  0  0  0  0  0
   60.5562   32.3684   46.1375 H   0  0  0  0  0  0  0  0  0  0  0  0
   61.1320   33.6606   47.8477 H   0  0  0  0  0  0  0  0  0  0  0  0
   61.1278   35.0584   48.9982 H   0  0  0  0  0  0  0  0  0  0  0  0
   59.9782   33.8021   50.4476 H   0  0  0  0  0  0  0  0  0  0  0  0
   58.6069   33.7927   49.2534 H   0  0  0  0  0  0  0  0  0  0  0  0
   61.8987   32.1826   48.6005 H   0  0  0  0  0  0  0  0  0  0  0  0
   62.1549   29.7157   48.3075 H   0  0  0  0  0  0  0  0  0  0  0  0
   60.2287   28.1972   48.7717 H   0  0  0  0  0  0  0  0  0  0  0  0
   58.0366   29.1430   49.5095 H   0  0  0  0  0  0  0  0  0  0  0  0
   57.7718   31.6054   49.8083 H   0  0  0  0  0  0  0  0  0  0  0  0
   55.8895   29.7319   44.7108 H   0  0  0  0  0  0  0  0  0  0  0  0
   55.7744   23.8392   44.4817 H   0  0  0  0  0  0  0  0  0  0  0  0
  1  2  1  0
  2  3  2  0
  3  4  1  0
  4  5  2  0
  5  6  1  0
  5  7  1  0
  7  8  1  0
  8  9  2  0
  8 10  2  0
  8 11  1  0
 11 12  1  0
 12 13  2  0
 13 14  1  0
 14 15  2  0
 15 16  1  0
 16 17  2  0
 17 18  1  0
 18 19  2  0
 18 20  1  0
 20 21  1  0
 21 22  1  0
 22 23  1  0
 23 24  2  0
 24 25  1  0
 25 26  2  0
 26 27  1  0
 27 28  2  0
 17 29  1  0
 29 30  2  0
 29 31  1  0
 31 32  1  0
 32 33  2  0
  7 34  2  0
 34  2  1  0
 33 12  1  0
 32 15  1  0
 28 23  1  0
  1 35  1  0
  1 36  1  0
  1 37  1  0
  3 38  1  0
  4 39  1  0
  6 40  1  0
  6 41  1  0
  6 42  1  0
 13 43  1  0
 14 44  1  0
 16 45  1  0
 21 46  1  0
 21 47  1  0
 22 48  1  0
 22 49  1  0
 24 50  1  0
 25 51  1  0
 26 52  1  0
 27 53  1  0
 28 54  1  0
 33 55  1  0
 34 56  1  0
M  CHG  1  20  -1
M  END
>  <UniqueID>  (67) 
64

>  <SMILES>  (67) 
Cc1ccc(C)c(S(=O)(=O)Oc2ccc3cc(C(=O)[N-]CCc4ccccc4)c(=O)oc3c2)c1

>  <Energy>  (67) 
64.85240684821193

>  <Genealogy>  (67) 
Cc1ccc(C)c(S(=O)(=O)Oc2ccc3cc(C(=O)[N-]CCc4ccccc4)c(=O)oc3c2)c1 (protonated)
Cc1ccc(C)c(S(=O)(=O)Oc2ccc3cc(C(=O)[N-]CCc4ccccc4)c(=O)oc3c2)c1 (3D coordinates assigned)
Cc1ccc(C)c(S(=O)(=O)Oc2ccc3cc(C(=O)[N-]CCc4ccccc4)c(=O)oc3c2)c1 (optimized conformer: 64.85240684821193 kcal/mol)

>  <smiles>  (67) 
Cc1ccc(C)c(S(=O)(=O)Oc2ccc3cc(C(=O)NCCc4ccccc4)c(=O)oc3c2)c1

>  <score_type>  (67) 
oracle

>  <origin>  (67) 
adg

>  <m_score__min__energy>  (67) 
-11.710000000000001

>  <m_primary>  (67) 
energy

$$$$
67:0
     RDKit          3D

 67 71  0  0  0  0  0  0  0  0999 V2000
   68.6320   33.8240   50.6220 C   0  0  0  0  0  0  0  0  0  0  0  0
   67.1720   33.7300   50.4950 N   0  0  0  0  0  0  0  0  0  0  0  0
   66.7420   32.3210   50.5170 C   0  0  0  0  0  0  0  0  0  0  0  0
   65.2280   32.2230   50.2400 C   0  0  0  0  0  0  0  0  0  0  0  0
   64.5510   33.5330   50.3920 N   0  0  0  0  0  0  0  0  0  0  0  0
   63.0800   33.3750   50.3890 C   0  0  0  0  0  0  0  0  0  0  0  0
   62.5330   33.5110   48.9880 C   0  0  0  0  0  0  0  0  0  0  0  0
   63.3850   33.2870   47.8920 C   0  0  0  0  0  0  0  0  0  0  0  0
   62.9240   33.4620   46.5860 C   0  0  0  0  0  0  0  0  0  0  0  0
   61.6110   33.8780   46.3580 C   0  0  0  0  0  0  0  0  0  0  0  0
   60.7560   34.1170   47.4360 C   0  0  0  0  0  0  0  0  0  0  0  0
   61.2010   33.9250   48.7510 C   0  0  0  0  0  0  0  0  0  0  0  0
   60.0380   34.2130   50.0980 S   0  0  0  0  0  0  0  0  0  0  0  0
   59.5470   32.4910   50.1620 C   0  0  0  0  0  0  0  0  0  0  0  0
   59.5010   31.6930   51.2950 C   0  0  0  0  0  0  0  0  0  0  0  0
   59.1500   30.4020   51.0640 N   0  0  0  0  0  0  0  0  0  0  0  0
   58.9070   30.1710   49.7540 C   0  0  0  0  0  0  0  0  0  0  0  0
   58.5830   28.9890   49.3140 N   0  0  0  0  0  0  0  0  0  0  0  0
   59.3220   28.1550   48.4050 C   0  0  0  0  0  0  0  0  0  0  0  0
   60.0100   27.1870   48.8330 O   0  0  0  0  0  0  0  0  0  0  0  0
   59.2770   28.4330   46.9510 C   0  0  0  0  0  0  0  0  0  0  0  0
   60.3270   28.0250   46.1090 C   0  0  0  0  0  0  0  0  0  0  0  0
   60.2900   28.3080   44.7420 C   0  0  0  0  0  0  0  0  0  0  0  0
   59.2110   29.0070   44.1990 C   0  0  0  0  0  0  0  0  0  0  0  0
   58.1530   29.4180   45.0190 C   0  0  0  0  0  0  0  0  0  0  0  0
   56.8060   30.3370   44.3360 S   0  0  0  0  0  0  0  0  0  0  0  0
   56.7780   30.1270   42.8470 O   0  0  0  0  0  0  0  0  0  0  0  0
   55.5190   29.8060   44.9030 O   0  0  0  0  0  0  0  0  0  0  0  0
   56.9100   32.0490   44.6680 N   0  0  0  0  0  0  0  0  0  0  0  0
   57.8420   32.7250   43.7670 C   0  0  0  0  0  0  0  0  0  0  0  0
   58.3500   33.9540   44.5090 C   0  0  0  0  0  0  0  0  0  0  0  0
   58.0090   33.7140   45.9730 C   0  0  0  0  0  0  0  0  0  0  0  0
   57.4020   32.3210   46.0170 C   0  0  0  0  0  0  0  0  0  0  0  0
   58.1890   29.1310   46.3910 C   0  0  0  0  0  0  0  0  0  0  0  0
   59.1140   31.5640   48.8260 S   0  0  0  0  0  0  0  0  0  0  0  0
   64.9950   34.1990   51.6300 C   0  0  0  0  0  0  0  0  0  0  0  0
   66.5120   34.4820   51.5830 C   0  0  0  0  0  0  0  0  0  0  0  0
   68.9070   33.8417   51.6869 H   0  0  0  0  0  0  0  0  0  0  0  0
   69.0990   32.9541   50.1371 H   0  0  0  0  0  0  0  0  0  0  0  0
   68.9836   34.7466   50.1371 H   0  0  0  0  0  0  0  0  0  0  0  0
   67.2899   31.7616   49.7444 H   0  0  0  0  0  0  0  0  0  0  0  0
   66.9541   31.8959   51.5091 H   0  0  0  0  0  0  0  0  0  0  0  0
   65.0775   31.8624   49.2118 H   0  0  0  0  0  0  0  0  0  0  0  0
   64.7923   31.5277   50.9726 H   0  0  0  0  0  0  0  0  0  0  0  0
   62.8225   32.3806   50.7825 H   0  0  0  0  0  0  0  0  0  0  0  0
   62.6380   34.1603   51.0198 H   0  0  0  0  0  0  0  0  0  0  0  0
   64.4243   32.9710   48.0653 H   0  0  0  0  0  0  0  0  0  0  0  0
   63.5958   33.2720   45.7359 H   0  0  0  0  0  0  0  0  0  0  0  0
   61.2496   34.0176   45.3285 H   0  0  0  0  0  0  0  0  0  0  0  0
   59.7266   34.4582   47.2518 H   0  0  0  0  0  0  0  0  0  0  0  0
   59.7305   32.0753   52.3005 H   0  0  0  0  0  0  0  0  0  0  0  0
   61.1838   27.4789   46.5304 H   0  0  0  0  0  0  0  0  0  0  0  0
   61.1137   27.9790   44.0913 H   0  0  0  0  0  0  0  0  0  0  0  0
   59.1916   29.2358   43.1232 H   0  0  0  0  0  0  0  0  0  0  0  0
   58.6807   32.0581   43.5183 H   0  0  0  0  0  0  0  0  0  0  0  0
   57.3494   33.0060   42.8244 H   0  0  0  0  0  0  0  0  0  0  0  0
   59.4373   34.0592   44.3796 H   0  0  0  0  0  0  0  0  0  0  0  0
   57.8915   34.8789   44.1292 H   0  0  0  0  0  0  0  0  0  0  0  0
   58.9165   33.7592   46.5930 H   0  0  0  0  0  0  0  0  0  0  0  0
   57.3192   34.4759   46.3650 H   0  0  0  0  0  0  0  0  0  0  0  0
   58.1649   31.5812   46.3013 H   0  0  0  0  0  0  0  0  0  0  0  0
   56.5926   32.2592   46.7594 H   0  0  0  0  0  0  0  0  0  0  0  0
   57.3592   29.4542   47.0367 H   0  0  0  0  0  0  0  0  0  0  0  0
   64.4535   35.1498   51.7428 H   0  0  0  0  0  0  0  0  0  0  0  0
   64.7848   33.5369   52.4829 H   0  0  0  0  0  0  0  0  0  0  0  0
   66.6695   35.5583   51.4197 H   0  0  0  0  0  0  0  0  0  0  0  0
   66.9517   34.1614   52.5390 H   0  0  0  0  0  0  0  0  0  0  0  0
  1  2  1  0
  2  3  1  0
  3  4  1  0
  4  5  1  0
  5  6  1  0
  6  7  1  0
  7  8  2  0
  8  9  1  0
  9 10  2  0
 10 11  1  0
 11 12  2  0
 12 13  1  0
 13 14  1  0
 14 15  2  0
 15 16  1  0
 16 17  1  0
 17 18  2  3
 18 19  1  0
 19 20  2  0
 19 21  1  0
 21 22  2  0
 22 23  1  0
 23 24  2  0
 24 25  1  0
 25 26  1  0
 26 27  2  0
 26 28  2  0
 26 29  1  0
 29 30  1  0
 30 31  1  0
 31 32  1  0
 32 33  1  0
 25 34  2  0
 17 35  1  0
  5 36  1  0
 36 37  1  0
 37  2  1  0
 12  7  1  0
 35 14  1  0
 34 21  1  0
 33 29  1  0
  1 38  1  0
  1 39  1  0
  1 40  1  0
  3 41  1  0
  3 42  1  0
  4 43  1  0
  4 44  1  0
  6 45  1  0
  6 46  1  0
  8 47  1  0
  9 48  1  0
 10 49  1  0
 11 50  1  0
 15 51  1  0
 22 52  1  0
 23 53  1  0
 24 54  1  0
 30 55  1  0
 30 56  1  0
 31 57  1  0
 31 58  1  0
 32 59  1  0
 32 60  1  0
 33 61  1  0
 33 62  1  0
 34 63  1  0
 36 64  1  0
 36 65  1  0
 37 66  1  0
 37 67  1  0
M  CHG  1  16  -1
M  END
>  <UniqueID>  (68) 
65

>  <SMILES>  (68) 
CN1CCN(Cc2ccccc2Sc2c[n-]c(=NC(=O)c3cccc(S(=O)(=O)N4CCCC4)c3)s2)CC1

>  <Energy>  (68) 
110.93432359500024

>  <Genealogy>  (68) 
CN1CCN(Cc2ccccc2Sc2c[n-]c(=NC(=O)c3cccc(S(=O)(=O)N4CCCC4)c3)s2)CC1 (protonated)
CN1CCN(Cc2ccccc2Sc2c[n-]c(=NC(=O)c3cccc(S(=O)(=O)N4CCCC4)c3)s2)CC1 (3D coordinates assigned)
CN1CCN(Cc2ccccc2Sc2c[n-]c(=NC(=O)c3cccc(S(=O)(=O)N4CCCC4)c3)s2)CC1 (nonaromatic ring conformer: 110.93432359500024 kcal/mol)

>  <smiles>  (68) 
CN1CCN(Cc2ccccc2Sc2c[nH]c(=NC(=O)c3cccc(S(=O)(=O)N4CCCC4)c3)s2)CC1

>  <score_type>  (68) 
oracle

>  <origin>  (68) 
adg

>  <m_score__min__energy>  (68) 
-12.59

>  <m_primary>  (68) 
energy

$$$$
68:0
     RDKit          3D

 37 38  0  0  0  0  0  0  0  0999 V2000
   63.7720   32.9560   47.1100 C   0  0  0  0  0  0  0  0  0  0  0  0
   62.2870   32.9570   47.3460 C   0  0  0  0  0  0  0  0  0  0  0  0
   61.4560   33.8160   46.6200 C   0  0  0  0  0  0  0  0  0  0  0  0
   60.1020   33.7950   46.7950 N   0  0  0  0  0  0  0  0  0  0  0  0
   59.2800   34.6940   45.9710 C   0  0  0  0  0  0  0  0  0  0  0  0
   58.7540   33.9850   44.8510 O   0  0  0  0  0  0  0  0  0  0  0  0
   57.5700   33.2400   44.9010 C   0  0  0  0  0  0  0  0  0  0  0  0
   56.6410   33.5690   45.6860 O   0  0  0  0  0  0  0  0  0  0  0  0
   57.4190   32.0070   44.0640 C   0  0  0  0  0  0  0  0  0  0  0  0
   56.2870   31.1960   44.5110 N   0  0  0  0  0  0  0  0  0  0  0  0
   56.3210   29.8020   44.8460 C   0  0  0  0  0  0  0  0  0  0  0  0
   55.2360   29.1620   44.8710 O   0  0  0  0  0  0  0  0  0  0  0  0
   57.5780   29.0870   45.1480 C   0  0  0  0  0  0  0  0  0  0  0  0
   57.7790   27.7880   44.6540 C   0  0  0  0  0  0  0  0  0  0  0  0
   58.9530   27.0910   44.9590 C   0  0  0  0  0  0  0  0  0  0  0  0
   59.9290   27.6800   45.7660 C   0  0  0  0  0  0  0  0  0  0  0  0
   61.0680   27.0060   46.0550 F   0  0  0  0  0  0  0  0  0  0  0  0
   59.7240   28.9620   46.2850 C   0  0  0  0  0  0  0  0  0  0  0  0
   58.5480   29.6590   45.9890 C   0  0  0  0  0  0  0  0  0  0  0  0
   59.5450   32.9200   47.6930 C   0  0  0  0  0  0  0  0  0  0  0  0
   58.2970   32.8900   47.8730 O   0  0  0  0  0  0  0  0  0  0  0  0
   60.3380   32.0690   48.4010 N   0  0  0  0  0  0  0  0  0  0  0  0
   61.6860   32.0630   48.2400 C   0  0  0  0  0  0  0  0  0  0  0  0
   62.3890   31.2480   48.8980 O   0  0  0  0  0  0  0  0  0  0  0  0
   64.2969   32.9556   48.0767 H   0  0  0  0  0  0  0  0  0  0  0  0
   64.0521   32.0577   46.5403 H   0  0  0  0  0  0  0  0  0  0  0  0
   64.0533   33.8540   46.5403 H   0  0  0  0  0  0  0  0  0  0  0  0
   61.8991   34.5180   45.8983 H   0  0  0  0  0  0  0  0  0  0  0  0
   58.4496   35.0857   46.5768 H   0  0  0  0  0  0  0  0  0  0  0  0
   59.9041   35.5253   45.6112 H   0  0  0  0  0  0  0  0  0  0  0  0
   57.2567   32.3025   43.0169 H   0  0  0  0  0  0  0  0  0  0  0  0
   58.3357   31.4069   44.1617 H   0  0  0  0  0  0  0  0  0  0  0  0
   57.0100   27.3164   44.0245 H   0  0  0  0  0  0  0  0  0  0  0  0
   59.1078   26.0768   44.5623 H   0  0  0  0  0  0  0  0  0  0  0  0
   60.4888   29.4232   46.9271 H   0  0  0  0  0  0  0  0  0  0  0  0
   58.3816   30.6589   46.4162 H   0  0  0  0  0  0  0  0  0  0  0  0
   59.8990   31.4030   49.0760 H   0  0  0  0  0  0  0  0  0  0  0  0
  1  2  1  0
  2  3  2  0
  3  4  1  0
  4  5  1  0
  5  6  1  0
  6  7  1  0
  7  8  2  0
  7  9  1  0
  9 10  1  0
 10 11  1  0
 11 12  2  0
 11 13  1  0
 13 14  2  0
 14 15  1  0
 15 16  2  0
 16 17  1  0
 16 18  1  0
 18 19  2  0
  4 20  1  0
 20 21  2  0
 20 22  1  0
 22 23  1  0
 23 24  2  0
 23  2  1  0
 19 13  1  0
  1 25  1  0
  1 26  1  0
  1 27  1  0
  3 28  1  0
  5 29  1  0
  5 30  1  0
  9 31  1  0
  9 32  1  0
 14 33  1  0
 15 34  1  0
 18 35  1  0
 19 36  1  0
 22 37  1  0
M  CHG  1  10  -1
M  END
>  <UniqueID>  (69) 
66

>  <SMILES>  (69) 
Cc1cn(COC(=O)C[N-]C(=O)c2ccc(F)cc2)c(=O)[nH]c1=O

>  <Energy>  (69) 
39.678897211946804

>  <Genealogy>  (69) 
Cc1cn(COC(=O)C[N-]C(=O)c2ccc(F)cc2)c(=O)[nH]c1=O (protonated)
Cc1cn(COC(=O)C[N-]C(=O)c2ccc(F)cc2)c(=O)[nH]c1=O (3D coordinates assigned)
Cc1cn(COC(=O)C[N-]C(=O)c2ccc(F)cc2)c(=O)[nH]c1=O (optimized conformer: 39.678897211946804 kcal/mol)

>  <smiles>  (69) 
Cc1cn(COC(=O)CNC(=O)c2ccc(F)cc2)c(=O)[nH]c1=O

>  <score_type>  (69) 
oracle

>  <origin>  (69) 
adg

>  <m_score__min__energy>  (69) 
-9.7300000000000004

>  <m_primary>  (69) 
energy

$$$$
69:0
     RDKit          3D

 63 66  0  0  1  0  0  0  0  0999 V2000
   57.2220   31.2260   51.7920 C   0  0  0  0  0  0  0  0  0  0  0  0
   57.6810   30.0960   51.0640 O   0  0  0  0  0  0  0  0  0  0  0  0
   58.8560   30.2140   50.3360 C   0  0  0  0  0  0  0  0  0  0  0  0
   60.0960   30.3800   50.9320 C   0  0  0  0  0  0  0  0  0  0  0  0
   61.2670   30.4990   50.2340 C   0  0  0  0  0  0  0  0  0  0  0  0
   61.2360   30.4540   48.8790 C   0  0  0  0  0  0  0  0  0  0  0  0
   60.0020   30.2880   48.2420 C   0  0  0  0  0  0  0  0  0  0  0  0
   60.0010   30.2430   46.8160 O   0  0  0  0  0  0  0  0  0  0  0  0
   58.7950   30.1010   46.1510 C   0  0  0  0  0  0  0  0  0  0  0  0
   58.2300   28.8260   46.1940 C   0  0  0  0  0  0  0  0  0  0  0  0
   58.9150   27.8630   46.8700 O   0  0  0  0  0  0  0  0  0  0  0  0
   59.8850   27.0360   46.3520 C   0  0  0  0  0  0  0  0  0  0  0  0
   59.5550   25.5960   46.1710 C   0  0  0  0  0  0  0  0  0  0  0  0
   58.2040   25.3590   46.7150 N   0  0  0  0  0  0  0  0  0  0  0  0
   57.1450   25.4180   45.3350 S   0  0  0  0  0  0  0  0  0  0  0  0
   55.7430   25.7440   45.7890 O   0  0  0  0  0  0  0  0  0  0  0  0
   57.6740   26.4440   44.3720 O   0  0  0  0  0  0  0  0  0  0  0  0
   57.1190   23.8510   44.5610 C   0  0  0  0  0  0  0  0  0  0  0  0
   57.8710   22.7890   45.0350 C   0  0  0  0  0  0  0  0  0  0  0  0
   57.7960   21.5700   44.3600 C   0  0  0  0  0  0  0  0  0  0  0  0
   56.9740   21.4440   43.2370 C   0  0  0  0  0  0  0  0  0  0  0  0
   56.2240   22.5140   42.7690 C   0  0  0  0  0  0  0  0  0  0  0  0
   56.3050   23.7150   43.4410 C   0  0  0  0  0  0  0  0  0  0  0  0
   57.0590   28.6640   45.5590 N   0  0  0  0  0  0  0  0  0  0  0  0
   56.4290   29.6670   44.9000 C   0  0  0  0  0  0  0  0  0  0  0  0
   55.2430   29.4590   44.2730 F   0  0  0  0  0  0  0  0  0  0  0  0
   56.9850   30.8810   44.8700 N   0  0  0  0  0  0  0  0  0  0  0  0
   58.1670   31.1120   45.4890 C   0  0  0  0  0  0  0  0  0  0  0  0
   58.6720   32.2450   45.3790 N   0  0  0  0  0  0  0  0  0  0  0  0
   58.8630   33.4270   46.5290 S   0  0  0  0  0  0  0  0  0  0  0  0
   58.0810   32.7710   47.7360 O   0  0  0  0  0  0  0  0  0  0  0  0
   58.1270   34.6960   46.4850 O   0  0  0  0  0  0  0  0  0  0  0  0
   60.4550   33.4880   47.2590 C   0  0  0  0  0  0  0  0  0  0  0  0
   61.5900   32.9830   46.7070 C   0  0  0  0  0  0  0  0  0  0  0  0
   62.8390   33.0640   47.3050 C   0  0  0  0  0  0  0  0  0  0  0  0
   62.9750   33.6850   48.5290 C   0  0  0  0  0  0  0  0  0  0  0  0
   61.8490   34.2070   49.1160 C   0  0  0  0  0  0  0  0  0  0  0  0
   60.6010   34.1190   48.5040 C   0  0  0  0  0  0  0  0  0  0  0  0
   59.4550   34.6570   49.1160 O   0  0  0  0  0  0  0  0  0  0  0  0
   58.8260   30.1690   48.9510 C   0  0  0  0  0  0  0  0  0  0  0  0
   57.3036   31.0252   52.8704 H   0  0  0  0  0  0  0  0  0  0  0  0
   57.8356   32.1019   51.5347 H   0  0  0  0  0  0  0  0  0  0  0  0
   56.1714   31.4259   51.5347 H   0  0  0  0  0  0  0  0  0  0  0  0
   60.1417   30.4183   52.0304 H   0  0  0  0  0  0  0  0  0  0  0  0
   62.2213   30.6295   50.7653 H   0  0  0  0  0  0  0  0  0  0  0  0
   62.1623   30.5462   48.2930 H   0  0  0  0  0  0  0  0  0  0  0  0
   60.1607   27.4345   45.3645 H   0  0  0  0  0  0  0  0  0  0  0  0
   60.6821   27.0409   47.1100 H   0  0  0  0  0  0  0  0  0  0  0  0
   59.5752   25.3413   45.1011 H   0  0  0  0  0  0  0  0  0  0  0  0
   60.2907   24.9694   46.6964 H   0  0  0  0  0  0  0  0  0  0  0  0
   57.9510   26.1610   47.3310 H   0  0  0  0  0  0  0  0  0  0  0  0
   58.5117   22.9036   45.9218 H   0  0  0  0  0  0  0  0  0  0  0  0
   58.3834   20.7090   44.7116 H   0  0  0  0  0  0  0  0  0  0  0  0
   56.9203   20.4779   42.7137 H   0  0  0  0  0  0  0  0  0  0  0  0
   55.5805   22.4063   41.8833 H   0  0  0  0  0  0  0  0  0  0  0  0
   55.7190   24.5761   43.0874 H   0  0  0  0  0  0  0  0  0  0  0  0
   56.5810   27.7420   45.5260 H   0  0  0  0  0  0  0  0  0  0  0  0
   61.5136   32.4817   45.7308 H   0  0  0  0  0  0  0  0  0  0  0  0
   63.7189   32.6340   46.8042 H   0  0  0  0  0  0  0  0  0  0  0  0
   63.9564   33.7598   49.0202 H   0  0  0  0  0  0  0  0  0  0  0  0
   61.9345   34.7064   50.0924 H   0  0  0  0  0  0  0  0  0  0  0  0
   58.5640   34.7020   48.6700 H   0  0  0  0  0  0  0  0  0  0  0  0
   57.8706   30.0393   48.4215 H   0  0  0  0  0  0  0  0  0  0  0  0
  1  2  1  0
  2  3  1  0
  3  4  2  0
  4  5  1  0
  5  6  2  0
  6  7  1  0
  7  8  1  0
  8  9  1  0
  9 10  2  0
 10 11  1  0
 11 12  1  0
 12 13  1  0
 13 14  1  0
 14 15  1  0
 15 16  2  0
 15 17  2  0
 15 18  1  0
 18 19  2  0
 19 20  1  0
 20 21  2  0
 21 22  1  0
 22 23  2  0
 10 24  1  0
 24 25  1  0
 25 26  1  0
 25 27  2  0
 27 28  1  0
 28 29  2  0
 29 30  1  0
 30 31  2  0
 30 32  2  0
 30 33  1  0
 33 34  2  0
 34 35  1  0
 35 36  2  0
 36 37  1  0
 37 38  2  0
 38 39  1  0
  7 40  2  0
 40  3  1  0
 28  9  1  0
 38 33  1  0
 23 18  1  0
  1 41  1  0
  1 42  1  0
  1 43  1  0
  4 44  1  0
  5 45  1  0
  6 46  1  0
 12 47  1  0
 12 48  1  0
 13 49  1  0
 13 50  1  0
 14 51  1  0
 19 52  1  0
 20 53  1  0
 21 54  1  0
 22 55  1  0
 23 56  1  0
 24 57  1  0
 34 58  1  0
 35 59  1  0
 36 60  1  0
 37 61  1  0
 39 62  1  0
 40 63  1  0
M  END
>  <smiles>  (70) 
COc1cccc(Oc2c(OCCNS(=O)(=O)c3ccccc3)[nH]c(F)nc2=NS(=O)(=O)c2ccccc2O)c1

>  <score_type>  (70) 
oracle

>  <origin>  (70) 
adg

>  <m_score__min__energy>  (70) 
-10.06

>  <m_primary>  (70) 
energy

$$$$
70:0
     RDKit          3D

 79 84  0  0  0  0  0  0  0  0999 V2000
   68.1070   28.1900   50.9250 C   0  0  0  0  0  0  0  0  0  0  0  0
   66.8650   28.9220   51.1490 N   0  0  0  0  0  0  0  0  0  0  0  0
   66.6740   30.2490   50.9700 C   0  0  0  0  0  0  0  0  0  0  0  0
   65.3700   30.5980   51.3100 C   0  0  0  0  0  0  0  0  0  0  0  0
   64.7890   31.9560   51.2480 C   0  0  0  0  0  0  0  0  0  0  0  0
   65.5600   33.0430   51.6930 C   0  0  0  0  0  0  0  0  0  0  0  0
   65.0380   34.3380   51.6730 C   0  0  0  0  0  0  0  0  0  0  0  0
   65.7880   35.3780   52.1120 F   0  0  0  0  0  0  0  0  0  0  0  0
   63.7450   34.5630   51.1990 C   0  0  0  0  0  0  0  0  0  0  0  0
   62.9740   33.4960   50.7350 C   0  0  0  0  0  0  0  0  0  0  0  0
   63.4820   32.1860   50.7520 C   0  0  0  0  0  0  0  0  0  0  0  0
   62.7190   31.1140   50.1760 N   0  0  0  0  0  0  0  0  0  0  0  0
   61.2980   30.9790   50.3570 C   0  0  0  0  0  0  0  0  0  0  0  0
   60.6800   31.7760   51.1150 O   0  0  0  0  0  0  0  0  0  0  0  0
   60.5650   29.8600   49.7280 C   0  0  0  0  0  0  0  0  0  0  0  0
   61.2420   28.6790   49.3830 C   0  0  0  0  0  0  0  0  0  0  0  0
   60.5660   27.6380   48.7410 C   0  0  0  0  0  0  0  0  0  0  0  0
   59.1960   27.7510   48.4550 C   0  0  0  0  0  0  0  0  0  0  0  0
   58.4740   26.6560   47.7120 C   0  0  0  0  0  0  0  0  0  0  0  0
   57.8900   27.1650   46.3790 C   0  0  2  0  0  0  0  0  0  0  0  0
   57.9700   28.6220   46.3100 N   0  0  0  0  0  0  0  0  0  0  0  0
   58.7850   29.3390   45.3750 C   0  0  0  0  0  0  0  0  0  0  0  0
   60.0420   29.2420   45.4270 O   0  0  0  0  0  0  0  0  0  0  0  0
   58.1490   30.2540   44.3600 C   0  0  1  0  0  0  0  0  0  0  0  0
   57.2980   29.4710   43.3510 C   0  0  0  0  0  0  0  0  0  0  0  0
   55.8670   29.7460   43.7490 C   0  0  0  0  0  0  0  0  0  0  0  0
   55.9340   31.1080   44.4060 C   0  0  0  0  0  0  0  0  0  0  0  0
   57.2520   31.2070   45.0390 N   0  0  0  0  0  0  0  0  0  0  0  0
   57.8660   32.8440   45.0150 S   0  0  0  0  0  0  0  0  0  0  0  0
   56.7090   33.8020   45.0780 O   0  0  0  0  0  0  0  0  0  0  0  0
   58.5930   33.0770   43.7200 O   0  0  0  0  0  0  0  0  0  0  0  0
   58.9650   33.1730   46.3610 C   0  0  0  0  0  0  0  0  0  0  0  0
   58.5120   33.8710   47.4910 C   0  0  0  0  0  0  0  0  0  0  0  0
   59.3830   34.1310   48.5530 C   0  0  0  0  0  0  0  0  0  0  0  0
   60.7130   33.7080   48.4900 C   0  0  0  0  0  0  0  0  0  0  0  0
   61.1750   33.0240   47.3600 C   0  0  0  0  0  0  0  0  0  0  0  0
   62.8470   32.4990   47.2760 Cl  0  0  0  0  0  0  0  0  0  0  0  0
   60.3050   32.7620   46.2960 C   0  0  0  0  0  0  0  0  0  0  0  0
   56.4520   26.7540   46.2410 C   0  0  0  0  0  0  0  0  0  0  0  0
   55.6480   27.4740   45.5930 O   0  0  0  0  0  0  0  0  0  0  0  0
   56.0120   25.5520   46.7820 O   0  0  0  0  0  0  0  0  0  0  0  0
   58.5140   28.9210   48.8230 C   0  0  0  0  0  0  0  0  0  0  0  0
   59.1920   29.9680   49.4510 C   0  0  0  0  0  0  0  0  0  0  0  0
   64.7680   29.4260   51.7410 C   0  0  0  0  0  0  0  0  0  0  0  0
   63.5020   29.1810   52.2750 C   0  0  0  0  0  0  0  0  0  0  0  0
   63.1850   27.8620   52.6450 C   0  0  0  0  0  0  0  0  0  0  0  0
   64.1370   26.8310   52.5000 C   0  0  0  0  0  0  0  0  0  0  0  0
   65.4170   27.1100   51.9910 C   0  0  0  0  0  0  0  0  0  0  0  0
   65.7030   28.4270   51.6200 C   0  0  0  0  0  0  0  0  0  0  0  0
   68.5563   27.9252   51.8935 H   0  0  0  0  0  0  0  0  0  0  0  0
   67.8945   27.2727   50.3563 H   0  0  0  0  0  0  0  0  0  0  0  0
   68.8066   28.8202   50.3563 H   0  0  0  0  0  0  0  0  0  0  0  0
   67.4391   30.9515   50.6078 H   0  0  0  0  0  0  0  0  0  0  0  0
   66.5829   32.8726   52.0600 H   0  0  0  0  0  0  0  0  0  0  0  0
   63.3327   35.5828   51.1910 H   0  0  0  0  0  0  0  0  0  0  0  0
   61.9596   33.6823   50.3526 H   0  0  0  0  0  0  0  0  0  0  0  0
   63.2400   30.3140   49.7530 H   0  0  0  0  0  0  0  0  0  0  0  0
   62.3110   28.5727   49.6196 H   0  0  0  0  0  0  0  0  0  0  0  0
   61.1102   26.7249   48.4581 H   0  0  0  0  0  0  0  0  0  0  0  0
   59.1812   25.8397   47.5035 H   0  0  0  0  0  0  0  0  0  0  0  0
   57.6424   26.3041   48.3402 H   0  0  0  0  0  0  0  0  0  0  0  0
   58.4795   26.7221   45.5627 H   0  0  0  0  0  0  0  0  0  0  0  0
   58.9650   30.7726   43.8353 H   0  0  0  0  0  0  0  0  0  0  0  0
   57.4893   29.8249   42.3272 H   0  0  0  0  0  0  0  0  0  0  0  0
   57.5302   28.3958   43.3614 H   0  0  0  0  0  0  0  0  0  0  0  0
   55.2114   29.7680   42.8660 H   0  0  0  0  0  0  0  0  0  0  0  0
   55.4522   28.9724   44.4119 H   0  0  0  0  0  0  0  0  0  0  0  0
   55.8159   31.8991   43.6509 H   0  0  0  0  0  0  0  0  0  0  0  0
   55.1298   31.2296   45.1466 H   0  0  0  0  0  0  0  0  0  0  0  0
   57.4683   34.2146   47.5412 H   0  0  0  0  0  0  0  0  0  0  0  0
   59.0203   34.6701   49.4406 H   0  0  0  0  0  0  0  0  0  0  0  0
   61.3962   33.9124   49.3276 H   0  0  0  0  0  0  0  0  0  0  0  0
   60.6729   32.2318   45.4052 H   0  0  0  0  0  0  0  0  0  0  0  0
   57.4378   29.0140   48.6153 H   0  0  0  0  0  0  0  0  0  0  0  0
   58.6479   30.8823   49.7303 H   0  0  0  0  0  0  0  0  0  0  0  0
   62.7738   29.9955   52.4026 H   0  0  0  0  0  0  0  0  0  0  0  0
   62.1884   27.6326   53.0501 H   0  0  0  0  0  0  0  0  0  0  0  0
   63.8757   25.8018   52.7873 H   0  0  0  0  0  0  0  0  0  0  0  0
   66.1711   26.3158   51.8877 H   0  0  0  0  0  0  0  0  0  0  0  0
  1  2  1  0
  2  3  1  0
  3  4  2  0
  4  5  1  0
  5  6  2  0
  6  7  1  0
  7  8  1  0
  7  9  2  0
  9 10  1  0
 10 11  2  0
 11 12  1  0
 12 13  1  0
 13 14  2  0
 13 15  1  0
 15 16  2  0
 16 17  1  0
 17 18  2  0
 18 19  1  0
 19 20  1  0
 20 21  1  0
 21 22  1  0
 22 23  2  0
 22 24  1  0
 24 25  1  0
 25 26  1  0
 26 27  1  0
 27 28  1  0
 28 29  1  0
 29 30  2  0
 29 31  2  0
 29 32  1  0
 32 33  2  0
 33 34  1  0
 34 35  2  0
 35 36  1  0
 36 37  1  0
 36 38  2  0
 20 39  1  0
 39 40  2  0
 39 41  1  0
 18 42  1  0
 42 43  2  0
  4 44  1  0
 44 45  2  0
 45 46  1  0
 46 47  2  0
 47 48  1  0
 48 49  2  0
 49  2  1  0
 11  5  1  0
 43 15  1  0
 49 44  1  0
 28 24  1  0
 38 32  1  0
  1 50  1  0
  1 51  1  0
  1 52  1  0
  3 53  1  0
  6 54  1  0
  9 55  1  0
 10 56  1  0
 12 57  1  0
 16 58  1  0
 17 59  1  0
 19 60  1  0
 19 61  1  0
 20 62  1  6
 24 63  1  6
 25 64  1  0
 25 65  1  0
 26 66  1  0
 26 67  1  0
 27 68  1  0
 27 69  1  0
 33 70  1  0
 34 71  1  0
 35 72  1  0
 38 73  1  0
 42 74  1  0
 43 75  1  0
 45 76  1  0
 46 77  1  0
 47 78  1  0
 48 79  1  0
M  CHG  2  21  -1  41  -1
M  END
>  <UniqueID>  (71) 
67

>  <SMILES>  (71) 
Cn1cc(-c2cc(F)ccc2NC(=O)c2ccc(C[C@H]([N-]C(=O)[C@H]3CCCN3S(=O)(=O)c3cccc(Cl)c3)C(=O)[O-])cc2)c2ccccc21

>  <Energy>  (71) 
128.29988369957113

>  <Genealogy>  (71) 
Cn1cc(-c2cc(F)ccc2NC(=O)c2ccc(CC([N-]C(=O)C3CCCN3S(=O)(=O)c3cccc(Cl)c3)C(=O)[O-])cc2)c2ccccc21 (protonated)
Cn1cc(-c2cc(F)ccc2NC(=O)c2ccc(C[C@H]([N-]C(=O)[C@H]3CCCN3S(=O)(=O)c3cccc(Cl)c3)C(=O)[O-])cc2)c2ccccc21 (chirality)
Cn1cc(-c2cc(F)ccc2NC(=O)c2ccc(C[C@H]([N-]C(=O)[C@H]3CCCN3S(=O)(=O)c3cccc(Cl)c3)C(=O)[O-])cc2)c2ccccc21 (3D coordinates assigned)
Cn1cc(-c2cc(F)ccc2NC(=O)c2ccc(C[C@H]([N-]C(=O)[C@H]3CCCN3S(=O)(=O)c3cccc(Cl)c3)C(=O)[O-])cc2)c2ccccc21 (nonaromatic ring conformer: 128.29988369957113 kcal/mol)

>  <smiles>  (71) 
Cn1cc(-c2cc(F)ccc2NC(=O)c2ccc(CC(NC(=O)C3CCCN3S(=O)(=O)c3cccc(Cl)c3)C(=O)O)cc2)c2ccccc21

>  <score_type>  (71) 
oracle

>  <origin>  (71) 
adg

>  <m_score__min__energy>  (71) 
-15.699999999999999

>  <m_primary>  (71) 
energy

$$$$
71:0
     RDKit          3D

 34 36  0  0  0  0  0  0  0  0999 V2000
   57.1841   35.1614   44.2237 H   0  0  0  0  0  0  0  0  0  0  0  0
   57.8450   34.6180   44.9150 C   0  0  0  0  0  0  0  0  0  0  0  0
   59.1700   35.0280   45.0830 C   0  0  0  0  0  0  0  0  0  0  0  0
   59.5535   35.8896   44.5168 H   0  0  0  0  0  0  0  0  0  0  0  0
   60.0100   34.3460   45.9690 C   0  0  0  0  0  0  0  0  0  0  0  0
   61.0556   34.6654   46.0898 H   0  0  0  0  0  0  0  0  0  0  0  0
   59.5200   33.2510   46.7070 C   0  0  0  0  0  0  0  0  0  0  0  0
   60.3590   32.5070   47.6020 N   0  0  0  0  0  0  0  0  0  0  0  0
   61.3770   31.5710   47.2240 C   0  0  0  0  0  0  0  0  0  0  0  0
   62.5460   31.9660   46.9660 O   0  0  0  0  0  0  0  0  0  0  0  0
   61.0840   30.1010   47.2360 C   0  0  0  0  0  0  0  0  0  0  0  0
   60.4300   29.8730   48.0905 H   0  0  0  0  0  0  0  0  0  0  0  0
   62.0368   29.5577   47.3193 H   0  0  0  0  0  0  0  0  0  0  0  0
   60.4190   29.6810   46.0010 N   0  0  0  0  0  0  0  0  0  0  0  0
   59.2760   29.0940   45.7390 C   0  0  0  0  0  0  0  0  0  0  0  0
   58.2240   29.6910   45.0300 N   0  0  0  0  0  0  0  0  0  0  0  0
   58.4150   30.8670   44.1620 C   0  0  0  0  0  0  0  0  0  0  0  0
   58.5604   31.7623   44.7843 H   0  0  0  0  0  0  0  0  0  0  0  0
   59.3001   30.7141   43.5270 H   0  0  0  0  0  0  0  0  0  0  0  0
   57.5270   31.0021   43.5270 H   0  0  0  0  0  0  0  0  0  0  0  0
   56.9790   29.0850   45.0300 C   0  0  0  0  0  0  0  0  0  0  0  0
   55.9770   29.6270   44.4870 O   0  0  0  0  0  0  0  0  0  0  0  0
   56.8400   27.8480   45.6310 C   0  0  0  0  0  0  0  0  0  0  0  0
   55.7490   27.0730   45.7320 N   0  0  0  0  0  0  0  0  0  0  0  0
   56.2360   25.9970   46.4030 C   0  0  0  0  0  0  0  0  0  0  0  0
   55.5150   25.0120   46.7090 O   0  0  0  0  0  0  0  0  0  0  0  0
   57.5560   26.0580   46.7200 N   0  0  0  0  0  0  0  0  0  0  0  0
   57.8960   27.2480   46.2030 C   0  0  0  0  0  0  0  0  0  0  0  0
   59.1070   27.8380   46.2660 N   0  0  0  0  0  0  0  0  0  0  0  0
   59.8870   27.3600   46.7730 H   0  0  0  0  0  0  0  0  0  0  0  0
   58.1970   32.8300   46.5120 C   0  0  0  0  0  0  0  0  0  0  0  0
   57.7140   31.7590   47.1910 F   0  0  0  0  0  0  0  0  0  0  0  0
   57.3600   33.5170   45.6260 C   0  0  0  0  0  0  0  0  0  0  0  0
   56.3187   33.1900   45.4889 H   0  0  0  0  0  0  0  0  0  0  0  0
  1  2  1  0
  2  3  2  0
  3  4  1  0
  3  5  1  0
  5  6  1  0
  5  7  2  0
  7  8  1  0
  8  9  1  0
  9 10  2  0
  9 11  1  0
 11 12  1  0
 11 13  1  0
 11 14  1  0
 14 15  2  0
 15 16  1  0
 16 17  1  0
 17 18  1  0
 17 19  1  0
 17 20  1  0
 16 21  1  0
 21 22  2  0
 21 23  1  0
 23 24  1  0
 24 25  1  0
 25 26  2  0
 25 27  1  0
 27 28  1  0
 28 29  1  0
 29 30  1  0
  7 31  1  0
 31 32  1  0
 31 33  2  0
 33 34  1  0
 33  2  1  0
 29 15  1  0
 28 23  2  0
M  CHG  3   8  -1  24  -1  27  -1
M  END
>  <UniqueID>  (72) 
68

>  <SMILES>  (72) 
Cn1c(=O)c2[n-]c(=O)[n-]c2[nH]/c1=N/CC(=O)[N-]c1ccccc1F

>  <Energy>  (72) 
95.23048898534849

>  <Genealogy>  (72) 
Cn1c(=NCC(=O)[N-]c2ccccc2F)[nH]c2[n-]c(=O)[n-]c2c1=O (protonated)
Cn1c(=O)c2[n-]c(=O)[n-]c2[nH]/c1=N/CC(=O)[N-]c1ccccc1F (cis-trans isomerization)
Cn1c(=O)c2[n-]c(=O)[n-]c2[nH]/c1=N/CC(=O)[N-]c1ccccc1F (3D coordinates assigned)
Cn1c(=O)c2[n-]c(=O)[n-]c2[nH]/c1=N/CC(=O)[N-]c1ccccc1F (optimized conformer: 95.23048898534849 kcal/mol)

>  <smiles>  (72) 
Cn1c(=NCC(=O)Nc2ccccc2F)[nH]c2[nH]c(=O)[nH]c2c1=O

>  <score_type>  (72) 
oracle

>  <origin>  (72) 
adg

>  <m_score__min__energy>  (72) 
-12.6

>  <m_primary>  (72) 
energy

$$$$
72:0
     RDKit          3D

 48 50  0  0  0  0  0  0  0  0999 V2000
   55.1530   26.3890   46.1390 N   0  0  0  0  0  0  0  0  0  0  0  0
   56.5600   26.2890   46.3610 C   0  0  0  0  0  0  0  0  0  0  0  0
   56.9980   25.3780   47.1140 O   0  0  0  0  0  0  0  0  0  0  0  0
   57.4930   27.2430   45.7190 C   0  0  0  0  0  0  0  0  0  0  0  0
   58.8700   26.9630   45.6560 C   0  0  0  0  0  0  0  0  0  0  0  0
   59.7540   27.8830   45.0860 C   0  0  0  0  0  0  0  0  0  0  0  0
   59.2760   29.0890   44.5720 C   0  0  0  0  0  0  0  0  0  0  0  0
   57.9050   29.3750   44.6070 C   0  0  0  0  0  0  0  0  0  0  0  0
   57.2850   30.8910   43.9570 S   0  0  0  0  0  0  0  0  0  0  0  0
   58.3000   31.4580   43.0060 O   0  0  0  0  0  0  0  0  0  0  0  0
   56.0000   30.6730   43.2080 O   0  0  0  0  0  0  0  0  0  0  0  0
   57.0200   32.0270   45.2430 N   0  0  0  0  0  0  0  0  0  0  0  0
   57.9420   33.0450   45.6550 C   0  0  0  0  0  0  0  0  0  0  0  0
   58.2890   34.0460   44.7400 C   0  0  0  0  0  0  0  0  0  0  0  0
   59.1800   35.0590   45.1030 C   0  0  0  0  0  0  0  0  0  0  0  0
   59.7440   35.0720   46.3800 C   0  0  0  0  0  0  0  0  0  0  0  0
   59.4270   34.0630   47.3010 C   0  0  0  0  0  0  0  0  0  0  0  0
   60.0560   34.0580   48.6360 C   0  0  0  0  0  0  0  0  0  0  0  0
   59.3350   34.2230   49.6550 O   0  0  0  0  0  0  0  0  0  0  0  0
   61.4720   33.8980   48.8060 N   0  0  0  0  0  0  0  0  0  0  0  0
   62.4430   33.8320   47.7150 C   0  0  0  0  0  0  0  0  0  0  0  0
   62.9260   32.3930   47.5100 C   0  0  0  0  0  0  0  0  0  0  0  0
   61.8930   31.4120   47.9920 C   0  0  0  0  0  0  0  0  0  0  0  0
   60.9170   30.9140   47.1140 C   0  0  0  0  0  0  0  0  0  0  0  0
   59.9620   30.0010   47.5700 C   0  0  0  0  0  0  0  0  0  0  0  0
   59.9800   29.5730   48.9000 C   0  0  0  0  0  0  0  0  0  0  0  0
   60.9660   30.0410   49.7730 C   0  0  0  0  0  0  0  0  0  0  0  0
   61.9250   30.9520   49.3200 C   0  0  0  0  0  0  0  0  0  0  0  0
   58.5050   33.0680   46.9440 C   0  0  0  0  0  0  0  0  0  0  0  0
   57.0190   28.4510   45.1760 C   0  0  0  0  0  0  0  0  0  0  0  0
   54.7760   26.6870   45.2130 H   0  0  0  0  0  0  0  0  0  0  0  0
   59.2535   26.0136   46.0580 H   0  0  0  0  0  0  0  0  0  0  0  0
   60.8294   27.6559   45.0424 H   0  0  0  0  0  0  0  0  0  0  0  0
   59.9774   29.8169   44.1383 H   0  0  0  0  0  0  0  0  0  0  0  0
   57.8572   34.0349   43.7284 H   0  0  0  0  0  0  0  0  0  0  0  0
   59.4377   35.8480   44.3811 H   0  0  0  0  0  0  0  0  0  0  0  0
   60.4389   35.8758   46.6646 H   0  0  0  0  0  0  0  0  0  0  0  0
   61.9707   34.1903   46.7884 H   0  0  0  0  0  0  0  0  0  0  0  0
   63.3069   34.4632   47.9703 H   0  0  0  0  0  0  0  0  0  0  0  0
   63.1128   32.2238   46.4392 H   0  0  0  0  0  0  0  0  0  0  0  0
   63.8509   32.2448   48.0867 H   0  0  0  0  0  0  0  0  0  0  0  0
   60.9039   31.2433   46.0645 H   0  0  0  0  0  0  0  0  0  0  0  0
   59.1948   29.6187   46.8806 H   0  0  0  0  0  0  0  0  0  0  0  0
   59.2173   28.8670   49.2603 H   0  0  0  0  0  0  0  0  0  0  0  0
   60.9875   29.6927   50.8162 H   0  0  0  0  0  0  0  0  0  0  0  0
   62.7074   31.3101   50.0053 H   0  0  0  0  0  0  0  0  0  0  0  0
   58.2199   32.2996   47.6777 H   0  0  0  0  0  0  0  0  0  0  0  0
   55.9417   28.6723   45.1984 H   0  0  0  0  0  0  0  0  0  0  0  0
  1  2  1  0
  2  3  2  0
  2  4  1  0
  4  5  2  0
  5  6  1  0
  6  7  2  0
  7  8  1  0
  8  9  1  0
  9 10  2  0
  9 11  2  0
  9 12  1  0
 12 13  1  0
 13 14  2  0
 14 15  1  0
 15 16  2  0
 16 17  1  0
 17 18  1  0
 18 19  2  0
 18 20  1  0
 20 21  1  0
 21 22  1  0
 22 23  1  0
 23 24  2  0
 24 25  1  0
 25 26  2  0
 26 27  1  0
 27 28  2  0
 17 29  2  0
  8 30  2  0
 30  4  1  0
 29 13  1  0
 28 23  1  0
  1 31  1  0
  5 32  1  0
  6 33  1  0
  7 34  1  0
 14 35  1  0
 15 36  1  0
 16 37  1  0
 21 38  1  0
 21 39  1  0
 22 40  1  0
 22 41  1  0
 24 42  1  0
 25 43  1  0
 26 44  1  0
 27 45  1  0
 28 46  1  0
 29 47  1  0
 30 48  1  0
M  CHG  3   1  -1  12  -1  20  -1
M  END
>  <UniqueID>  (73) 
69

>  <SMILES>  (73) 
[NH-]C(=O)c1cccc(S(=O)(=O)[N-]c2cccc(C(=O)[N-]CCc3ccccc3)c2)c1

>  <Energy>  (73) 
48.92089009334268

>  <Genealogy>  (73) 
[NH-]C(=O)c1cccc(S(=O)(=O)[N-]c2cccc(C(=O)[N-]CCc3ccccc3)c2)c1 (protonated)
[NH-]C(=O)c1cccc(S(=O)(=O)[N-]c2cccc(C(=O)[N-]CCc3ccccc3)c2)c1 (3D coordinates assigned)
[NH-]C(=O)c1cccc(S(=O)(=O)[N-]c2cccc(C(=O)[N-]CCc3ccccc3)c2)c1 (optimized conformer: 48.92089009334268 kcal/mol)

>  <smiles>  (73) 
NC(=O)c1cccc(S(=O)(=O)Nc2cccc(C(=O)NCCc3ccccc3)c2)c1

>  <score_type>  (73) 
oracle

>  <origin>  (73) 
adg

>  <m_score__min__energy>  (73) 
-15.380000000000001

>  <m_primary>  (73) 
energy

$$$$
73:0
     RDKit          3D

 45 46  0  0  0  0  0  0  0  0999 V2000
   54.7350   26.3090   45.7970 N   0  0  0  0  0  0  0  0  0  0  0  0
   55.9930   25.9620   46.3720 C   0  0  0  0  0  0  0  0  0  0  0  0
   56.0880   24.8980   47.0430 O   0  0  0  0  0  0  0  0  0  0  0  0
   57.1700   26.8440   46.1950 C   0  0  0  0  0  0  0  0  0  0  0  0
   58.3020   26.6900   47.0150 C   0  0  0  0  0  0  0  0  0  0  0  0
   59.4050   27.5330   46.8630 C   0  0  0  0  0  0  0  0  0  0  0  0
   59.3850   28.5470   45.9050 C   0  0  0  0  0  0  0  0  0  0  0  0
   58.2610   28.7320   45.0930 C   0  0  0  0  0  0  0  0  0  0  0  0
   58.2860   29.7810   44.1140 N   0  0  0  0  0  0  0  0  0  0  0  0
   57.5710   31.0270   44.1340 C   0  0  0  0  0  0  0  0  0  0  0  0
   56.4750   31.0790   44.7510 O   0  0  0  0  0  0  0  0  0  0  0  0
   58.0510   32.2670   43.4210 C   0  0  0  0  0  0  0  0  0  0  0  0
   58.6240   33.2850   44.3660 C   0  0  0  0  0  0  0  0  0  0  0  0
   59.4250   34.1520   43.9250 O   0  0  0  0  0  0  0  0  0  0  0  0
   58.2550   33.2570   45.7560 N   0  0  0  0  0  0  0  0  0  0  0  0
   58.9620   33.9420   46.8020 C   0  0  0  0  0  0  0  0  0  0  0  0
   59.5820   35.4450   46.5520 S   0  0  0  0  0  0  0  0  0  0  0  0
   58.8680   33.4300   48.1400 N   0  0  0  0  0  0  0  0  0  0  0  0
   59.9200   33.5110   49.1190 C   0  0  0  0  0  0  0  0  0  0  0  0
   59.5840   33.5490   50.4790 C   0  0  0  0  0  0  0  0  0  0  0  0
   60.5830   33.5800   51.4660 C   0  0  0  0  0  0  0  0  0  0  0  0
   60.2060   33.5640   52.9260 C   0  0  0  0  0  0  0  0  0  0  0  0
   61.3130   33.7940   53.7240 F   0  0  0  0  0  0  0  0  0  0  0  0
   59.6700   32.3300   53.2450 F   0  0  0  0  0  0  0  0  0  0  0  0
   59.2680   34.5460   53.1970 F   0  0  0  0  0  0  0  0  0  0  0  0
   61.9320   33.5180   51.0770 C   0  0  0  0  0  0  0  0  0  0  0  0
   62.2870   33.4860   49.7180 C   0  0  0  0  0  0  0  0  0  0  0  0
   63.7360   33.3570   49.3180 C   0  0  0  0  0  0  0  0  0  0  0  0
   64.0630   32.0290   49.1000 F   0  0  0  0  0  0  0  0  0  0  0  0
   63.9510   34.0700   48.1540 F   0  0  0  0  0  0  0  0  0  0  0  0
   64.5680   33.8490   50.3090 F   0  0  0  0  0  0  0  0  0  0  0  0
   61.2730   33.4620   48.7460 C   0  0  0  0  0  0  0  0  0  0  0  0
   57.1710   27.8540   45.2140 C   0  0  0  0  0  0  0  0  0  0  0  0
   53.9710   26.7150   46.3820 H   0  0  0  0  0  0  0  0  0  0  0  0
   58.3188   25.9006   47.7809 H   0  0  0  0  0  0  0  0  0  0  0  0
   60.2915   27.3972   47.5000 H   0  0  0  0  0  0  0  0  0  0  0  0
   60.2585   29.2051   45.7874 H   0  0  0  0  0  0  0  0  0  0  0  0
   58.8280   31.9800   42.6972 H   0  0  0  0  0  0  0  0  0  0  0  0
   57.1839   32.7236   42.9213 H   0  0  0  0  0  0  0  0  0  0  0  0
   57.5530   32.5430   46.0530 H   0  0  0  0  0  0  0  0  0  0  0  0
   58.0020   32.9020   48.3950 H   0  0  0  0  0  0  0  0  0  0  0  0
   58.5252   33.5546   50.7772 H   0  0  0  0  0  0  0  0  0  0  0  0
   62.7189   33.4943   51.8453 H   0  0  0  0  0  0  0  0  0  0  0  0
   61.5418   33.4042   47.6809 H   0  0  0  0  0  0  0  0  0  0  0  0
   56.3106   27.9565   44.5363 H   0  0  0  0  0  0  0  0  0  0  0  0
  1  2  1  0
  2  3  2  0
  2  4  1  0
  4  5  2  0
  5  6  1  0
  6  7  2  0
  7  8  1  0
  8  9  1  0
  9 10  1  0
 10 11  2  0
 10 12  1  0
 12 13  1  0
 13 14  2  0
 13 15  1  0
 15 16  1  0
 16 17  2  0
 16 18  1  0
 18 19  1  0
 19 20  2  0
 20 21  1  0
 21 22  1  0
 22 23  1  0
 22 24  1  0
 22 25  1  0
 21 26  2  0
 26 27  1  0
 27 28  1  0
 28 29  1  0
 28 30  1  0
 28 31  1  0
 27 32  2  0
  8 33  2  0
 33  4  1  0
 32 19  1  0
  1 34  1  0
  5 35  1  0
  6 36  1  0
  7 37  1  0
 12 38  1  0
 12 39  1  0
 15 40  1  0
 18 41  1  0
 20 42  1  0
 26 43  1  0
 32 44  1  0
 33 45  1  0
M  CHG  2   1  -1   9  -1
M  END
>  <UniqueID>  (74) 
70

>  <SMILES>  (74) 
[NH-]C(=O)c1cccc([N-]C(=O)CC(=O)NC(=S)Nc2cc(C(F)(F)F)cc(C(F)(F)F)c2)c1

>  <Energy>  (74) 
52.72725764643913

>  <Genealogy>  (74) 
[NH-]C(=O)c1cccc([N-]C(=O)CC(=O)NC(=S)Nc2cc(C(F)(F)F)cc(C(F)(F)F)c2)c1 (protonated)
[NH-]C(=O)c1cccc([N-]C(=O)CC(=O)NC(=S)Nc2cc(C(F)(F)F)cc(C(F)(F)F)c2)c1 (3D coordinates assigned)
[NH-]C(=O)c1cccc([N-]C(=O)CC(=O)NC(=S)Nc2cc(C(F)(F)F)cc(C(F)(F)F)c2)c1 (optimized conformer: 52.72725764643913 kcal/mol)

>  <smiles>  (74) 
NC(=O)c1cccc(NC(=O)CC(=O)NC(=S)Nc2cc(C(F)(F)F)cc(C(F)(F)F)c2)c1

>  <score_type>  (74) 
oracle

>  <origin>  (74) 
adg

>  <m_score__min__energy>  (74) 
-13.27

>  <m_primary>  (74) 
energy

$$$$
74:0
     RDKit          3D

 45 49  0  0  0  0  0  0  0  0999 V2000
   64.0460   33.6870   51.0440 C   0  0  0  0  0  0  0  0  0  0  0  0
   63.4690   33.6560   49.6590 C   0  0  0  0  0  0  0  0  0  0  0  0
   64.1970   33.0860   48.6040 C   0  0  0  0  0  0  0  0  0  0  0  0
   63.6490   33.0330   47.3200 C   0  0  0  0  0  0  0  0  0  0  0  0
   62.3640   33.5290   47.0850 C   0  0  0  0  0  0  0  0  0  0  0  0
   61.6080   34.0630   48.1440 C   0  0  0  0  0  0  0  0  0  0  0  0
   60.2890   34.5880   47.9350 N   0  0  0  0  0  0  0  0  0  0  0  0
   59.5220   34.4890   46.7280 C   0  0  0  0  0  0  0  0  0  0  0  0
   59.2650   35.5410   46.0870 O   0  0  0  0  0  0  0  0  0  0  0  0
   58.9470   33.2030   46.2820 C   0  0  0  0  0  0  0  0  0  0  0  0
   59.3460   31.7030   46.9650 S   0  0  0  0  0  0  0  0  0  0  0  0
   58.2760   30.8270   46.0220 C   0  0  0  0  0  0  0  0  0  0  0  0
   58.0800   29.4870   46.0510 N   0  0  0  0  0  0  0  0  0  0  0  0
   57.1710   28.9100   45.2120 C   0  0  0  0  0  0  0  0  0  0  0  0
   56.9830   27.4480   45.2710 C   0  0  0  0  0  0  0  0  0  0  0  0
   57.9170   26.4680   44.9240 C   0  0  0  0  0  0  0  0  0  0  0  0
   57.2660   25.2800   45.1550 C   0  0  0  0  0  0  0  0  0  0  0  0
   57.6870   23.9610   44.9940 C   0  0  0  0  0  0  0  0  0  0  0  0
   56.7770   22.9390   45.3200 C   0  0  0  0  0  0  0  0  0  0  0  0
   55.4840   23.2570   45.7960 C   0  0  0  0  0  0  0  0  0  0  0  0
   55.0910   24.6000   45.9470 C   0  0  0  0  0  0  0  0  0  0  0  0
   56.0140   25.5890   45.6150 C   0  0  0  0  0  0  0  0  0  0  0  0
   55.8570   26.8870   45.6800 O   0  0  0  0  0  0  0  0  0  0  0  0
   56.4380   29.7220   44.3110 C   0  0  0  0  0  0  0  0  0  0  0  0
   56.6480   31.1100   44.2880 C   0  0  0  0  0  0  0  0  0  0  0  0
   57.5850   31.6630   45.1660 C   0  0  0  0  0  0  0  0  0  0  0  0
   57.9550   33.0140   45.3040 C   0  0  0  0  0  0  0  0  0  0  0  0
   57.4190   34.0700   44.4970 N   0  0  0  0  0  0  0  0  0  0  0  0
   62.1720   34.1360   49.4230 C   0  0  0  0  0  0  0  0  0  0  0  0
   63.2312   33.6432   51.7817 H   0  0  0  0  0  0  0  0  0  0  0  0
   64.7130   32.8234   51.1827 H   0  0  0  0  0  0  0  0  0  0  0  0
   64.6167   34.6171   51.1827 H   0  0  0  0  0  0  0  0  0  0  0  0
   65.2024   32.6795   48.7883 H   0  0  0  0  0  0  0  0  0  0  0  0
   64.2302   32.6000   46.4925 H   0  0  0  0  0  0  0  0  0  0  0  0
   61.9426   33.5018   46.0693 H   0  0  0  0  0  0  0  0  0  0  0  0
   58.9413   26.6144   44.5506 H   0  0  0  0  0  0  0  0  0  0  0  0
   58.6964   23.7272   44.6246 H   0  0  0  0  0  0  0  0  0  0  0  0
   57.0731   21.8860   45.2039 H   0  0  0  0  0  0  0  0  0  0  0  0
   54.7811   22.4499   46.0498 H   0  0  0  0  0  0  0  0  0  0  0  0
   54.0876   24.8601   46.3152 H   0  0  0  0  0  0  0  0  0  0  0  0
   55.7049   29.2650   43.6300 H   0  0  0  0  0  0  0  0  0  0  0  0
   56.0859   31.7503   43.5923 H   0  0  0  0  0  0  0  0  0  0  0  0
   56.6500   33.8930   43.8160 H   0  0  0  0  0  0  0  0  0  0  0  0
   57.7470   35.0540   44.6010 H   0  0  0  0  0  0  0  0  0  0  0  0
   61.5935   34.5734   50.2500 H   0  0  0  0  0  0  0  0  0  0  0  0
  1  2  1  0
  2  3  2  0
  3  4  1  0
  4  5  2  0
  5  6  1  0
  6  7  1  0
  7  8  1  0
  8  9  2  0
  8 10  1  0
 10 11  1  0
 11 12  1  0
 12 13  2  0
 13 14  1  0
 14 15  1  0
 15 16  2  0
 16 17  1  0
 17 18  2  0
 18 19  1  0
 19 20  2  0
 20 21  1  0
 21 22  2  0
 22 23  1  0
 14 24  2  0
 24 25  1  0
 25 26  2  0
 26 27  1  0
 27 28  1  0
  6 29  2  0
 29  2  1  0
 27 10  2  0
 26 12  1  0
 23 15  1  0
 22 17  1  0
  1 30  1  0
  1 31  1  0
  1 32  1  0
  3 33  1  0
  4 34  1  0
  5 35  1  0
 16 36  1  0
 18 37  1  0
 19 38  1  0
 20 39  1  0
 21 40  1  0
 24 41  1  0
 25 42  1  0
 28 43  1  0
 28 44  1  0
 29 45  1  0
M  CHG  1   7  -1
M  END
>  <UniqueID>  (75) 
71

>  <SMILES>  (75) 
Cc1cccc([N-]C(=O)c2sc3nc(-c4cc5ccccc5o4)ccc3c2N)c1

>  <Energy>  (75) 
125.12719568128362

>  <Genealogy>  (75) 
Cc1cccc([N-]C(=O)c2sc3nc(-c4cc5ccccc5o4)ccc3c2N)c1 (protonated)
Cc1cccc([N-]C(=O)c2sc3nc(-c4cc5ccccc5o4)ccc3c2N)c1 (3D coordinates assigned)
Cc1cccc([N-]C(=O)c2sc3nc(-c4cc5ccccc5o4)ccc3c2N)c1 (optimized conformer: 125.12719568128362 kcal/mol)

>  <smiles>  (75) 
Cc1cccc(NC(=O)c2sc3nc(-c4cc5ccccc5o4)ccc3c2N)c1

>  <score_type>  (75) 
oracle

>  <origin>  (75) 
adg

>  <m_score__min__energy>  (75) 
-9.7599999999999998

>  <m_primary>  (75) 
energy

$$$$
75:0
     RDKit          3D

 39 40  0  0  0  0  0  0  0  0999 V2000
   57.7500   28.6930   52.5560 O   0  0  0  0  0  0  0  0  0  0  0  0
   56.9280   29.6050   52.8310 C   0  0  0  0  0  0  0  0  0  0  0  0
   55.6400   29.2380   53.5170 C   0  0  0  0  0  0  0  0  0  0  0  0
   54.4960   30.0370   52.9530 C   0  0  0  0  0  0  0  0  0  0  0  0
   54.5220   30.4820   51.6220 C   0  0  0  0  0  0  0  0  0  0  0  0
   53.4480   31.2070   51.0970 C   0  0  0  0  0  0  0  0  0  0  0  0
   52.3270   31.4970   51.8920 C   0  0  0  0  0  0  0  0  0  0  0  0
   51.1910   32.2620   51.3310 C   0  0  0  0  0  0  0  0  0  0  0  0
   51.0190   32.3330   50.0860 O   0  0  0  0  0  0  0  0  0  0  0  0
   50.2960   32.9140   52.1730 O   0  0  0  0  0  0  0  0  0  0  0  0
   52.3030   31.0500   53.2250 C   0  0  0  0  0  0  0  0  0  0  0  0
   53.3780   30.3270   53.7500 C   0  0  0  0  0  0  0  0  0  0  0  0
   57.2270   30.9450   52.4160 N   0  0  0  0  0  0  0  0  0  0  0  0
   58.4620   31.3960   51.7840 C   0  0  0  0  0  0  0  0  0  0  0  0
   58.2080   31.8790   50.3530 C   0  0  0  0  0  0  0  0  0  0  0  0
   59.4790   33.0060   49.7880 S   0  0  0  0  0  0  0  0  0  0  0  0
   60.8190   32.3250   49.8320 O   0  0  0  0  0  0  0  0  0  0  0  0
   59.5210   34.1990   50.7010 O   0  0  0  0  0  0  0  0  0  0  0  0
   59.1300   33.5440   48.1480 C   0  0  0  0  0  0  0  0  0  0  0  0
   59.9050   34.5490   47.5480 C   0  0  0  0  0  0  0  0  0  0  0  0
   59.6270   34.9630   46.2410 C   0  0  0  0  0  0  0  0  0  0  0  0
   58.5820   34.3720   45.5260 C   0  0  0  0  0  0  0  0  0  0  0  0
   57.8130   33.3650   46.1170 C   0  0  0  0  0  0  0  0  0  0  0  0
   58.0880   32.9490   47.4240 C   0  0  0  0  0  0  0  0  0  0  0  0
   55.4422   28.1665   53.3663 H   0  0  0  0  0  0  0  0  0  0  0  0
   55.7332   29.4591   54.5905 H   0  0  0  0  0  0  0  0  0  0  0  0
   55.3928   30.2589   50.9880 H   0  0  0  0  0  0  0  0  0  0  0  0
   53.4812   31.5529   50.0533 H   0  0  0  0  0  0  0  0  0  0  0  0
   51.4319   31.2709   53.8593 H   0  0  0  0  0  0  0  0  0  0  0  0
   53.3474   29.9832   54.7944 H   0  0  0  0  0  0  0  0  0  0  0  0
   58.8845   32.2238   52.3724 H   0  0  0  0  0  0  0  0  0  0  0  0
   59.1632   30.5493   51.7463 H   0  0  0  0  0  0  0  0  0  0  0  0
   58.1838   31.0068   49.6831 H   0  0  0  0  0  0  0  0  0  0  0  0
   57.2486   32.4169   50.3420 H   0  0  0  0  0  0  0  0  0  0  0  0
   60.7321   35.0117   48.1064 H   0  0  0  0  0  0  0  0  0  0  0  0
   60.2320   35.7550   45.7754 H   0  0  0  0  0  0  0  0  0  0  0  0
   58.3645   34.6989   44.4985 H   0  0  0  0  0  0  0  0  0  0  0  0
   56.9909   32.8994   45.5537 H   0  0  0  0  0  0  0  0  0  0  0  0
   57.4848   32.1528   47.8846 H   0  0  0  0  0  0  0  0  0  0  0  0
  1  2  2  0
  2  3  1  0
  3  4  1  0
  4  5  2  0
  5  6  1  0
  6  7  2  0
  7  8  1  0
  8  9  2  0
  8 10  1  0
  7 11  1  0
 11 12  2  0
  2 13  1  0
 13 14  1  0
 14 15  1  0
 15 16  1  0
 16 17  2  0
 16 18  2  0
 16 19  1  0
 19 20  2  0
 20 21  1  0
 21 22  2  0
 22 23  1  0
 23 24  2  0
 12  4  1  0
 24 19  1  0
  3 25  1  0
  3 26  1  0
  5 27  1  0
  6 28  1  0
 11 29  1  0
 12 30  1  0
 14 31  1  0
 14 32  1  0
 15 33  1  0
 15 34  1  0
 20 35  1  0
 21 36  1  0
 22 37  1  0
 23 38  1  0
 24 39  1  0
M  CHG  2  10  -1  13  -1
M  END
>  <UniqueID>  (76) 
72

>  <SMILES>  (76) 
O=C(Cc1ccc(C(=O)[O-])cc1)[N-]CCS(=O)(=O)c1ccccc1

>  <Energy>  (76) 
33.43789034477363

>  <Genealogy>  (76) 
O=C(Cc1ccc(C(=O)[O-])cc1)[N-]CCS(=O)(=O)c1ccccc1 (protonated)
O=C(Cc1ccc(C(=O)[O-])cc1)[N-]CCS(=O)(=O)c1ccccc1 (3D coordinates assigned)
O=C(Cc1ccc(C(=O)[O-])cc1)[N-]CCS(=O)(=O)c1ccccc1 (optimized conformer: 33.43789034477363 kcal/mol)

>  <smiles>  (76) 
O=C(Cc1ccc(C(=O)O)cc1)NCCS(=O)(=O)c1ccccc1

>  <score_type>  (76) 
oracle

>  <origin>  (76) 
adg

>  <m_score__min__energy>  (76) 
-12.07

>  <m_primary>  (76) 
energy

$$$$
76:0
     RDKit          3D

 44 46  0  0  0  0  0  0  0  0999 V2000
   58.3101   30.5534   44.7965 H   0  0  0  0  0  0  0  0  0  0  0  0
   57.3930   30.9540   44.3400 C   0  0  0  0  0  0  0  0  0  0  0  0
   57.3980   32.2020   43.9680 N   0  0  0  0  0  0  0  0  0  0  0  0
   57.6860   33.3550   44.7750 C   0  0  0  0  0  0  0  0  0  0  0  0
   56.7320   34.0870   45.1470 O   0  0  0  0  0  0  0  0  0  0  0  0
   59.0780   33.6780   45.2630 C   0  0  0  0  0  0  0  0  0  0  0  0
   59.7835   32.9697   44.8040 H   0  0  0  0  0  0  0  0  0  0  0  0
   59.2943   34.7176   44.9757 H   0  0  0  0  0  0  0  0  0  0  0  0
   59.2130   33.5870   46.7630 C   0  0  0  0  0  0  0  0  0  0  0  0
   59.9180   34.5720   47.4700 C   0  0  0  0  0  0  0  0  0  0  0  0
   60.3829   35.4080   46.9269 H   0  0  0  0  0  0  0  0  0  0  0  0
   60.0330   34.4970   48.8610 C   0  0  0  0  0  0  0  0  0  0  0  0
   60.5958   35.2700   49.4049 H   0  0  0  0  0  0  0  0  0  0  0  0
   59.4370   33.4450   49.5670 C   0  0  0  0  0  0  0  0  0  0  0  0
   59.5920   33.3990   50.9920 N   0  0  0  0  0  0  0  0  0  0  0  0
   58.5400   33.3450   51.9650 C   0  0  0  0  0  0  0  0  0  0  0  0
   58.1270   34.4070   52.5080 O   0  0  0  0  0  0  0  0  0  0  0  0
   57.9750   32.0380   52.3740 C   0  0  0  0  0  0  0  0  0  0  0  0
   57.1520   31.3020   51.5030 C   0  0  0  0  0  0  0  0  0  0  0  0
   56.9221   31.6971   50.5025 H   0  0  0  0  0  0  0  0  0  0  0  0
   56.6390   30.1040   51.8920 N   0  0  0  0  0  0  0  0  0  0  0  0
   56.8970   29.5790   53.1190 C   0  0  0  0  0  0  0  0  0  0  0  0
   56.4664   28.6073   53.4024 H   0  0  0  0  0  0  0  0  0  0  0  0
   57.7070   30.2710   54.0190 C   0  0  0  0  0  0  0  0  0  0  0  0
   57.9189   29.8499   55.0129 H   0  0  0  0  0  0  0  0  0  0  0  0
   58.2460   31.5030   53.6460 C   0  0  0  0  0  0  0  0  0  0  0  0
   58.8849   32.0574   54.3492 H   0  0  0  0  0  0  0  0  0  0  0  0
   58.7610   32.4380   48.8560 C   0  0  0  0  0  0  0  0  0  0  0  0
   58.3190   31.5885   49.3972 H   0  0  0  0  0  0  0  0  0  0  0  0
   58.6480   32.5110   47.4660 C   0  0  0  0  0  0  0  0  0  0  0  0
   58.1132   31.7208   46.9187 H   0  0  0  0  0  0  0  0  0  0  0  0
   56.2460   30.0400   44.1930 C   0  0  0  0  0  0  0  0  0  0  0  0
   55.5580   30.1030   43.1380 O   0  0  0  0  0  0  0  0  0  0  0  0
   55.9670   29.0490   45.1950 N   0  0  0  0  0  0  0  0  0  0  0  0
   56.7350   28.0600   45.5530 C   0  0  0  0  0  0  0  0  0  0  0  0
   58.0950   28.1720   45.5220 N   0  0  0  0  0  0  0  0  0  0  0  0
   58.9120   27.1470   45.8800 C   0  0  0  0  0  0  0  0  0  0  0  0
   60.0038   27.2758   45.8437 H   0  0  0  0  0  0  0  0  0  0  0  0
   58.3660   25.9300   46.2940 C   0  0  0  0  0  0  0  0  0  0  0  0
   59.0219   25.0963   46.5851 H   0  0  0  0  0  0  0  0  0  0  0  0
   56.9790   25.7840   46.3340 C   0  0  0  0  0  0  0  0  0  0  0  0
   56.5347   24.8316   46.6588 H   0  0  0  0  0  0  0  0  0  0  0  0
   56.1550   26.8490   45.9610 C   0  0  0  0  0  0  0  0  0  0  0  0
   54.7720   26.7000   45.9970 O   0  0  0  0  0  0  0  0  0  0  0  0
  1  2  1  0
  2  3  2  3
  3  4  1  0
  4  5  2  0
  4  6  1  0
  6  7  1  0
  6  8  1  0
  6  9  1  0
  9 10  2  0
 10 11  1  0
 10 12  1  0
 12 13  1  0
 12 14  2  0
 14 15  1  0
 15 16  1  0
 16 17  2  0
 16 18  1  0
 18 19  2  0
 19 20  1  0
 19 21  1  0
 21 22  2  0
 22 23  1  0
 22 24  1  0
 24 25  1  0
 24 26  2  0
 26 27  1  0
 14 28  1  0
 28 29  1  0
 28 30  2  0
 30 31  1  0
  2 32  1  0
 32 33  2  0
 32 34  1  0
 34 35  2  0
 35 36  1  0
 36 37  1  0
 37 38  1  0
 37 39  2  0
 39 40  1  0
 39 41  1  0
 41 42  1  0
 41 43  2  0
 43 44  1  0
 30  9  1  0
 43 35  1  0
 26 18  1  0
M  CHG  3  15  -1  36  -1  44  -1
M  END
>  <UniqueID>  (77) 
73

>  <SMILES>  (77) 
O=C(Cc1ccc([N-]C(=O)c2cccnc2)cc1)N=CC(=O)/N=c1\[n-]cccc1[O-]

>  <Energy>  (77) 
63.69321818365782

>  <Genealogy>  (77) 
O=C(C=NC(=O)Cc1ccc([N-]C(=O)c2cccnc2)cc1)N=c1[n-]cccc1[O-] (protonated)
O=C(Cc1ccc([N-]C(=O)c2cccnc2)cc1)N=CC(=O)/N=c1\[n-]cccc1[O-] (cis-trans isomerization)
O=C(Cc1ccc([N-]C(=O)c2cccnc2)cc1)N=CC(=O)/N=c1\[n-]cccc1[O-] (3D coordinates assigned)
O=C(Cc1ccc([N-]C(=O)c2cccnc2)cc1)N=CC(=O)/N=c1\[n-]cccc1[O-] (optimized conformer: 63.69321818365782 kcal/mol)

>  <smiles>  (77) 
O=C(C=NC(=O)Cc1ccc(NC(=O)c2cccnc2)cc1)N=c1[nH]cccc1O

>  <score_type>  (77) 
oracle

>  <origin>  (77) 
adg

>  <m_score__min__energy>  (77) 
-15.27

>  <m_primary>  (77) 
energy

$$$$
77:0
     RDKit          3D

 54 57  0  0  0  0  0  0  0  0999 V2000
   58.3386   32.6633   52.0554 H   0  0  0  0  0  0  0  0  0  0  0  0
   58.7330   32.7690   51.0340 C   0  0  0  0  0  0  0  0  0  0  0  0
   58.4010   31.8270   50.0570 C   0  0  0  0  0  0  0  0  0  0  0  0
   57.7401   30.9841   50.3075 H   0  0  0  0  0  0  0  0  0  0  0  0
   58.9090   31.9560   48.7610 C   0  0  0  0  0  0  0  0  0  0  0  0
   58.6410   31.2172   47.9914 H   0  0  0  0  0  0  0  0  0  0  0  0
   59.7600   33.0250   48.4380 C   0  0  0  0  0  0  0  0  0  0  0  0
   60.4120   33.1890   46.8060 S   0  0  0  0  0  0  0  0  0  0  0  0
   60.1030   34.5760   46.3130 O   0  0  0  0  0  0  0  0  0  0  0  0
   59.7020   32.2290   45.8930 O   0  0  0  0  0  0  0  0  0  0  0  0
   62.1510   32.9120   46.7160 N   0  0  0  0  0  0  0  0  0  0  0  0
   62.8830   34.1720   46.9290 C   0  0  0  0  0  0  0  0  0  0  0  0
   62.2048   35.0250   46.7793 H   0  0  0  0  0  0  0  0  0  0  0  0
   63.7150   34.2501   46.2137 H   0  0  0  0  0  0  0  0  0  0  0  0
   63.4200   34.1850   48.3610 C   0  0  0  0  0  0  0  0  0  0  0  0
   62.9620   35.0041   48.9349 H   0  0  0  0  0  0  0  0  0  0  0  0
   64.5083   34.3431   48.3850 H   0  0  0  0  0  0  0  0  0  0  0  0
   63.0360   32.8430   48.9560 C   0  0  0  0  0  0  0  0  0  0  0  0
   62.1663   32.9433   49.6221 H   0  0  0  0  0  0  0  0  0  0  0  0
   63.8356   32.4039   49.5706 H   0  0  0  0  0  0  0  0  0  0  0  0
   62.6930   31.9950   47.7380 C   0  0  1  0  0  0  0  0  0  0  0  0
   63.6185   31.5187   47.3823 H   0  0  0  0  0  0  0  0  0  0  0  0
   61.8710   30.7420   47.9740 C   0  0  0  0  0  0  0  0  0  0  0  0
   61.8850   30.2340   49.1270 O   0  0  0  0  0  0  0  0  0  0  0  0
   61.0290   30.1730   46.9520 N   0  0  0  0  0  0  0  0  0  0  0  0
   61.0820   30.5390   45.9770 H   0  0  0  0  0  0  0  0  0  0  0  0
   60.2110   29.0100   47.1540 C   0  0  0  0  0  0  0  0  0  0  0  0
   60.5580   28.0900   48.1530 C   0  0  0  0  0  0  0  0  0  0  0  0
   61.4478   28.2686   48.7745 H   0  0  0  0  0  0  0  0  0  0  0  0
   59.7820   26.9480   48.3650 C   0  0  0  0  0  0  0  0  0  0  0  0
   60.0520   26.2412   49.1635 H   0  0  0  0  0  0  0  0  0  0  0  0
   58.6640   26.7020   47.5650 C   0  0  0  0  0  0  0  0  0  0  0  0
   58.0493   25.8069   47.7409 H   0  0  0  0  0  0  0  0  0  0  0  0
   58.3240   27.5930   46.5390 C   0  0  0  0  0  0  0  0  0  0  0  0
   56.9400   27.2720   45.4980 S   0  0  0  0  0  0  0  0  0  0  0  0
   57.3870   26.6850   44.1870 O   0  0  0  0  0  0  0  0  0  0  0  0
   56.0320   26.2930   46.1870 O   0  0  0  0  0  0  0  0  0  0  0  0
   56.0690   28.7410   45.1930 N   0  0  0  0  0  0  0  0  0  0  0  0
   56.5720   29.7840   44.6040 C   0  0  0  0  0  0  0  0  0  0  0  0
   57.0730   30.8330   45.2830 N   0  0  0  0  0  0  0  0  0  0  0  0
   57.4970   31.6800   44.3900 O   0  0  0  0  0  0  0  0  0  0  0  0
   57.2960   31.2260   43.1730 C   0  0  0  0  0  0  0  0  0  0  0  0
   57.6580   31.9590   41.9260 C   0  0  0  0  0  0  0  0  0  0  0  0
   58.1311   32.9169   42.1880 H   0  0  0  0  0  0  0  0  0  0  0  0
   58.3603   31.3527   41.3351 H   0  0  0  0  0  0  0  0  0  0  0  0
   56.7497   32.1481   41.3351 H   0  0  0  0  0  0  0  0  0  0  0  0
   56.6880   29.9920   43.2410 C   0  0  0  0  0  0  0  0  0  0  0  0
   56.3730   29.3352   42.4167 H   0  0  0  0  0  0  0  0  0  0  0  0
   59.1000   28.7420   46.3320 C   0  0  0  0  0  0  0  0  0  0  0  0
   58.8390   29.4388   45.5219 H   0  0  0  0  0  0  0  0  0  0  0  0
   60.0730   33.9780   49.4190 C   0  0  0  0  0  0  0  0  0  0  0  0
   60.7194   34.8318   49.1675 H   0  0  0  0  0  0  0  0  0  0  0  0
   59.5660   33.8460   50.7150 C   0  0  0  0  0  0  0  0  0  0  0  0
   59.8223   34.5895   51.4841 H   0  0  0  0  0  0  0  0  0  0  0  0
  1  2  1  0
  2  3  2  0
  3  4  1  0
  3  5  1  0
  5  6  1  0
  5  7  2  0
  7  8  1  0
  8  9  2  0
  8 10  2  0
  8 11  1  0
 11 12  1  0
 12 13  1  0
 12 14  1  0
 12 15  1  0
 15 16  1  0
 15 17  1  0
 15 18  1  0
 18 19  1  0
 18 20  1  0
 18 21  1  0
 21 22  1  6
 21 23  1  0
 23 24  2  0
 23 25  1  0
 25 26  1  0
 25 27  1  0
 27 28  2  0
 28 29  1  0
 28 30  1  0
 30 31  1  0
 30 32  2  0
 32 33  1  0
 32 34  1  0
 34 35  1  0
 35 36  2  0
 35 37  2  0
 35 38  1  0
 38 39  2  0
 39 40  1  0
 40 41  1  0
 41 42  1  0
 42 43  1  0
 43 44  1  0
 43 45  1  0
 43 46  1  0
 42 47  2  0
 47 48  1  0
 34 49  2  0
 49 50  1  0
  7 51  1  0
 51 52  1  0
 51 53  2  0
 53 54  1  0
 53  2  1  0
 21 11  1  0
 49 27  1  0
 47 39  1  0
M  CHG  1  40  -1
M  END
>  <UniqueID>  (78) 
74

>  <SMILES>  (78) 
Cc1c/c(=N\S(=O)(=O)c2cccc(NC(=O)[C@@H]3CCCN3S(=O)(=O)c3ccccc3)c2)[n-]o1

>  <Energy>  (78) 
101.55096472072162

>  <Genealogy>  (78) 
Cc1cc(=NS(=O)(=O)c2cccc(NC(=O)C3CCCN3S(=O)(=O)c3ccccc3)c2)[n-]o1 (protonated)
Cc1cc(=NS(=O)(=O)c2cccc(NC(=O)[C@@H]3CCCN3S(=O)(=O)c3ccccc3)c2)[n-]o1 (chirality)
Cc1c/c(=N\S(=O)(=O)c2cccc(NC(=O)[C@@H]3CCCN3S(=O)(=O)c3ccccc3)c2)[n-]o1 (cis-trans isomerization)
Cc1c/c(=N\S(=O)(=O)c2cccc(NC(=O)[C@@H]3CCCN3S(=O)(=O)c3ccccc3)c2)[n-]o1 (3D coordinates assigned)
Cc1c/c(=N\S(=O)(=O)c2cccc(NC(=O)[C@@H]3CCCN3S(=O)(=O)c3ccccc3)c2)[n-]o1 (nonaromatic ring conformer: 101.55096472072162 kcal/mol)

>  <smiles>  (78) 
Cc1cc(=NS(=O)(=O)c2cccc(NC(=O)C3CCCN3S(=O)(=O)c3ccccc3)c2)[nH]o1

>  <score_type>  (78) 
oracle

>  <origin>  (78) 
adg

>  <m_score__min__energy>  (78) 
-13.32

>  <m_primary>  (78) 
energy

$$$$
78:0
     RDKit          3D

 55 58  0  0  0  0  0  0  0  0999 V2000
   54.7340   20.6570   47.5840 C   0  0  0  0  0  0  0  0  0  0  0  0
   56.1880   21.1940   47.5840 C   0  0  0  0  0  0  0  0  0  0  0  0
   56.6120   21.5990   49.0130 C   0  0  0  0  0  0  0  0  0  0  0  0
   57.1190   20.0250   47.1410 C   0  0  0  0  0  0  0  0  0  0  0  0
   58.3560   20.5180   46.7010 O   0  0  0  0  0  0  0  0  0  0  0  0
   56.3110   22.3750   46.6780 N   0  0  0  0  0  0  0  0  0  0  0  0
   56.2350   23.6860   47.0470 C   0  0  0  0  0  0  0  0  0  0  0  0
   56.3280   24.5300   45.9500 C   0  0  0  0  0  0  0  0  0  0  0  0
   56.2710   26.0070   45.9520 C   0  0  0  0  0  0  0  0  0  0  0  0
   55.1390   26.5680   46.0170 O   0  0  0  0  0  0  0  0  0  0  0  0
   57.4920   26.8520   45.8940 C   0  0  0  0  0  0  0  0  0  0  0  0
   58.7670   26.3200   46.1560 C   0  0  0  0  0  0  0  0  0  0  0  0
   59.8640   27.1180   46.1170 N   0  0  0  0  0  0  0  0  0  0  0  0
   59.7770   28.4460   45.8530 C   0  0  0  0  0  0  0  0  0  0  0  0
   58.5300   29.0470   45.6330 C   0  0  0  0  0  0  0  0  0  0  0  0
   58.4660   30.4610   45.3650 N   0  0  0  0  0  0  0  0  0  0  0  0
   57.3180   31.1420   44.8280 C   0  0  0  0  0  0  0  0  0  0  0  0
   56.2580   30.5130   44.5460 O   0  0  0  0  0  0  0  0  0  0  0  0
   57.3250   32.6360   44.6980 C   0  0  0  0  0  0  0  0  0  0  0  0
   58.1690   33.2340   45.7860 C   0  0  0  0  0  0  0  0  0  0  0  0
   58.8890   34.4190   45.5680 C   0  0  0  0  0  0  0  0  0  0  0  0
   59.7020   34.9230   46.5890 C   0  0  0  0  0  0  0  0  0  0  0  0
   59.8020   34.2380   47.8040 C   0  0  0  0  0  0  0  0  0  0  0  0
   59.0820   33.0530   47.9810 C   0  0  0  0  0  0  0  0  0  0  0  0
   58.2920   32.5810   46.9780 N   0  0  0  0  0  0  0  0  0  0  0  0
   57.3860   28.2310   45.6300 C   0  0  0  0  0  0  0  0  0  0  0  0
   56.4790   23.6990   44.8630 C   0  0  0  0  0  0  0  0  0  0  0  0
   56.5780   23.9890   43.5040 C   0  0  0  0  0  0  0  0  0  0  0  0
   56.6490   22.9510   42.6250 N   0  0  0  0  0  0  0  0  0  0  0  0
   56.6160   21.6490   43.0420 C   0  0  0  0  0  0  0  0  0  0  0  0
   56.5030   21.3390   44.4070 C   0  0  0  0  0  0  0  0  0  0  0  0
   56.4470   22.4040   45.3210 C   0  0  0  0  0  0  0  0  0  0  0  0
   54.3900   20.5300   48.6211 H   0  0  0  0  0  0  0  0  0  0  0  0
   54.0789   21.3725   47.0655 H   0  0  0  0  0  0  0  0  0  0  0  0
   54.7012   19.6874   47.0655 H   0  0  0  0  0  0  0  0  0  0  0  0
   56.0188   21.0324   49.7459 H   0  0  0  0  0  0  0  0  0  0  0  0
   57.6799   21.3770   49.1554 H   0  0  0  0  0  0  0  0  0  0  0  0
   56.4392   22.6760   49.1554 H   0  0  0  0  0  0  0  0  0  0  0  0
   57.2818   19.3496   47.9938 H   0  0  0  0  0  0  0  0  0  0  0  0
   56.6384   19.4836   46.3128 H   0  0  0  0  0  0  0  0  0  0  0  0
   58.6000   19.9860   45.8990 H   0  0  0  0  0  0  0  0  0  0  0  0
   56.1150   24.0308   48.0846 H   0  0  0  0  0  0  0  0  0  0  0  0
   58.8758   25.2515   46.3938 H   0  0  0  0  0  0  0  0  0  0  0  0
   60.6918   29.0555   45.8113 H   0  0  0  0  0  0  0  0  0  0  0  0
   59.2380   31.0570   45.7350 H   0  0  0  0  0  0  0  0  0  0  0  0
   57.7392   32.9159   43.7182 H   0  0  0  0  0  0  0  0  0  0  0  0
   56.2958   33.0144   44.7854 H   0  0  0  0  0  0  0  0  0  0  0  0
   58.8149   34.9456   44.6051 H   0  0  0  0  0  0  0  0  0  0  0  0
   60.2621   35.8573   46.4361 H   0  0  0  0  0  0  0  0  0  0  0  0
   60.4399   34.6272   48.6112 H   0  0  0  0  0  0  0  0  0  0  0  0
   59.1538   32.5021   48.9304 H   0  0  0  0  0  0  0  0  0  0  0  0
   56.4007   28.6727   45.4199 H   0  0  0  0  0  0  0  0  0  0  0  0
   56.5983   25.0302   43.1497 H   0  0  0  0  0  0  0  0  0  0  0  0
   56.6785   20.8376   42.3019 H   0  0  0  0  0  0  0  0  0  0  0  0
   56.4597   20.2946   44.7497 H   0  0  0  0  0  0  0  0  0  0  0  0
  1  2  1  0
  2  3  1  0
  2  4  1  0
  4  5  1  0
  2  6  1  0
  6  7  1  0
  7  8  2  0
  8  9  1  0
  9 10  2  0
  9 11  1  0
 11 12  2  0
 12 13  1  0
 13 14  2  0
 14 15  1  0
 15 16  1  0
 16 17  1  0
 17 18  2  0
 17 19  1  0
 19 20  1  0
 20 21  2  0
 21 22  1  0
 22 23  2  0
 23 24  1  0
 24 25  2  0
 15 26  2  0
  8 27  1  0
 27 28  2  0
 28 29  1  0
 29 30  2  0
 30 31  1  0
 31 32  2  0
 32  6  1  0
 26 11  1  0
 32 27  1  0
 25 20  1  0
  1 33  1  0
  1 34  1  0
  1 35  1  0
  3 36  1  0
  3 37  1  0
  3 38  1  0
  4 39  1  0
  4 40  1  0
  5 41  1  0
  7 42  1  0
 12 43  1  0
 14 44  1  0
 16 45  1  0
 19 46  1  0
 19 47  1  0
 21 48  1  0
 22 49  1  0
 23 50  1  0
 24 51  1  0
 26 52  1  0
 28 53  1  0
 30 54  1  0
 31 55  1  0
M  END
>  <UniqueID>  (79) 
75

>  <SMILES>  (79) 
CC(C)(CO)n1cc(C(=O)c2cncc(NC(=O)Cc3ccccn3)c2)c2cnccc21

>  <Energy>  (79) 
106.91174520903914

>  <Genealogy>  (79) 
CC(C)(CO)n1cc(C(=O)c2cncc(NC(=O)Cc3ccccn3)c2)c2cnccc21 (3D coordinates assigned)
CC(C)(CO)n1cc(C(=O)c2cncc(NC(=O)Cc3ccccn3)c2)c2cnccc21 (optimized conformer: 106.91174520903914 kcal/mol)

>  <smiles>  (79) 
CC(C)(CO)n1cc(C(=O)c2cncc(NC(=O)Cc3ccccn3)c2)c2cnccc21

>  <score_type>  (79) 
oracle

>  <origin>  (79) 
adg

>  <m_score__min__energy>  (79) 
-9.6199999999999992

>  <m_primary>  (79) 
energy

$$$$
79:0
     RDKit          3D

 36 38  0  0  0  0  0  0  0  0999 V2000
   56.8900   19.6720   43.1820 H   0  0  0  0  0  0  0  0  0  0  0  0
   56.3260   20.5010   43.0320 O   0  0  0  0  0  0  0  0  0  0  0  0
   56.6820   21.7330   43.5740 C   0  0  0  0  0  0  0  0  0  0  0  0
   57.7500   21.8350   44.4750 C   0  0  0  0  0  0  0  0  0  0  0  0
   58.3161   20.9356   44.7590 H   0  0  0  0  0  0  0  0  0  0  0  0
   58.0980   23.0770   45.0140 C   0  0  0  0  0  0  0  0  0  0  0  0
   58.9356   23.1488   45.7234 H   0  0  0  0  0  0  0  0  0  0  0  0
   57.3850   24.2360   44.6560 C   0  0  0  0  0  0  0  0  0  0  0  0
   57.7540   25.5570   45.2270 C   0  0  0  0  0  0  0  0  0  0  0  0
   57.4150   25.8830   46.5520 C   0  0  0  0  0  0  0  0  0  0  0  0
   56.8740   25.1532   47.1723 H   0  0  0  0  0  0  0  0  0  0  0  0
   57.7600   27.1270   47.0870 C   0  0  0  0  0  0  0  0  0  0  0  0
   57.4869   27.3704   48.1244 H   0  0  0  0  0  0  0  0  0  0  0  0
   58.4520   28.0670   46.3100 C   0  0  0  0  0  0  0  0  0  0  0  0
   58.7990   29.4140   46.8870 C   0  0  0  0  0  0  0  0  0  0  0  0
   58.7042   29.3741   47.9822 H   0  0  0  0  0  0  0  0  0  0  0  0
   59.8318   29.6668   46.6050 H   0  0  0  0  0  0  0  0  0  0  0  0
   57.9000   30.4420   46.3630 N   0  0  0  0  0  0  0  0  0  0  0  0
   57.3800   30.4400   45.1710 C   0  0  0  0  0  0  0  0  0  0  0  0
   56.2450   29.7330   44.9030 N   0  0  0  0  0  0  0  0  0  0  0  0
   55.6830   29.7180   43.6640 C   0  0  0  0  0  0  0  0  0  0  0  0
   54.7674   29.1360   43.4826 H   0  0  0  0  0  0  0  0  0  0  0  0
   56.2680   30.4410   42.6230 C   0  0  0  0  0  0  0  0  0  0  0  0
   55.8179   30.4345   41.6193 H   0  0  0  0  0  0  0  0  0  0  0  0
   57.4320   31.1730   42.8710 C   0  0  0  0  0  0  0  0  0  0  0  0
   57.9049   31.7469   42.0605 H   0  0  0  0  0  0  0  0  0  0  0  0
   57.9940   31.1750   44.1490 C   0  0  0  0  0  0  0  0  0  0  0  0
   58.9106   31.7485   44.3514 H   0  0  0  0  0  0  0  0  0  0  0  0
   58.7920   27.7470   44.9870 C   0  0  0  0  0  0  0  0  0  0  0  0
   59.3331   28.4788   44.3692 H   0  0  0  0  0  0  0  0  0  0  0  0
   58.4470   26.5030   44.4490 C   0  0  0  0  0  0  0  0  0  0  0  0
   58.7192   26.2624   43.4107 H   0  0  0  0  0  0  0  0  0  0  0  0
   56.3150   24.1230   43.7480 C   0  0  0  0  0  0  0  0  0  0  0  0
   55.7476   25.0196   43.4577 H   0  0  0  0  0  0  0  0  0  0  0  0
   55.9690   22.8790   43.2130 C   0  0  0  0  0  0  0  0  0  0  0  0
   55.1313   22.8018   42.5043 H   0  0  0  0  0  0  0  0  0  0  0  0
  1  2  1  0
  2  3  1  0
  3  4  2  0
  4  5  1  0
  4  6  1  0
  6  7  1  0
  6  8  2  0
  8  9  1  0
  9 10  2  0
 10 11  1  0
 10 12  1  0
 12 13  1  0
 12 14  2  0
 14 15  1  0
 15 16  1  0
 15 17  1  0
 15 18  1  0
 18 19  2  0
 19 20  1  0
 20 21  1  0
 21 22  1  0
 21 23  2  0
 23 24  1  0
 23 25  1  0
 25 26  1  0
 25 27  2  0
 27 28  1  0
 14 29  1  0
 29 30  1  0
 29 31  2  0
 31 32  1  0
  8 33  1  0
 33 34  1  0
 33 35  2  0
 35 36  1  0
 35  3  1  0
 31  9  1  0
 27 19  1  0
M  CHG  1  20  -1
M  END
>  <UniqueID>  (80) 
76

>  <SMILES>  (80) 
Oc1ccc(-c2ccc(C/N=c3/cccc[n-]3)cc2)cc1

>  <Energy>  (80) 
43.614013161931624

>  <Genealogy>  (80) 
Oc1ccc(-c2ccc(CN=c3cccc[n-]3)cc2)cc1 (protonated)
Oc1ccc(-c2ccc(C/N=c3/cccc[n-]3)cc2)cc1 (cis-trans isomerization)
Oc1ccc(-c2ccc(C/N=c3/cccc[n-]3)cc2)cc1 (3D coordinates assigned)
Oc1ccc(-c2ccc(C/N=c3/cccc[n-]3)cc2)cc1 (optimized conformer: 43.614013161931624 kcal/mol)

>  <smiles>  (80) 
Oc1ccc(-c2ccc(CN=c3cccc[nH]3)cc2)cc1

>  <score_type>  (80) 
oracle

>  <origin>  (80) 
adg

>  <m_score__min__energy>  (80) 
-9.0199999999999996

>  <m_primary>  (80) 
energy

$$$$
80:0
     RDKit          3D

 53 56  0  0  0  0  0  0  0  0999 V2000
   56.1350   30.1490   52.7410 C   0  0  0  0  0  0  0  0  0  0  0  0
   57.0230   30.0410   51.6330 O   0  0  0  0  0  0  0  0  0  0  0  0
   58.0190   30.9790   51.3240 C   0  0  0  0  0  0  0  0  0  0  0  0
   57.8670   32.3550   51.5770 C   0  0  0  0  0  0  0  0  0  0  0  0
   58.8890   33.2500   51.2470 C   0  0  0  0  0  0  0  0  0  0  0  0
   60.0780   32.7860   50.6530 C   0  0  0  0  0  0  0  0  0  0  0  0
   61.1310   33.6400   50.2950 O   0  0  0  0  0  0  0  0  0  0  0  0
   61.2920   34.2780   49.0260 C   0  0  0  0  0  0  0  0  0  0  0  0
   60.2300   33.8200   48.0540 C   0  0  0  0  0  0  0  0  0  0  0  0
   59.1550   34.6300   47.8180 N   0  0  0  0  0  0  0  0  0  0  0  0
   58.1710   34.2650   46.9560 C   0  0  0  0  0  0  0  0  0  0  0  0
   58.2450   33.0840   46.2960 N   0  0  0  0  0  0  0  0  0  0  0  0
   59.2930   32.2410   46.4820 C   0  0  0  0  0  0  0  0  0  0  0  0
   60.3220   32.5790   47.3790 C   0  0  0  0  0  0  0  0  0  0  0  0
   61.5380   31.6750   47.4800 C   0  0  0  0  0  0  0  0  0  0  0  0
   61.1560   30.2030   47.2870 C   0  0  0  0  0  0  0  0  0  0  0  0
   60.3930   30.0240   46.0460 N   0  0  0  0  0  0  0  0  0  0  0  0
   60.5670   28.8050   45.2460 C   0  0  0  0  0  0  0  0  0  0  0  0
   59.3890   27.8880   45.4300 C   0  0  0  0  0  0  0  0  0  0  0  0
   58.7690   27.2920   44.3210 C   0  0  0  0  0  0  0  0  0  0  0  0
   57.6530   26.4690   44.4930 C   0  0  0  0  0  0  0  0  0  0  0  0
   57.1440   26.2160   45.7790 C   0  0  0  0  0  0  0  0  0  0  0  0
   55.9080   25.3710   45.9590 C   0  0  0  0  0  0  0  0  0  0  0  0
   54.7970   26.1920   45.9940 F   0  0  0  0  0  0  0  0  0  0  0  0
   55.7730   24.4740   44.9150 F   0  0  0  0  0  0  0  0  0  0  0  0
   55.9760   24.6530   47.1410 F   0  0  0  0  0  0  0  0  0  0  0  0
   57.7470   26.8410   46.8840 C   0  0  0  0  0  0  0  0  0  0  0  0
   58.8630   27.6640   46.7120 C   0  0  0  0  0  0  0  0  0  0  0  0
   59.3530   30.9710   45.7390 C   0  0  0  0  0  0  0  0  0  0  0  0
   58.5050   30.7280   44.8380 O   0  0  0  0  0  0  0  0  0  0  0  0
   60.2270   31.4160   50.4120 C   0  0  0  0  0  0  0  0  0  0  0  0
   59.2070   30.5200   50.7420 C   0  0  0  0  0  0  0  0  0  0  0  0
   56.7074   30.0794   53.6778 H   0  0  0  0  0  0  0  0  0  0  0  0
   55.6143   31.1171   52.7006 H   0  0  0  0  0  0  0  0  0  0  0  0
   55.3974   29.3339   52.7006 H   0  0  0  0  0  0  0  0  0  0  0  0
   56.9398   32.7280   52.0365 H   0  0  0  0  0  0  0  0  0  0  0  0
   58.7633   34.3233   51.4527 H   0  0  0  0  0  0  0  0  0  0  0  0
   61.2138   35.3673   49.1580 H   0  0  0  0  0  0  0  0  0  0  0  0
   62.2788   34.0101   48.6205 H   0  0  0  0  0  0  0  0  0  0  0  0
   59.0750   35.5560   48.2920 H   0  0  0  0  0  0  0  0  0  0  0  0
   57.3106   34.9307   46.7930 H   0  0  0  0  0  0  0  0  0  0  0  0
   62.2629   31.9617   46.7039 H   0  0  0  0  0  0  0  0  0  0  0  0
   61.9746   31.7915   48.4829 H   0  0  0  0  0  0  0  0  0  0  0  0
   62.0718   29.5955   47.2388 H   0  0  0  0  0  0  0  0  0  0  0  0
   60.5318   29.8852   48.1352 H   0  0  0  0  0  0  0  0  0  0  0  0
   60.6527   29.0772   44.1837 H   0  0  0  0  0  0  0  0  0  0  0  0
   61.4792   28.2868   45.5767 H   0  0  0  0  0  0  0  0  0  0  0  0
   59.1639   27.4738   43.3105 H   0  0  0  0  0  0  0  0  0  0  0  0
   57.1689   26.0155   43.6155 H   0  0  0  0  0  0  0  0  0  0  0  0
   57.3372   26.6810   47.8922 H   0  0  0  0  0  0  0  0  0  0  0  0
   59.3321   28.1391   47.5862 H   0  0  0  0  0  0  0  0  0  0  0  0
   61.1561   31.0406   49.9583 H   0  0  0  0  0  0  0  0  0  0  0  0
   59.3382   29.4461   50.5431 H   0  0  0  0  0  0  0  0  0  0  0  0
  1  2  1  0
  2  3  1  0
  3  4  2  0
  4  5  1  0
  5  6  2  0
  6  7  1  0
  7  8  1  0
  8  9  1  0
  9 10  2  0
 10 11  1  0
 11 12  2  0
 12 13  1  0
 13 14  2  0
 14 15  1  0
 15 16  1  0
 16 17  1  0
 17 18  1  0
 18 19  1  0
 19 20  2  0
 20 21  1  0
 21 22  2  0
 22 23  1  0
 23 24  1  0
 23 25  1  0
 23 26  1  0
 22 27  1  0
 27 28  2  0
 17 29  1  0
 29 30  2  0
  6 31  1  0
 31 32  2  0
 32  3  1  0
 14  9  1  0
 28 19  1  0
 29 13  1  0
  1 33  1  0
  1 34  1  0
  1 35  1  0
  4 36  1  0
  5 37  1  0
  8 38  1  0
  8 39  1  0
 10 40  1  0
 11 41  1  0
 15 42  1  0
 15 43  1  0
 16 44  1  0
 16 45  1  0
 18 46  1  0
 18 47  1  0
 20 48  1  0
 21 49  1  0
 27 50  1  0
 28 51  1  0
 31 52  1  0
 32 53  1  0
M  CHG  1  10   1
M  END
>  <UniqueID>  (81) 
77

>  <SMILES>  (81) 
COc1ccc(OCc2[nH+]cnc3c2CCN(Cc2ccc(C(F)(F)F)cc2)C3=O)cc1

>  <Energy>  (81) 
57.65054822362626

>  <Genealogy>  (81) 
COc1ccc(OCc2[nH+]cnc3c2CCN(Cc2ccc(C(F)(F)F)cc2)C3=O)cc1 (protonated)
COc1ccc(OCc2[nH+]cnc3c2CCN(Cc2ccc(C(F)(F)F)cc2)C3=O)cc1 (3D coordinates assigned)
COc1ccc(OCc2[nH+]cnc3c2CCN(Cc2ccc(C(F)(F)F)cc2)C3=O)cc1 (nonaromatic ring conformer: 57.65054822362626 kcal/mol)

>  <smiles>  (81) 
COc1ccc(OCc2ncnc3c2CCN(Cc2ccc(C(F)(F)F)cc2)C3=O)cc1

>  <score_type>  (81) 
oracle

>  <origin>  (81) 
adg

>  <m_score__min__energy>  (81) 
-7.6900000000000004

>  <m_primary>  (81) 
energy

$$$$
81:0
     RDKit          3D

 37 39  0  0  0  0  0  0  0  0999 V2000
   51.9690   22.9400   43.9780 H   0  0  0  0  0  0  0  0  0  0  0  0
   52.4260   22.7770   44.9040 N   0  0  0  0  0  0  0  0  0  0  0  0
   53.5980   23.2530   45.1720 C   0  0  0  0  0  0  0  0  0  0  0  0
   53.7410   24.5720   45.4600 N   0  0  0  0  0  0  0  0  0  0  0  0
   54.9560   25.1070   45.7480 C   0  0  0  0  0  0  0  0  0  0  0  0
   55.0440   26.3360   46.0110 O   0  0  0  0  0  0  0  0  0  0  0  0
   56.0970   24.2830   45.7480 C   0  0  0  0  0  0  0  0  0  0  0  0
   57.3820   24.7760   46.0370 C   0  0  0  0  0  0  0  0  0  0  0  0
   57.5193   25.8396   46.2816 H   0  0  0  0  0  0  0  0  0  0  0  0
   58.4940   23.9110   46.0140 C   0  0  0  0  0  0  0  0  0  0  0  0
   59.8250   24.3740   46.2820 N   0  0  0  0  0  0  0  0  0  0  0  0
   60.2750   26.0290   46.5410 S   0  0  0  0  0  0  0  0  0  0  0  0
   60.3310   26.2970   48.0190 O   0  0  0  0  0  0  0  0  0  0  0  0
   61.6340   26.2700   45.9470 O   0  0  0  0  0  0  0  0  0  0  0  0
   59.1130   27.0930   45.7540 C   0  0  0  0  0  0  0  0  0  0  0  0
   58.9510   27.0680   44.3630 C   0  0  0  0  0  0  0  0  0  0  0  0
   59.5367   26.3627   43.7552 H   0  0  0  0  0  0  0  0  0  0  0  0
   58.0470   27.9370   43.7450 C   0  0  0  0  0  0  0  0  0  0  0  0
   57.9291   27.9143   42.6516 H   0  0  0  0  0  0  0  0  0  0  0  0
   57.2880   28.8390   44.5090 C   0  0  0  0  0  0  0  0  0  0  0  0
   56.3360   29.7650   43.8460 C   0  0  0  0  0  0  0  0  0  0  0  0
   55.3000   30.3930   44.6120 N   0  0  0  0  0  0  0  0  0  0  0  0
   54.6460   31.0760   44.1690 H   0  0  0  0  0  0  0  0  0  0  0  0
   55.1440   30.1410   45.6130 H   0  0  0  0  0  0  0  0  0  0  0  0
   56.4330   30.0190   42.5750 N   0  0  0  0  0  0  0  0  0  0  0  0
   55.6030   29.9820   41.9430 H   0  0  0  0  0  0  0  0  0  0  0  0
   57.3570   30.2440   42.1440 H   0  0  0  0  0  0  0  0  0  0  0  0
   57.4550   28.8580   45.9060 C   0  0  0  0  0  0  0  0  0  0  0  0
   56.8694   29.5606   46.5172 H   0  0  0  0  0  0  0  0  0  0  0  0
   58.3610   27.9890   46.5220 C   0  0  0  0  0  0  0  0  0  0  0  0
   58.4831   28.0098   47.6150 H   0  0  0  0  0  0  0  0  0  0  0  0
   58.3050   22.5560   45.7150 C   0  0  0  0  0  0  0  0  0  0  0  0
   59.1690   21.8753   45.7027 H   0  0  0  0  0  0  0  0  0  0  0  0
   57.0290   22.0600   45.4320 C   0  0  0  0  0  0  0  0  0  0  0  0
   56.8937   20.9937   45.1980 H   0  0  0  0  0  0  0  0  0  0  0  0
   55.9250   22.9170   45.4460 C   0  0  0  0  0  0  0  0  0  0  0  0
   54.6850   22.4350   45.1660 N   0  0  0  0  0  0  0  0  0  0  0  0
  1  2  1  0
  2  3  2  0
  3  4  1  0
  4  5  1  0
  5  6  2  0
  5  7  1  0
  7  8  2  0
  8  9  1  0
  8 10  1  0
 10 11  1  0
 11 12  1  0
 12 13  2  0
 12 14  2  0
 12 15  1  0
 15 16  2  0
 16 17  1  0
 16 18  1  0
 18 19  1  0
 18 20  2  0
 20 21  1  0
 21 22  1  0
 22 23  1  0
 22 24  1  0
 21 25  2  0
 25 26  1  0
 25 27  1  0
 20 28  1  0
 28 29  1  0
 28 30  2  0
 30 31  1  0
 10 32  2  0
 32 33  1  0
 32 34  1  0
 34 35  1  0
 34 36  2  0
 36 37  1  0
 37  3  1  0
 36  7  1  0
 30 15  1  0
M  CHG  4   4  -1  11  -1  25   1  37  -1
M  END
>  <UniqueID>  (82) 
78

>  <SMILES>  (82) 
[H]/N=c1/[n-]c(=O)c2cc([N-]S(=O)(=O)c3ccc(C(N)=[NH2+])cc3)ccc2[n-]1

>  <Energy>  (82) 
49.06404965020981

>  <Genealogy>  (82) 
N=c1[n-]c(=O)c2cc([N-]S(=O)(=O)c3ccc(C(N)=[NH2+])cc3)ccc2[n-]1 (protonated)
[H]/N=c1/[n-]c(=O)c2cc([N-]S(=O)(=O)c3ccc(C(N)=[NH2+])cc3)ccc2[n-]1 (cis-trans isomerization)
[H]/N=c1/[n-]c(=O)c2cc([N-]S(=O)(=O)c3ccc(C(N)=[NH2+])cc3)ccc2[n-]1 (3D coordinates assigned)
[H]/N=c1/[n-]c(=O)c2cc([N-]S(=O)(=O)c3ccc(C(N)=[NH2+])cc3)ccc2[n-]1 (optimized conformer: 49.06404965020981 kcal/mol)

>  <smiles>  (82) 
N=C(N)c1ccc(S(=O)(=O)Nc2ccc3[nH]c(=N)[nH]c(=O)c3c2)cc1

>  <score_type>  (82) 
oracle

>  <origin>  (82) 
adg

>  <m_score__min__energy>  (82) 
-11.449999999999999

>  <m_primary>  (82) 
energy

$$$$
82:0
     RDKit          3D

 63 67  0  0  0  0  0  0  0  0999 V2000
   56.4500   27.0760   47.3790 H   0  0  0  0  0  0  0  0  0  0  0  0
   56.7600   26.8580   46.4050 N   0  0  0  0  0  0  0  0  0  0  0  0
   58.4660   26.5920   46.4660 S   0  0  0  0  0  0  0  0  0  0  0  0
   58.7420   25.1270   46.6500 O   0  0  0  0  0  0  0  0  0  0  0  0
   59.0850   27.0400   45.1730 O   0  0  0  0  0  0  0  0  0  0  0  0
   59.1600   27.5000   47.8080 C   0  0  0  0  0  0  0  0  0  0  0  0
   60.1850   26.9440   48.5870 C   0  0  0  0  0  0  0  0  0  0  0  0
   60.5526   25.9309   48.3670 H   0  0  0  0  0  0  0  0  0  0  0  0
   60.7410   27.6730   49.6420 C   0  0  0  0  0  0  0  0  0  0  0  0
   61.5517   27.2351   50.2428 H   0  0  0  0  0  0  0  0  0  0  0  0
   60.2680   28.9650   49.9390 C   0  0  0  0  0  0  0  0  0  0  0  0
   60.8230   29.7050   51.0450 N   0  0  0  0  0  0  0  0  0  0  0  0
   60.0710   30.3090   51.4530 H   0  0  0  0  0  0  0  0  0  0  0  0
   61.1560   29.0610   51.8000 H   0  0  0  0  0  0  0  0  0  0  0  0
   61.9420   30.4950   50.5990 C   0  0  0  0  0  0  0  0  0  0  0  0
   61.7550   31.4650   49.6440 N   0  0  0  0  0  0  0  0  0  0  0  0
   62.7780   32.2470   49.1790 C   0  0  0  0  0  0  0  0  0  0  0  0
   62.5860   33.1660   48.2770 N   0  0  0  0  0  0  0  0  0  0  0  0
   61.3380   33.5410   47.6710 C   0  0  0  0  0  0  0  0  0  0  0  0
   61.3100   33.7860   46.2940 C   0  0  0  0  0  0  0  0  0  0  0  0
   62.2206   33.6371   45.6951 H   0  0  0  0  0  0  0  0  0  0  0  0
   60.1360   34.2180   45.6730 C   0  0  0  0  0  0  0  0  0  0  0  0
   60.1276   34.3956   44.5875 H   0  0  0  0  0  0  0  0  0  0  0  0
   58.9710   34.4270   46.4180 C   0  0  0  0  0  0  0  0  0  0  0  0
   57.8220   34.8630   45.7400 O   0  0  0  0  0  0  0  0  0  0  0  0
   57.0210   34.0740   44.8590 C   0  0  0  0  0  0  0  0  0  0  0  0
   55.9868   34.4483   44.8795 H   0  0  0  0  0  0  0  0  0  0  0  0
   57.4357   34.1495   43.8430 H   0  0  0  0  0  0  0  0  0  0  0  0
   57.0310   32.6030   45.2850 C   0  0  0  0  0  0  0  0  0  0  0  0
   57.9251   32.4129   45.8969 H   0  0  0  0  0  0  0  0  0  0  0  0
   56.1160   32.4015   45.8613 H   0  0  0  0  0  0  0  0  0  0  0  0
   57.0510   31.7050   44.1100 N   0  0  0  0  0  0  0  0  0  0  0  0
   56.2420   30.4990   44.3370 C   0  0  0  0  0  0  0  0  0  0  0  0
   55.4307   30.7195   45.0463 H   0  0  0  0  0  0  0  0  0  0  0  0
   55.7912   30.1530   43.3952 H   0  0  0  0  0  0  0  0  0  0  0  0
   57.1600   29.4320   44.9140 C   0  0  0  0  0  0  0  0  0  0  0  0
   57.0796   29.4063   46.0108 H   0  0  0  0  0  0  0  0  0  0  0  0
   56.8987   28.4265   44.5526 H   0  0  0  0  0  0  0  0  0  0  0  0
   58.5590   29.8390   44.4930 C   0  0  0  0  0  0  0  0  0  0  0  0
   59.2192   29.9082   45.3701 H   0  0  0  0  0  0  0  0  0  0  0  0
   59.0087   29.1037   43.8095 H   0  0  0  0  0  0  0  0  0  0  0  0
   58.4070   31.2030   43.8330 C   0  0  0  0  0  0  0  0  0  0  0  0
   59.1523   31.8998   44.2442 H   0  0  0  0  0  0  0  0  0  0  0  0
   58.5637   31.1171   42.7476 H   0  0  0  0  0  0  0  0  0  0  0  0
   59.0060   34.2210   47.8110 C   0  0  0  0  0  0  0  0  0  0  0  0
   58.1044   34.4050   48.4138 H   0  0  0  0  0  0  0  0  0  0  0  0
   60.1800   33.7840   48.4320 C   0  0  0  0  0  0  0  0  0  0  0  0
   60.1983   33.6294   49.5209 H   0  0  0  0  0  0  0  0  0  0  0  0
   64.0580   32.0120   49.6820 C   0  0  0  0  0  0  0  0  0  0  0  0
   64.2730   31.0480   50.6280 C   0  0  0  0  0  0  0  0  0  0  0  0
   63.2350   30.2600   51.1180 C   0  0  0  0  0  0  0  0  0  0  0  0
   63.4143   29.4857   51.8785 H   0  0  0  0  0  0  0  0  0  0  0  0
   65.6190   31.0720   50.9190 C   0  0  0  0  0  0  0  0  0  0  0  0
   66.3210   30.2410   51.8580 C   0  0  0  0  0  0  0  0  0  0  0  0
   66.8860   29.5720   52.6140 N   0  0  0  0  0  0  0  0  0  0  0  0
   66.1680   32.0680   50.1220 C   0  0  0  0  0  0  0  0  0  0  0  0
   67.2315   32.3489   50.1089 H   0  0  0  0  0  0  0  0  0  0  0  0
   65.2060   32.6430   49.3640 N   0  0  0  0  0  0  0  0  0  0  0  0
   65.3340   33.4190   48.6770 H   0  0  0  0  0  0  0  0  0  0  0  0
   59.2430   29.5190   49.1500 C   0  0  0  0  0  0  0  0  0  0  0  0
   58.8649   30.5276   49.3733 H   0  0  0  0  0  0  0  0  0  0  0  0
   58.7030   28.7940   48.0840 C   0  0  0  0  0  0  0  0  0  0  0  0
   57.9159   29.2420   47.4596 H   0  0  0  0  0  0  0  0  0  0  0  0
  1  2  1  0
  2  3  1  0
  3  4  2  0
  3  5  2  0
  3  6  1  0
  6  7  2  0
  7  8  1  0
  7  9  1  0
  9 10  1  0
  9 11  2  0
 11 12  1  0
 12 13  1  0
 12 14  1  0
 12 15  1  0
 15 16  1  0
 16 17  1  0
 17 18  2  0
 18 19  1  0
 19 20  2  0
 20 21  1  0
 20 22  1  0
 22 23  1  0
 22 24  2  0
 24 25  1  0
 25 26  1  0
 26 27  1  0
 26 28  1  0
 26 29  1  0
 29 30  1  0
 29 31  1  0
 29 32  1  0
 32 33  1  0
 33 34  1  0
 33 35  1  0
 33 36  1  0
 36 37  1  0
 36 38  1  0
 36 39  1  0
 39 40  1  0
 39 41  1  0
 39 42  1  0
 42 43  1  0
 42 44  1  0
 24 45  1  0
 45 46  1  0
 45 47  2  0
 47 48  1  0
 17 49  1  0
 49 50  2  0
 50 51  1  0
 51 52  1  0
 50 53  1  0
 53 54  1  0
 54 55  3  0
 53 56  2  0
 56 57  1  0
 56 58  1  0
 58 59  1  0
 11 60  1  0
 60 61  1  0
 60 62  2  0
 62 63  1  0
 62  6  1  0
 51 15  2  0
 47 19  1  0
 58 49  1  0
 42 32  1  0
M  CHG  3   2  -1  12   1  16  -1
M  END
>  <UniqueID>  (83) 
79

>  <SMILES>  (83) 
N#Cc1c[nH]c2/c(=N/c3ccc(OCCN4CCCC4)cc3)[n-]c([NH2+]c3ccc(S([NH-])(=O)=O)cc3)cc12

>  <Energy>  (83) 
110.01447512284979

>  <Genealogy>  (83) 
N#Cc1c[nH]c2c(=Nc3ccc(OCCN4CCCC4)cc3)[n-]c([NH2+]c3ccc(S([NH-])(=O)=O)cc3)cc12 (protonated)
N#Cc1c[nH]c2/c(=N/c3ccc(OCCN4CCCC4)cc3)[n-]c([NH2+]c3ccc(S([NH-])(=O)=O)cc3)cc12 (cis-trans isomerization)
N#Cc1c[nH]c2/c(=N/c3ccc(OCCN4CCCC4)cc3)[n-]c([NH2+]c3ccc(S([NH-])(=O)=O)cc3)cc12 (3D coordinates assigned)
N#Cc1c[nH]c2/c(=N/c3ccc(OCCN4CCCC4)cc3)[n-]c([NH2+]c3ccc(S([NH-])(=O)=O)cc3)cc12 (nonaromatic ring conformer: 110.01447512284979 kcal/mol)

>  <smiles>  (83) 
N#Cc1c[nH]c2c(=Nc3ccc(OCCN4CCCC4)cc3)[nH]c(Nc3ccc(S(N)(=O)=O)cc3)cc12

>  <score_type>  (83) 
oracle

>  <origin>  (83) 
adg

>  <m_score__min__energy>  (83) 
-10.57

>  <m_primary>  (83) 
energy

$$$$
83:0
     RDKit          3D

 34 35  0  0  0  0  0  0  0  0999 V2000
   55.7690   27.5150   45.6210 O   0  0  0  0  0  0  0  0  0  0  0  0
   55.4720   26.3310   45.9290 C   0  0  0  0  0  0  0  0  0  0  0  0
   54.1540   25.9080   45.8120 O   0  0  0  0  0  0  0  0  0  0  0  0
   56.5170   25.4120   46.4100 C   0  0  0  0  0  0  0  0  0  0  0  0
   56.3920   24.8780   47.5460 O   0  0  0  0  0  0  0  0  0  0  0  0
   57.7040   25.0570   45.5570 C   0  0  0  0  0  0  0  0  0  0  0  0
   58.9310   25.8110   45.9970 C   0  0  0  0  0  0  0  0  0  0  0  0
   60.0330   25.1960   46.0000 O   0  0  0  0  0  0  0  0  0  0  0  0
   58.8830   27.2290   46.4500 C   0  0  0  0  0  0  0  0  0  0  0  0
   59.3070   27.6090   47.7380 C   0  0  0  0  0  0  0  0  0  0  0  0
   59.2510   28.9460   48.1400 C   0  0  0  0  0  0  0  0  0  0  0  0
   58.7730   29.9240   47.2670 C   0  0  0  0  0  0  0  0  0  0  0  0
   58.3520   29.5690   45.9790 C   0  0  0  0  0  0  0  0  0  0  0  0
   57.7250   30.7880   44.8720 S   0  0  0  0  0  0  0  0  0  0  0  0
   56.2270   30.6680   44.8460 O   0  0  0  0  0  0  0  0  0  0  0  0
   58.2560   30.5540   43.4850 O   0  0  0  0  0  0  0  0  0  0  0  0
   58.1970   32.4040   45.4030 C   0  0  0  0  0  0  0  0  0  0  0  0
   58.2530   32.7040   46.7740 C   0  0  0  0  0  0  0  0  0  0  0  0
   58.6320   33.9800   47.2010 C   0  0  0  0  0  0  0  0  0  0  0  0
   58.9630   34.9620   46.2650 C   0  0  0  0  0  0  0  0  0  0  0  0
   58.9220   34.6680   44.9010 C   0  0  0  0  0  0  0  0  0  0  0  0
   58.5430   33.3930   44.4670 C   0  0  0  0  0  0  0  0  0  0  0  0
   58.5260   33.1250   43.1370 F   0  0  0  0  0  0  0  0  0  0  0  0
   58.4060   28.2270   45.5770 C   0  0  0  0  0  0  0  0  0  0  0  0
   57.8965   23.9772   45.6403 H   0  0  0  0  0  0  0  0  0  0  0  0
   57.4804   25.3299   44.5151 H   0  0  0  0  0  0  0  0  0  0  0  0
   59.6858   26.8461   48.4341 H   0  0  0  0  0  0  0  0  0  0  0  0
   59.5852   29.2288   49.1491 H   0  0  0  0  0  0  0  0  0  0  0  0
   58.7268   30.9744   47.5904 H   0  0  0  0  0  0  0  0  0  0  0  0
   57.9976   31.9318   47.5146 H   0  0  0  0  0  0  0  0  0  0  0  0
   58.6695   34.2108   48.2758 H   0  0  0  0  0  0  0  0  0  0  0  0
   59.2560   35.9671   46.6025 H   0  0  0  0  0  0  0  0  0  0  0  0
   59.1885   35.4410   44.1652 H   0  0  0  0  0  0  0  0  0  0  0  0
   58.0715   27.9494   44.5665 H   0  0  0  0  0  0  0  0  0  0  0  0
  1  2  2  0
  2  3  1  0
  2  4  1  0
  4  5  2  0
  4  6  1  0
  6  7  1  0
  7  8  2  0
  7  9  1  0
  9 10  2  0
 10 11  1  0
 11 12  2  0
 12 13  1  0
 13 14  1  0
 14 15  2  0
 14 16  2  0
 14 17  1  0
 17 18  2  0
 18 19  1  0
 19 20  2  0
 20 21  1  0
 21 22  2  0
 22 23  1  0
 13 24  2  0
 24  9  1  0
 22 17  1  0
  6 25  1  0
  6 26  1  0
 10 27  1  0
 11 28  1  0
 12 29  1  0
 18 30  1  0
 19 31  1  0
 20 32  1  0
 21 33  1  0
 24 34  1  0
M  CHG  1   3  -1
M  END
>  <UniqueID>  (84) 
80

>  <SMILES>  (84) 
O=C([O-])C(=O)CC(=O)c1cccc(S(=O)(=O)c2ccccc2F)c1

>  <Energy>  (84) 
37.405983213709284

>  <Genealogy>  (84) 
O=C([O-])C(=O)CC(=O)c1cccc(S(=O)(=O)c2ccccc2F)c1 (protonated)
O=C([O-])C(=O)CC(=O)c1cccc(S(=O)(=O)c2ccccc2F)c1 (3D coordinates assigned)
O=C([O-])C(=O)CC(=O)c1cccc(S(=O)(=O)c2ccccc2F)c1 (optimized conformer: 37.405983213709284 kcal/mol)

>  <smiles>  (84) 
O=C(O)C(=O)CC(=O)c1cccc(S(=O)(=O)c2ccccc2F)c1

>  <score_type>  (84) 
oracle

>  <origin>  (84) 
adg

>  <m_score__min__energy>  (84) 
-12

>  <m_primary>  (84) 
energy

$$$$
84:0
     RDKit          3D

 51 54  0  0  0  0  0  0  0  0999 V2000
   60.9526   34.4113   50.9286 H   0  0  0  0  0  0  0  0  0  0  0  0
   60.1710   33.8440   50.4020 C   0  0  0  0  0  0  0  0  0  0  0  0
   59.3640   32.9990   51.0930 N   0  0  0  0  0  0  0  0  0  0  0  0
   58.3880   32.2880   50.4640 C   0  0  0  0  0  0  0  0  0  0  0  0
   57.6090   31.4780   51.1190 N   0  0  0  0  0  0  0  0  0  0  0  0
   57.7560   30.0560   51.2530 C   0  0  0  0  0  0  0  0  0  0  0  0
   57.4270   29.4660   52.3190 O   0  0  0  0  0  0  0  0  0  0  0  0
   58.2180   29.3260   50.1510 O   0  0  0  0  0  0  0  0  0  0  0  0
   59.2990   29.6880   49.3320 C   0  0  0  0  0  0  0  0  0  0  0  0
   60.5140   30.1680   49.8560 C   0  0  0  0  0  0  0  0  0  0  0  0
   60.6431   30.2604   50.9445 H   0  0  0  0  0  0  0  0  0  0  0  0
   61.5580   30.5280   48.9970 C   0  0  0  0  0  0  0  0  0  0  0  0
   62.5089   30.8936   49.4118 H   0  0  0  0  0  0  0  0  0  0  0  0
   61.3950   30.4240   47.6130 C   0  0  0  0  0  0  0  0  0  0  0  0
   62.2187   30.7022   46.9391 H   0  0  0  0  0  0  0  0  0  0  0  0
   60.1840   29.9660   47.0860 C   0  0  0  0  0  0  0  0  0  0  0  0
   60.0532   29.8888   45.9965 H   0  0  0  0  0  0  0  0  0  0  0  0
   59.1390   29.6060   47.9420 C   0  0  0  0  0  0  0  0  0  0  0  0
   58.1846   29.2560   47.5217 H   0  0  0  0  0  0  0  0  0  0  0  0
   58.2220   32.4230   49.1220 N   0  0  0  0  0  0  0  0  0  0  0  0
   59.0090   33.2510   48.3800 C   0  0  0  0  0  0  0  0  0  0  0  0
   58.7760   33.3600   46.9170 C   0  0  0  0  0  0  0  0  0  0  0  0
   59.0890   34.5570   46.2470 C   0  0  0  0  0  0  0  0  0  0  0  0
   59.5002   35.4067   46.8117 H   0  0  0  0  0  0  0  0  0  0  0  0
   58.8820   34.6750   44.8720 C   0  0  0  0  0  0  0  0  0  0  0  0
   59.1382   35.6130   44.3577 H   0  0  0  0  0  0  0  0  0  0  0  0
   58.3510   33.6070   44.1470 C   0  0  0  0  0  0  0  0  0  0  0  0
   58.1973   33.7031   43.0620 H   0  0  0  0  0  0  0  0  0  0  0  0
   58.0130   32.4120   44.7980 C   0  0  0  0  0  0  0  0  0  0  0  0
   57.4510   31.2510   44.0230 C   0  0  0  0  0  0  0  0  0  0  0  0
   56.3533   31.3206   44.0088 H   0  0  0  0  0  0  0  0  0  0  0  0
   57.8420   31.2819   42.9953 H   0  0  0  0  0  0  0  0  0  0  0  0
   57.8470   29.9900   44.6470 N   0  0  0  0  0  0  0  0  0  0  0  0
   58.8650   29.8210   44.8050 H   0  0  0  0  0  0  0  0  0  0  0  0
   56.8840   29.0160   45.0800 C   0  0  0  0  0  0  0  0  0  0  0  0
   55.6680   29.3380   45.1650 O   0  0  0  0  0  0  0  0  0  0  0  0
   57.3000   27.6390   45.4400 C   0  0  0  0  0  0  0  0  0  0  0  0
   58.6440   27.2460   45.2870 C   0  0  0  0  0  0  0  0  0  0  0  0
   59.3811   27.9614   44.8934 H   0  0  0  0  0  0  0  0  0  0  0  0
   59.0470   25.9530   45.6320 C   0  0  0  0  0  0  0  0  0  0  0  0
   60.0976   25.6533   45.5036 H   0  0  0  0  0  0  0  0  0  0  0  0
   58.1200   25.0410   46.1390 C   0  0  0  0  0  0  0  0  0  0  0  0
   58.5140   23.7880   46.4760 F   0  0  0  0  0  0  0  0  0  0  0  0
   56.7870   25.4230   46.3090 C   0  0  0  0  0  0  0  0  0  0  0  0
   56.0582   24.7061   46.7151 H   0  0  0  0  0  0  0  0  0  0  0  0
   56.3770   26.7150   45.9640 C   0  0  0  0  0  0  0  0  0  0  0  0
   55.3266   27.0106   46.1031 H   0  0  0  0  0  0  0  0  0  0  0  0
   58.2260   32.2930   46.1800 C   0  0  0  0  0  0  0  0  0  0  0  0
   57.9607   31.3568   46.6930 H   0  0  0  0  0  0  0  0  0  0  0  0
   60.0100   33.9930   49.0270 C   0  0  0  0  0  0  0  0  0  0  0  0
   60.6549   34.6791   48.4584 H   0  0  0  0  0  0  0  0  0  0  0  0
  1  2  1  0
  2  3  1  0
  3  4  1  0
  4  5  2  0
  5  6  1  0
  6  7  2  0
  6  8  1  0
  8  9  1  0
  9 10  2  0
 10 11  1  0
 10 12  1  0
 12 13  1  0
 12 14  2  0
 14 15  1  0
 14 16  1  0
 16 17  1  0
 16 18  2  0
 18 19  1  0
  4 20  1  0
 20 21  2  0
 21 22  1  0
 22 23  2  0
 23 24  1  0
 23 25  1  0
 25 26  1  0
 25 27  2  0
 27 28  1  0
 27 29  1  0
 29 30  1  0
 30 31  1  0
 30 32  1  0
 30 33  1  0
 33 34  1  0
 33 35  1  0
 35 36  2  0
 35 37  1  0
 37 38  2  0
 38 39  1  0
 38 40  1  0
 40 41  1  0
 40 42  2  0
 42 43  1  0
 42 44  1  0
 44 45  1  0
 44 46  2  0
 46 47  1  0
 29 48  2  0
 48 49  1  0
 21 50  1  0
 50 51  1  0
 50  2  2  0
 18  9  1  0
 48 22  1  0
 46 37  1  0
M  CHG  1   3  -1
M  END
>  <UniqueID>  (85) 
81

>  <SMILES>  (85) 
O=C(/N=c1/nc(-c2cccc(CNC(=O)c3ccc(F)cc3)c2)cc[n-]1)Oc1ccccc1

>  <Energy>  (85) 
67.71084167409661

>  <Genealogy>  (85) 
O=C(N=c1nc(-c2cccc(CNC(=O)c3ccc(F)cc3)c2)cc[n-]1)Oc1ccccc1 (protonated)
O=C(/N=c1/nc(-c2cccc(CNC(=O)c3ccc(F)cc3)c2)cc[n-]1)Oc1ccccc1 (cis-trans isomerization)
O=C(/N=c1/nc(-c2cccc(CNC(=O)c3ccc(F)cc3)c2)cc[n-]1)Oc1ccccc1 (3D coordinates assigned)
O=C(/N=c1/nc(-c2cccc(CNC(=O)c3ccc(F)cc3)c2)cc[n-]1)Oc1ccccc1 (optimized conformer: 67.71084167409661 kcal/mol)

>  <smiles>  (85) 
O=C(N=c1nc(-c2cccc(CNC(=O)c3ccc(F)cc3)c2)cc[nH]1)Oc1ccccc1

>  <score_type>  (85) 
oracle

>  <origin>  (85) 
adg

>  <m_score__min__energy>  (85) 
-11.76

>  <m_primary>  (85) 
energy

$$$$
85:0
     RDKit          3D

 43 47  0  0  0  0  0  0  0  0999 V2000
   58.4738   26.7512   44.2363 H   0  0  0  0  0  0  0  0  0  0  0  0
   57.7600   27.0450   45.0200 C   0  0  0  0  0  0  0  0  0  0  0  0
   57.1950   25.9850   45.8730 C   0  0  0  0  0  0  0  0  0  0  0  0
   57.9400   25.0270   46.4490 N   0  0  0  0  0  0  0  0  0  0  0  0
   57.0470   24.3350   47.1880 C   0  0  0  0  0  0  0  0  0  0  0  0
   57.3700   23.3330   47.8780 O   0  0  0  0  0  0  0  0  0  0  0  0
   55.7830   24.8080   47.1390 N   0  0  0  0  0  0  0  0  0  0  0  0
   55.8940   25.8590   46.3120 C   0  0  0  0  0  0  0  0  0  0  0  0
   54.8400   26.7120   46.0110 O   0  0  0  0  0  0  0  0  0  0  0  0
   57.4580   28.3450   45.1400 C   0  0  0  0  0  0  0  0  0  0  0  0
   56.4940   29.0970   44.4660 C   0  0  0  0  0  0  0  0  0  0  0  0
   55.7920   28.7015   43.7171 H   0  0  0  0  0  0  0  0  0  0  0  0
   56.5540   30.3880   44.8740 N   0  0  0  0  0  0  0  0  0  0  0  0
   57.5230   30.4700   45.7730 N   0  0  0  0  0  0  0  0  0  0  0  0
   57.9600   31.5570   46.4720 C   0  0  0  0  0  0  0  0  0  0  0  0
   57.4430   32.7450   46.3410 N   0  0  0  0  0  0  0  0  0  0  0  0
   57.5540   33.6180   45.1760 C   0  0  0  0  0  0  0  0  0  0  0  0
   56.5384   34.0395   45.2070 H   0  0  0  0  0  0  0  0  0  0  0  0
   58.4620   33.0410   44.1050 C   0  0  0  0  0  0  0  0  0  0  0  0
   58.8983   32.0396   44.2346 H   0  0  0  0  0  0  0  0  0  0  0  0
   58.3734   32.8621   43.0233 H   0  0  0  0  0  0  0  0  0  0  0  0
   58.9420   34.1980   44.9690 C   0  0  0  0  0  0  0  0  0  0  0  0
   59.7253   34.0333   45.7235 H   0  0  0  0  0  0  0  0  0  0  0  0
   59.3443   35.2025   44.7712 H   0  0  0  0  0  0  0  0  0  0  0  0
   58.9830   31.3770   47.3530 N   0  0  0  0  0  0  0  0  0  0  0  0
   59.5550   30.1470   47.5270 C   0  0  0  0  0  0  0  0  0  0  0  0
   60.5250   30.0140   48.3830 N   0  0  0  0  0  0  0  0  0  0  0  0
   60.9370   31.0390   49.3440 C   0  0  0  0  0  0  0  0  0  0  0  0
   60.0656   31.6554   49.6099 H   0  0  0  0  0  0  0  0  0  0  0  0
   61.3412   30.5423   50.2384 H   0  0  0  0  0  0  0  0  0  0  0  0
   62.0060   31.9220   48.7570 C   0  0  0  0  0  0  0  0  0  0  0  0
   61.8940   32.4000   47.4410 C   0  0  0  0  0  0  0  0  0  0  0  0
   61.0083   32.1475   46.8395 H   0  0  0  0  0  0  0  0  0  0  0  0
   62.9050   33.1960   46.8930 C   0  0  0  0  0  0  0  0  0  0  0  0
   62.8140   33.5667   45.8613 H   0  0  0  0  0  0  0  0  0  0  0  0
   64.0310   33.5210   47.6550 C   0  0  0  0  0  0  0  0  0  0  0  0
   64.8241   34.1491   47.2232 H   0  0  0  0  0  0  0  0  0  0  0  0
   64.1500   33.0490   48.9640 C   0  0  0  0  0  0  0  0  0  0  0  0
   65.2710   33.3700   49.7190 O   0  0  0  0  0  0  0  0  0  0  0  0
   63.1410   32.2500   49.5160 C   0  0  0  0  0  0  0  0  0  0  0  0
   63.2378   31.8784   50.5468 H   0  0  0  0  0  0  0  0  0  0  0  0
   59.1020   29.0770   46.8120 N   0  0  0  0  0  0  0  0  0  0  0  0
   58.0830   29.2690   45.9440 C   0  0  0  0  0  0  0  0  0  0  0  0
  1  2  1  0
  2  3  1  0
  3  4  1  0
  4  5  1  0
  5  6  2  0
  5  7  1  0
  7  8  1  0
  8  9  1  0
  2 10  2  3
 10 11  1  0
 11 12  1  0
 11 13  2  0
 13 14  1  0
 14 15  1  0
 15 16  2  3
 16 17  1  0
 17 18  1  0
 17 19  1  0
 19 20  1  0
 19 21  1  0
 19 22  1  0
 22 23  1  0
 22 24  1  0
 15 25  1  0
 25 26  1  0
 26 27  2  0
 27 28  1  0
 28 29  1  0
 28 30  1  0
 28 31  1  0
 31 32  2  0
 32 33  1  0
 32 34  1  0
 34 35  1  0
 34 36  2  0
 36 37  1  0
 36 38  1  0
 38 39  1  0
 38 40  2  0
 40 41  1  0
 26 42  1  0
 42 43  2  0
  8  3  2  0
 43 10  1  0
 43 14  1  0
 22 17  1  0
 40 31  1  0
M  CHG  5   4  -1   7  -1   9  -1  25  -1  39  -1
M  END
>  <UniqueID>  (86) 
82

>  <SMILES>  (86) 
O=c1[n-]c([O-])c(C=c2cnn3c(=NC4CC4)[n-]/c(=N/Cc4cccc([O-])c4)nc23)[n-]1

>  <Energy>  (86) 
387.8117240507102

>  <Genealogy>  (86) 
O=c1[n-]c([O-])c(C=c2cnn3c(=NC4CC4)[n-]c(=NCc4cccc([O-])c4)nc23)[n-]1 (protonated)
O=c1[n-]c([O-])c(C=c2cnn3c(=NC4CC4)[n-]/c(=N/Cc4cccc([O-])c4)nc23)[n-]1 (cis-trans isomerization)
O=c1[n-]c([O-])c(C=c2cnn3c(=NC4CC4)[n-]/c(=N/Cc4cccc([O-])c4)nc23)[n-]1 (3D coordinates assigned)
O=c1[n-]c([O-])c(C=c2cnn3c(=NC4CC4)[n-]/c(=N/Cc4cccc([O-])c4)nc23)[n-]1 (nonaromatic ring conformer: 387.8117240507102 kcal/mol)

>  <smiles>  (86) 
O=c1[nH]c(O)c(C=c2cnn3c(=NC4CC4)[nH]c(=NCc4cccc(O)c4)nc23)[nH]1

>  <score_type>  (86) 
oracle

>  <origin>  (86) 
adg

>  <m_score__min__energy>  (86) 
-19.489999999999998

>  <m_primary>  (86) 
energy

$$$$
86:0
     RDKit          3D

 53 55  0  0  0  0  0  0  0  0999 V2000
   56.2880   29.3600   52.7680 C   0  0  0  0  0  0  0  0  0  0  0  0
   57.1600   29.5940   51.6690 O   0  0  0  0  0  0  0  0  0  0  0  0
   58.5420   29.3400   51.6810 C   0  0  0  0  0  0  0  0  0  0  0  0
   59.2390   29.0570   52.8730 C   0  0  0  0  0  0  0  0  0  0  0  0
   60.6150   28.8130   52.8460 C   0  0  0  0  0  0  0  0  0  0  0  0
   61.3080   28.8570   51.6360 C   0  0  0  0  0  0  0  0  0  0  0  0
   60.6290   29.1400   50.4480 C   0  0  0  0  0  0  0  0  0  0  0  0
   59.2410   29.3640   50.4620 C   0  0  0  0  0  0  0  0  0  0  0  0
   58.5340   29.7050   49.2620 N   0  0  0  0  0  0  0  0  0  0  0  0
   59.0530   29.6640   47.9270 C   0  0  0  0  0  0  0  0  0  0  0  0
   60.1270   30.2740   47.6770 O   0  0  0  0  0  0  0  0  0  0  0  0
   58.3300   28.9550   46.8120 C   0  0  0  0  0  0  0  0  0  0  0  0
   58.5200   29.6570   45.4610 C   0  0  0  0  0  0  0  0  0  0  0  0
   56.9660   30.1910   44.7450 S   0  0  0  0  0  0  0  0  0  0  0  0
   55.8430   29.3200   45.2320 O   0  0  0  0  0  0  0  0  0  0  0  0
   57.0280   30.1010   43.2470 O   0  0  0  0  0  0  0  0  0  0  0  0
   56.6430   31.8260   45.2250 N   0  0  0  0  0  0  0  0  0  0  0  0
   57.6330   32.8360   45.4670 C   0  0  0  0  0  0  0  0  0  0  0  0
   57.8440   33.9090   44.5810 C   0  0  0  0  0  0  0  0  0  0  0  0
   58.8360   34.8560   44.8490 C   0  0  0  0  0  0  0  0  0  0  0  0
   59.6230   34.7440   45.9970 C   0  0  0  0  0  0  0  0  0  0  0  0
   59.4170   33.6850   46.8890 C   0  0  0  0  0  0  0  0  0  0  0  0
   60.4240   33.5510   48.3260 S   0  0  0  0  0  0  0  0  0  0  0  0
   60.4190   34.8700   49.0440 O   0  0  0  0  0  0  0  0  0  0  0  0
   61.8400   33.2030   47.9600 O   0  0  0  0  0  0  0  0  0  0  0  0
   59.7890   32.3250   49.3790 N   0  0  0  0  0  0  0  0  0  0  0  0
   59.1740   32.5810   50.4970 C   0  0  0  0  0  0  0  0  0  0  0  0
   57.8980   32.0540   50.8310 N   0  0  0  0  0  0  0  0  0  0  0  0
   57.3680   32.5880   52.0700 C   0  0  0  0  0  0  0  0  0  0  0  0
   58.1670   33.8530   52.4090 C   0  0  0  0  0  0  0  0  0  0  0  0
   59.8440   33.7100   51.6970 S   0  0  0  0  0  0  0  0  0  0  0  0
   58.4210   32.7360   46.6210 C   0  0  0  0  0  0  0  0  0  0  0  0
   56.8372   29.5074   53.7096 H   0  0  0  0  0  0  0  0  0  0  0  0
   55.4434   30.0633   52.7222 H   0  0  0  0  0  0  0  0  0  0  0  0
   55.9090   28.3284   52.7222 H   0  0  0  0  0  0  0  0  0  0  0  0
   58.6970   29.0280   53.8298 H   0  0  0  0  0  0  0  0  0  0  0  0
   61.1516   28.5862   53.7791 H   0  0  0  0  0  0  0  0  0  0  0  0
   62.3916   28.6685   51.6171 H   0  0  0  0  0  0  0  0  0  0  0  0
   61.1823   29.1877   49.4985 H   0  0  0  0  0  0  0  0  0  0  0  0
   58.7168   27.9281   46.7354 H   0  0  0  0  0  0  0  0  0  0  0  0
   57.2556   28.9609   47.0481 H   0  0  0  0  0  0  0  0  0  0  0  0
   59.1627   30.5376   45.6076 H   0  0  0  0  0  0  0  0  0  0  0  0
   58.9780   28.9350   44.7689 H   0  0  0  0  0  0  0  0  0  0  0  0
   57.2266   34.0024   43.6754 H   0  0  0  0  0  0  0  0  0  0  0  0
   58.9975   35.6926   44.1532 H   0  0  0  0  0  0  0  0  0  0  0  0
   60.4061   35.4891   46.2008 H   0  0  0  0  0  0  0  0  0  0  0  0
   59.9260   31.3310   49.0930 H   0  0  0  0  0  0  0  0  0  0  0  0
   57.4320   31.2650   50.3330 H   0  0  0  0  0  0  0  0  0  0  0  0
   56.3041   32.8383   51.9459 H   0  0  0  0  0  0  0  0  0  0  0  0
   57.4555   31.8474   52.8787 H   0  0  0  0  0  0  0  0  0  0  0  0
   57.6608   34.7329   51.9854 H   0  0  0  0  0  0  0  0  0  0  0  0
   58.2365   33.9658   53.5010 H   0  0  0  0  0  0  0  0  0  0  0  0
   58.2566   31.9053   47.3230 H   0  0  0  0  0  0  0  0  0  0  0  0
  1  2  1  0
  2  3  1  0
  3  4  2  0
  4  5  1  0
  5  6  2  0
  6  7  1  0
  7  8  2  0
  8  9  1  0
  9 10  1  0
 10 11  2  0
 10 12  1  0
 12 13  1  0
 13 14  1  0
 14 15  2  0
 14 16  2  0
 14 17  1  0
 17 18  1  0
 18 19  2  0
 19 20  1  0
 20 21  2  0
 21 22  1  0
 22 23  1  0
 23 24  2  0
 23 25  2  0
 23 26  1  0
 26 27  2  3
 27 28  1  0
 28 29  1  0
 29 30  1  0
 30 31  1  0
 22 32  2  0
  8  3  1  0
 32 18  1  0
 31 27  1  0
  1 33  1  0
  1 34  1  0
  1 35  1  0
  4 36  1  0
  5 37  1  0
  6 38  1  0
  7 39  1  0
 12 40  1  0
 12 41  1  0
 13 42  1  0
 13 43  1  0
 19 44  1  0
 20 45  1  0
 21 46  1  0
 26 47  1  0
 28 48  1  0
 29 49  1  0
 29 50  1  0
 30 51  1  0
 30 52  1  0
 32 53  1  0
M  CHG  3   9  -1  17  -1  26   1
M  END
>  <UniqueID>  (87) 
83

>  <SMILES>  (87) 
COc1ccccc1[N-]C(=O)CCS(=O)(=O)[N-]c1cccc(S(=O)(=O)[NH+]=C2NCCS2)c1

>  <Energy>  (87) 
64.69344202293557

>  <Genealogy>  (87) 
COc1ccccc1[N-]C(=O)CCS(=O)(=O)[N-]c1cccc(S(=O)(=O)[NH+]=C2NCCS2)c1 (protonated)
COc1ccccc1[N-]C(=O)CCS(=O)(=O)[N-]c1cccc(S(=O)(=O)[NH+]=C2NCCS2)c1 (3D coordinates assigned)
COc1ccccc1[N-]C(=O)CCS(=O)(=O)[N-]c1cccc(S(=O)(=O)[NH+]=C2NCCS2)c1 (nonaromatic ring conformer: 64.69344202293557 kcal/mol)

>  <smiles>  (87) 
COc1ccccc1NC(=O)CCS(=O)(=O)Nc1cccc(S(=O)(=O)N=C2NCCS2)c1

>  <score_type>  (87) 
oracle

>  <origin>  (87) 
adg

>  <m_score__min__energy>  (87) 
-11.57

>  <m_primary>  (87) 
energy

$$$$
87:0
     RDKit          3D

 44 47  0  0  0  0  0  0  0  0999 V2000
   54.7800   25.9550   45.9710 N   0  0  0  0  0  0  0  0  0  0  0  0
   55.4770   25.0630   45.7340 C   0  0  0  0  0  0  0  0  0  0  0  0
   56.3490   23.9510   45.4390 C   0  0  0  0  0  0  0  0  0  0  0  0
   56.2470   22.7980   46.2310 C   0  0  0  0  0  0  0  0  0  0  0  0
   57.0620   21.6930   45.9800 C   0  0  0  0  0  0  0  0  0  0  0  0
   57.9860   21.7290   44.9360 C   0  0  0  0  0  0  0  0  0  0  0  0
   58.0990   22.8700   44.1390 C   0  0  0  0  0  0  0  0  0  0  0  0
   57.2850   23.9940   44.3760 C   0  0  0  0  0  0  0  0  0  0  0  0
   57.4620   25.2130   43.4980 C   0  0  0  0  0  0  0  0  0  0  0  0
   58.0040   26.3670   44.3000 C   0  0  0  0  0  0  0  0  0  0  0  0
   58.5560   26.1150   45.5100 N   0  0  0  0  0  0  0  0  0  0  0  0
   59.0430   27.1060   46.2920 C   0  0  0  0  0  0  0  0  0  0  0  0
   59.6230   26.7840   47.5240 C   0  0  0  0  0  0  0  0  0  0  0  0
   60.1480   27.7900   48.3350 C   0  0  0  0  0  0  0  0  0  0  0  0
   60.1000   29.1180   47.9170 C   0  0  0  0  0  0  0  0  0  0  0  0
   59.5190   29.4530   46.6900 C   0  0  0  0  0  0  0  0  0  0  0  0
   58.9680   28.4500   45.8530 C   0  0  0  0  0  0  0  0  0  0  0  0
   58.3730   28.7310   44.6360 N   0  0  0  0  0  0  0  0  0  0  0  0
   58.2500   30.1190   44.1340 C   0  0  0  0  0  0  0  0  0  0  0  0
   56.9850   30.7460   44.6360 C   0  0  0  0  0  0  0  0  0  0  0  0
   55.9810   30.0180   44.8540 O   0  0  0  0  0  0  0  0  0  0  0  0
   56.9450   32.1650   44.8600 N   0  0  0  0  0  0  0  0  0  0  0  0
   57.7540   32.8750   45.5930 C   0  0  0  0  0  0  0  0  0  0  0  0
   58.1050   32.5070   46.8430 N   0  0  0  0  0  0  0  0  0  0  0  0
   58.9620   33.3880   47.4250 C   0  0  0  0  0  0  0  0  0  0  0  0
   59.3060   34.4780   46.6320 C   0  0  0  0  0  0  0  0  0  0  0  0
   58.5060   34.3230   45.1570 S   0  0  0  0  0  0  0  0  0  0  0  0
   57.9110   27.6970   43.8510 C   0  0  0  0  0  0  0  0  0  0  0  0
   57.4030   27.9290   42.7180 O   0  0  0  0  0  0  0  0  0  0  0  0
   55.5198   22.7643   47.0556 H   0  0  0  0  0  0  0  0  0  0  0  0
   56.9754   20.7928   46.6063 H   0  0  0  0  0  0  0  0  0  0  0  0
   58.6270   20.8568   44.7400 H   0  0  0  0  0  0  0  0  0  0  0  0
   58.8310   22.8908   43.3182 H   0  0  0  0  0  0  0  0  0  0  0  0
   58.1646   24.9751   42.6858 H   0  0  0  0  0  0  0  0  0  0  0  0
   56.4839   25.4970   43.0825 H   0  0  0  0  0  0  0  0  0  0  0  0
   59.6650   25.7354   47.8536 H   0  0  0  0  0  0  0  0  0  0  0  0
   60.6000   27.5347   49.3048 H   0  0  0  0  0  0  0  0  0  0  0  0
   60.5217   29.9078   48.5560 H   0  0  0  0  0  0  0  0  0  0  0  0
   59.4891   30.5053   46.3709 H   0  0  0  0  0  0  0  0  0  0  0  0
   59.1103   30.7085   44.4838 H   0  0  0  0  0  0  0  0  0  0  0  0
   58.2268   30.0999   43.0344 H   0  0  0  0  0  0  0  0  0  0  0  0
   57.7590   31.6420   47.3160 H   0  0  0  0  0  0  0  0  0  0  0  0
   59.3529   33.2495   48.4438 H   0  0  0  0  0  0  0  0  0  0  0  0
   59.9818   35.2975   46.9177 H   0  0  0  0  0  0  0  0  0  0  0  0
  1  2  3  0
  2  3  1  0
  3  4  2  0
  4  5  1  0
  5  6  2  0
  6  7  1  0
  7  8  2  0
  8  9  1  0
  9 10  1  0
 10 11  2  0
 11 12  1  0
 12 13  2  0
 13 14  1  0
 14 15  2  0
 15 16  1  0
 16 17  2  0
 17 18  1  0
 18 19  1  0
 19 20  1  0
 20 21  2  0
 20 22  1  0
 22 23  2  3
 23 24  1  0
 24 25  1  0
 25 26  2  0
 26 27  1  0
 18 28  1  0
 28 29  2  0
  8  3  1  0
 28 10  1  0
 17 12  1  0
 27 23  1  0
  4 30  1  0
  5 31  1  0
  6 32  1  0
  7 33  1  0
  9 34  1  0
  9 35  1  0
 13 36  1  0
 14 37  1  0
 15 38  1  0
 16 39  1  0
 19 40  1  0
 19 41  1  0
 24 42  1  0
 25 43  1  0
 26 44  1  0
M  END
>  <UniqueID>  (88) 
84

>  <SMILES>  (88) 
N#Cc1ccccc1Cc1nc2ccccc2n(CC(=O)N=c2[nH]ccs2)c1=O

>  <Energy>  (88) 
91.54158059738647

>  <Genealogy>  (88) 
N#Cc1ccccc1Cc1nc2ccccc2n(CC(=O)N=c2[nH]ccs2)c1=O (3D coordinates assigned)
N#Cc1ccccc1Cc1nc2ccccc2n(CC(=O)N=c2[nH]ccs2)c1=O (optimized conformer: 91.54158059738647 kcal/mol)

>  <smiles>  (88) 
N#Cc1ccccc1Cc1nc2ccccc2n(CC(=O)N=c2[nH]ccs2)c1=O

>  <score_type>  (88) 
oracle

>  <origin>  (88) 
adg

>  <m_score__min__energy>  (88) 
-8.5899999999999999

>  <m_primary>  (88) 
energy

$$$$
88:0
     RDKit          3D

 44 46  0  0  0  0  0  0  0  0999 V2000
   54.4117   23.7458   46.3876 H   0  0  0  0  0  0  0  0  0  0  0  0
   55.2470   24.4580   46.3160 C   0  0  0  0  0  0  0  0  0  0  0  0
   55.0670   25.7610   45.9710 N   0  0  0  0  0  0  0  0  0  0  0  0
   56.2360   26.4370   45.9340 C   0  0  0  0  0  0  0  0  0  0  0  0
   56.2900   27.7010   45.6220 N   0  0  0  0  0  0  0  0  0  0  0  0
   57.3410   28.3740   44.9120 C   0  0  0  0  0  0  0  0  0  0  0  0
   57.3990   28.2590   43.6600 O   0  0  0  0  0  0  0  0  0  0  0  0
   58.3900   29.1440   45.6070 C   0  0  0  0  0  0  0  0  0  0  0  0
   59.1950   28.4630   46.5350 C   0  0  0  0  0  0  0  0  0  0  0  0
   59.0041   27.4004   46.7457 H   0  0  0  0  0  0  0  0  0  0  0  0
   60.2330   29.1210   47.1910 C   0  0  0  0  0  0  0  0  0  0  0  0
   60.8638   28.5753   47.9082 H   0  0  0  0  0  0  0  0  0  0  0  0
   60.4720   30.4690   46.9390 C   0  0  0  0  0  0  0  0  0  0  0  0
   61.3041   30.9823   47.4430 H   0  0  0  0  0  0  0  0  0  0  0  0
   59.6580   31.1710   46.0480 C   0  0  0  0  0  0  0  0  0  0  0  0
   59.8471   32.2390   45.8647 H   0  0  0  0  0  0  0  0  0  0  0  0
   58.6020   30.5300   45.3840 C   0  0  0  0  0  0  0  0  0  0  0  0
   57.5550   31.5460   44.3730 S   0  0  0  0  0  0  0  0  0  0  0  0
   57.8530   31.3850   42.9100 O   0  0  0  0  0  0  0  0  0  0  0  0
   56.1340   31.1280   44.6050 O   0  0  0  0  0  0  0  0  0  0  0  0
   57.7220   33.2180   44.8180 N   0  0  0  0  0  0  0  0  0  0  0  0
   57.0060   33.4570   46.0620 C   0  0  0  0  0  0  0  0  0  0  0  0
   56.3191   32.6195   46.2535 H   0  0  0  0  0  0  0  0  0  0  0  0
   56.4369   34.3945   45.9765 H   0  0  0  0  0  0  0  0  0  0  0  0
   57.9700   33.5720   47.1910 C   0  0  0  0  0  0  0  0  0  0  0  0
   57.9270   32.7460   48.1420 O   0  0  0  0  0  0  0  0  0  0  0  0
   58.9360   34.6320   47.1900 N   0  0  0  0  0  0  0  0  0  0  0  0
   60.1110   34.6360   46.3290 C   0  0  0  0  0  0  0  0  0  0  0  0
   59.9020   34.0488   45.4227 H   0  0  0  0  0  0  0  0  0  0  0  0
   60.3546   35.6719   46.0504 H   0  0  0  0  0  0  0  0  0  0  0  0
   61.2770   34.0300   47.0590 C   0  0  0  0  0  0  0  0  0  0  0  0
   61.1320   33.6210   48.3950 C   0  0  0  0  0  0  0  0  0  0  0  0
   60.1761   33.7808   48.9153 H   0  0  0  0  0  0  0  0  0  0  0  0
   62.1960   33.0120   49.0670 C   0  0  0  0  0  0  0  0  0  0  0  0
   62.0759   32.6970   50.1141 H   0  0  0  0  0  0  0  0  0  0  0  0
   63.4110   32.8030   48.4110 C   0  0  0  0  0  0  0  0  0  0  0  0
   64.4450   32.2170   49.0670 F   0  0  0  0  0  0  0  0  0  0  0  0
   63.5620   33.2030   47.0760 C   0  0  0  0  0  0  0  0  0  0  0  0
   64.5190   33.0393   46.5588 H   0  0  0  0  0  0  0  0  0  0  0  0
   62.4980   33.8100   46.4000 C   0  0  0  0  0  0  0  0  0  0  0  0
   62.6178   34.1157   45.3501 H   0  0  0  0  0  0  0  0  0  0  0  0
   57.5370   25.4470   46.3510 S   0  0  0  0  0  0  0  0  0  0  0  0
   56.5650   24.0910   46.5720 C   0  0  0  0  0  0  0  0  0  0  0  0
   56.9109   23.0894   46.8672 H   0  0  0  0  0  0  0  0  0  0  0  0
  1  2  1  0
  2  3  1  0
  3  4  1  0
  4  5  2  0
  5  6  1  0
  6  7  2  0
  6  8  1  0
  8  9  2  0
  9 10  1  0
  9 11  1  0
 11 12  1  0
 11 13  2  0
 13 14  1  0
 13 15  1  0
 15 16  1  0
 15 17  2  0
 17 18  1  0
 18 19  2  0
 18 20  2  0
 18 21  1  0
 21 22  1  0
 22 23  1  0
 22 24  1  0
 22 25  1  0
 25 26  2  0
 25 27  1  0
 27 28  1  0
 28 29  1  0
 28 30  1  0
 28 31  1  0
 31 32  2  0
 32 33  1  0
 32 34  1  0
 34 35  1  0
 34 36  2  0
 36 37  1  0
 36 38  1  0
 38 39  1  0
 38 40  2  0
 40 41  1  0
  4 42  1  0
 42 43  1  0
 43 44  1  0
 43  2  2  0
 17  8  1  0
 40 31  1  0
M  CHG  3   3  -1  21  -1  27  -1
M  END
>  <UniqueID>  (89) 
85

>  <SMILES>  (89) 
O=C(C[N-]S(=O)(=O)c1ccccc1C(=O)/N=c1/[n-]ccs1)[N-]Cc1ccc(F)cc1

>  <Energy>  (89) 
83.29780779553326

>  <Genealogy>  (89) 
O=C(C[N-]S(=O)(=O)c1ccccc1C(=O)N=c1[n-]ccs1)[N-]Cc1ccc(F)cc1 (protonated)
O=C(C[N-]S(=O)(=O)c1ccccc1C(=O)/N=c1/[n-]ccs1)[N-]Cc1ccc(F)cc1 (cis-trans isomerization)
O=C(C[N-]S(=O)(=O)c1ccccc1C(=O)/N=c1/[n-]ccs1)[N-]Cc1ccc(F)cc1 (3D coordinates assigned)
O=C(C[N-]S(=O)(=O)c1ccccc1C(=O)/N=c1/[n-]ccs1)[N-]Cc1ccc(F)cc1 (optimized conformer: 83.29780779553326 kcal/mol)

>  <smiles>  (89) 
O=C(CNS(=O)(=O)c1ccccc1C(=O)N=c1[nH]ccs1)NCc1ccc(F)cc1

>  <score_type>  (89) 
oracle

>  <origin>  (89) 
adg

>  <m_score__min__energy>  (89) 
-13.58

>  <m_primary>  (89) 
energy

$$$$
89:0
     RDKit          3D

 33 34  0  0  0  0  0  0  0  0999 V2000
   58.2269   29.7082   43.0687 H   0  0  0  0  0  0  0  0  0  0  0  0
   57.8180   29.8080   44.0850 C   0  0  0  0  0  0  0  0  0  0  0  0
   57.5900   31.0340   44.5670 C   0  0  0  0  0  0  0  0  0  0  0  0
   57.0952   31.1428   45.5434 H   0  0  0  0  0  0  0  0  0  0  0  0
   57.9930   32.2680   43.8080 C   0  0  0  0  0  0  0  0  0  0  0  0
   59.0880   32.2766   43.7040 H   0  0  0  0  0  0  0  0  0  0  0  0
   57.4947   32.2360   42.8279 H   0  0  0  0  0  0  0  0  0  0  0  0
   57.5550   33.5590   44.5130 C   0  0  0  0  0  0  0  0  0  0  0  0
   57.7857   34.4160   43.8631 H   0  0  0  0  0  0  0  0  0  0  0  0
   56.4747   33.4930   44.7095 H   0  0  0  0  0  0  0  0  0  0  0  0
   58.2610   33.7410   45.8290 C   0  0  0  0  0  0  0  0  0  0  0  0
   57.9040   32.9710   46.8940 N   0  0  0  0  0  0  0  0  0  0  0  0
   58.5330   33.0740   48.0950 C   0  0  0  0  0  0  0  0  0  0  0  0
   58.2144   32.4426   48.9375 H   0  0  0  0  0  0  0  0  0  0  0  0
   59.5830   33.9800   48.2610 C   0  0  0  0  0  0  0  0  0  0  0  0
   60.0950   34.0668   49.2307 H   0  0  0  0  0  0  0  0  0  0  0  0
   59.9750   34.7740   47.1820 C   0  0  0  0  0  0  0  0  0  0  0  0
   60.8008   35.4914   47.2972 H   0  0  0  0  0  0  0  0  0  0  0  0
   59.3170   34.6560   45.9560 C   0  0  0  0  0  0  0  0  0  0  0  0
   59.6233   35.2738   45.0990 H   0  0  0  0  0  0  0  0  0  0  0  0
   57.5420   28.5770   44.8650 C   0  0  0  0  0  0  0  0  0  0  0  0
   56.2420   28.2090   45.2430 C   0  0  0  0  0  0  0  0  0  0  0  0
   55.1420   28.9780   44.8800 O   0  0  0  0  0  0  0  0  0  0  0  0
   56.0410   27.0680   45.9440 N   0  0  0  0  0  0  0  0  0  0  0  0
   57.0690   26.2560   46.2940 C   0  0  0  0  0  0  0  0  0  0  0  0
   56.8190   25.2000   46.9350 O   0  0  0  0  0  0  0  0  0  0  0  0
   58.3560   26.5790   45.9460 N   0  0  0  0  0  0  0  0  0  0  0  0
   59.4650   25.6750   46.2940 C   0  0  0  0  0  0  0  0  0  0  0  0
   59.5512   25.6048   47.3884 H   0  0  0  0  0  0  0  0  0  0  0  0
   59.2687   24.6763   45.8768 H   0  0  0  0  0  0  0  0  0  0  0  0
   60.4036   26.0686   45.8768 H   0  0  0  0  0  0  0  0  0  0  0  0
   58.5970   27.7130   45.2120 C   0  0  0  0  0  0  0  0  0  0  0  0
   59.7740   27.9960   44.8490 O   0  0  0  0  0  0  0  0  0  0  0  0
  1  2  1  0
  2  3  2  0
  3  4  1  0
  3  5  1  0
  5  6  1  0
  5  7  1  0
  5  8  1  0
  8  9  1  0
  8 10  1  0
  8 11  1  0
 11 12  2  0
 12 13  1  0
 13 14  1  0
 13 15  2  0
 15 16  1  0
 15 17  1  0
 17 18  1  0
 17 19  2  0
 19 20  1  0
  2 21  1  0
 21 22  2  0
 22 23  1  0
 22 24  1  0
 24 25  1  0
 25 26  2  0
 25 27  1  0
 27 28  1  0
 28 29  1  0
 28 30  1  0
 28 31  1  0
 27 32  1  0
 32 33  2  0
 19 11  1  0
 32 21  1  0
M  CHG  2  23  -1  24  -1
M  END
>  <UniqueID>  (90) 
86

>  <SMILES>  (90) 
Cn1c(=O)[n-]c([O-])c(/C=C/CCc2ccccn2)c1=O

>  <Energy>  (90) 
38.65121001287124

>  <Genealogy>  (90) 
Cn1c(=O)[n-]c([O-])c(C=CCCc2ccccn2)c1=O (protonated)
Cn1c(=O)[n-]c([O-])c(/C=C/CCc2ccccn2)c1=O (cis-trans isomerization)
Cn1c(=O)[n-]c([O-])c(/C=C/CCc2ccccn2)c1=O (3D coordinates assigned)
Cn1c(=O)[n-]c([O-])c(/C=C/CCc2ccccn2)c1=O (optimized conformer: 38.65121001287124 kcal/mol)

>  <smiles>  (90) 
Cn1c(=O)[nH]c(O)c(C=CCCc2ccccn2)c1=O

>  <score_type>  (90) 
oracle

>  <origin>  (90) 
adg

>  <m_score__min__energy>  (90) 
-12.43

>  <m_primary>  (90) 
energy

$$$$
90:0
     RDKit          3D

 33 34  0  0  0  0  0  0  0  0999 V2000
   55.1360   29.3280   44.8850 N   0  0  0  0  0  0  0  0  0  0  0  0
   56.6890   29.3450   44.1300 S   0  0  0  0  0  0  0  0  0  0  0  0
   56.5260   29.5420   42.6480 O   0  0  0  0  0  0  0  0  0  0  0  0
   57.3750   28.0290   44.3680 O   0  0  0  0  0  0  0  0  0  0  0  0
   57.6560   30.6530   44.8030 C   0  0  0  0  0  0  0  0  0  0  0  0
   57.7010   31.9000   44.1630 C   0  0  0  0  0  0  0  0  0  0  0  0
   58.4770   32.9350   44.6930 C   0  0  0  0  0  0  0  0  0  0  0  0
   59.2310   32.7300   45.8600 C   0  0  0  0  0  0  0  0  0  0  0  0
   60.0360   33.8530   46.4480 C   0  0  0  0  0  0  0  0  0  0  0  0
   61.4200   33.7330   46.0030 N   0  0  0  0  0  0  0  0  0  0  0  0
   62.4780   34.1650   46.6270 C   0  0  0  0  0  0  0  0  0  0  0  0
   62.9510   33.6400   47.9260 C   0  0  0  0  0  0  0  0  0  0  0  0
   64.1120   32.9960   48.1380 N   0  0  0  0  0  0  0  0  0  0  0  0
   64.0690   32.6200   49.4300 C   0  0  0  0  0  0  0  0  0  0  0  0
   65.2590   31.7670   50.1580 S   0  0  0  0  0  0  0  0  0  0  0  0
   62.9300   32.9740   50.0590 N   0  0  0  0  0  0  0  0  0  0  0  0
   62.2280   33.6210   49.1070 C   0  0  0  0  0  0  0  0  0  0  0  0
   60.8420   34.1490   49.3210 C   0  0  0  0  0  0  0  0  0  0  0  0
   60.3720   33.7680   50.5850 O   0  0  0  0  0  0  0  0  0  0  0  0
   59.1780   31.4820   46.5030 C   0  0  0  0  0  0  0  0  0  0  0  0
   58.4010   30.4480   45.9720 C   0  0  0  0  0  0  0  0  0  0  0  0
   55.1770   28.6160   45.6480 H   0  0  0  0  0  0  0  0  0  0  0  0
   57.1239   32.0642   43.2411 H   0  0  0  0  0  0  0  0  0  0  0  0
   58.4971   33.9149   44.1935 H   0  0  0  0  0  0  0  0  0  0  0  0
   59.6237   34.8163   46.1131 H   0  0  0  0  0  0  0  0  0  0  0  0
   59.9944   33.8030   47.5461 H   0  0  0  0  0  0  0  0  0  0  0  0
   63.0578   34.9732   46.1572 H   0  0  0  0  0  0  0  0  0  0  0  0
   64.8600   32.7650   47.4490 H   0  0  0  0  0  0  0  0  0  0  0  0
   60.8564   35.2468   49.2538 H   0  0  0  0  0  0  0  0  0  0  0  0
   60.1759   33.7358   48.5493 H   0  0  0  0  0  0  0  0  0  0  0  0
   61.0890   33.2260   51.0050 H   0  0  0  0  0  0  0  0  0  0  0  0
   59.7502   31.3177   47.4280 H   0  0  0  0  0  0  0  0  0  0  0  0
   58.3744   29.4696   46.4740 H   0  0  0  0  0  0  0  0  0  0  0  0
  1  2  1  0
  2  3  2  0
  2  4  2  0
  2  5  1  0
  5  6  2  0
  6  7  1  0
  7  8  2  0
  8  9  1  0
  9 10  1  0
 10 11  2  3
 11 12  1  0
 12 13  1  0
 13 14  1  0
 14 15  2  0
 14 16  1  0
 16 17  1  0
 17 18  1  0
 18 19  1  0
  8 20  1  0
 20 21  2  0
 21  5  1  0
 17 12  2  0
  1 22  1  0
  6 23  1  0
  7 24  1  0
  9 25  1  0
  9 26  1  0
 11 27  1  0
 13 28  1  0
 18 29  1  0
 18 30  1  0
 19 31  1  0
 20 32  1  0
 21 33  1  0
M  CHG  2   1  -1  16  -1
M  END
>  <UniqueID>  (91) 
87

>  <SMILES>  (91) 
[NH-]S(=O)(=O)c1ccc(CN=Cc2[nH]c(=S)[n-]c2CO)cc1

>  <Energy>  (91) 
64.70930967123682

>  <Genealogy>  (91) 
[NH-]S(=O)(=O)c1ccc(CN=Cc2[nH]c(=S)[n-]c2CO)cc1 (protonated)
[NH-]S(=O)(=O)c1ccc(CN=Cc2[nH]c(=S)[n-]c2CO)cc1 (3D coordinates assigned)
[NH-]S(=O)(=O)c1ccc(CN=Cc2[nH]c(=S)[n-]c2CO)cc1 (optimized conformer: 64.70930967123682 kcal/mol)

>  <smiles>  (91) 
NS(=O)(=O)c1ccc(CN=Cc2[nH]c(=S)[nH]c2CO)cc1

>  <score_type>  (91) 
oracle

>  <origin>  (91) 
adg

>  <m_score__min__energy>  (91) 
-11.5

>  <m_primary>  (91) 
energy

$$$$
