0:0
     RDKit          3D

 53 56  0  0  0  0  0  0  0  0999 V2000
   58.8770   29.3440   52.0950 C   0  0  0  0  0  0  0  0  0  0  0  0
   58.1240   30.5960   52.5530 C   0  0  1  0  0  0  0  0  0  0  0  0
   58.4790   31.7470   51.7140 N   0  0  0  0  0  0  0  0  0  0  0  0
   59.6980   32.4780   51.8980 C   0  0  0  0  0  0  0  0  0  0  0  0
   60.5220   32.1190   52.7830 O   0  0  0  0  0  0  0  0  0  0  0  0
   59.9600   33.6160   51.0620 N   0  0  0  0  0  0  0  0  0  0  0  0
   59.6660   33.7290   49.8000 C   0  0  0  0  0  0  0  0  0  0  0  0
   58.7120   32.9790   49.1790 N   0  0  0  0  0  0  0  0  0  0  0  0
   58.7710   33.4360   47.9200 C   0  0  0  0  0  0  0  0  0  0  0  0
   58.0200   33.0360   46.8210 C   0  0  0  0  0  0  0  0  0  0  0  0
   58.2850   33.6720   45.5880 C   0  0  0  0  0  0  0  0  0  0  0  0
   57.5190   33.2930   44.3490 C   0  0  0  0  0  0  0  0  0  0  0  0
   58.0270   32.0380   43.7940 N   0  0  0  0  0  0  0  0  0  0  0  0
   57.7360   30.7330   44.3300 C   0  0  0  0  0  0  0  0  0  0  0  0
   56.4260   30.2160   44.3600 C   0  0  0  0  0  0  0  0  0  0  0  0
   56.1790   28.9480   44.8950 C   0  0  0  0  0  0  0  0  0  0  0  0
   57.2310   28.1780   45.4050 C   0  0  0  0  0  0  0  0  0  0  0  0
   56.9170   26.5750   46.0640 S   0  0  0  0  0  0  0  0  0  0  0  0
   55.2140   26.2900   46.1020 N   0  0  0  0  0  0  0  0  0  0  0  0
   57.4760   26.4780   47.4560 O   0  0  0  0  0  0  0  0  0  0  0  0
   57.5800   25.5340   45.2060 O   0  0  0  0  0  0  0  0  0  0  0  0
   58.5370   28.6790   45.3620 C   0  0  0  0  0  0  0  0  0  0  0  0
   58.7880   29.9470   44.8280 C   0  0  0  0  0  0  0  0  0  0  0  0
   59.2770   34.6880   45.5320 C   0  0  0  0  0  0  0  0  0  0  0  0
   59.9810   35.0370   46.6510 N   0  0  0  0  0  0  0  0  0  0  0  0
   59.7130   34.4030   47.8180 C   0  0  0  0  0  0  0  0  0  0  0  0
   60.3080   34.6200   48.9980 N   0  0  0  0  0  0  0  0  0  0  0  0
   56.6310   30.3520   52.5130 C   0  0  0  0  0  0  0  0  0  0  0  0
   56.1030   29.1300   52.9650 C   0  0  0  0  0  0  0  0  0  0  0  0
   54.7250   28.8940   52.9160 C   0  0  0  0  0  0  0  0  0  0  0  0
   53.8640   29.8710   52.4100 C   0  0  0  0  0  0  0  0  0  0  0  0
   54.3800   31.0860   51.9490 C   0  0  0  0  0  0  0  0  0  0  0  0
   55.7560   31.3260   51.9950 C   0  0  0  0  0  0  0  0  0  0  0  0
   59.2172   28.7783   52.9749 H   0  0  0  0  0  0  0  0  0  0  0  0
   58.2077   28.7142   51.4905 H   0  0  0  0  0  0  0  0  0  0  0  0
   59.7470   29.6400   51.4905 H   0  0  0  0  0  0  0  0  0  0  0  0
   58.4162   30.8211   53.5893 H   0  0  0  0  0  0  0  0  0  0  0  0
   57.8280   32.0610   50.9590 H   0  0  0  0  0  0  0  0  0  0  0  0
   57.2500   32.2553   46.9080 H   0  0  0  0  0  0  0  0  0  0  0  0
   56.4559   33.1715   44.6041 H   0  0  0  0  0  0  0  0  0  0  0  0
   57.6415   34.0882   43.5989 H   0  0  0  0  0  0  0  0  0  0  0  0
   58.6870   32.1080   42.9860 H   0  0  0  0  0  0  0  0  0  0  0  0
   55.5930   30.8130   43.9604 H   0  0  0  0  0  0  0  0  0  0  0  0
   55.1524   28.5533   44.9153 H   0  0  0  0  0  0  0  0  0  0  0  0
   54.8160   26.7090   45.2320 H   0  0  0  0  0  0  0  0  0  0  0  0
   59.3693   28.0732   45.7497 H   0  0  0  0  0  0  0  0  0  0  0  0
   59.8180   30.3319   44.7978 H   0  0  0  0  0  0  0  0  0  0  0  0
   59.4805   35.1986   44.5792 H   0  0  0  0  0  0  0  0  0  0  0  0
   56.7770   28.3553   53.3593 H   0  0  0  0  0  0  0  0  0  0  0  0
   54.3186   27.9375   53.2765 H   0  0  0  0  0  0  0  0  0  0  0  0
   52.7805   29.6844   52.3743 H   0  0  0  0  0  0  0  0  0  0  0  0
   53.7017   31.8543   51.5494 H   0  0  0  0  0  0  0  0  0  0  0  0
   56.1576   32.2808   51.6246 H   0  0  0  0  0  0  0  0  0  0  0  0
  1  2  1  0
  2  3  1  0
  3  4  1  0
  4  5  2  0
  4  6  1  0
  6  7  2  3
  7  8  1  0
  8  9  1  0
  9 10  2  0
 10 11  1  0
 11 12  1  0
 12 13  1  0
 13 14  1  0
 14 15  2  0
 15 16  1  0
 16 17  2  0
 17 18  1  0
 18 19  1  0
 18 20  2  0
 18 21  2  0
 17 22  1  0
 22 23  2  0
 11 24  2  0
 24 25  1  0
 25 26  2  0
 26 27  1  0
  2 28  1  0
 28 29  2  0
 29 30  1  0
 30 31  2  0
 31 32  1  0
 32 33  2  0
 27  7  1  0
 33 28  1  0
 26  9  1  0
 23 14  1  0
  1 34  1  0
  1 35  1  0
  1 36  1  0
  2 37  1  1
  3 38  1  0
 10 39  1  0
 12 40  1  0
 12 41  1  0
 13 42  1  0
 15 43  1  0
 16 44  1  0
 19 45  1  0
 22 46  1  0
 23 47  1  0
 24 48  1  0
 29 49  1  0
 30 50  1  0
 31 51  1  0
 32 52  1  0
 33 53  1  0
M  CHG  3   8  -1  19  -1  27  -1
M  END
>  <UniqueID>  (1) 
1

>  <SMILES>  (1) 
C[C@@H](NC(=O)N=c1[n-]c2cc(CNc3ccc(S([NH-])(=O)=O)cc3)cnc2[n-]1)c1ccccc1

>  <Energy>  (1) 
91.43343112772155

>  <Genealogy>  (1) 
CC(NC(=O)N=c1[n-]c2cc(CNc3ccc(S([NH-])(=O)=O)cc3)cnc2[n-]1)c1ccccc1 (protonated)
C[C@@H](NC(=O)N=c1[n-]c2cc(CNc3ccc(S([NH-])(=O)=O)cc3)cnc2[n-]1)c1ccccc1 (chirality)
C[C@@H](NC(=O)N=c1[n-]c2cc(CNc3ccc(S([NH-])(=O)=O)cc3)cnc2[n-]1)c1ccccc1 (3D coordinates assigned)
C[C@@H](NC(=O)N=c1[n-]c2cc(CNc3ccc(S([NH-])(=O)=O)cc3)cnc2[n-]1)c1ccccc1 (optimized conformer: 91.43343112772155 kcal/mol)

>  <smiles>  (1) 
CC(NC(=O)N=c1[nH]c2cc(CNc3ccc(S(N)(=O)=O)cc3)cnc2[nH]1)c1ccccc1

>  <score_type>  (1) 
oracle

>  <origin>  (1) 
adg

>  <m_score__min__energy>  (1) 
-13.25

>  <m_primary>  (1) 
energy

$$$$
1:0
     RDKit          3D

 39 41  0  0  0  0  0  0  0  0999 V2000
   58.7730   25.0980   46.1540 N   0  0  0  0  0  0  0  0  0  0  0  0
   58.2720   26.1100   45.9000 C   0  0  0  0  0  0  0  0  0  0  0  0
   57.6470   27.3730   45.5780 C   0  0  0  0  0  0  0  0  0  0  0  0
   56.2500   27.4550   45.6240 C   0  0  0  0  0  0  0  0  0  0  0  0
   55.4930   26.3660   46.0540 O   0  0  0  0  0  0  0  0  0  0  0  0
   55.6240   28.5940   45.2460 N   0  0  0  0  0  0  0  0  0  0  0  0
   56.2980   29.6750   44.7870 C   0  0  0  0  0  0  0  0  0  0  0  0
   55.6410   30.6850   44.4200 O   0  0  0  0  0  0  0  0  0  0  0  0
   57.7090   29.6600   44.7080 C   0  0  0  0  0  0  0  0  0  0  0  0
   58.4210   30.8330   44.0500 C   0  0  0  0  0  0  0  0  0  0  0  0
   58.3310   32.1070   44.8530 C   0  0  0  0  0  0  0  0  0  0  0  0
   58.1100   32.0520   46.2410 C   0  0  0  0  0  0  0  0  0  0  0  0
   58.1360   33.2210   47.0080 C   0  0  0  0  0  0  0  0  0  0  0  0
   58.3940   34.4520   46.4000 C   0  0  0  0  0  0  0  0  0  0  0  0
   58.6190   34.5170   45.0230 C   0  0  0  0  0  0  0  0  0  0  0  0
   58.5910   33.3520   44.2520 C   0  0  0  0  0  0  0  0  0  0  0  0
   58.4040   28.5050   45.1770 C   0  0  0  0  0  0  0  0  0  0  0  0
   59.9290   28.4530   45.2450 C   0  0  0  0  0  0  0  0  0  0  0  0
   60.5590   29.6410   45.9970 C   0  0  0  0  0  0  0  0  0  0  0  0
   60.2190   29.6650   47.4570 C   0  0  0  0  0  0  0  0  0  0  0  0
   59.6060   28.6400   48.1650 C   0  0  0  0  0  0  0  0  0  0  0  0
   59.3130   28.9840   49.4900 C   0  0  0  0  0  0  0  0  0  0  0  0
   59.6960   30.2740   49.8300 C   0  0  0  0  0  0  0  0  0  0  0  0
   60.3870   30.9930   48.4770 S   0  0  0  0  0  0  0  0  0  0  0  0
   55.1280   26.3270   46.9980 H   0  0  0  0  0  0  0  0  0  0  0  0
   59.4824   30.5725   43.9248 H   0  0  0  0  0  0  0  0  0  0  0  0
   57.9253   31.0179   43.0856 H   0  0  0  0  0  0  0  0  0  0  0  0
   57.9156   31.0840   46.7259 H   0  0  0  0  0  0  0  0  0  0  0  0
   57.9531   33.1712   48.0915 H   0  0  0  0  0  0  0  0  0  0  0  0
   58.4200   35.3699   47.0056 H   0  0  0  0  0  0  0  0  0  0  0  0
   58.8186   35.4872   44.5446 H   0  0  0  0  0  0  0  0  0  0  0  0
   58.7733   33.4088   43.1687 H   0  0  0  0  0  0  0  0  0  0  0  0
   60.2218   27.5242   45.7565 H   0  0  0  0  0  0  0  0  0  0  0  0
   60.2975   28.4977   44.2095 H   0  0  0  0  0  0  0  0  0  0  0  0
   61.6524   29.5794   45.8939 H   0  0  0  0  0  0  0  0  0  0  0  0
   60.1524   30.5612   45.5522 H   0  0  0  0  0  0  0  0  0  0  0  0
   59.3740   27.6571   47.7290 H   0  0  0  0  0  0  0  0  0  0  0  0
   58.8247   28.2960   50.1959 H   0  0  0  0  0  0  0  0  0  0  0  0
   59.5691   30.7451   50.8159 H   0  0  0  0  0  0  0  0  0  0  0  0
  1  2  3  0
  2  3  1  0
  3  4  2  0
  4  5  1  0
  4  6  1  0
  6  7  1  0
  7  8  2  0
  7  9  1  0
  9 10  1  0
 10 11  1  0
 11 12  2  0
 12 13  1  0
 13 14  2  0
 14 15  1  0
 15 16  2  0
  9 17  2  0
 17 18  1  0
 18 19  1  0
 19 20  1  0
 20 21  2  0
 21 22  1  0
 22 23  2  0
 23 24  1  0
 17  3  1  0
 24 20  1  0
 16 11  1  0
  5 25  1  0
 10 26  1  0
 10 27  1  0
 12 28  1  0
 13 29  1  0
 14 30  1  0
 15 31  1  0
 16 32  1  0
 18 33  1  0
 18 34  1  0
 19 35  1  0
 19 36  1  0
 21 37  1  0
 22 38  1  0
 23 39  1  0
M  CHG  1   6  -1
M  END
>  <UniqueID>  (2) 
2

>  <SMILES>  (2) 
N#Cc1c(O)[n-]c(=O)c(Cc2ccccc2)c1CCc1cccs1

>  <Energy>  (2) 
68.49777447451358

>  <Genealogy>  (2) 
N#Cc1c(O)[n-]c(=O)c(Cc2ccccc2)c1CCc1cccs1 (protonated)
N#Cc1c(O)[n-]c(=O)c(Cc2ccccc2)c1CCc1cccs1 (3D coordinates assigned)
N#Cc1c(O)[n-]c(=O)c(Cc2ccccc2)c1CCc1cccs1 (optimized conformer: 68.49777447451358 kcal/mol)

>  <smiles>  (2) 
N#Cc1c(O)[nH]c(=O)c(Cc2ccccc2)c1CCc1cccs1

>  <score_type>  (2) 
oracle

>  <origin>  (2) 
adg

>  <m_score__min__energy>  (2) 
-11.08

>  <m_primary>  (2) 
energy

$$$$
2:0
     RDKit          3D

 44 47  0  0  0  0  0  0  0  0999 V2000
   58.2208   32.8855   42.2843 H   0  0  0  0  0  0  0  0  0  0  0  0
   57.7950   32.0690   42.8860 C   0  0  0  0  0  0  0  0  0  0  0  0
   58.0400   32.0140   44.2620 C   0  0  0  0  0  0  0  0  0  0  0  0
   58.6646   32.7826   44.7406 H   0  0  0  0  0  0  0  0  0  0  0  0
   57.4910   30.9820   45.0290 C   0  0  0  0  0  0  0  0  0  0  0  0
   57.7005   30.9293   46.1076 H   0  0  0  0  0  0  0  0  0  0  0  0
   56.6750   30.0150   44.4280 C   0  0  0  0  0  0  0  0  0  0  0  0
   56.1550   28.9380   45.2190 N   0  0  0  0  0  0  0  0  0  0  0  0
   56.6100   27.7180   45.3400 C   0  0  0  0  0  0  0  0  0  0  0  0
   55.7160   26.7440   45.6610 N   0  0  0  0  0  0  0  0  0  0  0  0
   56.0830   25.4460   45.8170 C   0  0  0  0  0  0  0  0  0  0  0  0
   55.1380   24.4700   46.1550 C   0  0  0  0  0  0  0  0  0  0  0  0
   54.0833   24.7491   46.2952 H   0  0  0  0  0  0  0  0  0  0  0  0
   55.5380   23.1390   46.3140 C   0  0  0  0  0  0  0  0  0  0  0  0
   54.7968   22.3713   46.5810 H   0  0  0  0  0  0  0  0  0  0  0  0
   56.8800   22.7820   46.1340 C   0  0  0  0  0  0  0  0  0  0  0  0
   57.1906   21.7342   46.2594 H   0  0  0  0  0  0  0  0  0  0  0  0
   57.8270   23.7550   45.7950 C   0  0  0  0  0  0  0  0  0  0  0  0
   58.8808   23.4734   45.6525 H   0  0  0  0  0  0  0  0  0  0  0  0
   57.4290   25.0870   45.6380 C   0  0  0  0  0  0  0  0  0  0  0  0
   58.3280   26.0410   45.2960 N   0  0  0  0  0  0  0  0  0  0  0  0
   57.9700   27.3450   45.1250 C   0  0  0  0  0  0  0  0  0  0  0  0
   58.8550   28.2080   44.7260 N   0  0  0  0  0  0  0  0  0  0  0  0
   60.3180   28.5700   45.5850 S   0  0  0  0  0  0  0  0  0  0  0  0
   61.3830   28.9820   44.6070 O   0  0  0  0  0  0  0  0  0  0  0  0
   60.7830   27.3400   46.3110 O   0  0  0  0  0  0  0  0  0  0  0  0
   60.0160   29.8500   46.7580 C   0  0  0  0  0  0  0  0  0  0  0  0
   60.7210   31.0570   46.6620 C   0  0  0  0  0  0  0  0  0  0  0  0
   61.4381   31.2094   45.8419 H   0  0  0  0  0  0  0  0  0  0  0  0
   60.5160   32.0680   47.6050 C   0  0  0  0  0  0  0  0  0  0  0  0
   61.0621   33.0188   47.5163 H   0  0  0  0  0  0  0  0  0  0  0  0
   59.6160   31.8750   48.6650 C   0  0  0  0  0  0  0  0  0  0  0  0
   59.3700   32.9710   49.6580 C   0  0  0  0  0  0  0  0  0  0  0  0
   59.4603   32.5688   50.6779 H   0  0  0  0  0  0  0  0  0  0  0  0
   60.1110   33.7709   49.5124 H   0  0  0  0  0  0  0  0  0  0  0  0
   58.3583   33.3775   49.5124 H   0  0  0  0  0  0  0  0  0  0  0  0
   58.9020   30.6690   48.7510 C   0  0  0  0  0  0  0  0  0  0  0  0
   58.1788   30.5178   49.5659 H   0  0  0  0  0  0  0  0  0  0  0  0
   59.1060   29.6600   47.8060 C   0  0  0  0  0  0  0  0  0  0  0  0
   58.5505   28.7139   47.8852 H   0  0  0  0  0  0  0  0  0  0  0  0
   56.4610   30.0550   43.0400 C   0  0  0  0  0  0  0  0  0  0  0  0
   55.8602   29.2719   42.5544 H   0  0  0  0  0  0  0  0  0  0  0  0
   57.0100   31.0880   42.2750 C   0  0  0  0  0  0  0  0  0  0  0  0
   56.8239   31.1286   41.1916 H   0  0  0  0  0  0  0  0  0  0  0  0
  1  2  1  0
  2  3  2  0
  3  4  1  0
  3  5  1  0
  5  6  1  0
  5  7  2  0
  7  8  1  0
  8  9  2  0
  9 10  1  0
 10 11  1  0
 11 12  2  0
 12 13  1  0
 12 14  1  0
 14 15  1  0
 14 16  2  0
 16 17  1  0
 16 18  1  0
 18 19  1  0
 18 20  2  0
 20 21  1  0
 21 22  1  0
 22 23  2  3
 23 24  1  0
 24 25  2  0
 24 26  2  0
 24 27  1  0
 27 28  2  0
 28 29  1  0
 28 30  1  0
 30 31  1  0
 30 32  2  0
 32 33  1  0
 33 34  1  0
 33 35  1  0
 33 36  1  0
 32 37  1  0
 37 38  1  0
 37 39  2  0
 39 40  1  0
  7 41  1  0
 41 42  1  0
 41 43  2  0
 43 44  1  0
 43  2  1  0
 22  9  1  0
 39 27  1  0
 20 11  1  0
M  CHG  2  10  -1  21  -1
M  END
>  <UniqueID>  (3) 
3

>  <SMILES>  (3) 
Cc1ccc(S(=O)(=O)N=c2[n-]c3ccccc3[n-]/c2=N/c2ccccc2)cc1

>  <Energy>  (3) 
67.47024530561362

>  <Genealogy>  (3) 
Cc1ccc(S(=O)(=O)N=c2[n-]c3ccccc3[n-]c2=Nc2ccccc2)cc1 (protonated)
Cc1ccc(S(=O)(=O)N=c2[n-]c3ccccc3[n-]/c2=N/c2ccccc2)cc1 (cis-trans isomerization)
Cc1ccc(S(=O)(=O)N=c2[n-]c3ccccc3[n-]/c2=N/c2ccccc2)cc1 (3D coordinates assigned)
Cc1ccc(S(=O)(=O)N=c2[n-]c3ccccc3[n-]/c2=N/c2ccccc2)cc1 (optimized conformer: 67.47024530561362 kcal/mol)

>  <smiles>  (3) 
Cc1ccc(S(=O)(=O)N=c2[nH]c3ccccc3[nH]c2=Nc2ccccc2)cc1

>  <score_type>  (3) 
oracle

>  <origin>  (3) 
adg

>  <m_score__min__energy>  (3) 
-11.779999999999999

>  <m_primary>  (3) 
energy

$$$$
3:0
     RDKit          3D

 79 84  0  0  0  0  0  0  0  0999 V2000
   54.9310   30.8340   52.0170 C   0  0  0  0  0  0  0  0  0  0  0  0
   56.1990   31.2790   52.4870 O   0  0  0  0  0  0  0  0  0  0  0  0
   57.4070   30.7510   52.0140 C   0  0  0  0  0  0  0  0  0  0  0  0
   57.4040   29.7030   51.3130 O   0  0  0  0  0  0  0  0  0  0  0  0
   58.6470   31.4150   52.3260 N   0  0  0  0  0  0  0  0  0  0  0  0
   58.6170   32.6040   53.1910 C   0  0  0  0  0  0  0  0  0  0  0  0
   59.9880   33.2910   53.2570 C   0  0  0  0  0  0  0  0  0  0  0  0
   60.6230   33.3480   51.8560 C   0  0  0  0  0  0  0  0  0  0  0  0
   59.7750   34.0710   50.9570 O   0  0  0  0  0  0  0  0  0  0  0  0
   59.4490   33.6900   49.6460 C   0  0  0  0  0  0  0  0  0  0  0  0
   58.5050   32.6680   49.3530 C   0  0  0  0  0  0  0  0  0  0  0  0
   58.1860   32.3430   48.0230 C   0  0  0  0  0  0  0  0  0  0  0  0
   58.8440   33.0300   46.9970 C   0  0  0  0  0  0  0  0  0  0  0  0
   59.7450   34.0270   47.2820 C   0  0  0  0  0  0  0  0  0  0  0  0
   60.0720   34.3780   48.5890 C   0  0  0  0  0  0  0  0  0  0  0  0
   60.1380   34.5990   46.0910 C   0  0  0  0  0  0  0  0  0  0  0  0
   59.4290   33.9070   45.1210 C   0  0  0  0  0  0  0  0  0  0  0  0
   59.4900   34.1790   43.7600 O   0  0  0  0  0  0  0  0  0  0  0  0
   58.6550   32.9380   45.6610 N   0  0  0  0  0  0  0  0  0  0  0  0
   57.7240   32.1260   44.9290 C   0  0  0  0  0  0  0  0  0  0  0  0
   57.3630   30.9050   45.3390 C   0  0  0  0  0  0  0  0  0  0  0  0
   57.8560   29.6690   44.6310 C   0  0  0  0  0  0  0  0  0  0  0  0
   58.4430   28.5980   45.5960 C   0  0  2  0  0  0  0  0  0  0  0  0
   59.4190   29.2720   46.5720 C   0  0  0  0  0  0  0  0  0  0  0  0
   59.3870   29.0380   47.9670 C   0  0  0  0  0  0  0  0  0  0  0  0
   60.3380   29.6200   48.8100 C   0  0  0  0  0  0  0  0  0  0  0  0
   61.3410   30.4330   48.2850 C   0  0  0  0  0  0  0  0  0  0  0  0
   61.4040   30.6600   46.9100 C   0  0  0  0  0  0  0  0  0  0  0  0
   60.4590   30.0790   46.0600 C   0  0  0  0  0  0  0  0  0  0  0  0
   59.1140   27.4270   44.8140 C   0  0  0  0  0  0  0  0  0  0  0  0
   58.1010   26.5710   44.0420 C   0  0  0  0  0  0  0  0  0  0  0  0
   57.0000   26.1360   44.9070 N   0  0  0  0  0  0  0  0  0  0  0  0
   56.3620   24.8640   44.6810 C   0  0  0  0  0  0  0  0  0  0  0  0
   55.1090   24.7740   44.7960 O   0  0  0  0  0  0  0  0  0  0  0  0
   57.1430   23.6580   44.3230 C   0  0  0  0  0  0  0  0  0  0  0  0
   56.6400   22.7450   43.3780 C   0  0  0  0  0  0  0  0  0  0  0  0
   57.3800   21.6150   43.0230 C   0  0  0  0  0  0  0  0  0  0  0  0
   58.6300   21.3860   43.6040 C   0  0  0  0  0  0  0  0  0  0  0  0
   59.1470   22.2950   44.5290 C   0  0  0  0  0  0  0  0  0  0  0  0
   58.4110   23.4300   44.8840 C   0  0  0  0  0  0  0  0  0  0  0  0
   56.5990   26.9600   46.0150 C   0  0  0  0  0  0  0  0  0  0  0  0
   55.5760   26.6720   46.6920 O   0  0  0  0  0  0  0  0  0  0  0  0
   57.3600   28.0730   46.3760 O   0  0  0  0  0  0  0  0  0  0  0  0
   60.8530   31.9270   51.2930 C   0  0  0  0  0  0  0  0  0  0  0  0
   59.9400   30.8490   51.9090 C   0  0  0  0  0  0  0  0  0  0  0  0
   54.2814   30.6060   52.8749 H   0  0  0  0  0  0  0  0  0  0  0  0
   54.4685   31.6235   51.4065 H   0  0  0  0  0  0  0  0  0  0  0  0
   55.0634   29.9286   51.4065 H   0  0  0  0  0  0  0  0  0  0  0  0
   57.8797   33.3165   52.7926 H   0  0  0  0  0  0  0  0  0  0  0  0
   58.3445   32.2828   54.2071 H   0  0  0  0  0  0  0  0  0  0  0  0
   59.8634   34.3142   53.6412 H   0  0  0  0  0  0  0  0  0  0  0  0
   60.6455   32.7158   53.9255 H   0  0  0  0  0  0  0  0  0  0  0  0
   61.5925   33.8593   51.9488 H   0  0  0  0  0  0  0  0  0  0  0  0
   58.0185   32.1252   50.1768 H   0  0  0  0  0  0  0  0  0  0  0  0
   57.4386   31.5688   47.7949 H   0  0  0  0  0  0  0  0  0  0  0  0
   60.8017   35.1760   48.7907 H   0  0  0  0  0  0  0  0  0  0  0  0
   60.8541   35.4208   45.9432 H   0  0  0  0  0  0  0  0  0  0  0  0
   57.2923   32.5221   43.9980 H   0  0  0  0  0  0  0  0  0  0  0  0
   56.6954   30.8012   46.2071 H   0  0  0  0  0  0  0  0  0  0  0  0
   57.0136   29.2211   44.0835 H   0  0  0  0  0  0  0  0  0  0  0  0
   58.6687   29.9815   43.9588 H   0  0  0  0  0  0  0  0  0  0  0  0
   58.6056   28.3913   48.3926 H   0  0  0  0  0  0  0  0  0  0  0  0
   60.2946   29.4354   49.8935 H   0  0  0  0  0  0  0  0  0  0  0  0
   62.0819   30.8950   48.9540 H   0  0  0  0  0  0  0  0  0  0  0  0
   62.1985   31.2971   46.4943 H   0  0  0  0  0  0  0  0  0  0  0  0
   60.5261   30.2528   44.9759 H   0  0  0  0  0  0  0  0  0  0  0  0
   59.8348   27.8495   44.0985 H   0  0  0  0  0  0  0  0  0  0  0  0
   59.6056   26.7749   45.5510 H   0  0  0  0  0  0  0  0  0  0  0  0
   57.6908   27.1639   43.2112 H   0  0  0  0  0  0  0  0  0  0  0  0
   58.6191   25.6771   43.6646 H   0  0  0  0  0  0  0  0  0  0  0  0
   55.6577   22.9223   42.9159 H   0  0  0  0  0  0  0  0  0  0  0  0
   56.9785   20.9046   42.2854 H   0  0  0  0  0  0  0  0  0  0  0  0
   59.2067   20.4895   43.3326 H   0  0  0  0  0  0  0  0  0  0  0  0
   60.1349   22.1182   44.9793 H   0  0  0  0  0  0  0  0  0  0  0  0
   58.8269   24.1480   45.6062 H   0  0  0  0  0  0  0  0  0  0  0  0
   60.6736   31.9524   50.2080 H   0  0  0  0  0  0  0  0  0  0  0  0
   61.8866   31.6493   51.5472 H   0  0  0  0  0  0  0  0  0  0  0  0
   59.7618   30.0614   51.1620 H   0  0  0  0  0  0  0  0  0  0  0  0
   60.4408   30.4377   52.7978 H   0  0  0  0  0  0  0  0  0  0  0  0
  1  2  1  0
  2  3  1  0
  3  4  2  0
  3  5  1  0
  5  6  1  0
  6  7  1  0
  7  8  1  0
  8  9  1  0
  9 10  1  0
 10 11  2  0
 11 12  1  0
 12 13  2  0
 13 14  1  0
 14 15  2  0
 14 16  1  0
 16 17  2  0
 17 18  1  0
 17 19  1  0
 19 20  1  0
 20 21  2  3
 21 22  1  0
 23 22  1  6
 23 24  1  0
 24 25  2  0
 25 26  1  0
 26 27  2  0
 27 28  1  0
 28 29  2  0
 23 30  1  0
 30 31  1  0
 31 32  1  0
 32 33  1  0
 33 34  2  0
 33 35  1  0
 35 36  2  0
 36 37  1  0
 37 38  2  0
 38 39  1  0
 39 40  2  0
 32 41  1  0
 41 42  2  0
 41 43  1  0
  8 44  1  0
 44 45  1  0
 45  5  1  0
 15 10  1  0
 43 23  1  0
 19 13  1  0
 29 24  1  0
 40 35  1  0
  1 46  1  0
  1 47  1  0
  1 48  1  0
  6 49  1  0
  6 50  1  0
  7 51  1  0
  7 52  1  0
  8 53  1  0
 11 54  1  0
 12 55  1  0
 15 56  1  0
 16 57  1  0
 20 58  1  0
 21 59  1  0
 22 60  1  0
 22 61  1  0
 25 62  1  0
 26 63  1  0
 27 64  1  0
 28 65  1  0
 29 66  1  0
 30 67  1  0
 30 68  1  0
 31 69  1  0
 31 70  1  0
 36 71  1  0
 37 72  1  0
 38 73  1  0
 39 74  1  0
 40 75  1  0
 44 76  1  0
 44 77  1  0
 45 78  1  0
 45 79  1  0
M  CHG  1  18  -1
M  END
>  <UniqueID>  (4) 
4

>  <SMILES>  (4) 
COC(=O)N1CCC(Oc2ccc3c(c2)cc([O-])n3C=CC[C@]2(c3ccccc3)CCN(C(=O)c3ccccc3)C(=O)O2)CC1

>  <Energy>  (4) 
132.1300926723936

>  <Genealogy>  (4) 
COC(=O)N1CCC(Oc2ccc3c(c2)cc([O-])n3C=CCC2(c3ccccc3)CCN(C(=O)c3ccccc3)C(=O)O2)CC1 (protonated)
COC(=O)N1CCC(Oc2ccc3c(c2)cc([O-])n3C=CC[C@]2(c3ccccc3)CCN(C(=O)c3ccccc3)C(=O)O2)CC1 (chirality)
COC(=O)N1CCC(Oc2ccc3c(c2)cc([O-])n3C=CC[C@]2(c3ccccc3)CCN(C(=O)c3ccccc3)C(=O)O2)CC1 (3D coordinates assigned)
COC(=O)N1CCC(Oc2ccc3c(c2)cc([O-])n3C=CC[C@]2(c3ccccc3)CCN(C(=O)c3ccccc3)C(=O)O2)CC1 (nonaromatic ring conformer: 132.1300926723936 kcal/mol)

>  <smiles>  (4) 
COC(=O)N1CCC(Oc2ccc3c(c2)cc(O)n3C=CCC2(c3ccccc3)CCN(C(=O)c3ccccc3)C(=O)O2)CC1

>  <score_type>  (4) 
oracle

>  <origin>  (4) 
adg

>  <m_score__min__energy>  (4) 
-11.92

>  <m_primary>  (4) 
energy

$$$$
4:0
     RDKit          3D

 24 25  0  0  0  0  0  0  0  0999 V2000
   57.4100   26.1300   47.2320 O   0  0  0  0  0  0  0  0  0  0  0  0
   56.7300   26.2000   46.1730 C   0  0  0  0  0  0  0  0  0  0  0  0
   57.0800   27.1520   45.1550 N   0  0  0  0  0  0  0  0  0  0  0  0
   58.0340   28.2070   45.3730 C   0  0  0  0  0  0  0  0  0  0  0  0
   59.3480   27.8790   45.7520 C   0  0  0  0  0  0  0  0  0  0  0  0
   60.2710   28.8800   46.0580 C   0  0  0  0  0  0  0  0  0  0  0  0
   59.8900   30.2200   46.0020 C   0  0  0  0  0  0  0  0  0  0  0  0
   58.5900   30.5640   45.6330 C   0  0  0  0  0  0  0  0  0  0  0  0
   57.6470   29.5710   45.3060 C   0  0  0  0  0  0  0  0  0  0  0  0
   56.2950   29.9950   44.8620 C   0  0  0  0  0  0  0  0  0  0  0  0
   56.0730   31.1830   44.5060 O   0  0  0  0  0  0  0  0  0  0  0  0
   55.2400   29.0910   44.8730 O   0  0  0  0  0  0  0  0  0  0  0  0
   55.5970   25.2730   45.9930 C   0  0  0  0  0  0  0  0  0  0  0  0
   55.6250   23.8960   46.0800 C   0  0  0  0  0  0  0  0  0  0  0  0
   54.3920   23.4150   45.8420 N   0  0  0  0  0  0  0  0  0  0  0  0
   53.6590   24.5240   45.6180 C   0  0  0  0  0  0  0  0  0  0  0  0
   52.4290   24.4830   45.3540 O   0  0  0  0  0  0  0  0  0  0  0  0
   54.3490   25.6790   45.6970 N   0  0  0  0  0  0  0  0  0  0  0  0
   56.6520   27.0670   44.2080 H   0  0  0  0  0  0  0  0  0  0  0  0
   59.6512   26.8231   45.8078 H   0  0  0  0  0  0  0  0  0  0  0  0
   61.2989   28.6118   46.3433 H   0  0  0  0  0  0  0  0  0  0  0  0
   60.6167   31.0078   46.2495 H   0  0  0  0  0  0  0  0  0  0  0  0
   58.2978   31.6239   45.5970 H   0  0  0  0  0  0  0  0  0  0  0  0
   56.5137   23.2890   46.3076 H   0  0  0  0  0  0  0  0  0  0  0  0
  1  2  2  0
  2  3  1  0
  3  4  1  0
  4  5  2  0
  5  6  1  0
  6  7  2  0
  7  8  1  0
  8  9  2  0
  9 10  1  0
 10 11  2  0
 10 12  1  0
  2 13  1  0
 13 14  2  0
 14 15  1  0
 15 16  1  0
 16 17  2  0
 16 18  1  0
  9  4  1  0
 18 13  1  0
  3 19  1  0
  5 20  1  0
  6 21  1  0
  7 22  1  0
  8 23  1  0
 14 24  1  0
M  CHG  3  12  -1  15  -1  18  -1
M  END
>  <UniqueID>  (5) 
5

>  <SMILES>  (5) 
O=C(Nc1ccccc1C(=O)[O-])c1c[n-]c(=O)[n-]1

>  <Energy>  (5) 
60.49822128463647

>  <Genealogy>  (5) 
O=C(Nc1ccccc1C(=O)[O-])c1c[n-]c(=O)[n-]1 (protonated)
O=C(Nc1ccccc1C(=O)[O-])c1c[n-]c(=O)[n-]1 (3D coordinates assigned)
O=C(Nc1ccccc1C(=O)[O-])c1c[n-]c(=O)[n-]1 (optimized conformer: 60.49822128463647 kcal/mol)

>  <smiles>  (5) 
O=C(Nc1ccccc1C(=O)O)c1c[nH]c(=O)[nH]1

>  <score_type>  (5) 
oracle

>  <origin>  (5) 
adg

>  <m_score__min__energy>  (5) 
-12.5

>  <m_primary>  (5) 
energy

$$$$
5:0
     RDKit          3D

 48 50  0  0  0  0  0  0  0  0999 V2000
   54.3325   24.8747   46.0067 H   0  0  0  0  0  0  0  0  0  0  0  0
   55.3010   25.3030   45.7090 C   0  0  0  0  0  0  0  0  0  0  0  0
   55.5740   26.6100   45.9660 N   0  0  0  0  0  0  0  0  0  0  0  0
   56.7620   27.1820   45.6160 C   0  0  0  0  0  0  0  0  0  0  0  0
   57.0110   28.4350   45.8690 N   0  0  0  0  0  0  0  0  0  0  0  0
   58.0300   28.9560   46.7390 C   0  0  0  0  0  0  0  0  0  0  0  0
   58.7880   29.8930   46.3640 O   0  0  0  0  0  0  0  0  0  0  0  0
   58.1770   28.3980   48.0500 N   0  0  0  0  0  0  0  0  0  0  0  0
   57.5140   27.6500   48.3540 H   0  0  0  0  0  0  0  0  0  0  0  0
   59.2130   28.8370   48.9820 C   0  0  0  0  0  0  0  0  0  0  0  0
   59.3503   28.0708   49.7592 H   0  0  0  0  0  0  0  0  0  0  0  0
   60.1523   28.9853   48.4291 H   0  0  0  0  0  0  0  0  0  0  0  0
   58.8160   30.1360   49.6300 C   0  0  0  0  0  0  0  0  0  0  0  0
   59.2400   31.3600   49.0930 C   0  0  0  0  0  0  0  0  0  0  0  0
   59.8390   31.3760   48.1705 H   0  0  0  0  0  0  0  0  0  0  0  0
   58.9040   32.5590   49.7260 C   0  0  0  0  0  0  0  0  0  0  0  0
   59.2484   33.5163   49.3076 H   0  0  0  0  0  0  0  0  0  0  0  0
   58.1310   32.5440   50.8900 C   0  0  0  0  0  0  0  0  0  0  0  0
   57.8847   33.4898   51.3948 H   0  0  0  0  0  0  0  0  0  0  0  0
   57.6670   31.3300   51.4190 C   0  0  0  0  0  0  0  0  0  0  0  0
   56.8500   31.3290   52.6520 C   0  0  0  0  0  0  0  0  0  0  0  0
   57.2960   31.9080   53.6770 O   0  0  0  0  0  0  0  0  0  0  0  0
   55.5680   30.6900   52.7300 N   0  0  0  0  0  0  0  0  0  0  0  0
   54.7170   30.2960   51.6060 C   0  0  0  0  0  0  0  0  0  0  0  0
   55.3264   30.2597   50.6909 H   0  0  0  0  0  0  0  0  0  0  0  0
   54.2863   29.3082   51.8268 H   0  0  0  0  0  0  0  0  0  0  0  0
   53.5670   31.2900   51.4010 C   0  0  0  0  0  0  0  0  0  0  0  0
   53.9570   32.3114   51.5219 H   0  0  0  0  0  0  0  0  0  0  0  0
   53.1616   31.1307   50.3909 H   0  0  0  0  0  0  0  0  0  0  0  0
   52.4430   31.0800   52.3870 C   0  0  0  0  0  0  0  0  0  0  0  0
   52.6040   30.1530   53.4310 C   0  0  0  0  0  0  0  0  0  0  0  0
   53.5437   29.5880   53.5196 H   0  0  0  0  0  0  0  0  0  0  0  0
   51.5790   29.9440   54.3570 C   0  0  0  0  0  0  0  0  0  0  0  0
   51.7123   29.2137   55.1688 H   0  0  0  0  0  0  0  0  0  0  0  0
   50.3860   30.6610   54.2530 C   0  0  0  0  0  0  0  0  0  0  0  0
   49.5823   30.5004   54.9867 H   0  0  0  0  0  0  0  0  0  0  0  0
   50.2120   31.5830   53.2170 C   0  0  0  0  0  0  0  0  0  0  0  0
   49.2703   32.1458   53.1371 H   0  0  0  0  0  0  0  0  0  0  0  0
   51.2310   31.7930   52.2810 C   0  0  0  0  0  0  0  0  0  0  0  0
   51.0280   32.7050   51.2520 O   0  0  0  0  0  0  0  0  0  0  0  0
   58.0440   30.1260   50.8030 C   0  0  0  0  0  0  0  0  0  0  0  0
   57.7321   29.1672   51.2427 H   0  0  0  0  0  0  0  0  0  0  0  0
   57.7350   26.4080   44.9710 C   0  0  0  0  0  0  0  0  0  0  0  0
   58.6975   26.8560   44.6830 H   0  0  0  0  0  0  0  0  0  0  0  0
   57.4750   25.0640   44.6960 C   0  0  0  0  0  0  0  0  0  0  0  0
   58.2322   24.4481   44.1889 H   0  0  0  0  0  0  0  0  0  0  0  0
   56.2500   24.5040   45.0670 C   0  0  0  0  0  0  0  0  0  0  0  0
   55.9090   22.8170   44.7310 Cl  0  0  0  0  0  0  0  0  0  0  0  0
  1  2  1  0
  2  3  1  0
  3  4  1  0
  4  5  2  0
  5  6  1  0
  6  7  2  0
  6  8  1  0
  8  9  1  0
  8 10  1  0
 10 11  1  0
 10 12  1  0
 10 13  1  0
 13 14  2  0
 14 15  1  0
 14 16  1  0
 16 17  1  0
 16 18  2  0
 18 19  1  0
 18 20  1  0
 20 21  1  0
 21 22  2  0
 21 23  1  0
 23 24  1  0
 24 25  1  0
 24 26  1  0
 24 27  1  0
 27 28  1  0
 27 29  1  0
 27 30  1  0
 30 31  2  0
 31 32  1  0
 31 33  1  0
 33 34  1  0
 33 35  2  0
 35 36  1  0
 35 37  1  0
 37 38  1  0
 37 39  2  0
 39 40  1  0
 20 41  2  0
 41 42  1  0
  4 43  1  0
 43 44  1  0
 43 45  2  0
 45 46  1  0
 45 47  1  0
 47 48  1  0
 47  2  2  0
 41 13  1  0
 39 30  1  0
M  CHG  3   3  -1  23  -1  40  -1
M  END
>  <UniqueID>  (6) 
6

>  <SMILES>  (6) 
O=C(/N=c1/ccc(Cl)c[n-]1)NCc1cccc(C(=O)[N-]CCc2ccccc2[O-])c1

>  <Energy>  (6) 
50.80904228349878

>  <Genealogy>  (6) 
O=C(N=c1ccc(Cl)c[n-]1)NCc1cccc(C(=O)[N-]CCc2ccccc2[O-])c1 (protonated)
O=C(/N=c1/ccc(Cl)c[n-]1)NCc1cccc(C(=O)[N-]CCc2ccccc2[O-])c1 (cis-trans isomerization)
O=C(/N=c1/ccc(Cl)c[n-]1)NCc1cccc(C(=O)[N-]CCc2ccccc2[O-])c1 (3D coordinates assigned)
O=C(/N=c1/ccc(Cl)c[n-]1)NCc1cccc(C(=O)[N-]CCc2ccccc2[O-])c1 (optimized conformer: 50.80904228349878 kcal/mol)

>  <smiles>  (6) 
O=C(N=c1ccc(Cl)c[nH]1)NCc1cccc(C(=O)NCCc2ccccc2O)c1

>  <score_type>  (6) 
oracle

>  <origin>  (6) 
adg

>  <m_score__min__energy>  (6) 
-15.58

>  <m_primary>  (6) 
energy

$$$$
6:0
     RDKit          3D

 41 43  0  0  0  0  0  0  0  0999 V2000
   62.2730   31.2850   47.5070 C   0  0  0  0  0  0  0  0  0  0  0  0
   60.9060   31.0800   47.1630 O   0  0  0  0  0  0  0  0  0  0  0  0
   60.0670   32.0510   46.5890 C   0  0  0  0  0  0  0  0  0  0  0  0
   60.4900   33.3870   46.4570 C   0  0  0  0  0  0  0  0  0  0  0  0
   59.6530   34.3440   45.8900 C   0  0  0  0  0  0  0  0  0  0  0  0
   58.3830   33.9910   45.4450 C   0  0  0  0  0  0  0  0  0  0  0  0
   57.5660   34.9650   44.8810 O   0  0  0  0  0  0  0  0  0  0  0  0
   57.9330   32.6650   45.5640 C   0  0  0  0  0  0  0  0  0  0  0  0
   56.6570   32.3270   45.1090 O   0  0  0  0  0  0  0  0  0  0  0  0
   58.7730   31.6770   46.1400 C   0  0  0  0  0  0  0  0  0  0  0  0
   58.3030   30.2270   46.2910 C   0  0  2  0  0  0  0  0  0  0  0  0
   58.7880   29.5940   47.6200 C   0  0  0  0  0  0  0  0  0  0  0  0
   58.8430   28.0590   47.5470 C   0  0  0  0  0  0  0  0  0  0  0  0
   57.8120   27.5580   46.6200 N   0  0  0  0  0  0  0  0  0  0  0  0
   57.5160   26.1210   46.7980 C   0  0  0  0  0  0  0  0  0  0  0  0
   56.1410   25.7290   46.3280 C   0  0  0  0  0  0  0  0  0  0  0  0
   55.1840   26.6180   45.9950 N   0  0  0  0  0  0  0  0  0  0  0  0
   54.1180   25.9180   45.6500 N   0  0  0  0  0  0  0  0  0  0  0  0
   54.4630   24.6260   45.7850 C   0  0  0  0  0  0  0  0  0  0  0  0
   53.6790   23.6730   45.5390 O   0  0  0  0  0  0  0  0  0  0  0  0
   55.7270   24.4510   46.2110 N   0  0  0  0  0  0  0  0  0  0  0  0
   58.1040   27.9120   45.2100 C   0  0  0  0  0  0  0  0  0  0  0  0
   58.6770   29.3480   45.0700 C   0  0  1  0  0  0  0  0  0  0  0  0
   58.2520   29.9370   43.8650 O   0  0  0  0  0  0  0  0  0  0  0  0
   62.3772   31.3006   48.6019 H   0  0  0  0  0  0  0  0  0  0  0  0
   62.8819   30.4681   47.0924 H   0  0  0  0  0  0  0  0  0  0  0  0
   62.6155   32.2446   47.0924 H   0  0  0  0  0  0  0  0  0  0  0  0
   61.4920   33.6778   46.8054 H   0  0  0  0  0  0  0  0  0  0  0  0
   59.9974   35.3842   45.7934 H   0  0  0  0  0  0  0  0  0  0  0  0
   55.9990   33.0180   44.7700 H   0  0  0  0  0  0  0  0  0  0  0  0
   57.2042   30.2637   46.3276 H   0  0  0  0  0  0  0  0  0  0  0  0
   59.7951   29.9741   47.8465 H   0  0  0  0  0  0  0  0  0  0  0  0
   58.0698   29.8689   48.4065 H   0  0  0  0  0  0  0  0  0  0  0  0
   59.8356   27.7472   47.1899 H   0  0  0  0  0  0  0  0  0  0  0  0
   58.6580   27.6443   48.5489 H   0  0  0  0  0  0  0  0  0  0  0  0
   58.2571   25.5398   46.2298 H   0  0  0  0  0  0  0  0  0  0  0  0
   57.5610   25.9124   47.8771 H   0  0  0  0  0  0  0  0  0  0  0  0
   58.8388   27.1974   44.8107 H   0  0  0  0  0  0  0  0  0  0  0  0
   57.1583   27.8708   44.6497 H   0  0  0  0  0  0  0  0  0  0  0  0
   59.7743   29.2751   45.0443 H   0  0  0  0  0  0  0  0  0  0  0  0
   57.7070   30.7340   44.0960 H   0  0  0  0  0  0  0  0  0  0  0  0
  1  2  1  0
  2  3  1  0
  3  4  2  0
  4  5  1  0
  5  6  2  0
  6  7  1  0
  6  8  1  0
  8  9  1  0
  8 10  2  0
 10 11  1  0
 11 12  1  0
 12 13  1  0
 13 14  1  0
 14 15  1  0
 15 16  1  0
 16 17  2  0
 17 18  1  0
 18 19  1  0
 19 20  2  0
 19 21  1  0
 14 22  1  0
 22 23  1  0
 23 24  1  0
 10  3  1  0
 23 11  1  0
 21 16  1  0
  1 25  1  0
  1 26  1  0
  1 27  1  0
  4 28  1  0
  5 29  1  0
  9 30  1  0
 11 31  1  1
 12 32  1  0
 12 33  1  0
 13 34  1  0
 13 35  1  0
 15 36  1  0
 15 37  1  0
 22 38  1  0
 22 39  1  0
 23 40  1  6
 24 41  1  0
M  CHG  3   7  -1  18  -1  21  -1
M  END
>  <UniqueID>  (7) 
7

>  <SMILES>  (7) 
COc1ccc([O-])c(O)c1[C@@H]1CCN(Cc2n[n-]c(=O)[n-]2)C[C@H]1O

>  <Energy>  (7) 
88.08681576627649

>  <Genealogy>  (7) 
COc1ccc([O-])c(O)c1C1CCN(Cc2n[n-]c(=O)[n-]2)CC1O (protonated)
COc1ccc([O-])c(O)c1[C@@H]1CCN(Cc2n[n-]c(=O)[n-]2)C[C@H]1O (chirality)
COc1ccc([O-])c(O)c1[C@@H]1CCN(Cc2n[n-]c(=O)[n-]2)C[C@H]1O (3D coordinates assigned)
COc1ccc([O-])c(O)c1[C@@H]1CCN(Cc2n[n-]c(=O)[n-]2)C[C@H]1O (nonaromatic ring conformer: 88.08681576627649 kcal/mol)

>  <smiles>  (7) 
COc1ccc(O)c(O)c1C1CCN(Cc2n[nH]c(=O)[nH]2)CC1O

>  <score_type>  (7) 
oracle

>  <origin>  (7) 
adg

>  <m_score__min__energy>  (7) 
-12.34

>  <m_primary>  (7) 
energy

$$$$
7:0
     RDKit          3D

 31 31  0  0  0  0  0  0  0  0999 V2000
   57.0540   34.1710   45.2200 C   0  0  0  0  0  0  0  0  0  0  0  0
   58.0500   33.0440   45.5240 C   0  0  0  0  0  0  0  0  0  0  0  0
   59.2350   33.5670   46.3430 C   0  0  0  0  0  0  0  0  0  0  0  0
   58.5070   32.2810   44.2590 C   0  0  0  0  0  0  0  0  0  0  0  0
   57.8460   30.9760   44.0960 N   0  0  0  0  0  0  0  0  0  0  0  0
   56.6110   30.8190   43.3340 C   0  0  0  0  0  0  0  0  0  0  0  0
   55.7570   29.8540   44.1630 C   0  0  0  0  0  0  0  0  0  0  0  0
   56.6340   29.4060   45.2300 N   0  0  0  0  0  0  0  0  0  0  0  0
   57.7540   30.0370   45.1640 C   0  0  0  0  0  0  0  0  0  0  0  0
   58.8250   29.7690   46.0850 N   0  0  0  0  0  0  0  0  0  0  0  0
   58.5200   29.5510   47.4980 C   0  0  0  0  0  0  0  0  0  0  0  0
   60.2090   29.6810   45.6190 C   0  0  0  0  0  0  0  0  0  0  0  0
   56.6799   34.5943   46.1639 H   0  0  0  0  0  0  0  0  0  0  0  0
   57.5570   34.9581   44.6391 H   0  0  0  0  0  0  0  0  0  0  0  0
   56.2110   33.7686   44.6391 H   0  0  0  0  0  0  0  0  0  0  0  0
   57.5160   32.3030   46.1370 H   0  0  0  0  0  0  0  0  0  0  0  0
   59.0115   33.4683   47.4155 H   0  0  0  0  0  0  0  0  0  0  0  0
   60.1347   32.9824   46.1007 H   0  0  0  0  0  0  0  0  0  0  0  0
   59.4094   34.6257   46.1007 H   0  0  0  0  0  0  0  0  0  0  0  0
   58.2813   32.8993   43.3777 H   0  0  0  0  0  0  0  0  0  0  0  0
   59.5849   32.0893   44.3656 H   0  0  0  0  0  0  0  0  0  0  0  0
   56.1009   31.7869   43.2197 H   0  0  0  0  0  0  0  0  0  0  0  0
   56.7963   30.4402   42.3180 H   0  0  0  0  0  0  0  0  0  0  0  0
   54.8778   30.3708   44.5752 H   0  0  0  0  0  0  0  0  0  0  0  0
   55.3738   29.0167   43.5612 H   0  0  0  0  0  0  0  0  0  0  0  0
   59.2590   30.0792   48.1184 H   0  0  0  0  0  0  0  0  0  0  0  0
   57.5135   29.9356   47.7194 H   0  0  0  0  0  0  0  0  0  0  0  0
   58.5580   28.4742   47.7194 H   0  0  0  0  0  0  0  0  0  0  0  0
   60.8855   29.6380   46.4853 H   0  0  0  0  0  0  0  0  0  0  0  0
   60.3340   28.7731   45.0107 H   0  0  0  0  0  0  0  0  0  0  0  0
   60.4480   30.5658   45.0107 H   0  0  0  0  0  0  0  0  0  0  0  0
  1  2  1  0
  2  3  1  0
  2  4  1  0
  4  5  1  0
  5  6  1  0
  6  7  1  0
  7  8  1  0
  8  9  2  0
  9 10  1  0
 10 11  1  0
 10 12  1  0
  9  5  1  0
  1 13  1  0
  1 14  1  0
  1 15  1  0
  2 16  1  0
  3 17  1  0
  3 18  1  0
  3 19  1  0
  4 20  1  0
  4 21  1  0
  6 22  1  0
  6 23  1  0
  7 24  1  0
  7 25  1  0
 11 26  1  0
 11 27  1  0
 11 28  1  0
 12 29  1  0
 12 30  1  0
 12 31  1  0
M  END
>  <UniqueID>  (8) 
8

>  <SMILES>  (8) 
CC(C)CN1CCN=C1N(C)C

>  <Energy>  (8) 
36.5739887556713

>  <Genealogy>  (8) 
CC(C)CN1CCN=C1N(C)C (3D coordinates assigned)
CC(C)CN1CCN=C1N(C)C (nonaromatic ring conformer: 36.5739887556713 kcal/mol)

>  <smiles>  (8) 
CC(C)CN1CCN=C1N(C)C

>  <score_type>  (8) 
oracle

>  <origin>  (8) 
adg

>  <m_score__min__energy>  (8) 
-4.2999999999999998

>  <m_primary>  (8) 
energy

$$$$
8:0
     RDKit          3D

 40 42  0  0  0  0  0  0  0  0999 V2000
   61.4150   33.8150   51.6780 N   0  0  0  0  0  0  0  0  0  0  0  0
   62.9340   33.8050   50.8570 S   0  0  0  0  0  0  0  0  0  0  0  0
   63.7330   35.0130   51.2590 O   0  0  0  0  0  0  0  0  0  0  0  0
   63.7010   32.5710   51.2410 O   0  0  0  0  0  0  0  0  0  0  0  0
   62.6630   33.8220   49.1170 C   0  0  0  0  0  0  0  0  0  0  0  0
   63.7270   33.6000   48.2340 C   0  0  0  0  0  0  0  0  0  0  0  0
   63.5080   33.6100   46.8540 C   0  0  0  0  0  0  0  0  0  0  0  0
   62.2230   33.8320   46.3490 C   0  0  0  0  0  0  0  0  0  0  0  0
   61.1430   34.0300   47.2280 C   0  0  0  0  0  0  0  0  0  0  0  0
   59.8420   34.2670   46.7620 O   0  0  0  0  0  0  0  0  0  0  0  0
   59.0030   33.3110   46.1700 C   0  0  0  0  0  0  0  0  0  0  0  0
   58.2290   33.6010   45.0340 C   0  0  0  0  0  0  0  0  0  0  0  0
   57.4140   32.6170   44.4660 C   0  0  0  0  0  0  0  0  0  0  0  0
   57.3600   31.3280   45.0220 C   0  0  0  0  0  0  0  0  0  0  0  0
   56.4900   30.2930   44.4150 C   0  0  0  0  0  0  0  0  0  0  0  0
   56.1800   30.3830   43.1980 O   0  0  0  0  0  0  0  0  0  0  0  0
   56.0210   29.1610   45.1600 N   0  0  0  0  0  0  0  0  0  0  0  0
   56.7730   27.9760   45.4610 C   0  0  0  0  0  0  0  0  0  0  0  0
   58.1610   27.9930   45.2600 C   0  0  0  0  0  0  0  0  0  0  0  0
   58.9300   26.8630   45.5470 C   0  0  0  0  0  0  0  0  0  0  0  0
   58.3190   25.7000   46.0190 C   0  0  0  0  0  0  0  0  0  0  0  0
   56.9330   25.6600   46.1920 C   0  0  0  0  0  0  0  0  0  0  0  0
   56.1540   26.7860   45.9020 C   0  0  0  0  0  0  0  0  0  0  0  0
   54.7720   26.7030   46.0290 O   0  0  0  0  0  0  0  0  0  0  0  0
   58.1660   31.0320   46.1360 C   0  0  0  0  0  0  0  0  0  0  0  0
   58.9810   32.0170   46.7010 C   0  0  0  0  0  0  0  0  0  0  0  0
   61.3740   34.0370   48.6100 C   0  0  0  0  0  0  0  0  0  0  0  0
   61.3340   32.9020   52.1790 H   0  0  0  0  0  0  0  0  0  0  0  0
   64.7377   33.4173   48.6278 H   0  0  0  0  0  0  0  0  0  0  0  0
   64.3479   33.4429   46.1636 H   0  0  0  0  0  0  0  0  0  0  0  0
   62.0565   33.8518   45.2619 H   0  0  0  0  0  0  0  0  0  0  0  0
   58.2643   34.6065   44.5894 H   0  0  0  0  0  0  0  0  0  0  0  0
   56.8107   32.8539   43.5773 H   0  0  0  0  0  0  0  0  0  0  0  0
   58.6466   28.9014   44.8741 H   0  0  0  0  0  0  0  0  0  0  0  0
   60.0199   26.8895   45.4007 H   0  0  0  0  0  0  0  0  0  0  0  0
   58.9285   24.8152   46.2547 H   0  0  0  0  0  0  0  0  0  0  0  0
   56.4525   24.7404   46.5574 H   0  0  0  0  0  0  0  0  0  0  0  0
   58.1549   30.0192   46.5652 H   0  0  0  0  0  0  0  0  0  0  0  0
   59.6099   31.7728   47.5698 H   0  0  0  0  0  0  0  0  0  0  0  0
   60.5374   34.2126   49.3023 H   0  0  0  0  0  0  0  0  0  0  0  0
  1  2  1  0
  2  3  2  0
  2  4  2  0
  2  5  1  0
  5  6  2  0
  6  7  1  0
  7  8  2  0
  8  9  1  0
  9 10  1  0
 10 11  1  0
 11 12  2  0
 12 13  1  0
 13 14  2  0
 14 15  1  0
 15 16  2  0
 15 17  1  0
 17 18  1  0
 18 19  2  0
 19 20  1  0
 20 21  2  0
 21 22  1  0
 22 23  2  0
 23 24  1  0
 14 25  1  0
 25 26  2  0
  9 27  2  0
 27  5  1  0
 26 11  1  0
 23 18  1  0
  1 28  1  0
  6 29  1  0
  7 30  1  0
  8 31  1  0
 12 32  1  0
 13 33  1  0
 19 34  1  0
 20 35  1  0
 21 36  1  0
 22 37  1  0
 25 38  1  0
 26 39  1  0
 27 40  1  0
M  CHG  3   1  -1  17  -1  24  -1
M  END
>  <UniqueID>  (9) 
9

>  <SMILES>  (9) 
[NH-]S(=O)(=O)c1cccc(Oc2ccc(C(=O)[N-]c3ccccc3[O-])cc2)c1

>  <Energy>  (9) 
57.86664823166014

>  <Genealogy>  (9) 
[NH-]S(=O)(=O)c1cccc(Oc2ccc(C(=O)[N-]c3ccccc3[O-])cc2)c1 (protonated)
[NH-]S(=O)(=O)c1cccc(Oc2ccc(C(=O)[N-]c3ccccc3[O-])cc2)c1 (3D coordinates assigned)
[NH-]S(=O)(=O)c1cccc(Oc2ccc(C(=O)[N-]c3ccccc3[O-])cc2)c1 (optimized conformer: 57.86664823166014 kcal/mol)

>  <smiles>  (9) 
NS(=O)(=O)c1cccc(Oc2ccc(C(=O)Nc3ccccc3O)cc2)c1

>  <score_type>  (9) 
oracle

>  <origin>  (9) 
adg

>  <m_score__min__energy>  (9) 
-15.07

>  <m_primary>  (9) 
energy

$$$$
9:0
     RDKit          3D

 46 48  0  0  1  0  0  0  0  0999 V2000
   64.8540   36.2760   53.1670 C   0  0  0  0  0  0  0  0  0  0  0  0
   64.3830   34.9420   53.0970 O   0  0  0  0  0  0  0  0  0  0  0  0
   64.4170   34.3280   51.8490 C   0  0  0  0  0  0  0  0  0  0  0  0
   63.3870   34.5400   50.9920 C   0  0  0  0  0  0  0  0  0  0  0  0
   63.3380   33.9730   49.7390 C   0  0  0  0  0  0  0  0  0  0  0  0
   62.3890   34.1450   48.8970 N   0  0  0  0  0  0  0  0  0  0  0  0
   62.3300   33.2490   47.4550 S   0  0  0  0  0  0  0  0  0  0  0  0
   62.4990   31.7860   47.8890 O   0  0  0  0  0  0  0  0  0  0  0  0
   63.4860   33.4670   46.5250 O   0  0  0  0  0  0  0  0  0  0  0  0
   60.7800   33.2930   46.6490 C   0  0  0  0  0  0  0  0  0  0  0  0
   60.2560   34.4190   46.0630 C   0  0  0  0  0  0  0  0  0  0  0  0
   59.0140   34.4090   45.4340 C   0  0  0  0  0  0  0  0  0  0  0  0
   58.2550   33.2730   45.3730 C   0  0  0  0  0  0  0  0  0  0  0  0
   58.7640   32.1300   45.9560 C   0  0  0  0  0  0  0  0  0  0  0  0
   58.0150   30.9100   45.9230 N   0  0  0  0  0  0  0  0  0  0  0  0
   58.6990   29.7560   45.4720 C   0  0  0  0  0  0  0  0  0  0  0  0
   59.8960   29.8780   45.1380 O   0  0  0  0  0  0  0  0  0  0  0  0
   58.0720   28.4420   45.3820 C   0  0  0  0  0  0  0  0  0  0  0  0
   58.5590   27.4410   44.5660 C   0  0  0  0  0  0  0  0  0  0  0  0
   57.7260   26.3430   44.7300 C   0  0  0  0  0  0  0  0  0  0  0  0
   56.7600   26.7290   45.6470 C   0  0  0  0  0  0  0  0  0  0  0  0
   55.7120   25.8710   46.0820 N   0  0  0  0  0  0  0  0  0  0  0  0
   54.5500   25.9660   45.6690 O   0  0  0  0  0  0  0  0  0  0  0  0
   56.0120   24.8950   47.0030 O   0  0  0  0  0  0  0  0  0  0  0  0
   57.0210   27.9630   45.9850 O   0  0  0  0  0  0  0  0  0  0  0  0
   59.9810   32.1450   46.5700 C   0  0  0  0  0  0  0  0  0  0  0  0
   64.3760   33.1770   49.3810 N   0  0  0  0  0  0  0  0  0  0  0  0
   65.4150   32.9550   50.2270 C   0  0  0  0  0  0  0  0  0  0  0  0
   66.4490   32.1370   49.8160 O   0  0  0  0  0  0  0  0  0  0  0  0
   67.0500   31.2920   50.7670 C   0  0  0  0  0  0  0  0  0  0  0  0
   65.4250   33.5300   51.4490 N   0  0  0  0  0  0  0  0  0  0  0  0
   64.9589   36.5730   54.2209 H   0  0  0  0  0  0  0  0  0  0  0  0
   65.8314   36.3465   52.6672 H   0  0  0  0  0  0  0  0  0  0  0  0
   64.1375   36.9445   52.6672 H   0  0  0  0  0  0  0  0  0  0  0  0
   62.5590   35.1902   51.3109 H   0  0  0  0  0  0  0  0  0  0  0  0
   60.8336   35.3547   46.0914 H   0  0  0  0  0  0  0  0  0  0  0  0
   58.6351   35.3347   44.9763 H   0  0  0  0  0  0  0  0  0  0  0  0
   57.2733   33.2702   44.8767 H   0  0  0  0  0  0  0  0  0  0  0  0
   57.0130   30.8490   46.2100 H   0  0  0  0  0  0  0  0  0  0  0  0
   59.4400   27.5019   43.9102 H   0  0  0  0  0  0  0  0  0  0  0  0
   57.8142   25.3654   44.2335 H   0  0  0  0  0  0  0  0  0  0  0  0
   60.3522   31.2142   47.0236 H   0  0  0  0  0  0  0  0  0  0  0  0
   64.3960   32.7170   48.4400 H   0  0  0  0  0  0  0  0  0  0  0  0
   66.8003   31.6430   51.7792 H   0  0  0  0  0  0  0  0  0  0  0  0
   66.6779   30.2656   50.6327 H   0  0  0  0  0  0  0  0  0  0  0  0
   68.1417   31.3067   50.6327 H   0  0  0  0  0  0  0  0  0  0  0  0
  1  2  1  0
  2  3  1  0
  3  4  2  0
  4  5  1  0
  5  6  2  0
  6  7  1  0
  7  8  2  0
  7  9  2  0
  7 10  1  0
 10 11  2  0
 11 12  1  0
 12 13  2  0
 13 14  1  0
 14 15  1  0
 15 16  1  0
 16 17  2  0
 16 18  1  0
 18 19  2  0
 19 20  1  0
 20 21  2  0
 21 22  1  0
 22 23  2  0
 22 24  1  0
 21 25  1  0
 14 26  2  0
  5 27  1  0
 27 28  1  0
 28 29  1  0
 29 30  1  0
 28 31  2  0
 31  3  1  0
 26 10  1  0
 25 18  1  0
  1 32  1  0
  1 33  1  0
  1 34  1  0
  4 35  1  0
 11 36  1  0
 12 37  1  0
 13 38  1  0
 15 39  1  0
 19 40  1  0
 20 41  1  0
 26 42  1  0
 27 43  1  0
 30 44  1  0
 30 45  1  0
 30 46  1  0
M  CHG  2  22   1  24  -1
M  END
>  <smiles>  (10) 
COc1cc(=NS(=O)(=O)c2cccc(NC(=O)c3ccc([N+](=O)[O-])o3)c2)[nH]c(OC)n1

>  <score_type>  (10) 
oracle

>  <origin>  (10) 
adg

>  <m_score__min__energy>  (10) 
-9.6199999999999992

>  <m_primary>  (10) 
energy

$$$$
10:0
     RDKit          3D

 42 45  0  0  0  0  0  0  0  0999 V2000
   56.4370   29.8670   42.8350 O   0  0  0  0  0  0  0  0  0  0  0  0
   56.4100   29.9290   44.3370 S   0  0  0  0  0  0  0  0  0  0  0  0
   55.1440   29.2850   44.8300 O   0  0  0  0  0  0  0  0  0  0  0  0
   56.4350   31.5880   44.8370 N   0  0  0  0  0  0  0  0  0  0  0  0
   57.5890   32.2860   45.3250 C   0  0  0  0  0  0  0  0  0  0  0  0
   58.1360   33.3920   44.6490 C   0  0  0  0  0  0  0  0  0  0  0  0
   59.2600   34.0460   45.1630 C   0  0  0  0  0  0  0  0  0  0  0  0
   59.8410   33.6190   46.3630 C   0  0  0  0  0  0  0  0  0  0  0  0
   61.0280   34.2720   46.8370 N   0  0  0  0  0  0  0  0  0  0  0  0
   61.8940   33.8250   47.7090 C   0  0  0  0  0  0  0  0  0  0  0  0
   63.2120   33.4790   47.3420 C   0  0  0  0  0  0  0  0  0  0  0  0
   64.1000   32.9950   48.3040 C   0  0  0  0  0  0  0  0  0  0  0  0
   63.6990   32.8410   49.5900 N   0  0  0  0  0  0  0  0  0  0  0  0
   62.4380   33.1480   49.9900 C   0  0  0  0  0  0  0  0  0  0  0  0
   62.0740   32.9670   51.3300 C   0  0  0  0  0  0  0  0  0  0  0  0
   60.7780   33.2730   51.7500 C   0  0  0  0  0  0  0  0  0  0  0  0
   59.8410   33.7610   50.8380 C   0  0  0  0  0  0  0  0  0  0  0  0
   60.1920   33.9460   49.4980 C   0  0  0  0  0  0  0  0  0  0  0  0
   61.4960   33.6430   49.0550 C   0  0  0  0  0  0  0  0  0  0  0  0
   59.3200   32.4900   47.0160 C   0  0  0  0  0  0  0  0  0  0  0  0
   58.1970   31.8370   46.5030 C   0  0  0  0  0  0  0  0  0  0  0  0
   57.8250   29.0890   44.9660 C   0  0  0  0  0  0  0  0  0  0  0  0
   59.1100   29.4260   44.5150 C   0  0  0  0  0  0  0  0  0  0  0  0
   60.2280   28.7480   45.0140 C   0  0  0  0  0  0  0  0  0  0  0  0
   60.0670   27.7350   45.9650 C   0  0  0  0  0  0  0  0  0  0  0  0
   58.7880   27.3980   46.4180 C   0  0  0  0  0  0  0  0  0  0  0  0
   57.6680   28.0740   45.9220 C   0  0  0  0  0  0  0  0  0  0  0  0
   57.6778   33.7435   43.7128 H   0  0  0  0  0  0  0  0  0  0  0  0
   59.6903   34.9012   44.6212 H   0  0  0  0  0  0  0  0  0  0  0  0
   63.5395   33.5907   46.2978 H   0  0  0  0  0  0  0  0  0  0  0  0
   65.1302   32.7372   48.0174 H   0  0  0  0  0  0  0  0  0  0  0  0
   62.8096   32.5835   52.0523 H   0  0  0  0  0  0  0  0  0  0  0  0
   60.4946   33.1290   52.8031 H   0  0  0  0  0  0  0  0  0  0  0  0
   58.8219   34.0010   51.1754 H   0  0  0  0  0  0  0  0  0  0  0  0
   59.4473   34.3299   48.7852 H   0  0  0  0  0  0  0  0  0  0  0  0
   59.7980   32.1188   47.9345 H   0  0  0  0  0  0  0  0  0  0  0  0
   57.7869   30.9624   47.0292 H   0  0  0  0  0  0  0  0  0  0  0  0
   59.2389   30.2237   43.7686 H   0  0  0  0  0  0  0  0  0  0  0  0
   61.2347   29.0121   44.6579 H   0  0  0  0  0  0  0  0  0  0  0  0
   60.9468   27.2034   46.3565 H   0  0  0  0  0  0  0  0  0  0  0  0
   58.6621   26.6005   47.1651 H   0  0  0  0  0  0  0  0  0  0  0  0
   56.6628   27.8094   46.2820 H   0  0  0  0  0  0  0  0  0  0  0  0
  1  2  2  0
  2  3  2  0
  2  4  1  0
  4  5  1  0
  5  6  2  0
  6  7  1  0
  7  8  2  0
  8  9  1  0
  9 10  2  3
 10 11  1  0
 11 12  2  0
 12 13  1  0
 13 14  1  0
 14 15  2  0
 15 16  1  0
 16 17  2  0
 17 18  1  0
 18 19  2  0
  8 20  1  0
 20 21  2  0
  2 22  1  0
 22 23  2  0
 23 24  1  0
 24 25  2  0
 25 26  1  0
 26 27  2  0
 21  5  1  0
 27 22  1  0
 19 10  1  0
 19 14  1  0
  6 28  1  0
  7 29  1  0
 11 30  1  0
 12 31  1  0
 15 32  1  0
 16 33  1  0
 17 34  1  0
 18 35  1  0
 20 36  1  0
 21 37  1  0
 23 38  1  0
 24 39  1  0
 25 40  1  0
 26 41  1  0
 27 42  1  0
M  CHG  2   4  -1  13  -1
M  END
>  <UniqueID>  (11) 
10

>  <SMILES>  (11) 
O=S(=O)([N-]c1ccc(N=c2cc[n-]c3ccccc23)cc1)c1ccccc1

>  <Energy>  (11) 
64.68740393646988

>  <Genealogy>  (11) 
O=S(=O)([N-]c1ccc(N=c2cc[n-]c3ccccc23)cc1)c1ccccc1 (protonated)
O=S(=O)([N-]c1ccc(N=c2cc[n-]c3ccccc23)cc1)c1ccccc1 (3D coordinates assigned)
O=S(=O)([N-]c1ccc(N=c2cc[n-]c3ccccc23)cc1)c1ccccc1 (optimized conformer: 64.68740393646988 kcal/mol)

>  <smiles>  (11) 
O=S(=O)(Nc1ccc(N=c2cc[nH]c3ccccc23)cc1)c1ccccc1

>  <score_type>  (11) 
oracle

>  <origin>  (11) 
adg

>  <m_score__min__energy>  (11) 
-11.31

>  <m_primary>  (11) 
energy

$$$$
11:0
     RDKit          3D

 29 30  0  0  0  0  0  0  0  0999 V2000
   57.0393   29.1263   42.3785 H   0  0  0  0  0  0  0  0  0  0  0  0
   57.2650   28.9870   43.4460 C   0  0  0  0  0  0  0  0  0  0  0  0
   56.6830   29.9560   44.3990 C   0  0  0  0  0  0  0  0  0  0  0  0
   55.5360   29.7150   44.8620 O   0  0  0  0  0  0  0  0  0  0  0  0
   57.4100   31.1630   44.8600 C   0  0  0  0  0  0  0  0  0  0  0  0
   57.3970   32.3330   44.0810 C   0  0  0  0  0  0  0  0  0  0  0  0
   56.8354   32.3539   43.1354 H   0  0  0  0  0  0  0  0  0  0  0  0
   58.0940   33.4710   44.5010 C   0  0  0  0  0  0  0  0  0  0  0  0
   58.0890   34.3784   43.8793 H   0  0  0  0  0  0  0  0  0  0  0  0
   58.7960   33.4570   45.7080 C   0  0  0  0  0  0  0  0  0  0  0  0
   59.6750   34.8830   46.2310 Cl  0  0  0  0  0  0  0  0  0  0  0  0
   58.7940   32.3070   46.5030 C   0  0  0  0  0  0  0  0  0  0  0  0
   59.3400   32.2984   47.4579 H   0  0  0  0  0  0  0  0  0  0  0  0
   58.0990   31.1680   46.0860 C   0  0  0  0  0  0  0  0  0  0  0  0
   58.0910   30.2698   46.7210 H   0  0  0  0  0  0  0  0  0  0  0  0
   58.0480   27.9500   43.7840 C   0  0  0  0  0  0  0  0  0  0  0  0
   58.3100   27.2278   42.9968 H   0  0  0  0  0  0  0  0  0  0  0  0
   58.5810   27.7130   45.1390 C   0  0  0  0  0  0  0  0  0  0  0  0
   57.9480   26.9460   46.0970 C   0  0  0  0  0  0  0  0  0  0  0  0
   56.9900   26.4162   45.9898 H   0  0  0  0  0  0  0  0  0  0  0  0
   58.7560   26.9760   47.2160 C   0  0  0  0  0  0  0  0  0  0  0  0
   58.5588   26.4864   48.1811 H   0  0  0  0  0  0  0  0  0  0  0  0
   59.8590   27.7390   46.8900 C   0  0  0  0  0  0  0  0  0  0  0  0
   60.6958   27.9607   47.5687 H   0  0  0  0  0  0  0  0  0  0  0  0
   59.7600   28.1720   45.6190 N   0  0  0  0  0  0  0  0  0  0  0  0
   60.7740   28.9590   44.9200 C   0  0  0  0  0  0  0  0  0  0  0  0
   61.4202   29.4605   45.6554 H   0  0  0  0  0  0  0  0  0  0  0  0
   61.3832   28.2949   44.2892 H   0  0  0  0  0  0  0  0  0  0  0  0
   60.2818   29.7139   44.2892 H   0  0  0  0  0  0  0  0  0  0  0  0
  1  2  1  0
  2  3  1  0
  3  4  2  0
  3  5  1  0
  5  6  2  0
  6  7  1  0
  6  8  1  0
  8  9  1  0
  8 10  2  0
 10 11  1  0
 10 12  1  0
 12 13  1  0
 12 14  2  0
 14 15  1  0
  2 16  2  0
 16 17  1  0
 16 18  1  0
 18 19  2  0
 19 20  1  0
 19 21  1  0
 21 22  1  0
 21 23  2  0
 23 24  1  0
 23 25  1  0
 25 26  1  0
 26 27  1  0
 26 28  1  0
 26 29  1  0
 14  5  1  0
 25 18  1  0
M  END
>  <UniqueID>  (12) 
11

>  <SMILES>  (12) 
Cn1cccc1/C=C\C(=O)c1ccc(Cl)cc1

>  <Energy>  (12) 
64.85943340045418

>  <Genealogy>  (12) 
Cn1cccc1/C=C\C(=O)c1ccc(Cl)cc1 (cis-trans isomerization)
Cn1cccc1/C=C\C(=O)c1ccc(Cl)cc1 (3D coordinates assigned)
Cn1cccc1/C=C\C(=O)c1ccc(Cl)cc1 (optimized conformer: 64.85943340045418 kcal/mol)

>  <smiles>  (12) 
Cn1cccc1C=CC(=O)c1ccc(Cl)cc1

>  <score_type>  (12) 
oracle

>  <origin>  (12) 
adg

>  <m_score__min__energy>  (12) 
-6.75

>  <m_primary>  (12) 
energy

$$$$
12:0
     RDKit          3D

 48 50  0  0  0  0  0  0  0  0999 V2000
   55.1470   29.7160   43.1670 O   0  0  0  0  0  0  0  0  0  0  0  0
   55.9160   29.7370   44.1670 C   0  0  0  0  0  0  0  0  0  0  0  0
   55.7320   28.8030   45.2350 N   0  0  0  0  0  0  0  0  0  0  0  0
   56.6200   27.6680   45.4530 C   0  0  0  0  0  0  0  0  0  0  0  0
   58.0100   28.1670   45.7140 C   0  0  0  0  0  0  0  0  0  0  0  0
   58.3580   28.6660   46.9810 C   0  0  0  0  0  0  0  0  0  0  0  0
   59.6440   29.1640   47.2140 C   0  0  0  0  0  0  0  0  0  0  0  0
   60.5870   29.1770   46.1820 C   0  0  0  0  0  0  0  0  0  0  0  0
   60.2430   28.6980   44.9150 C   0  0  0  0  0  0  0  0  0  0  0  0
   58.9590   28.1990   44.6780 C   0  0  0  0  0  0  0  0  0  0  0  0
   57.0110   30.7160   44.2360 C   0  0  0  0  0  0  0  0  0  0  0  0
   57.6260   31.0240   43.1790 O   0  0  0  0  0  0  0  0  0  0  0  0
   57.4020   31.2850   45.4960 N   0  0  0  0  0  0  0  0  0  0  0  0
   58.2640   32.4290   45.6290 C   0  0  0  0  0  0  0  0  0  0  0  0
   57.8870   33.6450   45.0400 C   0  0  0  0  0  0  0  0  0  0  0  0
   58.7190   34.7640   45.1360 C   0  0  0  0  0  0  0  0  0  0  0  0
   59.9430   34.6740   45.8030 C   0  0  0  0  0  0  0  0  0  0  0  0
   60.3470   33.4580   46.3690 C   0  0  0  0  0  0  0  0  0  0  0  0
   61.9120   33.3300   47.1750 S   0  0  0  0  0  0  0  0  0  0  0  0
   62.3990   31.9100   47.0830 O   0  0  0  0  0  0  0  0  0  0  0  0
   62.9010   34.2010   46.4500 O   0  0  0  0  0  0  0  0  0  0  0  0
   61.8480   33.8100   48.8590 N   0  0  0  0  0  0  0  0  0  0  0  0
   60.4950   34.2280   49.2860 C   0  0  0  0  0  0  0  0  0  0  0  0
   59.7590   33.1450   50.0920 C   0  0  0  0  0  0  0  0  0  0  0  0
   60.1830   31.8620   49.6950 O   0  0  0  0  0  0  0  0  0  0  0  0
   61.5170   31.6490   50.1150 C   0  0  0  0  0  0  0  0  0  0  0  0
   62.4670   32.8160   49.7540 C   0  0  0  0  0  0  0  0  0  0  0  0
   59.5070   32.3380   46.2820 C   0  0  0  0  0  0  0  0  0  0  0  0
   56.2692   27.0885   46.3197 H   0  0  0  0  0  0  0  0  0  0  0  0
   56.6215   27.0254   44.5602 H   0  0  0  0  0  0  0  0  0  0  0  0
   57.6158   28.6649   47.7928 H   0  0  0  0  0  0  0  0  0  0  0  0
   59.9136   29.5457   48.2098 H   0  0  0  0  0  0  0  0  0  0  0  0
   61.5998   29.5643   46.3673 H   0  0  0  0  0  0  0  0  0  0  0  0
   60.9843   28.7137   44.1025 H   0  0  0  0  0  0  0  0  0  0  0  0
   58.6904   27.8301   43.6771 H   0  0  0  0  0  0  0  0  0  0  0  0
   57.1140   30.7900   46.3710 H   0  0  0  0  0  0  0  0  0  0  0  0
   56.9316   33.7183   44.4998 H   0  0  0  0  0  0  0  0  0  0  0  0
   58.4090   35.7182   44.6850 H   0  0  0  0  0  0  0  0  0  0  0  0
   60.5907   35.5594   45.8839 H   0  0  0  0  0  0  0  0  0  0  0  0
   60.5871   35.1285   49.9110 H   0  0  0  0  0  0  0  0  0  0  0  0
   59.9066   34.4185   48.3763 H   0  0  0  0  0  0  0  0  0  0  0  0
   59.9729   33.2820   51.1623 H   0  0  0  0  0  0  0  0  0  0  0  0
   58.6785   33.2360   49.9069 H   0  0  0  0  0  0  0  0  0  0  0  0
   61.5225   31.5197   51.2074 H   0  0  0  0  0  0  0  0  0  0  0  0
   61.8849   30.7554   49.5895 H   0  0  0  0  0  0  0  0  0  0  0  0
   62.7691   33.3216   50.6830 H   0  0  0  0  0  0  0  0  0  0  0  0
   63.3274   32.3854   49.2207 H   0  0  0  0  0  0  0  0  0  0  0  0
   59.8220   31.3826   46.7270 H   0  0  0  0  0  0  0  0  0  0  0  0
  1  2  2  0
  2  3  1  0
  3  4  1  0
  4  5  1  0
  5  6  2  0
  6  7  1  0
  7  8  2  0
  8  9  1  0
  9 10  2  0
  2 11  1  0
 11 12  2  0
 11 13  1  0
 13 14  1  0
 14 15  2  0
 15 16  1  0
 16 17  2  0
 17 18  1  0
 18 19  1  0
 19 20  2  0
 19 21  2  0
 19 22  1  0
 22 23  1  0
 23 24  1  0
 24 25  1  0
 25 26  1  0
 26 27  1  0
 18 28  2  0
 10  5  1  0
 28 14  1  0
 27 22  1  0
  4 29  1  0
  4 30  1  0
  6 31  1  0
  7 32  1  0
  8 33  1  0
  9 34  1  0
 10 35  1  0
 13 36  1  0
 15 37  1  0
 16 38  1  0
 17 39  1  0
 23 40  1  0
 23 41  1  0
 24 42  1  0
 24 43  1  0
 26 44  1  0
 26 45  1  0
 27 46  1  0
 27 47  1  0
 28 48  1  0
M  CHG  1   3  -1
M  END
>  <UniqueID>  (13) 
12

>  <SMILES>  (13) 
O=C([N-]Cc1ccccc1)C(=O)Nc1cccc(S(=O)(=O)N2CCOCC2)c1

>  <Energy>  (13) 
59.2946507898422

>  <Genealogy>  (13) 
O=C([N-]Cc1ccccc1)C(=O)Nc1cccc(S(=O)(=O)N2CCOCC2)c1 (protonated)
O=C([N-]Cc1ccccc1)C(=O)Nc1cccc(S(=O)(=O)N2CCOCC2)c1 (3D coordinates assigned)
O=C([N-]Cc1ccccc1)C(=O)Nc1cccc(S(=O)(=O)N2CCOCC2)c1 (nonaromatic ring conformer: 59.2946507898422 kcal/mol)

>  <smiles>  (13) 
O=C(NCc1ccccc1)C(=O)Nc1cccc(S(=O)(=O)N2CCOCC2)c1

>  <score_type>  (13) 
oracle

>  <origin>  (13) 
adg

>  <m_score__min__energy>  (13) 
-11.06

>  <m_primary>  (13) 
energy

$$$$
13:0
     RDKit          3D

 43 46  0  0  1  0  0  0  0  0999 V2000
   55.7500   26.8190   45.6560 O   0  0  0  0  0  0  0  0  0  0  0  0
   57.0960   27.0950   45.5250 C   0  0  0  0  0  0  0  0  0  0  0  0
   57.3420   28.5600   45.6930 C   0  0  1  0  0  0  0  0  0  0  0  0
   58.6770   28.9270   45.6120 O   0  0  0  0  0  0  0  0  0  0  0  0
   58.7550   30.2190   45.1190 C   0  0  2  0  0  0  0  0  0  0  0  0
   59.3670   31.1170   46.0760 N   0  0  0  0  0  0  0  0  0  0  0  0
   60.0290   30.7070   47.1630 C   0  0  0  0  0  0  0  0  0  0  0  0
   60.4710   31.8060   47.8360 N   0  0  0  0  0  0  0  0  0  0  0  0
   60.0580   32.8760   47.1310 C   0  0  0  0  0  0  0  0  0  0  0  0
   60.2110   34.2330   47.3300 C   0  0  0  0  0  0  0  0  0  0  0  0
   60.8590   34.6210   48.3640 N   0  0  0  0  0  0  0  0  0  0  0  0
   62.1430   34.1300   48.7410 C   0  0  0  0  0  0  0  0  0  0  0  0
   63.0550   33.6260   47.8510 C   0  0  0  0  0  0  0  0  0  0  0  0
   64.2860   33.1690   48.3160 C   0  0  0  0  0  0  0  0  0  0  0  0
   64.6220   33.2060   49.6430 C   0  0  0  0  0  0  0  0  0  0  0  0
   65.8420   32.7590   50.1450 O   0  0  0  0  0  0  0  0  0  0  0  0
   63.7050   33.7160   50.5540 C   0  0  0  0  0  0  0  0  0  0  0  0
   62.4790   34.1700   50.0890 C   0  0  0  0  0  0  0  0  0  0  0  0
   59.7130   35.1610   46.4920 N   0  0  0  0  0  0  0  0  0  0  0  0
   59.0380   34.7040   45.4170 C   0  0  0  0  0  0  0  0  0  0  0  0
   58.8630   33.3770   45.1830 N   0  0  0  0  0  0  0  0  0  0  0  0
   59.3610   32.4510   46.0190 C   0  0  0  0  0  0  0  0  0  0  0  0
   57.3590   30.7020   44.8250 C   0  0  1  0  0  0  0  0  0  0  0  0
   57.2620   31.4750   43.6850 O   0  0  0  0  0  0  0  0  0  0  0  0
   56.5930   29.3990   44.7000 C   0  0  2  0  0  0  0  0  0  0  0  0
   55.2730   29.6170   45.0700 O   0  0  0  0  0  0  0  0  0  0  0  0
   55.1380   27.4680   45.2630 H   0  0  0  0  0  0  0  0  0  0  0  0
   57.6566   26.5421   46.2931 H   0  0  0  0  0  0  0  0  0  0  0  0
   57.4292   26.7880   44.5226 H   0  0  0  0  0  0  0  0  0  0  0  0
   56.9761   28.7512   46.7126 H   0  0  0  0  0  0  0  0  0  0  0  0
   59.3749   30.2101   44.2103 H   0  0  0  0  0  0  0  0  0  0  0  0
   60.1894   29.6608   47.4627 H   0  0  0  0  0  0  0  0  0  0  0  0
   62.8169   33.5827   46.7780 H   0  0  0  0  0  0  0  0  0  0  0  0
   65.0114   32.7655   47.5942 H   0  0  0  0  0  0  0  0  0  0  0  0
   66.5070   32.3670   49.4770 H   0  0  0  0  0  0  0  0  0  0  0  0
   63.9470   33.7591   51.6262 H   0  0  0  0  0  0  0  0  0  0  0  0
   61.7515   34.5735   50.8086 H   0  0  0  0  0  0  0  0  0  0  0  0
   59.8560   36.1780   46.6870 H   0  0  0  0  0  0  0  0  0  0  0  0
   58.6153   35.4296   44.7065 H   0  0  0  0  0  0  0  0  0  0  0  0
   56.9754   31.3786   45.6029 H   0  0  0  0  0  0  0  0  0  0  0  0
   58.0250   32.0950   43.6800 H   0  0  0  0  0  0  0  0  0  0  0  0
   56.5402   28.9464   43.6988 H   0  0  0  0  0  0  0  0  0  0  0  0
   54.8650   28.7550   45.2660 H   0  0  0  0  0  0  0  0  0  0  0  0
  1  2  1  0
  2  3  1  0
  3  4  1  0
  4  5  1  0
  5  6  1  0
  6  7  1  0
  7  8  2  0
  8  9  1  0
  9 10  1  0
 10 11  2  0
 11 12  1  0
 12 13  2  0
 13 14  1  0
 14 15  2  0
 15 16  1  0
 15 17  1  0
 17 18  2  0
 10 19  1  0
 19 20  1  0
 20 21  2  0
 21 22  1  0
  5 23  1  0
 23 24  1  0
 23 25  1  0
 25 26  1  0
 25  3  1  0
 22  6  1  0
 22  9  2  0
 18 12  1  0
  1 27  1  0
  2 28  1  0
  2 29  1  0
  3 30  1  1
  5 31  1  6
  7 32  1  0
 13 33  1  0
 14 34  1  0
 16 35  1  0
 17 36  1  0
 18 37  1  0
 19 38  1  0
 20 39  1  0
 23 40  1  1
 24 41  1  0
 25 42  1  6
 26 43  1  0
M  END
>  <smiles>  (14) 
OCC1OC(n2cnc3c(=Nc4ccc(O)cc4)[nH]cnc32)C(O)C1O

>  <score_type>  (14) 
oracle

>  <origin>  (14) 
adg

>  <m_score__min__energy>  (14) 
-8.7899999999999991

>  <m_primary>  (14) 
energy

$$$$
14:0
     RDKit          3D

 69 71  0  0  0  0  0  0  0  0999 V2000
   64.5790   32.4390   49.7000 C   0  0  0  0  0  0  0  0  0  0  0  0
   63.1250   31.9770   49.5220 C   0  0  0  0  0  0  0  0  0  0  0  0
   62.5610   32.2410   48.1740 N   0  0  0  0  0  0  0  0  0  0  0  0
   63.5900   32.4750   47.1320 C   0  0  0  0  0  0  0  0  0  0  0  0
   63.3720   33.8200   46.4410 C   0  0  0  0  0  0  0  0  0  0  0  0
   61.5670   31.2260   47.7600 C   0  0  0  0  0  0  0  0  0  0  0  0
   60.5890   30.9600   48.9090 C   0  0  0  0  0  0  0  0  0  0  0  0
   59.1690   30.6680   48.4020 C   0  0  0  0  0  0  0  0  0  0  0  0
   59.2190   29.7750   47.2330 N   0  0  0  0  0  0  0  0  0  0  0  0
   59.3020   30.3490   45.8790 C   0  0  0  0  0  0  0  0  0  0  0  0
   58.7520   29.3950   44.8420 C   0  0  0  0  0  0  0  0  0  0  0  0
   59.4660   28.2190   44.5430 C   0  0  0  0  0  0  0  0  0  0  0  0
   58.9720   27.3070   43.6080 C   0  0  0  0  0  0  0  0  0  0  0  0
   57.7640   27.5570   42.9580 C   0  0  0  0  0  0  0  0  0  0  0  0
   57.0420   28.7170   43.2430 C   0  0  0  0  0  0  0  0  0  0  0  0
   57.5210   29.6380   44.1850 C   0  0  0  0  0  0  0  0  0  0  0  0
   56.7040   30.8190   44.4900 C   0  0  0  0  0  0  0  0  0  0  0  0
   55.4910   30.6750   44.8000 O   0  0  0  0  0  0  0  0  0  0  0  0
   57.2860   32.1230   44.4120 N   0  0  0  0  0  0  0  0  0  0  0  0
   56.9210   33.2180   45.3030 C   0  0  0  0  0  0  0  0  0  0  0  0
   58.1170   33.6620   46.1010 C   0  0  0  0  0  0  0  0  0  0  0  0
   59.2100   34.2640   45.4560 C   0  0  0  0  0  0  0  0  0  0  0  0
   60.3060   34.7140   46.1990 C   0  0  0  0  0  0  0  0  0  0  0  0
   60.3180   34.5660   47.5890 C   0  0  0  0  0  0  0  0  0  0  0  0
   59.2350   33.9700   48.2370 C   0  0  0  0  0  0  0  0  0  0  0  0
   58.1350   33.5190   47.5000 C   0  0  0  0  0  0  0  0  0  0  0  0
   59.1110   28.3480   47.4260 C   0  0  0  0  0  0  0  0  0  0  0  0
   60.1410   27.6530   47.6500 O   0  0  0  0  0  0  0  0  0  0  0  0
   57.8250   27.7180   47.3710 N   0  0  0  0  0  0  0  0  0  0  0  0
   57.5010   26.5170   46.6570 C   0  0  0  0  0  0  0  0  0  0  0  0
   58.4550   25.5060   46.4290 C   0  0  0  0  0  0  0  0  0  0  0  0
   58.0790   24.3170   45.7970 C   0  0  0  0  0  0  0  0  0  0  0  0
   56.7530   24.1210   45.4020 C   0  0  0  0  0  0  0  0  0  0  0  0
   55.8010   25.1150   45.6350 C   0  0  0  0  0  0  0  0  0  0  0  0
   56.1730   26.3090   46.2630 C   0  0  0  0  0  0  0  0  0  0  0  0
   64.8116   32.5129   50.7726 H   0  0  0  0  0  0  0  0  0  0  0  0
   65.2554   31.7115   49.2274 H   0  0  0  0  0  0  0  0  0  0  0  0
   64.7114   33.4235   49.2274 H   0  0  0  0  0  0  0  0  0  0  0  0
   63.0826   30.8935   49.7071 H   0  0  0  0  0  0  0  0  0  0  0  0
   62.5206   32.5564   50.2355 H   0  0  0  0  0  0  0  0  0  0  0  0
   64.5850   32.4684   47.6009 H   0  0  0  0  0  0  0  0  0  0  0  0
   63.5142   31.6771   46.3786 H   0  0  0  0  0  0  0  0  0  0  0  0
   63.2446   34.6058   47.2001 H   0  0  0  0  0  0  0  0  0  0  0  0
   64.2438   34.0550   45.8127 H   0  0  0  0  0  0  0  0  0  0  0  0
   62.4706   33.7676   45.8127 H   0  0  0  0  0  0  0  0  0  0  0  0
   61.0113   31.5944   46.8851 H   0  0  0  0  0  0  0  0  0  0  0  0
   62.0872   30.2918   47.5016 H   0  0  0  0  0  0  0  0  0  0  0  0
   60.9454   30.0932   49.4849 H   0  0  0  0  0  0  0  0  0  0  0  0
   60.5466   31.8640   49.5343 H   0  0  0  0  0  0  0  0  0  0  0  0
   58.5895   30.1856   49.2029 H   0  0  0  0  0  0  0  0  0  0  0  0
   58.6910   31.6146   48.1097 H   0  0  0  0  0  0  0  0  0  0  0  0
   58.7218   31.2831   45.8498 H   0  0  0  0  0  0  0  0  0  0  0  0
   60.3603   30.5402   45.6477 H   0  0  0  0  0  0  0  0  0  0  0  0
   60.4210   28.0169   45.0501 H   0  0  0  0  0  0  0  0  0  0  0  0
   59.5367   26.3900   43.3839 H   0  0  0  0  0  0  0  0  0  0  0  0
   57.3793   26.8386   42.2192 H   0  0  0  0  0  0  0  0  0  0  0  0
   56.0909   28.9097   42.7250 H   0  0  0  0  0  0  0  0  0  0  0  0
   56.5490   34.0634   44.7056 H   0  0  0  0  0  0  0  0  0  0  0  0
   56.1381   32.8717   45.9938 H   0  0  0  0  0  0  0  0  0  0  0  0
   59.2038   34.3819   44.3624 H   0  0  0  0  0  0  0  0  0  0  0  0
   61.1594   35.1849   45.6892 H   0  0  0  0  0  0  0  0  0  0  0  0
   61.1812   34.9193   48.1722 H   0  0  0  0  0  0  0  0  0  0  0  0
   59.2465   33.8546   49.3309 H   0  0  0  0  0  0  0  0  0  0  0  0
   57.2828   33.0518   48.0154 H   0  0  0  0  0  0  0  0  0  0  0  0
   59.4973   25.6522   46.7487 H   0  0  0  0  0  0  0  0  0  0  0  0
   58.8287   23.5340   45.6102 H   0  0  0  0  0  0  0  0  0  0  0  0
   56.4594   23.1834   44.9074 H   0  0  0  0  0  0  0  0  0  0  0  0
   54.7572   24.9596   45.3246 H   0  0  0  0  0  0  0  0  0  0  0  0
   55.4188   27.0880   46.4481 H   0  0  0  0  0  0  0  0  0  0  0  0
  1  2  1  0
  2  3  1  0
  3  4  1  0
  4  5  1  0
  3  6  1  0
  6  7  1  0
  7  8  1  0
  8  9  1  0
  9 10  1  0
 10 11  1  0
 11 12  2  0
 12 13  1  0
 13 14  2  0
 14 15  1  0
 15 16  2  0
 16 17  1  0
 17 18  2  0
 17 19  1  0
 19 20  1  0
 20 21  1  0
 21 22  2  0
 22 23  1  0
 23 24  2  0
 24 25  1  0
 25 26  2  0
  9 27  1  0
 27 28  2  0
 27 29  1  0
 29 30  1  0
 30 31  2  0
 31 32  1  0
 32 33  2  0
 33 34  1  0
 34 35  2  0
 16 11  1  0
 26 21  1  0
 35 30  1  0
  1 36  1  0
  1 37  1  0
  1 38  1  0
  2 39  1  0
  2 40  1  0
  4 41  1  0
  4 42  1  0
  5 43  1  0
  5 44  1  0
  5 45  1  0
  6 46  1  0
  6 47  1  0
  7 48  1  0
  7 49  1  0
  8 50  1  0
  8 51  1  0
 10 52  1  0
 10 53  1  0
 12 54  1  0
 13 55  1  0
 14 56  1  0
 15 57  1  0
 20 58  1  0
 20 59  1  0
 22 60  1  0
 23 61  1  0
 24 62  1  0
 25 63  1  0
 26 64  1  0
 31 65  1  0
 32 66  1  0
 33 67  1  0
 34 68  1  0
 35 69  1  0
M  CHG  2  19  -1  29  -1
M  END
>  <UniqueID>  (15) 
13

>  <SMILES>  (15) 
CCN(CC)CCCN(Cc1ccccc1C(=O)[N-]Cc1ccccc1)C(=O)[N-]c1ccccc1

>  <Energy>  (15) 
74.32310360870935

>  <Genealogy>  (15) 
CCN(CC)CCCN(Cc1ccccc1C(=O)[N-]Cc1ccccc1)C(=O)[N-]c1ccccc1 (protonated)
CCN(CC)CCCN(Cc1ccccc1C(=O)[N-]Cc1ccccc1)C(=O)[N-]c1ccccc1 (3D coordinates assigned)
CCN(CC)CCCN(Cc1ccccc1C(=O)[N-]Cc1ccccc1)C(=O)[N-]c1ccccc1 (optimized conformer: 74.32310360870935 kcal/mol)

>  <smiles>  (15) 
CCN(CC)CCCN(Cc1ccccc1C(=O)NCc1ccccc1)C(=O)Nc1ccccc1

>  <score_type>  (15) 
oracle

>  <origin>  (15) 
adg

>  <m_score__min__energy>  (15) 
-11.31

>  <m_primary>  (15) 
energy

$$$$
15:0
     RDKit          3D

 40 41  0  0  0  0  0  0  0  0999 V2000
   59.3487   35.2381   44.2041 H   0  0  0  0  0  0  0  0  0  0  0  0
   58.8810   34.3540   44.6620 C   0  0  0  0  0  0  0  0  0  0  0  0
   58.1450   33.0830   43.8360 S   0  0  0  0  0  0  0  0  0  0  0  0
   57.7760   32.2410   45.2390 C   0  0  0  0  0  0  0  0  0  0  0  0
   57.1350   31.1090   45.2460 N   0  0  0  0  0  0  0  0  0  0  0  0
   57.7200   29.8000   45.1640 C   0  0  0  0  0  0  0  0  0  0  0  0
   59.1060   29.6310   45.0040 C   0  0  0  0  0  0  0  0  0  0  0  0
   59.7663   30.5104   44.9794 H   0  0  0  0  0  0  0  0  0  0  0  0
   59.6480   28.3490   44.8760 C   0  0  0  0  0  0  0  0  0  0  0  0
   60.7354   28.2204   44.7712 H   0  0  0  0  0  0  0  0  0  0  0  0
   58.8100   27.2300   44.8810 C   0  0  0  0  0  0  0  0  0  0  0  0
   59.2385   26.2211   44.7889 H   0  0  0  0  0  0  0  0  0  0  0  0
   57.4280   27.3940   45.0030 C   0  0  0  0  0  0  0  0  0  0  0  0
   56.7683   26.5138   44.9977 H   0  0  0  0  0  0  0  0  0  0  0  0
   56.8810   28.6760   45.1320 C   0  0  0  0  0  0  0  0  0  0  0  0
   55.5370   28.8230   45.2400 F   0  0  0  0  0  0  0  0  0  0  0  0
   58.1810   32.9130   46.3440 N   0  0  0  0  0  0  0  0  0  0  0  0
   58.0210   32.6050   47.3280 H   0  0  0  0  0  0  0  0  0  0  0  0
   58.7930   34.0880   46.0280 C   0  0  0  0  0  0  0  0  0  0  0  0
   59.3720   34.9900   47.0760 C   0  0  0  0  0  0  0  0  0  0  0  0
   58.6684   35.8112   47.2777 H   0  0  0  0  0  0  0  0  0  0  0  0
   60.3279   35.3952   46.7125 H   0  0  0  0  0  0  0  0  0  0  0  0
   59.6220   34.2020   48.3780 C   0  0  0  0  0  0  0  0  0  0  0  0
   58.6855   34.1764   48.9545 H   0  0  0  0  0  0  0  0  0  0  0  0
   60.4306   34.7172   48.9172 H   0  0  0  0  0  0  0  0  0  0  0  0
   60.0700   32.8090   48.1500 N   0  0  0  0  0  0  0  0  0  0  0  0
   59.3730   31.8350   49.0190 C   0  0  0  0  0  0  0  0  0  0  0  0
   58.3478   32.1874   49.2055 H   0  0  0  0  0  0  0  0  0  0  0  0
   59.9266   31.7482   49.9656 H   0  0  0  0  0  0  0  0  0  0  0  0
   59.3170   30.4610   48.3580 C   0  0  0  0  0  0  0  0  0  0  0  0
   59.2852   29.6819   49.1339 H   0  0  0  0  0  0  0  0  0  0  0  0
   58.4153   30.3918   47.7318 H   0  0  0  0  0  0  0  0  0  0  0  0
   60.2101   30.3187   47.7318 H   0  0  0  0  0  0  0  0  0  0  0  0
   61.5450   32.6660   48.1660 C   0  0  0  0  0  0  0  0  0  0  0  0
   61.9507   33.1502   49.0666 H   0  0  0  0  0  0  0  0  0  0  0  0
   61.8101   31.5984   48.1730 H   0  0  0  0  0  0  0  0  0  0  0  0
   62.1320   33.3270   46.9260 C   0  0  0  0  0  0  0  0  0  0  0  0
   62.8341   34.1176   47.2295 H   0  0  0  0  0  0  0  0  0  0  0  0
   62.6645   32.5741   46.3264 H   0  0  0  0  0  0  0  0  0  0  0  0
   61.3214   33.7668   46.3264 H   0  0  0  0  0  0  0  0  0  0  0  0
  1  2  1  0
  2  3  1  0
  3  4  1  0
  4  5  2  0
  5  6  1  0
  6  7  2  0
  7  8  1  0
  7  9  1  0
  9 10  1  0
  9 11  2  0
 11 12  1  0
 11 13  1  0
 13 14  1  0
 13 15  2  0
 15 16  1  0
  4 17  1  0
 17 18  1  0
 17 19  1  0
 19 20  1  0
 20 21  1  0
 20 22  1  0
 20 23  1  0
 23 24  1  0
 23 25  1  0
 23 26  1  0
 26 27  1  0
 27 28  1  0
 27 29  1  0
 27 30  1  0
 30 31  1  0
 30 32  1  0
 30 33  1  0
 26 34  1  0
 34 35  1  0
 34 36  1  0
 34 37  1  0
 37 38  1  0
 37 39  1  0
 37 40  1  0
 19  2  2  0
 15  6  1  0
M  END
>  <UniqueID>  (16) 
14

>  <SMILES>  (16) 
CCN(CC)CCc1cs/c(=N/c2ccccc2F)[nH]1

>  <Energy>  (16) 
75.13552470685119

>  <Genealogy>  (16) 
CCN(CC)CCc1cs/c(=N/c2ccccc2F)[nH]1 (cis-trans isomerization)
CCN(CC)CCc1cs/c(=N/c2ccccc2F)[nH]1 (3D coordinates assigned)
CCN(CC)CCc1cs/c(=N/c2ccccc2F)[nH]1 (optimized conformer: 75.13552470685119 kcal/mol)

>  <smiles>  (16) 
CCN(CC)CCc1csc(=Nc2ccccc2F)[nH]1

>  <score_type>  (16) 
oracle

>  <origin>  (16) 
adg

>  <m_score__min__energy>  (16) 
-6.3700000000000001

>  <m_primary>  (16) 
energy

$$$$
16:0
     RDKit          3D

 50 52  0  0  0  0  0  0  0  0999 V2000
   60.5910   29.3310   49.7670 C   0  0  0  0  0  0  0  0  0  0  0  0
   59.2020   29.0060   49.2250 C   0  0  0  0  0  0  0  0  0  0  0  0
   58.2440   29.9600   49.6830 O   0  0  0  0  0  0  0  0  0  0  0  0
   58.5350   31.1840   50.3110 C   0  0  0  0  0  0  0  0  0  0  0  0
   58.3220   31.3950   51.6880 C   0  0  0  0  0  0  0  0  0  0  0  0
   58.6250   32.6290   52.2690 C   0  0  0  0  0  0  0  0  0  0  0  0
   59.1510   33.6600   51.4900 C   0  0  0  0  0  0  0  0  0  0  0  0
   59.3710   33.4640   50.1260 C   0  0  0  0  0  0  0  0  0  0  0  0
   59.0570   32.2310   49.5260 C   0  0  0  0  0  0  0  0  0  0  0  0
   59.2970   32.0180   48.1260 N   0  0  0  0  0  0  0  0  0  0  0  0
   59.0950   33.0300   47.1260 C   0  0  0  0  0  0  0  0  0  0  0  0
   58.8170   34.2140   47.4590 O   0  0  0  0  0  0  0  0  0  0  0  0
   59.1560   32.6750   45.6700 C   0  0  0  0  0  0  0  0  0  0  0  0
   58.1530   31.5910   45.3480 C   0  0  0  0  0  0  0  0  0  0  0  0
   56.9230   31.9780   44.9360 N   0  0  0  0  0  0  0  0  0  0  0  0
   55.9720   31.0920   44.6700 N   0  0  0  0  0  0  0  0  0  0  0  0
   56.1830   29.7630   44.8120 C   0  0  0  0  0  0  0  0  0  0  0  0
   55.2320   28.9790   44.5460 O   0  0  0  0  0  0  0  0  0  0  0  0
   57.4060   29.2880   45.2400 N   0  0  0  0  0  0  0  0  0  0  0  0
   57.5710   27.8140   45.4420 C   0  0  0  0  0  0  0  0  0  0  0  0
   58.8370   27.2450   44.7370 C   0  0  0  0  0  0  0  0  0  0  0  0
   59.6260   26.2710   45.6260 C   0  0  0  0  0  0  0  0  0  0  0  0
   58.6930   25.2510   46.2880 C   0  0  0  0  0  0  0  0  0  0  0  0
   57.5720   25.9020   47.1290 C   0  0  0  0  0  0  0  0  0  0  0  0
   57.4460   27.4230   46.9320 C   0  0  0  0  0  0  0  0  0  0  0  0
   58.4120   30.2090   45.5040 C   0  0  0  0  0  0  0  0  0  0  0  0
   59.9240   29.7410   45.9840 S   0  0  0  0  0  0  0  0  0  0  0  0
   60.5661   29.3252   50.8667 H   0  0  0  0  0  0  0  0  0  0  0  0
   61.3087   28.5765   49.4125 H   0  0  0  0  0  0  0  0  0  0  0  0
   60.8995   30.3256   49.4125 H   0  0  0  0  0  0  0  0  0  0  0  0
   59.2307   29.0229   48.1255 H   0  0  0  0  0  0  0  0  0  0  0  0
   58.9072   28.0092   49.5847 H   0  0  0  0  0  0  0  0  0  0  0  0
   57.9148   30.5835   52.3090 H   0  0  0  0  0  0  0  0  0  0  0  0
   58.4484   32.7880   53.3430 H   0  0  0  0  0  0  0  0  0  0  0  0
   59.3926   34.6288   51.9517 H   0  0  0  0  0  0  0  0  0  0  0  0
   59.7920   34.2776   49.5170 H   0  0  0  0  0  0  0  0  0  0  0  0
   59.4670   31.0380   47.8050 H   0  0  0  0  0  0  0  0  0  0  0  0
   58.9291   33.5683   45.0696 H   0  0  0  0  0  0  0  0  0  0  0  0
   60.1657   32.3072   45.4350 H   0  0  0  0  0  0  0  0  0  0  0  0
   56.7304   27.3192   44.9336 H   0  0  0  0  0  0  0  0  0  0  0  0
   58.5234   26.7141   43.8260 H   0  0  0  0  0  0  0  0  0  0  0  0
   59.4980   28.0937   44.5073 H   0  0  0  0  0  0  0  0  0  0  0  0
   60.3625   25.7365   45.0081 H   0  0  0  0  0  0  0  0  0  0  0  0
   60.1303   26.8478   46.4153 H   0  0  0  0  0  0  0  0  0  0  0  0
   58.2281   24.6404   45.4999 H   0  0  0  0  0  0  0  0  0  0  0  0
   59.3054   24.6473   46.9739 H   0  0  0  0  0  0  0  0  0  0  0  0
   56.6152   25.4365   46.8499 H   0  0  0  0  0  0  0  0  0  0  0  0
   57.8301   25.7378   48.1856 H   0  0  0  0  0  0  0  0  0  0  0  0
   56.4654   27.7518   47.3067 H   0  0  0  0  0  0  0  0  0  0  0  0
   58.2611   27.9113   47.4862 H   0  0  0  0  0  0  0  0  0  0  0  0
  1  2  1  0
  2  3  1  0
  3  4  1  0
  4  5  2  0
  5  6  1  0
  6  7  2  0
  7  8  1  0
  8  9  2  0
  9 10  1  0
 10 11  1  0
 11 12  2  0
 11 13  1  0
 13 14  1  0
 14 15  2  0
 15 16  1  0
 16 17  1  0
 17 18  2  0
 17 19  1  0
 19 20  1  0
 20 21  1  0
 21 22  1  0
 22 23  1  0
 23 24  1  0
 24 25  1  0
 19 26  1  0
 26 27  2  0
  9  4  1  0
 26 14  1  0
 25 20  1  0
  1 28  1  0
  1 29  1  0
  1 30  1  0
  2 31  1  0
  2 32  1  0
  5 33  1  0
  6 34  1  0
  7 35  1  0
  8 36  1  0
 10 37  1  0
 13 38  1  0
 13 39  1  0
 20 40  1  0
 21 41  1  0
 21 42  1  0
 22 43  1  0
 22 44  1  0
 23 45  1  0
 23 46  1  0
 24 47  1  0
 24 48  1  0
 25 49  1  0
 25 50  1  0
M  CHG  1  16  -1
M  END
>  <UniqueID>  (17) 
15

>  <SMILES>  (17) 
CCOc1ccccc1NC(=O)Cc1n[n-]c(=O)n(C2CCCCC2)c1=S

>  <Energy>  (17) 
68.91170888183501

>  <Genealogy>  (17) 
CCOc1ccccc1NC(=O)Cc1n[n-]c(=O)n(C2CCCCC2)c1=S (protonated)
CCOc1ccccc1NC(=O)Cc1n[n-]c(=O)n(C2CCCCC2)c1=S (3D coordinates assigned)
CCOc1ccccc1NC(=O)Cc1n[n-]c(=O)n(C2CCCCC2)c1=S (nonaromatic ring conformer: 68.91170888183501 kcal/mol)

>  <smiles>  (17) 
CCOc1ccccc1NC(=O)Cc1n[nH]c(=O)n(C2CCCCC2)c1=S

>  <score_type>  (17) 
oracle

>  <origin>  (17) 
adg

>  <m_score__min__energy>  (17) 
-9.8699999999999992

>  <m_primary>  (17) 
energy

$$$$
17:0
     RDKit          3D

 56 59  0  0  0  0  0  0  0  0999 V2000
   57.9270   25.4420   46.3920 O   0  0  0  0  0  0  0  0  0  0  0  0
   57.7500   25.4070   45.1430 C   0  0  0  0  0  0  0  0  0  0  0  0
   57.7890   26.6270   44.3840 N   0  0  0  0  0  0  0  0  0  0  0  0
   58.4570   27.8210   44.8270 C   0  0  0  0  0  0  0  0  0  0  0  0
   59.5890   27.7620   45.6590 C   0  0  0  0  0  0  0  0  0  0  0  0
   60.2340   28.9360   46.0580 C   0  0  0  0  0  0  0  0  0  0  0  0
   59.7660   30.1770   45.6210 C   0  0  0  0  0  0  0  0  0  0  0  0
   58.6520   30.2530   44.7720 C   0  0  0  0  0  0  0  0  0  0  0  0
   58.1420   31.5960   44.3170 C   0  0  0  0  0  0  0  0  0  0  0  0
   57.3000   32.2240   45.3620 N   0  0  0  0  0  0  0  0  0  0  0  0
   57.8460   32.0230   46.7270 C   0  0  0  0  0  0  0  0  0  0  0  0
   58.7450   33.1830   47.2030 C   0  0  0  0  0  0  0  0  0  0  0  0
   59.3290   33.8820   46.0450 N   0  0  0  0  0  0  0  0  0  0  0  0
   60.3550   34.8570   46.4620 C   0  0  0  0  0  0  0  0  0  0  0  0
   61.4110   34.1760   47.2920 C   0  0  0  0  0  0  0  0  0  0  0  0
   62.4600   33.4870   46.6620 C   0  0  0  0  0  0  0  0  0  0  0  0
   63.4330   32.8340   47.4260 C   0  0  0  0  0  0  0  0  0  0  0  0
   63.3630   32.8630   48.8220 C   0  0  0  0  0  0  0  0  0  0  0  0
   64.5840   32.0420   49.7790 Cl  0  0  0  0  0  0  0  0  0  0  0  0
   62.3190   33.5450   49.4560 C   0  0  0  0  0  0  0  0  0  0  0  0
   61.3450   34.1990   48.6950 C   0  0  0  0  0  0  0  0  0  0  0  0
   58.2690   34.5440   45.2560 C   0  0  0  0  0  0  0  0  0  0  0  0
   57.0180   33.6520   45.0980 C   0  0  0  0  0  0  0  0  0  0  0  0
   58.0050   29.0720   44.3760 C   0  0  0  0  0  0  0  0  0  0  0  0
   57.4560   24.1120   44.4830 C   0  0  0  0  0  0  0  0  0  0  0  0
   56.3700   24.0000   43.5930 C   0  0  0  0  0  0  0  0  0  0  0  0
   56.0850   22.7800   42.9730 C   0  0  0  0  0  0  0  0  0  0  0  0
   56.8720   21.6570   43.2380 C   0  0  0  0  0  0  0  0  0  0  0  0
   56.5900   20.4740   42.6390 F   0  0  0  0  0  0  0  0  0  0  0  0
   57.9460   21.7520   44.1270 C   0  0  0  0  0  0  0  0  0  0  0  0
   58.2360   22.9700   44.7500 C   0  0  0  0  0  0  0  0  0  0  0  0
   57.2100   26.6850   43.5170 H   0  0  0  0  0  0  0  0  0  0  0  0
   59.9689   26.7868   45.9976 H   0  0  0  0  0  0  0  0  0  0  0  0
   61.1125   28.8823   46.7179 H   0  0  0  0  0  0  0  0  0  0  0  0
   60.2728   31.0984   45.9438 H   0  0  0  0  0  0  0  0  0  0  0  0
   58.9982   32.2523   44.1019 H   0  0  0  0  0  0  0  0  0  0  0  0
   57.5314   31.4521   43.4134 H   0  0  0  0  0  0  0  0  0  0  0  0
   57.0044   31.9234   47.4283 H   0  0  0  0  0  0  0  0  0  0  0  0
   58.4709   31.1183   46.6974 H   0  0  0  0  0  0  0  0  0  0  0  0
   58.1428   33.8923   47.7898 H   0  0  0  0  0  0  0  0  0  0  0  0
   59.5569   32.7765   47.8239 H   0  0  0  0  0  0  0  0  0  0  0  0
   60.8224   35.2973   45.5689 H   0  0  0  0  0  0  0  0  0  0  0  0
   59.8784   35.6454   47.0631 H   0  0  0  0  0  0  0  0  0  0  0  0
   62.5168   33.4607   45.5638 H   0  0  0  0  0  0  0  0  0  0  0  0
   64.2539   32.2972   46.9280 H   0  0  0  0  0  0  0  0  0  0  0  0
   62.2642   33.5668   50.5544 H   0  0  0  0  0  0  0  0  0  0  0  0
   60.5246   34.7331   49.1966 H   0  0  0  0  0  0  0  0  0  0  0  0
   57.9784   35.4754   45.7639 H   0  0  0  0  0  0  0  0  0  0  0  0
   58.6703   34.7449   44.2517 H   0  0  0  0  0  0  0  0  0  0  0  0
   56.2487   33.9957   45.8052 H   0  0  0  0  0  0  0  0  0  0  0  0
   56.6779   33.7370   44.0553 H   0  0  0  0  0  0  0  0  0  0  0  0
   57.1348   29.1268   43.7054 H   0  0  0  0  0  0  0  0  0  0  0  0
   55.7419   24.8786   43.3844 H   0  0  0  0  0  0  0  0  0  0  0  0
   55.2386   22.7042   42.2745 H   0  0  0  0  0  0  0  0  0  0  0  0
   58.5645   20.8670   44.3372 H   0  0  0  0  0  0  0  0  0  0  0  0
   59.0791   23.0366   45.4534 H   0  0  0  0  0  0  0  0  0  0  0  0
  1  2  2  0
  2  3  1  0
  3  4  1  0
  4  5  2  0
  5  6  1  0
  6  7  2  0
  7  8  1  0
  8  9  1  0
  9 10  1  0
 10 11  1  0
 11 12  1  0
 12 13  1  0
 13 14  1  0
 14 15  1  0
 15 16  2  0
 16 17  1  0
 17 18  2  0
 18 19  1  0
 18 20  1  0
 20 21  2  0
 13 22  1  0
 22 23  1  0
  8 24  2  0
  2 25  1  0
 25 26  2  0
 26 27  1  0
 27 28  2  0
 28 29  1  0
 28 30  1  0
 30 31  2  0
 24  4  1  0
 31 25  1  0
 23 10  1  0
 21 15  1  0
  3 32  1  0
  5 33  1  0
  6 34  1  0
  7 35  1  0
  9 36  1  0
  9 37  1  0
 11 38  1  0
 11 39  1  0
 12 40  1  0
 12 41  1  0
 14 42  1  0
 14 43  1  0
 16 44  1  0
 17 45  1  0
 20 46  1  0
 21 47  1  0
 22 48  1  0
 22 49  1  0
 23 50  1  0
 23 51  1  0
 24 52  1  0
 26 53  1  0
 27 54  1  0
 30 55  1  0
 31 56  1  0
M  END
>  <UniqueID>  (18) 
16

>  <SMILES>  (18) 
O=C(Nc1cccc(CN2CCN(Cc3ccc(Cl)cc3)CC2)c1)c1ccc(F)cc1

>  <Energy>  (18) 
75.94429745888289

>  <Genealogy>  (18) 
O=C(Nc1cccc(CN2CCN(Cc3ccc(Cl)cc3)CC2)c1)c1ccc(F)cc1 (3D coordinates assigned)
O=C(Nc1cccc(CN2CCN(Cc3ccc(Cl)cc3)CC2)c1)c1ccc(F)cc1 (nonaromatic ring conformer: 75.94429745888289 kcal/mol)

>  <smiles>  (18) 
O=C(Nc1cccc(CN2CCN(Cc3ccc(Cl)cc3)CC2)c1)c1ccc(F)cc1

>  <score_type>  (18) 
oracle

>  <origin>  (18) 
adg

>  <m_score__min__energy>  (18) 
-9.9199999999999999

>  <m_primary>  (18) 
energy

$$$$
18:0
     RDKit          3D

 41 43  0  0  0  0  0  0  0  0999 V2000
   58.3656   21.7097   45.1151 H   0  0  0  0  0  0  0  0  0  0  0  0
   58.0600   22.7280   44.8330 C   0  0  0  0  0  0  0  0  0  0  0  0
   57.0270   22.9130   43.9060 C   0  0  0  0  0  0  0  0  0  0  0  0
   56.3580   21.7830   43.3160 N   0  0  0  0  0  0  0  0  0  0  0  0
   56.1940   20.7300   43.9660 O   0  0  0  0  0  0  0  0  0  0  0  0
   55.8890   21.8450   42.0240 O   0  0  0  0  0  0  0  0  0  0  0  0
   56.6610   24.2260   43.5700 C   0  0  0  0  0  0  0  0  0  0  0  0
   55.8512   24.3983   42.8458 H   0  0  0  0  0  0  0  0  0  0  0  0
   57.3000   25.2870   44.1330 N   0  0  0  0  0  0  0  0  0  0  0  0
   56.9990   26.2510   43.8570 H   0  0  0  0  0  0  0  0  0  0  0  0
   58.3110   25.1310   45.0340 C   0  0  0  0  0  0  0  0  0  0  0  0
   58.8770   26.1970   45.5320 N   0  0  0  0  0  0  0  0  0  0  0  0
   58.4880   26.9360   46.7350 C   0  0  0  0  0  0  0  0  0  0  0  0
   59.1436   27.8120   46.8483 H   0  0  0  0  0  0  0  0  0  0  0  0
   58.5857   26.2707   47.6055 H   0  0  0  0  0  0  0  0  0  0  0  0
   57.0370   27.4050   46.6360 C   0  0  0  0  0  0  0  0  0  0  0  0
   56.9063   28.3200   47.2324 H   0  0  0  0  0  0  0  0  0  0  0  0
   56.3712   26.6179   47.0196 H   0  0  0  0  0  0  0  0  0  0  0  0
   56.7080   27.6820   45.2440 N   0  0  0  0  0  0  0  0  0  0  0  0
   56.3710   28.9740   44.7240 C   0  0  0  0  0  0  0  0  0  0  0  0
   55.1930   29.3960   44.8720 O   0  0  0  0  0  0  0  0  0  0  0  0
   57.3800   29.8490   44.0300 C   0  0  0  0  0  0  0  0  0  0  0  0
   58.0264   29.2207   43.3997 H   0  0  0  0  0  0  0  0  0  0  0  0
   56.8393   30.5860   43.4181 H   0  0  0  0  0  0  0  0  0  0  0  0
   58.2100   30.5690   44.9960 N   0  0  0  0  0  0  0  0  0  0  0  0
   59.1380   30.0170   45.8160 C   0  0  0  0  0  0  0  0  0  0  0  0
   59.3914   28.9469   45.8434 H   0  0  0  0  0  0  0  0  0  0  0  0
   59.7250   30.9890   46.6170 C   0  0  0  0  0  0  0  0  0  0  0  0
   60.5131   30.8461   47.3710 H   0  0  0  0  0  0  0  0  0  0  0  0
   59.1090   32.1700   46.2650 C   0  0  0  0  0  0  0  0  0  0  0  0
   59.2910   33.4620   46.7560 C   0  0  0  0  0  0  0  0  0  0  0  0
   60.0326   33.6729   47.5406 H   0  0  0  0  0  0  0  0  0  0  0  0
   58.4940   34.4870   46.2140 C   0  0  0  0  0  0  0  0  0  0  0  0
   58.6131   35.5197   46.5738 H   0  0  0  0  0  0  0  0  0  0  0  0
   57.5420   34.1990   45.2110 C   0  0  0  0  0  0  0  0  0  0  0  0
   56.9222   35.0084   44.7978 H   0  0  0  0  0  0  0  0  0  0  0  0
   57.3810   32.8850   44.7370 C   0  0  0  0  0  0  0  0  0  0  0  0
   56.6398   32.6500   43.9589 H   0  0  0  0  0  0  0  0  0  0  0  0
   58.1920   31.8860   45.2850 C   0  0  0  0  0  0  0  0  0  0  0  0
   58.7040   23.8280   45.4010 C   0  0  0  0  0  0  0  0  0  0  0  0
   59.5135   23.6792   46.1308 H   0  0  0  0  0  0  0  0  0  0  0  0
  1  2  1  0
  2  3  1  0
  3  4  1  0
  4  5  2  0
  4  6  1  0
  3  7  2  0
  7  8  1  0
  7  9  1  0
  9 10  1  0
  9 11  1  0
 11 12  2  0
 12 13  1  0
 13 14  1  0
 13 15  1  0
 13 16  1  0
 16 17  1  0
 16 18  1  0
 16 19  1  0
 19 20  1  0
 20 21  2  0
 20 22  1  0
 22 23  1  0
 22 24  1  0
 22 25  1  0
 25 26  1  0
 26 27  1  0
 26 28  2  0
 28 29  1  0
 28 30  1  0
 30 31  2  0
 31 32  1  0
 31 33  1  0
 33 34  1  0
 33 35  2  0
 35 36  1  0
 35 37  1  0
 37 38  1  0
 37 39  2  0
 11 40  1  0
 40 41  1  0
 40  2  2  0
 39 25  1  0
 39 30  1  0
M  CHG  3   4   1   6  -1  19  -1
M  END
>  <UniqueID>  (19) 
17

>  <SMILES>  (19) 
O=C(Cn1ccc2ccccc21)[N-]CC/N=c1\ccc([N+](=O)[O-])c[nH]1

>  <Energy>  (19) 
74.82392139563127

>  <Genealogy>  (19) 
O=C(Cn1ccc2ccccc21)[N-]CCN=c1ccc([N+](=O)[O-])c[nH]1 (protonated)
O=C(Cn1ccc2ccccc21)[N-]CC/N=c1\ccc([N+](=O)[O-])c[nH]1 (cis-trans isomerization)
O=C(Cn1ccc2ccccc21)[N-]CC/N=c1\ccc([N+](=O)[O-])c[nH]1 (3D coordinates assigned)
O=C(Cn1ccc2ccccc21)[N-]CC/N=c1\ccc([N+](=O)[O-])c[nH]1 (optimized conformer: 74.82392139563127 kcal/mol)

>  <smiles>  (19) 
O=C(Cn1ccc2ccccc21)NCCN=c1ccc([N+](=O)[O-])c[nH]1

>  <score_type>  (19) 
oracle

>  <origin>  (19) 
adg

>  <m_score__min__energy>  (19) 
-9.9399999999999995

>  <m_primary>  (19) 
energy

$$$$
19:0
     RDKit          3D

 29 30  0  0  0  0  0  0  0  0999 V2000
   54.8020   26.3300   45.9820 N   0  0  0  0  0  0  0  0  0  0  0  0
   56.1340   25.2550   46.2280 S   0  0  0  0  0  0  0  0  0  0  0  0
   56.3440   24.4320   44.9890 O   0  0  0  0  0  0  0  0  0  0  0  0
   55.8300   24.3310   47.3750 O   0  0  0  0  0  0  0  0  0  0  0  0
   57.5840   26.1890   46.5840 C   0  0  0  0  0  0  0  0  0  0  0  0
   58.8000   25.5380   46.8240 C   0  0  0  0  0  0  0  0  0  0  0  0
   59.9510   26.2820   47.0920 C   0  0  0  0  0  0  0  0  0  0  0  0
   59.8970   27.6770   47.1170 C   0  0  0  0  0  0  0  0  0  0  0  0
   58.6850   28.3480   46.8700 C   0  0  0  0  0  0  0  0  0  0  0  0
   58.6260   29.8290   46.8870 C   0  0  0  0  0  0  0  0  0  0  0  0
   59.5980   30.4930   47.3410 O   0  0  0  0  0  0  0  0  0  0  0  0
   57.4870   30.5100   46.3460 N   0  0  0  0  0  0  0  0  0  0  0  0
   57.1740   30.6300   44.9510 C   0  0  0  0  0  0  0  0  0  0  0  0
   58.0210   31.3960   44.1390 C   0  0  0  0  0  0  0  0  0  0  0  0
   57.7590   31.5330   42.7730 C   0  0  0  0  0  0  0  0  0  0  0  0
   56.6580   30.8890   42.2040 C   0  0  0  0  0  0  0  0  0  0  0  0
   55.8260   30.0950   42.9980 C   0  0  0  0  0  0  0  0  0  0  0  0
   56.0860   29.9500   44.3660 C   0  0  0  0  0  0  0  0  0  0  0  0
   55.2810   29.1030   45.1190 O   0  0  0  0  0  0  0  0  0  0  0  0
   57.5300   27.5900   46.6000 C   0  0  0  0  0  0  0  0  0  0  0  0
   55.1340   27.0850   45.3410 H   0  0  0  0  0  0  0  0  0  0  0  0
   58.8488   24.4393   46.8014 H   0  0  0  0  0  0  0  0  0  0  0  0
   60.9038   25.7671   47.2841 H   0  0  0  0  0  0  0  0  0  0  0  0
   60.8079   28.2553   47.3312 H   0  0  0  0  0  0  0  0  0  0  0  0
   58.8980   31.8928   44.5796 H   0  0  0  0  0  0  0  0  0  0  0  0
   58.4204   32.1485   42.1456 H   0  0  0  0  0  0  0  0  0  0  0  0
   56.4458   31.0067   41.1311 H   0  0  0  0  0  0  0  0  0  0  0  0
   54.9639   29.5822   42.5466 H   0  0  0  0  0  0  0  0  0  0  0  0
   56.5768   28.1012   46.3998 H   0  0  0  0  0  0  0  0  0  0  0  0
  1  2  1  0
  2  3  2  0
  2  4  2  0
  2  5  1  0
  5  6  2  0
  6  7  1  0
  7  8  2  0
  8  9  1  0
  9 10  1  0
 10 11  2  0
 10 12  1  0
 12 13  1  0
 13 14  2  0
 14 15  1  0
 15 16  2  0
 16 17  1  0
 17 18  2  0
 18 19  1  0
  9 20  2  0
 20  5  1  0
 18 13  1  0
  1 21  1  0
  6 22  1  0
  7 23  1  0
  8 24  1  0
 14 25  1  0
 15 26  1  0
 16 27  1  0
 17 28  1  0
 20 29  1  0
M  CHG  3   1  -1  12  -1  19  -1
M  END
>  <UniqueID>  (20) 
18

>  <SMILES>  (20) 
[NH-]S(=O)(=O)c1cccc(C(=O)[N-]c2ccccc2[O-])c1

>  <Energy>  (20) 
36.09922358891493

>  <Genealogy>  (20) 
[NH-]S(=O)(=O)c1cccc(C(=O)[N-]c2ccccc2[O-])c1 (protonated)
[NH-]S(=O)(=O)c1cccc(C(=O)[N-]c2ccccc2[O-])c1 (3D coordinates assigned)
[NH-]S(=O)(=O)c1cccc(C(=O)[N-]c2ccccc2[O-])c1 (optimized conformer: 36.09922358891493 kcal/mol)

>  <smiles>  (20) 
NS(=O)(=O)c1cccc(C(=O)Nc2ccccc2O)c1

>  <score_type>  (20) 
oracle

>  <origin>  (20) 
adg

>  <m_score__min__energy>  (20) 
-15.140000000000001

>  <m_primary>  (20) 
energy

$$$$
20:0
     RDKit          3D

 41 42  0  0  0  0  0  0  0  0999 V2000
   62.1150   32.0900   47.4180 C   0  0  0  0  0  0  0  0  0  0  0  0
   61.0440   31.1890   46.8060 C   0  0  0  0  0  0  0  0  0  0  0  0
   61.2730   29.7680   47.1420 N   0  0  0  0  0  0  0  0  0  0  0  0
   60.6560   29.4100   48.4380 C   0  0  0  0  0  0  0  0  0  0  0  0
   59.3550   30.1830   48.6270 C   0  0  0  0  0  0  0  0  0  0  0  0
   60.6950   28.7000   45.8700 S   0  0  0  0  0  0  0  0  0  0  0  0
   61.4490   28.9800   44.5990 O   0  0  0  0  0  0  0  0  0  0  0  0
   60.9610   27.2670   46.2430 O   0  0  0  0  0  0  0  0  0  0  0  0
   58.9630   28.8890   45.5750 C   0  0  0  0  0  0  0  0  0  0  0  0
   58.4650   30.0880   45.0500 C   0  0  0  0  0  0  0  0  0  0  0  0
   57.0990   30.2310   44.7950 C   0  0  0  0  0  0  0  0  0  0  0  0
   56.2180   29.1830   45.0750 C   0  0  0  0  0  0  0  0  0  0  0  0
   54.8620   29.3450   44.8130 O   0  0  0  0  0  0  0  0  0  0  0  0
   56.6980   27.9820   45.6280 C   0  0  0  0  0  0  0  0  0  0  0  0
   55.7870   26.8980   45.8890 N   0  0  0  0  0  0  0  0  0  0  0  0
   56.2100   25.5470   46.1420 C   0  0  0  0  0  0  0  0  0  0  0  0
   57.4150   25.3060   46.4270 O   0  0  0  0  0  0  0  0  0  0  0  0
   55.2310   24.4390   46.1040 C   0  0  0  0  0  0  0  0  0  0  0  0
   55.5940   23.1330   46.4640 C   0  0  0  0  0  0  0  0  0  0  0  0
   54.6390   22.1190   46.4090 C   0  0  0  0  0  0  0  0  0  0  0  0
   53.3450   22.4280   45.9950 C   0  0  0  0  0  0  0  0  0  0  0  0
   52.4630   21.5310   45.9350 O   0  0  0  0  0  0  0  0  0  0  0  0
   53.0380   23.7060   45.6540 N   0  0  0  0  0  0  0  0  0  0  0  0
   53.9510   24.6780   45.7080 N   0  0  0  0  0  0  0  0  0  0  0  0
   58.0770   27.8410   45.8650 C   0  0  0  0  0  0  0  0  0  0  0  0
   62.0541   32.0388   48.5151 H   0  0  0  0  0  0  0  0  0  0  0  0
   63.1093   31.7527   47.0898 H   0  0  0  0  0  0  0  0  0  0  0  0
   61.9529   33.1273   47.0898 H   0  0  0  0  0  0  0  0  0  0  0  0
   60.0592   31.4928   47.1906 H   0  0  0  0  0  0  0  0  0  0  0  0
   61.0879   31.2958   45.7121 H   0  0  0  0  0  0  0  0  0  0  0  0
   60.4443   28.3307   48.4550 H   0  0  0  0  0  0  0  0  0  0  0  0
   61.3502   29.6666   49.2518 H   0  0  0  0  0  0  0  0  0  0  0  0
   59.1527   30.3032   49.7015 H   0  0  0  0  0  0  0  0  0  0  0  0
   59.4457   31.1738   48.1579 H   0  0  0  0  0  0  0  0  0  0  0  0
   58.5282   29.6295   48.1579 H   0  0  0  0  0  0  0  0  0  0  0  0
   59.1521   30.9203   44.8376 H   0  0  0  0  0  0  0  0  0  0  0  0
   56.7156   31.1715   44.3725 H   0  0  0  0  0  0  0  0  0  0  0  0
   54.7710   27.1220   45.9720 H   0  0  0  0  0  0  0  0  0  0  0  0
   56.6220   22.9111   46.7865 H   0  0  0  0  0  0  0  0  0  0  0  0
   54.9035   21.0886   46.6887 H   0  0  0  0  0  0  0  0  0  0  0  0
   58.4646   26.8997   46.2819 H   0  0  0  0  0  0  0  0  0  0  0  0
  1  2  1  0
  2  3  1  0
  3  4  1  0
  4  5  1  0
  3  6  1  0
  6  7  2  0
  6  8  2  0
  6  9  1  0
  9 10  2  0
 10 11  1  0
 11 12  2  0
 12 13  1  0
 12 14  1  0
 14 15  1  0
 15 16  1  0
 16 17  2  0
 16 18  1  0
 18 19  1  0
 19 20  2  0
 20 21  1  0
 21 22  2  0
 21 23  1  0
 23 24  1  0
 14 25  2  0
 25  9  1  0
 24 18  2  0
  1 26  1  0
  1 27  1  0
  1 28  1  0
  2 29  1  0
  2 30  1  0
  4 31  1  0
  4 32  1  0
  5 33  1  0
  5 34  1  0
  5 35  1  0
 10 36  1  0
 11 37  1  0
 15 38  1  0
 19 39  1  0
 20 40  1  0
 25 41  1  0
M  CHG  2  13  -1  23  -1
M  END
>  <UniqueID>  (21) 
19

>  <SMILES>  (21) 
CCN(CC)S(=O)(=O)c1ccc([O-])c(NC(=O)c2ccc(=O)[n-]n2)c1

>  <Energy>  (21) 
45.328377840286684

>  <Genealogy>  (21) 
CCN(CC)S(=O)(=O)c1ccc([O-])c(NC(=O)c2ccc(=O)[n-]n2)c1 (protonated)
CCN(CC)S(=O)(=O)c1ccc([O-])c(NC(=O)c2ccc(=O)[n-]n2)c1 (3D coordinates assigned)
CCN(CC)S(=O)(=O)c1ccc([O-])c(NC(=O)c2ccc(=O)[n-]n2)c1 (optimized conformer: 45.328377840286684 kcal/mol)

>  <smiles>  (21) 
CCN(CC)S(=O)(=O)c1ccc(O)c(NC(=O)c2ccc(=O)[nH]n2)c1

>  <score_type>  (21) 
oracle

>  <origin>  (21) 
adg

>  <m_score__min__energy>  (21) 
-11.68

>  <m_primary>  (21) 
energy

$$$$
21:0
     RDKit          3D

 52 54  0  0  0  0  0  0  0  0999 V2000
   55.9070   27.7640   45.6200 O   0  0  0  0  0  0  0  0  0  0  0  0
   57.1410   27.7660   45.3620 C   0  0  0  0  0  0  0  0  0  0  0  0
   58.0460   26.8300   46.1060 C   0  0  0  0  0  0  0  0  0  0  0  0
   59.2560   27.4970   46.4650 O   0  0  0  0  0  0  0  0  0  0  0  0
   59.3390   28.6790   47.2210 C   0  0  0  0  0  0  0  0  0  0  0  0
   59.8430   29.8850   46.6980 C   0  0  0  0  0  0  0  0  0  0  0  0
   59.8940   31.0340   47.4940 C   0  0  0  0  0  0  0  0  0  0  0  0
   59.4600   30.9960   48.8310 C   0  0  0  0  0  0  0  0  0  0  0  0
   59.5210   32.1530   49.6870 N   0  0  0  0  0  0  0  0  0  0  0  0
   60.0600   33.4520   49.2820 C   0  0  0  0  0  0  0  0  0  0  0  0
   61.4800   33.3140   48.7990 C   0  0  0  0  0  0  0  0  0  0  0  0
   61.8480   33.7990   47.5350 C   0  0  0  0  0  0  0  0  0  0  0  0
   63.1720   33.6730   47.1110 C   0  0  0  0  0  0  0  0  0  0  0  0
   64.1140   33.0730   47.9460 C   0  0  0  0  0  0  0  0  0  0  0  0
   63.7170   32.6080   49.2020 C   0  0  0  0  0  0  0  0  0  0  0  0
   62.4240   32.7410   49.6040 N   0  0  0  0  0  0  0  0  0  0  0  0
   58.9570   29.7910   49.3460 C   0  0  0  0  0  0  0  0  0  0  0  0
   58.9010   28.6450   48.5490 C   0  0  0  0  0  0  0  0  0  0  0  0
   57.6810   28.6690   44.3870 N   0  0  0  0  0  0  0  0  0  0  0  0
   57.0700   29.9250   44.0600 C   0  0  0  0  0  0  0  0  0  0  0  0
   55.9500   30.2380   44.5490 O   0  0  0  0  0  0  0  0  0  0  0  0
   57.7580   30.8450   43.2040 N   0  0  0  0  0  0  0  0  0  0  0  0
   57.3970   32.2580   43.1310 C   0  0  0  0  0  0  0  0  0  0  0  0
   57.8110   32.9590   44.3970 C   0  0  0  0  0  0  0  0  0  0  0  0
   57.0690   32.7730   45.5760 C   0  0  0  0  0  0  0  0  0  0  0  0
   57.4260   33.4500   46.7460 C   0  0  0  0  0  0  0  0  0  0  0  0
   58.5190   34.3210   46.7460 C   0  0  0  0  0  0  0  0  0  0  0  0
   59.2540   34.5210   45.5740 C   0  0  0  0  0  0  0  0  0  0  0  0
   58.9020   33.8430   44.4020 C   0  0  0  0  0  0  0  0  0  0  0  0
   57.5386   26.4817   47.0177 H   0  0  0  0  0  0  0  0  0  0  0  0
   58.2863   25.9729   45.4598 H   0  0  0  0  0  0  0  0  0  0  0  0
   60.1986   29.9239   45.6578 H   0  0  0  0  0  0  0  0  0  0  0  0
   60.2765   31.9745   47.0709 H   0  0  0  0  0  0  0  0  0  0  0  0
   59.2120   32.0550   50.6810 H   0  0  0  0  0  0  0  0  0  0  0  0
   59.4411   33.8622   48.4704 H   0  0  0  0  0  0  0  0  0  0  0  0
   60.0468   34.1261   50.1512 H   0  0  0  0  0  0  0  0  0  0  0  0
   61.0997   34.2744   46.8838 H   0  0  0  0  0  0  0  0  0  0  0  0
   63.4716   34.0461   46.1205 H   0  0  0  0  0  0  0  0  0  0  0  0
   65.1589   32.9670   47.6190 H   0  0  0  0  0  0  0  0  0  0  0  0
   64.4521   32.1328   49.8682 H   0  0  0  0  0  0  0  0  0  0  0  0
   62.1580   32.3950   50.5540 H   0  0  0  0  0  0  0  0  0  0  0  0
   58.6036   29.7486   50.3868 H   0  0  0  0  0  0  0  0  0  0  0  0
   58.5089   27.7073   48.9697 H   0  0  0  0  0  0  0  0  0  0  0  0
   58.6340   28.4770   44.0050 H   0  0  0  0  0  0  0  0  0  0  0  0
   58.6110   30.5220   42.6930 H   0  0  0  0  0  0  0  0  0  0  0  0
   57.9079   32.7211   42.2740 H   0  0  0  0  0  0  0  0  0  0  0  0
   56.3076   32.3474   43.0074 H   0  0  0  0  0  0  0  0  0  0  0  0
   56.2047   32.0926   45.5783 H   0  0  0  0  0  0  0  0  0  0  0  0
   56.8458   33.2969   47.6679 H   0  0  0  0  0  0  0  0  0  0  0  0
   58.8010   34.8493   47.6687 H   0  0  0  0  0  0  0  0  0  0  0  0
   60.1099   35.2120   45.5732 H   0  0  0  0  0  0  0  0  0  0  0  0
   59.4820   34.0030   43.4811 H   0  0  0  0  0  0  0  0  0  0  0  0
  1  2  2  0
  2  3  1  0
  3  4  1  0
  4  5  1  0
  5  6  2  0
  6  7  1  0
  7  8  2  0
  8  9  1  0
  9 10  1  0
 10 11  1  0
 11 12  2  0
 12 13  1  0
 13 14  2  0
 14 15  1  0
 15 16  2  0
  8 17  1  0
 17 18  2  0
  2 19  1  0
 19 20  1  0
 20 21  2  0
 20 22  1  0
 22 23  1  0
 23 24  1  0
 24 25  2  0
 25 26  1  0
 26 27  2  0
 27 28  1  0
 28 29  2  0
 18  5  1  0
 29 24  1  0
 16 11  1  0
  3 30  1  0
  3 31  1  0
  6 32  1  0
  7 33  1  0
  9 34  1  0
 10 35  1  0
 10 36  1  0
 12 37  1  0
 13 38  1  0
 14 39  1  0
 15 40  1  0
 16 41  1  0
 17 42  1  0
 18 43  1  0
 19 44  1  0
 22 45  1  0
 23 46  1  0
 23 47  1  0
 25 48  1  0
 26 49  1  0
 27 50  1  0
 28 51  1  0
 29 52  1  0
M  CHG  1  16   1
M  END
>  <UniqueID>  (22) 
20

>  <SMILES>  (22) 
O=C(COc1ccc(NCc2cccc[nH+]2)cc1)NC(=O)NCc1ccccc1

>  <Energy>  (22) 
47.29715466099347

>  <Genealogy>  (22) 
O=C(COc1ccc(NCc2cccc[nH+]2)cc1)NC(=O)NCc1ccccc1 (protonated)
O=C(COc1ccc(NCc2cccc[nH+]2)cc1)NC(=O)NCc1ccccc1 (3D coordinates assigned)
O=C(COc1ccc(NCc2cccc[nH+]2)cc1)NC(=O)NCc1ccccc1 (optimized conformer: 47.29715466099347 kcal/mol)

>  <smiles>  (22) 
O=C(COc1ccc(NCc2ccccn2)cc1)NC(=O)NCc1ccccc1

>  <score_type>  (22) 
oracle

>  <origin>  (22) 
adg

>  <m_score__min__energy>  (22) 
-7.9100000000000001

>  <m_primary>  (22) 
energy

$$$$
22:0
     RDKit          3D

 41 42  0  0  0  0  0  0  0  0999 V2000
   56.9560   22.4690   43.4450 C   0  0  0  0  0  0  0  0  0  0  0  0
   57.1050   22.2750   44.9510 C   0  0  0  0  0  0  0  0  0  0  0  0
   58.3020   23.0620   45.4950 C   0  0  0  0  0  0  0  0  0  0  0  0
   57.9620   24.5200   45.6130 C   0  0  0  0  0  0  0  0  0  0  0  0
   56.6330   24.9380   45.7390 C   0  0  0  0  0  0  0  0  0  0  0  0
   56.3740   26.3030   45.8830 C   0  0  0  0  0  0  0  0  0  0  0  0
   55.1900   26.7150   45.9960 O   0  0  0  0  0  0  0  0  0  0  0  0
   57.4040   27.1880   45.9030 N   0  0  0  0  0  0  0  0  0  0  0  0
   58.6900   26.7660   45.7840 C   0  0  0  0  0  0  0  0  0  0  0  0
   60.0320   27.9520   45.8270 S   0  0  0  0  0  0  0  0  0  0  0  0
   59.9500   28.2260   47.6330 C   0  0  0  0  0  0  0  0  0  0  0  0
   60.2270   29.6650   47.9710 C   0  0  0  0  0  0  0  0  0  0  0  0
   61.4060   30.0240   48.2340 O   0  0  0  0  0  0  0  0  0  0  0  0
   59.1910   30.6550   47.9720 N   0  0  0  0  0  0  0  0  0  0  0  0
   58.5400   31.2080   46.8180 C   0  0  0  0  0  0  0  0  0  0  0  0
   58.6000   32.5810   46.5270 C   0  0  0  0  0  0  0  0  0  0  0  0
   57.9870   33.0820   45.3760 C   0  0  0  0  0  0  0  0  0  0  0  0
   57.3260   32.2180   44.4990 C   0  0  0  0  0  0  0  0  0  0  0  0
   57.2790   30.8440   44.7700 C   0  0  0  0  0  0  0  0  0  0  0  0
   56.4740   29.7490   43.6510 S   0  0  0  0  0  0  0  0  0  0  0  0
   57.3700   28.2760   43.5440 N   0  0  0  0  0  0  0  0  0  0  0  0
   56.3830   30.3860   42.2920 O   0  0  0  0  0  0  0  0  0  0  0  0
   55.0830   29.4550   44.1390 O   0  0  0  0  0  0  0  0  0  0  0  0
   57.9010   30.3420   45.9220 C   0  0  0  0  0  0  0  0  0  0  0  0
   58.9620   25.4420   45.6500 N   0  0  0  0  0  0  0  0  0  0  0  0
   56.2967   23.3275   43.2494 H   0  0  0  0  0  0  0  0  0  0  0  0
   57.9443   22.6568   42.9999 H   0  0  0  0  0  0  0  0  0  0  0  0
   56.5197   21.5626   42.9999 H   0  0  0  0  0  0  0  0  0  0  0  0
   56.1891   22.6242   45.4502 H   0  0  0  0  0  0  0  0  0  0  0  0
   57.2714   21.2060   45.1499 H   0  0  0  0  0  0  0  0  0  0  0  0
   58.5713   22.6715   46.4874 H   0  0  0  0  0  0  0  0  0  0  0  0
   59.1479   22.9486   44.8010 H   0  0  0  0  0  0  0  0  0  0  0  0
   55.8103   24.2080   45.7250 H   0  0  0  0  0  0  0  0  0  0  0  0
   58.9454   27.9586   47.9925 H   0  0  0  0  0  0  0  0  0  0  0  0
   60.7117   27.5982   48.1185 H   0  0  0  0  0  0  0  0  0  0  0  0
   59.1310   33.2633   47.2071 H   0  0  0  0  0  0  0  0  0  0  0  0
   58.0248   34.1598   45.1594 H   0  0  0  0  0  0  0  0  0  0  0  0
   56.8422   32.6168   43.5952 H   0  0  0  0  0  0  0  0  0  0  0  0
   58.1500   28.3410   44.2350 H   0  0  0  0  0  0  0  0  0  0  0  0
   56.7390   27.5100   43.8730 H   0  0  0  0  0  0  0  0  0  0  0  0
   57.8869   29.2607   46.1233 H   0  0  0  0  0  0  0  0  0  0  0  0
  1  2  1  0
  2  3  1  0
  3  4  1  0
  4  5  2  0
  5  6  1  0
  6  7  2  0
  6  8  1  0
  8  9  1  0
  9 10  1  0
 10 11  1  0
 11 12  1  0
 12 13  2  0
 12 14  1  0
 14 15  1  0
 15 16  2  0
 16 17  1  0
 17 18  2  0
 18 19  1  0
 19 20  1  0
 20 21  1  0
 20 22  2  0
 20 23  2  0
 19 24  2  0
  9 25  2  0
 25  4  1  0
 24 15  1  0
  1 26  1  0
  1 27  1  0
  1 28  1  0
  2 29  1  0
  2 30  1  0
  3 31  1  0
  3 32  1  0
  5 33  1  0
 11 34  1  0
 11 35  1  0
 16 36  1  0
 17 37  1  0
 18 38  1  0
 21 39  1  0
 21 40  1  0
 24 41  1  0
M  CHG  2   8  -1  14  -1
M  END
>  <UniqueID>  (23) 
21

>  <SMILES>  (23) 
CCCc1cc(=O)[n-]c(SCC(=O)[N-]c2cccc(S(N)(=O)=O)c2)n1

>  <Energy>  (23) 
36.60810534107339

>  <Genealogy>  (23) 
CCCc1cc(=O)[n-]c(SCC(=O)[N-]c2cccc(S(N)(=O)=O)c2)n1 (protonated)
CCCc1cc(=O)[n-]c(SCC(=O)[N-]c2cccc(S(N)(=O)=O)c2)n1 (3D coordinates assigned)
CCCc1cc(=O)[n-]c(SCC(=O)[N-]c2cccc(S(N)(=O)=O)c2)n1 (optimized conformer: 36.60810534107339 kcal/mol)

>  <smiles>  (23) 
CCCc1cc(=O)[nH]c(SCC(=O)Nc2cccc(S(N)(=O)=O)c2)n1

>  <score_type>  (23) 
oracle

>  <origin>  (23) 
adg

>  <m_score__min__energy>  (23) 
-11.140000000000001

>  <m_primary>  (23) 
energy

$$$$
23:0
     RDKit          3D

 66 69  0  0  0  0  0  0  0  0999 V2000
   56.6060   30.6630   44.0790 C   0  0  0  0  0  0  0  0  0  0  0  0
   58.0770   31.0600   44.1510 C   0  0  0  0  0  0  0  0  0  0  0  0
   58.2680   32.2720   45.0350 C   0  0  0  0  0  0  0  0  0  0  0  0
   57.5280   33.4330   44.7410 C   0  0  0  0  0  0  0  0  0  0  0  0
   57.6410   34.5700   45.5420 C   0  0  0  0  0  0  0  0  0  0  0  0
   58.4960   34.5690   46.6440 C   0  0  0  0  0  0  0  0  0  0  0  0
   59.2460   33.4320   46.9450 C   0  0  0  0  0  0  0  0  0  0  0  0
   59.1480   32.2750   46.1500 C   0  0  0  0  0  0  0  0  0  0  0  0
   59.9390   31.0810   46.5390 C   0  0  0  0  0  0  0  0  0  0  0  0
   61.1960   31.1380   46.5140 O   0  0  0  0  0  0  0  0  0  0  0  0
   59.3120   29.8810   47.0190 N   0  0  0  0  0  0  0  0  0  0  0  0
   58.8540   28.7810   46.2180 C   0  0  0  0  0  0  0  0  0  0  0  0
   59.4560   28.5470   44.9760 C   0  0  0  0  0  0  0  0  0  0  0  0
   59.0420   27.4740   44.1830 C   0  0  0  0  0  0  0  0  0  0  0  0
   58.0290   26.6200   44.6290 C   0  0  0  0  0  0  0  0  0  0  0  0
   57.4090   26.8450   45.8690 C   0  0  0  0  0  0  0  0  0  0  0  0
   56.3790   25.9100   46.3700 C   0  0  0  0  0  0  0  0  0  0  0  0
   55.1670   26.2590   46.3630 O   0  0  0  0  0  0  0  0  0  0  0  0
   56.7480   24.5980   46.8280 N   0  0  0  0  0  0  0  0  0  0  0  0
   55.7990   23.6560   47.3420 C   0  0  0  0  0  0  0  0  0  0  0  0
   56.1330   22.9350   48.4980 C   0  0  0  0  0  0  0  0  0  0  0  0
   55.2230   22.0370   49.0610 C   0  0  0  0  0  0  0  0  0  0  0  0
   53.9720   21.8490   48.4730 C   0  0  0  0  0  0  0  0  0  0  0  0
   53.6370   22.5400   47.3060 C   0  0  0  0  0  0  0  0  0  0  0  0
   54.5560   23.4140   46.7050 C   0  0  0  0  0  0  0  0  0  0  0  0
   54.1720   24.0490   45.4770 N   0  0  0  0  0  0  0  0  0  0  0  0
   54.0370   23.4480   44.1820 C   0  0  0  0  0  0  0  0  0  0  0  0
   52.9020   23.4340   43.6410 O   0  0  0  0  0  0  0  0  0  0  0  0
   55.1270   22.8040   43.5090 N   0  0  0  0  0  0  0  0  0  0  0  0
   56.5130   22.6990   43.9620 C   0  0  0  0  0  0  0  0  0  0  0  0
   56.7400   21.4760   44.8190 C   0  0  0  0  0  0  0  0  0  0  0  0
   55.8870   20.3680   44.6710 C   0  0  0  0  0  0  0  0  0  0  0  0
   56.0530   19.2350   45.4670 C   0  0  0  0  0  0  0  0  0  0  0  0
   57.0560   19.2000   46.4330 C   0  0  0  0  0  0  0  0  0  0  0  0
   57.8950   20.3020   46.6130 C   0  0  0  0  0  0  0  0  0  0  0  0
   57.7400   21.4540   45.8160 C   0  0  0  0  0  0  0  0  0  0  0  0
   58.5540   22.5860   45.9910 O   0  0  0  0  0  0  0  0  0  0  0  0
   59.7220   22.8690   45.2260 C   0  0  0  0  0  0  0  0  0  0  0  0
   57.7960   27.9550   46.6350 C   0  0  0  0  0  0  0  0  0  0  0  0
   56.2051   30.5548   45.0976 H   0  0  0  0  0  0  0  0  0  0  0  0
   56.0420   31.4411   43.5437 H   0  0  0  0  0  0  0  0  0  0  0  0
   56.5100   29.7068   43.5437 H   0  0  0  0  0  0  0  0  0  0  0  0
   58.6567   30.2202   44.5617 H   0  0  0  0  0  0  0  0  0  0  0  0
   58.4235   31.3076   43.1368 H   0  0  0  0  0  0  0  0  0  0  0  0
   56.8543   33.4439   43.8715 H   0  0  0  0  0  0  0  0  0  0  0  0
   57.0543   35.4694   45.3037 H   0  0  0  0  0  0  0  0  0  0  0  0
   58.5789   35.4654   47.2761 H   0  0  0  0  0  0  0  0  0  0  0  0
   59.9214   33.4399   47.8132 H   0  0  0  0  0  0  0  0  0  0  0  0
   60.2587   29.2111   44.6229 H   0  0  0  0  0  0  0  0  0  0  0  0
   59.5144   27.3006   43.2049 H   0  0  0  0  0  0  0  0  0  0  0  0
   57.7164   25.7687   44.0065 H   0  0  0  0  0  0  0  0  0  0  0  0
   57.7570   24.3400   46.8980 H   0  0  0  0  0  0  0  0  0  0  0  0
   57.1188   23.0778   48.9647 H   0  0  0  0  0  0  0  0  0  0  0  0
   55.4931   21.4776   49.9688 H   0  0  0  0  0  0  0  0  0  0  0  0
   53.2490   21.1563   48.9285 H   0  0  0  0  0  0  0  0  0  0  0  0
   52.6442   22.3978   46.8542 H   0  0  0  0  0  0  0  0  0  0  0  0
   57.1704   22.6423   43.0819 H   0  0  0  0  0  0  0  0  0  0  0  0
   56.7380   23.5863   44.5719 H   0  0  0  0  0  0  0  0  0  0  0  0
   55.0824   20.3951   43.9214 H   0  0  0  0  0  0  0  0  0  0  0  0
   55.3906   18.3673   45.3318 H   0  0  0  0  0  0  0  0  0  0  0  0
   57.1875   18.3026   47.0554 H   0  0  0  0  0  0  0  0  0  0  0  0
   58.6815   20.2706   47.3814 H   0  0  0  0  0  0  0  0  0  0  0  0
   60.5639   23.0730   45.9040 H   0  0  0  0  0  0  0  0  0  0  0  0
   59.9635   22.0034   44.5917 H   0  0  0  0  0  0  0  0  0  0  0  0
   59.5405   23.7492   44.5917 H   0  0  0  0  0  0  0  0  0  0  0  0
   57.2658   28.1812   47.5718 H   0  0  0  0  0  0  0  0  0  0  0  0
  1  2  1  0
  2  3  1  0
  3  4  2  0
  4  5  1  0
  5  6  2  0
  6  7  1  0
  7  8  2  0
  8  9  1  0
  9 10  2  0
  9 11  1  0
 11 12  1  0
 12 13  2  0
 13 14  1  0
 14 15  2  0
 15 16  1  0
 16 17  1  0
 17 18  2  0
 17 19  1  0
 19 20  1  0
 20 21  2  0
 21 22  1  0
 22 23  2  0
 23 24  1  0
 24 25  2  0
 25 26  1  0
 26 27  1  0
 27 28  2  0
 27 29  1  0
 29 30  1  0
 30 31  1  0
 31 32  2  0
 32 33  1  0
 33 34  2  0
 34 35  1  0
 35 36  2  0
 36 37  1  0
 37 38  1  0
 16 39  2  0
  8  3  1  0
 39 12  1  0
 25 20  1  0
 36 31  1  0
  1 40  1  0
  1 41  1  0
  1 42  1  0
  2 43  1  0
  2 44  1  0
  4 45  1  0
  5 46  1  0
  6 47  1  0
  7 48  1  0
 13 49  1  0
 14 50  1  0
 15 51  1  0
 19 52  1  0
 21 53  1  0
 22 54  1  0
 23 55  1  0
 24 56  1  0
 30 57  1  0
 30 58  1  0
 32 59  1  0
 33 60  1  0
 34 61  1  0
 35 62  1  0
 38 63  1  0
 38 64  1  0
 38 65  1  0
 39 66  1  0
M  CHG  3  11  -1  26  -1  29  -1
M  END
>  <UniqueID>  (24) 
22

>  <SMILES>  (24) 
CCc1ccccc1C(=O)[N-]c1cccc(C(=O)Nc2ccccc2[N-]C(=O)[N-]Cc2ccccc2OC)c1

>  <Energy>  (24) 
86.97107315805115

>  <Genealogy>  (24) 
CCc1ccccc1C(=O)[N-]c1cccc(C(=O)Nc2ccccc2[N-]C(=O)[N-]Cc2ccccc2OC)c1 (protonated)
CCc1ccccc1C(=O)[N-]c1cccc(C(=O)Nc2ccccc2[N-]C(=O)[N-]Cc2ccccc2OC)c1 (3D coordinates assigned)
CCc1ccccc1C(=O)[N-]c1cccc(C(=O)Nc2ccccc2[N-]C(=O)[N-]Cc2ccccc2OC)c1 (optimized conformer: 86.97107315805115 kcal/mol)

>  <smiles>  (24) 
CCc1ccccc1C(=O)Nc1cccc(C(=O)Nc2ccccc2NC(=O)NCc2ccccc2OC)c1

>  <score_type>  (24) 
oracle

>  <origin>  (24) 
adg

>  <m_score__min__energy>  (24) 
-15

>  <m_primary>  (24) 
energy

$$$$
24:0
     RDKit          3D

 69 72  0  0  0  0  0  0  0  0999 V2000
   59.3220   22.4200   44.9980 C   0  0  0  0  0  0  0  0  0  0  0  0
   58.4560   23.5950   45.3380 C   0  0  0  0  0  0  0  0  0  0  0  0
   58.1380   23.7870   46.5410 O   0  0  0  0  0  0  0  0  0  0  0  0
   58.0080   24.5340   44.3500 N   0  0  0  0  0  0  0  0  0  0  0  0
   57.6950   25.9200   44.5420 C   0  0  0  0  0  0  0  0  0  0  0  0
   58.0650   26.9060   43.6080 C   0  0  0  0  0  0  0  0  0  0  0  0
   57.7450   28.2470   43.8380 C   0  0  0  0  0  0  0  0  0  0  0  0
   57.0310   28.6240   44.9820 C   0  0  0  0  0  0  0  0  0  0  0  0
   56.7920   30.0200   45.2160 N   0  0  0  0  0  0  0  0  0  0  0  0
   57.7870   31.0230   45.4600 C   0  0  0  0  0  0  0  0  0  0  0  0
   58.1500   31.7960   44.5340 O   0  0  0  0  0  0  0  0  0  0  0  0
   58.4640   31.0820   46.8080 C   0  0  1  0  0  0  0  0  0  0  0  0
   59.1400   29.7800   47.2160 C   0  0  0  0  0  0  0  0  0  0  0  0
   59.0800   29.3890   48.5680 C   0  0  0  0  0  0  0  0  0  0  0  0
   59.6920   28.2060   48.9960 C   0  0  0  0  0  0  0  0  0  0  0  0
   60.3720   27.3980   48.0820 C   0  0  0  0  0  0  0  0  0  0  0  0
   60.4370   27.7700   46.7370 C   0  0  0  0  0  0  0  0  0  0  0  0
   59.8260   28.9510   46.3020 C   0  0  0  0  0  0  0  0  0  0  0  0
   59.3720   32.2550   46.8960 N   0  0  0  0  0  0  0  0  0  0  0  0
   60.7660   32.1990   46.3940 C   0  0  0  0  0  0  0  0  0  0  0  0
   61.7780   32.2450   47.5130 C   0  0  0  0  0  0  0  0  0  0  0  0
   61.7720   31.2610   48.5160 C   0  0  0  0  0  0  0  0  0  0  0  0
   62.7350   31.2770   49.5300 C   0  0  0  0  0  0  0  0  0  0  0  0
   63.7090   32.2870   49.5660 C   0  0  0  0  0  0  0  0  0  0  0  0
   64.7630   32.3010   50.6350 C   0  0  0  0  0  0  0  0  0  0  0  0
   63.7030   33.2810   48.5780 C   0  0  0  0  0  0  0  0  0  0  0  0
   62.7440   33.2640   47.5610 C   0  0  0  0  0  0  0  0  0  0  0  0
   58.8850   33.5170   47.4230 C   0  0  0  0  0  0  0  0  0  0  0  0
   58.0680   34.2030   46.7460 O   0  0  0  0  0  0  0  0  0  0  0  0
   59.3740   34.1040   48.7240 C   0  0  0  0  0  0  0  0  0  0  0  0
   59.1270   33.2220   49.8680 N   0  0  0  0  0  0  0  0  0  0  0  0
   58.1180   32.3610   49.8990 N   0  0  0  0  0  0  0  0  0  0  0  0
   58.2670   31.5930   50.9950 C   0  0  0  0  0  0  0  0  0  0  0  0
   57.3530   30.5500   51.3470 N   0  0  0  0  0  0  0  0  0  0  0  0
   57.7520   29.3830   51.5370 O   0  0  0  0  0  0  0  0  0  0  0  0
   56.0170   30.8400   51.5000 O   0  0  0  0  0  0  0  0  0  0  0  0
   59.4150   31.9580   51.6760 C   0  0  0  0  0  0  0  0  0  0  0  0
   60.1070   31.2130   53.1090 Cl  0  0  0  0  0  0  0  0  0  0  0  0
   59.9380   33.0010   50.9320 C   0  0  0  0  0  0  0  0  0  0  0  0
   61.2370   33.7020   51.1960 C   0  0  0  0  0  0  0  0  0  0  0  0
   56.6460   27.6320   45.9060 C   0  0  0  0  0  0  0  0  0  0  0  0
   56.9610   26.2920   45.6730 C   0  0  0  0  0  0  0  0  0  0  0  0
   59.6735   21.9431   45.9249 H   0  0  0  0  0  0  0  0  0  0  0  0
   58.7411   21.6944   44.4098 H   0  0  0  0  0  0  0  0  0  0  0  0
   60.1871   22.7601   44.4098 H   0  0  0  0  0  0  0  0  0  0  0  0
   58.6074   26.6204   42.6947 H   0  0  0  0  0  0  0  0  0  0  0  0
   58.0570   29.0135   43.1134 H   0  0  0  0  0  0  0  0  0  0  0  0
   57.6660   31.2198   47.5524 H   0  0  0  0  0  0  0  0  0  0  0  0
   58.5468   30.0200   49.2943 H   0  0  0  0  0  0  0  0  0  0  0  0
   59.6375   27.9116   50.0545 H   0  0  0  0  0  0  0  0  0  0  0  0
   60.8557   26.4700   48.4207 H   0  0  0  0  0  0  0  0  0  0  0  0
   60.9706   27.1319   46.0172 H   0  0  0  0  0  0  0  0  0  0  0  0
   59.8804   29.2355   45.2408 H   0  0  0  0  0  0  0  0  0  0  0  0
   60.9025   31.2637   45.8314 H   0  0  0  0  0  0  0  0  0  0  0  0
   60.9299   33.0789   45.7545 H   0  0  0  0  0  0  0  0  0  0  0  0
   61.0048   30.4728   48.5036 H   0  0  0  0  0  0  0  0  0  0  0  0
   62.7291   30.4944   50.3030 H   0  0  0  0  0  0  0  0  0  0  0  0
   64.2820   32.2946   51.6243 H   0  0  0  0  0  0  0  0  0  0  0  0
   65.4016   31.4113   50.5320 H   0  0  0  0  0  0  0  0  0  0  0  0
   65.3777   33.2074   50.5320 H   0  0  0  0  0  0  0  0  0  0  0  0
   64.4583   34.0803   48.6030 H   0  0  0  0  0  0  0  0  0  0  0  0
   62.7457   34.0527   46.7942 H   0  0  0  0  0  0  0  0  0  0  0  0
   60.4563   34.2836   48.6448 H   0  0  0  0  0  0  0  0  0  0  0  0
   58.8195   35.0381   48.8975 H   0  0  0  0  0  0  0  0  0  0  0  0
   61.3940   33.7867   52.2814 H   0  0  0  0  0  0  0  0  0  0  0  0
   62.0615   33.1264   50.7501 H   0  0  0  0  0  0  0  0  0  0  0  0
   61.2084   34.7072   50.7501 H   0  0  0  0  0  0  0  0  0  0  0  0
   56.0948   27.9148   46.8150 H   0  0  0  0  0  0  0  0  0  0  0  0
   56.6290   25.5221   46.3851 H   0  0  0  0  0  0  0  0  0  0  0  0
  1  2  1  0
  2  3  2  0
  2  4  1  0
  4  5  1  0
  5  6  2  0
  6  7  1  0
  7  8  2  0
  8  9  1  0
  9 10  1  0
 10 11  2  0
 10 12  1  0
 12 13  1  0
 13 14  2  0
 14 15  1  0
 15 16  2  0
 16 17  1  0
 17 18  2  0
 12 19  1  0
 19 20  1  0
 20 21  1  0
 21 22  2  0
 22 23  1  0
 23 24  2  0
 24 25  1  0
 24 26  1  0
 26 27  2  0
 19 28  1  0
 28 29  2  0
 28 30  1  0
 30 31  1  0
 31 32  1  0
 32 33  2  0
 33 34  1  0
 34 35  2  0
 34 36  1  0
 33 37  1  0
 37 38  1  0
 37 39  2  0
 39 40  1  0
  8 41  1  0
 41 42  2  0
 42  5  1  0
 18 13  1  0
 27 21  1  0
 39 31  1  0
  1 43  1  0
  1 44  1  0
  1 45  1  0
  6 46  1  0
  7 47  1  0
 12 48  1  1
 14 49  1  0
 15 50  1  0
 16 51  1  0
 17 52  1  0
 18 53  1  0
 20 54  1  0
 20 55  1  0
 22 56  1  0
 23 57  1  0
 25 58  1  0
 25 59  1  0
 25 60  1  0
 26 61  1  0
 27 62  1  0
 30 63  1  0
 30 64  1  0
 40 65  1  0
 40 66  1  0
 40 67  1  0
 41 68  1  0
 42 69  1  0
M  CHG  4   4  -1   9  -1  34   1  36  -1
M  END
>  <UniqueID>  (25) 
23

>  <SMILES>  (25) 
CC(=O)[N-]c1ccc([N-]C(=O)[C@@H](c2ccccc2)N(Cc2ccc(C)cc2)C(=O)Cn2nc([N+](=O)[O-])c(Cl)c2C)cc1

>  <Energy>  (25) 
109.58313604446694

>  <Genealogy>  (25) 
CC(=O)[N-]c1ccc([N-]C(=O)C(c2ccccc2)N(Cc2ccc(C)cc2)C(=O)Cn2nc([N+](=O)[O-])c(Cl)c2C)cc1 (protonated)
CC(=O)[N-]c1ccc([N-]C(=O)[C@@H](c2ccccc2)N(Cc2ccc(C)cc2)C(=O)Cn2nc([N+](=O)[O-])c(Cl)c2C)cc1 (chirality)
CC(=O)[N-]c1ccc([N-]C(=O)[C@@H](c2ccccc2)N(Cc2ccc(C)cc2)C(=O)Cn2nc([N+](=O)[O-])c(Cl)c2C)cc1 (3D coordinates assigned)
CC(=O)[N-]c1ccc([N-]C(=O)[C@@H](c2ccccc2)N(Cc2ccc(C)cc2)C(=O)Cn2nc([N+](=O)[O-])c(Cl)c2C)cc1 (optimized conformer: 109.58313604446694 kcal/mol)

>  <smiles>  (25) 
CC(=O)Nc1ccc(NC(=O)C(c2ccccc2)N(Cc2ccc(C)cc2)C(=O)Cn2nc([N+](=O)[O-])c(Cl)c2C)cc1

>  <score_type>  (25) 
oracle

>  <origin>  (25) 
adg

>  <m_score__min__energy>  (25) 
-13.93

>  <m_primary>  (25) 
energy

$$$$
25:0
     RDKit          3D

 58 61  0  0  0  0  0  0  0  0999 V2000
   64.2730   32.3430   49.8700 C   0  0  0  0  0  0  0  0  0  0  0  0
   63.4770   32.8930   48.7130 C   0  0  0  0  0  0  0  0  0  0  0  0
   64.1020   33.0940   47.4700 C   0  0  0  0  0  0  0  0  0  0  0  0
   63.3660   33.5690   46.3800 C   0  0  0  0  0  0  0  0  0  0  0  0
   62.0030   33.8390   46.5160 C   0  0  0  0  0  0  0  0  0  0  0  0
   61.3730   33.6390   47.7440 C   0  0  0  0  0  0  0  0  0  0  0  0
   62.1020   33.1720   48.8570 C   0  0  0  0  0  0  0  0  0  0  0  0
   61.4900   32.9880   50.1420 N   0  0  0  0  0  0  0  0  0  0  0  0
   59.9440   32.2680   50.4480 S   0  0  0  0  0  0  0  0  0  0  0  0
   59.7130   32.2350   51.9310 O   0  0  0  0  0  0  0  0  0  0  0  0
   58.8510   33.0880   49.8270 O   0  0  0  0  0  0  0  0  0  0  0  0
   59.9290   30.6170   49.8330 C   0  0  0  0  0  0  0  0  0  0  0  0
   58.9340   30.2240   48.9300 C   0  0  0  0  0  0  0  0  0  0  0  0
   58.9020   28.9150   48.4380 C   0  0  0  0  0  0  0  0  0  0  0  0
   59.8560   27.9710   48.8660 C   0  0  0  0  0  0  0  0  0  0  0  0
   59.8800   26.6080   48.4050 N   0  0  0  0  0  0  0  0  0  0  0  0
   59.1280   25.9850   47.3540 C   0  0  0  0  0  0  0  0  0  0  0  0
   58.1310   25.2570   47.5990 O   0  0  0  0  0  0  0  0  0  0  0  0
   59.5900   26.1390   45.9390 C   0  0  0  0  0  0  0  0  0  0  0  0
   59.1810   27.4770   45.4040 C   0  0  0  0  0  0  0  0  0  0  0  0
   60.0450   28.5040   45.0340 C   0  0  0  0  0  0  0  0  0  0  0  0
   59.3790   29.6480   44.5790 C   0  0  0  0  0  0  0  0  0  0  0  0
   57.9970   29.5100   44.5850 C   0  0  0  0  0  0  0  0  0  0  0  0
   56.8420   30.7530   44.1300 S   0  0  0  0  0  0  0  0  0  0  0  0
   55.4550   30.2850   44.4790 O   0  0  0  0  0  0  0  0  0  0  0  0
   56.9090   30.9580   42.6420 O   0  0  0  0  0  0  0  0  0  0  0  0
   57.1670   32.2680   44.9350 N   0  0  0  0  0  0  0  0  0  0  0  0
   57.7540   32.0290   46.2690 C   0  0  0  0  0  0  0  0  0  0  0  0
   58.3710   33.3230   46.8370 C   0  0  0  0  0  0  0  0  0  0  0  0
   57.8480   34.4590   46.1750 O   0  0  0  0  0  0  0  0  0  0  0  0
   58.2660   34.4680   44.8160 C   0  0  0  0  0  0  0  0  0  0  0  0
   58.0630   33.1030   44.1230 C   0  0  0  0  0  0  0  0  0  0  0  0
   57.5920   27.9820   45.1520 S   0  0  0  0  0  0  0  0  0  0  0  0
   60.8520   28.3760   49.7650 C   0  0  0  0  0  0  0  0  0  0  0  0
   60.8920   29.6880   50.2450 C   0  0  0  0  0  0  0  0  0  0  0  0
   63.8120   32.6615   50.8166 H   0  0  0  0  0  0  0  0  0  0  0  0
   64.2832   31.2442   49.8186 H   0  0  0  0  0  0  0  0  0  0  0  0
   65.3043   32.7221   49.8186 H   0  0  0  0  0  0  0  0  0  0  0  0
   65.1741   32.8768   47.3543 H   0  0  0  0  0  0  0  0  0  0  0  0
   63.8627   33.7305   45.4119 H   0  0  0  0  0  0  0  0  0  0  0  0
   61.4266   34.2091   45.6554 H   0  0  0  0  0  0  0  0  0  0  0  0
   60.2977   33.8474   47.8453 H   0  0  0  0  0  0  0  0  0  0  0  0
   58.1729   30.9489   48.6055 H   0  0  0  0  0  0  0  0  0  0  0  0
   58.1282   28.6213   47.7134 H   0  0  0  0  0  0  0  0  0  0  0  0
   60.6860   26.0530   45.9032 H   0  0  0  0  0  0  0  0  0  0  0  0
   59.1312   25.3509   45.3238 H   0  0  0  0  0  0  0  0  0  0  0  0
   61.1405   28.4245   45.0932 H   0  0  0  0  0  0  0  0  0  0  0  0
   59.8965   30.5615   44.2508 H   0  0  0  0  0  0  0  0  0  0  0  0
   56.9667   31.6755   46.9511 H   0  0  0  0  0  0  0  0  0  0  0  0
   58.5473   31.2729   46.1742 H   0  0  0  0  0  0  0  0  0  0  0  0
   58.1400   33.3923   47.9102 H   0  0  0  0  0  0  0  0  0  0  0  0
   59.4596   33.2934   46.6820 H   0  0  0  0  0  0  0  0  0  0  0  0
   57.6847   35.2283   44.2737 H   0  0  0  0  0  0  0  0  0  0  0  0
   59.3427   34.6927   44.8002 H   0  0  0  0  0  0  0  0  0  0  0  0
   57.6178   33.2592   43.1293 H   0  0  0  0  0  0  0  0  0  0  0  0
   59.0349   32.5992   44.0151 H   0  0  0  0  0  0  0  0  0  0  0  0
   61.6113   27.6526   50.0968 H   0  0  0  0  0  0  0  0  0  0  0  0
   61.6818   29.9914   50.9480 H   0  0  0  0  0  0  0  0  0  0  0  0
  1  2  1  0
  2  3  2  0
  3  4  1  0
  4  5  2  0
  5  6  1  0
  6  7  2  0
  7  8  1  0
  8  9  1  0
  9 10  2  0
  9 11  2  0
  9 12  1  0
 12 13  2  0
 13 14  1  0
 14 15  2  0
 15 16  1  0
 16 17  1  0
 17 18  2  0
 17 19  1  0
 19 20  1  0
 20 21  2  0
 21 22  1  0
 22 23  2  0
 23 24  1  0
 24 25  2  0
 24 26  2  0
 24 27  1  0
 27 28  1  0
 28 29  1  0
 29 30  1  0
 30 31  1  0
 31 32  1  0
 23 33  1  0
 15 34  1  0
 34 35  2  0
  7  2  1  0
 35 12  1  0
 33 20  1  0
 32 27  1  0
  1 36  1  0
  1 37  1  0
  1 38  1  0
  3 39  1  0
  4 40  1  0
  5 41  1  0
  6 42  1  0
 13 43  1  0
 14 44  1  0
 19 45  1  0
 19 46  1  0
 21 47  1  0
 22 48  1  0
 28 49  1  0
 28 50  1  0
 29 51  1  0
 29 52  1  0
 31 53  1  0
 31 54  1  0
 32 55  1  0
 32 56  1  0
 34 57  1  0
 35 58  1  0
M  CHG  2   8  -1  16  -1
M  END
>  <UniqueID>  (26) 
24

>  <SMILES>  (26) 
Cc1ccccc1[N-]S(=O)(=O)c1ccc([N-]C(=O)Cc2ccc(S(=O)(=O)N3CCOCC3)s2)cc1

>  <Energy>  (26) 
100.8949577010523

>  <Genealogy>  (26) 
Cc1ccccc1[N-]S(=O)(=O)c1ccc([N-]C(=O)Cc2ccc(S(=O)(=O)N3CCOCC3)s2)cc1 (protonated)
Cc1ccccc1[N-]S(=O)(=O)c1ccc([N-]C(=O)Cc2ccc(S(=O)(=O)N3CCOCC3)s2)cc1 (3D coordinates assigned)
Cc1ccccc1[N-]S(=O)(=O)c1ccc([N-]C(=O)Cc2ccc(S(=O)(=O)N3CCOCC3)s2)cc1 (nonaromatic ring conformer: 100.8949577010523 kcal/mol)

>  <smiles>  (26) 
Cc1ccccc1NS(=O)(=O)c1ccc(NC(=O)Cc2ccc(S(=O)(=O)N3CCOCC3)s2)cc1

>  <score_type>  (26) 
oracle

>  <origin>  (26) 
adg

>  <m_score__min__energy>  (26) 
-12.960000000000001

>  <m_primary>  (26) 
energy

$$$$
26:0
     RDKit          3D

 42 46  0  0  0  0  0  0  0  0999 V2000
   63.2590   31.6040   49.4920 C   0  0  0  0  0  0  0  0  0  0  0  0
   63.0360   31.5140   48.0880 O   0  0  0  0  0  0  0  0  0  0  0  0
   62.0280   32.2040   47.3980 C   0  0  0  0  0  0  0  0  0  0  0  0
   62.2070   33.5180   46.9290 C   0  0  0  0  0  0  0  0  0  0  0  0
   61.1660   34.1760   46.2720 C   0  0  0  0  0  0  0  0  0  0  0  0
   59.9480   33.5290   46.0640 C   0  0  0  0  0  0  0  0  0  0  0  0
   59.7670   32.1980   46.4750 C   0  0  0  0  0  0  0  0  0  0  0  0
   60.8060   31.5530   47.1740 C   0  0  0  0  0  0  0  0  0  0  0  0
   60.6270   30.2610   47.6730 O   0  0  0  0  0  0  0  0  0  0  0  0
   59.6080   29.3800   47.2020 C   0  0  0  0  0  0  0  0  0  0  0  0
   60.0730   28.7700   45.8830 C   0  0  0  0  0  0  0  0  0  0  0  0
   60.6780   29.4810   45.0370 O   0  0  0  0  0  0  0  0  0  0  0  0
   59.7690   27.4150   45.5470 N   0  0  0  0  0  0  0  0  0  0  0  0
   59.2430   26.5230   46.5230 C   0  0  0  0  0  0  0  0  0  0  0  0
   58.9200   25.3510   46.1980 O   0  0  0  0  0  0  0  0  0  0  0  0
   59.1160   26.9510   47.8740 N   0  0  0  0  0  0  0  0  0  0  0  0
   59.4110   28.2980   48.2470 C   0  0  0  0  0  0  0  0  0  0  0  0
   59.4320   28.6020   49.4690 O   0  0  0  0  0  0  0  0  0  0  0  0
   58.2610   30.1510   47.0330 C   0  0  2  0  0  0  0  0  0  0  0  0
   57.3930   29.4080   46.1750 O   0  0  0  0  0  0  0  0  0  0  0  0
   57.3230   30.0160   44.9390 C   0  0  0  0  0  0  0  0  0  0  0  0
   56.7010   29.5040   43.8040 C   0  0  0  0  0  0  0  0  0  0  0  0
   56.7410   30.2600   42.6240 C   0  0  0  0  0  0  0  0  0  0  0  0
   57.3990   31.5110   42.5980 C   0  0  0  0  0  0  0  0  0  0  0  0
   57.3920   32.3390   41.3470 C   0  0  0  0  0  0  0  0  0  0  0  0
   57.9940   32.0130   43.7740 C   0  0  0  0  0  0  0  0  0  0  0  0
   57.9680   31.2260   44.9320 C   0  0  0  0  0  0  0  0  0  0  0  0
   58.4070   31.5420   46.3320 C   0  0  2  0  0  0  0  0  0  0  0  0
   62.3685   31.2446   50.0285 H   0  0  0  0  0  0  0  0  0  0  0  0
   64.1265   30.9856   49.7659 H   0  0  0  0  0  0  0  0  0  0  0  0
   63.4542   32.6513   49.7659 H   0  0  0  0  0  0  0  0  0  0  0  0
   63.1697   34.0282   47.0804 H   0  0  0  0  0  0  0  0  0  0  0  0
   61.3066   35.2077   45.9173 H   0  0  0  0  0  0  0  0  0  0  0  0
   59.1222   34.0655   45.5740 H   0  0  0  0  0  0  0  0  0  0  0  0
   57.8815   30.2868   48.0565 H   0  0  0  0  0  0  0  0  0  0  0  0
   56.1905   28.5300   43.8321 H   0  0  0  0  0  0  0  0  0  0  0  0
   56.2575   29.8775   41.7130 H   0  0  0  0  0  0  0  0  0  0  0  0
   57.3830   33.4062   41.6137 H   0  0  0  0  0  0  0  0  0  0  0  0
   58.2921   32.1166   40.7550 H   0  0  0  0  0  0  0  0  0  0  0  0
   56.4958   32.1014   40.7550 H   0  0  0  0  0  0  0  0  0  0  0  0
   58.4699   33.0047   43.7815 H   0  0  0  0  0  0  0  0  0  0  0  0
   57.8005   32.3340   46.7955 H   0  0  0  0  0  0  0  0  0  0  0  0
  1  2  1  0
  2  3  1  0
  3  4  2  0
  4  5  1  0
  5  6  2  0
  6  7  1  0
  7  8  2  0
  8  9  1  0
  9 10  1  0
 10 11  1  0
 11 12  2  0
 11 13  1  0
 13 14  1  0
 14 15  2  0
 14 16  1  0
 16 17  1  0
 17 18  2  0
 10 19  1  0
 19 20  1  0
 20 21  1  0
 21 22  2  0
 22 23  1  0
 23 24  2  0
 24 25  1  0
 24 26  1  0
 26 27  2  0
 27 28  1  0
  8  3  1  0
 17 10  1  0
 28 19  1  0
 28  7  1  0
 27 21  1  0
  1 29  1  0
  1 30  1  0
  1 31  1  0
  4 32  1  0
  5 33  1  0
  6 34  1  0
 19 35  1  1
 22 36  1  0
 23 37  1  0
 25 38  1  0
 25 39  1  0
 25 40  1  0
 26 41  1  0
 28 42  1  1
M  CHG  2  13  -1  16  -1
M  END
>  <UniqueID>  (27) 
25

>  <SMILES>  (27) 
COc1cccc2c1OC1(C(=O)[N-]C(=O)[N-]C1=O)[C@@H]1Oc3ccc(C)cc3[C@H]21

>  <Energy>  (27) 
72.0302270615782

>  <Genealogy>  (27) 
COc1cccc2c1OC1(C(=O)[N-]C(=O)[N-]C1=O)C1Oc3ccc(C)cc3C21 (protonated)
COc1cccc2c1OC1(C(=O)[N-]C(=O)[N-]C1=O)[C@@H]1Oc3ccc(C)cc3[C@H]21 (chirality)
COc1cccc2c1OC1(C(=O)[N-]C(=O)[N-]C1=O)[C@@H]1Oc3ccc(C)cc3[C@H]21 (3D coordinates assigned)
COc1cccc2c1OC1(C(=O)[N-]C(=O)[N-]C1=O)[C@@H]1Oc3ccc(C)cc3[C@H]21 (nonaromatic ring conformer: 72.0302270615782 kcal/mol)

>  <smiles>  (27) 
COc1cccc2c1OC1(C(=O)NC(=O)NC1=O)C1Oc3ccc(C)cc3C21

>  <score_type>  (27) 
oracle

>  <origin>  (27) 
adg

>  <m_score__min__energy>  (27) 
-10.09

>  <m_primary>  (27) 
energy

$$$$
27:0
     RDKit          3D

 44 46  0  0  0  0  0  0  0  0999 V2000
   55.0122   31.2414   43.6358 H   0  0  0  0  0  0  0  0  0  0  0  0
   55.6890   30.4780   44.0470 C   0  0  0  0  0  0  0  0  0  0  0  0
   55.2390   29.3260   44.6110 N   0  0  0  0  0  0  0  0  0  0  0  0
   56.2590   28.5600   45.0590 C   0  0  0  0  0  0  0  0  0  0  0  0
   56.1170   27.3970   45.6250 N   0  0  0  0  0  0  0  0  0  0  0  0
   57.1490   26.5180   46.1020 C   0  0  0  0  0  0  0  0  0  0  0  0
   57.1410   26.1920   47.3200 O   0  0  0  0  0  0  0  0  0  0  0  0
   58.2330   25.9740   45.2070 C   0  0  0  0  0  0  0  0  0  0  0  0
   58.1331   26.4250   44.2087 H   0  0  0  0  0  0  0  0  0  0  0  0
   58.1226   24.8809   45.1535 H   0  0  0  0  0  0  0  0  0  0  0  0
   59.5320   26.2710   45.7240 O   0  0  0  0  0  0  0  0  0  0  0  0
   59.9630   27.5370   46.1510 C   0  0  0  0  0  0  0  0  0  0  0  0
   59.6870   27.9190   47.4680 C   0  0  0  0  0  0  0  0  0  0  0  0
   59.1448   27.2306   48.1329 H   0  0  0  0  0  0  0  0  0  0  0  0
   60.0940   29.1680   47.9470 C   0  0  0  0  0  0  0  0  0  0  0  0
   59.8696   29.4540   48.9852 H   0  0  0  0  0  0  0  0  0  0  0  0
   60.7870   30.0600   47.1130 C   0  0  0  0  0  0  0  0  0  0  0  0
   61.2160   31.3820   47.6240 C   0  0  0  0  0  0  0  0  0  0  0  0
   60.5640   31.9470   48.5450 O   0  0  0  0  0  0  0  0  0  0  0  0
   62.3470   32.0040   47.0840 O   0  0  0  0  0  0  0  0  0  0  0  0
   62.6380   33.3810   47.2900 C   0  0  0  0  0  0  0  0  0  0  0  0
   62.6820   33.5890   48.3693 H   0  0  0  0  0  0  0  0  0  0  0  0
   63.6073   33.6237   46.8300 H   0  0  0  0  0  0  0  0  0  0  0  0
   61.8498   33.9951   46.8300 H   0  0  0  0  0  0  0  0  0  0  0  0
   61.0640   29.6780   45.7880 C   0  0  0  0  0  0  0  0  0  0  0  0
   61.6050   30.3668   45.1225 H   0  0  0  0  0  0  0  0  0  0  0  0
   60.6560   28.4280   45.3110 C   0  0  0  0  0  0  0  0  0  0  0  0
   60.8783   28.1398   44.2729 H   0  0  0  0  0  0  0  0  0  0  0  0
   57.7570   29.2650   44.7700 S   0  0  0  0  0  0  0  0  0  0  0  0
   57.0730   30.6150   44.0310 C   0  0  0  0  0  0  0  0  0  0  0  0
   57.8290   31.8080   43.5420 C   0  0  0  0  0  0  0  0  0  0  0  0
   58.7568   31.4755   43.0535 H   0  0  0  0  0  0  0  0  0  0  0  0
   57.2048   32.3600   42.8240 H   0  0  0  0  0  0  0  0  0  0  0  0
   58.1700   32.7120   44.6940 C   0  0  0  0  0  0  0  0  0  0  0  0
   57.7730   32.3750   45.9990 C   0  0  0  0  0  0  0  0  0  0  0  0
   57.1851   31.4620   46.1746 H   0  0  0  0  0  0  0  0  0  0  0  0
   58.1230   33.1970   47.0760 C   0  0  0  0  0  0  0  0  0  0  0  0
   57.8045   32.9331   48.0953 H   0  0  0  0  0  0  0  0  0  0  0  0
   58.8770   34.3530   46.8570 C   0  0  0  0  0  0  0  0  0  0  0  0
   59.1480   35.0007   47.7038 H   0  0  0  0  0  0  0  0  0  0  0  0
   59.2870   34.6870   45.5640 C   0  0  0  0  0  0  0  0  0  0  0  0
   59.8836   35.5955   45.3944 H   0  0  0  0  0  0  0  0  0  0  0  0
   58.9400   33.8680   44.4850 C   0  0  0  0  0  0  0  0  0  0  0  0
   59.2711   34.1299   43.4692 H   0  0  0  0  0  0  0  0  0  0  0  0
  1  2  1  0
  2  3  1  0
  3  4  1  0
  4  5  2  0
  5  6  1  0
  6  7  2  0
  6  8  1  0
  8  9  1  0
  8 10  1  0
  8 11  1  0
 11 12  1  0
 12 13  2  0
 13 14  1  0
 13 15  1  0
 15 16  1  0
 15 17  2  0
 17 18  1  0
 18 19  2  0
 18 20  1  0
 20 21  1  0
 21 22  1  0
 21 23  1  0
 21 24  1  0
 17 25  1  0
 25 26  1  0
 25 27  2  0
 27 28  1  0
  4 29  1  0
 29 30  1  0
 30 31  1  0
 31 32  1  0
 31 33  1  0
 31 34  1  0
 34 35  2  0
 35 36  1  0
 35 37  1  0
 37 38  1  0
 37 39  2  0
 39 40  1  0
 39 41  1  0
 41 42  1  0
 41 43  2  0
 43 44  1  0
 30  2  2  0
 43 34  1  0
 27 12  1  0
M  CHG  1   3  -1
M  END
>  <UniqueID>  (28) 
26

>  <SMILES>  (28) 
COC(=O)c1ccc(OCC(=O)/N=c2\[n-]cc(Cc3ccccc3)s2)cc1

>  <Energy>  (28) 
76.585311030383

>  <Genealogy>  (28) 
COC(=O)c1ccc(OCC(=O)N=c2[n-]cc(Cc3ccccc3)s2)cc1 (protonated)
COC(=O)c1ccc(OCC(=O)/N=c2\[n-]cc(Cc3ccccc3)s2)cc1 (cis-trans isomerization)
COC(=O)c1ccc(OCC(=O)/N=c2\[n-]cc(Cc3ccccc3)s2)cc1 (3D coordinates assigned)
COC(=O)c1ccc(OCC(=O)/N=c2\[n-]cc(Cc3ccccc3)s2)cc1 (optimized conformer: 76.585311030383 kcal/mol)

>  <smiles>  (28) 
COC(=O)c1ccc(OCC(=O)N=c2[nH]cc(Cc3ccccc3)s2)cc1

>  <score_type>  (28) 
oracle

>  <origin>  (28) 
adg

>  <m_score__min__energy>  (28) 
-9.7200000000000006

>  <m_primary>  (28) 
energy

$$$$
28:0
     RDKit          3D

 22 23  0  0  0  0  0  0  0  0999 V2000
   56.8130   30.9670   52.9390 C   0  0  0  0  0  0  0  0  0  0  0  0
   55.3470   30.6600   53.0180 C   0  0  0  0  0  0  0  0  0  0  0  0
   54.7610   30.3310   54.2490 C   0  0  0  0  0  0  0  0  0  0  0  0
   53.3880   30.0920   54.3310 C   0  0  0  0  0  0  0  0  0  0  0  0
   52.5880   30.1880   53.1900 C   0  0  0  0  0  0  0  0  0  0  0  0
   53.1550   30.5250   51.9480 C   0  0  0  0  0  0  0  0  0  0  0  0
   52.2960   30.6360   50.7470 C   0  0  0  0  0  0  0  0  0  0  0  0
   52.3170   29.7770   49.7110 N   0  0  0  0  0  0  0  0  0  0  0  0
   51.3930   30.2480   48.8520 C   0  0  0  0  0  0  0  0  0  0  0  0
   51.1270   29.6880   47.7550 O   0  0  0  0  0  0  0  0  0  0  0  0
   50.7770   31.3730   49.2680 N   0  0  0  0  0  0  0  0  0  0  0  0
   51.3550   31.6090   50.4600 C   0  0  0  0  0  0  0  0  0  0  0  0
   51.0470   32.7080   51.2520 O   0  0  0  0  0  0  0  0  0  0  0  0
   54.5390   30.7730   51.8760 C   0  0  0  0  0  0  0  0  0  0  0  0
   57.2248   31.0532   53.9553 H   0  0  0  0  0  0  0  0  0  0  0  0
   57.3287   30.1574   52.4019 H   0  0  0  0  0  0  0  0  0  0  0  0
   56.9606   31.9155   52.4019 H   0  0  0  0  0  0  0  0  0  0  0  0
   55.3849   30.2611   55.1523 H   0  0  0  0  0  0  0  0  0  0  0  0
   52.9346   29.8271   55.2976 H   0  0  0  0  0  0  0  0  0  0  0  0
   51.5069   29.9987   53.2635 H   0  0  0  0  0  0  0  0  0  0  0  0
   52.9000   28.9180   49.5980 H   0  0  0  0  0  0  0  0  0  0  0  0
   54.9917   31.0582   50.9149 H   0  0  0  0  0  0  0  0  0  0  0  0
  1  2  1  0
  2  3  2  0
  3  4  1  0
  4  5  2  0
  5  6  1  0
  6  7  1  0
  7  8  1  0
  8  9  1  0
  9 10  2  0
  9 11  1  0
 11 12  1  0
 12 13  1  0
  6 14  2  0
 14  2  1  0
 12  7  2  0
  1 15  1  0
  1 16  1  0
  1 17  1  0
  3 18  1  0
  4 19  1  0
  5 20  1  0
  8 21  1  0
 14 22  1  0
M  CHG  2  11  -1  13  -1
M  END
>  <UniqueID>  (29) 
27

>  <SMILES>  (29) 
Cc1cccc(-c2[nH]c(=O)[n-]c2[O-])c1

>  <Energy>  (29) 
56.13672362248788

>  <Genealogy>  (29) 
Cc1cccc(-c2[nH]c(=O)[n-]c2[O-])c1 (protonated)
Cc1cccc(-c2[nH]c(=O)[n-]c2[O-])c1 (3D coordinates assigned)
Cc1cccc(-c2[nH]c(=O)[n-]c2[O-])c1 (optimized conformer: 56.13672362248788 kcal/mol)

>  <smiles>  (29) 
Cc1cccc(-c2[nH]c(=O)[nH]c2O)c1

>  <score_type>  (29) 
oracle

>  <origin>  (29) 
adg

>  <m_score__min__energy>  (29) 
-12.210000000000001

>  <m_primary>  (29) 
energy

$$$$
29:0
     RDKit          3D

 22 23  0  0  0  0  0  0  0  0999 V2000
   55.1870   29.3380   44.8680 N   0  0  0  0  0  0  0  0  0  0  0  0
   56.5200   29.0110   45.2450 C   0  0  0  0  0  0  0  0  0  0  0  0
   56.9470   27.8380   45.0740 O   0  0  0  0  0  0  0  0  0  0  0  0
   57.3390   30.0090   45.8640 N   0  0  0  0  0  0  0  0  0  0  0  0
   57.7790   31.2450   45.2740 C   0  0  0  0  0  0  0  0  0  0  0  0
   57.6420   31.4730   43.8920 C   0  0  0  0  0  0  0  0  0  0  0  0
   58.0490   32.6810   43.3280 C   0  0  0  0  0  0  0  0  0  0  0  0
   58.5860   33.6880   44.1280 C   0  0  0  0  0  0  0  0  0  0  0  0
   58.7120   33.5010   45.5140 C   0  0  0  0  0  0  0  0  0  0  0  0
   59.2410   34.5190   46.3340 C   0  0  0  0  0  0  0  0  0  0  0  0
   59.6530   35.7320   45.7910 O   0  0  0  0  0  0  0  0  0  0  0  0
   59.3570   34.3190   47.7120 C   0  0  0  0  0  0  0  0  0  0  0  0
   58.9520   33.1140   48.2850 C   0  0  0  0  0  0  0  0  0  0  0  0
   58.4290   32.0950   47.4880 C   0  0  0  0  0  0  0  0  0  0  0  0
   58.2990   32.2710   46.0960 C   0  0  0  0  0  0  0  0  0  0  0  0
   54.4170   29.3470   45.5740 H   0  0  0  0  0  0  0  0  0  0  0  0
   57.2097   30.6906   43.2509 H   0  0  0  0  0  0  0  0  0  0  0  0
   57.9457   32.8405   42.2445 H   0  0  0  0  0  0  0  0  0  0  0  0
   58.9127   34.6339   43.6714 H   0  0  0  0  0  0  0  0  0  0  0  0
   59.7698   35.1160   48.3479 H   0  0  0  0  0  0  0  0  0  0  0  0
   59.0453   32.9659   49.3710 H   0  0  0  0  0  0  0  0  0  0  0  0
   58.1158   31.1471   47.9499 H   0  0  0  0  0  0  0  0  0  0  0  0
  1  2  1  0
  2  3  2  0
  2  4  1  0
  4  5  1  0
  5  6  2  0
  6  7  1  0
  7  8  2  0
  8  9  1  0
  9 10  2  0
 10 11  1  0
 10 12  1  0
 12 13  2  0
 13 14  1  0
 14 15  2  0
 15  5  1  0
 15  9  1  0
  1 16  1  0
  6 17  1  0
  7 18  1  0
  8 19  1  0
 12 20  1  0
 13 21  1  0
 14 22  1  0
M  CHG  3   1  -1   4  -1  11  -1
M  END
>  <UniqueID>  (30) 
28

>  <SMILES>  (30) 
[NH-]C(=O)[N-]c1cccc2c([O-])cccc12

>  <Energy>  (30) 
30.81060255434237

>  <Genealogy>  (30) 
[NH-]C(=O)[N-]c1cccc2c([O-])cccc12 (protonated)
[NH-]C(=O)[N-]c1cccc2c([O-])cccc12 (3D coordinates assigned)
[NH-]C(=O)[N-]c1cccc2c([O-])cccc12 (optimized conformer: 30.81060255434237 kcal/mol)

>  <smiles>  (30) 
NC(=O)Nc1cccc2c(O)cccc12

>  <score_type>  (30) 
oracle

>  <origin>  (30) 
adg

>  <m_score__min__energy>  (30) 
-11.699999999999999

>  <m_primary>  (30) 
energy

$$$$
30:0
     RDKit          3D

 45 47  0  0  0  0  0  0  0  0999 V2000
   63.6870   34.4080   51.2980 C   0  0  0  0  0  0  0  0  0  0  0  0
   63.1040   34.6980   50.0310 O   0  0  0  0  0  0  0  0  0  0  0  0
   62.1670   33.8780   49.3860 C   0  0  0  0  0  0  0  0  0  0  0  0
   60.7840   34.1430   49.4120 C   0  0  0  0  0  0  0  0  0  0  0  0
   59.8900   33.2940   48.7530 C   0  0  0  0  0  0  0  0  0  0  0  0
   60.3610   32.1640   48.0660 C   0  0  0  0  0  0  0  0  0  0  0  0
   59.4120   31.2700   47.3600 C   0  0  0  0  0  0  0  0  0  0  0  0
   58.7400   31.7700   46.2320 C   0  0  0  0  0  0  0  0  0  0  0  0
   57.9030   30.9480   45.4790 C   0  0  0  0  0  0  0  0  0  0  0  0
   57.7260   29.6080   45.8340 C   0  0  0  0  0  0  0  0  0  0  0  0
   56.6640   28.5710   44.8870 S   0  0  0  0  0  0  0  0  0  0  0  0
   55.1530   29.3700   44.6330 N   0  0  0  0  0  0  0  0  0  0  0  0
   56.4330   27.2780   45.6180 O   0  0  0  0  0  0  0  0  0  0  0  0
   57.2960   28.2670   43.5580 O   0  0  0  0  0  0  0  0  0  0  0  0
   58.3710   29.1010   46.9670 C   0  0  0  0  0  0  0  0  0  0  0  0
   59.2060   29.9200   47.7500 C   0  0  0  0  0  0  0  0  0  0  0  0
   59.8060   29.3500   48.9810 C   0  0  0  0  0  0  0  0  0  0  0  0
   60.9440   28.8110   48.9380 O   0  0  0  0  0  0  0  0  0  0  0  0
   59.1200   29.4830   50.2330 N   0  0  0  0  0  0  0  0  0  0  0  0
   59.0540   30.6680   51.0420 C   0  0  0  0  0  0  0  0  0  0  0  0
   57.8320   31.3310   51.2650 C   0  0  0  0  0  0  0  0  0  0  0  0
   57.7900   32.4960   52.0340 C   0  0  0  0  0  0  0  0  0  0  0  0
   58.9640   33.0220   52.5750 C   0  0  0  0  0  0  0  0  0  0  0  0
   58.9010   34.6180   53.6240 Br  0  0  0  0  0  0  0  0  0  0  0  0
   60.1860   32.3860   52.3400 C   0  0  0  0  0  0  0  0  0  0  0  0
   60.2420   31.2160   51.5690 C   0  0  0  0  0  0  0  0  0  0  0  0
   61.5080   30.5860   51.3380 N   0  0  0  0  0  0  0  0  0  0  0  0
   61.7410   31.9080   48.0290 C   0  0  0  0  0  0  0  0  0  0  0  0
   62.6330   32.7570   48.6890 C   0  0  0  0  0  0  0  0  0  0  0  0
   63.0112   34.7442   52.0982 H   0  0  0  0  0  0  0  0  0  0  0  0
   63.8500   33.3238   51.3871 H   0  0  0  0  0  0  0  0  0  0  0  0
   64.6500   34.9321   51.3871 H   0  0  0  0  0  0  0  0  0  0  0  0
   60.4054   35.0224   49.9536 H   0  0  0  0  0  0  0  0  0  0  0  0
   58.8121   33.5125   48.7729 H   0  0  0  0  0  0  0  0  0  0  0  0
   58.8759   32.8217   45.9398 H   0  0  0  0  0  0  0  0  0  0  0  0
   57.3796   31.3559   44.6017 H   0  0  0  0  0  0  0  0  0  0  0  0
   54.6380   29.3430   45.5410 H   0  0  0  0  0  0  0  0  0  0  0  0
   58.2237   28.0482   47.2498 H   0  0  0  0  0  0  0  0  0  0  0  0
   56.9047   30.9289   50.8308 H   0  0  0  0  0  0  0  0  0  0  0  0
   56.8291   33.0003   52.2138 H   0  0  0  0  0  0  0  0  0  0  0  0
   61.1105   32.8062   52.7628 H   0  0  0  0  0  0  0  0  0  0  0  0
   62.3880   30.9490   51.7670 H   0  0  0  0  0  0  0  0  0  0  0  0
   61.5780   29.7410   50.7270 H   0  0  0  0  0  0  0  0  0  0  0  0
   62.1215   31.0353   47.4780 H   0  0  0  0  0  0  0  0  0  0  0  0
   63.7115   32.5426   48.6607 H   0  0  0  0  0  0  0  0  0  0  0  0
  1  2  1  0
  2  3  1  0
  3  4  2  0
  4  5  1  0
  5  6  2  0
  6  7  1  0
  7  8  2  0
  8  9  1  0
  9 10  2  0
 10 11  1  0
 11 12  1  0
 11 13  2  0
 11 14  2  0
 10 15  1  0
 15 16  2  0
 16 17  1  0
 17 18  2  0
 17 19  1  0
 19 20  1  0
 20 21  2  0
 21 22  1  0
 22 23  2  0
 23 24  1  0
 23 25  1  0
 25 26  2  0
 26 27  1  0
  6 28  1  0
 28 29  2  0
 29  3  1  0
 16  7  1  0
 26 20  1  0
  1 30  1  0
  1 31  1  0
  1 32  1  0
  4 33  1  0
  5 34  1  0
  8 35  1  0
  9 36  1  0
 12 37  1  0
 15 38  1  0
 21 39  1  0
 22 40  1  0
 25 41  1  0
 27 42  1  0
 27 43  1  0
 28 44  1  0
 29 45  1  0
M  CHG  2  12  -1  19  -1
M  END
>  <UniqueID>  (31) 
29

>  <SMILES>  (31) 
COc1ccc(-c2ccc(S([NH-])(=O)=O)cc2C(=O)[N-]c2ccc(Br)cc2N)cc1

>  <Energy>  (31) 
60.34380840223464

>  <Genealogy>  (31) 
COc1ccc(-c2ccc(S([NH-])(=O)=O)cc2C(=O)[N-]c2ccc(Br)cc2N)cc1 (protonated)
COc1ccc(-c2ccc(S([NH-])(=O)=O)cc2C(=O)[N-]c2ccc(Br)cc2N)cc1 (3D coordinates assigned)
COc1ccc(-c2ccc(S([NH-])(=O)=O)cc2C(=O)[N-]c2ccc(Br)cc2N)cc1 (optimized conformer: 60.34380840223464 kcal/mol)

>  <smiles>  (31) 
COc1ccc(-c2ccc(S(N)(=O)=O)cc2C(=O)Nc2ccc(Br)cc2N)cc1

>  <score_type>  (31) 
oracle

>  <origin>  (31) 
adg

>  <m_score__min__energy>  (31) 
-11.5

>  <m_primary>  (31) 
energy

$$$$
31:0
     RDKit          3D

 42 44  0  0  0  0  0  0  0  0999 V2000
   61.9950   33.4460   52.0060 C   0  0  0  0  0  0  0  0  0  0  0  0
   62.1850   34.2330   50.8350 O   0  0  0  0  0  0  0  0  0  0  0  0
   62.0770   33.7920   49.4990 C   0  0  0  0  0  0  0  0  0  0  0  0
   63.2640   33.4000   48.8510 C   0  0  0  0  0  0  0  0  0  0  0  0
   64.5260   33.4410   49.5510 C   0  0  0  0  0  0  0  0  0  0  0  0
   65.5360   33.4740   50.1130 N   0  0  0  0  0  0  0  0  0  0  0  0
   63.2380   32.9630   47.5270 C   0  0  0  0  0  0  0  0  0  0  0  0
   62.0360   32.9220   46.8240 C   0  0  0  0  0  0  0  0  0  0  0  0
   60.8380   33.3140   47.4350 C   0  0  0  0  0  0  0  0  0  0  0  0
   59.5980   33.3060   46.6250 C   0  0  0  0  0  0  0  0  0  0  0  0
   59.1150   34.4910   46.0580 C   0  0  0  0  0  0  0  0  0  0  0  0
   57.9700   34.4540   45.2630 C   0  0  0  0  0  0  0  0  0  0  0  0
   57.3310   33.2760   45.0400 N   0  0  0  0  0  0  0  0  0  0  0  0
   57.7650   32.1010   45.5700 C   0  0  0  0  0  0  0  0  0  0  0  0
   57.1080   31.0110   45.2840 N   0  0  0  0  0  0  0  0  0  0  0  0
   57.6340   29.6790   45.1700 C   0  0  0  0  0  0  0  0  0  0  0  0
   58.8990   29.4920   44.6000 C   0  0  0  0  0  0  0  0  0  0  0  0
   59.4240   28.2030   44.4600 C   0  0  0  0  0  0  0  0  0  0  0  0
   58.6780   27.0920   44.8680 C   0  0  0  0  0  0  0  0  0  0  0  0
   57.3940   27.2660   45.4030 C   0  0  0  0  0  0  0  0  0  0  0  0
   56.4320   25.8810   45.9070 S   0  0  0  0  0  0  0  0  0  0  0  0
   54.7680   26.3370   46.0010 N   0  0  0  0  0  0  0  0  0  0  0  0
   56.8890   25.3930   47.2540 O   0  0  0  0  0  0  0  0  0  0  0  0
   56.5940   24.7690   44.9090 O   0  0  0  0  0  0  0  0  0  0  0  0
   56.8690   28.5600   45.5410 C   0  0  0  0  0  0  0  0  0  0  0  0
   58.9320   32.1000   46.3650 C   0  0  0  0  0  0  0  0  0  0  0  0
   60.8460   33.7250   48.7920 C   0  0  0  0  0  0  0  0  0  0  0  0
   59.6510   34.0360   49.4440 O   0  0  0  0  0  0  0  0  0  0  0  0
   62.1463   34.0725   52.8974 H   0  0  0  0  0  0  0  0  0  0  0  0
   60.9729   33.0395   52.0127 H   0  0  0  0  0  0  0  0  0  0  0  0
   62.7190   32.6179   52.0127 H   0  0  0  0  0  0  0  0  0  0  0  0
   64.1707   32.6493   47.0355 H   0  0  0  0  0  0  0  0  0  0  0  0
   62.0276   32.5785   45.7790 H   0  0  0  0  0  0  0  0  0  0  0  0
   59.6344   35.4438   46.2381 H   0  0  0  0  0  0  0  0  0  0  0  0
   57.5831   35.3812   44.8152 H   0  0  0  0  0  0  0  0  0  0  0  0
   59.4818   30.3613   44.2612 H   0  0  0  0  0  0  0  0  0  0  0  0
   60.4258   28.0626   44.0281 H   0  0  0  0  0  0  0  0  0  0  0  0
   59.0995   26.0808   44.7689 H   0  0  0  0  0  0  0  0  0  0  0  0
   54.7000   27.0950   46.7170 H   0  0  0  0  0  0  0  0  0  0  0  0
   55.8540   28.6991   45.9414 H   0  0  0  0  0  0  0  0  0  0  0  0
   59.3172   31.1564   46.7788 H   0  0  0  0  0  0  0  0  0  0  0  0
   59.6050   34.3530   50.4030 H   0  0  0  0  0  0  0  0  0  0  0  0
  1  2  1  0
  2  3  1  0
  3  4  2  0
  4  5  1  0
  5  6  3  0
  4  7  1  0
  7  8  2  0
  8  9  1  0
  9 10  1  0
 10 11  1  0
 11 12  2  0
 12 13  1  0
 13 14  1  0
 14 15  2  3
 15 16  1  0
 16 17  2  0
 17 18  1  0
 18 19  2  0
 19 20  1  0
 20 21  1  0
 21 22  1  0
 21 23  2  0
 21 24  2  0
 20 25  2  0
 14 26  1  0
  9 27  2  0
 27 28  1  0
 27  3  1  0
 26 10  2  0
 25 16  1  0
  1 29  1  0
  1 30  1  0
  1 31  1  0
  7 32  1  0
  8 33  1  0
 11 34  1  0
 12 35  1  0
 17 36  1  0
 18 37  1  0
 19 38  1  0
 22 39  1  0
 25 40  1  0
 26 41  1  0
 28 42  1  0
M  CHG  2  13  -1  22  -1
M  END
>  <UniqueID>  (32) 
30

>  <SMILES>  (32) 
COc1c(C#N)ccc(-c2cc[n-]c(=Nc3cccc(S([NH-])(=O)=O)c3)c2)c1O

>  <Energy>  (32) 
64.4602954714833

>  <Genealogy>  (32) 
COc1c(C#N)ccc(-c2cc[n-]c(=Nc3cccc(S([NH-])(=O)=O)c3)c2)c1O (protonated)
COc1c(C#N)ccc(-c2cc[n-]c(=Nc3cccc(S([NH-])(=O)=O)c3)c2)c1O (3D coordinates assigned)
COc1c(C#N)ccc(-c2cc[n-]c(=Nc3cccc(S([NH-])(=O)=O)c3)c2)c1O (optimized conformer: 64.4602954714833 kcal/mol)

>  <smiles>  (32) 
COc1c(C#N)ccc(-c2cc[nH]c(=Nc3cccc(S(N)(=O)=O)c3)c2)c1O

>  <score_type>  (32) 
oracle

>  <origin>  (32) 
adg

>  <m_score__min__energy>  (32) 
-12.68

>  <m_primary>  (32) 
energy

$$$$
32:0
     RDKit          3D

 49 51  0  0  0  0  0  0  0  0999 V2000
   54.7770   26.3420   45.9190 N   0  0  0  0  0  0  0  0  0  0  0  0
   56.0540   25.1850   46.0390 S   0  0  0  0  0  0  0  0  0  0  0  0
   55.9200   24.4240   47.3270 O   0  0  0  0  0  0  0  0  0  0  0  0
   55.9650   24.2140   44.8940 O   0  0  0  0  0  0  0  0  0  0  0  0
   57.6060   26.0170   45.9930 C   0  0  0  0  0  0  0  0  0  0  0  0
   58.7740   25.3570   46.3970 C   0  0  0  0  0  0  0  0  0  0  0  0
   59.9990   26.0280   46.3820 C   0  0  0  0  0  0  0  0  0  0  0  0
   60.0660   27.3590   45.9610 C   0  0  0  0  0  0  0  0  0  0  0  0
   58.9070   28.0290   45.5390 C   0  0  0  0  0  0  0  0  0  0  0  0
   58.9960   29.4030   45.1220 N   0  0  0  0  0  0  0  0  0  0  0  0
   57.9790   30.3810   45.3980 C   0  0  0  0  0  0  0  0  0  0  0  0
   56.7990   29.9980   45.6220 O   0  0  0  0  0  0  0  0  0  0  0  0
   58.2810   31.8330   45.3740 C   0  0  0  0  0  0  0  0  0  0  0  0
   57.5610   32.7100   44.5410 C   0  0  0  0  0  0  0  0  0  0  0  0
   57.8340   34.0800   44.5520 C   0  0  0  0  0  0  0  0  0  0  0  0
   58.8380   34.5900   45.3770 C   0  0  0  0  0  0  0  0  0  0  0  0
   59.5990   33.7290   46.1740 C   0  0  0  0  0  0  0  0  0  0  0  0
   60.6020   34.2830   47.0340 N   0  0  0  0  0  0  0  0  0  0  0  0
   61.9580   33.8370   47.1510 C   0  0  0  0  0  0  0  0  0  0  0  0
   62.7660   34.1240   46.2290 O   0  0  0  0  0  0  0  0  0  0  0  0
   62.3840   32.8740   48.2340 C   0  0  0  0  0  0  0  0  0  0  0  0
   62.1960   31.4010   47.8380 C   0  0  0  0  0  0  0  0  0  0  0  0
   60.9780   30.7920   48.4820 C   0  0  0  0  0  0  0  0  0  0  0  0
   60.0880   31.5980   49.2140 C   0  0  0  0  0  0  0  0  0  0  0  0
   58.9510   31.0380   49.8020 C   0  0  0  0  0  0  0  0  0  0  0  0
   58.7060   29.6660   49.6870 C   0  0  0  0  0  0  0  0  0  0  0  0
   59.5950   28.8550   48.9760 C   0  0  0  0  0  0  0  0  0  0  0  0
   60.7260   29.4150   48.3720 C   0  0  0  0  0  0  0  0  0  0  0  0
   59.3080   32.3560   46.1850 C   0  0  0  0  0  0  0  0  0  0  0  0
   57.6720   27.3540   45.5790 C   0  0  0  0  0  0  0  0  0  0  0  0
   54.9590   27.0730   46.6440 H   0  0  0  0  0  0  0  0  0  0  0  0
   58.7262   24.3086   46.7266 H   0  0  0  0  0  0  0  0  0  0  0  0
   60.9135   25.5074   46.7024 H   0  0  0  0  0  0  0  0  0  0  0  0
   61.0324   27.8845   45.9603 H   0  0  0  0  0  0  0  0  0  0  0  0
   59.7760   29.6680   44.4790 H   0  0  0  0  0  0  0  0  0  0  0  0
   56.7784   32.3140   43.8771 H   0  0  0  0  0  0  0  0  0  0  0  0
   57.2558   34.7593   43.9083 H   0  0  0  0  0  0  0  0  0  0  0  0
   59.0312   35.6727   45.4002 H   0  0  0  0  0  0  0  0  0  0  0  0
   63.4480   33.0441   48.4552 H   0  0  0  0  0  0  0  0  0  0  0  0
   61.7463   33.0624   49.1103 H   0  0  0  0  0  0  0  0  0  0  0  0
   62.0880   31.3386   46.7451 H   0  0  0  0  0  0  0  0  0  0  0  0
   63.0777   30.8419   48.1846 H   0  0  0  0  0  0  0  0  0  0  0  0
   60.2879   32.6741   49.3241 H   0  0  0  0  0  0  0  0  0  0  0  0
   58.2477   31.6771   50.3560 H   0  0  0  0  0  0  0  0  0  0  0  0
   57.8139   29.2252   50.1560 H   0  0  0  0  0  0  0  0  0  0  0  0
   59.4052   27.7748   48.8912 H   0  0  0  0  0  0  0  0  0  0  0  0
   61.4204   28.7742   47.8089 H   0  0  0  0  0  0  0  0  0  0  0  0
   59.8872   31.6816   46.8329 H   0  0  0  0  0  0  0  0  0  0  0  0
   56.7524   27.8800   45.2831 H   0  0  0  0  0  0  0  0  0  0  0  0
  1  2  1  0
  2  3  2  0
  2  4  2  0
  2  5  1  0
  5  6  2  0
  6  7  1  0
  7  8  2  0
  8  9  1  0
  9 10  1  0
 10 11  1  0
 11 12  2  0
 11 13  1  0
 13 14  2  0
 14 15  1  0
 15 16  2  0
 16 17  1  0
 17 18  1  0
 18 19  1  0
 19 20  2  0
 19 21  1  0
 21 22  1  0
 22 23  1  0
 23 24  2  0
 24 25  1  0
 25 26  2  0
 26 27  1  0
 27 28  2  0
 17 29  2  0
  9 30  2  0
 30  5  1  0
 29 13  1  0
 28 23  1  0
  1 31  1  0
  6 32  1  0
  7 33  1  0
  8 34  1  0
 10 35  1  0
 14 36  1  0
 15 37  1  0
 16 38  1  0
 21 39  1  0
 21 40  1  0
 22 41  1  0
 22 42  1  0
 24 43  1  0
 25 44  1  0
 26 45  1  0
 27 46  1  0
 28 47  1  0
 29 48  1  0
 30 49  1  0
M  CHG  2   1  -1  18  -1
M  END
>  <UniqueID>  (33) 
31

>  <SMILES>  (33) 
[NH-]S(=O)(=O)c1cccc(NC(=O)c2cccc([N-]C(=O)CCc3ccccc3)c2)c1

>  <Energy>  (33) 
57.73955748585535

>  <Genealogy>  (33) 
[NH-]S(=O)(=O)c1cccc(NC(=O)c2cccc([N-]C(=O)CCc3ccccc3)c2)c1 (protonated)
[NH-]S(=O)(=O)c1cccc(NC(=O)c2cccc([N-]C(=O)CCc3ccccc3)c2)c1 (3D coordinates assigned)
[NH-]S(=O)(=O)c1cccc(NC(=O)c2cccc([N-]C(=O)CCc3ccccc3)c2)c1 (optimized conformer: 57.73955748585535 kcal/mol)

>  <smiles>  (33) 
NS(=O)(=O)c1cccc(NC(=O)c2cccc(NC(=O)CCc3ccccc3)c2)c1

>  <score_type>  (33) 
oracle

>  <origin>  (33) 
adg

>  <m_score__min__energy>  (33) 
-13.369999999999999

>  <m_primary>  (33) 
energy

$$$$
33:0
     RDKit          3D

 54 58  0  0  0  0  0  0  0  0999 V2000
   58.8620   25.4109   47.9162 H   0  0  0  0  0  0  0  0  0  0  0  0
   58.7440   26.3920   47.4330 C   0  0  0  0  0  0  0  0  0  0  0  0
   58.1330   26.4300   46.2390 C   0  0  0  0  0  0  0  0  0  0  0  0
   58.1067   25.5024   45.6483 H   0  0  0  0  0  0  0  0  0  0  0  0
   57.4910   27.6340   45.6600 C   0  0  0  0  0  0  0  0  0  0  0  0
   56.0980   27.7490   45.5610 C   0  0  0  0  0  0  0  0  0  0  0  0
   55.2630   26.7210   45.9820 O   0  0  0  0  0  0  0  0  0  0  0  0
   55.5510   28.8650   45.0270 N   0  0  0  0  0  0  0  0  0  0  0  0
   56.3180   29.8800   44.5570 C   0  0  0  0  0  0  0  0  0  0  0  0
   55.7490   30.8980   44.0770 O   0  0  0  0  0  0  0  0  0  0  0  0
   57.6880   29.7940   44.6030 N   0  0  0  0  0  0  0  0  0  0  0  0
   58.5210   30.8790   44.0440 C   0  0  0  0  0  0  0  0  0  0  0  0
   59.5592   30.5274   43.9515 H   0  0  0  0  0  0  0  0  0  0  0  0
   58.1259   31.1580   43.0561 H   0  0  0  0  0  0  0  0  0  0  0  0
   58.4850   32.0870   44.9420 C   0  0  0  0  0  0  0  0  0  0  0  0
   58.4400   31.9340   46.3400 C   0  0  0  0  0  0  0  0  0  0  0  0
   58.4047   30.9265   46.7801 H   0  0  0  0  0  0  0  0  0  0  0  0
   58.4400   33.0580   47.1720 C   0  0  0  0  0  0  0  0  0  0  0  0
   58.4021   32.9321   48.2641 H   0  0  0  0  0  0  0  0  0  0  0  0
   58.4880   34.3400   46.6200 C   0  0  0  0  0  0  0  0  0  0  0  0
   58.4872   35.2224   47.2768 H   0  0  0  0  0  0  0  0  0  0  0  0
   58.5370   34.5010   45.2340 C   0  0  0  0  0  0  0  0  0  0  0  0
   58.5757   35.5109   44.7997 H   0  0  0  0  0  0  0  0  0  0  0  0
   58.5370   33.3810   44.3970 C   0  0  0  0  0  0  0  0  0  0  0  0
   58.5779   33.5137   43.3058 H   0  0  0  0  0  0  0  0  0  0  0  0
   58.2770   28.6740   45.1380 C   0  0  0  0  0  0  0  0  0  0  0  0
   59.5360   28.5770   45.1830 O   0  0  0  0  0  0  0  0  0  0  0  0
   59.2700   27.5770   48.1450 C   0  0  0  0  0  0  0  0  0  0  0  0
   58.5200   28.7630   48.1270 C   0  0  0  0  0  0  0  0  0  0  0  0
   57.5525   28.7903   47.6043 H   0  0  0  0  0  0  0  0  0  0  0  0
   58.9950   29.9090   48.7690 C   0  0  0  0  0  0  0  0  0  0  0  0
   58.3977   30.8326   48.7520 H   0  0  0  0  0  0  0  0  0  0  0  0
   60.2250   29.8890   49.4330 C   0  0  0  0  0  0  0  0  0  0  0  0
   60.6730   31.0690   50.1170 N   0  0  0  0  0  0  0  0  0  0  0  0
   61.5360   31.1470   51.0970 C   0  0  0  0  0  0  0  0  0  0  0  0
   61.2100   30.7490   52.4110 C   0  0  0  0  0  0  0  0  0  0  0  0
   60.2036   30.3661   52.6359 H   0  0  0  0  0  0  0  0  0  0  0  0
   62.1630   30.8410   53.4240 C   0  0  0  0  0  0  0  0  0  0  0  0
   61.9017   30.5414   54.4496 H   0  0  0  0  0  0  0  0  0  0  0  0
   63.4110   31.2980   53.1520 N   0  0  0  0  0  0  0  0  0  0  0  0
   63.7790   31.6750   51.9000 C   0  0  0  0  0  0  0  0  0  0  0  0
   65.0810   32.1330   51.6690 C   0  0  0  0  0  0  0  0  0  0  0  0
   65.7979   32.1886   52.5014 H   0  0  0  0  0  0  0  0  0  0  0  0
   65.4740   32.5200   50.3850 C   0  0  0  0  0  0  0  0  0  0  0  0
   67.1080   33.0930   50.1030 Cl  0  0  0  0  0  0  0  0  0  0  0  0
   64.5650   32.4530   49.3260 C   0  0  0  0  0  0  0  0  0  0  0  0
   64.8770   32.7586   48.3164 H   0  0  0  0  0  0  0  0  0  0  0  0
   63.2600   31.9990   49.5440 C   0  0  0  0  0  0  0  0  0  0  0  0
   62.5504   31.9507   48.7048 H   0  0  0  0  0  0  0  0  0  0  0  0
   62.8490   31.6030   50.8330 C   0  0  0  0  0  0  0  0  0  0  0  0
   60.9410   28.6840   49.5200 C   0  0  0  0  0  0  0  0  0  0  0  0
   61.8799   28.6466   50.0919 H   0  0  0  0  0  0  0  0  0  0  0  0
   60.4690   27.5320   48.8850 C   0  0  0  0  0  0  0  0  0  0  0  0
   61.1800   26.3450   49.0190 O   0  0  0  0  0  0  0  0  0  0  0  0
  1  2  1  0
  2  3  2  3
  3  4  1  0
  3  5  1  0
  5  6  2  0
  6  7  1  0
  6  8  1  0
  8  9  1  0
  9 10  2  0
  9 11  1  0
 11 12  1  0
 12 13  1  0
 12 14  1  0
 12 15  1  0
 15 16  2  0
 16 17  1  0
 16 18  1  0
 18 19  1  0
 18 20  2  0
 20 21  1  0
 20 22  1  0
 22 23  1  0
 22 24  2  0
 24 25  1  0
 11 26  1  0
 26 27  2  0
  2 28  1  0
 28 29  2  0
 29 30  1  0
 29 31  1  0
 31 32  1  0
 31 33  2  0
 33 34  1  0
 34 35  2  0
 35 36  1  0
 36 37  1  0
 36 38  2  0
 38 39  1  0
 38 40  1  0
 40 41  1  0
 41 42  2  0
 42 43  1  0
 42 44  1  0
 44 45  1  0
 44 46  2  0
 46 47  1  0
 46 48  1  0
 48 49  1  0
 48 50  2  0
 33 51  1  0
 51 52  1  0
 51 53  2  0
 53 54  1  0
 26  5  1  0
 53 28  1  0
 24 15  1  0
 50 35  1  0
 50 41  1  0
M  CHG  4   7  -1   8  -1  40  -1  54  -1
M  END
>  <UniqueID>  (34) 
32

>  <SMILES>  (34) 
O=c1[n-]c([O-])c(C=Cc2ccc(/N=c3\cc[n-]c4cc(Cl)ccc34)cc2[O-])c(=O)n1Cc1ccccc1

>  <Energy>  (34) 
92.92891277690391

>  <Genealogy>  (34) 
O=c1[n-]c([O-])c(C=Cc2ccc(N=c3cc[n-]c4cc(Cl)ccc34)cc2[O-])c(=O)n1Cc1ccccc1 (protonated)
O=c1[n-]c([O-])c(C=Cc2ccc(/N=c3\cc[n-]c4cc(Cl)ccc34)cc2[O-])c(=O)n1Cc1ccccc1 (cis-trans isomerization)
O=c1[n-]c([O-])c(C=Cc2ccc(/N=c3\cc[n-]c4cc(Cl)ccc34)cc2[O-])c(=O)n1Cc1ccccc1 (3D coordinates assigned)
O=c1[n-]c([O-])c(C=Cc2ccc(/N=c3\cc[n-]c4cc(Cl)ccc34)cc2[O-])c(=O)n1Cc1ccccc1 (optimized conformer: 92.92891277690391 kcal/mol)

>  <smiles>  (34) 
O=c1[nH]c(O)c(C=Cc2ccc(N=c3cc[nH]c4cc(Cl)ccc34)cc2O)c(=O)n1Cc1ccccc1

>  <score_type>  (34) 
oracle

>  <origin>  (34) 
adg

>  <m_score__min__energy>  (34) 
-17.489999999999998

>  <m_primary>  (34) 
energy

$$$$
34:0
     RDKit          3D

 53 56  0  0  0  0  0  0  0  0999 V2000
   58.0560   27.4880   47.0840 C   0  0  0  0  0  0  0  0  0  0  0  0
   58.9310   28.6780   46.8420 C   0  0  0  0  0  0  0  0  0  0  0  0
   59.7850   29.1580   47.7700 N   0  0  0  0  0  0  0  0  0  0  0  0
   60.3720   30.2170   47.1720 C   0  0  0  0  0  0  0  0  0  0  0  0
   61.4050   31.0590   47.8240 C   0  0  0  0  0  0  0  0  0  0  0  0
   62.0490   32.1010   47.1340 C   0  0  0  0  0  0  0  0  0  0  0  0
   63.0170   32.8730   47.7770 C   0  0  0  0  0  0  0  0  0  0  0  0
   63.3400   32.6020   49.1060 C   0  0  0  0  0  0  0  0  0  0  0  0
   62.7130   31.5930   49.7680 N   0  0  0  0  0  0  0  0  0  0  0  0
   61.7650   30.8250   49.1630 C   0  0  0  0  0  0  0  0  0  0  0  0
   59.8630   30.3640   45.8940 C   0  0  0  0  0  0  0  0  0  0  0  0
   58.9530   29.3940   45.6960 N   0  0  0  0  0  0  0  0  0  0  0  0
   58.2150   29.1420   44.4560 C   0  0  0  0  0  0  0  0  0  0  0  0
   57.1310   30.2070   44.2380 C   0  0  0  0  0  0  0  0  0  0  0  0
   57.7120   31.5540   44.0410 N   0  0  0  0  0  0  0  0  0  0  0  0
   57.7590   31.9020   42.6120 C   0  0  0  0  0  0  0  0  0  0  0  0
   57.0730   32.6210   44.8530 C   0  0  0  0  0  0  0  0  0  0  0  0
   58.0310   33.3780   45.7500 C   0  0  0  0  0  0  0  0  0  0  0  0
   58.7600   34.4680   45.2500 C   0  0  0  0  0  0  0  0  0  0  0  0
   59.6460   35.1590   46.0770 C   0  0  0  0  0  0  0  0  0  0  0  0
   59.8180   34.7690   47.4060 C   0  0  0  0  0  0  0  0  0  0  0  0
   59.1050   33.6760   47.9290 C   0  0  0  0  0  0  0  0  0  0  0  0
   59.2910   33.2670   49.3450 C   0  0  0  0  0  0  0  0  0  0  0  0
   60.1500   33.8500   50.2790 C   0  0  0  0  0  0  0  0  0  0  0  0
   60.1090   33.2370   51.5380 C   0  0  0  0  0  0  0  0  0  0  0  0
   59.2250   32.1710   51.6140 C   0  0  0  0  0  0  0  0  0  0  0  0
   58.4970   31.9910   50.1110 S   0  0  0  0  0  0  0  0  0  0  0  0
   58.2200   32.9780   47.0840 C   0  0  0  0  0  0  0  0  0  0  0  0
   57.9410   27.3316   48.1667 H   0  0  0  0  0  0  0  0  0  0  0  0
   57.0684   27.6610   46.6316 H   0  0  0  0  0  0  0  0  0  0  0  0
   58.5156   26.5969   46.6316 H   0  0  0  0  0  0  0  0  0  0  0  0
   61.7892   32.3080   46.0853 H   0  0  0  0  0  0  0  0  0  0  0  0
   63.5216   33.6894   47.2395 H   0  0  0  0  0  0  0  0  0  0  0  0
   64.1030   33.2052   49.6198 H   0  0  0  0  0  0  0  0  0  0  0  0
   62.9650   31.4010   50.7630 H   0  0  0  0  0  0  0  0  0  0  0  0
   61.2772   30.0156   49.7260 H   0  0  0  0  0  0  0  0  0  0  0  0
   60.1518   31.1380   45.1677 H   0  0  0  0  0  0  0  0  0  0  0  0
   58.9163   29.1631   43.6088 H   0  0  0  0  0  0  0  0  0  0  0  0
   57.7306   28.1571   44.5291 H   0  0  0  0  0  0  0  0  0  0  0  0
   56.5436   29.9394   43.3473 H   0  0  0  0  0  0  0  0  0  0  0  0
   56.4974   30.2373   45.1367 H   0  0  0  0  0  0  0  0  0  0  0  0
   57.9055   32.9868   42.5034 H   0  0  0  0  0  0  0  0  0  0  0  0
   58.5934   31.3695   42.1322 H   0  0  0  0  0  0  0  0  0  0  0  0
   56.8133   31.6099   42.1322 H   0  0  0  0  0  0  0  0  0  0  0  0
   56.6014   33.3403   44.1673 H   0  0  0  0  0  0  0  0  0  0  0  0
   56.3482   32.1233   45.5140 H   0  0  0  0  0  0  0  0  0  0  0  0
   58.6324   34.7786   44.2025 H   0  0  0  0  0  0  0  0  0  0  0  0
   60.2115   36.0149   45.6799 H   0  0  0  0  0  0  0  0  0  0  0  0
   60.5177   35.3218   48.0500 H   0  0  0  0  0  0  0  0  0  0  0  0
   60.7973   34.7089   50.0481 H   0  0  0  0  0  0  0  0  0  0  0  0
   60.7218   33.5706   52.3884 H   0  0  0  0  0  0  0  0  0  0  0  0
   59.0341   31.5518   52.5029 H   0  0  0  0  0  0  0  0  0  0  0  0
   57.6698   32.1087   47.4733 H   0  0  0  0  0  0  0  0  0  0  0  0
  1  2  1  0
  2  3  2  0
  3  4  1  0
  4  5  1  0
  5  6  2  0
  6  7  1  0
  7  8  2  0
  8  9  1  0
  9 10  2  0
  4 11  2  0
 11 12  1  0
 12 13  1  0
 13 14  1  0
 14 15  1  0
 15 16  1  0
 15 17  1  0
 17 18  1  0
 18 19  2  0
 19 20  1  0
 20 21  2  0
 21 22  1  0
 22 23  1  0
 23 24  2  0
 24 25  1  0
 25 26  2  0
 26 27  1  0
 22 28  2  0
 12  2  1  0
 28 18  1  0
 10  5  1  0
 27 23  1  0
  1 29  1  0
  1 30  1  0
  1 31  1  0
  6 32  1  0
  7 33  1  0
  8 34  1  0
  9 35  1  0
 10 36  1  0
 11 37  1  0
 13 38  1  0
 13 39  1  0
 14 40  1  0
 14 41  1  0
 16 42  1  0
 16 43  1  0
 16 44  1  0
 17 45  1  0
 17 46  1  0
 19 47  1  0
 20 48  1  0
 21 49  1  0
 24 50  1  0
 25 51  1  0
 26 52  1  0
 28 53  1  0
M  CHG  1   9   1
M  END
>  <UniqueID>  (35) 
33

>  <SMILES>  (35) 
Cc1nc(-c2ccc[nH+]c2)cn1CCN(C)Cc1cccc(-c2cccs2)c1

>  <Energy>  (35) 
115.3731774031604

>  <Genealogy>  (35) 
Cc1nc(-c2ccc[nH+]c2)cn1CCN(C)Cc1cccc(-c2cccs2)c1 (protonated)
Cc1nc(-c2ccc[nH+]c2)cn1CCN(C)Cc1cccc(-c2cccs2)c1 (3D coordinates assigned)
Cc1nc(-c2ccc[nH+]c2)cn1CCN(C)Cc1cccc(-c2cccs2)c1 (optimized conformer: 115.3731774031604 kcal/mol)

>  <smiles>  (35) 
Cc1nc(-c2cccnc2)cn1CCN(C)Cc1cccc(-c2cccs2)c1

>  <score_type>  (35) 
oracle

>  <origin>  (35) 
adg

>  <m_score__min__energy>  (35) 
-8.0800000000000001

>  <m_primary>  (35) 
energy

$$$$
35:0
     RDKit          3D

 43 45  0  0  0  0  0  0  0  0999 V2000
   56.6670   32.0390   50.5230 H   0  0  0  0  0  0  0  0  0  0  0  0
   57.7050   31.9460   50.5880 N   0  0  0  0  0  0  0  0  0  0  0  0
   58.0260   30.6080   51.6330 S   0  0  0  0  0  0  0  0  0  0  0  0
   56.7310   29.9390   51.9980 O   0  0  0  0  0  0  0  0  0  0  0  0
   58.6860   31.0990   52.8920 O   0  0  0  0  0  0  0  0  0  0  0  0
   59.0850   29.4640   50.8160 C   0  0  0  0  0  0  0  0  0  0  0  0
   60.0380   28.7380   51.5420 C   0  0  0  0  0  0  0  0  0  0  0  0
   60.1426   28.8987   52.6252 H   0  0  0  0  0  0  0  0  0  0  0  0
   60.8550   27.8110   50.8930 C   0  0  0  0  0  0  0  0  0  0  0  0
   61.5989   27.2392   51.4672 H   0  0  0  0  0  0  0  0  0  0  0  0
   60.7310   27.6070   49.5160 C   0  0  0  0  0  0  0  0  0  0  0  0
   61.3727   26.8694   49.0119 H   0  0  0  0  0  0  0  0  0  0  0  0
   59.7900   28.3400   48.7720 C   0  0  0  0  0  0  0  0  0  0  0  0
   59.6090   28.1210   47.3620 N   0  0  0  0  0  0  0  0  0  0  0  0
   59.8620   28.8960   46.7080 H   0  0  0  0  0  0  0  0  0  0  0  0
   59.1250   26.8960   46.7910 C   0  0  0  0  0  0  0  0  0  0  0  0
   59.1960   25.8150   47.4360 O   0  0  0  0  0  0  0  0  0  0  0  0
   58.5200   26.9010   45.4230 C   0  0  0  0  0  0  0  0  0  0  0  0
   57.7939   26.0788   45.3405 H   0  0  0  0  0  0  0  0  0  0  0  0
   59.3125   26.7681   44.6719 H   0  0  0  0  0  0  0  0  0  0  0  0
   57.8250   28.2050   45.1880 C   0  0  0  0  0  0  0  0  0  0  0  0
   58.5960   29.6660   44.8680 S   0  0  0  0  0  0  0  0  0  0  0  0
   57.1530   30.5440   44.9010 C   0  0  0  0  0  0  0  0  0  0  0  0
   57.0260   31.8210   44.6840 N   0  0  0  0  0  0  0  0  0  0  0  0
   57.8150   32.8630   45.2770 C   0  0  0  0  0  0  0  0  0  0  0  0
   58.1700   33.9720   44.4990 C   0  0  0  0  0  0  0  0  0  0  0  0
   57.8607   34.0222   43.4446 H   0  0  0  0  0  0  0  0  0  0  0  0
   58.9150   35.0150   45.0550 C   0  0  0  0  0  0  0  0  0  0  0  0
   59.2122   35.8710   44.4314 H   0  0  0  0  0  0  0  0  0  0  0  0
   59.2830   34.9720   46.4020 C   0  0  0  0  0  0  0  0  0  0  0  0
   59.8865   35.7853   46.8313 H   0  0  0  0  0  0  0  0  0  0  0  0
   58.8860   33.8960   47.2090 C   0  0  0  0  0  0  0  0  0  0  0  0
   59.2880   33.8440   48.6530 C   0  0  0  0  0  0  0  0  0  0  0  0
   58.3960   33.9594   49.2863 H   0  0  0  0  0  0  0  0  0  0  0  0
   59.7662   32.8765   48.8659 H   0  0  0  0  0  0  0  0  0  0  0  0
   59.9966   34.6580   48.8659 H   0  0  0  0  0  0  0  0  0  0  0  0
   58.1570   32.8400   46.6410 C   0  0  0  0  0  0  0  0  0  0  0  0
   57.8510   31.9886   47.2667 H   0  0  0  0  0  0  0  0  0  0  0  0
   56.0880   29.7500   45.1460 N   0  0  0  0  0  0  0  0  0  0  0  0
   56.4620   28.4550   45.3210 C   0  0  0  0  0  0  0  0  0  0  0  0
   55.5350   27.4630   45.6150 O   0  0  0  0  0  0  0  0  0  0  0  0
   58.9560   29.2540   49.4360 C   0  0  0  0  0  0  0  0  0  0  0  0
   58.1951   29.8099   48.8685 H   0  0  0  0  0  0  0  0  0  0  0  0
  1  2  1  0
  2  3  1  0
  3  4  2  0
  3  5  2  0
  3  6  1  0
  6  7  2  0
  7  8  1  0
  7  9  1  0
  9 10  1  0
  9 11  2  0
 11 12  1  0
 11 13  1  0
 13 14  1  0
 14 15  1  0
 14 16  1  0
 16 17  2  0
 16 18  1  0
 18 19  1  0
 18 20  1  0
 18 21  1  0
 21 22  1  0
 22 23  1  0
 23 24  2  0
 24 25  1  0
 25 26  2  0
 26 27  1  0
 26 28  1  0
 28 29  1  0
 28 30  2  0
 30 31  1  0
 30 32  1  0
 32 33  1  0
 33 34  1  0
 33 35  1  0
 33 36  1  0
 32 37  2  0
 37 38  1  0
 23 39  1  0
 39 40  1  0
 40 41  1  0
 13 42  2  0
 42 43  1  0
 42  6  1  0
 40 21  2  0
 37 25  1  0
M  CHG  3   2  -1  39  -1  41  -1
M  END
>  <UniqueID>  (36) 
34

>  <SMILES>  (36) 
Cc1cccc(/N=c2/[n-]c([O-])c(CC(=O)Nc3cccc(S([NH-])(=O)=O)c3)s2)c1

>  <Energy>  (36) 
82.5273841720722

>  <Genealogy>  (36) 
Cc1cccc(N=c2[n-]c([O-])c(CC(=O)Nc3cccc(S([NH-])(=O)=O)c3)s2)c1 (protonated)
Cc1cccc(/N=c2/[n-]c([O-])c(CC(=O)Nc3cccc(S([NH-])(=O)=O)c3)s2)c1 (cis-trans isomerization)
Cc1cccc(/N=c2/[n-]c([O-])c(CC(=O)Nc3cccc(S([NH-])(=O)=O)c3)s2)c1 (3D coordinates assigned)
Cc1cccc(/N=c2/[n-]c([O-])c(CC(=O)Nc3cccc(S([NH-])(=O)=O)c3)s2)c1 (optimized conformer: 82.5273841720722 kcal/mol)

>  <smiles>  (36) 
Cc1cccc(N=c2[nH]c(O)c(CC(=O)Nc3cccc(S(N)(=O)=O)c3)s2)c1

>  <score_type>  (36) 
oracle

>  <origin>  (36) 
adg

>  <m_score__min__energy>  (36) 
-14.99

>  <m_primary>  (36) 
energy

$$$$
36:0
     RDKit          3D

 47 49  0  0  0  0  0  0  0  0999 V2000
   60.3720   27.4900   47.4000 C   0  0  0  0  0  0  0  0  0  0  0  0
   59.9020   27.6780   48.6370 C   0  0  0  0  0  0  0  0  0  0  0  0
   60.7700   28.2100   49.7460 C   0  0  0  0  0  0  0  0  0  0  0  0
   60.5280   29.6530   49.9380 N   0  0  0  0  0  0  0  0  0  0  0  0
   61.4850   30.4870   49.1620 C   0  0  0  0  0  0  0  0  0  0  0  0
   60.9370   30.9230   47.7960 C   0  0  0  0  0  0  0  0  0  0  0  0
   59.6250   31.5590   47.9470 N   0  0  0  0  0  0  0  0  0  0  0  0
   59.0990   32.3770   46.8920 C   0  0  0  0  0  0  0  0  0  0  0  0
   59.0860   33.7710   47.0370 C   0  0  0  0  0  0  0  0  0  0  0  0
   58.6120   34.5840   46.0050 C   0  0  0  0  0  0  0  0  0  0  0  0
   58.1400   34.0080   44.8240 C   0  0  0  0  0  0  0  0  0  0  0  0
   58.1370   32.6200   44.6730 C   0  0  0  0  0  0  0  0  0  0  0  0
   58.6210   31.7920   45.7010 C   0  0  0  0  0  0  0  0  0  0  0  0
   58.5400   30.3630   45.5860 N   0  0  0  0  0  0  0  0  0  0  0  0
   57.3760   29.6750   45.0940 C   0  0  0  0  0  0  0  0  0  0  0  0
   56.3180   30.3210   44.8640 O   0  0  0  0  0  0  0  0  0  0  0  0
   57.3980   28.2140   44.8440 C   0  0  0  0  0  0  0  0  0  0  0  0
   56.9920   27.3240   45.8550 C   0  0  0  0  0  0  0  0  0  0  0  0
   56.9940   25.9440   45.6300 C   0  0  0  0  0  0  0  0  0  0  0  0
   57.3930   25.4360   44.3920 C   0  0  0  0  0  0  0  0  0  0  0  0
   57.3920   23.7040   44.1100 Cl  0  0  0  0  0  0  0  0  0  0  0  0
   57.7860   26.3100   43.3740 C   0  0  0  0  0  0  0  0  0  0  0  0
   57.7880   27.6900   43.5950 C   0  0  0  0  0  0  0  0  0  0  0  0
   58.8860   31.4090   49.2000 C   0  0  0  0  0  0  0  0  0  0  0  0
   59.0950   29.9860   49.7230 C   0  0  0  0  0  0  0  0  0  0  0  0
   59.7096   27.0995   46.6134 H   0  0  0  0  0  0  0  0  0  0  0  0
   61.4212   27.7258   47.1685 H   0  0  0  0  0  0  0  0  0  0  0  0
   58.8503   27.4370   48.8510 H   0  0  0  0  0  0  0  0  0  0  0  0
   60.5357   27.6755   50.6784 H   0  0  0  0  0  0  0  0  0  0  0  0
   61.8260   28.0566   49.4790 H   0  0  0  0  0  0  0  0  0  0  0  0
   61.7192   31.3877   49.7484 H   0  0  0  0  0  0  0  0  0  0  0  0
   62.3777   29.8721   48.9751 H   0  0  0  0  0  0  0  0  0  0  0  0
   61.6354   31.6387   47.3378 H   0  0  0  0  0  0  0  0  0  0  0  0
   60.8295   30.0345   47.1564 H   0  0  0  0  0  0  0  0  0  0  0  0
   59.4512   34.2273   47.9689 H   0  0  0  0  0  0  0  0  0  0  0  0
   58.6106   35.6777   46.1226 H   0  0  0  0  0  0  0  0  0  0  0  0
   57.7696   34.6492   44.0106 H   0  0  0  0  0  0  0  0  0  0  0  0
   57.7538   32.1717   43.7445 H   0  0  0  0  0  0  0  0  0  0  0  0
   59.4050   29.8200   45.8010 H   0  0  0  0  0  0  0  0  0  0  0  0
   56.6703   27.7170   46.8307 H   0  0  0  0  0  0  0  0  0  0  0  0
   56.6806   25.2570   46.4299 H   0  0  0  0  0  0  0  0  0  0  0  0
   58.0944   25.9105   42.3966 H   0  0  0  0  0  0  0  0  0  0  0  0
   58.0960   28.3719   42.7887 H   0  0  0  0  0  0  0  0  0  0  0  0
   59.2585   32.1338   49.9389 H   0  0  0  0  0  0  0  0  0  0  0  0
   57.8151   31.5929   49.0289 H   0  0  0  0  0  0  0  0  0  0  0  0
   58.5632   29.8823   50.6803 H   0  0  0  0  0  0  0  0  0  0  0  0
   58.7061   29.2941   48.9614 H   0  0  0  0  0  0  0  0  0  0  0  0
  1  2  2  0
  2  3  1  0
  3  4  1  0
  4  5  1  0
  5  6  1  0
  6  7  1  0
  7  8  1  0
  8  9  2  0
  9 10  1  0
 10 11  2  0
 11 12  1  0
 12 13  2  0
 13 14  1  0
 14 15  1  0
 15 16  2  0
 15 17  1  0
 17 18  2  0
 18 19  1  0
 19 20  2  0
 20 21  1  0
 20 22  1  0
 22 23  2  0
  7 24  1  0
 24 25  1  0
 25  4  1  0
 13  8  1  0
 23 17  1  0
  1 26  1  0
  1 27  1  0
  2 28  1  0
  3 29  1  0
  3 30  1  0
  5 31  1  0
  5 32  1  0
  6 33  1  0
  6 34  1  0
  9 35  1  0
 10 36  1  0
 11 37  1  0
 12 38  1  0
 14 39  1  0
 18 40  1  0
 19 41  1  0
 22 42  1  0
 23 43  1  0
 24 44  1  0
 24 45  1  0
 25 46  1  0
 25 47  1  0
M  END
>  <UniqueID>  (37) 
35

>  <SMILES>  (37) 
C=CCN1CCN(c2ccccc2NC(=O)c2ccc(Cl)cc2)CC1

>  <Energy>  (37) 
64.6427729816646

>  <Genealogy>  (37) 
C=CCN1CCN(c2ccccc2NC(=O)c2ccc(Cl)cc2)CC1 (3D coordinates assigned)
C=CCN1CCN(c2ccccc2NC(=O)c2ccc(Cl)cc2)CC1 (nonaromatic ring conformer: 64.6427729816646 kcal/mol)

>  <smiles>  (37) 
C=CCN1CCN(c2ccccc2NC(=O)c2ccc(Cl)cc2)CC1

>  <score_type>  (37) 
oracle

>  <origin>  (37) 
adg

>  <m_score__min__energy>  (37) 
-7.3700000000000001

>  <m_primary>  (37) 
energy

$$$$
37:0
     RDKit          3D

 24 25  0  0  0  0  0  0  0  0999 V2000
   56.6470   29.7540   42.7270 C   0  0  0  0  0  0  0  0  0  0  0  0
   56.4780   29.9440   44.4890 S   0  0  0  0  0  0  0  0  0  0  0  0
   55.1480   29.3840   44.9090 O   0  0  0  0  0  0  0  0  0  0  0  0
   56.5310   31.3970   44.8690 O   0  0  0  0  0  0  0  0  0  0  0  0
   57.7320   29.0690   45.3080 N   0  0  0  0  0  0  0  0  0  0  0  0
   57.6060   27.7590   45.8770 C   0  0  0  0  0  0  0  0  0  0  0  0
   58.7170   27.2050   46.5300 C   0  0  0  0  0  0  0  0  0  0  0  0
   58.6440   25.9300   47.1000 C   0  0  0  0  0  0  0  0  0  0  0  0
   57.4560   25.2000   47.0300 C   0  0  0  0  0  0  0  0  0  0  0  0
   56.3430   25.7410   46.3700 C   0  0  0  0  0  0  0  0  0  0  0  0
   56.4150   27.0140   45.7940 C   0  0  0  0  0  0  0  0  0  0  0  0
   55.1540   24.9590   46.2510 N   0  0  0  0  0  0  0  0  0  0  0  0
   55.0660   23.6840   46.8900 C   0  0  0  0  0  0  0  0  0  0  0  0
   54.0540   22.9590   46.7040 O   0  0  0  0  0  0  0  0  0  0  0  0
   56.1420   23.2490   47.8460 C   0  0  0  0  0  0  0  0  0  0  0  0
   57.3810   23.9200   47.5920 O   0  0  0  0  0  0  0  0  0  0  0  0
   57.3640   28.9479   42.5122 H   0  0  0  0  0  0  0  0  0  0  0  0
   55.6696   29.5014   42.2900 H   0  0  0  0  0  0  0  0  0  0  0  0
   57.0118   30.6953   42.2900 H   0  0  0  0  0  0  0  0  0  0  0  0
   59.6536   27.7783   46.5943 H   0  0  0  0  0  0  0  0  0  0  0  0
   59.5232   25.5020   47.6038 H   0  0  0  0  0  0  0  0  0  0  0  0
   55.5398   27.4329   45.2758 H   0  0  0  0  0  0  0  0  0  0  0  0
   55.8187   23.4748   48.8729 H   0  0  0  0  0  0  0  0  0  0  0  0
   56.3036   22.1693   47.7111 H   0  0  0  0  0  0  0  0  0  0  0  0
  1  2  1  0
  2  3  2  0
  2  4  2  0
  2  5  1  0
  5  6  1  0
  6  7  2  0
  7  8  1  0
  8  9  2  0
  9 10  1  0
 10 11  2  0
 10 12  1  0
 12 13  1  0
 13 14  2  0
 13 15  1  0
 15 16  1  0
 11  6  1  0
 16  9  1  0
  1 17  1  0
  1 18  1  0
  1 19  1  0
  7 20  1  0
  8 21  1  0
 11 22  1  0
 15 23  1  0
 15 24  1  0
M  CHG  2   5  -1  12  -1
M  END
>  <UniqueID>  (38) 
36

>  <SMILES>  (38) 
CS(=O)(=O)[N-]c1ccc2c(c1)[N-]C(=O)CO2

>  <Energy>  (38) 
24.847806234352863

>  <Genealogy>  (38) 
CS(=O)(=O)[N-]c1ccc2c(c1)[N-]C(=O)CO2 (protonated)
CS(=O)(=O)[N-]c1ccc2c(c1)[N-]C(=O)CO2 (3D coordinates assigned)
CS(=O)(=O)[N-]c1ccc2c(c1)[N-]C(=O)CO2 (nonaromatic ring conformer: 24.847806234352863 kcal/mol)

>  <smiles>  (38) 
CS(=O)(=O)Nc1ccc2c(c1)NC(=O)CO2

>  <score_type>  (38) 
oracle

>  <origin>  (38) 
adg

>  <m_score__min__energy>  (38) 
-9.3000000000000007

>  <m_primary>  (38) 
energy

$$$$
38:0
     RDKit          3D

 65 68  0  0  0  0  0  0  0  0999 V2000
   61.4100   28.2420   43.8100 H   0  0  0  0  0  0  0  0  0  0  0  0
   60.7930   28.8020   44.3860 O   0  0  0  0  0  0  0  0  0  0  0  0
   59.6570   28.2590   44.9850 C   0  0  0  0  0  0  0  0  0  0  0  0
   59.7370   27.0380   45.6710 C   0  0  0  0  0  0  0  0  0  0  0  0
   60.6998   26.5102   45.7377 H   0  0  0  0  0  0  0  0  0  0  0  0
   58.5910   26.4840   46.2750 C   0  0  0  0  0  0  0  0  0  0  0  0
   58.6130   25.2640   46.9710 O   0  0  0  0  0  0  0  0  0  0  0  0
   58.1180   24.0170   46.4810 C   0  0  0  0  0  0  0  0  0  0  0  0
   58.3825   23.9194   45.4177 H   0  0  0  0  0  0  0  0  0  0  0  0
   58.5722   23.2073   47.0710 H   0  0  0  0  0  0  0  0  0  0  0  0
   56.5940   23.9260   46.6270 C   0  0  0  0  0  0  0  0  0  0  0  0
   56.3201   22.8899   46.8751 H   0  0  0  0  0  0  0  0  0  0  0  0
   56.2824   24.6158   47.4252 H   0  0  0  0  0  0  0  0  0  0  0  0
   55.8790   24.3340   45.3330 C   0  0  0  0  0  0  0  0  0  0  0  0
   56.5173   25.0349   44.7751 H   0  0  0  0  0  0  0  0  0  0  0  0
   55.6883   23.4288   44.7379 H   0  0  0  0  0  0  0  0  0  0  0  0
   54.5680   24.9950   45.6290 C   0  0  0  0  0  0  0  0  0  0  0  0
   53.4930   24.3380   45.5680 O   0  0  0  0  0  0  0  0  0  0  0  0
   54.5360   26.3410   45.9840 O   0  0  0  0  0  0  0  0  0  0  0  0
   57.3760   27.1700   46.1890 C   0  0  0  0  0  0  0  0  0  0  0  0
   56.4778   26.7493   46.6647 H   0  0  0  0  0  0  0  0  0  0  0  0
   57.2920   28.3840   45.5050 C   0  0  0  0  0  0  0  0  0  0  0  0
   56.3275   28.9083   45.4351 H   0  0  0  0  0  0  0  0  0  0  0  0
   58.4310   28.9360   44.9080 C   0  0  0  0  0  0  0  0  0  0  0  0
   58.3240   30.2180   44.1850 C   0  0  0  0  0  0  0  0  0  0  0  0
   58.0828   30.1721   43.1127 H   0  0  0  0  0  0  0  0  0  0  0  0
   58.4990   31.4580   44.7340 C   0  0  0  0  0  0  0  0  0  0  0  0
   58.2890   32.6510   43.9710 C   0  0  0  0  0  0  0  0  0  0  0  0
   57.9510   32.6800   42.6700 C   0  0  0  0  0  0  0  0  0  0  0  0
   57.8143   31.7395   42.1162 H   0  0  0  0  0  0  0  0  0  0  0  0
   57.8112   33.6442   42.1594 H   0  0  0  0  0  0  0  0  0  0  0  0
   58.4370   33.8560   44.5760 N   0  0  0  0  0  0  0  0  0  0  0  0
   58.7830   33.9940   45.8740 C   0  0  0  0  0  0  0  0  0  0  0  0
   58.8910   35.1560   46.3530 O   0  0  0  0  0  0  0  0  0  0  0  0
   59.0100   32.8890   46.6460 N   0  0  0  0  0  0  0  0  0  0  0  0
   59.3440   33.0400   48.0780 C   0  0  0  0  0  0  0  0  0  0  0  0
   58.8990   33.9714   48.4581 H   0  0  0  0  0  0  0  0  0  0  0  0
   58.9438   32.1778   48.6315 H   0  0  0  0  0  0  0  0  0  0  0  0
   60.8380   33.0910   48.2640 C   0  0  0  0  0  0  0  0  0  0  0  0
   61.6700   32.1830   47.5890 C   0  0  0  0  0  0  0  0  0  0  0  0
   61.2311   31.4469   46.8994 H   0  0  0  0  0  0  0  0  0  0  0  0
   63.0520   32.2100   47.7890 C   0  0  0  0  0  0  0  0  0  0  0  0
   63.6940   31.4931   47.2563 H   0  0  0  0  0  0  0  0  0  0  0  0
   63.6270   33.1410   48.6610 C   0  0  0  0  0  0  0  0  0  0  0  0
   65.0200   33.1300   48.8100 O   0  0  0  0  0  0  0  0  0  0  0  0
   65.8450   33.0550   50.3080 S   0  0  0  0  0  0  0  0  0  0  0  0
   65.2350   34.0140   51.2890 O   0  0  0  0  0  0  0  0  0  0  0  0
   67.2910   33.4050   50.0910 O   0  0  0  0  0  0  0  0  0  0  0  0
   65.7180   31.4210   50.9410 C   0  0  0  0  0  0  0  0  0  0  0  0
   64.4660   30.8820   51.2740 C   0  0  0  0  0  0  0  0  0  0  0  0
   63.5545   31.4827   51.1389 H   0  0  0  0  0  0  0  0  0  0  0  0
   64.3780   29.5800   51.7780 C   0  0  0  0  0  0  0  0  0  0  0  0
   63.3970   29.1612   52.0469 H   0  0  0  0  0  0  0  0  0  0  0  0
   65.5340   28.8090   51.9410 C   0  0  0  0  0  0  0  0  0  0  0  0
   65.4615   27.7861   52.3390 H   0  0  0  0  0  0  0  0  0  0  0  0
   66.7810   29.3390   51.5980 C   0  0  0  0  0  0  0  0  0  0  0  0
   67.6888   28.7296   51.7184 H   0  0  0  0  0  0  0  0  0  0  0  0
   66.8760   30.6430   51.1020 C   0  0  0  0  0  0  0  0  0  0  0  0
   67.8590   31.0599   50.8376 H   0  0  0  0  0  0  0  0  0  0  0  0
   62.7930   34.0470   49.3460 C   0  0  0  0  0  0  0  0  0  0  0  0
   63.2325   34.7800   50.0386 H   0  0  0  0  0  0  0  0  0  0  0  0
   61.4100   34.0180   49.1490 C   0  0  0  0  0  0  0  0  0  0  0  0
   60.7657   34.7260   49.6908 H   0  0  0  0  0  0  0  0  0  0  0  0
   58.8790   31.6340   46.1020 C   0  0  0  0  0  0  0  0  0  0  0  0
   59.0990   30.6310   46.8380 O   0  0  0  0  0  0  0  0  0  0  0  0
  1  2  1  0
  2  3  1  0
  3  4  2  0
  4  5  1  0
  4  6  1  0
  6  7  1  0
  7  8  1  0
  8  9  1  0
  8 10  1  0
  8 11  1  0
 11 12  1  0
 11 13  1  0
 11 14  1  0
 14 15  1  0
 14 16  1  0
 14 17  1  0
 17 18  2  0
 17 19  1  0
  6 20  2  0
 20 21  1  0
 20 22  1  0
 22 23  1  0
 22 24  2  0
 24 25  1  0
 25 26  1  0
 25 27  2  0
 27 28  1  0
 28 29  2  0
 29 30  1  0
 29 31  1  0
 28 32  1  0
 32 33  1  0
 33 34  2  0
 33 35  1  0
 35 36  1  0
 36 37  1  0
 36 38  1  0
 36 39  1  0
 39 40  2  0
 40 41  1  0
 40 42  1  0
 42 43  1  0
 42 44  2  0
 44 45  1  0
 45 46  1  0
 46 47  2  0
 46 48  2  0
 46 49  1  0
 49 50  2  0
 50 51  1  0
 50 52  1  0
 52 53  1  0
 52 54  2  0
 54 55  1  0
 54 56  1  0
 56 57  1  0
 56 58  2  0
 58 59  1  0
 44 60  1  0
 60 61  1  0
 60 62  2  0
 62 63  1  0
 35 64  1  0
 64 65  2  0
 24  3  1  0
 64 27  1  0
 62 39  1  0
 58 49  1  0
M  CHG  2  19  -1  32  -1
M  END
>  <UniqueID>  (39) 
37

>  <SMILES>  (39) 
C=c1[n-]c(=O)n(Cc2ccc(OS(=O)(=O)c3ccccc3)cc2)c(=O)/c1=C\c1ccc(OCCCC(=O)[O-])cc1O

>  <Energy>  (39) 
91.09670430504622

>  <Genealogy>  (39) 
C=c1[n-]c(=O)n(Cc2ccc(OS(=O)(=O)c3ccccc3)cc2)c(=O)c1=Cc1ccc(OCCCC(=O)[O-])cc1O (protonated)
C=c1[n-]c(=O)n(Cc2ccc(OS(=O)(=O)c3ccccc3)cc2)c(=O)/c1=C\c1ccc(OCCCC(=O)[O-])cc1O (cis-trans isomerization)
C=c1[n-]c(=O)n(Cc2ccc(OS(=O)(=O)c3ccccc3)cc2)c(=O)/c1=C\c1ccc(OCCCC(=O)[O-])cc1O (3D coordinates assigned)
C=c1[n-]c(=O)n(Cc2ccc(OS(=O)(=O)c3ccccc3)cc2)c(=O)/c1=C\c1ccc(OCCCC(=O)[O-])cc1O (optimized conformer: 91.09670430504622 kcal/mol)

>  <smiles>  (39) 
C=c1[nH]c(=O)n(Cc2ccc(OS(=O)(=O)c3ccccc3)cc2)c(=O)c1=Cc1ccc(OCCCC(=O)O)cc1O

>  <score_type>  (39) 
oracle

>  <origin>  (39) 
adg

>  <m_score__min__energy>  (39) 
-17.23

>  <m_primary>  (39) 
energy

$$$$
39:0
     RDKit          3D

 53 56  0  0  0  0  0  0  0  0999 V2000
   56.0850   28.6780   45.2230 O   0  0  0  0  0  0  0  0  0  0  0  0
   57.1780   29.0490   44.7150 C   0  0  0  0  0  0  0  0  0  0  0  0
   58.0100   28.0780   44.0600 N   0  0  0  0  0  0  0  0  0  0  0  0
   58.0480   26.7000   44.4620 C   0  0  0  0  0  0  0  0  0  0  0  0
   57.3940   25.7460   43.6650 C   0  0  0  0  0  0  0  0  0  0  0  0
   57.4060   24.3940   44.0180 C   0  0  0  0  0  0  0  0  0  0  0  0
   58.0800   23.9800   45.1650 C   0  0  0  0  0  0  0  0  0  0  0  0
   58.7530   24.9120   45.9580 C   0  0  0  0  0  0  0  0  0  0  0  0
   58.7540   26.2750   45.6150 C   0  0  0  0  0  0  0  0  0  0  0  0
   59.5370   27.1880   46.4050 N   0  0  0  0  0  0  0  0  0  0  0  0
   60.5170   28.0560   45.7350 C   0  0  0  0  0  0  0  0  0  0  0  0
   60.7700   29.3860   46.4900 C   0  0  0  0  0  0  0  0  0  0  0  0
   60.0130   29.5380   47.6760 O   0  0  0  0  0  0  0  0  0  0  0  0
   60.1230   28.3800   48.4680 C   0  0  0  0  0  0  0  0  0  0  0  0
   59.2740   27.2840   47.8470 C   0  0  0  0  0  0  0  0  0  0  0  0
   57.5750   30.4810   44.7760 C   0  0  0  0  0  0  0  0  0  0  0  0
   57.3900   31.3280   43.6690 C   0  0  0  0  0  0  0  0  0  0  0  0
   57.7880   32.6630   43.7230 C   0  0  0  0  0  0  0  0  0  0  0  0
   58.3770   33.1810   44.8790 C   0  0  0  0  0  0  0  0  0  0  0  0
   58.8750   34.8680   44.8680 Cl  0  0  0  0  0  0  0  0  0  0  0  0
   58.5770   32.3470   45.9980 C   0  0  0  0  0  0  0  0  0  0  0  0
   59.3820   32.9630   47.4490 S   0  0  0  0  0  0  0  0  0  0  0  0
   59.2950   31.9780   48.5830 O   0  0  0  0  0  0  0  0  0  0  0  0
   58.7100   34.2360   47.8710 O   0  0  0  0  0  0  0  0  0  0  0  0
   61.0440   33.2930   47.0770 N   0  0  0  0  0  0  0  0  0  0  0  0
   62.0840   33.2680   48.0580 C   0  0  0  0  0  0  0  0  0  0  0  0
   62.0180   34.1580   49.1440 C   0  0  0  0  0  0  0  0  0  0  0  0
   63.0290   34.1630   50.1130 C   0  0  0  0  0  0  0  0  0  0  0  0
   64.0860   33.2480   50.0280 C   0  0  0  0  0  0  0  0  0  0  0  0
   64.1310   32.3290   48.9730 C   0  0  0  0  0  0  0  0  0  0  0  0
   63.1440   32.3420   47.9810 C   0  0  0  0  0  0  0  0  0  0  0  0
   63.1920   31.4170   46.9890 F   0  0  0  0  0  0  0  0  0  0  0  0
   58.1780   31.0040   45.9390 C   0  0  0  0  0  0  0  0  0  0  0  0
   58.4170   28.3300   43.1350 H   0  0  0  0  0  0  0  0  0  0  0  0
   56.8672   26.0663   42.7540 H   0  0  0  0  0  0  0  0  0  0  0  0
   56.8835   23.6569   43.3906 H   0  0  0  0  0  0  0  0  0  0  0  0
   58.0820   22.9167   45.4466 H   0  0  0  0  0  0  0  0  0  0  0  0
   59.2871   24.5763   46.8591 H   0  0  0  0  0  0  0  0  0  0  0  0
   61.4698   27.5119   45.6560 H   0  0  0  0  0  0  0  0  0  0  0  0
   60.1055   28.3132   44.7478 H   0  0  0  0  0  0  0  0  0  0  0  0
   61.8367   29.4341   46.7542 H   0  0  0  0  0  0  0  0  0  0  0  0
   60.4590   30.1954   45.8131 H   0  0  0  0  0  0  0  0  0  0  0  0
   61.1737   28.0569   48.5077 H   0  0  0  0  0  0  0  0  0  0  0  0
   59.7754   28.5902   49.4902 H   0  0  0  0  0  0  0  0  0  0  0  0
   59.5165   26.3232   48.3245 H   0  0  0  0  0  0  0  0  0  0  0  0
   58.2118   27.5249   48.0008 H   0  0  0  0  0  0  0  0  0  0  0  0
   56.9272   30.9338   42.7523 H   0  0  0  0  0  0  0  0  0  0  0  0
   57.6371   33.3134   42.8488 H   0  0  0  0  0  0  0  0  0  0  0  0
   61.1697   34.8526   49.2330 H   0  0  0  0  0  0  0  0  0  0  0  0
   62.9930   34.8859   50.9413 H   0  0  0  0  0  0  0  0  0  0  0  0
   64.8799   33.2515   50.7894 H   0  0  0  0  0  0  0  0  0  0  0  0
   64.9466   31.5926   48.9235 H   0  0  0  0  0  0  0  0  0  0  0  0
   58.3371   30.3508   46.8097 H   0  0  0  0  0  0  0  0  0  0  0  0
  1  2  2  0
  2  3  1  0
  3  4  1  0
  4  5  2  0
  5  6  1  0
  6  7  2  0
  7  8  1  0
  8  9  2  0
  9 10  1  0
 10 11  1  0
 11 12  1  0
 12 13  1  0
 13 14  1  0
 14 15  1  0
  2 16  1  0
 16 17  2  0
 17 18  1  0
 18 19  2  0
 19 20  1  0
 19 21  1  0
 21 22  1  0
 22 23  2  0
 22 24  2  0
 22 25  1  0
 25 26  1  0
 26 27  2  0
 27 28  1  0
 28 29  2  0
 29 30  1  0
 30 31  2  0
 31 32  1  0
 21 33  2  0
  9  4  1  0
 15 10  1  0
 33 16  1  0
 31 26  1  0
  3 34  1  0
  5 35  1  0
  6 36  1  0
  7 37  1  0
  8 38  1  0
 11 39  1  0
 11 40  1  0
 12 41  1  0
 12 42  1  0
 14 43  1  0
 14 44  1  0
 15 45  1  0
 15 46  1  0
 17 47  1  0
 18 48  1  0
 27 49  1  0
 28 50  1  0
 29 51  1  0
 30 52  1  0
 33 53  1  0
M  CHG  1  25  -1
M  END
>  <UniqueID>  (40) 
38

>  <SMILES>  (40) 
O=C(Nc1ccccc1N1CCOCC1)c1ccc(Cl)c(S(=O)(=O)[N-]c2ccccc2F)c1

>  <Energy>  (40) 
81.6344852177925

>  <Genealogy>  (40) 
O=C(Nc1ccccc1N1CCOCC1)c1ccc(Cl)c(S(=O)(=O)[N-]c2ccccc2F)c1 (protonated)
O=C(Nc1ccccc1N1CCOCC1)c1ccc(Cl)c(S(=O)(=O)[N-]c2ccccc2F)c1 (3D coordinates assigned)
O=C(Nc1ccccc1N1CCOCC1)c1ccc(Cl)c(S(=O)(=O)[N-]c2ccccc2F)c1 (nonaromatic ring conformer: 81.6344852177925 kcal/mol)

>  <smiles>  (40) 
O=C(Nc1ccccc1N1CCOCC1)c1ccc(Cl)c(S(=O)(=O)Nc2ccccc2F)c1

>  <score_type>  (40) 
oracle

>  <origin>  (40) 
adg

>  <m_score__min__energy>  (40) 
-11.449999999999999

>  <m_primary>  (40) 
energy

$$$$
40:0
     RDKit          3D

 40 42  0  0  0  0  0  0  0  0999 V2000
   59.2950   26.8850   45.8580 O   0  0  0  0  0  0  0  0  0  0  0  0
   58.1680   26.4030   45.5660 C   0  0  0  0  0  0  0  0  0  0  0  0
   57.7440   26.3080   44.1320 C   0  0  0  0  0  0  0  0  0  0  0  0
   58.1640   27.5490   43.3270 C   0  0  0  0  0  0  0  0  0  0  0  0
   57.7810   28.8390   43.9930 C   0  0  0  0  0  0  0  0  0  0  0  0
   58.6460   29.8190   44.3180 N   0  0  0  0  0  0  0  0  0  0  0  0
   57.8200   30.7350   44.8690 C   0  0  0  0  0  0  0  0  0  0  0  0
   58.2650   32.0610   45.3420 C   0  0  0  0  0  0  0  0  0  0  0  0
   58.1620   33.1860   44.5050 C   0  0  0  0  0  0  0  0  0  0  0  0
   58.5420   34.4490   44.9680 C   0  0  0  0  0  0  0  0  0  0  0  0
   59.0330   34.6020   46.2710 C   0  0  0  0  0  0  0  0  0  0  0  0
   59.4090   35.8570   46.7460 O   0  0  0  0  0  0  0  0  0  0  0  0
   59.1440   33.4870   47.1060 C   0  0  0  0  0  0  0  0  0  0  0  0
   58.7630   32.2230   46.6470 C   0  0  0  0  0  0  0  0  0  0  0  0
   56.5370   30.3210   44.8870 N   0  0  0  0  0  0  0  0  0  0  0  0
   56.5550   29.1440   44.3410 O   0  0  0  0  0  0  0  0  0  0  0  0
   57.2650   25.9850   46.5940 N   0  0  0  0  0  0  0  0  0  0  0  0
   55.8970   24.9640   46.3030 S   0  0  0  0  0  0  0  0  0  0  0  0
   55.5360   24.2670   47.5860 O   0  0  0  0  0  0  0  0  0  0  0  0
   54.7170   25.7810   45.8600 O   0  0  0  0  0  0  0  0  0  0  0  0
   56.3090   23.7820   45.0640 C   0  0  0  0  0  0  0  0  0  0  0  0
   55.5860   23.7200   43.8640 C   0  0  0  0  0  0  0  0  0  0  0  0
   55.9170   22.7680   42.8930 C   0  0  0  0  0  0  0  0  0  0  0  0
   56.9670   21.8740   43.1190 C   0  0  0  0  0  0  0  0  0  0  0  0
   57.6860   21.9280   44.3160 C   0  0  0  0  0  0  0  0  0  0  0  0
   57.3590   22.8790   45.2870 C   0  0  0  0  0  0  0  0  0  0  0  0
   58.2084   25.4182   43.6820 H   0  0  0  0  0  0  0  0  0  0  0  0
   56.6465   26.2390   44.1046 H   0  0  0  0  0  0  0  0  0  0  0  0
   59.2565   27.5311   43.2003 H   0  0  0  0  0  0  0  0  0  0  0  0
   57.6373   27.5084   42.3621 H   0  0  0  0  0  0  0  0  0  0  0  0
   57.7801   33.0716   43.4798 H   0  0  0  0  0  0  0  0  0  0  0  0
   58.4553   35.3246   44.3078 H   0  0  0  0  0  0  0  0  0  0  0  0
   58.8940   36.3180   47.4860 H   0  0  0  0  0  0  0  0  0  0  0  0
   59.5327   33.6045   48.1283 H   0  0  0  0  0  0  0  0  0  0  0  0
   58.8532   31.3501   47.3103 H   0  0  0  0  0  0  0  0  0  0  0  0
   54.7572   24.4209   43.6856 H   0  0  0  0  0  0  0  0  0  0  0  0
   55.3503   22.7234   41.9513 H   0  0  0  0  0  0  0  0  0  0  0  0
   57.2276   21.1275   42.3543 H   0  0  0  0  0  0  0  0  0  0  0  0
   58.5101   21.2215   44.4944 H   0  0  0  0  0  0  0  0  0  0  0  0
   57.9266   22.9193   46.2284 H   0  0  0  0  0  0  0  0  0  0  0  0
  1  2  2  0
  2  3  1  0
  3  4  1  0
  4  5  1  0
  5  6  2  0
  6  7  1  0
  7  8  1  0
  8  9  2  0
  9 10  1  0
 10 11  2  0
 11 12  1  0
 11 13  1  0
 13 14  2  0
  7 15  2  0
 15 16  1  0
  2 17  1  0
 17 18  1  0
 18 19  2  0
 18 20  2  0
 18 21  1  0
 21 22  2  0
 22 23  1  0
 23 24  2  0
 24 25  1  0
 25 26  2  0
 16  5  1  0
 26 21  1  0
 14  8  1  0
  3 27  1  0
  3 28  1  0
  4 29  1  0
  4 30  1  0
  9 31  1  0
 10 32  1  0
 12 33  1  0
 13 34  1  0
 14 35  1  0
 22 36  1  0
 23 37  1  0
 24 38  1  0
 25 39  1  0
 26 40  1  0
M  CHG  1  17  -1
M  END
>  <UniqueID>  (41) 
39

>  <SMILES>  (41) 
O=C(CCc1nc(-c2ccc(O)cc2)no1)[N-]S(=O)(=O)c1ccccc1

>  <Energy>  (41) 
68.73888328291649

>  <Genealogy>  (41) 
O=C(CCc1nc(-c2ccc(O)cc2)no1)[N-]S(=O)(=O)c1ccccc1 (protonated)
O=C(CCc1nc(-c2ccc(O)cc2)no1)[N-]S(=O)(=O)c1ccccc1 (3D coordinates assigned)
O=C(CCc1nc(-c2ccc(O)cc2)no1)[N-]S(=O)(=O)c1ccccc1 (optimized conformer: 68.73888328291649 kcal/mol)

>  <smiles>  (41) 
O=C(CCc1nc(-c2ccc(O)cc2)no1)NS(=O)(=O)c1ccccc1

>  <score_type>  (41) 
oracle

>  <origin>  (41) 
adg

>  <m_score__min__energy>  (41) 
-10.779999999999999

>  <m_primary>  (41) 
energy

$$$$
41:0
     RDKit          3D

 29 30  0  0  0  0  0  0  0  0999 V2000
   50.2780   33.6600   53.3980 C   0  0  0  0  0  0  0  0  0  0  0  0
   50.6590   33.3560   52.0600 O   0  0  0  0  0  0  0  0  0  0  0  0
   51.2280   32.1390   51.6520 C   0  0  0  0  0  0  0  0  0  0  0  0
   51.8120   31.2390   52.5660 C   0  0  0  0  0  0  0  0  0  0  0  0
   52.3870   30.0400   52.1170 C   0  0  0  0  0  0  0  0  0  0  0  0
   52.9720   29.1080   53.1100 C   0  0  0  0  0  0  0  0  0  0  0  0
   54.1380   29.2920   53.7510 C   0  0  0  0  0  0  0  0  0  0  0  0
   55.4610   29.3930   53.0940 C   0  0  0  0  0  0  0  0  0  0  0  0
   56.4930   28.5170   53.4660 C   0  0  0  0  0  0  0  0  0  0  0  0
   56.2740   27.5370   54.4300 O   0  0  0  0  0  0  0  0  0  0  0  0
   57.7130   28.6180   52.8740 N   0  0  0  0  0  0  0  0  0  0  0  0
   57.9620   29.5640   51.9340 C   0  0  0  0  0  0  0  0  0  0  0  0
   59.0970   29.6320   51.3960 O   0  0  0  0  0  0  0  0  0  0  0  0
   56.9880   30.4390   51.5770 N   0  0  0  0  0  0  0  0  0  0  0  0
   55.7530   30.3850   52.1390 C   0  0  0  0  0  0  0  0  0  0  0  0
   54.8880   31.2380   51.8080 O   0  0  0  0  0  0  0  0  0  0  0  0
   52.3340   29.7210   50.7490 C   0  0  0  0  0  0  0  0  0  0  0  0
   51.7570   30.6110   49.8420 C   0  0  0  0  0  0  0  0  0  0  0  0
   51.2100   31.8160   50.2880 C   0  0  0  0  0  0  0  0  0  0  0  0
   50.6400   32.6930   49.3720 O   0  0  0  0  0  0  0  0  0  0  0  0
   50.9416   33.1305   54.0975 H   0  0  0  0  0  0  0  0  0  0  0  0
   50.3592   34.7442   53.5650 H   0  0  0  0  0  0  0  0  0  0  0  0
   49.2389   33.3401   53.5650 H   0  0  0  0  0  0  0  0  0  0  0  0
   51.8172   31.4782   53.6397 H   0  0  0  0  0  0  0  0  0  0  0  0
   52.4064   28.1931   53.3403 H   0  0  0  0  0  0  0  0  0  0  0  0
   54.1076   29.3739   54.8475 H   0  0  0  0  0  0  0  0  0  0  0  0
   56.9820   27.3180   55.1210 H   0  0  0  0  0  0  0  0  0  0  0  0
   52.7487   28.7667   50.3922 H   0  0  0  0  0  0  0  0  0  0  0  0
   51.7330   30.3622   48.7708 H   0  0  0  0  0  0  0  0  0  0  0  0
  1  2  1  0
  2  3  1  0
  3  4  2  0
  4  5  1  0
  5  6  1  0
  6  7  2  3
  7  8  1  0
  8  9  2  0
  9 10  1  0
  9 11  1  0
 11 12  1  0
 12 13  2  0
 12 14  1  0
 14 15  1  0
 15 16  2  0
  5 17  2  0
 17 18  1  0
 18 19  2  0
 19 20  1  0
 19  3  1  0
 15  8  1  0
  1 21  1  0
  1 22  1  0
  1 23  1  0
  4 24  1  0
  6 25  1  0
  7 26  1  0
 10 27  1  0
 17 28  1  0
 18 29  1  0
M  CHG  3  11  -1  14  -1  20  -1
M  END
>  <UniqueID>  (42) 
40

>  <SMILES>  (42) 
COc1cc(C=Cc2c(O)[n-]c(=O)[n-]c2=O)ccc1[O-]

>  <Energy>  (42) 
41.6665630243567

>  <Genealogy>  (42) 
COc1cc(C=Cc2c(O)[n-]c(=O)[n-]c2=O)ccc1[O-] (protonated)
COc1cc(C=Cc2c(O)[n-]c(=O)[n-]c2=O)ccc1[O-] (3D coordinates assigned)
COc1cc(C=Cc2c(O)[n-]c(=O)[n-]c2=O)ccc1[O-] (optimized conformer: 41.6665630243567 kcal/mol)

>  <smiles>  (42) 
COc1cc(C=Cc2c(O)[nH]c(=O)[nH]c2=O)ccc1O

>  <score_type>  (42) 
oracle

>  <origin>  (42) 
adg

>  <m_score__min__energy>  (42) 
-12.56

>  <m_primary>  (42) 
energy

$$$$
42:0
     RDKit          3D

 42 45  0  0  0  0  0  0  0  0999 V2000
   60.9630   34.7860   48.5700 O   0  0  0  0  0  0  0  0  0  0  0  0
   60.4860   33.8160   47.9210 C   0  0  0  0  0  0  0  0  0  0  0  0
   59.3320   33.9930   47.2290 N   0  0  0  0  0  0  0  0  0  0  0  0
   58.7820   32.9910   46.5020 C   0  0  0  0  0  0  0  0  0  0  0  0
   57.5900   33.2070   45.8030 C   0  0  0  0  0  0  0  0  0  0  0  0
   57.0180   32.1730   45.0570 C   0  0  0  0  0  0  0  0  0  0  0  0
   57.6320   30.9150   45.0060 C   0  0  0  0  0  0  0  0  0  0  0  0
   56.9010   29.6030   44.0860 S   0  0  0  0  0  0  0  0  0  0  0  0
   57.9890   28.8430   43.3820 O   0  0  0  0  0  0  0  0  0  0  0  0
   55.9380   30.1430   43.0650 O   0  0  0  0  0  0  0  0  0  0  0  0
   56.0500   28.5300   45.1530 N   0  0  0  0  0  0  0  0  0  0  0  0
   56.6470   27.3700   45.7630 C   0  0  0  0  0  0  0  0  0  0  0  0
   58.0380   27.2870   45.9750 C   0  0  0  0  0  0  0  0  0  0  0  0
   58.6000   26.1500   46.5610 C   0  0  0  0  0  0  0  0  0  0  0  0
   57.7840   25.0860   46.9500 C   0  0  0  0  0  0  0  0  0  0  0  0
   56.4030   25.1590   46.7550 C   0  0  0  0  0  0  0  0  0  0  0  0
   55.8340   26.2930   46.1670 C   0  0  0  0  0  0  0  0  0  0  0  0
   54.4560   26.3380   45.9790 O   0  0  0  0  0  0  0  0  0  0  0  0
   58.8330   30.6980   45.6970 C   0  0  0  0  0  0  0  0  0  0  0  0
   59.4120   31.7340   46.4540 C   0  0  0  0  0  0  0  0  0  0  0  0
   60.6050   31.5600   47.1770 C   0  0  0  0  0  0  0  0  0  0  0  0
   61.1860   30.4380   47.1700 O   0  0  0  0  0  0  0  0  0  0  0  0
   61.1280   32.6030   47.9000 N   0  0  0  0  0  0  0  0  0  0  0  0
   62.3540   32.4250   48.6400 C   0  0  0  0  0  0  0  0  0  0  0  0
   62.4140   31.5050   49.7000 C   0  0  0  0  0  0  0  0  0  0  0  0
   63.6030   31.3320   50.4150 C   0  0  0  0  0  0  0  0  0  0  0  0
   64.7380   32.0750   50.0790 C   0  0  0  0  0  0  0  0  0  0  0  0
   65.8900   31.9070   50.7730 F   0  0  0  0  0  0  0  0  0  0  0  0
   64.6850   32.9930   49.0250 C   0  0  0  0  0  0  0  0  0  0  0  0
   63.4980   33.1680   48.3080 C   0  0  0  0  0  0  0  0  0  0  0  0
   57.1021   34.1922   45.8405 H   0  0  0  0  0  0  0  0  0  0  0  0
   56.0813   32.3478   44.5073 H   0  0  0  0  0  0  0  0  0  0  0  0
   55.0260   28.7000   45.2660 H   0  0  0  0  0  0  0  0  0  0  0  0
   58.6863   28.1241   45.6767 H   0  0  0  0  0  0  0  0  0  0  0  0
   59.6875   26.0930   46.7162 H   0  0  0  0  0  0  0  0  0  0  0  0
   58.2284   24.1909   47.4097 H   0  0  0  0  0  0  0  0  0  0  0  0
   55.7607   24.3216   47.0650 H   0  0  0  0  0  0  0  0  0  0  0  0
   59.3242   29.7150   45.6473 H   0  0  0  0  0  0  0  0  0  0  0  0
   61.5227   30.9189   49.9683 H   0  0  0  0  0  0  0  0  0  0  0  0
   63.6452   30.6097   51.2436 H   0  0  0  0  0  0  0  0  0  0  0  0
   65.5783   33.5777   48.7601 H   0  0  0  0  0  0  0  0  0  0  0  0
   63.4600   33.8911   47.4799 H   0  0  0  0  0  0  0  0  0  0  0  0
  1  2  2  0
  2  3  1  0
  3  4  1  0
  4  5  2  0
  5  6  1  0
  6  7  2  0
  7  8  1  0
  8  9  2  0
  8 10  2  0
  8 11  1  0
 11 12  1  0
 12 13  2  0
 13 14  1  0
 14 15  2  0
 15 16  1  0
 16 17  2  0
 17 18  1  0
  7 19  1  0
 19 20  2  0
 20 21  1  0
 21 22  2  0
 21 23  1  0
 23 24  1  0
 24 25  2  0
 25 26  1  0
 26 27  2  0
 27 28  1  0
 27 29  1  0
 29 30  2  0
 23  2  1  0
 30 24  1  0
 20  4  1  0
 17 12  1  0
  5 31  1  0
  6 32  1  0
 11 33  1  0
 13 34  1  0
 14 35  1  0
 15 36  1  0
 16 37  1  0
 19 38  1  0
 25 39  1  0
 26 40  1  0
 29 41  1  0
 30 42  1  0
M  CHG  2   3  -1  18  -1
M  END
>  <UniqueID>  (43) 
41

>  <SMILES>  (43) 
O=c1[n-]c2ccc(S(=O)(=O)Nc3ccccc3[O-])cc2c(=O)n1-c1ccc(F)cc1

>  <Energy>  (43) 
65.03251125237009

>  <Genealogy>  (43) 
O=c1[n-]c2ccc(S(=O)(=O)Nc3ccccc3[O-])cc2c(=O)n1-c1ccc(F)cc1 (protonated)
O=c1[n-]c2ccc(S(=O)(=O)Nc3ccccc3[O-])cc2c(=O)n1-c1ccc(F)cc1 (3D coordinates assigned)
O=c1[n-]c2ccc(S(=O)(=O)Nc3ccccc3[O-])cc2c(=O)n1-c1ccc(F)cc1 (optimized conformer: 65.03251125237009 kcal/mol)

>  <smiles>  (43) 
O=c1[nH]c2ccc(S(=O)(=O)Nc3ccccc3O)cc2c(=O)n1-c1ccc(F)cc1

>  <score_type>  (43) 
oracle

>  <origin>  (43) 
adg

>  <m_score__min__energy>  (43) 
-14.24

>  <m_primary>  (43) 
energy

$$$$
43:0
     RDKit          3D

 34 34  0  0  0  0  0  0  0  0999 V2000
   60.0400   34.4910   48.1240 C   0  0  0  0  0  0  0  0  0  0  0  0
   58.8370   34.5940   47.2880 N   0  0  0  0  0  0  0  0  0  0  0  0
   57.9890   33.4120   47.4770 C   0  0  0  0  0  0  0  0  0  0  0  0
   59.3060   34.7070   45.6090 S   0  0  0  0  0  0  0  0  0  0  0  0
   59.6430   36.1320   45.2670 O   0  0  0  0  0  0  0  0  0  0  0  0
   60.5170   33.8530   45.3570 O   0  0  0  0  0  0  0  0  0  0  0  0
   58.0140   34.1590   44.5800 N   0  0  0  0  0  0  0  0  0  0  0  0
   58.4530   33.0570   43.7210 C   0  0  0  0  0  0  0  0  0  0  0  0
   57.8010   31.7630   44.1280 C   0  0  0  0  0  0  0  0  0  0  0  0
   58.2050   31.0960   45.2940 C   0  0  0  0  0  0  0  0  0  0  0  0
   57.5840   29.9040   45.6780 C   0  0  0  0  0  0  0  0  0  0  0  0
   56.5470   29.3610   44.8970 C   0  0  0  0  0  0  0  0  0  0  0  0
   55.8770   28.1440   45.2520 N   0  0  0  0  0  0  0  0  0  0  0  0
   56.6300   26.7210   45.8970 S   0  0  0  0  0  0  0  0  0  0  0  0
   57.7130   25.9970   44.6830 C   0  0  0  0  0  0  0  0  0  0  0  0
   55.5820   25.7310   46.3210 O   0  0  0  0  0  0  0  0  0  0  0  0
   57.4440   27.1070   47.0990 O   0  0  0  0  0  0  0  0  0  0  0  0
   56.1500   30.0260   43.7310 C   0  0  0  0  0  0  0  0  0  0  0  0
   56.7700   31.2200   43.3480 C   0  0  0  0  0  0  0  0  0  0  0  0
   59.7521   34.5156   49.1854 H   0  0  0  0  0  0  0  0  0  0  0  0
   60.5579   33.5452   47.9064 H   0  0  0  0  0  0  0  0  0  0  0  0
   60.7111   35.3350   47.9064 H   0  0  0  0  0  0  0  0  0  0  0  0
   57.8549   33.2251   48.5527 H   0  0  0  0  0  0  0  0  0  0  0  0
   57.0083   33.5858   47.0100 H   0  0  0  0  0  0  0  0  0  0  0  0
   58.4679   32.5387   47.0100 H   0  0  0  0  0  0  0  0  0  0  0  0
   58.1830   33.2836   42.6790 H   0  0  0  0  0  0  0  0  0  0  0  0
   59.5429   32.9470   43.8216 H   0  0  0  0  0  0  0  0  0  0  0  0
   59.0153   31.5134   45.9098 H   0  0  0  0  0  0  0  0  0  0  0  0
   57.9072   29.3884   46.5943 H   0  0  0  0  0  0  0  0  0  0  0  0
   58.5238   25.4550   45.1917 H   0  0  0  0  0  0  0  0  0  0  0  0
   57.1430   25.2977   44.0537 H   0  0  0  0  0  0  0  0  0  0  0  0
   58.1413   26.7911   44.0537 H   0  0  0  0  0  0  0  0  0  0  0  0
   55.3441   29.6063   43.1110 H   0  0  0  0  0  0  0  0  0  0  0  0
   56.4474   31.7351   42.4311 H   0  0  0  0  0  0  0  0  0  0  0  0
  1  2  1  0
  2  3  1  0
  2  4  1  0
  4  5  2  0
  4  6  2  0
  4  7  1  0
  7  8  1  0
  8  9  1  0
  9 10  2  0
 10 11  1  0
 11 12  2  0
 12 13  1  0
 13 14  1  0
 14 15  1  0
 14 16  2  0
 14 17  2  0
 12 18  1  0
 18 19  2  0
 19  9  1  0
  1 20  1  0
  1 21  1  0
  1 22  1  0
  3 23  1  0
  3 24  1  0
  3 25  1  0
  8 26  1  0
  8 27  1  0
 10 28  1  0
 11 29  1  0
 15 30  1  0
 15 31  1  0
 15 32  1  0
 18 33  1  0
 19 34  1  0
M  CHG  2   7  -1  13  -1
M  END
>  <UniqueID>  (44) 
42

>  <SMILES>  (44) 
CN(C)S(=O)(=O)[N-]Cc1ccc([N-]S(C)(=O)=O)cc1

>  <Energy>  (44) 
24.879842482963504

>  <Genealogy>  (44) 
CN(C)S(=O)(=O)[N-]Cc1ccc([N-]S(C)(=O)=O)cc1 (protonated)
CN(C)S(=O)(=O)[N-]Cc1ccc([N-]S(C)(=O)=O)cc1 (3D coordinates assigned)
CN(C)S(=O)(=O)[N-]Cc1ccc([N-]S(C)(=O)=O)cc1 (optimized conformer: 24.879842482963504 kcal/mol)

>  <smiles>  (44) 
CN(C)S(=O)(=O)NCc1ccc(NS(C)(=O)=O)cc1

>  <score_type>  (44) 
oracle

>  <origin>  (44) 
adg

>  <m_score__min__energy>  (44) 
-9.6099999999999994

>  <m_primary>  (44) 
energy

$$$$
44:0
     RDKit          3D

 28 29  0  0  0  0  0  0  0  0999 V2000
   59.4035   35.4190   46.6763 H   0  0  0  0  0  0  0  0  0  0  0  0
   58.9930   34.4580   46.3330 C   0  0  0  0  0  0  0  0  0  0  0  0
   58.9810   33.3600   47.1930 C   0  0  0  0  0  0  0  0  0  0  0  0
   59.3823   33.4557   48.2127 H   0  0  0  0  0  0  0  0  0  0  0  0
   58.4600   32.1400   46.7600 C   0  0  0  0  0  0  0  0  0  0  0  0
   58.4442   31.2797   47.4453 H   0  0  0  0  0  0  0  0  0  0  0  0
   57.9550   32.0010   45.4550 C   0  0  0  0  0  0  0  0  0  0  0  0
   57.3890   30.7000   45.0240 C   0  0  0  0  0  0  0  0  0  0  0  0
   56.1950   30.6500   44.6270 O   0  0  0  0  0  0  0  0  0  0  0  0
   58.1350   29.4750   45.1050 N   0  0  0  0  0  0  0  0  0  0  0  0
   57.6810   28.3360   45.5350 C   0  0  0  0  0  0  0  0  0  0  0  0
   56.4030   27.9070   45.4000 N   0  0  0  0  0  0  0  0  0  0  0  0
   56.2340   26.6870   45.9930 C   0  0  0  0  0  0  0  0  0  0  0  0
   55.1140   26.1100   45.9940 O   0  0  0  0  0  0  0  0  0  0  0  0
   57.3290   26.1380   46.5870 N   0  0  0  0  0  0  0  0  0  0  0  0
   57.3880   24.8990   47.3520 C   0  0  0  0  0  0  0  0  0  0  0  0
   57.3769   25.1311   48.4272 H   0  0  0  0  0  0  0  0  0  0  0  0
   56.5187   24.2727   47.1031 H   0  0  0  0  0  0  0  0  0  0  0  0
   58.3129   24.3581   47.1031 H   0  0  0  0  0  0  0  0  0  0  0  0
   58.5710   27.2250   46.4000 S   0  0  0  0  0  0  0  0  0  0  0  0
   57.9620   33.1130   44.5840 C   0  0  0  0  0  0  0  0  0  0  0  0
   57.4570   32.9640   43.2820 O   0  0  0  0  0  0  0  0  0  0  0  0
   58.1210   32.2650   42.2330 C   0  0  0  0  0  0  0  0  0  0  0  0
   58.8178   31.5315   42.6648 H   0  0  0  0  0  0  0  0  0  0  0  0
   57.3778   31.7433   41.6121 H   0  0  0  0  0  0  0  0  0  0  0  0
   58.6801   32.9805   41.6121 H   0  0  0  0  0  0  0  0  0  0  0  0
   58.4860   34.3410   45.0390 C   0  0  0  0  0  0  0  0  0  0  0  0
   58.4948   35.2128   44.3683 H   0  0  0  0  0  0  0  0  0  0  0  0
  1  2  1  0
  2  3  2  0
  3  4  1  0
  3  5  1  0
  5  6  1  0
  5  7  2  0
  7  8  1  0
  8  9  2  0
  8 10  1  0
 10 11  2  0
 11 12  1  0
 12 13  1  0
 13 14  2  0
 13 15  1  0
 15 16  1  0
 16 17  1  0
 16 18  1  0
 16 19  1  0
 15 20  1  0
  7 21  1  0
 21 22  1  0
 22 23  1  0
 23 24  1  0
 23 25  1  0
 23 26  1  0
 21 27  2  0
 27 28  1  0
 27  2  1  0
 20 11  1  0
M  CHG  1  12  -1
M  END
>  <UniqueID>  (45) 
43

>  <SMILES>  (45) 
COc1ccccc1C(=O)/N=c1\[n-]c(=O)n(C)s1

>  <Energy>  (45) 
74.83369849972127

>  <Genealogy>  (45) 
COc1ccccc1C(=O)N=c1[n-]c(=O)n(C)s1 (protonated)
COc1ccccc1C(=O)/N=c1\[n-]c(=O)n(C)s1 (cis-trans isomerization)
COc1ccccc1C(=O)/N=c1\[n-]c(=O)n(C)s1 (3D coordinates assigned)
COc1ccccc1C(=O)/N=c1\[n-]c(=O)n(C)s1 (optimized conformer: 74.83369849972127 kcal/mol)

>  <smiles>  (45) 
COc1ccccc1C(=O)N=c1[nH]c(=O)n(C)s1

>  <score_type>  (45) 
oracle

>  <origin>  (45) 
adg

>  <m_score__min__energy>  (45) 
-8.4900000000000002

>  <m_primary>  (45) 
energy

$$$$
45:0
     RDKit          3D

 23 25  0  0  0  0  0  0  0  0999 V2000
   57.7385   29.2536   42.9342 H   0  0  0  0  0  0  0  0  0  0  0  0
   57.7560   30.0000   43.7420 C   0  0  0  0  0  0  0  0  0  0  0  0
   57.4310   31.2470   43.5830 N   0  0  0  0  0  0  0  0  0  0  0  0
   57.6140   31.8760   44.8480 C   0  0  0  0  0  0  0  0  0  0  0  0
   57.4760   33.2370   45.1180 C   0  0  0  0  0  0  0  0  0  0  0  0
   57.1052   33.9304   44.3488 H   0  0  0  0  0  0  0  0  0  0  0  0
   57.8230   33.6990   46.3980 C   0  0  0  0  0  0  0  0  0  0  0  0
   57.6973   34.7626   46.6491 H   0  0  0  0  0  0  0  0  0  0  0  0
   58.3320   32.8050   47.3630 C   0  0  0  0  0  0  0  0  0  0  0  0
   58.6173   33.1786   48.3575 H   0  0  0  0  0  0  0  0  0  0  0  0
   58.4770   31.4400   47.0620 C   0  0  0  0  0  0  0  0  0  0  0  0
   58.9044   30.7416   47.7966 H   0  0  0  0  0  0  0  0  0  0  0  0
   58.0630   30.9940   45.8030 C   0  0  0  0  0  0  0  0  0  0  0  0
   58.1500   29.7010   45.1260 C   0  0  0  0  0  0  0  0  0  0  0  0
   58.4850   28.4880   45.5840 C   0  0  0  0  0  0  0  0  0  0  0  0
   59.5402   28.3075   45.8367 H   0  0  0  0  0  0  0  0  0  0  0  0
   57.5360   27.3830   45.7710 C   0  0  0  0  0  0  0  0  0  0  0  0
   57.8910   25.8920   46.4810 S   0  0  0  0  0  0  0  0  0  0  0  0
   56.2790   25.4210   46.4920 C   0  0  0  0  0  0  0  0  0  0  0  0
   55.8680   24.3100   46.9180 O   0  0  0  0  0  0  0  0  0  0  0  0
   55.4560   26.3720   46.0040 N   0  0  0  0  0  0  0  0  0  0  0  0
   56.1550   27.4720   45.6210 C   0  0  0  0  0  0  0  0  0  0  0  0
   55.5220   28.6010   45.1170 O   0  0  0  0  0  0  0  0  0  0  0  0
  1  2  1  0
  2  3  2  0
  3  4  1  0
  4  5  2  0
  5  6  1  0
  5  7  1  0
  7  8  1  0
  7  9  2  0
  9 10  1  0
  9 11  1  0
 11 12  1  0
 11 13  2  0
 13 14  1  0
 14 15  2  0
 15 16  1  0
 15 17  1  0
 17 18  1  0
 18 19  1  0
 19 20  2  0
 19 21  1  0
 21 22  1  0
 22 23  1  0
 14  2  1  0
 22 17  2  0
 13  4  1  0
M  CHG  2  21  -1  23  -1
M  END
>  <UniqueID>  (46) 
44

>  <SMILES>  (46) 
O=c1[n-]c([O-])c(/C=C2/C=Nc3ccccc32)s1

>  <Energy>  (46) 
95.06922018473985

>  <Genealogy>  (46) 
O=c1[n-]c([O-])c(C=C2C=Nc3ccccc32)s1 (protonated)
O=c1[n-]c([O-])c(/C=C2/C=Nc3ccccc32)s1 (cis-trans isomerization)
O=c1[n-]c([O-])c(/C=C2/C=Nc3ccccc32)s1 (3D coordinates assigned)
O=c1[n-]c([O-])c(/C=C2/C=Nc3ccccc32)s1 (nonaromatic ring conformer: 95.06922018473985 kcal/mol)

>  <smiles>  (46) 
O=c1[nH]c(O)c(C=C2C=Nc3ccccc32)s1

>  <score_type>  (46) 
oracle

>  <origin>  (46) 
adg

>  <m_score__min__energy>  (46) 
-13.970000000000001

>  <m_primary>  (46) 
energy

$$$$
46:0
     RDKit          3D

 46 48  0  0  0  0  0  0  0  0999 V2000
   62.2650   33.2240   49.6970 C   0  0  0  0  0  0  0  0  0  0  0  0
   61.1150   32.7780   48.9050 N   0  0  0  0  0  0  0  0  0  0  0  0
   60.0100   33.6880   48.7420 C   0  0  0  0  0  0  0  0  0  0  0  0
   59.5620   34.3050   49.7460 O   0  0  0  0  0  0  0  0  0  0  0  0
   59.3930   33.9080   47.4130 C   0  0  0  0  0  0  0  0  0  0  0  0
   59.8970   34.8890   46.5400 C   0  0  0  0  0  0  0  0  0  0  0  0
   59.3190   35.0820   45.2820 C   0  0  0  0  0  0  0  0  0  0  0  0
   58.2370   34.2940   44.8800 C   0  0  0  0  0  0  0  0  0  0  0  0
   57.7340   33.3080   45.7330 C   0  0  0  0  0  0  0  0  0  0  0  0
   56.6610   32.5230   45.3300 O   0  0  0  0  0  0  0  0  0  0  0  0
   58.3110   33.1120   46.9930 C   0  0  0  0  0  0  0  0  0  0  0  0
   61.0530   31.4010   48.3770 C   0  0  0  0  0  0  0  0  0  0  0  0
   59.7760   30.6650   48.8660 C   0  0  0  0  0  0  0  0  0  0  0  0
   58.7900   30.3500   47.7360 C   0  0  0  0  0  0  0  0  0  0  0  0
   59.4710   29.6420   46.6400 N   0  0  0  0  0  0  0  0  0  0  0  0
   58.7670   28.6470   45.8640 C   0  0  0  0  0  0  0  0  0  0  0  0
   59.0980   28.4220   44.5190 C   0  0  0  0  0  0  0  0  0  0  0  0
   58.4100   27.4520   43.7900 C   0  0  0  0  0  0  0  0  0  0  0  0
   57.4210   26.7240   44.3730 N   0  0  0  0  0  0  0  0  0  0  0  0
   57.0700   26.9120   45.6810 C   0  0  0  0  0  0  0  0  0  0  0  0
   55.9900   26.1040   46.2890 C   0  0  0  0  0  0  0  0  0  0  0  0
   56.2630   25.1950   47.1170 O   0  0  0  0  0  0  0  0  0  0  0  0
   54.6600   26.3370   45.9550 O   0  0  0  0  0  0  0  0  0  0  0  0
   57.7440   27.8790   46.4440 C   0  0  0  0  0  0  0  0  0  0  0  0
   60.8380   30.0320   46.2530 C   0  0  0  0  0  0  0  0  0  0  0  0
   61.2110   31.3970   46.8410 C   0  0  0  0  0  0  0  0  0  0  0  0
   62.0302   33.1329   50.7678 H   0  0  0  0  0  0  0  0  0  0  0  0
   63.1386   32.5995   49.4588 H   0  0  0  0  0  0  0  0  0  0  0  0
   62.4891   34.2742   49.4588 H   0  0  0  0  0  0  0  0  0  0  0  0
   60.7517   35.5085   46.8493 H   0  0  0  0  0  0  0  0  0  0  0  0
   59.7162   35.8550   44.6077 H   0  0  0  0  0  0  0  0  0  0  0  0
   57.7809   34.4501   43.8912 H   0  0  0  0  0  0  0  0  0  0  0  0
   57.9163   32.3308   47.6593 H   0  0  0  0  0  0  0  0  0  0  0  0
   61.9020   30.8296   48.7804 H   0  0  0  0  0  0  0  0  0  0  0  0
   60.0776   29.7195   49.3404 H   0  0  0  0  0  0  0  0  0  0  0  0
   59.2621   31.3356   49.5704 H   0  0  0  0  0  0  0  0  0  0  0  0
   57.9804   29.7169   48.1280 H   0  0  0  0  0  0  0  0  0  0  0  0
   58.3794   31.2941   47.3487 H   0  0  0  0  0  0  0  0  0  0  0  0
   59.8969   29.0083   44.0414 H   0  0  0  0  0  0  0  0  0  0  0  0
   58.6696   27.2749   42.7358 H   0  0  0  0  0  0  0  0  0  0  0  0
   56.9310   26.0090   43.7920 H   0  0  0  0  0  0  0  0  0  0  0  0
   57.4703   28.0354   47.4979 H   0  0  0  0  0  0  0  0  0  0  0  0
   61.5456   29.2759   46.6238 H   0  0  0  0  0  0  0  0  0  0  0  0
   60.8839   30.1004   45.1561 H   0  0  0  0  0  0  0  0  0  0  0  0
   62.2567   31.6244   46.5866 H   0  0  0  0  0  0  0  0  0  0  0  0
   60.5369   32.1563   46.4179 H   0  0  0  0  0  0  0  0  0  0  0  0
  1  2  1  0
  2  3  1  0
  3  4  2  0
  3  5  1  0
  5  6  2  0
  6  7  1  0
  7  8  2  0
  8  9  1  0
  9 10  1  0
  9 11  2  0
  2 12  1  0
 12 13  1  0
 13 14  1  0
 14 15  1  0
 15 16  1  0
 16 17  2  0
 17 18  1  0
 18 19  2  0
 19 20  1  0
 20 21  1  0
 21 22  2  0
 21 23  1  0
 20 24  2  0
 15 25  1  0
 25 26  1  0
 11  5  1  0
 26 12  1  0
 24 16  1  0
  1 27  1  0
  1 28  1  0
  1 29  1  0
  6 30  1  0
  7 31  1  0
  8 32  1  0
 11 33  1  0
 12 34  1  0
 13 35  1  0
 13 36  1  0
 14 37  1  0
 14 38  1  0
 17 39  1  0
 18 40  1  0
 19 41  1  0
 24 42  1  0
 25 43  1  0
 25 44  1  0
 26 45  1  0
 26 46  1  0
M  CHG  3  10  -1  19   1  23  -1
M  END
>  <UniqueID>  (47) 
45

>  <SMILES>  (47) 
CN(C(=O)c1cccc([O-])c1)C1CCN(c2cc[nH+]c(C(=O)[O-])c2)CC1

>  <Energy>  (47) 
58.548628185705034

>  <Genealogy>  (47) 
CN(C(=O)c1cccc([O-])c1)C1CCN(c2cc[nH+]c(C(=O)[O-])c2)CC1 (protonated)
CN(C(=O)c1cccc([O-])c1)C1CCN(c2cc[nH+]c(C(=O)[O-])c2)CC1 (3D coordinates assigned)
CN(C(=O)c1cccc([O-])c1)C1CCN(c2cc[nH+]c(C(=O)[O-])c2)CC1 (nonaromatic ring conformer: 58.548628185705034 kcal/mol)

>  <smiles>  (47) 
CN(C(=O)c1cccc(O)c1)C1CCN(c2ccnc(C(=O)O)c2)CC1

>  <score_type>  (47) 
oracle

>  <origin>  (47) 
adg

>  <m_score__min__energy>  (47) 
-11.550000000000001

>  <m_primary>  (47) 
energy

$$$$
47:0
     RDKit          3D

 56 58  0  0  0  0  0  0  0  0999 V2000
   63.1070   31.6770   47.5450 C   0  0  0  0  0  0  0  0  0  0  0  0
   62.7290   33.1020   47.5890 N   0  0  0  0  0  0  0  0  0  0  0  0
   63.3270   33.8050   46.4390 C   0  0  0  0  0  0  0  0  0  0  0  0
   61.2600   33.2590   47.5720 C   0  0  0  0  0  0  0  0  0  0  0  0
   60.7820   33.9590   48.8050 C   0  0  0  0  0  0  0  0  0  0  0  0
   60.2580   33.2760   49.7770 N   0  0  0  0  0  0  0  0  0  0  0  0
   59.3760   32.1600   49.6030 C   0  0  0  0  0  0  0  0  0  0  0  0
   58.1370   32.3790   49.5160 O   0  0  0  0  0  0  0  0  0  0  0  0
   59.8690   30.7760   49.4270 C   0  0  0  0  0  0  0  0  0  0  0  0
   60.6480   30.0830   50.3370 C   0  0  0  0  0  0  0  0  0  0  0  0
   60.7390   28.7910   49.9740 N   0  0  0  0  0  0  0  0  0  0  0  0
   60.0240   28.6460   48.8430 C   0  0  0  0  0  0  0  0  0  0  0  0
   59.8200   27.3230   48.1560 C   0  0  0  0  0  0  0  0  0  0  0  0
   60.1570   27.3580   46.6850 C   0  0  0  0  0  0  0  0  0  0  0  0
   59.2900   27.0870   45.6920 C   0  0  0  0  0  0  0  0  0  0  0  0
   58.1930   27.9920   45.2930 C   0  0  0  0  0  0  0  0  0  0  0  0
   56.8610   27.7010   45.5990 C   0  0  0  0  0  0  0  0  0  0  0  0
   56.5260   26.5190   46.2570 O   0  0  0  0  0  0  0  0  0  0  0  0
   55.8840   28.5700   45.2400 N   0  0  0  0  0  0  0  0  0  0  0  0
   56.1620   29.7270   44.5860 C   0  0  0  0  0  0  0  0  0  0  0  0
   55.2090   30.4950   44.2790 O   0  0  0  0  0  0  0  0  0  0  0  0
   57.4580   30.0450   44.2620 N   0  0  0  0  0  0  0  0  0  0  0  0
   57.7740   31.3050   43.5590 C   0  0  0  0  0  0  0  0  0  0  0  0
   58.0150   32.4190   44.5440 C   0  0  0  0  0  0  0  0  0  0  0  0
   57.4870   32.3490   45.8460 C   0  0  0  0  0  0  0  0  0  0  0  0
   57.7270   33.3780   46.7610 C   0  0  0  0  0  0  0  0  0  0  0  0
   58.4910   34.4860   46.3850 C   0  0  0  0  0  0  0  0  0  0  0  0
   59.0190   34.5620   45.0960 C   0  0  0  0  0  0  0  0  0  0  0  0
   58.7850   33.5320   44.1780 C   0  0  0  0  0  0  0  0  0  0  0  0
   58.4710   29.1760   44.5910 C   0  0  0  0  0  0  0  0  0  0  0  0
   59.6670   29.4440   44.2820 O   0  0  0  0  0  0  0  0  0  0  0  0
   59.4840   29.8610   48.4580 C   0  0  0  0  0  0  0  0  0  0  0  0
   63.2089   31.2928   48.5707 H   0  0  0  0  0  0  0  0  0  0  0  0
   62.3289   31.1074   47.0157 H   0  0  0  0  0  0  0  0  0  0  0  0
   64.0651   31.5680   47.0157 H   0  0  0  0  0  0  0  0  0  0  0  0
   63.9998   34.5959   46.8022 H   0  0  0  0  0  0  0  0  0  0  0  0
   63.8978   33.0898   45.8285 H   0  0  0  0  0  0  0  0  0  0  0  0
   62.5296   34.2537   45.8285 H   0  0  0  0  0  0  0  0  0  0  0  0
   60.9712   33.8480   46.6890 H   0  0  0  0  0  0  0  0  0  0  0  0
   60.8009   32.2601   47.5354 H   0  0  0  0  0  0  0  0  0  0  0  0
   60.8745   35.0520   48.8880 H   0  0  0  0  0  0  0  0  0  0  0  0
   61.1227   30.5237   51.2260 H   0  0  0  0  0  0  0  0  0  0  0  0
   61.2320   28.0340   50.5020 H   0  0  0  0  0  0  0  0  0  0  0  0
   60.4607   26.5735   48.6436 H   0  0  0  0  0  0  0  0  0  0  0  0
   58.7523   27.0722   48.2406 H   0  0  0  0  0  0  0  0  0  0  0  0
   61.1866   27.6245   46.4041 H   0  0  0  0  0  0  0  0  0  0  0  0
   59.4047   26.1384   45.1470 H   0  0  0  0  0  0  0  0  0  0  0  0
   57.1020   26.1590   47.0060 H   0  0  0  0  0  0  0  0  0  0  0  0
   58.6778   31.1610   42.9487 H   0  0  0  0  0  0  0  0  0  0  0  0
   56.9209   31.5767   42.9200 H   0  0  0  0  0  0  0  0  0  0  0  0
   56.8823   31.4803   46.1455 H   0  0  0  0  0  0  0  0  0  0  0  0
   57.3139   33.3155   47.7786 H   0  0  0  0  0  0  0  0  0  0  0  0
   58.6758   35.2972   47.1045 H   0  0  0  0  0  0  0  0  0  0  0  0
   59.6209   35.4339   44.8004 H   0  0  0  0  0  0  0  0  0  0  0  0
   59.2073   33.5959   43.1643 H   0  0  0  0  0  0  0  0  0  0  0  0
   58.8735   30.0605   47.5650 H   0  0  0  0  0  0  0  0  0  0  0  0
  1  2  1  0
  2  3  1  0
  2  4  1  0
  4  5  1  0
  5  6  2  3
  6  7  1  0
  7  8  2  0
  7  9  1  0
  9 10  2  0
 10 11  1  0
 11 12  1  0
 12 13  1  0
 13 14  1  0
 14 15  2  3
 15 16  1  0
 16 17  2  0
 17 18  1  0
 17 19  1  0
 19 20  1  0
 20 21  2  0
 20 22  1  0
 22 23  1  0
 23 24  1  0
 24 25  2  0
 25 26  1  0
 26 27  2  0
 27 28  1  0
 28 29  2  0
 22 30  1  0
 30 31  2  0
 12 32  2  0
 32  9  1  0
 30 16  1  0
 29 24  1  0
  1 33  1  0
  1 34  1  0
  1 35  1  0
  3 36  1  0
  3 37  1  0
  3 38  1  0
  4 39  1  0
  4 40  1  0
  5 41  1  0
 10 42  1  0
 11 43  1  0
 13 44  1  0
 13 45  1  0
 14 46  1  0
 15 47  1  0
 18 48  1  0
 23 49  1  0
 23 50  1  0
 25 51  1  0
 26 52  1  0
 27 53  1  0
 28 54  1  0
 29 55  1  0
 32 56  1  0
M  CHG  1  19  -1
M  END
>  <UniqueID>  (48) 
46

>  <SMILES>  (48) 
CN(C)CC=NC(=O)c1c[nH]c(CC=Cc2c(O)[n-]c(=O)n(Cc3ccccc3)c2=O)c1

>  <Energy>  (48) 
92.36516173854405

>  <Genealogy>  (48) 
CN(C)CC=NC(=O)c1c[nH]c(CC=Cc2c(O)[n-]c(=O)n(Cc3ccccc3)c2=O)c1 (protonated)
CN(C)CC=NC(=O)c1c[nH]c(CC=Cc2c(O)[n-]c(=O)n(Cc3ccccc3)c2=O)c1 (3D coordinates assigned)
CN(C)CC=NC(=O)c1c[nH]c(CC=Cc2c(O)[n-]c(=O)n(Cc3ccccc3)c2=O)c1 (optimized conformer: 92.36516173854405 kcal/mol)

>  <smiles>  (48) 
CN(C)CC=NC(=O)c1c[nH]c(CC=Cc2c(O)[nH]c(=O)n(Cc3ccccc3)c2=O)c1

>  <score_type>  (48) 
oracle

>  <origin>  (48) 
adg

>  <m_score__min__energy>  (48) 
-9.8399999999999999

>  <m_primary>  (48) 
energy

$$$$
48:0
     RDKit          3D

 27 28  0  0  0  0  0  0  0  0999 V2000
   55.2060   24.2600   46.7280 O   0  0  0  0  0  0  0  0  0  0  0  0
   55.9770   25.1960   46.3940 C   0  0  0  0  0  0  0  0  0  0  0  0
   55.4650   26.3830   45.9850 N   0  0  0  0  0  0  0  0  0  0  0  0
   56.2660   27.4170   45.6180 C   0  0  0  0  0  0  0  0  0  0  0  0
   55.6500   28.5940   45.1900 O   0  0  0  0  0  0  0  0  0  0  0  0
   57.6730   27.2630   45.6730 C   0  0  0  0  0  0  0  0  0  0  0  0
   58.6370   28.3630   45.2640 C   0  0  0  0  0  0  0  0  0  0  0  0
   58.6790   29.5040   46.2910 C   0  0  0  0  0  0  0  0  0  0  0  0
   58.3560   30.8380   45.6680 C   0  0  0  0  0  0  0  0  0  0  0  0
   58.0990   30.9360   44.2910 C   0  0  0  0  0  0  0  0  0  0  0  0
   57.7610   32.1680   43.7220 C   0  0  0  0  0  0  0  0  0  0  0  0
   57.6750   33.3090   44.5250 C   0  0  0  0  0  0  0  0  0  0  0  0
   57.9240   33.2200   45.8970 C   0  0  0  0  0  0  0  0  0  0  0  0
   58.2610   31.9890   46.4700 C   0  0  0  0  0  0  0  0  0  0  0  0
   58.1730   26.0110   46.0880 C   0  0  0  0  0  0  0  0  0  0  0  0
   59.4140   25.7980   46.1390 O   0  0  0  0  0  0  0  0  0  0  0  0
   57.3190   25.0180   46.4390 N   0  0  0  0  0  0  0  0  0  0  0  0
   54.7690   28.9360   45.5470 H   0  0  0  0  0  0  0  0  0  0  0  0
   59.6454   27.9339   45.1688 H   0  0  0  0  0  0  0  0  0  0  0  0
   58.2895   28.7802   44.3074 H   0  0  0  0  0  0  0  0  0  0  0  0
   57.9452   29.2954   47.0835 H   0  0  0  0  0  0  0  0  0  0  0  0
   59.6998   29.5575   46.6972 H   0  0  0  0  0  0  0  0  0  0  0  0
   58.1638   30.0395   43.6569 H   0  0  0  0  0  0  0  0  0  0  0  0
   57.5628   32.2392   42.6424 H   0  0  0  0  0  0  0  0  0  0  0  0
   57.4110   34.2780   44.0763 H   0  0  0  0  0  0  0  0  0  0  0  0
   57.8550   34.1189   46.5273 H   0  0  0  0  0  0  0  0  0  0  0  0
   58.4522   31.9214   47.5511 H   0  0  0  0  0  0  0  0  0  0  0  0
  1  2  2  0
  2  3  1  0
  3  4  1  0
  4  5  1  0
  4  6  2  0
  6  7  1  0
  7  8  1  0
  8  9  1  0
  9 10  2  0
 10 11  1  0
 11 12  2  0
 12 13  1  0
 13 14  2  0
  6 15  1  0
 15 16  2  0
 15 17  1  0
 17  2  1  0
 14  9  1  0
  5 18  1  0
  7 19  1  0
  7 20  1  0
  8 21  1  0
  8 22  1  0
 10 23  1  0
 11 24  1  0
 12 25  1  0
 13 26  1  0
 14 27  1  0
M  CHG  2   3  -1  17  -1
M  END
>  <UniqueID>  (49) 
47

>  <SMILES>  (49) 
O=c1[n-]c(O)c(CCc2ccccc2)c(=O)[n-]1

>  <Energy>  (49) 
28.470009372564878

>  <Genealogy>  (49) 
O=c1[n-]c(O)c(CCc2ccccc2)c(=O)[n-]1 (protonated)
O=c1[n-]c(O)c(CCc2ccccc2)c(=O)[n-]1 (3D coordinates assigned)
O=c1[n-]c(O)c(CCc2ccccc2)c(=O)[n-]1 (optimized conformer: 28.470009372564878 kcal/mol)

>  <smiles>  (49) 
O=c1[nH]c(O)c(CCc2ccccc2)c(=O)[nH]1

>  <score_type>  (49) 
oracle

>  <origin>  (49) 
adg

>  <m_score__min__energy>  (49) 
-11.119999999999999

>  <m_primary>  (49) 
energy

$$$$
49:0
     RDKit          3D

 40 42  0  0  0  0  0  0  0  0999 V2000
   56.6510   34.5870   44.9040 N   0  0  0  0  0  0  0  0  0  0  0  0
   57.6280   34.3790   45.4880 C   0  0  0  0  0  0  0  0  0  0  0  0
   58.8440   34.1200   46.2150 C   0  0  0  0  0  0  0  0  0  0  0  0
   58.7950   33.8270   47.5830 C   0  0  0  0  0  0  0  0  0  0  0  0
   59.9730   33.5610   48.2860 C   0  0  0  0  0  0  0  0  0  0  0  0
   61.2100   33.5890   47.6250 C   0  0  0  0  0  0  0  0  0  0  0  0
   62.7000   33.1840   48.4790 S   0  0  0  0  0  0  0  0  0  0  0  0
   63.8020   33.0150   47.4730 O   0  0  0  0  0  0  0  0  0  0  0  0
   63.0680   34.2910   49.4270 O   0  0  0  0  0  0  0  0  0  0  0  0
   62.5040   31.7100   49.3730 N   0  0  0  0  0  0  0  0  0  0  0  0
   61.3890   30.8360   49.1810 C   0  0  0  0  0  0  0  0  0  0  0  0
   60.6580   30.4280   50.3030 C   0  0  0  0  0  0  0  0  0  0  0  0
   59.6230   29.5030   50.1710 C   0  0  0  0  0  0  0  0  0  0  0  0
   59.3120   28.9750   48.9180 C   0  0  0  0  0  0  0  0  0  0  0  0
   60.0170   29.3870   47.7760 C   0  0  0  0  0  0  0  0  0  0  0  0
   59.6710   28.8000   46.4590 C   0  0  0  0  0  0  0  0  0  0  0  0
   60.3910   27.3910   46.0090 S   0  0  0  0  0  0  0  0  0  0  0  0
   58.6340   29.4270   45.5950 C   0  0  0  0  0  0  0  0  0  0  0  0
   58.8560   30.7010   45.0390 C   0  0  0  0  0  0  0  0  0  0  0  0
   57.8890   31.3000   44.2250 C   0  0  0  0  0  0  0  0  0  0  0  0
   56.6910   30.6360   43.9580 C   0  0  0  0  0  0  0  0  0  0  0  0
   56.4570   29.3710   44.5000 C   0  0  0  0  0  0  0  0  0  0  0  0
   57.4210   28.7670   45.3150 C   0  0  0  0  0  0  0  0  0  0  0  0
   61.0360   30.3530   47.9020 C   0  0  0  0  0  0  0  0  0  0  0  0
   61.6550   30.8480   46.7520 O   0  0  0  0  0  0  0  0  0  0  0  0
   61.2560   33.8920   46.2580 C   0  0  0  0  0  0  0  0  0  0  0  0
   60.0780   34.1540   45.5530 C   0  0  0  0  0  0  0  0  0  0  0  0
   57.8273   33.8061   48.1056 H   0  0  0  0  0  0  0  0  0  0  0  0
   59.9302   33.3291   49.3604 H   0  0  0  0  0  0  0  0  0  0  0  0
   60.9013   30.8392   51.2938 H   0  0  0  0  0  0  0  0  0  0  0  0
   59.0508   29.1892   51.0565 H   0  0  0  0  0  0  0  0  0  0  0  0
   58.5081   28.2300   48.8239 H   0  0  0  0  0  0  0  0  0  0  0  0
   59.7979   31.2300   45.2464 H   0  0  0  0  0  0  0  0  0  0  0  0
   58.0731   32.2955   43.7949 H   0  0  0  0  0  0  0  0  0  0  0  0
   55.9305   31.1098   43.3199 H   0  0  0  0  0  0  0  0  0  0  0  0
   55.5132   28.8481   44.2861 H   0  0  0  0  0  0  0  0  0  0  0  0
   57.2305   27.7704   45.7398 H   0  0  0  0  0  0  0  0  0  0  0  0
   62.4590   31.4610   46.7860 H   0  0  0  0  0  0  0  0  0  0  0  0
   62.2242   33.9239   45.7369 H   0  0  0  0  0  0  0  0  0  0  0  0
   60.1199   34.3868   44.4787 H   0  0  0  0  0  0  0  0  0  0  0  0
  1  2  3  0
  2  3  1  0
  3  4  2  0
  4  5  1  0
  5  6  2  0
  6  7  1  0
  7  8  2  0
  7  9  2  0
  7 10  1  0
 10 11  1  0
 11 12  2  0
 12 13  1  0
 13 14  2  0
 14 15  1  0
 15 16  1  0
 16 17  2  0
 16 18  1  0
 18 19  2  0
 19 20  1  0
 20 21  2  0
 21 22  1  0
 22 23  2  0
 15 24  2  0
 24 25  1  0
  6 26  1  0
 26 27  2  0
 27  3  1  0
 24 11  1  0
 23 18  1  0
  4 28  1  0
  5 29  1  0
 12 30  1  0
 13 31  1  0
 14 32  1  0
 19 33  1  0
 20 34  1  0
 21 35  1  0
 22 36  1  0
 23 37  1  0
 25 38  1  0
 26 39  1  0
 27 40  1  0
M  CHG  1  10  -1
M  END
>  <UniqueID>  (50) 
48

>  <SMILES>  (50) 
N#Cc1ccc(S(=O)(=O)[N-]c2cccc(C(=S)c3ccccc3)c2O)cc1

>  <Energy>  (50) 
59.312541896788744

>  <Genealogy>  (50) 
N#Cc1ccc(S(=O)(=O)[N-]c2cccc(C(=S)c3ccccc3)c2O)cc1 (protonated)
N#Cc1ccc(S(=O)(=O)[N-]c2cccc(C(=S)c3ccccc3)c2O)cc1 (3D coordinates assigned)
N#Cc1ccc(S(=O)(=O)[N-]c2cccc(C(=S)c3ccccc3)c2O)cc1 (optimized conformer: 59.312541896788744 kcal/mol)

>  <smiles>  (50) 
N#Cc1ccc(S(=O)(=O)Nc2cccc(C(=S)c3ccccc3)c2O)cc1

>  <score_type>  (50) 
oracle

>  <origin>  (50) 
adg

>  <m_score__min__energy>  (50) 
-11.779999999999999

>  <m_primary>  (50) 
energy

$$$$
50:0
     RDKit          3D

 32 34  0  0  0  0  0  0  0  0999 V2000
   55.6690   30.8650   44.5680 O   0  0  0  0  0  0  0  0  0  0  0  0
   56.9010   31.0850   44.4260 C   0  0  0  0  0  0  0  0  0  0  0  0
   57.8130   29.9420   44.0800 C   0  0  0  0  0  0  0  0  0  0  0  0
   58.8610   29.4900   45.5050 S   0  0  0  0  0  0  0  0  0  0  0  0
   58.0890   27.8960   45.7600 C   0  0  0  0  0  0  0  0  0  0  0  0
   58.8700   26.7840   45.9560 N   0  0  0  0  0  0  0  0  0  0  0  0
   58.3130   25.5530   46.1520 C   0  0  0  0  0  0  0  0  0  0  0  0
   59.0370   24.5390   46.3300 O   0  0  0  0  0  0  0  0  0  0  0  0
   56.9280   25.4630   46.1490 C   0  0  0  0  0  0  0  0  0  0  0  0
   56.0280   24.4370   46.3050 C   0  0  0  0  0  0  0  0  0  0  0  0
   54.7810   24.9610   46.2030 N   0  0  0  0  0  0  0  0  0  0  0  0
   54.8670   26.2730   45.9900 N   0  0  0  0  0  0  0  0  0  0  0  0
   56.1740   26.5720   45.9580 C   0  0  0  0  0  0  0  0  0  0  0  0
   56.7240   27.7940   45.7640 N   0  0  0  0  0  0  0  0  0  0  0  0
   57.3930   32.4150   44.6290 N   0  0  0  0  0  0  0  0  0  0  0  0
   56.9920   33.2880   45.7240 C   0  0  0  0  0  0  0  0  0  0  0  0
   58.1390   33.4440   46.6860 C   0  0  0  0  0  0  0  0  0  0  0  0
   58.1350   32.7200   47.8910 C   0  0  0  0  0  0  0  0  0  0  0  0
   59.1770   32.8670   48.8100 C   0  0  0  0  0  0  0  0  0  0  0  0
   60.2280   33.7460   48.5410 C   0  0  0  0  0  0  0  0  0  0  0  0
   60.2370   34.4840   47.3550 C   0  0  0  0  0  0  0  0  0  0  0  0
   59.1980   34.3430   46.4270 C   0  0  0  0  0  0  0  0  0  0  0  0
   59.2490   35.3160   44.9600 Cl  0  0  0  0  0  0  0  0  0  0  0  0
   57.2058   29.0721   43.7893 H   0  0  0  0  0  0  0  0  0  0  0  0
   58.4641   30.2512   43.2491 H   0  0  0  0  0  0  0  0  0  0  0  0
   56.2745   23.3795   46.4811 H   0  0  0  0  0  0  0  0  0  0  0  0
   56.7123   34.2737   45.3237 H   0  0  0  0  0  0  0  0  0  0  0  0
   56.1308   32.8477   46.2479 H   0  0  0  0  0  0  0  0  0  0  0  0
   57.3052   32.0326   48.1120 H   0  0  0  0  0  0  0  0  0  0  0  0
   59.1694   32.2897   49.7463 H   0  0  0  0  0  0  0  0  0  0  0  0
   61.0497   33.8574   49.2637 H   0  0  0  0  0  0  0  0  0  0  0  0
   61.0642   35.1792   47.1491 H   0  0  0  0  0  0  0  0  0  0  0  0
  1  2  2  0
  2  3  1  0
  3  4  1  0
  4  5  1  0
  5  6  2  0
  6  7  1  0
  7  8  2  0
  7  9  1  0
  9 10  2  0
 10 11  1  0
 11 12  1  0
 12 13  2  0
 13 14  1  0
  2 15  1  0
 15 16  1  0
 16 17  1  0
 17 18  2  0
 18 19  1  0
 19 20  2  0
 20 21  1  0
 21 22  2  0
 22 23  1  0
 14  5  1  0
 22 17  1  0
 13  9  1  0
  3 24  1  0
  3 25  1  0
 10 26  1  0
 16 27  1  0
 16 28  1  0
 18 29  1  0
 19 30  1  0
 20 31  1  0
 21 32  1  0
M  CHG  3  11  -1  14  -1  15  -1
M  END
>  <UniqueID>  (51) 
49

>  <SMILES>  (51) 
O=C(CSc1nc(=O)c2c[n-]nc2[n-]1)[N-]Cc1ccccc1Cl

>  <Energy>  (51) 
70.53902458469796

>  <Genealogy>  (51) 
O=C(CSc1nc(=O)c2c[n-]nc2[n-]1)[N-]Cc1ccccc1Cl (protonated)
O=C(CSc1nc(=O)c2c[n-]nc2[n-]1)[N-]Cc1ccccc1Cl (3D coordinates assigned)
O=C(CSc1nc(=O)c2c[n-]nc2[n-]1)[N-]Cc1ccccc1Cl (optimized conformer: 70.53902458469796 kcal/mol)

>  <smiles>  (51) 
O=C(CSc1nc(=O)c2c[nH]nc2[nH]1)NCc1ccccc1Cl

>  <score_type>  (51) 
oracle

>  <origin>  (51) 
adg

>  <m_score__min__energy>  (51) 
-13.699999999999999

>  <m_primary>  (51) 
energy

$$$$
51:0
     RDKit          3D

 30 31  0  0  0  0  0  0  0  0999 V2000
   58.7020   34.6174   46.3559 H   0  0  0  0  0  0  0  0  0  0  0  0
   58.4210   33.6740   45.8650 C   0  0  0  0  0  0  0  0  0  0  0  0
   58.3570   32.4930   46.6090 C   0  0  0  0  0  0  0  0  0  0  0  0
   58.5837   32.5083   47.6853 H   0  0  0  0  0  0  0  0  0  0  0  0
   58.0050   31.2920   45.9860 C   0  0  0  0  0  0  0  0  0  0  0  0
   57.9492   30.3652   46.5759 H   0  0  0  0  0  0  0  0  0  0  0  0
   57.7220   31.2630   44.6090 C   0  0  0  0  0  0  0  0  0  0  0  0
   57.3100   29.9720   43.9540 C   0  0  0  0  0  0  0  0  0  0  0  0
   58.2045   29.3642   43.7530 H   0  0  0  0  0  0  0  0  0  0  0  0
   56.7906   30.1963   43.0107 H   0  0  0  0  0  0  0  0  0  0  0  0
   56.3870   29.2120   44.8530 C   0  0  0  0  0  0  0  0  0  0  0  0
   55.1590   29.4980   44.8630 O   0  0  0  0  0  0  0  0  0  0  0  0
   56.9150   28.1400   45.6520 N   0  0  0  0  0  0  0  0  0  0  0  0
   56.5510   26.8910   45.6400 C   0  0  0  0  0  0  0  0  0  0  0  0
   55.3260   26.5000   46.0560 N   0  0  0  0  0  0  0  0  0  0  0  0
   55.1370   25.1840   45.9710 N   0  0  0  0  0  0  0  0  0  0  0  0
   56.2100   24.5180   45.4890 C   0  0  0  0  0  0  0  0  0  0  0  0
   56.2410   23.0380   45.2840 C   0  0  0  0  0  0  0  0  0  0  0  0
   55.3525   22.5896   45.7525 H   0  0  0  0  0  0  0  0  0  0  0  0
   57.1568   22.6359   45.7419 H   0  0  0  0  0  0  0  0  0  0  0  0
   56.2480   22.6350   43.5020 S   0  0  0  0  0  0  0  0  0  0  0  0
   57.6690   21.4980   43.5760 C   0  0  0  0  0  0  0  0  0  0  0  0
   57.9222   21.2954   44.6271 H   0  0  0  0  0  0  0  0  0  0  0  0
   57.4104   20.5547   43.0728 H   0  0  0  0  0  0  0  0  0  0  0  0
   58.5326   21.9572   43.0728 H   0  0  0  0  0  0  0  0  0  0  0  0
   57.4780   25.5710   45.1330 S   0  0  0  0  0  0  0  0  0  0  0  0
   57.7750   32.4600   43.8700 C   0  0  0  0  0  0  0  0  0  0  0  0
   57.4820   32.4680   42.5450 F   0  0  0  0  0  0  0  0  0  0  0  0
   58.1290   33.6590   44.5000 C   0  0  0  0  0  0  0  0  0  0  0  0
   58.1772   34.5913   43.9182 H   0  0  0  0  0  0  0  0  0  0  0  0
  1  2  1  0
  2  3  2  0
  3  4  1  0
  3  5  1  0
  5  6  1  0
  5  7  2  0
  7  8  1  0
  8  9  1  0
  8 10  1  0
  8 11  1  0
 11 12  2  0
 11 13  1  0
 13 14  2  0
 14 15  1  0
 15 16  1  0
 16 17  2  0
 17 18  1  0
 18 19  1  0
 18 20  1  0
 18 21  1  0
 21 22  1  0
 22 23  1  0
 22 24  1  0
 22 25  1  0
 17 26  1  0
  7 27  1  0
 27 28  1  0
 27 29  2  0
 29 30  1  0
 29  2  1  0
 26 14  1  0
M  CHG  1  15  -1
M  END
>  <UniqueID>  (52) 
50

>  <SMILES>  (52) 
CSCc1n[n-]/c(=N/C(=O)Cc2ccccc2F)s1

>  <Energy>  (52) 
61.367786488734005

>  <Genealogy>  (52) 
CSCc1n[n-]c(=NC(=O)Cc2ccccc2F)s1 (protonated)
CSCc1n[n-]/c(=N/C(=O)Cc2ccccc2F)s1 (cis-trans isomerization)
CSCc1n[n-]/c(=N/C(=O)Cc2ccccc2F)s1 (3D coordinates assigned)
CSCc1n[n-]/c(=N/C(=O)Cc2ccccc2F)s1 (optimized conformer: 61.367786488734005 kcal/mol)

>  <smiles>  (52) 
CSCc1n[nH]c(=NC(=O)Cc2ccccc2F)s1

>  <score_type>  (52) 
oracle

>  <origin>  (52) 
adg

>  <m_score__min__energy>  (52) 
-9.5800000000000001

>  <m_primary>  (52) 
energy

$$$$
52:0
     RDKit          3D

 59 62  0  0  0  0  0  0  0  0999 V2000
   57.1120   27.0940   46.9440 C   0  0  0  0  0  0  0  0  0  0  0  0
   57.9750   26.2760   46.0880 N   0  0  0  0  0  0  0  0  0  0  0  0
   59.4130   26.1740   46.3870 C   0  0  0  0  0  0  0  0  0  0  0  0
   60.0120   27.5290   46.6620 C   0  0  0  0  0  0  0  0  0  0  0  0
   60.3160   28.4010   45.6010 C   0  0  0  0  0  0  0  0  0  0  0  0
   60.8110   29.6800   45.8600 C   0  0  0  0  0  0  0  0  0  0  0  0
   61.0470   30.0890   47.1800 C   0  0  0  0  0  0  0  0  0  0  0  0
   61.5450   31.4450   47.4590 C   0  0  0  0  0  0  0  0  0  0  0  0
   62.9260   31.6740   47.3570 C   0  0  0  0  0  0  0  0  0  0  0  0
   63.4560   32.9350   47.6250 C   0  0  0  0  0  0  0  0  0  0  0  0
   62.6130   33.9830   47.9910 C   0  0  0  0  0  0  0  0  0  0  0  0
   61.2360   33.7730   48.0860 C   0  0  0  0  0  0  0  0  0  0  0  0
   60.6820   32.5100   47.8210 C   0  0  0  0  0  0  0  0  0  0  0  0
   58.9380   32.2960   48.0640 S   0  0  0  0  0  0  0  0  0  0  0  0
   58.4940   32.7680   49.4210 O   0  0  0  0  0  0  0  0  0  0  0  0
   58.5940   30.8370   47.9500 O   0  0  0  0  0  0  0  0  0  0  0  0
   58.1060   33.1720   46.8250 N   0  0  0  0  0  0  0  0  0  0  0  0
   58.4830   33.0690   45.4500 C   0  0  0  0  0  0  0  0  0  0  0  0
   59.3700   33.8410   44.9890 O   0  0  0  0  0  0  0  0  0  0  0  0
   57.8770   32.0230   44.5900 C   0  0  0  0  0  0  0  0  0  0  0  0
   57.4170   30.8130   45.1480 C   0  0  0  0  0  0  0  0  0  0  0  0
   56.7930   29.8510   44.3380 C   0  0  0  0  0  0  0  0  0  0  0  0
   56.6210   30.0890   42.9690 C   0  0  0  0  0  0  0  0  0  0  0  0
   57.0750   31.2870   42.4080 C   0  0  0  0  0  0  0  0  0  0  0  0
   57.6990   32.2500   43.2100 C   0  0  0  0  0  0  0  0  0  0  0  0
   60.7490   29.2190   48.2410 C   0  0  0  0  0  0  0  0  0  0  0  0
   60.2430   27.9460   47.9840 C   0  0  0  0  0  0  0  0  0  0  0  0
   57.3720   25.5630   44.9820 C   0  0  0  0  0  0  0  0  0  0  0  0
   57.7280   25.8220   43.8000 O   0  0  0  0  0  0  0  0  0  0  0  0
   56.3090   24.5590   45.1920 C   0  0  0  0  0  0  0  0  0  0  0  0
   56.5920   23.1970   44.9810 C   0  0  0  0  0  0  0  0  0  0  0  0
   55.5990   22.2270   45.1810 C   0  0  0  0  0  0  0  0  0  0  0  0
   55.9840   20.5260   44.9320 Cl  0  0  0  0  0  0  0  0  0  0  0  0
   54.3100   22.6130   45.5800 C   0  0  0  0  0  0  0  0  0  0  0  0
   53.3130   21.6560   45.7710 O   0  0  0  0  0  0  0  0  0  0  0  0
   54.0220   23.9660   45.7990 C   0  0  0  0  0  0  0  0  0  0  0  0
   55.0150   24.9430   45.6200 C   0  0  0  0  0  0  0  0  0  0  0  0
   54.6940   26.2730   45.9140 O   0  0  0  0  0  0  0  0  0  0  0  0
   57.3358   26.8819   47.9999 H   0  0  0  0  0  0  0  0  0  0  0  0
   57.2940   28.1590   46.7374 H   0  0  0  0  0  0  0  0  0  0  0  0
   56.0583   26.8553   46.7374 H   0  0  0  0  0  0  0  0  0  0  0  0
   59.5507   25.5350   47.2717 H   0  0  0  0  0  0  0  0  0  0  0  0
   59.9199   25.7412   45.5120 H   0  0  0  0  0  0  0  0  0  0  0  0
   60.1629   28.0733   44.5622 H   0  0  0  0  0  0  0  0  0  0  0  0
   61.0163   30.3683   45.0269 H   0  0  0  0  0  0  0  0  0  0  0  0
   63.5953   30.8519   47.0633 H   0  0  0  0  0  0  0  0  0  0  0  0
   64.5403   33.1032   47.5476 H   0  0  0  0  0  0  0  0  0  0  0  0
   63.0332   34.9768   48.2053 H   0  0  0  0  0  0  0  0  0  0  0  0
   60.5774   34.6064   48.3717 H   0  0  0  0  0  0  0  0  0  0  0  0
   57.5476   30.6216   46.2233 H   0  0  0  0  0  0  0  0  0  0  0  0
   56.4384   28.9081   44.7799 H   0  0  0  0  0  0  0  0  0  0  0  0
   56.1298   29.3353   42.3360 H   0  0  0  0  0  0  0  0  0  0  0  0
   56.9412   31.4734   41.3322 H   0  0  0  0  0  0  0  0  0  0  0  0
   58.0526   33.1897   42.7606 H   0  0  0  0  0  0  0  0  0  0  0  0
   60.9155   29.5433   49.2788 H   0  0  0  0  0  0  0  0  0  0  0  0
   60.0236   27.2649   48.8194 H   0  0  0  0  0  0  0  0  0  0  0  0
   57.5978   22.8912   44.6573 H   0  0  0  0  0  0  0  0  0  0  0  0
   53.0113   24.2655   46.1133 H   0  0  0  0  0  0  0  0  0  0  0  0
   54.1590   26.5410   46.7400 H   0  0  0  0  0  0  0  0  0  0  0  0
  1  2  1  0
  2  3  1  0
  3  4  1  0
  4  5  2  0
  5  6  1  0
  6  7  2  0
  7  8  1  0
  8  9  2  0
  9 10  1  0
 10 11  2  0
 11 12  1  0
 12 13  2  0
 13 14  1  0
 14 15  2  0
 14 16  2  0
 14 17  1  0
 17 18  1  0
 18 19  2  0
 18 20  1  0
 20 21  2  0
 21 22  1  0
 22 23  2  0
 23 24  1  0
 24 25  2  0
  7 26  1  0
 26 27  2  0
  2 28  1  0
 28 29  2  0
 28 30  1  0
 30 31  2  0
 31 32  1  0
 32 33  1  0
 32 34  2  0
 34 35  1  0
 34 36  1  0
 36 37  2  0
 37 38  1  0
 27  4  1  0
 37 30  1  0
 13  8  1  0
 25 20  1  0
  1 39  1  0
  1 40  1  0
  1 41  1  0
  3 42  1  0
  3 43  1  0
  5 44  1  0
  6 45  1  0
  9 46  1  0
 10 47  1  0
 11 48  1  0
 12 49  1  0
 21 50  1  0
 22 51  1  0
 23 52  1  0
 24 53  1  0
 25 54  1  0
 26 55  1  0
 27 56  1  0
 31 57  1  0
 36 58  1  0
 38 59  1  0
M  CHG  2  17  -1  35  -1
M  END
>  <UniqueID>  (53) 
51

>  <SMILES>  (53) 
CN(Cc1ccc(-c2ccccc2S(=O)(=O)[N-]C(=O)c2ccccc2)cc1)C(=O)c1cc(Cl)c([O-])cc1O

>  <Energy>  (53) 
82.37039663869402

>  <Genealogy>  (53) 
CN(Cc1ccc(-c2ccccc2S(=O)(=O)[N-]C(=O)c2ccccc2)cc1)C(=O)c1cc(Cl)c([O-])cc1O (protonated)
CN(Cc1ccc(-c2ccccc2S(=O)(=O)[N-]C(=O)c2ccccc2)cc1)C(=O)c1cc(Cl)c([O-])cc1O (3D coordinates assigned)
CN(Cc1ccc(-c2ccccc2S(=O)(=O)[N-]C(=O)c2ccccc2)cc1)C(=O)c1cc(Cl)c([O-])cc1O (optimized conformer: 82.37039663869402 kcal/mol)

>  <smiles>  (53) 
CN(Cc1ccc(-c2ccccc2S(=O)(=O)NC(=O)c2ccccc2)cc1)C(=O)c1cc(Cl)c(O)cc1O

>  <score_type>  (53) 
oracle

>  <origin>  (53) 
adg

>  <m_score__min__energy>  (53) 
-14.33

>  <m_primary>  (53) 
energy

$$$$
53:0
     RDKit          3D

 50 52  0  0  1  0  0  0  0  0999 V2000
   59.3080   34.7830   47.2880 C   0  0  0  0  0  0  0  0  0  0  0  0
   60.2710   33.7430   47.6410 N   0  0  0  0  0  0  0  0  0  0  0  0
   61.2740   33.7200   46.6110 C   0  0  0  0  0  0  0  0  0  0  0  0
   62.3260   32.7150   47.0460 C   0  0  0  0  0  0  0  0  0  0  0  0
   63.1000   33.3820   48.1610 C   0  0  0  0  0  0  0  0  0  0  0  0
   63.8300   32.3350   49.0150 C   0  0  0  0  0  0  0  0  0  0  0  0
   63.0520   32.2590   50.2380 N   0  0  0  0  0  0  0  0  0  0  0  0
   62.1680   31.3550   50.3530 C   0  0  0  0  0  0  0  0  0  0  0  0
   61.8510   30.4650   49.4040 N   0  0  0  0  0  0  0  0  0  0  0  0
   60.8960   29.5190   49.5790 C   0  0  0  0  0  0  0  0  0  0  0  0
   60.6770   28.7160   48.5910 N   0  0  0  0  0  0  0  0  0  0  0  0
   59.6770   28.9810   47.6160 C   0  0  0  0  0  0  0  0  0  0  0  0
   58.9210   27.9890   47.0220 C   0  0  0  0  0  0  0  0  0  0  0  0
   57.9480   28.2480   46.0740 C   0  0  0  0  0  0  0  0  0  0  0  0
   57.7240   29.5760   45.7010 C   0  0  0  0  0  0  0  0  0  0  0  0
   56.4970   29.9430   44.5010 S   0  0  0  0  0  0  0  0  0  0  0  0
   56.9940   29.2340   43.0070 N   0  0  0  0  0  0  0  0  0  0  0  0
   56.2700   31.4220   44.3810 O   0  0  0  0  0  0  0  0  0  0  0  0
   55.1720   29.3410   44.9010 O   0  0  0  0  0  0  0  0  0  0  0  0
   58.4740   30.5890   46.2870 C   0  0  0  0  0  0  0  0  0  0  0  0
   59.4390   30.2960   47.2320 C   0  0  0  0  0  0  0  0  0  0  0  0
   60.2110   29.4170   50.7170 N   0  0  0  0  0  0  0  0  0  0  0  0
   60.4870   30.2830   51.7040 C   0  0  0  0  0  0  0  0  0  0  0  0
   61.4590   31.2620   51.5530 C   0  0  0  0  0  0  0  0  0  0  0  0
   61.8270   32.4740   52.9690 Br  0  0  0  0  0  0  0  0  0  0  0  0
   62.2240   34.2560   49.0200 C   0  0  0  0  0  0  0  0  0  0  0  0
   60.7640   33.8930   48.9720 C   0  0  0  0  0  0  0  0  0  0  0  0
   58.8960   35.2280   48.2057 H   0  0  0  0  0  0  0  0  0  0  0  0
   59.8104   35.5623   46.6962 H   0  0  0  0  0  0  0  0  0  0  0  0
   58.4924   34.3419   46.6962 H   0  0  0  0  0  0  0  0  0  0  0  0
   60.8275   33.4109   45.6544 H   0  0  0  0  0  0  0  0  0  0  0  0
   61.7158   34.7171   46.4677 H   0  0  0  0  0  0  0  0  0  0  0  0
   61.8477   31.7937   47.4101 H   0  0  0  0  0  0  0  0  0  0  0  0
   62.9837   32.4316   46.2110 H   0  0  0  0  0  0  0  0  0  0  0  0
   63.8472   34.0381   47.6906 H   0  0  0  0  0  0  0  0  0  0  0  0
   63.8485   31.3608   48.5045 H   0  0  0  0  0  0  0  0  0  0  0  0
   64.8796   32.6054   49.2024 H   0  0  0  0  0  0  0  0  0  0  0  0
   62.3650   30.5120   48.4970 H   0  0  0  0  0  0  0  0  0  0  0  0
   59.1013   26.9447   47.3167 H   0  0  0  0  0  0  0  0  0  0  0  0
   57.3655   27.4299   45.6252 H   0  0  0  0  0  0  0  0  0  0  0  0
   56.6980   28.2340   42.9600 H   0  0  0  0  0  0  0  0  0  0  0  0
   58.0240   29.2530   42.8560 H   0  0  0  0  0  0  0  0  0  0  0  0
   58.2976   31.6349   45.9955 H   0  0  0  0  0  0  0  0  0  0  0  0
   60.0240   31.1104   47.6844 H   0  0  0  0  0  0  0  0  0  0  0  0
   59.4950   28.6920   50.8210 H   0  0  0  0  0  0  0  0  0  0  0  0
   59.9320   30.2157   52.6513 H   0  0  0  0  0  0  0  0  0  0  0  0
   62.5673   34.1728   50.0617 H   0  0  0  0  0  0  0  0  0  0  0  0
   62.3111   35.2795   48.6265 H   0  0  0  0  0  0  0  0  0  0  0  0
   60.6210   32.9432   49.5081 H   0  0  0  0  0  0  0  0  0  0  0  0
   60.2043   34.7163   49.4398 H   0  0  0  0  0  0  0  0  0  0  0  0
  1  2  1  0
  2  3  1  0
  3  4  1  0
  4  5  1  0
  5  6  1  0
  6  7  1  0
  7  8  2  0
  8  9  1  0
  9 10  1  0
 10 11  2  0
 11 12  1  0
 12 13  2  0
 13 14  1  0
 14 15  2  0
 15 16  1  0
 16 17  1  0
 16 18  2  0
 16 19  2  0
 15 20  1  0
 20 21  2  0
 10 22  1  0
 22 23  1  0
 23 24  2  0
 24 25  1  0
  5 26  1  0
 26 27  1  0
 27  2  1  0
 24  8  1  0
 21 12  1  0
  1 28  1  0
  1 29  1  0
  1 30  1  0
  3 31  1  0
  3 32  1  0
  4 33  1  0
  4 34  1  0
  5 35  1  0
  6 36  1  0
  6 37  1  0
  9 38  1  0
 13 39  1  0
 14 40  1  0
 17 41  1  0
 17 42  1  0
 20 43  1  0
 21 44  1  0
 22 45  1  0
 23 46  1  0
 26 47  1  0
 26 48  1  0
 27 49  1  0
 27 50  1  0
M  END
>  <smiles>  (54) 
CN1CCC(CN=c2[nH]c(=Nc3ccc(S(N)(=O)=O)cc3)[nH]cc2Br)CC1

>  <score_type>  (54) 
oracle

>  <origin>  (54) 
adg

>  <m_score__min__energy>  (54) 
-9.3699999999999992

>  <m_primary>  (54) 
energy

$$$$
54:0
     RDKit          3D

 43 46  0  0  0  0  0  0  0  0999 V2000
   59.3850   22.4390   44.8920 C   0  0  0  0  0  0  0  0  0  0  0  0
   58.0730   23.0750   45.0440 N   0  0  0  0  0  0  0  0  0  0  0  0
   56.9250   22.5700   44.6980 N   0  0  0  0  0  0  0  0  0  0  0  0
   55.9350   23.4240   44.9820 C   0  0  0  0  0  0  0  0  0  0  0  0
   56.5240   24.5230   45.5390 C   0  0  0  0  0  0  0  0  0  0  0  0
   55.7600   25.6900   45.9860 C   0  0  0  0  0  0  0  0  0  0  0  0
   56.2880   26.5780   46.7360 O   0  0  0  0  0  0  0  0  0  0  0  0
   54.4400   25.9150   45.6390 O   0  0  0  0  0  0  0  0  0  0  0  0
   57.9070   24.3300   45.5940 C   0  0  0  0  0  0  0  0  0  0  0  0
   58.8170   25.0960   46.0330 O   0  0  0  0  0  0  0  0  0  0  0  0
   59.7420   25.8740   46.4790 C   0  0  0  0  0  0  0  0  0  0  0  0
   59.5440   27.3590   46.2320 C   0  0  0  0  0  0  0  0  0  0  0  0
   59.9670   27.9650   45.0790 C   0  0  0  0  0  0  0  0  0  0  0  0
   59.7430   29.3410   44.9380 C   0  0  0  0  0  0  0  0  0  0  0  0
   59.1090   30.0660   45.9480 C   0  0  0  0  0  0  0  0  0  0  0  0
   58.8800   31.4930   45.8260 C   0  0  0  0  0  0  0  0  0  0  0  0
   59.7790   32.3220   46.4910 C   0  0  0  0  0  0  0  0  0  0  0  0
   59.6420   33.7040   46.4470 C   0  0  0  0  0  0  0  0  0  0  0  0
   58.5900   34.1970   45.7250 C   0  0  0  0  0  0  0  0  0  0  0  0
   57.7100   33.3850   45.0750 C   0  0  0  0  0  0  0  0  0  0  0  0
   57.8180   31.9880   45.0970 C   0  0  0  0  0  0  0  0  0  0  0  0
   56.8700   31.1410   44.3960 C   0  0  0  0  0  0  0  0  0  0  0  0
   55.8020   30.4600   44.8250 N   0  0  0  0  0  0  0  0  0  0  0  0
   55.2420   29.8370   43.8160 N   0  0  0  0  0  0  0  0  0  0  0  0
   55.9320   30.0990   42.7110 N   0  0  0  0  0  0  0  0  0  0  0  0
   56.9350   30.9030   43.0700 N   0  0  0  0  0  0  0  0  0  0  0  0
   58.6980   29.3910   47.1030 C   0  0  0  0  0  0  0  0  0  0  0  0
   58.9070   28.0330   47.2650 C   0  0  0  0  0  0  0  0  0  0  0  0
   59.8099   22.2330   45.8855 H   0  0  0  0  0  0  0  0  0  0  0  0
   59.2730   21.4952   44.3382 H   0  0  0  0  0  0  0  0  0  0  0  0
   60.0566   23.1116   44.3382 H   0  0  0  0  0  0  0  0  0  0  0  0
   56.8110   21.6250   44.2590 H   0  0  0  0  0  0  0  0  0  0  0  0
   54.8605   23.2713   44.8026 H   0  0  0  0  0  0  0  0  0  0  0  0
   59.8144   25.7210   47.5659 H   0  0  0  0  0  0  0  0  0  0  0  0
   60.6507   25.6010   45.9225 H   0  0  0  0  0  0  0  0  0  0  0  0
   60.4677   27.3887   44.2871 H   0  0  0  0  0  0  0  0  0  0  0  0
   60.0701   29.8549   44.0221 H   0  0  0  0  0  0  0  0  0  0  0  0
   60.6092   31.8769   47.0591 H   0  0  0  0  0  0  0  0  0  0  0  0
   60.3459   34.3698   46.9679 H   0  0  0  0  0  0  0  0  0  0  0  0
   58.4497   35.2865   45.6672 H   0  0  0  0  0  0  0  0  0  0  0  0
   56.8837   33.8432   44.5118 H   0  0  0  0  0  0  0  0  0  0  0  0
   58.1957   29.9549   47.9029 H   0  0  0  0  0  0  0  0  0  0  0  0
   58.5816   27.5086   48.1755 H   0  0  0  0  0  0  0  0  0  0  0  0
  1  2  1  0
  2  3  1  0
  3  4  2  0
  4  5  1  0
  5  6  1  0
  6  7  2  0
  6  8  1  0
  5  9  2  0
  9 10  1  0
 10 11  1  0
 11 12  1  0
 12 13  2  0
 13 14  1  0
 14 15  2  0
 15 16  1  0
 16 17  2  0
 17 18  1  0
 18 19  2  0
 19 20  1  0
 20 21  2  0
 21 22  1  0
 22 23  1  0
 23 24  2  0
 24 25  1  0
 25 26  1  0
 15 27  1  0
 27 28  2  0
  9  2  1  0
 28 12  1  0
 21 16  1  0
 26 22  2  0
  1 29  1  0
  1 30  1  0
  1 31  1  0
  3 32  1  0
  4 33  1  0
 11 34  1  0
 11 35  1  0
 13 36  1  0
 14 37  1  0
 17 38  1  0
 18 39  1  0
 19 40  1  0
 20 41  1  0
 27 42  1  0
 28 43  1  0
M  CHG  3   3   1   8  -1  25  -1
M  END
>  <UniqueID>  (55) 
52

>  <SMILES>  (55) 
Cn1[nH+]cc(C(=O)[O-])c1OCc1ccc(-c2ccccc2-c2nn[n-]n2)cc1

>  <Energy>  (55) 
230.30488734236565

>  <Genealogy>  (55) 
Cn1[nH+]cc(C(=O)[O-])c1OCc1ccc(-c2ccccc2-c2nn[n-]n2)cc1 (protonated)
Cn1[nH+]cc(C(=O)[O-])c1OCc1ccc(-c2ccccc2-c2nn[n-]n2)cc1 (3D coordinates assigned)
Cn1[nH+]cc(C(=O)[O-])c1OCc1ccc(-c2ccccc2-c2nn[n-]n2)cc1 (optimized conformer: 230.30488734236565 kcal/mol)

>  <smiles>  (55) 
Cn1ncc(C(=O)O)c1OCc1ccc(-c2ccccc2-c2nn[nH]n2)cc1

>  <score_type>  (55) 
oracle

>  <origin>  (55) 
adg

>  <m_score__min__energy>  (55) 
-11.949999999999999

>  <m_primary>  (55) 
energy

$$$$
55:0
     RDKit          3D

 43 45  0  0  1  0  0  0  0  0999 V2000
   57.7730   22.0990   44.8420 C   0  0  0  0  0  0  0  0  0  0  0  0
   57.2690   21.6790   46.1880 C   0  0  0  0  0  0  0  0  0  0  0  0
   57.2370   22.7080   47.1330 O   0  0  0  0  0  0  0  0  0  0  0  0
   56.7030   23.9600   46.9190 C   0  0  0  0  0  0  0  0  0  0  0  0
   55.4810   24.1690   47.1580 O   0  0  0  0  0  0  0  0  0  0  0  0
   57.4890   25.0770   46.4230 C   0  0  0  0  0  0  0  0  0  0  0  0
   58.8740   25.0180   46.3660 C   0  0  0  0  0  0  0  0  0  0  0  0
   59.5880   26.0490   45.9080 N   0  0  0  0  0  0  0  0  0  0  0  0
   59.0010   27.1720   45.4890 C   0  0  0  0  0  0  0  0  0  0  0  0
   59.6800   28.2650   45.0090 C   0  0  0  0  0  0  0  0  0  0  0  0
   59.0100   29.3970   44.5900 C   0  0  0  0  0  0  0  0  0  0  0  0
   57.6430   29.5110   44.6240 C   0  0  0  0  0  0  0  0  0  0  0  0
   56.7560   30.9140   44.1160 S   0  0  0  0  0  0  0  0  0  0  0  0
   55.2900   30.4660   44.0590 O   0  0  0  0  0  0  0  0  0  0  0  0
   57.0630   31.3400   42.7070 O   0  0  0  0  0  0  0  0  0  0  0  0
   56.8150   32.1930   45.2330 N   0  0  0  0  0  0  0  0  0  0  0  0
   57.8550   32.9160   45.4230 C   0  0  0  0  0  0  0  0  0  0  0  0
   58.9280   32.4860   46.1660 C   0  0  0  0  0  0  0  0  0  0  0  0
   60.0410   33.2480   46.3730 C   0  0  0  0  0  0  0  0  0  0  0  0
   61.1750   32.7670   47.1700 C   0  0  0  0  0  0  0  0  0  0  0  0
   60.0910   34.4870   45.8220 N   0  0  0  0  0  0  0  0  0  0  0  0
   59.0390   34.9260   45.0880 C   0  0  0  0  0  0  0  0  0  0  0  0
   57.9440   34.1620   44.8890 N   0  0  0  0  0  0  0  0  0  0  0  0
   56.9560   28.3920   45.1140 C   0  0  0  0  0  0  0  0  0  0  0  0
   57.6230   27.2590   45.5330 C   0  0  0  0  0  0  0  0  0  0  0  0
   56.8560   26.2130   46.0000 C   0  0  0  0  0  0  0  0  0  0  0  0
   55.6050   26.3070   46.0340 O   0  0  0  0  0  0  0  0  0  0  0  0
   58.6126   22.7987   44.9668 H   0  0  0  0  0  0  0  0  0  0  0  0
   58.1133   21.2135   44.2852 H   0  0  0  0  0  0  0  0  0  0  0  0
   56.9633   22.5934   44.2852 H   0  0  0  0  0  0  0  0  0  0  0  0
   56.2476   21.2888   46.0678 H   0  0  0  0  0  0  0  0  0  0  0  0
   57.9716   20.9224   46.5673 H   0  0  0  0  0  0  0  0  0  0  0  0
   59.3917   24.1079   46.7033 H   0  0  0  0  0  0  0  0  0  0  0  0
   60.6280   25.9820   45.8760 H   0  0  0  0  0  0  0  0  0  0  0  0
   60.7785   28.2380   44.9574 H   0  0  0  0  0  0  0  0  0  0  0  0
   59.5986   30.2459   44.2118 H   0  0  0  0  0  0  0  0  0  0  0  0
   58.8880   31.4822   46.6142 H   0  0  0  0  0  0  0  0  0  0  0  0
   60.9398   32.8668   48.2399 H   0  0  0  0  0  0  0  0  0  0  0  0
   61.3670   31.7100   46.9338 H   0  0  0  0  0  0  0  0  0  0  0  0
   62.0684   33.3636   46.9338 H   0  0  0  0  0  0  0  0  0  0  0  0
   60.9440   35.1000   45.9680 H   0  0  0  0  0  0  0  0  0  0  0  0
   59.0788   35.9312   44.6429 H   0  0  0  0  0  0  0  0  0  0  0  0
   55.8575   28.4176   45.1659 H   0  0  0  0  0  0  0  0  0  0  0  0
  1  2  1  0
  2  3  1  0
  3  4  1  0
  4  5  2  0
  4  6  1  0
  6  7  2  0
  7  8  1  0
  8  9  1  0
  9 10  2  0
 10 11  1  0
 11 12  2  0
 12 13  1  0
 13 14  2  0
 13 15  2  0
 13 16  1  0
 16 17  2  0
 17 18  1  0
 18 19  2  0
 19 20  1  0
 19 21  1  0
 21 22  1  0
 22 23  2  0
 12 24  1  0
 24 25  2  0
 25 26  1  0
 26 27  2  0
 26  6  1  0
 25  9  1  0
 23 17  1  0
  1 28  1  0
  1 29  1  0
  1 30  1  0
  2 31  1  0
  2 32  1  0
  7 33  1  0
  8 34  1  0
 10 35  1  0
 11 36  1  0
 18 37  1  0
 20 38  1  0
 20 39  1  0
 20 40  1  0
 21 41  1  0
 22 42  1  0
 24 43  1  0
M  END
>  <smiles>  (56) 
CCOC(=O)c1c[nH]c2ccc(S(=O)(=O)N=c3cc(C)[nH]cn3)cc2c1=O

>  <score_type>  (56) 
oracle

>  <origin>  (56) 
adg

>  <m_score__min__energy>  (56) 
-9

>  <m_primary>  (56) 
energy

$$$$
56:0
     RDKit          3D

 36 38  0  0  0  0  0  0  0  0999 V2000
   57.5800   33.1750   44.5830 O   0  0  0  0  0  0  0  0  0  0  0  0
   57.3690   31.9420   44.4490 C   0  0  0  0  0  0  0  0  0  0  0  0
   56.2070   31.3520   44.7970 N   0  0  0  0  0  0  0  0  0  0  0  0
   56.2390   30.0150   44.5540 C   0  0  0  0  0  0  0  0  0  0  0  0
   55.1400   29.2100   44.8490 O   0  0  0  0  0  0  0  0  0  0  0  0
   57.4350   29.5450   43.9970 C   0  0  0  0  0  0  0  0  0  0  0  0
   57.8050   28.1230   43.6950 C   0  0  0  0  0  0  0  0  0  0  0  0
   58.0030   27.3550   44.9740 C   0  0  0  0  0  0  0  0  0  0  0  0
   59.1880   27.5020   45.7110 C   0  0  0  0  0  0  0  0  0  0  0  0
   59.3580   26.8130   46.9140 C   0  0  0  0  0  0  0  0  0  0  0  0
   58.3450   25.9790   47.3930 C   0  0  0  0  0  0  0  0  0  0  0  0
   57.1510   25.8300   46.6780 C   0  0  0  0  0  0  0  0  0  0  0  0
   56.1360   24.9670   47.2070 N   0  0  0  0  0  0  0  0  0  0  0  0
   54.9780   24.0880   46.2600 S   0  0  0  0  0  0  0  0  0  0  0  0
   54.0230   25.0620   45.6290 O   0  0  0  0  0  0  0  0  0  0  0  0
   54.2090   23.1600   47.1580 O   0  0  0  0  0  0  0  0  0  0  0  0
   55.8000   23.1370   45.0260 C   0  0  0  0  0  0  0  0  0  0  0  0
   56.6830   22.1120   45.3920 C   0  0  0  0  0  0  0  0  0  0  0  0
   57.3170   21.3470   44.4070 C   0  0  0  0  0  0  0  0  0  0  0  0
   57.0720   21.6050   43.0550 C   0  0  0  0  0  0  0  0  0  0  0  0
   56.1950   22.6290   42.6870 C   0  0  0  0  0  0  0  0  0  0  0  0
   55.5610   23.3950   43.6700 C   0  0  0  0  0  0  0  0  0  0  0  0
   56.9820   26.5270   45.4670 C   0  0  0  0  0  0  0  0  0  0  0  0
   58.4870   30.8520   43.8320 S   0  0  0  0  0  0  0  0  0  0  0  0
   55.1970   28.2010   44.8760 H   0  0  0  0  0  0  0  0  0  0  0  0
   56.9996   27.6542   43.1106 H   0  0  0  0  0  0  0  0  0  0  0  0
   58.7425   28.1103   43.1197 H   0  0  0  0  0  0  0  0  0  0  0  0
   59.9858   28.1622   45.3400 H   0  0  0  0  0  0  0  0  0  0  0  0
   60.2911   26.9273   47.4851 H   0  0  0  0  0  0  0  0  0  0  0  0
   58.4866   25.4355   48.3388 H   0  0  0  0  0  0  0  0  0  0  0  0
   56.8779   21.9087   46.4553 H   0  0  0  0  0  0  0  0  0  0  0  0
   58.0086   20.5421   44.6965 H   0  0  0  0  0  0  0  0  0  0  0  0
   57.5694   21.0021   42.2810 H   0  0  0  0  0  0  0  0  0  0  0  0
   56.0033   22.8325   41.6231 H   0  0  0  0  0  0  0  0  0  0  0  0
   54.8730   24.2020   43.3779 H   0  0  0  0  0  0  0  0  0  0  0  0
   56.0435   26.4223   44.9029 H   0  0  0  0  0  0  0  0  0  0  0  0
  1  2  2  0
  2  3  1  0
  3  4  1  0
  4  5  1  0
  4  6  2  0
  6  7  1  0
  7  8  1  0
  8  9  2  0
  9 10  1  0
 10 11  2  0
 11 12  1  0
 12 13  1  0
 13 14  1  0
 14 15  2  0
 14 16  2  0
 14 17  1  0
 17 18  2  0
 18 19  1  0
 19 20  2  0
 20 21  1  0
 21 22  2  0
 12 23  2  0
  6 24  1  0
 24  2  1  0
 23  8  1  0
 22 17  1  0
  5 25  1  0
  7 26  1  0
  7 27  1  0
  9 28  1  0
 10 29  1  0
 11 30  1  0
 18 31  1  0
 19 32  1  0
 20 33  1  0
 21 34  1  0
 22 35  1  0
 23 36  1  0
M  CHG  2   3  -1  13  -1
M  END
>  <UniqueID>  (57) 
53

>  <SMILES>  (57) 
O=c1[n-]c(O)c(Cc2cccc([N-]S(=O)(=O)c3ccccc3)c2)s1

>  <Energy>  (57) 
70.00428961400291

>  <Genealogy>  (57) 
O=c1[n-]c(O)c(Cc2cccc([N-]S(=O)(=O)c3ccccc3)c2)s1 (protonated)
O=c1[n-]c(O)c(Cc2cccc([N-]S(=O)(=O)c3ccccc3)c2)s1 (3D coordinates assigned)
O=c1[n-]c(O)c(Cc2cccc([N-]S(=O)(=O)c3ccccc3)c2)s1 (optimized conformer: 70.00428961400291 kcal/mol)

>  <smiles>  (57) 
O=c1[nH]c(O)c(Cc2cccc(NS(=O)(=O)c3ccccc3)c2)s1

>  <score_type>  (57) 
oracle

>  <origin>  (57) 
adg

>  <m_score__min__energy>  (57) 
-13.220000000000001

>  <m_primary>  (57) 
energy

$$$$
57:0
     RDKit          3D

 34 36  0  0  0  0  0  0  0  0999 V2000
   57.4230   31.9870   50.8220 N   0  0  0  0  0  0  0  0  0  0  0  0
   58.7740   32.7810   51.5520 S   0  0  0  0  0  0  0  0  0  0  0  0
   58.2920   34.0070   52.2740 O   0  0  0  0  0  0  0  0  0  0  0  0
   59.4210   31.8610   52.5500 O   0  0  0  0  0  0  0  0  0  0  0  0
   59.9480   33.2280   50.3070 C   0  0  0  0  0  0  0  0  0  0  0  0
   61.2310   33.6540   50.6830 C   0  0  0  0  0  0  0  0  0  0  0  0
   62.1690   34.0200   49.7140 C   0  0  0  0  0  0  0  0  0  0  0  0
   61.8390   33.9700   48.3590 C   0  0  0  0  0  0  0  0  0  0  0  0
   60.5590   33.5540   47.9640 C   0  0  0  0  0  0  0  0  0  0  0  0
   60.2040   33.5030   46.6100 C   0  0  0  0  0  0  0  0  0  0  0  0
   58.9170   33.0870   46.2300 C   0  0  0  0  0  0  0  0  0  0  0  0
   58.5280   33.0320   44.8010 C   0  0  0  0  0  0  0  0  0  0  0  0
   58.4240   34.1010   44.1420 O   0  0  0  0  0  0  0  0  0  0  0  0
   58.3580   31.7570   44.1560 N   0  0  0  0  0  0  0  0  0  0  0  0
   57.5050   30.8060   44.4210 C   0  0  0  0  0  0  0  0  0  0  0  0
   57.7800   29.7400   45.3050 C   0  0  0  0  0  0  0  0  0  0  0  0
   56.8100   28.7590   45.5240 C   0  0  0  0  0  0  0  0  0  0  0  0
   55.6150   28.8220   44.8820 N   0  0  0  0  0  0  0  0  0  0  0  0
   55.3270   29.8260   44.0130 C   0  0  0  0  0  0  0  0  0  0  0  0
   56.2680   30.8270   43.7630 C   0  0  0  0  0  0  0  0  0  0  0  0
   58.0050   32.7310   47.2380 C   0  0  0  0  0  0  0  0  0  0  0  0
   58.3670   32.7860   48.5460 N   0  0  0  0  0  0  0  0  0  0  0  0
   59.6080   33.1820   48.9400 C   0  0  0  0  0  0  0  0  0  0  0  0
   57.8030   31.2960   50.1370 H   0  0  0  0  0  0  0  0  0  0  0  0
   56.9090   32.7090   50.2670 H   0  0  0  0  0  0  0  0  0  0  0  0
   61.5004   33.7002   51.7485 H   0  0  0  0  0  0  0  0  0  0  0  0
   63.1727   34.3492   50.0209 H   0  0  0  0  0  0  0  0  0  0  0  0
   62.5826   34.2568   47.6008 H   0  0  0  0  0  0  0  0  0  0  0  0
   60.9361   33.7899   45.8408 H   0  0  0  0  0  0  0  0  0  0  0  0
   58.7515   29.6824   45.8178 H   0  0  0  0  0  0  0  0  0  0  0  0
   57.0150   27.9318   46.2195 H   0  0  0  0  0  0  0  0  0  0  0  0
   54.3513   29.8503   43.5057 H   0  0  0  0  0  0  0  0  0  0  0  0
   56.0382   31.6320   43.0495 H   0  0  0  0  0  0  0  0  0  0  0  0
   56.9902   32.4053   46.9657 H   0  0  0  0  0  0  0  0  0  0  0  0
  1  2  1  0
  2  3  2  0
  2  4  2  0
  2  5  1  0
  5  6  2  0
  6  7  1  0
  7  8  2  0
  8  9  1  0
  9 10  2  0
 10 11  1  0
 11 12  1  0
 12 13  2  0
 12 14  1  0
 14 15  2  3
 15 16  1  0
 16 17  2  0
 17 18  1  0
 18 19  1  0
 19 20  2  0
 11 21  2  0
 21 22  1  0
 22 23  2  0
 23  5  1  0
 23  9  1  0
 20 15  1  0
  1 24  1  0
  1 25  1  0
  6 26  1  0
  7 27  1  0
  8 28  1  0
 10 29  1  0
 16 30  1  0
 17 31  1  0
 19 32  1  0
 20 33  1  0
 21 34  1  0
M  CHG  1  18  -1
M  END
>  <UniqueID>  (58) 
54

>  <SMILES>  (58) 
NS(=O)(=O)c1cccc2cc(C(=O)N=c3cc[n-]cc3)cnc12

>  <Energy>  (58) 
49.02181710108198

>  <Genealogy>  (58) 
NS(=O)(=O)c1cccc2cc(C(=O)N=c3cc[n-]cc3)cnc12 (protonated)
NS(=O)(=O)c1cccc2cc(C(=O)N=c3cc[n-]cc3)cnc12 (3D coordinates assigned)
NS(=O)(=O)c1cccc2cc(C(=O)N=c3cc[n-]cc3)cnc12 (optimized conformer: 49.02181710108198 kcal/mol)

>  <smiles>  (58) 
NS(=O)(=O)c1cccc2cc(C(=O)N=c3cc[nH]cc3)cnc12

>  <score_type>  (58) 
oracle

>  <origin>  (58) 
adg

>  <m_score__min__energy>  (58) 
-9.2699999999999996

>  <m_primary>  (58) 
energy

$$$$
58:0
     RDKit          3D

 48 52  0  0  0  0  0  0  0  0999 V2000
   54.7650   27.4640   46.4040 H   0  0  0  0  0  0  0  0  0  0  0  0
   55.1170   26.7010   45.8380 O   0  0  0  0  0  0  0  0  0  0  0  0
   56.1130   25.8600   46.3220 C   0  0  0  0  0  0  0  0  0  0  0  0
   55.8840   24.8200   47.1410 N   0  0  0  0  0  0  0  0  0  0  0  0
   57.1230   24.3300   47.3480 C   0  0  0  0  0  0  0  0  0  0  0  0
   57.3450   23.3310   48.0810 O   0  0  0  0  0  0  0  0  0  0  0  0
   58.1110   24.9990   46.7150 N   0  0  0  0  0  0  0  0  0  0  0  0
   57.4550   25.9640   46.0450 C   0  0  0  0  0  0  0  0  0  0  0  0
   58.0860   27.0410   45.2560 C   0  0  0  0  0  0  0  0  0  0  0  0
   58.8773   26.7485   44.5501 H   0  0  0  0  0  0  0  0  0  0  0  0
   57.7780   28.3470   45.3250 C   0  0  0  0  0  0  0  0  0  0  0  0
   56.7420   28.9680   44.6270 C   0  0  0  0  0  0  0  0  0  0  0  0
   56.0445   28.4546   43.9488 H   0  0  0  0  0  0  0  0  0  0  0  0
   56.7180   30.2940   44.9040 N   0  0  0  0  0  0  0  0  0  0  0  0
   57.7120   30.5220   45.7460 N   0  0  0  0  0  0  0  0  0  0  0  0
   58.0950   31.7090   46.2740 C   0  0  0  0  0  0  0  0  0  0  0  0
   57.4400   32.7980   46.0000 N   0  0  0  0  0  0  0  0  0  0  0  0
   57.8700   33.7780   45.0020 C   0  0  0  0  0  0  0  0  0  0  0  0
   58.3486   33.2422   44.1690 H   0  0  0  0  0  0  0  0  0  0  0  0
   56.9752   34.3295   44.6776 H   0  0  0  0  0  0  0  0  0  0  0  0
   58.8690   34.8110   45.5590 C   0  0  0  0  0  0  0  0  0  0  0  0
   58.5296   35.6025   44.8747 H   0  0  0  0  0  0  0  0  0  0  0  0
   60.2260   34.2940   46.0180 C   0  0  0  0  0  0  0  0  0  0  0  0
   60.4738   33.2278   45.9097 H   0  0  0  0  0  0  0  0  0  0  0  0
   61.2722   34.5587   45.8047 H   0  0  0  0  0  0  0  0  0  0  0  0
   59.1910   34.7350   47.0450 C   0  0  0  0  0  0  0  0  0  0  0  0
   58.6915   33.9872   47.6785 H   0  0  0  0  0  0  0  0  0  0  0  0
   59.1803   35.4501   47.8807 H   0  0  0  0  0  0  0  0  0  0  0  0
   59.1860   31.7250   47.0910 N   0  0  0  0  0  0  0  0  0  0  0  0
   59.8820   30.5740   47.3510 C   0  0  0  0  0  0  0  0  0  0  0  0
   60.9160   30.5760   48.1410 N   0  0  0  0  0  0  0  0  0  0  0  0
   61.8380   31.6600   48.3490 C   0  0  0  0  0  0  0  0  0  0  0  0
   62.9290   31.8770   47.4850 C   0  0  0  0  0  0  0  0  0  0  0  0
   63.0752   31.2221   46.6134 H   0  0  0  0  0  0  0  0  0  0  0  0
   63.8260   32.9190   47.7290 C   0  0  0  0  0  0  0  0  0  0  0  0
   64.6664   33.0926   47.0408 H   0  0  0  0  0  0  0  0  0  0  0  0
   63.6580   33.7400   48.8440 C   0  0  0  0  0  0  0  0  0  0  0  0
   64.3605   34.5661   49.0285 H   0  0  0  0  0  0  0  0  0  0  0  0
   62.6000   33.5150   49.7260 C   0  0  0  0  0  0  0  0  0  0  0  0
   62.4783   34.1588   50.6096 H   0  0  0  0  0  0  0  0  0  0  0  0
   61.6860   32.4670   49.4910 C   0  0  0  0  0  0  0  0  0  0  0  0
   60.6160   32.2040   50.3610 O   0  0  0  0  0  0  0  0  0  0  0  0
   59.2880   32.6800   50.1730 C   0  0  0  0  0  0  0  0  0  0  0  0
   58.8169   32.8489   51.1526 H   0  0  0  0  0  0  0  0  0  0  0  0
   59.3134   33.6250   49.6106 H   0  0  0  0  0  0  0  0  0  0  0  0
   58.7073   31.9340   49.6106 H   0  0  0  0  0  0  0  0  0  0  0  0
   59.4670   29.3930   46.8090 N   0  0  0  0  0  0  0  0  0  0  0  0
   58.3680   29.3910   46.0180 C   0  0  0  0  0  0  0  0  0  0  0  0
  1  2  1  0
  2  3  1  0
  3  4  1  0
  4  5  1  0
  5  6  2  0
  5  7  1  0
  7  8  1  0
  8  9  1  0
  9 10  1  0
  9 11  2  0
 11 12  1  0
 12 13  1  0
 12 14  2  0
 14 15  1  0
 15 16  1  0
 16 17  2  0
 17 18  1  0
 18 19  1  0
 18 20  1  0
 18 21  1  0
 21 22  1  0
 21 23  1  0
 23 24  1  0
 23 25  1  0
 23 26  1  0
 26 27  1  0
 26 28  1  0
 16 29  1  0
 29 30  1  0
 30 31  2  3
 31 32  1  0
 32 33  2  0
 33 34  1  0
 33 35  1  0
 35 36  1  0
 35 37  2  0
 37 38  1  0
 37 39  1  0
 39 40  1  0
 39 41  2  0
 41 42  1  0
 42 43  1  0
 43 44  1  0
 43 45  1  0
 43 46  1  0
 30 47  1  0
 47 48  2  0
  8  3  2  0
 48 11  1  0
 48 15  1  0
 26 21  1  0
 41 32  1  0
M  CHG  3   4  -1   7  -1  29  -1
M  END
>  <UniqueID>  (59) 
55

>  <SMILES>  (59) 
COc1ccccc1N=c1nc2/c(=C\c3[n-]c(=O)[n-]c3O)cnn2/c(=N/CC2CC2)[n-]1

>  <Energy>  (59) 
395.6530581684829

>  <Genealogy>  (59) 
COc1ccccc1N=c1nc2c(=Cc3[n-]c(=O)[n-]c3O)cnn2c(=NCC2CC2)[n-]1 (protonated)
COc1ccccc1N=c1nc2/c(=C\c3[n-]c(=O)[n-]c3O)cnn2/c(=N/CC2CC2)[n-]1 (cis-trans isomerization)
COc1ccccc1N=c1nc2/c(=C\c3[n-]c(=O)[n-]c3O)cnn2/c(=N/CC2CC2)[n-]1 (3D coordinates assigned)
COc1ccccc1N=c1nc2/c(=C\c3[n-]c(=O)[n-]c3O)cnn2/c(=N/CC2CC2)[n-]1 (nonaromatic ring conformer: 395.6530581684829 kcal/mol)

>  <smiles>  (59) 
COc1ccccc1N=c1nc2c(=Cc3[nH]c(=O)[nH]c3O)cnn2c(=NCC2CC2)[nH]1

>  <score_type>  (59) 
oracle

>  <origin>  (59) 
adg

>  <m_score__min__energy>  (59) 
-14.800000000000001

>  <m_primary>  (59) 
energy

$$$$
59:0
     RDKit          3D

 60 62  0  0  0  0  0  0  0  0999 V2000
   55.6310   25.8280   46.7020 O   0  0  0  0  0  0  0  0  0  0  0  0
   56.3110   26.5060   45.8870 C   0  0  0  0  0  0  0  0  0  0  0  0
   57.4710   25.8960   45.1930 C   0  0  0  0  0  0  0  0  0  0  0  0
   57.4240   25.2760   44.0030 C   0  0  0  0  0  0  0  0  0  0  0  0
   57.2820   23.8210   43.8030 C   0  0  0  0  0  0  0  0  0  0  0  0
   58.1280   22.9420   44.4930 C   0  0  0  0  0  0  0  0  0  0  0  0
   57.9660   21.5670   44.3520 C   0  0  0  0  0  0  0  0  0  0  0  0
   56.9430   21.0770   43.5380 C   0  0  0  0  0  0  0  0  0  0  0  0
   56.1120   21.9380   42.8960 N   0  0  0  0  0  0  0  0  0  0  0  0
   56.2520   23.2840   43.0140 C   0  0  0  0  0  0  0  0  0  0  0  0
   55.9020   27.8500   45.6090 N   0  0  0  0  0  0  0  0  0  0  0  0
   56.7590   28.8550   44.9900 C   0  0  0  0  0  0  0  0  0  0  0  0
   55.9780   29.6500   43.9420 C   0  0  0  0  0  0  0  0  0  0  0  0
   56.8690   30.6560   43.2000 C   0  0  0  0  0  0  0  0  0  0  0  0
   57.5880   31.5830   44.1890 C   0  0  0  0  0  0  0  0  0  0  0  0
   58.0270   32.8950   43.5240 C   0  0  0  0  0  0  0  0  0  0  0  0
   58.1370   33.9860   44.5200 N   0  0  0  0  0  0  0  0  0  0  0  0
   57.0690   33.9150   45.5480 C   0  0  0  0  0  0  0  0  0  0  0  0
   57.4800   33.0780   46.7680 C   0  0  0  0  0  0  0  0  0  0  0  0
   58.7600   33.5430   47.3120 N   0  0  0  0  0  0  0  0  0  0  0  0
   59.1390   33.2130   48.6590 C   0  0  0  0  0  0  0  0  0  0  0  0
   59.7220   34.0700   49.3760 O   0  0  0  0  0  0  0  0  0  0  0  0
   58.8270   31.9360   49.2260 N   0  0  0  0  0  0  0  0  0  0  0  0
   59.2200   30.6660   48.6920 C   0  0  0  0  0  0  0  0  0  0  0  0
   59.3450   29.5290   49.5130 C   0  0  0  0  0  0  0  0  0  0  0  0
   59.7100   28.3010   48.9580 C   0  0  0  0  0  0  0  0  0  0  0  0
   59.9380   28.1930   47.5810 C   0  0  0  0  0  0  0  0  0  0  0  0
   59.7930   29.3130   46.7560 C   0  0  0  0  0  0  0  0  0  0  0  0
   60.0650   29.1760   45.0260 Cl  0  0  0  0  0  0  0  0  0  0  0  0
   59.4270   30.5450   47.3100 C   0  0  0  0  0  0  0  0  0  0  0  0
   59.5550   34.5010   46.5410 C   0  0  0  0  0  0  0  0  0  0  0  0
   59.5180   34.1000   45.0620 C   0  0  0  0  0  0  0  0  0  0  0  0
   58.4487   25.9564   45.6935 H   0  0  0  0  0  0  0  0  0  0  0  0
   57.4974   25.9044   43.1032 H   0  0  0  0  0  0  0  0  0  0  0  0
   58.9196   23.3388   45.1456 H   0  0  0  0  0  0  0  0  0  0  0  0
   58.6380   20.8724   44.8773 H   0  0  0  0  0  0  0  0  0  0  0  0
   56.8099   19.9919   43.4165 H   0  0  0  0  0  0  0  0  0  0  0  0
   55.5562   23.9555   42.4897 H   0  0  0  0  0  0  0  0  0  0  0  0
   57.1291   29.5426   45.7648 H   0  0  0  0  0  0  0  0  0  0  0  0
   57.6033   28.3498   44.4982 H   0  0  0  0  0  0  0  0  0  0  0  0
   55.5497   28.9485   43.2109 H   0  0  0  0  0  0  0  0  0  0  0  0
   55.1897   30.2141   44.4621 H   0  0  0  0  0  0  0  0  0  0  0  0
   57.6183   30.1073   42.6105 H   0  0  0  0  0  0  0  0  0  0  0  0
   56.2354   31.2680   42.5412 H   0  0  0  0  0  0  0  0  0  0  0  0
   56.9054   31.8157   45.0196 H   0  0  0  0  0  0  0  0  0  0  0  0
   58.4884   31.0649   44.5507 H   0  0  0  0  0  0  0  0  0  0  0  0
   59.0060   32.7453   43.0453 H   0  0  0  0  0  0  0  0  0  0  0  0
   57.2711   33.1784   42.7768 H   0  0  0  0  0  0  0  0  0  0  0  0
   56.8345   34.9359   45.8837 H   0  0  0  0  0  0  0  0  0  0  0  0
   56.1956   33.4289   45.0888 H   0  0  0  0  0  0  0  0  0  0  0  0
   56.7051   33.1667   47.5437 H   0  0  0  0  0  0  0  0  0  0  0  0
   57.5904   32.0293   46.4548 H   0  0  0  0  0  0  0  0  0  0  0  0
   59.1548   29.6084   50.5935 H   0  0  0  0  0  0  0  0  0  0  0  0
   59.8186   27.4171   49.6037 H   0  0  0  0  0  0  0  0  0  0  0  0
   60.2317   27.2257   47.1472 H   0  0  0  0  0  0  0  0  0  0  0  0
   59.3011   31.4224   46.6587 H   0  0  0  0  0  0  0  0  0  0  0  0
   59.1347   35.5105   46.6605 H   0  0  0  0  0  0  0  0  0  0  0  0
   60.5941   34.4990   46.9019 H   0  0  0  0  0  0  0  0  0  0  0  0
   60.0603   34.8598   44.4801 H   0  0  0  0  0  0  0  0  0  0  0  0
   59.9841   33.1069   44.9808 H   0  0  0  0  0  0  0  0  0  0  0  0
  1  2  2  0
  2  3  1  0
  3  4  2  3
  4  5  1  0
  5  6  2  0
  6  7  1  0
  7  8  2  0
  8  9  1  0
  9 10  2  0
  2 11  1  0
 11 12  1  0
 12 13  1  0
 13 14  1  0
 14 15  1  0
 15 16  1  0
 16 17  1  0
 17 18  1  0
 18 19  1  0
 19 20  1  0
 20 21  1  0
 21 22  2  0
 21 23  1  0
 23 24  1  0
 24 25  2  0
 25 26  1  0
 26 27  2  0
 27 28  1  0
 28 29  1  0
 28 30  2  0
 20 31  1  0
 31 32  1  0
 10  5  1  0
 32 17  1  0
 30 24  1  0
  3 33  1  0
  4 34  1  0
  6 35  1  0
  7 36  1  0
  8 37  1  0
 10 38  1  0
 12 39  1  0
 12 40  1  0
 13 41  1  0
 13 42  1  0
 14 43  1  0
 14 44  1  0
 15 45  1  0
 15 46  1  0
 16 47  1  0
 16 48  1  0
 18 49  1  0
 18 50  1  0
 19 51  1  0
 19 52  1  0
 25 53  1  0
 26 54  1  0
 27 55  1  0
 30 56  1  0
 31 57  1  0
 31 58  1  0
 32 59  1  0
 32 60  1  0
M  CHG  2  11  -1  23  -1
M  END
>  <UniqueID>  (60) 
56

>  <SMILES>  (60) 
O=C(C=Cc1cccnc1)[N-]CCCCCN1CCN(C(=O)[N-]c2cccc(Cl)c2)CC1

>  <Energy>  (60) 
73.98220959502633

>  <Genealogy>  (60) 
O=C(C=Cc1cccnc1)[N-]CCCCCN1CCN(C(=O)[N-]c2cccc(Cl)c2)CC1 (protonated)
O=C(C=Cc1cccnc1)[N-]CCCCCN1CCN(C(=O)[N-]c2cccc(Cl)c2)CC1 (3D coordinates assigned)
O=C(C=Cc1cccnc1)[N-]CCCCCN1CCN(C(=O)[N-]c2cccc(Cl)c2)CC1 (nonaromatic ring conformer: 73.98220959502633 kcal/mol)

>  <smiles>  (60) 
O=C(C=Cc1cccnc1)NCCCCCN1CCN(C(=O)Nc2cccc(Cl)c2)CC1

>  <score_type>  (60) 
oracle

>  <origin>  (60) 
adg

>  <m_score__min__energy>  (60) 
-13.01

>  <m_primary>  (60) 
energy

$$$$
60:0
     RDKit          3D

 57 59  0  0  0  0  0  0  0  0999 V2000
   60.7670   27.9780   47.2690 C   0  0  0  0  0  0  0  0  0  0  0  0
   60.4700   29.1280   46.4820 O   0  0  0  0  0  0  0  0  0  0  0  0
   59.2620   29.3320   45.8000 C   0  0  0  0  0  0  0  0  0  0  0  0
   59.0660   30.4140   44.9240 C   0  0  0  0  0  0  0  0  0  0  0  0
   57.8310   30.5940   44.2820 C   0  0  0  0  0  0  0  0  0  0  0  0
   57.6180   31.7870   43.3840 C   0  0  0  0  0  0  0  0  0  0  0  0
   57.4060   32.9690   44.1580 O   0  0  0  0  0  0  0  0  0  0  0  0
   58.0250   33.2410   45.3890 C   0  0  0  0  0  0  0  0  0  0  0  0
   59.1690   34.0480   45.3940 C   0  0  0  0  0  0  0  0  0  0  0  0
   59.8780   34.2660   46.5810 C   0  0  0  0  0  0  0  0  0  0  0  0
   59.4430   33.6810   47.7800 C   0  0  0  0  0  0  0  0  0  0  0  0
   60.2520   33.8030   49.0130 C   0  0  0  0  0  0  0  0  0  0  0  0
   59.6050   33.8070   50.2610 C   0  0  0  0  0  0  0  0  0  0  0  0
   60.3480   33.8240   51.4440 C   0  0  0  0  0  0  0  0  0  0  0  0
   61.7430   33.8290   51.3940 C   0  0  0  0  0  0  0  0  0  0  0  0
   62.4000   33.8420   50.1610 C   0  0  0  0  0  0  0  0  0  0  0  0
   61.6690   33.8610   48.9670 C   0  0  0  0  0  0  0  0  0  0  0  0
   62.3850   33.9230   47.7250 N   0  0  0  0  0  0  0  0  0  0  0  0
   63.2690   32.8940   47.2620 C   0  0  0  0  0  0  0  0  0  0  0  0
   64.1220   33.1430   46.3680 O   0  0  0  0  0  0  0  0  0  0  0  0
   63.1430   31.5020   47.7970 C   0  0  0  0  0  0  0  0  0  0  0  0
   61.7400   31.1200   47.9230 N   0  0  0  0  0  0  0  0  0  0  0  0
   61.1680   30.7030   49.1690 C   0  0  0  0  0  0  0  0  0  0  0  0
   59.7360   30.2810   49.2360 C   0  0  0  0  0  0  0  0  0  0  0  0
   61.8780   30.6510   50.2100 O   0  0  0  0  0  0  0  0  0  0  0  0
   58.2520   32.9360   47.7880 C   0  0  0  0  0  0  0  0  0  0  0  0
   57.5500   32.7150   46.6030 C   0  0  0  0  0  0  0  0  0  0  0  0
   56.7960   29.6730   44.5050 C   0  0  0  0  0  0  0  0  0  0  0  0
   56.9780   28.5920   45.3730 C   0  0  0  0  0  0  0  0  0  0  0  0
   55.9010   27.7170   45.5810 O   0  0  0  0  0  0  0  0  0  0  0  0
   56.0350   26.3660   46.0150 C   0  0  0  0  0  0  0  0  0  0  0  0
   58.2190   28.4250   46.0150 C   0  0  0  0  0  0  0  0  0  0  0  0
   60.7002   28.2367   48.3361 H   0  0  0  0  0  0  0  0  0  0  0  0
   60.0454   27.1801   47.0393 H   0  0  0  0  0  0  0  0  0  0  0  0
   61.7847   27.6293   47.0393 H   0  0  0  0  0  0  0  0  0  0  0  0
   59.8859   31.1241   44.7406 H   0  0  0  0  0  0  0  0  0  0  0  0
   58.5061   31.9249   42.7498 H   0  0  0  0  0  0  0  0  0  0  0  0
   56.7292   31.6073   42.7614 H   0  0  0  0  0  0  0  0  0  0  0  0
   59.5130   34.5139   44.4588 H   0  0  0  0  0  0  0  0  0  0  0  0
   60.7786   34.8976   46.5739 H   0  0  0  0  0  0  0  0  0  0  0  0
   58.5060   33.7967   50.3064 H   0  0  0  0  0  0  0  0  0  0  0  0
   59.8331   33.8335   52.4160 H   0  0  0  0  0  0  0  0  0  0  0  0
   62.3259   33.8227   52.3268 H   0  0  0  0  0  0  0  0  0  0  0  0
   63.4995   33.8373   50.1281 H   0  0  0  0  0  0  0  0  0  0  0  0
   63.6463   30.8050   47.1108 H   0  0  0  0  0  0  0  0  0  0  0  0
   63.6096   31.4633   48.7924 H   0  0  0  0  0  0  0  0  0  0  0  0
   61.1460   31.1160   47.0640 H   0  0  0  0  0  0  0  0  0  0  0  0
   59.4292   30.1906   50.2885 H   0  0  0  0  0  0  0  0  0  0  0  0
   59.1085   31.0324   48.7344 H   0  0  0  0  0  0  0  0  0  0  0  0
   59.6162   29.3094   48.7344 H   0  0  0  0  0  0  0  0  0  0  0  0
   57.8708   32.5245   48.7342 H   0  0  0  0  0  0  0  0  0  0  0  0
   56.6207   32.1266   46.6186 H   0  0  0  0  0  0  0  0  0  0  0  0
   55.8318   29.8028   43.9918 H   0  0  0  0  0  0  0  0  0  0  0  0
   56.0383   26.3327   47.1145 H   0  0  0  0  0  0  0  0  0  0  0  0
   55.1913   25.7727   45.6327 H   0  0  0  0  0  0  0  0  0  0  0  0
   56.9788   25.9500   45.6327 H   0  0  0  0  0  0  0  0  0  0  0  0
   58.3705   27.5722   46.6931 H   0  0  0  0  0  0  0  0  0  0  0  0
  1  2  1  0
  2  3  1  0
  3  4  2  0
  4  5  1  0
  5  6  1  0
  6  7  1  0
  7  8  1  0
  8  9  2  0
  9 10  1  0
 10 11  2  0
 11 12  1  0
 12 13  2  0
 13 14  1  0
 14 15  2  0
 15 16  1  0
 16 17  2  0
 17 18  1  0
 18 19  1  0
 19 20  2  0
 19 21  1  0
 21 22  1  0
 22 23  1  0
 23 24  1  0
 23 25  2  0
 11 26  1  0
 26 27  2  0
  5 28  2  0
 28 29  1  0
 29 30  1  0
 30 31  1  0
 29 32  2  0
 32  3  1  0
 27  8  1  0
 17 12  1  0
  1 33  1  0
  1 34  1  0
  1 35  1  0
  4 36  1  0
  6 37  1  0
  6 38  1  0
  9 39  1  0
 10 40  1  0
 13 41  1  0
 14 42  1  0
 15 43  1  0
 16 44  1  0
 21 45  1  0
 21 46  1  0
 22 47  1  0
 24 48  1  0
 24 49  1  0
 24 50  1  0
 26 51  1  0
 27 52  1  0
 28 53  1  0
 31 54  1  0
 31 55  1  0
 31 56  1  0
 32 57  1  0
M  CHG  1  18  -1
M  END
>  <UniqueID>  (61) 
57

>  <SMILES>  (61) 
COc1cc(COc2ccc(-c3ccccc3[N-]C(=O)CNC(C)=O)cc2)cc(OC)c1

>  <Energy>  (61) 
61.299536016733335

>  <Genealogy>  (61) 
COc1cc(COc2ccc(-c3ccccc3[N-]C(=O)CNC(C)=O)cc2)cc(OC)c1 (protonated)
COc1cc(COc2ccc(-c3ccccc3[N-]C(=O)CNC(C)=O)cc2)cc(OC)c1 (3D coordinates assigned)
COc1cc(COc2ccc(-c3ccccc3[N-]C(=O)CNC(C)=O)cc2)cc(OC)c1 (optimized conformer: 61.299536016733335 kcal/mol)

>  <smiles>  (61) 
COc1cc(COc2ccc(-c3ccccc3NC(=O)CNC(C)=O)cc2)cc(OC)c1

>  <score_type>  (61) 
oracle

>  <origin>  (61) 
adg

>  <m_score__min__energy>  (61) 
-9.6799999999999997

>  <m_primary>  (61) 
energy

$$$$
61:0
     RDKit          3D

 28 29  0  0  0  0  0  0  0  0999 V2000
   59.0130   26.3130   53.3570 O   0  0  0  0  0  0  0  0  0  0  0  0
   58.3730   27.0820   54.1210 C   0  0  0  0  0  0  0  0  0  0  0  0
   56.9130   27.3020   53.9660 C   0  0  0  0  0  0  0  0  0  0  0  0
   56.3610   28.5840   53.7690 C   0  0  0  0  0  0  0  0  0  0  0  0
   57.2050   29.6920   53.7440 O   0  0  0  0  0  0  0  0  0  0  0  0
   55.0040   28.7490   53.6080 N   0  0  0  0  0  0  0  0  0  0  0  0
   54.4620   30.1030   53.3460 C   0  0  0  0  0  0  0  0  0  0  0  0
   54.1270   30.3090   51.8550 C   0  0  0  0  0  0  0  0  0  0  0  0
   52.6240   30.2600   51.5400 C   0  0  0  0  0  0  0  0  0  0  0  0
   51.8440   31.3620   52.2050 C   0  0  0  0  0  0  0  0  0  0  0  0
   51.6800   31.5930   53.8680 S   0  0  0  0  0  0  0  0  0  0  0  0
   50.5980   32.8640   53.6800 C   0  0  0  0  0  0  0  0  0  0  0  0
   49.9260   33.6930   54.9140 S   0  0  0  0  0  0  0  0  0  0  0  0
   50.3230   33.1130   52.3820 N   0  0  0  0  0  0  0  0  0  0  0  0
   51.0060   32.2710   51.5630 C   0  0  0  0  0  0  0  0  0  0  0  0
   50.8600   32.3220   50.1820 O   0  0  0  0  0  0  0  0  0  0  0  0
   54.1780   27.6480   53.6820 C   0  0  0  0  0  0  0  0  0  0  0  0
   52.5420   27.7610   53.5590 S   0  0  0  0  0  0  0  0  0  0  0  0
   54.7030   26.4150   53.8800 N   0  0  0  0  0  0  0  0  0  0  0  0
   56.0330   26.2130   54.0160 C   0  0  0  0  0  0  0  0  0  0  0  0
   56.4610   25.0420   54.1910 O   0  0  0  0  0  0  0  0  0  0  0  0
   58.9103   27.6054   54.9256 H   0  0  0  0  0  0  0  0  0  0  0  0
   53.5456   30.2402   53.9388 H   0  0  0  0  0  0  0  0  0  0  0  0
   55.2300   30.8383   53.6279 H   0  0  0  0  0  0  0  0  0  0  0  0
   54.5134   31.2915   51.5461 H   0  0  0  0  0  0  0  0  0  0  0  0
   54.5946   29.4785   51.3059 H   0  0  0  0  0  0  0  0  0  0  0  0
   52.4917   30.3455   50.4513 H   0  0  0  0  0  0  0  0  0  0  0  0
   52.2389   29.3057   51.9286 H   0  0  0  0  0  0  0  0  0  0  0  0
  1  2  2  0
  2  3  1  0
  3  4  2  0
  4  5  1  0
  4  6  1  0
  6  7  1  0
  7  8  1  0
  8  9  1  0
  9 10  1  0
 10 11  1  0
 11 12  1  0
 12 13  2  0
 12 14  1  0
 14 15  1  0
 15 16  1  0
  6 17  1  0
 17 18  2  0
 17 19  1  0
 19 20  1  0
 20 21  2  0
 20  3  1  0
 15 10  2  0
  2 22  1  0
  7 23  1  0
  7 24  1  0
  8 25  1  0
  8 26  1  0
  9 27  1  0
  9 28  1  0
M  CHG  4   5  -1  14  -1  16  -1  19  -1
M  END
>  <UniqueID>  (62) 
58

>  <SMILES>  (62) 
O=Cc1c([O-])n(CCCc2sc(=S)[n-]c2[O-])c(=S)[n-]c1=O

>  <Energy>  (62) 
64.20177338773843

>  <Genealogy>  (62) 
O=Cc1c([O-])n(CCCc2sc(=S)[n-]c2[O-])c(=S)[n-]c1=O (protonated)
O=Cc1c([O-])n(CCCc2sc(=S)[n-]c2[O-])c(=S)[n-]c1=O (3D coordinates assigned)
O=Cc1c([O-])n(CCCc2sc(=S)[n-]c2[O-])c(=S)[n-]c1=O (optimized conformer: 64.20177338773843 kcal/mol)

>  <smiles>  (62) 
O=Cc1c(O)n(CCCc2sc(=S)[nH]c2O)c(=S)[nH]c1=O

>  <score_type>  (62) 
oracle

>  <origin>  (62) 
adg

>  <m_score__min__energy>  (62) 
-18.170000000000002

>  <m_primary>  (62) 
energy

$$$$
62:0
     RDKit          3D

 40 43  0  0  0  0  0  0  0  0999 V2000
   54.7640   27.0850   45.1420 H   0  0  0  0  0  0  0  0  0  0  0  0
   54.9000   26.6300   46.0350 O   0  0  0  0  0  0  0  0  0  0  0  0
   55.8940   25.6730   46.2260 C   0  0  0  0  0  0  0  0  0  0  0  0
   55.7700   24.6510   47.0890 N   0  0  0  0  0  0  0  0  0  0  0  0
   56.9680   24.0350   46.9980 C   0  0  0  0  0  0  0  0  0  0  0  0
   57.2560   23.0110   47.6710 O   0  0  0  0  0  0  0  0  0  0  0  0
   57.8350   24.6050   46.1340 N   0  0  0  0  0  0  0  0  0  0  0  0
   57.1380   25.6360   45.6270 C   0  0  0  0  0  0  0  0  0  0  0  0
   57.7010   26.5870   44.6560 C   0  0  0  0  0  0  0  0  0  0  0  0
   57.6981   26.3039   43.5931 H   0  0  0  0  0  0  0  0  0  0  0  0
   58.2160   27.7750   44.9890 C   0  0  0  0  0  0  0  0  0  0  0  0
   59.6360   28.1560   44.9820 C   0  0  0  0  0  0  0  0  0  0  0  0
   60.4707   27.5028   44.6876 H   0  0  0  0  0  0  0  0  0  0  0  0
   59.7470   29.3900   45.3800 N   0  0  0  0  0  0  0  0  0  0  0  0
   58.4530   29.8400   45.6760 N   0  0  0  0  0  0  0  0  0  0  0  0
   57.9280   31.0430   45.3900 C   0  0  0  0  0  0  0  0  0  0  0  0
   58.6310   32.1380   45.3660 N   0  0  0  0  0  0  0  0  0  0  0  0
   59.4950   32.6210   46.4090 C   0  0  0  0  0  0  0  0  0  0  0  0
   59.1240   33.6290   47.2190 C   0  0  0  0  0  0  0  0  0  0  0  0
   58.1546   34.1255   47.0652 H   0  0  0  0  0  0  0  0  0  0  0  0
   60.0070   34.0710   48.3090 C   0  0  0  0  0  0  0  0  0  0  0  0
   59.6020   34.9350   49.1320 O   0  0  0  0  0  0  0  0  0  0  0  0
   61.3270   33.5070   48.4230 N   0  0  0  0  0  0  0  0  0  0  0  0
   62.1710   33.7810   49.5920 C   0  0  0  0  0  0  0  0  0  0  0  0
   61.8353   33.1595   50.4352 H   0  0  0  0  0  0  0  0  0  0  0  0
   62.0868   34.8467   49.8513 H   0  0  0  0  0  0  0  0  0  0  0  0
   63.6290   33.4610   49.2810 C   0  0  0  0  0  0  0  0  0  0  0  0
   64.1862   33.3387   50.2215 H   0  0  0  0  0  0  0  0  0  0  0  0
   63.6838   32.5295   48.6986 H   0  0  0  0  0  0  0  0  0  0  0  0
   64.0688   34.2840   48.6986 H   0  0  0  0  0  0  0  0  0  0  0  0
   61.8460   32.7180   47.2990 C   0  0  0  0  0  0  0  0  0  0  0  0
   62.2113   33.3987   46.5159 H   0  0  0  0  0  0  0  0  0  0  0  0
   62.6679   32.0812   47.6581 H   0  0  0  0  0  0  0  0  0  0  0  0
   60.7400   31.8260   46.7190 C   0  0  0  0  0  0  0  0  0  0  0  0
   61.1061   31.3592   45.7927 H   0  0  0  0  0  0  0  0  0  0  0  0
   60.4844   31.0617   47.4677 H   0  0  0  0  0  0  0  0  0  0  0  0
   56.6470   30.9420   44.9550 N   0  0  0  0  0  0  0  0  0  0  0  0
   56.4600   29.5990   44.9680 C   0  0  0  0  0  0  0  0  0  0  0  0
   55.4360   29.0410   44.4960 O   0  0  0  0  0  0  0  0  0  0  0  0
   57.5360   28.9380   45.4440 N   0  0  0  0  0  0  0  0  0  0  0  0
  1  2  1  0
  2  3  1  0
  3  4  1  0
  4  5  1  0
  5  6  2  0
  5  7  1  0
  7  8  1  0
  8  9  1  0
  9 10  1  0
  9 11  2  0
 11 12  1  0
 12 13  1  0
 12 14  2  0
 14 15  1  0
 15 16  1  0
 16 17  2  3
 17 18  1  0
 18 19  2  0
 19 20  1  0
 19 21  1  0
 21 22  2  0
 21 23  1  0
 23 24  1  0
 24 25  1  0
 24 26  1  0
 24 27  1  0
 27 28  1  0
 27 29  1  0
 27 30  1  0
 23 31  1  0
 31 32  1  0
 31 33  1  0
 31 34  1  0
 34 35  1  0
 34 36  1  0
 16 37  1  0
 37 38  1  0
 38 39  2  0
 38 40  1  0
  8  3  2  0
 40 11  1  0
 40 15  1  0
 34 18  1  0
M  CHG  3   4  -1   7  -1  37  -1
M  END
>  <UniqueID>  (63) 
59

>  <SMILES>  (63) 
CCN1CCC(N=c2[n-]c(=O)n3n2N=C/C3=C/c2[n-]c(=O)[n-]c2O)=CC1=O

>  <Energy>  (63) 
173.7148551893261

>  <Genealogy>  (63) 
CCN1CCC(N=c2[n-]c(=O)n3n2N=CC3=Cc2[n-]c(=O)[n-]c2O)=CC1=O (protonated)
CCN1CCC(N=c2[n-]c(=O)n3n2N=C/C3=C/c2[n-]c(=O)[n-]c2O)=CC1=O (cis-trans isomerization)
CCN1CCC(N=c2[n-]c(=O)n3n2N=C/C3=C/c2[n-]c(=O)[n-]c2O)=CC1=O (3D coordinates assigned)
CCN1CCC(N=c2[n-]c(=O)n3n2N=C/C3=C/c2[n-]c(=O)[n-]c2O)=CC1=O (nonaromatic ring conformer: 173.7148551893261 kcal/mol)

>  <smiles>  (63) 
CCN1CCC(N=c2[nH]c(=O)n3n2N=CC3=Cc2[nH]c(=O)[nH]c2O)=CC1=O

>  <score_type>  (63) 
oracle

>  <origin>  (63) 
adg

>  <m_score__min__energy>  (63) 
-14.609999999999999

>  <m_primary>  (63) 
energy

$$$$
63:0
     RDKit          3D

 48 51  0  0  0  0  0  0  0  0999 V2000
   55.3440   22.7650   42.6140 N   0  0  0  0  0  0  0  0  0  0  0  0
   56.5500   21.9390   43.5350 S   0  0  0  0  0  0  0  0  0  0  0  0
   57.3980   21.1070   42.6140 O   0  0  0  0  0  0  0  0  0  0  0  0
   55.8870   21.0300   44.5320 O   0  0  0  0  0  0  0  0  0  0  0  0
   57.5560   23.1150   44.3760 C   0  0  0  0  0  0  0  0  0  0  0  0
   58.7630   22.7180   44.9630 C   0  0  0  0  0  0  0  0  0  0  0  0
   59.5610   23.6540   45.6230 C   0  0  0  0  0  0  0  0  0  0  0  0
   59.1660   24.9930   45.6930 C   0  0  0  0  0  0  0  0  0  0  0  0
   57.9640   25.4120   45.0930 C   0  0  0  0  0  0  0  0  0  0  0  0
   57.5310   26.8300   45.1630 C   0  0  0  0  0  0  0  0  0  0  0  0
   57.1710   27.3150   46.2700 O   0  0  0  0  0  0  0  0  0  0  0  0
   57.4720   27.6400   43.9770 N   0  0  0  0  0  0  0  0  0  0  0  0
   57.4610   29.0780   43.9930 C   0  0  0  0  0  0  0  0  0  0  0  0
   56.8220   29.8160   42.9770 C   0  0  0  0  0  0  0  0  0  0  0  0
   56.8030   31.2120   43.0210 C   0  0  0  0  0  0  0  0  0  0  0  0
   57.4090   31.8890   44.0820 C   0  0  0  0  0  0  0  0  0  0  0  0
   57.3880   33.2480   44.1260 N   0  0  0  0  0  0  0  0  0  0  0  0
   57.9660   33.9420   45.1430 C   0  0  0  0  0  0  0  0  0  0  0  0
   58.6170   33.2650   46.1860 C   0  0  0  0  0  0  0  0  0  0  0  0
   59.2480   34.0250   47.2920 C   0  0  0  0  0  0  0  0  0  0  0  0
   59.0500   35.2660   47.3790 O   0  0  0  0  0  0  0  0  0  0  0  0
   60.0400   33.3850   48.3020 N   0  0  0  0  0  0  0  0  0  0  0  0
   61.4730   33.3150   48.3390 C   0  0  0  0  0  0  0  0  0  0  0  0
   62.1290   33.4870   49.5640 C   0  0  0  0  0  0  0  0  0  0  0  0
   63.5250   33.4360   49.6320 C   0  0  0  0  0  0  0  0  0  0  0  0
   64.2750   33.2260   48.4700 C   0  0  0  0  0  0  0  0  0  0  0  0
   63.6290   33.0760   47.2400 C   0  0  0  0  0  0  0  0  0  0  0  0
   62.2330   33.1290   47.1690 C   0  0  0  0  0  0  0  0  0  0  0  0
   58.6320   31.8600   46.1720 C   0  0  0  0  0  0  0  0  0  0  0  0
   58.0360   31.1620   45.1140 C   0  0  0  0  0  0  0  0  0  0  0  0
   58.0510   29.7600   45.0680 C   0  0  0  0  0  0  0  0  0  0  0  0
   57.1610   24.4580   44.4400 C   0  0  0  0  0  0  0  0  0  0  0  0
   55.7640   22.9780   41.6820 H   0  0  0  0  0  0  0  0  0  0  0  0
   59.0831   21.6672   44.9042 H   0  0  0  0  0  0  0  0  0  0  0  0
   60.5049   23.3364   46.0901 H   0  0  0  0  0  0  0  0  0  0  0  0
   59.7980   25.7230   46.2199 H   0  0  0  0  0  0  0  0  0  0  0  0
   57.3110   27.1610   43.0620 H   0  0  0  0  0  0  0  0  0  0  0  0
   56.3347   29.2891   42.1434 H   0  0  0  0  0  0  0  0  0  0  0  0
   56.3097   31.7796   42.2182 H   0  0  0  0  0  0  0  0  0  0  0  0
   57.9230   35.0411   45.1481 H   0  0  0  0  0  0  0  0  0  0  0  0
   61.5430   33.6632   50.4781 H   0  0  0  0  0  0  0  0  0  0  0  0
   64.0333   33.5611   50.5995 H   0  0  0  0  0  0  0  0  0  0  0  0
   65.3726   33.1790   48.5245 H   0  0  0  0  0  0  0  0  0  0  0  0
   64.2194   32.9159   46.3258 H   0  0  0  0  0  0  0  0  0  0  0  0
   61.7283   33.0251   46.1971 H   0  0  0  0  0  0  0  0  0  0  0  0
   59.1124   31.3076   46.9930 H   0  0  0  0  0  0  0  0  0  0  0  0
   58.5283   29.1917   45.8799 H   0  0  0  0  0  0  0  0  0  0  0  0
   56.2140   24.7698   43.9753 H   0  0  0  0  0  0  0  0  0  0  0  0
  1  2  1  0
  2  3  2  0
  2  4  2  0
  2  5  1  0
  5  6  2  0
  6  7  1  0
  7  8  2  0
  8  9  1  0
  9 10  1  0
 10 11  2  0
 10 12  1  0
 12 13  1  0
 13 14  2  0
 14 15  1  0
 15 16  2  0
 16 17  1  0
 17 18  2  0
 18 19  1  0
 19 20  1  0
 20 21  2  0
 20 22  1  0
 22 23  1  0
 23 24  2  0
 24 25  1  0
 25 26  2  0
 26 27  1  0
 27 28  2  0
 19 29  2  0
 29 30  1  0
 30 31  2  0
  9 32  2  0
 32  5  1  0
 31 13  1  0
 30 16  1  0
 28 23  1  0
  1 33  1  0
  6 34  1  0
  7 35  1  0
  8 36  1  0
 12 37  1  0
 14 38  1  0
 15 39  1  0
 18 40  1  0
 24 41  1  0
 25 42  1  0
 26 43  1  0
 27 44  1  0
 28 45  1  0
 29 46  1  0
 31 47  1  0
 32 48  1  0
M  CHG  2   1  -1  22  -1
M  END
>  <UniqueID>  (64) 
60

>  <SMILES>  (64) 
[NH-]S(=O)(=O)c1cccc(C(=O)Nc2ccc3ncc(C(=O)[N-]c4ccccc4)cc3c2)c1

>  <Energy>  (64) 
68.20608192369909

>  <Genealogy>  (64) 
[NH-]S(=O)(=O)c1cccc(C(=O)Nc2ccc3ncc(C(=O)[N-]c4ccccc4)cc3c2)c1 (protonated)
[NH-]S(=O)(=O)c1cccc(C(=O)Nc2ccc3ncc(C(=O)[N-]c4ccccc4)cc3c2)c1 (3D coordinates assigned)
[NH-]S(=O)(=O)c1cccc(C(=O)Nc2ccc3ncc(C(=O)[N-]c4ccccc4)cc3c2)c1 (optimized conformer: 68.20608192369909 kcal/mol)

>  <smiles>  (64) 
NS(=O)(=O)c1cccc(C(=O)Nc2ccc3ncc(C(=O)Nc4ccccc4)cc3c2)c1

>  <score_type>  (64) 
oracle

>  <origin>  (64) 
adg

>  <m_score__min__energy>  (64) 
-12.449999999999999

>  <m_primary>  (64) 
energy

$$$$
64:0
     RDKit          3D

 40 42  0  0  0  0  0  0  0  0999 V2000
   61.6170   30.9280   48.7910 C   0  0  0  0  0  0  0  0  0  0  0  0
   61.7940   32.2390   48.0780 C   0  0  0  0  0  0  0  0  0  0  0  0
   62.7760   33.1920   48.3140 C   0  0  0  0  0  0  0  0  0  0  0  0
   63.7960   33.2010   49.3770 C   0  0  0  0  0  0  0  0  0  0  0  0
   63.6540   34.0020   50.3400 O   0  0  0  0  0  0  0  0  0  0  0  0
   64.9200   32.3040   49.3340 N   0  0  0  0  0  0  0  0  0  0  0  0
   65.9770   32.2920   50.3080 C   0  0  0  0  0  0  0  0  0  0  0  0
   66.8020   33.4150   50.5140 C   0  0  0  0  0  0  0  0  0  0  0  0
   67.8050   33.3820   51.4880 C   0  0  0  0  0  0  0  0  0  0  0  0
   67.9840   32.2400   52.2730 C   0  0  0  0  0  0  0  0  0  0  0  0
   67.1540   31.1310   52.0920 C   0  0  0  0  0  0  0  0  0  0  0  0
   66.1490   31.1600   51.1200 C   0  0  0  0  0  0  0  0  0  0  0  0
   62.7120   34.1440   47.3600 N   0  0  0  0  0  0  0  0  0  0  0  0
   61.6790   33.7730   46.5770 C   0  0  0  0  0  0  0  0  0  0  0  0
   61.0940   32.6300   46.9910 N   0  0  0  0  0  0  0  0  0  0  0  0
   59.9780   31.9770   46.3600 C   0  0  0  0  0  0  0  0  0  0  0  0
   58.9250   32.7380   45.8260 C   0  0  0  0  0  0  0  0  0  0  0  0
   57.8330   32.1080   45.2220 C   0  0  0  0  0  0  0  0  0  0  0  0
   57.7710   30.7100   45.1580 C   0  0  0  0  0  0  0  0  0  0  0  0
   56.4010   29.9190   44.3840 S   0  0  0  0  0  0  0  0  0  0  0  0
   56.0340   28.4520   45.2210 N   0  0  0  0  0  0  0  0  0  0  0  0
   55.2030   30.8260   44.4170 O   0  0  0  0  0  0  0  0  0  0  0  0
   56.7340   29.6110   42.9510 O   0  0  0  0  0  0  0  0  0  0  0  0
   58.8150   29.9470   45.6950 C   0  0  0  0  0  0  0  0  0  0  0  0
   59.9090   30.5760   46.2990 C   0  0  0  0  0  0  0  0  0  0  0  0
   61.6396   31.0958   49.8779 H   0  0  0  0  0  0  0  0  0  0  0  0
   60.6508   30.4845   48.5085 H   0  0  0  0  0  0  0  0  0  0  0  0
   62.4310   30.2441   48.5085 H   0  0  0  0  0  0  0  0  0  0  0  0
   65.0160   31.6590   48.5220 H   0  0  0  0  0  0  0  0  0  0  0  0
   66.6569   34.3207   49.9069 H   0  0  0  0  0  0  0  0  0  0  0  0
   68.4546   34.2572   51.6365 H   0  0  0  0  0  0  0  0  0  0  0  0
   68.7784   32.2142   53.0334 H   0  0  0  0  0  0  0  0  0  0  0  0
   67.2910   30.2344   52.7144 H   0  0  0  0  0  0  0  0  0  0  0  0
   65.4887   30.2897   50.9909 H   0  0  0  0  0  0  0  0  0  0  0  0
   61.3486   34.3414   45.6951 H   0  0  0  0  0  0  0  0  0  0  0  0
   58.9599   33.8359   45.8834 H   0  0  0  0  0  0  0  0  0  0  0  0
   57.0191   32.7125   44.7952 H   0  0  0  0  0  0  0  0  0  0  0  0
   55.1430   28.6140   45.7440 H   0  0  0  0  0  0  0  0  0  0  0  0
   58.7749   28.8490   45.6418 H   0  0  0  0  0  0  0  0  0  0  0  0
   60.7198   29.9694   46.7286 H   0  0  0  0  0  0  0  0  0  0  0  0
  1  2  1  0
  2  3  2  0
  3  4  1  0
  4  5  2  0
  4  6  1  0
  6  7  1  0
  7  8  2  0
  8  9  1  0
  9 10  2  0
 10 11  1  0
 11 12  2  0
  3 13  1  0
 13 14  2  0
 14 15  1  0
 15 16  1  0
 16 17  2  0
 17 18  1  0
 18 19  2  0
 19 20  1  0
 20 21  1  0
 20 22  2  0
 20 23  2  0
 19 24  1  0
 24 25  2  0
 15  2  1  0
 25 16  1  0
 12  7  1  0
  1 26  1  0
  1 27  1  0
  1 28  1  0
  6 29  1  0
  8 30  1  0
  9 31  1  0
 10 32  1  0
 11 33  1  0
 12 34  1  0
 14 35  1  0
 17 36  1  0
 18 37  1  0
 21 38  1  0
 24 39  1  0
 25 40  1  0
M  CHG  1  21  -1
M  END
>  <UniqueID>  (65) 
61

>  <SMILES>  (65) 
Cc1c(C(=O)Nc2ccccc2)ncn1-c1ccc(S([NH-])(=O)=O)cc1

>  <Energy>  (65) 
83.69981626661298

>  <Genealogy>  (65) 
Cc1c(C(=O)Nc2ccccc2)ncn1-c1ccc(S([NH-])(=O)=O)cc1 (protonated)
Cc1c(C(=O)Nc2ccccc2)ncn1-c1ccc(S([NH-])(=O)=O)cc1 (3D coordinates assigned)
Cc1c(C(=O)Nc2ccccc2)ncn1-c1ccc(S([NH-])(=O)=O)cc1 (optimized conformer: 83.69981626661298 kcal/mol)

>  <smiles>  (65) 
Cc1c(C(=O)Nc2ccccc2)ncn1-c1ccc(S(N)(=O)=O)cc1

>  <score_type>  (65) 
oracle

>  <origin>  (65) 
adg

>  <m_score__min__energy>  (65) 
-10.25

>  <m_primary>  (65) 
energy

$$$$
65:0
     RDKit          3D

 42 44  0  0  0  0  0  0  0  0999 V2000
   57.3590   27.4870   45.3800 C   0  0  0  0  0  0  0  0  0  0  0  0
   57.4000   28.9830   45.1800 C   0  0  0  0  0  0  0  0  0  0  0  0
   58.5630   29.7410   45.4630 C   0  0  0  0  0  0  0  0  0  0  0  0
   59.8390   29.1240   45.9810 C   0  0  0  0  0  0  0  0  0  0  0  0
   60.1110   29.5200   47.4140 C   0  0  0  0  0  0  0  0  0  0  0  0
   61.1870   30.3730   47.7350 C   0  0  0  0  0  0  0  0  0  0  0  0
   62.0030   30.8620   46.7680 F   0  0  0  0  0  0  0  0  0  0  0  0
   61.4290   30.7310   49.0660 C   0  0  0  0  0  0  0  0  0  0  0  0
   60.5990   30.2570   50.0830 C   0  0  0  0  0  0  0  0  0  0  0  0
   59.5220   29.4250   49.7750 C   0  0  0  0  0  0  0  0  0  0  0  0
   59.2720   29.0610   48.4490 C   0  0  0  0  0  0  0  0  0  0  0  0
   58.2060   28.2670   48.1740 F   0  0  0  0  0  0  0  0  0  0  0  0
   58.5380   31.0880   45.2810 N   0  0  0  0  0  0  0  0  0  0  0  0
   57.4270   31.7280   44.8440 C   0  0  0  0  0  0  0  0  0  0  0  0
   57.4540   33.5010   44.5890 S   0  0  0  0  0  0  0  0  0  0  0  0
   57.5340   33.9080   46.3700 C   0  0  0  0  0  0  0  0  0  0  0  0
   58.9560   33.9140   46.8600 C   0  0  0  0  0  0  0  0  0  0  0  0
   60.0170   33.8720   45.9440 C   0  0  0  0  0  0  0  0  0  0  0  0
   61.3400   33.8400   46.3960 C   0  0  0  0  0  0  0  0  0  0  0  0
   61.6230   33.8430   47.7720 C   0  0  0  0  0  0  0  0  0  0  0  0
   63.0230   33.8040   48.2470 C   0  0  0  0  0  0  0  0  0  0  0  0
   63.3080   34.1210   49.4330 O   0  0  0  0  0  0  0  0  0  0  0  0
   64.0470   33.4140   47.3910 O   0  0  0  0  0  0  0  0  0  0  0  0
   60.5560   33.8810   48.6880 C   0  0  0  0  0  0  0  0  0  0  0  0
   59.2350   33.9160   48.2350 C   0  0  0  0  0  0  0  0  0  0  0  0
   56.2960   31.0270   44.5900 N   0  0  0  0  0  0  0  0  0  0  0  0
   56.2530   29.6810   44.7510 C   0  0  0  0  0  0  0  0  0  0  0  0
   55.1770   29.0710   44.5100 O   0  0  0  0  0  0  0  0  0  0  0  0
   57.3528   27.2610   46.4565 H   0  0  0  0  0  0  0  0  0  0  0  0
   56.4494   27.0796   44.9146 H   0  0  0  0  0  0  0  0  0  0  0  0
   58.2450   27.0304   44.9146 H   0  0  0  0  0  0  0  0  0  0  0  0
   59.7539   28.0288   45.9240 H   0  0  0  0  0  0  0  0  0  0  0  0
   60.6717   29.4880   45.3612 H   0  0  0  0  0  0  0  0  0  0  0  0
   62.2762   31.3882   49.3115 H   0  0  0  0  0  0  0  0  0  0  0  0
   60.7940   30.5395   51.1281 H   0  0  0  0  0  0  0  0  0  0  0  0
   58.8679   29.0546   50.5781 H   0  0  0  0  0  0  0  0  0  0  0  0
   57.0941   34.9032   46.5313 H   0  0  0  0  0  0  0  0  0  0  0  0
   56.9748   33.1432   46.9289 H   0  0  0  0  0  0  0  0  0  0  0  0
   59.8075   33.8642   44.8642 H   0  0  0  0  0  0  0  0  0  0  0  0
   62.1650   33.8123   45.6689 H   0  0  0  0  0  0  0  0  0  0  0  0
   60.7633   33.8832   49.7683 H   0  0  0  0  0  0  0  0  0  0  0  0
   58.4087   33.9453   48.9606 H   0  0  0  0  0  0  0  0  0  0  0  0
  1  2  1  0
  2  3  2  0
  3  4  1  0
  4  5  1  0
  5  6  2  0
  6  7  1  0
  6  8  1  0
  8  9  2  0
  9 10  1  0
 10 11  2  0
 11 12  1  0
  3 13  1  0
 13 14  1  0
 14 15  1  0
 15 16  1  0
 16 17  1  0
 17 18  2  0
 18 19  1  0
 19 20  2  0
 20 21  1  0
 21 22  2  0
 21 23  1  0
 20 24  1  0
 24 25  2  0
 14 26  2  0
 26 27  1  0
 27 28  2  0
 27  2  1  0
 11  5  1  0
 25 17  1  0
  1 29  1  0
  1 30  1  0
  1 31  1  0
  4 32  1  0
  4 33  1  0
  8 34  1  0
  9 35  1  0
 10 36  1  0
 16 37  1  0
 16 38  1  0
 18 39  1  0
 19 40  1  0
 24 41  1  0
 25 42  1  0
M  CHG  2  13  -1  23  -1
M  END
>  <UniqueID>  (66) 
62

>  <SMILES>  (66) 
Cc1c(Cc2c(F)cccc2F)[n-]c(SCc2ccc(C(=O)[O-])cc2)nc1=O

>  <Energy>  (66) 
43.368291994493184

>  <Genealogy>  (66) 
Cc1c(Cc2c(F)cccc2F)[n-]c(SCc2ccc(C(=O)[O-])cc2)nc1=O (protonated)
Cc1c(Cc2c(F)cccc2F)[n-]c(SCc2ccc(C(=O)[O-])cc2)nc1=O (3D coordinates assigned)
Cc1c(Cc2c(F)cccc2F)[n-]c(SCc2ccc(C(=O)[O-])cc2)nc1=O (optimized conformer: 43.368291994493184 kcal/mol)

>  <smiles>  (66) 
Cc1c(Cc2c(F)cccc2F)[nH]c(SCc2ccc(C(=O)O)cc2)nc1=O

>  <score_type>  (66) 
oracle

>  <origin>  (66) 
adg

>  <m_score__min__energy>  (66) 
-11.800000000000001

>  <m_primary>  (66) 
energy

$$$$
66:0
     RDKit          3D

 24 25  0  0  0  0  0  0  0  0999 V2000
   54.9380   30.0870   43.9180 N   0  0  0  0  0  0  0  0  0  0  0  0
   55.7780   29.6300   44.5700 C   0  0  0  0  0  0  0  0  0  0  0  0
   56.8260   29.0570   45.3840 C   0  0  0  0  0  0  0  0  0  0  0  0
   56.6660   27.7640   45.9040 C   0  0  0  0  0  0  0  0  0  0  0  0
   55.5160   27.0320   45.6220 O   0  0  0  0  0  0  0  0  0  0  0  0
   57.6310   27.2170   46.6880 N   0  0  0  0  0  0  0  0  0  0  0  0
   58.7730   27.8880   46.9960 C   0  0  0  0  0  0  0  0  0  0  0  0
   59.6420   27.3340   47.7250 O   0  0  0  0  0  0  0  0  0  0  0  0
   58.9840   29.1860   46.5020 C   0  0  0  0  0  0  0  0  0  0  0  0
   60.2150   29.8820   46.8140 C   0  0  0  0  0  0  0  0  0  0  0  0
   61.1980   30.4400   47.0630 N   0  0  0  0  0  0  0  0  0  0  0  0
   57.9980   29.7830   45.6870 C   0  0  0  0  0  0  0  0  0  0  0  0
   58.1930   31.1530   45.1500 C   0  0  0  0  0  0  0  0  0  0  0  0
   58.2240   31.3640   43.7620 C   0  0  0  0  0  0  0  0  0  0  0  0
   58.4070   32.6510   43.2490 C   0  0  0  0  0  0  0  0  0  0  0  0
   58.5610   33.7350   44.1180 C   0  0  0  0  0  0  0  0  0  0  0  0
   58.5290   33.5330   45.5010 C   0  0  0  0  0  0  0  0  0  0  0  0
   58.3440   32.2470   46.0190 C   0  0  0  0  0  0  0  0  0  0  0  0
   58.3030   32.0700   47.3640 F   0  0  0  0  0  0  0  0  0  0  0  0
   57.4890   26.2510   47.0630 H   0  0  0  0  0  0  0  0  0  0  0  0
   58.1037   30.5128   43.0757 H   0  0  0  0  0  0  0  0  0  0  0  0
   58.4299   32.8110   42.1609 H   0  0  0  0  0  0  0  0  0  0  0  0
   58.7074   34.7474   43.7135 H   0  0  0  0  0  0  0  0  0  0  0  0
   58.6496   34.3873   46.1833 H   0  0  0  0  0  0  0  0  0  0  0  0
  1  2  3  0
  2  3  1  0
  3  4  2  0
  4  5  1  0
  4  6  1  0
  6  7  1  0
  7  8  2  0
  7  9  1  0
  9 10  1  0
 10 11  3  0
  9 12  2  0
 12 13  1  0
 13 14  2  0
 14 15  1  0
 15 16  2  0
 16 17  1  0
 17 18  2  0
 18 19  1  0
 12  3  1  0
 18 13  1  0
  6 20  1  0
 14 21  1  0
 15 22  1  0
 16 23  1  0
 17 24  1  0
M  CHG  1   5  -1
M  END
>  <UniqueID>  (67) 
63

>  <SMILES>  (67) 
N#Cc1c([O-])[nH]c(=O)c(C#N)c1-c1ccccc1F

>  <Energy>  (67) 
35.487685952433665

>  <Genealogy>  (67) 
N#Cc1c([O-])[nH]c(=O)c(C#N)c1-c1ccccc1F (protonated)
N#Cc1c([O-])[nH]c(=O)c(C#N)c1-c1ccccc1F (3D coordinates assigned)
N#Cc1c([O-])[nH]c(=O)c(C#N)c1-c1ccccc1F (optimized conformer: 35.487685952433665 kcal/mol)

>  <smiles>  (67) 
N#Cc1c(O)[nH]c(=O)c(C#N)c1-c1ccccc1F

>  <score_type>  (67) 
oracle

>  <origin>  (67) 
adg

>  <m_score__min__energy>  (67) 
-8.3599999999999994

>  <m_primary>  (67) 
energy

$$$$
67:0
     RDKit          3D

 48 51  0  0  0  0  0  0  0  0999 V2000
   61.5550   30.3970   48.6020 C   0  0  0  0  0  0  0  0  0  0  0  0
   60.4420   29.9930   47.6730 C   0  0  0  0  0  0  0  0  0  0  0  0
   60.6400   30.0350   46.2840 C   0  0  0  0  0  0  0  0  0  0  0  0
   59.6090   29.6850   45.4110 C   0  0  0  0  0  0  0  0  0  0  0  0
   58.3640   29.2880   45.9140 C   0  0  0  0  0  0  0  0  0  0  0  0
   57.0500   28.8570   44.8250 S   0  0  0  0  0  0  0  0  0  0  0  0
   57.5750   28.2230   43.5680 O   0  0  0  0  0  0  0  0  0  0  0  0
   56.2970   30.1030   44.4520 O   0  0  0  0  0  0  0  0  0  0  0  0
   55.9700   27.7580   45.6200 N   0  0  0  0  0  0  0  0  0  0  0  0
   56.3050   26.4300   46.0490 C   0  0  0  0  0  0  0  0  0  0  0  0
   57.4680   26.2420   46.8060 C   0  0  0  0  0  0  0  0  0  0  0  0
   57.8290   24.9660   47.2490 C   0  0  0  0  0  0  0  0  0  0  0  0
   57.0340   23.8610   46.9280 C   0  0  0  0  0  0  0  0  0  0  0  0
   57.3860   22.5830   47.3550 O   0  0  0  0  0  0  0  0  0  0  0  0
   55.8720   24.0410   46.1720 C   0  0  0  0  0  0  0  0  0  0  0  0
   55.5050   25.3170   45.7350 C   0  0  0  0  0  0  0  0  0  0  0  0
   58.1580   29.2450   47.2980 C   0  0  0  0  0  0  0  0  0  0  0  0
   59.1940   29.5840   48.1870 C   0  0  0  0  0  0  0  0  0  0  0  0
   58.9750   29.6120   49.6060 N   0  0  0  0  0  0  0  0  0  0  0  0
   58.3960   30.6830   50.3590 C   0  0  0  0  0  0  0  0  0  0  0  0
   57.3750   30.4890   51.0680 O   0  0  0  0  0  0  0  0  0  0  0  0
   59.0560   32.0260   50.3560 C   0  0  0  0  0  0  0  0  0  0  0  0
   58.9820   32.6270   48.9900 C   0  0  0  0  0  0  0  0  0  0  0  0
   57.9200   32.4360   48.1620 N   0  0  0  0  0  0  0  0  0  0  0  0
   58.2240   33.2130   47.1140 C   0  0  0  0  0  0  0  0  0  0  0  0
   57.4770   33.4170   45.9560 C   0  0  0  0  0  0  0  0  0  0  0  0
   57.9940   34.3010   44.9900 C   0  0  0  0  0  0  0  0  0  0  0  0
   59.2320   34.9520   45.2070 C   0  0  0  0  0  0  0  0  0  0  0  0
   59.9560   34.7250   46.3940 C   0  0  0  0  0  0  0  0  0  0  0  0
   59.4130   33.8420   47.3250 C   0  0  0  0  0  0  0  0  0  0  0  0
   59.9180   33.4940   48.5180 N   0  0  0  0  0  0  0  0  0  0  0  0
   61.2244   30.2770   49.6443 H   0  0  0  0  0  0  0  0  0  0  0  0
   62.4335   29.7604   48.4204 H   0  0  0  0  0  0  0  0  0  0  0  0
   61.8206   31.4489   48.4204 H   0  0  0  0  0  0  0  0  0  0  0  0
   61.6150   30.3461   45.8807 H   0  0  0  0  0  0  0  0  0  0  0  0
   59.7749   29.7211   44.3242 H   0  0  0  0  0  0  0  0  0  0  0  0
   58.1028   27.1054   47.0542 H   0  0  0  0  0  0  0  0  0  0  0  0
   58.7397   24.8310   47.8510 H   0  0  0  0  0  0  0  0  0  0  0  0
   56.9570   21.7550   46.9580 H   0  0  0  0  0  0  0  0  0  0  0  0
   55.2434   23.1743   45.9198 H   0  0  0  0  0  0  0  0  0  0  0  0
   54.5873   25.4509   45.1435 H   0  0  0  0  0  0  0  0  0  0  0  0
   57.1770   28.9434   47.6939 H   0  0  0  0  0  0  0  0  0  0  0  0
   58.5443   32.6853   51.0726 H   0  0  0  0  0  0  0  0  0  0  0  0
   60.1114   31.9111   50.6439 H   0  0  0  0  0  0  0  0  0  0  0  0
   56.5159   32.9048   45.8016 H   0  0  0  0  0  0  0  0  0  0  0  0
   57.4332   34.4867   44.0621 H   0  0  0  0  0  0  0  0  0  0  0  0
   59.6306   35.6383   44.4453 H   0  0  0  0  0  0  0  0  0  0  0  0
   60.9168   35.2275   46.5794 H   0  0  0  0  0  0  0  0  0  0  0  0
  1  2  1  0
  2  3  2  0
  3  4  1  0
  4  5  2  0
  5  6  1  0
  6  7  2  0
  6  8  2  0
  6  9  1  0
  9 10  1  0
 10 11  2  0
 11 12  1  0
 12 13  2  0
 13 14  1  0
 13 15  1  0
 15 16  2  0
  5 17  1  0
 17 18  2  0
 18 19  1  0
 19 20  1  0
 20 21  2  0
 20 22  1  0
 22 23  1  0
 23 24  2  0
 24 25  1  0
 25 26  2  0
 26 27  1  0
 27 28  2  0
 28 29  1  0
 29 30  2  0
 30 31  1  0
 18  2  1  0
 31 23  1  0
 16 10  1  0
 30 25  1  0
  1 32  1  0
  1 33  1  0
  1 34  1  0
  3 35  1  0
  4 36  1  0
 11 37  1  0
 12 38  1  0
 14 39  1  0
 15 40  1  0
 16 41  1  0
 17 42  1  0
 22 43  1  0
 22 44  1  0
 26 45  1  0
 27 46  1  0
 28 47  1  0
 29 48  1  0
M  CHG  3   9  -1  19  -1  31  -1
M  END
>  <UniqueID>  (68) 
64

>  <SMILES>  (68) 
Cc1ccc(S(=O)(=O)[N-]c2ccc(O)cc2)cc1[N-]C(=O)Cc1nc2ccccc2[n-]1

>  <Energy>  (68) 
91.06036345901225

>  <Genealogy>  (68) 
Cc1ccc(S(=O)(=O)[N-]c2ccc(O)cc2)cc1[N-]C(=O)Cc1nc2ccccc2[n-]1 (protonated)
Cc1ccc(S(=O)(=O)[N-]c2ccc(O)cc2)cc1[N-]C(=O)Cc1nc2ccccc2[n-]1 (3D coordinates assigned)
Cc1ccc(S(=O)(=O)[N-]c2ccc(O)cc2)cc1[N-]C(=O)Cc1nc2ccccc2[n-]1 (optimized conformer: 91.06036345901225 kcal/mol)

>  <smiles>  (68) 
Cc1ccc(S(=O)(=O)Nc2ccc(O)cc2)cc1NC(=O)Cc1nc2ccccc2[nH]1

>  <score_type>  (68) 
oracle

>  <origin>  (68) 
adg

>  <m_score__min__energy>  (68) 
-12.85

>  <m_primary>  (68) 
energy

$$$$
68:0
     RDKit          3D

 53 56  0  0  0  0  0  0  0  0999 V2000
   55.1350   27.5300   45.4870 H   0  0  0  0  0  0  0  0  0  0  0  0
   55.1270   26.6540   45.9910 O   0  0  0  0  0  0  0  0  0  0  0  0
   56.1530   25.7110   45.9030 C   0  0  0  0  0  0  0  0  0  0  0  0
   55.8400   24.3740   46.1850 C   0  0  0  0  0  0  0  0  0  0  0  0
   54.8251   24.1105   46.5174 H   0  0  0  0  0  0  0  0  0  0  0  0
   56.8040   23.3740   46.0480 C   0  0  0  0  0  0  0  0  0  0  0  0
   56.5442   22.3270   46.2631 H   0  0  0  0  0  0  0  0  0  0  0  0
   58.0950   23.7010   45.6390 C   0  0  0  0  0  0  0  0  0  0  0  0
   58.8520   22.9108   45.5269 H   0  0  0  0  0  0  0  0  0  0  0  0
   58.4300   25.0300   45.3710 C   0  0  0  0  0  0  0  0  0  0  0  0
   59.4508   25.2799   45.0461 H   0  0  0  0  0  0  0  0  0  0  0  0
   57.4720   26.0540   45.5130 C   0  0  0  0  0  0  0  0  0  0  0  0
   57.8820   27.4560   45.2850 C   0  0  0  0  0  0  0  0  0  0  0  0
   57.0070   28.4930   45.3960 N   0  0  0  0  0  0  0  0  0  0  0  0
   57.6060   29.6840   45.1860 C   0  0  0  0  0  0  0  0  0  0  0  0
   56.9400   30.8020   45.1740 N   0  0  0  0  0  0  0  0  0  0  0  0
   57.5030   32.1190   45.2850 C   0  0  0  0  0  0  0  0  0  0  0  0
   57.1100   33.0130   44.4900 O   0  0  0  0  0  0  0  0  0  0  0  0
   58.4870   32.4610   46.3340 C   0  0  0  0  0  0  0  0  0  0  0  0
   59.8210   32.7490   45.9970 C   0  0  0  0  0  0  0  0  0  0  0  0
   60.1405   32.7063   44.9453 H   0  0  0  0  0  0  0  0  0  0  0  0
   60.7430   33.0890   46.9890 C   0  0  0  0  0  0  0  0  0  0  0  0
   61.7865   33.3050   46.7163 H   0  0  0  0  0  0  0  0  0  0  0  0
   60.3440   33.1560   48.3300 C   0  0  0  0  0  0  0  0  0  0  0  0
   61.4900   33.6440   49.5770 S   0  0  0  0  0  0  0  0  0  0  0  0
   60.7550   33.8210   50.8800 O   0  0  0  0  0  0  0  0  0  0  0  0
   62.0940   34.9630   49.1830 O   0  0  0  0  0  0  0  0  0  0  0  0
   62.7470   32.4400   49.7380 N   0  0  0  0  0  0  0  0  0  0  0  0
   63.3260   32.1130   48.4270 C   0  0  0  0  0  0  0  0  0  0  0  0
   64.2758   31.5766   48.5691 H   0  0  0  0  0  0  0  0  0  0  0  0
   62.6261   31.4768   47.8654 H   0  0  0  0  0  0  0  0  0  0  0  0
   63.5094   33.0409   47.8654 H   0  0  0  0  0  0  0  0  0  0  0  0
   62.2980   31.2440   50.4850 C   0  0  0  0  0  0  0  0  0  0  0  0
   63.1351   30.5318   50.5299 H   0  0  0  0  0  0  0  0  0  0  0  0
   61.9802   31.5945   51.4781 H   0  0  0  0  0  0  0  0  0  0  0  0
   61.1050   30.5360   49.8730 C   0  0  0  0  0  0  0  0  0  0  0  0
   59.9100   30.4000   50.5990 C   0  0  0  0  0  0  0  0  0  0  0  0
   59.8411   30.8040   51.6198 H   0  0  0  0  0  0  0  0  0  0  0  0
   58.8080   29.7540   50.0310 C   0  0  0  0  0  0  0  0  0  0  0  0
   57.8712   29.6637   50.6004 H   0  0  0  0  0  0  0  0  0  0  0  0
   58.8940   29.2230   48.7420 C   0  0  0  0  0  0  0  0  0  0  0  0
   58.0238   28.7195   48.2956 H   0  0  0  0  0  0  0  0  0  0  0  0
   60.0840   29.3310   48.0200 C   0  0  0  0  0  0  0  0  0  0  0  0
   60.1540   28.9058   47.0079 H   0  0  0  0  0  0  0  0  0  0  0  0
   61.1870   29.9800   48.5840 C   0  0  0  0  0  0  0  0  0  0  0  0
   62.1254   30.0561   48.0152 H   0  0  0  0  0  0  0  0  0  0  0  0
   59.0200   32.8470   48.6710 C   0  0  0  0  0  0  0  0  0  0  0  0
   58.7030   32.8864   49.7236 H   0  0  0  0  0  0  0  0  0  0  0  0
   58.1000   32.4890   47.6810 C   0  0  0  0  0  0  0  0  0  0  0  0
   57.0685   32.2283   47.9602 H   0  0  0  0  0  0  0  0  0  0  0  0
   59.2480   29.4980   44.8450 S   0  0  0  0  0  0  0  0  0  0  0  0
   59.1960   27.8250   44.9910 C   0  0  0  0  0  0  0  0  0  0  0  0
   60.0487   27.1398   44.8751 H   0  0  0  0  0  0  0  0  0  0  0  0
  1  2  1  0
  2  3  1  0
  3  4  2  0
  4  5  1  0
  4  6  1  0
  6  7  1  0
  6  8  2  0
  8  9  1  0
  8 10  1  0
 10 11  1  0
 10 12  2  0
 12 13  1  0
 13 14  1  0
 14 15  1  0
 15 16  2  0
 16 17  1  0
 17 18  2  0
 17 19  1  0
 19 20  2  0
 20 21  1  0
 20 22  1  0
 22 23  1  0
 22 24  2  0
 24 25  1  0
 25 26  2  0
 25 27  2  0
 25 28  1  0
 28 29  1  0
 29 30  1  0
 29 31  1  0
 29 32  1  0
 28 33  1  0
 33 34  1  0
 33 35  1  0
 33 36  1  0
 36 37  2  0
 37 38  1  0
 37 39  1  0
 39 40  1  0
 39 41  2  0
 41 42  1  0
 41 43  1  0
 43 44  1  0
 43 45  2  0
 45 46  1  0
 24 47  1  0
 47 48  1  0
 47 49  2  0
 49 50  1  0
 15 51  1  0
 51 52  1  0
 52 53  1  0
 12  3  1  0
 52 13  2  0
 49 19  1  0
 45 36  1  0
M  CHG  1  14  -1
M  END
>  <UniqueID>  (69) 
65

>  <SMILES>  (69) 
CN(Cc1ccccc1)S(=O)(=O)c1ccc(C(=O)/N=c2/[n-]c(-c3ccccc3O)cs2)cc1

>  <Energy>  (69) 
104.86570550352684

>  <Genealogy>  (69) 
CN(Cc1ccccc1)S(=O)(=O)c1ccc(C(=O)N=c2[n-]c(-c3ccccc3O)cs2)cc1 (protonated)
CN(Cc1ccccc1)S(=O)(=O)c1ccc(C(=O)/N=c2/[n-]c(-c3ccccc3O)cs2)cc1 (cis-trans isomerization)
CN(Cc1ccccc1)S(=O)(=O)c1ccc(C(=O)/N=c2/[n-]c(-c3ccccc3O)cs2)cc1 (3D coordinates assigned)
CN(Cc1ccccc1)S(=O)(=O)c1ccc(C(=O)/N=c2/[n-]c(-c3ccccc3O)cs2)cc1 (optimized conformer: 104.86570550352684 kcal/mol)

>  <smiles>  (69) 
CN(Cc1ccccc1)S(=O)(=O)c1ccc(C(=O)N=c2[nH]c(-c3ccccc3O)cs2)cc1

>  <score_type>  (69) 
oracle

>  <origin>  (69) 
adg

>  <m_score__min__energy>  (69) 
-12.26

>  <m_primary>  (69) 
energy

$$$$
69:0
     RDKit          3D

 41 43  0  0  0  0  0  0  0  0999 V2000
   54.1000   24.3110   46.3440 O   0  0  0  0  0  0  0  0  0  0  0  0
   55.1080   24.7420   45.7250 C   0  0  0  0  0  0  0  0  0  0  0  0
   55.5090   26.1060   45.9330 N   0  0  0  0  0  0  0  0  0  0  0  0
   56.6700   26.5290   46.3540 C   0  0  0  0  0  0  0  0  0  0  0  0
   57.5800   25.7000   47.0400 C   0  0  0  0  0  0  0  0  0  0  0  0
   58.7960   26.2260   47.4750 C   0  0  0  0  0  0  0  0  0  0  0  0
   59.1110   27.5220   47.2180 N   0  0  0  0  0  0  0  0  0  0  0  0
   58.2780   28.3430   46.5240 C   0  0  0  0  0  0  0  0  0  0  0  0
   58.6690   29.7090   46.3110 N   0  0  0  0  0  0  0  0  0  0  0  0
   57.8120   30.7150   45.7410 C   0  0  0  0  0  0  0  0  0  0  0  0
   56.7070   30.3900   45.2260 O   0  0  0  0  0  0  0  0  0  0  0  0
   58.2360   32.1340   45.7080 C   0  0  0  0  0  0  0  0  0  0  0  0
   58.5970   32.7770   46.9060 C   0  0  0  0  0  0  0  0  0  0  0  0
   59.0170   34.1100   46.8970 C   0  0  0  0  0  0  0  0  0  0  0  0
   59.0820   34.8150   45.6960 C   0  0  0  0  0  0  0  0  0  0  0  0
   58.7280   34.1900   44.4990 C   0  0  0  0  0  0  0  0  0  0  0  0
   58.3060   32.8560   44.4940 C   0  0  0  0  0  0  0  0  0  0  0  0
   57.8230   32.1460   42.9550 Cl  0  0  0  0  0  0  0  0  0  0  0  0
   57.0330   27.8570   46.0910 C   0  0  0  0  0  0  0  0  0  0  0  0
   55.8930   23.8190   44.8680 C   0  0  0  0  0  0  0  0  0  0  0  0
   55.3690   23.3800   43.6400 C   0  0  0  0  0  0  0  0  0  0  0  0
   56.1110   22.5260   42.8210 C   0  0  0  0  0  0  0  0  0  0  0  0
   57.3750   22.0900   43.2210 C   0  0  0  0  0  0  0  0  0  0  0  0
   57.9030   22.4840   44.4610 C   0  0  0  0  0  0  0  0  0  0  0  0
   59.2860   22.0520   44.8790 C   0  0  0  0  0  0  0  0  0  0  0  0
   59.9750   21.5210   43.8020 F   0  0  0  0  0  0  0  0  0  0  0  0
   59.1830   21.0900   45.8660 F   0  0  0  0  0  0  0  0  0  0  0  0
   60.0100   23.1260   45.3690 F   0  0  0  0  0  0  0  0  0  0  0  0
   57.1610   23.3630   45.2720 C   0  0  0  0  0  0  0  0  0  0  0  0
   57.3328   24.6453   47.2310 H   0  0  0  0  0  0  0  0  0  0  0  0
   59.5023   25.5894   48.0280 H   0  0  0  0  0  0  0  0  0  0  0  0
   59.6580   29.9580   46.5320 H   0  0  0  0  0  0  0  0  0  0  0  0
   58.5484   32.2265   47.8571 H   0  0  0  0  0  0  0  0  0  0  0  0
   59.2968   34.6038   47.8393 H   0  0  0  0  0  0  0  0  0  0  0  0
   59.4124   35.8642   45.6916 H   0  0  0  0  0  0  0  0  0  0  0  0
   58.7812   34.7499   43.5536 H   0  0  0  0  0  0  0  0  0  0  0  0
   56.3435   28.5183   45.5459 H   0  0  0  0  0  0  0  0  0  0  0  0
   54.3692   23.7108   43.3222 H   0  0  0  0  0  0  0  0  0  0  0  0
   55.6974   22.1957   41.8567 H   0  0  0  0  0  0  0  0  0  0  0  0
   57.9611   21.4337   42.5609 H   0  0  0  0  0  0  0  0  0  0  0  0
   57.5777   23.6975   46.2335 H   0  0  0  0  0  0  0  0  0  0  0  0
  1  2  2  0
  2  3  1  0
  3  4  2  3
  4  5  1  0
  5  6  2  0
  6  7  1  0
  7  8  1  0
  8  9  1  0
  9 10  1  0
 10 11  2  0
 10 12  1  0
 12 13  2  0
 13 14  1  0
 14 15  2  0
 15 16  1  0
 16 17  2  0
 17 18  1  0
  8 19  2  0
  2 20  1  0
 20 21  2  0
 21 22  1  0
 22 23  2  0
 23 24  1  0
 24 25  1  0
 25 26  1  0
 25 27  1  0
 25 28  1  0
 24 29  2  0
 19  4  1  0
 29 20  1  0
 17 12  1  0
  5 30  1  0
  6 31  1  0
  9 32  1  0
 13 33  1  0
 14 34  1  0
 15 35  1  0
 16 36  1  0
 19 37  1  0
 21 38  1  0
 22 39  1  0
 23 40  1  0
 29 41  1  0
M  CHG  1   7  -1
M  END
>  <UniqueID>  (70) 
66

>  <SMILES>  (70) 
O=C(N=c1cc[n-]c(NC(=O)c2ccccc2Cl)c1)c1cccc(C(F)(F)F)c1

>  <Energy>  (70) 
64.80520711940184

>  <Genealogy>  (70) 
O=C(N=c1cc[n-]c(NC(=O)c2ccccc2Cl)c1)c1cccc(C(F)(F)F)c1 (protonated)
O=C(N=c1cc[n-]c(NC(=O)c2ccccc2Cl)c1)c1cccc(C(F)(F)F)c1 (3D coordinates assigned)
O=C(N=c1cc[n-]c(NC(=O)c2ccccc2Cl)c1)c1cccc(C(F)(F)F)c1 (optimized conformer: 64.80520711940184 kcal/mol)

>  <smiles>  (70) 
O=C(N=c1cc[nH]c(NC(=O)c2ccccc2Cl)c1)c1cccc(C(F)(F)F)c1

>  <score_type>  (70) 
oracle

>  <origin>  (70) 
adg

>  <m_score__min__energy>  (70) 
-9.8800000000000008

>  <m_primary>  (70) 
energy

$$$$
70:0
     RDKit          3D

 43 45  0  0  0  0  0  0  0  0999 V2000
   54.8760   31.1640   51.4690 N   0  0  0  0  0  0  0  0  0  0  0  0
   56.2730   30.5090   52.2480 S   0  0  0  0  0  0  0  0  0  0  0  0
   56.3990   31.0920   53.6270 O   0  0  0  0  0  0  0  0  0  0  0  0
   56.1330   29.0160   52.3670 O   0  0  0  0  0  0  0  0  0  0  0  0
   57.7070   30.9000   51.3040 C   0  0  0  0  0  0  0  0  0  0  0  0
   58.6570   29.9100   51.0250 C   0  0  0  0  0  0  0  0  0  0  0  0
   59.8040   30.2210   50.2900 C   0  0  0  0  0  0  0  0  0  0  0  0
   60.0230   31.5370   49.8380 C   0  0  0  0  0  0  0  0  0  0  0  0
   61.1940   31.8850   49.0780 N   0  0  0  0  0  0  0  0  0  0  0  0
   61.2780   33.0360   48.2270 C   0  0  0  0  0  0  0  0  0  0  0  0
   62.6730   33.8970   48.2040 S   0  0  0  0  0  0  0  0  0  0  0  0
   60.2180   33.3500   47.3030 N   0  0  0  0  0  0  0  0  0  0  0  0
   60.0170   34.6700   46.7250 C   0  0  0  0  0  0  0  0  0  0  0  0
   58.9370   34.5040   45.6630 C   0  0  0  0  0  0  0  0  0  0  0  0
   58.2800   33.1480   45.9510 C   0  0  1  0  0  0  0  0  0  0  0  0
   57.8310   32.4200   44.6970 C   0  0  0  0  0  0  0  0  0  0  0  0
   57.0880   31.2250   44.7730 C   0  0  0  0  0  0  0  0  0  0  0  0
   56.6810   30.5700   43.6070 C   0  0  0  0  0  0  0  0  0  0  0  0
   57.0080   31.0950   42.3570 C   0  0  0  0  0  0  0  0  0  0  0  0
   57.7450   32.2800   42.2680 C   0  0  0  0  0  0  0  0  0  0  0  0
   58.1540   32.9400   43.4310 C   0  0  0  0  0  0  0  0  0  0  0  0
   59.2960   32.3570   46.7760 C   0  0  0  0  0  0  0  0  0  0  0  0
   59.0630   32.5200   50.1110 C   0  0  0  0  0  0  0  0  0  0  0  0
   57.9160   32.2080   50.8470 C   0  0  0  0  0  0  0  0  0  0  0  0
   54.5600   31.9770   52.0450 H   0  0  0  0  0  0  0  0  0  0  0  0
   55.1910   31.5490   50.5500 H   0  0  0  0  0  0  0  0  0  0  0  0
   58.4997   28.8829   51.3860 H   0  0  0  0  0  0  0  0  0  0  0  0
   60.5391   29.4347   50.0634 H   0  0  0  0  0  0  0  0  0  0  0  0
   62.0600   31.3160   49.2170 H   0  0  0  0  0  0  0  0  0  0  0  0
   59.6869   35.3794   47.4981 H   0  0  0  0  0  0  0  0  0  0  0  0
   60.9480   35.0669   46.2940 H   0  0  0  0  0  0  0  0  0  0  0  0
   58.1961   35.3135   45.7390 H   0  0  0  0  0  0  0  0  0  0  0  0
   59.3558   34.5456   44.6467 H   0  0  0  0  0  0  0  0  0  0  0  0
   57.3417   33.2810   46.5096 H   0  0  0  0  0  0  0  0  0  0  0  0
   56.8268   30.8051   45.7556 H   0  0  0  0  0  0  0  0  0  0  0  0
   56.1011   29.6378   43.6756 H   0  0  0  0  0  0  0  0  0  0  0  0
   56.6863   30.5771   41.4414 H   0  0  0  0  0  0  0  0  0  0  0  0
   58.0033   32.6935   41.2820 H   0  0  0  0  0  0  0  0  0  0  0  0
   58.7325   33.8725   43.3550 H   0  0  0  0  0  0  0  0  0  0  0  0
   58.7942   31.8232   47.5965 H   0  0  0  0  0  0  0  0  0  0  0  0
   59.8129   31.5972   46.1714 H   0  0  0  0  0  0  0  0  0  0  0  0
   59.2129   33.5458   49.7433 H   0  0  0  0  0  0  0  0  0  0  0  0
   57.1759   32.9912   51.0678 H   0  0  0  0  0  0  0  0  0  0  0  0
  1  2  1  0
  2  3  2  0
  2  4  2  0
  2  5  1  0
  5  6  2  0
  6  7  1  0
  7  8  2  0
  8  9  1  0
  9 10  1  0
 10 11  2  0
 10 12  1  0
 12 13  1  0
 13 14  1  0
 14 15  1  0
 15 16  1  0
 16 17  2  0
 17 18  1  0
 18 19  2  0
 19 20  1  0
 20 21  2  0
 15 22  1  0
  8 23  1  0
 23 24  2  0
 24  5  1  0
 22 12  1  0
 21 16  1  0
  1 25  1  0
  1 26  1  0
  6 27  1  0
  7 28  1  0
  9 29  1  0
 13 30  1  0
 13 31  1  0
 14 32  1  0
 14 33  1  0
 15 34  1  1
 17 35  1  0
 18 36  1  0
 19 37  1  0
 20 38  1  0
 21 39  1  0
 22 40  1  0
 22 41  1  0
 23 42  1  0
 24 43  1  0
M  END
>  <UniqueID>  (71) 
67

>  <SMILES>  (71) 
NS(=O)(=O)c1ccc(NC(=S)N2CC[C@@H](c3ccccc3)C2)cc1

>  <Energy>  (71) 
50.70584791964667

>  <Genealogy>  (71) 
NS(=O)(=O)c1ccc(NC(=S)N2CC[C@@H](c3ccccc3)C2)cc1 (chirality)
NS(=O)(=O)c1ccc(NC(=S)N2CC[C@@H](c3ccccc3)C2)cc1 (3D coordinates assigned)
NS(=O)(=O)c1ccc(NC(=S)N2CC[C@@H](c3ccccc3)C2)cc1 (nonaromatic ring conformer: 50.70584791964667 kcal/mol)

>  <smiles>  (71) 
NS(=O)(=O)c1ccc(NC(=S)N2CCC(c3ccccc3)C2)cc1

>  <score_type>  (71) 
oracle

>  <origin>  (71) 
adg

>  <m_score__min__energy>  (71) 
-8.1500000000000004

>  <m_primary>  (71) 
energy

$$$$
71:0
     RDKit          3D

 49 51  0  0  0  0  0  0  0  0999 V2000
   54.8260   26.2950   45.9820 N   0  0  0  0  0  0  0  0  0  0  0  0
   56.4050   25.6050   46.1150 S   0  0  0  0  0  0  0  0  0  0  0  0
   56.4760   24.3510   45.2890 O   0  0  0  0  0  0  0  0  0  0  0  0
   56.6830   25.2550   47.5500 O   0  0  0  0  0  0  0  0  0  0  0  0
   57.5970   26.7670   45.5440 C   0  0  0  0  0  0  0  0  0  0  0  0
   57.9950   26.7680   44.2020 C   0  0  0  0  0  0  0  0  0  0  0  0
   58.9380   27.6930   43.7500 C   0  0  0  0  0  0  0  0  0  0  0  0
   59.4850   28.6280   44.6330 C   0  0  0  0  0  0  0  0  0  0  0  0
   59.0900   28.6480   45.9840 C   0  0  0  0  0  0  0  0  0  0  0  0
   59.6630   29.6450   46.9230 C   0  0  0  0  0  0  0  0  0  0  0  0
   60.8810   30.2870   46.6310 C   0  0  0  0  0  0  0  0  0  0  0  0
   61.4190   31.2240   47.5160 C   0  0  0  0  0  0  0  0  0  0  0  0
   60.7570   31.5330   48.7130 C   0  0  0  0  0  0  0  0  0  0  0  0
   61.3370   32.5510   49.6550 C   0  0  0  0  0  0  0  0  0  0  0  0
   60.5010   33.7920   49.6570 C   0  0  0  0  0  0  0  0  0  0  0  0
   59.6870   34.0020   50.5960 O   0  0  0  0  0  0  0  0  0  0  0  0
   60.6010   34.7090   48.5640 N   0  0  0  0  0  0  0  0  0  0  0  0
   59.8960   34.5210   47.3030 C   0  0  0  0  0  0  0  0  0  0  0  0
   58.5740   33.8020   47.5490 C   0  0  0  0  0  0  0  0  0  0  0  0
   57.5610   33.7870   46.0210 S   0  0  0  0  0  0  0  0  0  0  0  0
   58.6550   32.7120   45.0280 C   0  0  0  0  0  0  0  0  0  0  0  0
   57.8430   31.8020   44.1600 C   0  0  0  0  0  0  0  0  0  0  0  0
   57.7290   31.8910   42.7790 C   0  0  0  0  0  0  0  0  0  0  0  0
   56.8600   30.9370   42.2360 C   0  0  0  0  0  0  0  0  0  0  0  0
   56.2850   30.1010   43.1850 C   0  0  0  0  0  0  0  0  0  0  0  0
   56.8560   30.5510   44.7020 S   0  0  0  0  0  0  0  0  0  0  0  0
   59.5360   30.9050   49.0040 C   0  0  0  0  0  0  0  0  0  0  0  0
   58.9970   29.9670   48.1190 C   0  0  0  0  0  0  0  0  0  0  0  0
   58.1410   27.7080   46.4300 C   0  0  0  0  0  0  0  0  0  0  0  0
   54.7570   26.7200   45.0300 H   0  0  0  0  0  0  0  0  0  0  0  0
   57.5635   26.0379   43.5015 H   0  0  0  0  0  0  0  0  0  0  0  0
   59.2514   27.6858   42.6956 H   0  0  0  0  0  0  0  0  0  0  0  0
   60.2287   29.3527   44.2701 H   0  0  0  0  0  0  0  0  0  0  0  0
   61.4134   30.0489   45.6984 H   0  0  0  0  0  0  0  0  0  0  0  0
   62.3685   31.7230   47.2724 H   0  0  0  0  0  0  0  0  0  0  0  0
   61.3651   32.1307   50.6711 H   0  0  0  0  0  0  0  0  0  0  0  0
   62.3548   32.8056   49.3244 H   0  0  0  0  0  0  0  0  0  0  0  0
   59.6981   35.5019   46.8462 H   0  0  0  0  0  0  0  0  0  0  0  0
   60.5176   33.9146   46.6278 H   0  0  0  0  0  0  0  0  0  0  0  0
   58.7769   32.7664   47.8596 H   0  0  0  0  0  0  0  0  0  0  0  0
   58.0211   34.3319   48.3386 H   0  0  0  0  0  0  0  0  0  0  0  0
   59.3000   33.3379   44.3938 H   0  0  0  0  0  0  0  0  0  0  0  0
   59.2698   32.1032   45.7072 H   0  0  0  0  0  0  0  0  0  0  0  0
   58.2667   32.6353   42.1733 H   0  0  0  0  0  0  0  0  0  0  0  0
   56.6520   30.8569   41.1588 H   0  0  0  0  0  0  0  0  0  0  0  0
   55.5773   29.2844   42.9795 H   0  0  0  0  0  0  0  0  0  0  0  0
   59.0008   31.1521   49.9327 H   0  0  0  0  0  0  0  0  0  0  0  0
   58.0427   29.4760   48.3603 H   0  0  0  0  0  0  0  0  0  0  0  0
   57.8235   27.7119   47.4832 H   0  0  0  0  0  0  0  0  0  0  0  0
  1  2  1  0
  2  3  2  0
  2  4  2  0
  2  5  1  0
  5  6  2  0
  6  7  1  0
  7  8  2  0
  8  9  1  0
  9 10  1  0
 10 11  2  0
 11 12  1  0
 12 13  2  0
 13 14  1  0
 14 15  1  0
 15 16  2  0
 15 17  1  0
 17 18  1  0
 18 19  1  0
 19 20  1  0
 20 21  1  0
 21 22  1  0
 22 23  2  0
 23 24  1  0
 24 25  2  0
 25 26  1  0
 13 27  1  0
 27 28  2  0
  9 29  2  0
 29  5  1  0
 28 10  1  0
 26 22  1  0
  1 30  1  0
  6 31  1  0
  7 32  1  0
  8 33  1  0
 11 34  1  0
 12 35  1  0
 14 36  1  0
 14 37  1  0
 18 38  1  0
 18 39  1  0
 19 40  1  0
 19 41  1  0
 21 42  1  0
 21 43  1  0
 23 44  1  0
 24 45  1  0
 25 46  1  0
 27 47  1  0
 28 48  1  0
 29 49  1  0
M  CHG  2   1  -1  17  -1
M  END
>  <UniqueID>  (72) 
68

>  <SMILES>  (72) 
[NH-]S(=O)(=O)c1cccc(-c2ccc(CC(=O)[N-]CCSCc3cccs3)cc2)c1

>  <Energy>  (72) 
69.66334007836294

>  <Genealogy>  (72) 
[NH-]S(=O)(=O)c1cccc(-c2ccc(CC(=O)[N-]CCSCc3cccs3)cc2)c1 (protonated)
[NH-]S(=O)(=O)c1cccc(-c2ccc(CC(=O)[N-]CCSCc3cccs3)cc2)c1 (3D coordinates assigned)
[NH-]S(=O)(=O)c1cccc(-c2ccc(CC(=O)[N-]CCSCc3cccs3)cc2)c1 (optimized conformer: 69.66334007836294 kcal/mol)

>  <smiles>  (72) 
NS(=O)(=O)c1cccc(-c2ccc(CC(=O)NCCSCc3cccs3)cc2)c1

>  <score_type>  (72) 
oracle

>  <origin>  (72) 
adg

>  <m_score__min__energy>  (72) 
-12.619999999999999

>  <m_primary>  (72) 
energy

$$$$
72:0
     RDKit          3D

 48 50  0  0  0  0  0  0  0  0999 V2000
   57.0330   31.0450   45.2820 O   0  0  0  0  0  0  0  0  0  0  0  0
   57.5800   30.5690   44.2500 C   0  0  0  0  0  0  0  0  0  0  0  0
   58.0000   31.4420   43.1930 N   0  0  0  0  0  0  0  0  0  0  0  0
   57.8660   32.8950   43.2750 C   0  0  0  0  0  0  0  0  0  0  0  0
   58.3110   33.3800   44.6230 C   0  0  0  0  0  0  0  0  0  0  0  0
   59.6220   33.8390   44.8290 C   0  0  0  0  0  0  0  0  0  0  0  0
   59.9930   34.3050   46.0930 C   0  0  0  0  0  0  0  0  0  0  0  0
   59.0600   34.3150   47.1320 C   0  0  0  0  0  0  0  0  0  0  0  0
   57.7640   33.8570   46.8890 C   0  0  0  0  0  0  0  0  0  0  0  0
   57.4200   33.4060   45.6530 N   0  0  0  0  0  0  0  0  0  0  0  0
   57.7680   29.1510   44.1160 N   0  0  0  0  0  0  0  0  0  0  0  0
   57.4900   28.2070   45.1650 C   0  0  0  0  0  0  0  0  0  0  0  0
   57.3280   28.6140   46.3490 O   0  0  0  0  0  0  0  0  0  0  0  0
   57.4220   26.7520   44.8830 C   0  0  0  0  0  0  0  0  0  0  0  0
   56.9710   25.8630   45.8750 C   0  0  0  0  0  0  0  0  0  0  0  0
   56.8950   24.4910   45.6180 C   0  0  0  0  0  0  0  0  0  0  0  0
   57.2530   23.9870   44.3610 C   0  0  0  0  0  0  0  0  0  0  0  0
   57.1350   22.2560   44.0310 S   0  0  0  0  0  0  0  0  0  0  0  0
   56.2320   22.0380   42.8480 O   0  0  0  0  0  0  0  0  0  0  0  0
   58.4970   21.7250   43.6790 O   0  0  0  0  0  0  0  0  0  0  0  0
   56.5060   21.3760   45.4050 N   0  0  0  0  0  0  0  0  0  0  0  0
   55.0810   21.6960   45.6140 C   0  0  0  0  0  0  0  0  0  0  0  0
   54.3960   20.6000   46.4460 C   0  0  0  0  0  0  0  0  0  0  0  0
   54.4340   19.3090   45.8490 O   0  0  0  0  0  0  0  0  0  0  0  0
   55.4940   19.1390   44.9170 C   0  0  0  0  0  0  0  0  0  0  0  0
   56.7640   19.9240   45.2910 C   0  0  0  0  0  0  0  0  0  0  0  0
   57.7010   24.8670   43.3690 C   0  0  0  0  0  0  0  0  0  0  0  0
   57.7790   26.2400   43.6230 C   0  0  0  0  0  0  0  0  0  0  0  0
   58.4110   31.0280   42.3270 H   0  0  0  0  0  0  0  0  0  0  0  0
   58.4880   33.3619   42.4971 H   0  0  0  0  0  0  0  0  0  0  0  0
   56.8109   33.1676   43.1253 H   0  0  0  0  0  0  0  0  0  0  0  0
   60.3494   33.8318   44.0039 H   0  0  0  0  0  0  0  0  0  0  0  0
   61.0180   34.6633   46.2693 H   0  0  0  0  0  0  0  0  0  0  0  0
   59.3431   34.6796   48.1304 H   0  0  0  0  0  0  0  0  0  0  0  0
   57.0195   33.8609   47.6988 H   0  0  0  0  0  0  0  0  0  0  0  0
   58.1710   28.8020   43.2190 H   0  0  0  0  0  0  0  0  0  0  0  0
   56.6756   26.2504   46.8612 H   0  0  0  0  0  0  0  0  0  0  0  0
   56.5526   23.8043   46.4062 H   0  0  0  0  0  0  0  0  0  0  0  0
   55.0003   22.6561   46.1447 H   0  0  0  0  0  0  0  0  0  0  0  0
   54.5847   21.7594   44.6344 H   0  0  0  0  0  0  0  0  0  0  0  0
   54.8977   20.5437   47.4233 H   0  0  0  0  0  0  0  0  0  0  0  0
   53.3356   20.8804   46.5287 H   0  0  0  0  0  0  0  0  0  0  0  0
   55.7466   18.0696   44.8665 H   0  0  0  0  0  0  0  0  0  0  0  0
   55.1433   19.5277   43.9496 H   0  0  0  0  0  0  0  0  0  0  0  0
   57.1389   19.5533   46.2564 H   0  0  0  0  0  0  0  0  0  0  0  0
   57.5041   19.7727   44.4914 H   0  0  0  0  0  0  0  0  0  0  0  0
   57.9936   24.4761   42.3833 H   0  0  0  0  0  0  0  0  0  0  0  0
   58.1217   26.9236   42.8323 H   0  0  0  0  0  0  0  0  0  0  0  0
  1  2  2  0
  2  3  1  0
  3  4  1  0
  4  5  1  0
  5  6  2  0
  6  7  1  0
  7  8  2  0
  8  9  1  0
  9 10  2  0
  2 11  1  0
 11 12  1  0
 12 13  2  0
 12 14  1  0
 14 15  2  0
 15 16  1  0
 16 17  2  0
 17 18  1  0
 18 19  2  0
 18 20  2  0
 18 21  1  0
 21 22  1  0
 22 23  1  0
 23 24  1  0
 24 25  1  0
 25 26  1  0
 17 27  1  0
 27 28  2  0
 10  5  1  0
 28 14  1  0
 26 21  1  0
  3 29  1  0
  4 30  1  0
  4 31  1  0
  6 32  1  0
  7 33  1  0
  8 34  1  0
  9 35  1  0
 11 36  1  0
 15 37  1  0
 16 38  1  0
 22 39  1  0
 22 40  1  0
 23 41  1  0
 23 42  1  0
 25 43  1  0
 25 44  1  0
 26 45  1  0
 26 46  1  0
 27 47  1  0
 28 48  1  0
M  END
>  <UniqueID>  (73) 
69

>  <SMILES>  (73) 
O=C(NCc1ccccn1)NC(=O)c1ccc(S(=O)(=O)N2CCOCC2)cc1

>  <Energy>  (73) 
61.45448398933281

>  <Genealogy>  (73) 
O=C(NCc1ccccn1)NC(=O)c1ccc(S(=O)(=O)N2CCOCC2)cc1 (3D coordinates assigned)
O=C(NCc1ccccn1)NC(=O)c1ccc(S(=O)(=O)N2CCOCC2)cc1 (nonaromatic ring conformer: 61.45448398933281 kcal/mol)

>  <smiles>  (73) 
O=C(NCc1ccccn1)NC(=O)c1ccc(S(=O)(=O)N2CCOCC2)cc1

>  <score_type>  (73) 
oracle

>  <origin>  (73) 
adg

>  <m_score__min__energy>  (73) 
-8.3000000000000007

>  <m_primary>  (73) 
energy

$$$$
73:0
     RDKit          3D

 33 34  0  0  0  0  0  0  0  0999 V2000
   55.5480   24.4060   46.6460 O   0  0  0  0  0  0  0  0  0  0  0  0
   55.4860   25.4800   45.9920 C   0  0  0  0  0  0  0  0  0  0  0  0
   54.2460   26.0020   45.6440 O   0  0  0  0  0  0  0  0  0  0  0  0
   56.7370   26.2150   45.6290 C   0  0  0  0  0  0  0  0  0  0  0  0
   56.4680   27.6030   45.4410 O   0  0  0  0  0  0  0  0  0  0  0  0
   57.4040   28.6430   45.5830 C   0  0  0  0  0  0  0  0  0  0  0  0
   58.5720   28.4990   46.3560 C   0  0  0  0  0  0  0  0  0  0  0  0
   59.4740   29.5560   46.4770 C   0  0  0  0  0  0  0  0  0  0  0  0
   59.2270   30.7710   45.8360 C   0  0  0  0  0  0  0  0  0  0  0  0
   60.1320   31.7750   45.9510 F   0  0  0  0  0  0  0  0  0  0  0  0
   58.0670   30.9360   45.0590 C   0  0  0  0  0  0  0  0  0  0  0  0
   57.8090   32.2270   44.3950 C   0  0  0  0  0  0  0  0  0  0  0  0
   57.9880   32.3330   43.1510 O   0  0  0  0  0  0  0  0  0  0  0  0
   57.2340   33.3820   45.1620 C   0  0  0  0  0  0  0  0  0  0  0  0
   58.1380   33.7490   46.2620 N   0  0  0  0  0  0  0  0  0  0  0  0
   58.0000   33.1160   47.4680 C   0  0  0  0  0  0  0  0  0  0  0  0
   58.8650   33.3990   48.5270 C   0  0  0  0  0  0  0  0  0  0  0  0
   59.8840   34.3310   48.3460 C   0  0  0  0  0  0  0  0  0  0  0  0
   60.0310   34.9640   47.1150 C   0  0  0  0  0  0  0  0  0  0  0  0
   59.1500   34.6600   46.0720 C   0  0  0  0  0  0  0  0  0  0  0  0
   59.3030   35.2320   44.9580 O   0  0  0  0  0  0  0  0  0  0  0  0
   57.1550   29.8660   44.9360 C   0  0  0  0  0  0  0  0  0  0  0  0
   55.6650   30.0530   44.0090 Cl  0  0  0  0  0  0  0  0  0  0  0  0
   57.4735   26.0959   46.4373 H   0  0  0  0  0  0  0  0  0  0  0  0
   57.1317   25.8002   44.6898 H   0  0  0  0  0  0  0  0  0  0  0  0
   58.7745   27.5466   46.8679 H   0  0  0  0  0  0  0  0  0  0  0  0
   60.3849   29.4314   47.0809 H   0  0  0  0  0  0  0  0  0  0  0  0
   57.1107   34.2426   44.4881 H   0  0  0  0  0  0  0  0  0  0  0  0
   56.2570   33.0925   45.5762 H   0  0  0  0  0  0  0  0  0  0  0  0
   57.1981   32.3755   47.6044 H   0  0  0  0  0  0  0  0  0  0  0  0
   58.7428   32.8907   49.4949 H   0  0  0  0  0  0  0  0  0  0  0  0
   60.5702   34.5661   49.1729 H   0  0  0  0  0  0  0  0  0  0  0  0
   60.8353   35.6990   46.9634 H   0  0  0  0  0  0  0  0  0  0  0  0
  1  2  2  0
  2  3  1  0
  2  4  1  0
  4  5  1  0
  5  6  1  0
  6  7  2  0
  7  8  1  0
  8  9  2  0
  9 10  1  0
  9 11  1  0
 11 12  1  0
 12 13  2  0
 12 14  1  0
 14 15  1  0
 15 16  1  0
 16 17  2  0
 17 18  1  0
 18 19  2  0
 19 20  1  0
 20 21  2  0
 11 22  2  0
 22 23  1  0
 22  6  1  0
 20 15  1  0
  4 24  1  0
  4 25  1  0
  7 26  1  0
  8 27  1  0
 14 28  1  0
 14 29  1  0
 16 30  1  0
 17 31  1  0
 18 32  1  0
 19 33  1  0
M  CHG  1   3  -1
M  END
>  <UniqueID>  (74) 
70

>  <SMILES>  (74) 
O=C([O-])COc1ccc(F)c(C(=O)Cn2ccccc2=O)c1Cl

>  <Energy>  (74) 
41.29240697789149

>  <Genealogy>  (74) 
O=C([O-])COc1ccc(F)c(C(=O)Cn2ccccc2=O)c1Cl (protonated)
O=C([O-])COc1ccc(F)c(C(=O)Cn2ccccc2=O)c1Cl (3D coordinates assigned)
O=C([O-])COc1ccc(F)c(C(=O)Cn2ccccc2=O)c1Cl (optimized conformer: 41.29240697789149 kcal/mol)

>  <smiles>  (74) 
O=C(O)COc1ccc(F)c(C(=O)Cn2ccccc2=O)c1Cl

>  <score_type>  (74) 
oracle

>  <origin>  (74) 
adg

>  <m_score__min__energy>  (74) 
-9.8300000000000001

>  <m_primary>  (74) 
energy

$$$$
74:0
     RDKit          3D

 44 45  0  0  0  0  0  0  0  0999 V2000
   64.2040   32.3920   49.3570 C   0  0  0  0  0  0  0  0  0  0  0  0
   64.5240   33.4650   48.5020 O   0  0  0  0  0  0  0  0  0  0  0  0
   63.7610   33.3620   47.3190 C   0  0  0  0  0  0  0  0  0  0  0  0
   62.6000   32.3930   47.5400 C   0  0  0  0  0  0  0  0  0  0  0  0
   61.3120   33.0910   47.4590 N   0  0  0  0  0  0  0  0  0  0  0  0
   60.5230   32.8340   46.4110 N   0  0  0  0  0  0  0  0  0  0  0  0
   59.3090   33.4230   46.2510 C   0  0  0  0  0  0  0  0  0  0  0  0
   58.4790   33.0850   45.0830 C   0  0  0  0  0  0  0  0  0  0  0  0
   58.7400   33.6080   43.9680 O   0  0  0  0  0  0  0  0  0  0  0  0
   57.3730   32.1790   45.1810 N   0  0  0  0  0  0  0  0  0  0  0  0
   57.0210   31.1840   44.1710 C   0  0  0  0  0  0  0  0  0  0  0  0
   57.2690   29.7950   44.7090 C   0  0  0  0  0  0  0  0  0  0  0  0
   58.5910   29.3920   44.9500 C   0  0  0  0  0  0  0  0  0  0  0  0
   58.8570   28.1510   45.5270 C   0  0  0  0  0  0  0  0  0  0  0  0
   57.8080   27.2970   45.8640 C   0  0  0  0  0  0  0  0  0  0  0  0
   56.4800   27.6610   45.6090 C   0  0  0  0  0  0  0  0  0  0  0  0
   55.4540   26.7310   45.9920 N   0  0  0  0  0  0  0  0  0  0  0  0
   55.5700   25.0010   46.0110 S   0  0  0  0  0  0  0  0  0  0  0  0
   56.5290   24.4350   44.6220 C   0  0  0  0  0  0  0  0  0  0  0  0
   56.2790   24.5850   47.2680 O   0  0  0  0  0  0  0  0  0  0  0  0
   54.1990   24.3850   46.0040 O   0  0  0  0  0  0  0  0  0  0  0  0
   56.2070   28.9270   45.0430 C   0  0  0  0  0  0  0  0  0  0  0  0
   54.8970   29.3410   44.8390 O   0  0  0  0  0  0  0  0  0  0  0  0
   58.8570   34.3230   47.2170 C   0  0  0  0  0  0  0  0  0  0  0  0
   59.6790   34.6220   48.3000 C   0  0  0  0  0  0  0  0  0  0  0  0
   60.9200   33.9970   48.4120 C   0  0  0  0  0  0  0  0  0  0  0  0
   61.6660   34.2730   49.3910 O   0  0  0  0  0  0  0  0  0  0  0  0
   64.3006   32.7159   50.4038 H   0  0  0  0  0  0  0  0  0  0  0  0
   63.1701   32.0678   49.1674 H   0  0  0  0  0  0  0  0  0  0  0  0
   64.8915   31.5545   49.1674 H   0  0  0  0  0  0  0  0  0  0  0  0
   63.3650   34.3528   47.0515 H   0  0  0  0  0  0  0  0  0  0  0  0
   64.3988   32.9880   46.5046 H   0  0  0  0  0  0  0  0  0  0  0  0
   62.6337   31.6090   46.7692 H   0  0  0  0  0  0  0  0  0  0  0  0
   62.6975   31.9510   48.5426 H   0  0  0  0  0  0  0  0  0  0  0  0
   55.9576   31.2896   43.9102 H   0  0  0  0  0  0  0  0  0  0  0  0
   57.6410   31.3416   43.2761 H   0  0  0  0  0  0  0  0  0  0  0  0
   59.4232   30.0596   44.6820 H   0  0  0  0  0  0  0  0  0  0  0  0
   59.8965   27.8452   45.7167 H   0  0  0  0  0  0  0  0  0  0  0  0
   58.0256   26.3271   46.3351 H   0  0  0  0  0  0  0  0  0  0  0  0
   57.4234   23.9072   44.9846 H   0  0  0  0  0  0  0  0  0  0  0  0
   55.9216   23.7506   44.0116 H   0  0  0  0  0  0  0  0  0  0  0  0
   56.8346   25.2975   44.0116 H   0  0  0  0  0  0  0  0  0  0  0  0
   57.8652   34.7896   47.1240 H   0  0  0  0  0  0  0  0  0  0  0  0
   59.3519   35.3456   49.0612 H   0  0  0  0  0  0  0  0  0  0  0  0
  1  2  1  0
  2  3  1  0
  3  4  1  0
  4  5  1  0
  5  6  1  0
  6  7  2  0
  7  8  1  0
  8  9  2  0
  8 10  1  0
 10 11  1  0
 11 12  1  0
 12 13  2  0
 13 14  1  0
 14 15  2  0
 15 16  1  0
 16 17  1  0
 17 18  1  0
 18 19  1  0
 18 20  2  0
 18 21  2  0
 16 22  2  0
 22 23  1  0
  7 24  1  0
 24 25  2  0
 25 26  1  0
 26 27  2  0
 26  5  1  0
 22 12  1  0
  1 28  1  0
  1 29  1  0
  1 30  1  0
  3 31  1  0
  3 32  1  0
  4 33  1  0
  4 34  1  0
 11 35  1  0
 11 36  1  0
 13 37  1  0
 14 38  1  0
 15 39  1  0
 19 40  1  0
 19 41  1  0
 19 42  1  0
 24 43  1  0
 25 44  1  0
M  CHG  3  10  -1  17  -1  23  -1
M  END
>  <UniqueID>  (75) 
71

>  <SMILES>  (75) 
COCCn1nc(C(=O)[N-]Cc2cccc([N-]S(C)(=O)=O)c2[O-])ccc1=O

>  <Energy>  (75) 
46.679101428872805

>  <Genealogy>  (75) 
COCCn1nc(C(=O)[N-]Cc2cccc([N-]S(C)(=O)=O)c2[O-])ccc1=O (protonated)
COCCn1nc(C(=O)[N-]Cc2cccc([N-]S(C)(=O)=O)c2[O-])ccc1=O (3D coordinates assigned)
COCCn1nc(C(=O)[N-]Cc2cccc([N-]S(C)(=O)=O)c2[O-])ccc1=O (optimized conformer: 46.679101428872805 kcal/mol)

>  <smiles>  (75) 
COCCn1nc(C(=O)NCc2cccc(NS(C)(=O)=O)c2O)ccc1=O

>  <score_type>  (75) 
oracle

>  <origin>  (75) 
adg

>  <m_score__min__energy>  (75) 
-16.02

>  <m_primary>  (75) 
energy

$$$$
75:0
     RDKit          3D

 44 46  0  0  0  0  0  0  0  0999 V2000
   56.2800   22.3530   48.4340 C   0  0  0  0  0  0  0  0  0  0  0  0
   57.2930   22.6790   47.4900 O   0  0  0  0  0  0  0  0  0  0  0  0
   57.0650   22.9300   46.1270 C   0  0  0  0  0  0  0  0  0  0  0  0
   57.4390   22.0040   45.1330 C   0  0  0  0  0  0  0  0  0  0  0  0
   57.1980   22.2770   43.7850 C   0  0  0  0  0  0  0  0  0  0  0  0
   56.5880   23.4730   43.4110 C   0  0  0  0  0  0  0  0  0  0  0  0
   56.2140   24.4010   44.3830 C   0  0  0  0  0  0  0  0  0  0  0  0
   56.4440   24.1400   45.7440 C   0  0  0  0  0  0  0  0  0  0  0  0
   56.0470   25.1810   46.7600 C   0  0  0  0  0  0  0  0  0  0  0  0
   55.5160   26.3630   46.0910 N   0  0  0  0  0  0  0  0  0  0  0  0
   56.3290   27.4400   45.6190 C   0  0  0  0  0  0  0  0  0  0  0  0
   55.8020   28.5190   45.2310 O   0  0  0  0  0  0  0  0  0  0  0  0
   57.8120   27.2670   45.5350 C   0  0  0  0  0  0  0  0  0  0  0  0
   58.4820   28.2870   46.3470 N   0  0  0  0  0  0  0  0  0  0  0  0
   58.3870   29.5630   45.9590 N   0  0  0  0  0  0  0  0  0  0  0  0
   58.9960   30.5820   46.6270 C   0  0  0  0  0  0  0  0  0  0  0  0
   58.8320   31.9750   46.1390 C   0  0  0  0  0  0  0  0  0  0  0  0
   57.8980   32.2970   45.1330 C   0  0  0  0  0  0  0  0  0  0  0  0
   57.7590   33.6160   44.6900 C   0  0  0  0  0  0  0  0  0  0  0  0
   58.5380   34.6300   45.2520 C   0  0  0  0  0  0  0  0  0  0  0  0
   59.4580   34.3270   46.2560 C   0  0  0  0  0  0  0  0  0  0  0  0
   59.6030   33.0100   46.7030 C   0  0  0  0  0  0  0  0  0  0  0  0
   59.7440   30.2780   47.7730 C   0  0  0  0  0  0  0  0  0  0  0  0
   59.8620   28.9540   48.1780 C   0  0  0  0  0  0  0  0  0  0  0  0
   59.2250   27.9520   47.4480 C   0  0  0  0  0  0  0  0  0  0  0  0
   59.3420   26.7500   47.8120 O   0  0  0  0  0  0  0  0  0  0  0  0
   56.6740   22.4798   49.4531 H   0  0  0  0  0  0  0  0  0  0  0  0
   55.4162   23.0185   48.2894 H   0  0  0  0  0  0  0  0  0  0  0  0
   55.9665   21.3086   48.2894 H   0  0  0  0  0  0  0  0  0  0  0  0
   57.9241   21.0597   45.4209 H   0  0  0  0  0  0  0  0  0  0  0  0
   57.4903   21.5464   43.0164 H   0  0  0  0  0  0  0  0  0  0  0  0
   56.4012   23.6854   42.3480 H   0  0  0  0  0  0  0  0  0  0  0  0
   55.7353   25.3444   44.0815 H   0  0  0  0  0  0  0  0  0  0  0  0
   55.2769   24.7637   47.4254 H   0  0  0  0  0  0  0  0  0  0  0  0
   56.9338   25.4680   47.3442 H   0  0  0  0  0  0  0  0  0  0  0  0
   58.0840   26.2683   45.9073 H   0  0  0  0  0  0  0  0  0  0  0  0
   58.1294   27.3734   44.4872 H   0  0  0  0  0  0  0  0  0  0  0  0
   57.2741   31.5048   44.6934 H   0  0  0  0  0  0  0  0  0  0  0  0
   57.0348   33.8555   43.8974 H   0  0  0  0  0  0  0  0  0  0  0  0
   58.4261   35.6672   44.9031 H   0  0  0  0  0  0  0  0  0  0  0  0
   60.0712   35.1265   46.6973 H   0  0  0  0  0  0  0  0  0  0  0  0
   60.3245   32.7806   47.5010 H   0  0  0  0  0  0  0  0  0  0  0  0
   60.2328   31.0797   48.3460 H   0  0  0  0  0  0  0  0  0  0  0  0
   60.4543   28.6984   49.0690 H   0  0  0  0  0  0  0  0  0  0  0  0
  1  2  1  0
  2  3  1  0
  3  4  2  0
  4  5  1  0
  5  6  2  0
  6  7  1  0
  7  8  2  0
  8  9  1  0
  9 10  1  0
 10 11  1  0
 11 12  2  0
 11 13  1  0
 13 14  1  0
 14 15  1  0
 15 16  2  0
 16 17  1  0
 17 18  2  0
 18 19  1  0
 19 20  2  0
 20 21  1  0
 21 22  2  0
 16 23  1  0
 23 24  2  0
 24 25  1  0
 25 26  2  0
  8  3  1  0
 25 14  1  0
 22 17  1  0
  1 27  1  0
  1 28  1  0
  1 29  1  0
  4 30  1  0
  5 31  1  0
  6 32  1  0
  7 33  1  0
  9 34  1  0
  9 35  1  0
 13 36  1  0
 13 37  1  0
 18 38  1  0
 19 39  1  0
 20 40  1  0
 21 41  1  0
 22 42  1  0
 23 43  1  0
 24 44  1  0
M  CHG  1  10  -1
M  END
>  <UniqueID>  (76) 
72

>  <SMILES>  (76) 
COc1ccccc1C[N-]C(=O)Cn1nc(-c2ccccc2)ccc1=O

>  <Energy>  (76) 
48.39043055132055

>  <Genealogy>  (76) 
COc1ccccc1C[N-]C(=O)Cn1nc(-c2ccccc2)ccc1=O (protonated)
COc1ccccc1C[N-]C(=O)Cn1nc(-c2ccccc2)ccc1=O (3D coordinates assigned)
COc1ccccc1C[N-]C(=O)Cn1nc(-c2ccccc2)ccc1=O (optimized conformer: 48.39043055132055 kcal/mol)

>  <smiles>  (76) 
COc1ccccc1CNC(=O)Cn1nc(-c2ccccc2)ccc1=O

>  <score_type>  (76) 
oracle

>  <origin>  (76) 
adg

>  <m_score__min__energy>  (76) 
-9.8900000000000006

>  <m_primary>  (76) 
energy

$$$$
76:0
     RDKit          3D

 48 50  0  0  0  0  0  0  0  0999 V2000
   61.1460   33.4400   50.9100 C   0  0  0  0  0  0  0  0  0  0  0  0
   61.8150   33.3390   49.5730 C   0  0  0  0  0  0  0  0  0  0  0  0
   63.1070   32.8100   49.4660 C   0  0  0  0  0  0  0  0  0  0  0  0
   63.7200   32.7090   48.2180 C   0  0  0  0  0  0  0  0  0  0  0  0
   63.0480   33.1350   47.0740 C   0  0  0  0  0  0  0  0  0  0  0  0
   61.7610   33.6750   47.1610 C   0  0  0  0  0  0  0  0  0  0  0  0
   61.0380   34.1160   46.0050 N   0  0  0  0  0  0  0  0  0  0  0  0
   59.3200   34.3440   45.9400 S   0  0  0  0  0  0  0  0  0  0  0  0
   58.8430   34.8840   47.2600 O   0  0  0  0  0  0  0  0  0  0  0  0
   59.0040   35.3580   44.8760 O   0  0  0  0  0  0  0  0  0  0  0  0
   58.4980   32.8330   45.5500 C   0  0  0  0  0  0  0  0  0  0  0  0
   58.3770   31.8350   46.5250 C   0  0  0  0  0  0  0  0  0  0  0  0
   57.7740   30.6130   46.2090 C   0  0  0  0  0  0  0  0  0  0  0  0
   57.2880   30.3700   44.9180 C   0  0  0  0  0  0  0  0  0  0  0  0
   56.7300   29.1090   44.6430 O   0  0  0  0  0  0  0  0  0  0  0  0
   57.3770   27.8500   44.8520 C   0  0  0  0  0  0  0  0  0  0  0  0
   56.7630   27.1290   46.0090 C   0  0  0  0  0  0  0  0  0  0  0  0
   55.5250   26.8780   46.0060 O   0  0  0  0  0  0  0  0  0  0  0  0
   57.5780   26.7660   47.1320 N   0  0  0  0  0  0  0  0  0  0  0  0
   59.0240   26.6000   47.0710 C   0  0  0  0  0  0  0  0  0  0  0  0
   59.7200   27.9140   47.2750 C   0  0  0  0  0  0  0  0  0  0  0  0
   60.3800   28.5420   46.2090 C   0  0  0  0  0  0  0  0  0  0  0  0
   61.0110   29.7710   46.4220 C   0  0  0  0  0  0  0  0  0  0  0  0
   60.9840   30.3540   47.6900 C   0  0  0  0  0  0  0  0  0  0  0  0
   60.3210   29.6960   48.7280 C   0  0  0  0  0  0  0  0  0  0  0  0
   59.7100   28.5040   48.5020 N   0  0  0  0  0  0  0  0  0  0  0  0
   57.3770   31.3890   43.9500 C   0  0  0  0  0  0  0  0  0  0  0  0
   57.9890   32.6080   44.2630 C   0  0  0  0  0  0  0  0  0  0  0  0
   61.1600   33.7920   48.4160 C   0  0  0  0  0  0  0  0  0  0  0  0
   61.8973   33.3266   51.7054 H   0  0  0  0  0  0  0  0  0  0  0  0
   60.6589   34.4219   51.0030 H   0  0  0  0  0  0  0  0  0  0  0  0
   60.3907   32.6457   51.0030 H   0  0  0  0  0  0  0  0  0  0  0  0
   63.6391   32.4736   50.3680 H   0  0  0  0  0  0  0  0  0  0  0  0
   64.7349   32.2927   48.1363 H   0  0  0  0  0  0  0  0  0  0  0  0
   63.5352   33.0455   46.0918 H   0  0  0  0  0  0  0  0  0  0  0  0
   58.7571   32.0125   47.5419 H   0  0  0  0  0  0  0  0  0  0  0  0
   57.6806   29.8356   46.9816 H   0  0  0  0  0  0  0  0  0  0  0  0
   57.2725   27.2350   43.9460 H   0  0  0  0  0  0  0  0  0  0  0  0
   58.4403   28.0292   45.0694 H   0  0  0  0  0  0  0  0  0  0  0  0
   59.3400   25.8985   47.8572 H   0  0  0  0  0  0  0  0  0  0  0  0
   59.2926   26.2089   46.0786 H   0  0  0  0  0  0  0  0  0  0  0  0
   60.4010   28.0720   45.2147 H   0  0  0  0  0  0  0  0  0  0  0  0
   61.5272   30.2771   45.5929 H   0  0  0  0  0  0  0  0  0  0  0  0
   61.4789   31.3199   47.8694 H   0  0  0  0  0  0  0  0  0  0  0  0
   60.2934   30.1444   49.7321 H   0  0  0  0  0  0  0  0  0  0  0  0
   56.9637   31.2261   42.9437 H   0  0  0  0  0  0  0  0  0  0  0  0
   58.0710   33.3926   43.4964 H   0  0  0  0  0  0  0  0  0  0  0  0
   60.1609   34.2447   48.4996 H   0  0  0  0  0  0  0  0  0  0  0  0
  1  2  1  0
  2  3  2  0
  3  4  1  0
  4  5  2  0
  5  6  1  0
  6  7  1  0
  7  8  1  0
  8  9  2  0
  8 10  2  0
  8 11  1  0
 11 12  2  0
 12 13  1  0
 13 14  2  0
 14 15  1  0
 15 16  1  0
 16 17  1  0
 17 18  2  0
 17 19  1  0
 19 20  1  0
 20 21  1  0
 21 22  2  0
 22 23  1  0
 23 24  2  0
 24 25  1  0
 25 26  2  0
 14 27  1  0
 27 28  2  0
  6 29  2  0
 29  2  1  0
 28 11  1  0
 26 21  1  0
  1 30  1  0
  1 31  1  0
  1 32  1  0
  3 33  1  0
  4 34  1  0
  5 35  1  0
 12 36  1  0
 13 37  1  0
 16 38  1  0
 16 39  1  0
 20 40  1  0
 20 41  1  0
 22 42  1  0
 23 43  1  0
 24 44  1  0
 25 45  1  0
 27 46  1  0
 28 47  1  0
 29 48  1  0
M  CHG  2   7  -1  19  -1
M  END
>  <UniqueID>  (77) 
73

>  <SMILES>  (77) 
Cc1cccc([N-]S(=O)(=O)c2ccc(OCC(=O)[N-]Cc3ccccn3)cc2)c1

>  <Energy>  (77) 
51.68116284652154

>  <Genealogy>  (77) 
Cc1cccc([N-]S(=O)(=O)c2ccc(OCC(=O)[N-]Cc3ccccn3)cc2)c1 (protonated)
Cc1cccc([N-]S(=O)(=O)c2ccc(OCC(=O)[N-]Cc3ccccn3)cc2)c1 (3D coordinates assigned)
Cc1cccc([N-]S(=O)(=O)c2ccc(OCC(=O)[N-]Cc3ccccn3)cc2)c1 (optimized conformer: 51.68116284652154 kcal/mol)

>  <smiles>  (77) 
Cc1cccc(NS(=O)(=O)c2ccc(OCC(=O)NCc3ccccn3)cc2)c1

>  <score_type>  (77) 
oracle

>  <origin>  (77) 
adg

>  <m_score__min__energy>  (77) 
-11.17

>  <m_primary>  (77) 
energy

$$$$
77:0
     RDKit          3D

 33 34  0  0  0  0  0  0  0  0999 V2000
   55.1470   27.4780   45.3730 H   0  0  0  0  0  0  0  0  0  0  0  0
   55.0500   26.6900   46.0010 O   0  0  0  0  0  0  0  0  0  0  0  0
   56.0790   25.7650   46.1460 C   0  0  0  0  0  0  0  0  0  0  0  0
   55.9480   24.6710   46.9430 N   0  0  0  0  0  0  0  0  0  0  0  0
   57.0640   23.9150   46.9180 C   0  0  0  0  0  0  0  0  0  0  0  0
   57.1860   22.8480   47.5740 O   0  0  0  0  0  0  0  0  0  0  0  0
   58.2490   24.5540   45.9170 S   0  0  0  0  0  0  0  0  0  0  0  0
   57.3060   25.8910   45.4910 C   0  0  0  0  0  0  0  0  0  0  0  0
   57.6340   26.9700   44.5270 C   0  0  0  0  0  0  0  0  0  0  0  0
   57.5884   26.7118   43.4587 H   0  0  0  0  0  0  0  0  0  0  0  0
   57.9830   28.2380   44.8330 C   0  0  0  0  0  0  0  0  0  0  0  0
   59.3600   28.6780   44.8190 C   0  0  0  0  0  0  0  0  0  0  0  0
   60.4630   29.0280   44.8180 N   0  0  0  0  0  0  0  0  0  0  0  0
   56.9560   29.2230   45.2480 C   0  0  0  0  0  0  0  0  0  0  0  0
   55.7510   29.0700   44.9050 O   0  0  0  0  0  0  0  0  0  0  0  0
   57.3480   30.3830   45.9970 N   0  0  0  0  0  0  0  0  0  0  0  0
   57.8830   31.6070   45.4670 C   0  0  0  0  0  0  0  0  0  0  0  0
   57.7930   31.8930   44.0940 C   0  0  0  0  0  0  0  0  0  0  0  0
   57.3379   31.1588   43.4129 H   0  0  0  0  0  0  0  0  0  0  0  0
   58.2750   33.0980   43.5880 C   0  0  0  0  0  0  0  0  0  0  0  0
   58.2206   33.3003   42.5081 H   0  0  0  0  0  0  0  0  0  0  0  0
   58.8260   34.0480   44.4460 C   0  0  0  0  0  0  0  0  0  0  0  0
   59.2100   34.9944   44.0376 H   0  0  0  0  0  0  0  0  0  0  0  0
   58.8950   33.8070   45.8270 C   0  0  0  0  0  0  0  0  0  0  0  0
   59.4780   34.8720   46.7220 C   0  0  0  0  0  0  0  0  0  0  0  0
   59.3242   34.5911   47.7744 H   0  0  0  0  0  0  0  0  0  0  0  0
   60.5553   34.9695   46.5222 H   0  0  0  0  0  0  0  0  0  0  0  0
   58.9796   35.8321   46.5222 H   0  0  0  0  0  0  0  0  0  0  0  0
   58.4420   32.5660   46.3460 C   0  0  0  0  0  0  0  0  0  0  0  0
   58.5040   32.2880   47.8310 C   0  0  0  0  0  0  0  0  0  0  0  0
   58.2973   33.2147   48.3865 H   0  0  0  0  0  0  0  0  0  0  0  0
   57.7533   31.5280   48.0934 H   0  0  0  0  0  0  0  0  0  0  0  0
   59.5065   31.9190   48.0934 H   0  0  0  0  0  0  0  0  0  0  0  0
  1  2  1  0
  2  3  1  0
  3  4  1  0
  4  5  1  0
  5  6  2  0
  5  7  1  0
  7  8  1  0
  8  9  1  0
  9 10  1  0
  9 11  2  0
 11 12  1  0
 12 13  3  0
 11 14  1  0
 14 15  2  0
 14 16  1  0
 16 17  1  0
 17 18  2  0
 18 19  1  0
 18 20  1  0
 20 21  1  0
 20 22  2  0
 22 23  1  0
 22 24  1  0
 24 25  1  0
 25 26  1  0
 25 27  1  0
 25 28  1  0
 24 29  2  0
 29 30  1  0
 30 31  1  0
 30 32  1  0
 30 33  1  0
  8  3  2  0
 29 17  1  0
M  CHG  2   4  -1  16  -1
M  END
>  <UniqueID>  (78) 
74

>  <SMILES>  (78) 
Cc1cccc([N-]C(=O)/C(C#N)=C/c2sc(=O)[n-]c2O)c1C

>  <Energy>  (78) 
72.7708532633868

>  <Genealogy>  (78) 
Cc1cccc([N-]C(=O)C(C#N)=Cc2sc(=O)[n-]c2O)c1C (protonated)
Cc1cccc([N-]C(=O)/C(C#N)=C/c2sc(=O)[n-]c2O)c1C (cis-trans isomerization)
Cc1cccc([N-]C(=O)/C(C#N)=C/c2sc(=O)[n-]c2O)c1C (3D coordinates assigned)
Cc1cccc([N-]C(=O)/C(C#N)=C/c2sc(=O)[n-]c2O)c1C (optimized conformer: 72.7708532633868 kcal/mol)

>  <smiles>  (78) 
Cc1cccc(NC(=O)C(C#N)=Cc2sc(=O)[nH]c2O)c1C

>  <score_type>  (78) 
oracle

>  <origin>  (78) 
adg

>  <m_score__min__energy>  (78) 
-12.83

>  <m_primary>  (78) 
energy

$$$$
78:0
     RDKit          3D

 56 59  0  0  0  0  0  0  0  0999 V2000
   56.7320   33.4680   47.0050 N   0  0  0  0  0  0  0  0  0  0  0  0
   57.8310   32.9370   45.7800 S   0  0  0  0  0  0  0  0  0  0  0  0
   57.7340   33.8770   44.6100 O   0  0  0  0  0  0  0  0  0  0  0  0
   57.4570   31.5550   45.3290 O   0  0  0  0  0  0  0  0  0  0  0  0
   59.4860   32.9230   46.4120 C   0  0  0  0  0  0  0  0  0  0  0  0
   60.1200   34.1480   46.6800 C   0  0  0  0  0  0  0  0  0  0  0  0
   61.4160   34.1780   47.1950 C   0  0  0  0  0  0  0  0  0  0  0  0
   62.0980   32.9880   47.4460 C   0  0  0  0  0  0  0  0  0  0  0  0
   61.4840   31.7630   47.1840 C   0  0  0  0  0  0  0  0  0  0  0  0
   60.1870   31.7140   46.6600 C   0  0  0  0  0  0  0  0  0  0  0  0
   59.5850   30.3930   46.3950 C   0  0  0  0  0  0  0  0  0  0  0  0
   58.7710   29.7760   47.3550 C   0  0  0  0  0  0  0  0  0  0  0  0
   58.1980   28.5290   47.0960 C   0  0  0  0  0  0  0  0  0  0  0  0
   58.4150   27.8830   45.8650 C   0  0  0  0  0  0  0  0  0  0  0  0
   57.8170   26.5970   45.5980 N   0  0  0  0  0  0  0  0  0  0  0  0
   57.6290   26.0320   44.2690 C   0  0  0  0  0  0  0  0  0  0  0  0
   56.9430   24.6670   44.4720 C   0  0  0  0  0  0  0  0  0  0  0  0
   56.5390   24.5700   45.9530 C   0  0  2  0  0  0  0  0  0  0  0  0
   55.0890   24.7370   46.0800 N   0  0  0  0  0  0  0  0  0  0  0  0
   54.2600   23.2100   45.9980 S   0  0  0  0  0  0  0  0  0  0  0  0
   53.0510   23.2430   46.8910 O   0  0  0  0  0  0  0  0  0  0  0  0
   53.8030   22.9770   44.5870 O   0  0  0  0  0  0  0  0  0  0  0  0
   55.3400   21.8920   46.4690 C   0  0  0  0  0  0  0  0  0  0  0  0
   55.4990   21.5700   47.8250 C   0  0  0  0  0  0  0  0  0  0  0  0
   56.3680   20.5460   48.2070 C   0  0  0  0  0  0  0  0  0  0  0  0
   57.0770   19.8330   47.2420 C   0  0  0  0  0  0  0  0  0  0  0  0
   56.9270   20.1450   45.8910 C   0  0  0  0  0  0  0  0  0  0  0  0
   56.0610   21.1830   45.4890 C   0  0  0  0  0  0  0  0  0  0  0  0
   55.8940   21.5410   44.1390 O   0  0  0  0  0  0  0  0  0  0  0  0
   56.9360   21.6230   43.1650 C   0  0  0  0  0  0  0  0  0  0  0  0
   58.1370   21.9380   43.7760 F   0  0  0  0  0  0  0  0  0  0  0  0
   56.6260   22.6220   42.2570 F   0  0  0  0  0  0  0  0  0  0  0  0
   57.0430   20.4200   42.4830 F   0  0  0  0  0  0  0  0  0  0  0  0
   57.2450   25.7220   46.5580 C   0  0  0  0  0  0  0  0  0  0  0  0
   57.3900   25.8730   47.8010 O   0  0  0  0  0  0  0  0  0  0  0  0
   59.2380   28.5080   44.9080 C   0  0  0  0  0  0  0  0  0  0  0  0
   59.8090   29.7560   45.1680 C   0  0  0  0  0  0  0  0  0  0  0  0
   55.8920   33.8470   46.5160 H   0  0  0  0  0  0  0  0  0  0  0  0
   57.1850   34.2730   47.4930 H   0  0  0  0  0  0  0  0  0  0  0  0
   59.5898   35.0913   46.4820 H   0  0  0  0  0  0  0  0  0  0  0  0
   61.9012   35.1429   47.4036 H   0  0  0  0  0  0  0  0  0  0  0  0
   63.1205   33.0151   47.8507 H   0  0  0  0  0  0  0  0  0  0  0  0
   62.0240   30.8273   47.3911 H   0  0  0  0  0  0  0  0  0  0  0  0
   58.5827   30.2761   48.3165 H   0  0  0  0  0  0  0  0  0  0  0  0
   57.5714   28.0475   47.8612 H   0  0  0  0  0  0  0  0  0  0  0  0
   56.9921   26.6917   43.6614 H   0  0  0  0  0  0  0  0  0  0  0  0
   58.5882   25.9228   43.7418 H   0  0  0  0  0  0  0  0  0  0  0  0
   56.0501   24.5965   43.8335 H   0  0  0  0  0  0  0  0  0  0  0  0
   57.6237   23.8465   44.2009 H   0  0  0  0  0  0  0  0  0  0  0  0
   56.7909   23.6082   46.4237 H   0  0  0  0  0  0  0  0  0  0  0  0
   54.9372   22.1261   48.5900 H   0  0  0  0  0  0  0  0  0  0  0  0
   56.4933   20.3015   49.2721 H   0  0  0  0  0  0  0  0  0  0  0  0
   57.7560   19.0229   47.5464 H   0  0  0  0  0  0  0  0  0  0  0  0
   57.4880   19.5776   45.1338 H   0  0  0  0  0  0  0  0  0  0  0  0
   59.4328   28.0089   43.9473 H   0  0  0  0  0  0  0  0  0  0  0  0
   60.4371   30.2405   44.4059 H   0  0  0  0  0  0  0  0  0  0  0  0
  1  2  1  0
  2  3  2  0
  2  4  2  0
  2  5  1  0
  5  6  2  0
  6  7  1  0
  7  8  2  0
  8  9  1  0
  9 10  2  0
 10 11  1  0
 11 12  2  0
 12 13  1  0
 13 14  2  0
 14 15  1  0
 15 16  1  0
 16 17  1  0
 17 18  1  0
 18 19  1  0
 19 20  1  0
 20 21  2  0
 20 22  2  0
 20 23  1  0
 23 24  2  0
 24 25  1  0
 25 26  2  0
 26 27  1  0
 27 28  2  0
 28 29  1  0
 29 30  1  0
 30 31  1  0
 30 32  1  0
 30 33  1  0
 18 34  1  0
 34 35  2  0
 14 36  1  0
 36 37  2  0
 10  5  1  0
 37 11  1  0
 34 15  1  0
 28 23  1  0
  1 38  1  0
  1 39  1  0
  6 40  1  0
  7 41  1  0
  8 42  1  0
  9 43  1  0
 12 44  1  0
 13 45  1  0
 16 46  1  0
 16 47  1  0
 17 48  1  0
 17 49  1  0
 18 50  1  1
 24 51  1  0
 25 52  1  0
 26 53  1  0
 27 54  1  0
 36 55  1  0
 37 56  1  0
M  CHG  1  19  -1
M  END
>  <UniqueID>  (79) 
75

>  <SMILES>  (79) 
NS(=O)(=O)c1ccccc1-c1ccc(N2CC[C@H]([N-]S(=O)(=O)c3ccccc3OC(F)(F)F)C2=O)cc1

>  <Energy>  (79) 
78.50850806707749

>  <Genealogy>  (79) 
NS(=O)(=O)c1ccccc1-c1ccc(N2CCC([N-]S(=O)(=O)c3ccccc3OC(F)(F)F)C2=O)cc1 (protonated)
NS(=O)(=O)c1ccccc1-c1ccc(N2CC[C@H]([N-]S(=O)(=O)c3ccccc3OC(F)(F)F)C2=O)cc1 (chirality)
NS(=O)(=O)c1ccccc1-c1ccc(N2CC[C@H]([N-]S(=O)(=O)c3ccccc3OC(F)(F)F)C2=O)cc1 (3D coordinates assigned)
NS(=O)(=O)c1ccccc1-c1ccc(N2CC[C@H]([N-]S(=O)(=O)c3ccccc3OC(F)(F)F)C2=O)cc1 (nonaromatic ring conformer: 78.50850806707749 kcal/mol)

>  <smiles>  (79) 
NS(=O)(=O)c1ccccc1-c1ccc(N2CCC(NS(=O)(=O)c3ccccc3OC(F)(F)F)C2=O)cc1

>  <score_type>  (79) 
oracle

>  <origin>  (79) 
adg

>  <m_score__min__energy>  (79) 
-11

>  <m_primary>  (79) 
energy

$$$$
79:0
     RDKit          3D

 48 51  0  0  0  0  0  0  0  0999 V2000
   59.3900   36.0013   47.2355 H   0  0  0  0  0  0  0  0  0  0  0  0
   59.5390   34.9300   47.4360 C   0  0  0  0  0  0  0  0  0  0  0  0
   60.3820   34.5950   48.4260 C   0  0  0  0  0  0  0  0  0  0  0  0
   60.1277   34.9199   49.4457 H   0  0  0  0  0  0  0  0  0  0  0  0
   61.6300   33.8190   48.2420 C   0  0  0  0  0  0  0  0  0  0  0  0
   62.2160   33.8190   46.9690 C   0  0  0  0  0  0  0  0  0  0  0  0
   61.7228   34.3421   46.1364 H   0  0  0  0  0  0  0  0  0  0  0  0
   63.4240   33.1560   46.7580 C   0  0  0  0  0  0  0  0  0  0  0  0
   63.8886   33.1678   45.7610 H   0  0  0  0  0  0  0  0  0  0  0  0
   64.0290   32.4960   47.7780 N   0  0  0  0  0  0  0  0  0  0  0  0
   63.4820   32.4410   49.0210 C   0  0  0  0  0  0  0  0  0  0  0  0
   64.1390   31.7330   50.0340 C   0  0  0  0  0  0  0  0  0  0  0  0
   65.1038   31.2470   49.8266 H   0  0  0  0  0  0  0  0  0  0  0  0
   63.5730   31.6420   51.3070 C   0  0  0  0  0  0  0  0  0  0  0  0
   64.0972   31.0925   52.1028 H   0  0  0  0  0  0  0  0  0  0  0  0
   62.3430   32.2470   51.5720 C   0  0  0  0  0  0  0  0  0  0  0  0
   61.8965   32.1643   52.5739 H   0  0  0  0  0  0  0  0  0  0  0  0
   61.6770   32.9570   50.5700 C   0  0  0  0  0  0  0  0  0  0  0  0
   60.7015   33.4183   50.7832 H   0  0  0  0  0  0  0  0  0  0  0  0
   62.2480   33.0860   49.2860 C   0  0  0  0  0  0  0  0  0  0  0  0
   58.7950   33.9660   46.5940 C   0  0  0  0  0  0  0  0  0  0  0  0
   58.4880   32.7030   47.1160 C   0  0  0  0  0  0  0  0  0  0  0  0
   58.8099   32.4396   48.1343 H   0  0  0  0  0  0  0  0  0  0  0  0
   57.7750   31.7750   46.3510 C   0  0  0  0  0  0  0  0  0  0  0  0
   57.5149   30.7968   46.7818 H   0  0  0  0  0  0  0  0  0  0  0  0
   57.3900   32.0820   45.0410 C   0  0  0  0  0  0  0  0  0  0  0  0
   56.6370   31.1090   44.3050 N   0  0  0  0  0  0  0  0  0  0  0  0
   56.4640   29.7210   44.6240 C   0  0  0  0  0  0  0  0  0  0  0  0
   55.4170   29.3230   45.2000 O   0  0  0  0  0  0  0  0  0  0  0  0
   57.5120   28.7330   44.2980 C   0  0  0  0  0  0  0  0  0  0  0  0
   57.1931   27.8101   43.7915 H   0  0  0  0  0  0  0  0  0  0  0  0
   58.8210   28.8650   44.5670 C   0  0  0  0  0  0  0  0  0  0  0  0
   59.5233   28.7507   43.7281 H   0  0  0  0  0  0  0  0  0  0  0  0
   59.3940   29.1510   45.8970 C   0  0  0  0  0  0  0  0  0  0  0  0
   58.8150   28.6260   47.0670 C   0  0  0  0  0  0  0  0  0  0  0  0
   57.9319   27.9740   46.9964 H   0  0  0  0  0  0  0  0  0  0  0  0
   59.3580   28.9300   48.3190 C   0  0  0  0  0  0  0  0  0  0  0  0
   58.9132   28.5019   49.2294 H   0  0  0  0  0  0  0  0  0  0  0  0
   60.4650   29.7770   48.4150 C   0  0  0  0  0  0  0  0  0  0  0  0
   60.8959   30.0095   49.4000 H   0  0  0  0  0  0  0  0  0  0  0  0
   61.0250   30.3290   47.2590 C   0  0  0  0  0  0  0  0  0  0  0  0
   61.8911   31.0028   47.3362 H   0  0  0  0  0  0  0  0  0  0  0  0
   60.4860   30.0260   46.0050 C   0  0  0  0  0  0  0  0  0  0  0  0
   60.9196   30.4752   45.0994 H   0  0  0  0  0  0  0  0  0  0  0  0
   57.7040   33.3450   44.5100 C   0  0  0  0  0  0  0  0  0  0  0  0
   57.3882   33.6040   43.4886 H   0  0  0  0  0  0  0  0  0  0  0  0
   58.4160   34.2730   45.2750 C   0  0  0  0  0  0  0  0  0  0  0  0
   58.6815   35.2491   44.8429 H   0  0  0  0  0  0  0  0  0  0  0  0
  1  2  1  0
  2  3  2  3
  3  4  1  0
  3  5  1  0
  5  6  2  0
  6  7  1  0
  6  8  1  0
  8  9  1  0
  8 10  2  0
 10 11  1  0
 11 12  2  0
 12 13  1  0
 12 14  1  0
 14 15  1  0
 14 16  2  0
 16 17  1  0
 16 18  1  0
 18 19  1  0
 18 20  2  0
  2 21  1  0
 21 22  2  0
 22 23  1  0
 22 24  1  0
 24 25  1  0
 24 26  2  0
 26 27  1  0
 27 28  1  0
 28 29  2  0
 28 30  1  0
 30 31  1  0
 30 32  2  0
 32 33  1  0
 32 34  1  0
 34 35  2  0
 35 36  1  0
 35 37  1  0
 37 38  1  0
 37 39  2  0
 39 40  1  0
 39 41  1  0
 41 42  1  0
 41 43  2  0
 43 44  1  0
 26 45  1  0
 45 46  1  0
 45 47  2  0
 47 48  1  0
 20  5  1  0
 47 21  1  0
 20 11  1  0
 43 34  1  0
M  CHG  1  27  -1
M  END
>  <UniqueID>  (80) 
76

>  <SMILES>  (80) 
O=C(/C=C\c1ccccc1)[N-]c1ccc(C=Cc2ccnc3ccccc23)cc1

>  <Energy>  (80) 
78.52395178407131

>  <Genealogy>  (80) 
O=C(C=Cc1ccccc1)[N-]c1ccc(C=Cc2ccnc3ccccc23)cc1 (protonated)
O=C(/C=C\c1ccccc1)[N-]c1ccc(C=Cc2ccnc3ccccc23)cc1 (cis-trans isomerization)
O=C(/C=C\c1ccccc1)[N-]c1ccc(C=Cc2ccnc3ccccc23)cc1 (3D coordinates assigned)
O=C(/C=C\c1ccccc1)[N-]c1ccc(C=Cc2ccnc3ccccc23)cc1 (optimized conformer: 78.52395178407131 kcal/mol)

>  <smiles>  (80) 
O=C(C=Cc1ccccc1)Nc1ccc(C=Cc2ccnc3ccccc23)cc1

>  <score_type>  (80) 
oracle

>  <origin>  (80) 
adg

>  <m_score__min__energy>  (80) 
-11.890000000000001

>  <m_primary>  (80) 
energy

$$$$
80:0
     RDKit          3D

 49 52  0  0  0  0  0  0  0  0999 V2000
   61.1380   30.8500   46.7390 C   0  0  0  0  0  0  0  0  0  0  0  0
   60.2380   31.8170   46.4950 C   0  0  0  0  0  0  0  0  0  0  0  0
   60.4820   33.1980   46.4110 C   0  0  0  0  0  0  0  0  0  0  0  0
   61.5670   33.9260   46.7380 C   0  0  0  0  0  0  0  0  0  0  0  0
   62.3140   33.8300   48.0000 C   0  0  0  0  0  0  0  0  0  0  0  0
   61.9960   34.5340   49.1100 N   0  0  0  0  0  0  0  0  0  0  0  0
   62.8680   34.0810   50.0380 C   0  0  0  0  0  0  0  0  0  0  0  0
   62.9040   34.5190   51.2180 O   0  0  0  0  0  0  0  0  0  0  0  0
   63.6770   33.1080   49.5810 N   0  0  0  0  0  0  0  0  0  0  0  0
   64.7090   32.4750   50.2960 N   0  0  0  0  0  0  0  0  0  0  0  0
   65.9220   33.1510   50.6690 C   0  0  0  0  0  0  0  0  0  0  0  0
   65.8760   34.1790   51.6220 C   0  0  0  0  0  0  0  0  0  0  0  0
   67.0480   34.8370   52.0090 C   0  0  0  0  0  0  0  0  0  0  0  0
   68.2750   34.4670   51.4540 C   0  0  0  0  0  0  0  0  0  0  0  0
   68.3340   33.4320   50.5160 C   0  0  0  0  0  0  0  0  0  0  0  0
   67.1650   32.7710   50.1270 C   0  0  0  0  0  0  0  0  0  0  0  0
   63.3400   32.9490   48.2900 C   0  0  0  0  0  0  0  0  0  0  0  0
   63.9390   32.0640   47.3960 O   0  0  0  0  0  0  0  0  0  0  0  0
   59.3240   33.7650   45.9020 C   0  0  0  0  0  0  0  0  0  0  0  0
   58.4050   32.7450   45.7650 C   0  0  0  0  0  0  0  0  0  0  0  0
   57.0050   32.9250   45.2630 C   0  0  0  0  0  0  0  0  0  0  0  0
   58.9570   31.5630   46.1230 N   0  0  0  0  0  0  0  0  0  0  0  0
   58.3010   30.2830   46.0840 C   0  0  0  0  0  0  0  0  0  0  0  0
   58.5370   29.3350   47.0880 C   0  0  0  0  0  0  0  0  0  0  0  0
   57.9030   28.0880   47.0450 C   0  0  0  0  0  0  0  0  0  0  0  0
   57.0230   27.7730   45.9950 C   0  0  0  0  0  0  0  0  0  0  0  0
   56.3540   26.4550   45.9530 C   0  0  0  0  0  0  0  0  0  0  0  0
   57.0310   25.3940   45.8730 O   0  0  0  0  0  0  0  0  0  0  0  0
   54.9680   26.3660   46.0000 O   0  0  0  0  0  0  0  0  0  0  0  0
   56.7890   28.7290   44.9900 C   0  0  0  0  0  0  0  0  0  0  0  0
   57.4240   29.9730   45.0350 C   0  0  0  0  0  0  0  0  0  0  0  0
   60.8180   29.7984   46.7798 H   0  0  0  0  0  0  0  0  0  0  0  0
   62.1950   31.1098   46.8980 H   0  0  0  0  0  0  0  0  0  0  0  0
   61.9249   34.6554   45.9964 H   0  0  0  0  0  0  0  0  0  0  0  0
   64.6410   31.4460   50.4640 H   0  0  0  0  0  0  0  0  0  0  0  0
   64.9130   34.4693   52.0675 H   0  0  0  0  0  0  0  0  0  0  0  0
   67.0032   35.6472   52.7517 H   0  0  0  0  0  0  0  0  0  0  0  0
   69.1949   34.9898   51.7548 H   0  0  0  0  0  0  0  0  0  0  0  0
   69.3015   33.1373   50.0834 H   0  0  0  0  0  0  0  0  0  0  0  0
   67.2164   31.9514   49.3951 H   0  0  0  0  0  0  0  0  0  0  0  0
   64.8790   32.2110   47.0510 H   0  0  0  0  0  0  0  0  0  0  0  0
   59.1676   34.8254   45.6546 H   0  0  0  0  0  0  0  0  0  0  0  0
   56.3177   33.0134   46.1173 H   0  0  0  0  0  0  0  0  0  0  0  0
   56.9492   33.8377   44.6516 H   0  0  0  0  0  0  0  0  0  0  0  0
   56.7202   32.0561   44.6516 H   0  0  0  0  0  0  0  0  0  0  0  0
   59.2238   29.5718   47.9140 H   0  0  0  0  0  0  0  0  0  0  0  0
   58.0945   27.3498   47.8377 H   0  0  0  0  0  0  0  0  0  0  0  0
   56.1017   28.4959   44.1634 H   0  0  0  0  0  0  0  0  0  0  0  0
   57.2348   30.7128   44.2433 H   0  0  0  0  0  0  0  0  0  0  0  0
  1  2  2  0
  2  3  1  0
  3  4  2  3
  4  5  1  0
  5  6  1  0
  6  7  1  0
  7  8  2  0
  7  9  1  0
  9 10  1  0
 10 11  1  0
 11 12  2  0
 12 13  1  0
 13 14  2  0
 14 15  1  0
 15 16  2  0
  9 17  1  0
 17 18  1  0
  3 19  1  0
 19 20  2  0
 20 21  1  0
 20 22  1  0
 22 23  1  0
 23 24  2  0
 24 25  1  0
 25 26  2  0
 26 27  1  0
 27 28  2  0
 27 29  1  0
 26 30  1  0
 30 31  2  0
 22  2  1  0
 31 23  1  0
 17  5  2  0
 16 11  1  0
  1 32  1  0
  1 33  1  0
  4 34  1  0
 10 35  1  0
 12 36  1  0
 13 37  1  0
 14 38  1  0
 15 39  1  0
 16 40  1  0
 18 41  1  0
 19 42  1  0
 21 43  1  0
 21 44  1  0
 21 45  1  0
 24 46  1  0
 25 47  1  0
 30 48  1  0
 31 49  1  0
M  CHG  2   6  -1  29  -1
M  END
>  <UniqueID>  (81) 
77

>  <SMILES>  (81) 
C=c1c(=Cc2[n-]c(=O)n(Nc3ccccc3)c2O)cc(C)n1-c1ccc(C(=O)[O-])cc1

>  <Energy>  (81) 
138.67560209411914

>  <Genealogy>  (81) 
C=c1c(=Cc2[n-]c(=O)n(Nc3ccccc3)c2O)cc(C)n1-c1ccc(C(=O)[O-])cc1 (protonated)
C=c1c(=Cc2[n-]c(=O)n(Nc3ccccc3)c2O)cc(C)n1-c1ccc(C(=O)[O-])cc1 (3D coordinates assigned)
C=c1c(=Cc2[n-]c(=O)n(Nc3ccccc3)c2O)cc(C)n1-c1ccc(C(=O)[O-])cc1 (optimized conformer: 138.67560209411914 kcal/mol)

>  <smiles>  (81) 
C=c1c(=Cc2[nH]c(=O)n(Nc3ccccc3)c2O)cc(C)n1-c1ccc(C(=O)O)cc1

>  <score_type>  (81) 
oracle

>  <origin>  (81) 
adg

>  <m_score__min__energy>  (81) 
-12.06

>  <m_primary>  (81) 
energy

$$$$
81:0
     RDKit          3D

 37 40  0  0  0  0  0  0  0  0999 V2000
   65.1830   32.9130   49.9210 F   0  0  0  0  0  0  0  0  0  0  0  0
   64.1140   32.5670   49.1620 C   0  0  0  0  0  0  0  0  0  0  0  0
   63.9470   33.1300   47.8940 C   0  0  0  0  0  0  0  0  0  0  0  0
   62.8450   32.7740   47.1090 C   0  0  0  0  0  0  0  0  0  0  0  0
   61.9020   31.8530   47.5930 C   0  0  0  0  0  0  0  0  0  0  0  0
   60.7370   31.4710   46.7610 C   0  0  0  0  0  0  0  0  0  0  0  0
   60.6240   30.1930   46.3770 C   0  0  0  0  0  0  0  0  0  0  0  0
   59.5090   29.7350   45.5290 C   0  0  0  0  0  0  0  0  0  0  0  0
   59.4090   28.3720   45.2090 C   0  0  0  0  0  0  0  0  0  0  0  0
   58.3540   27.9090   44.4230 C   0  0  0  0  0  0  0  0  0  0  0  0
   57.3890   28.7990   43.9580 C   0  0  0  0  0  0  0  0  0  0  0  0
   57.4790   30.1600   44.2670 C   0  0  0  0  0  0  0  0  0  0  0  0
   58.5520   30.6510   45.0450 C   0  0  0  0  0  0  0  0  0  0  0  0
   58.7130   32.0930   45.4100 C   0  0  0  0  0  0  0  0  0  0  0  0
   57.9400   33.0220   44.9040 N   0  0  0  0  0  0  0  0  0  0  0  0
   58.0860   34.4360   45.2470 C   0  0  0  0  0  0  0  0  0  0  0  0
   58.5180   34.5850   46.6980 C   0  0  0  0  0  0  0  0  0  0  0  0
   59.8230   33.8230   46.9040 C   0  0  0  0  0  0  0  0  0  0  0  0
   59.7450   32.4520   46.3670 N   0  0  0  0  0  0  0  0  0  0  0  0
   62.0820   31.2830   48.8640 C   0  0  0  0  0  0  0  0  0  0  0  0
   63.1850   31.6420   49.6460 C   0  0  0  0  0  0  0  0  0  0  0  0
   64.6825   33.8536   47.5128 H   0  0  0  0  0  0  0  0  0  0  0  0
   62.7170   33.2167   46.1102 H   0  0  0  0  0  0  0  0  0  0  0  0
   61.3829   29.4664   46.7029 H   0  0  0  0  0  0  0  0  0  0  0  0
   60.1663   27.6657   45.5799 H   0  0  0  0  0  0  0  0  0  0  0  0
   58.2841   26.8407   44.1703 H   0  0  0  0  0  0  0  0  0  0  0  0
   56.5530   28.4302   43.3455 H   0  0  0  0  0  0  0  0  0  0  0  0
   56.7081   30.8543   43.9014 H   0  0  0  0  0  0  0  0  0  0  0  0
   57.2100   32.8060   44.1950 H   0  0  0  0  0  0  0  0  0  0  0  0
   58.8449   34.8915   44.5938 H   0  0  0  0  0  0  0  0  0  0  0  0
   57.1181   34.9399   45.1081 H   0  0  0  0  0  0  0  0  0  0  0  0
   58.6708   35.6492   46.9307 H   0  0  0  0  0  0  0  0  0  0  0  0
   57.7404   34.1802   47.3625 H   0  0  0  0  0  0  0  0  0  0  0  0
   60.6344   34.3608   46.3918 H   0  0  0  0  0  0  0  0  0  0  0  0
   60.0145   33.7572   47.9852 H   0  0  0  0  0  0  0  0  0  0  0  0
   61.3537   30.5523   49.2456 H   0  0  0  0  0  0  0  0  0  0  0  0
   63.3211   31.1960   50.6423 H   0  0  0  0  0  0  0  0  0  0  0  0
  1  2  1  0
  2  3  2  0
  3  4  1  0
  4  5  2  0
  5  6  1  0
  6  7  2  0
  7  8  1  0
  8  9  2  0
  9 10  1  0
 10 11  2  0
 11 12  1  0
 12 13  2  0
 13 14  1  0
 14 15  2  0
 15 16  1  0
 16 17  1  0
 17 18  1  0
 18 19  1  0
  5 20  1  0
 20 21  2  0
 21  2  1  0
 19  6  1  0
 13  8  1  0
 19 14  1  0
  3 22  1  0
  4 23  1  0
  7 24  1  0
  9 25  1  0
 10 26  1  0
 11 27  1  0
 12 28  1  0
 15 29  1  0
 16 30  1  0
 16 31  1  0
 17 32  1  0
 17 33  1  0
 18 34  1  0
 18 35  1  0
 20 36  1  0
 21 37  1  0
M  CHG  1  15   1
M  END
>  <UniqueID>  (82) 
78

>  <SMILES>  (82) 
Fc1ccc(C2=Cc3ccccc3C3=[NH+]CCCN23)cc1

>  <Energy>  (82) 
52.172282567269

>  <Genealogy>  (82) 
Fc1ccc(C2=Cc3ccccc3C3=[NH+]CCCN23)cc1 (protonated)
Fc1ccc(C2=Cc3ccccc3C3=[NH+]CCCN23)cc1 (3D coordinates assigned)
Fc1ccc(C2=Cc3ccccc3C3=[NH+]CCCN23)cc1 (nonaromatic ring conformer: 52.172282567269 kcal/mol)

>  <smiles>  (82) 
Fc1ccc(C2=Cc3ccccc3C3=NCCCN23)cc1

>  <score_type>  (82) 
oracle

>  <origin>  (82) 
adg

>  <m_score__min__energy>  (82) 
-5.9500000000000002

>  <m_primary>  (82) 
energy

$$$$
82:0
     RDKit          3D

 51 54  0  0  0  0  0  0  0  0999 V2000
   59.4700   33.4690   50.5670 C   0  0  0  0  0  0  0  0  0  0  0  0
   59.6900   33.8720   49.2170 O   0  0  0  0  0  0  0  0  0  0  0  0
   60.9350   33.8410   48.5640 C   0  0  0  0  0  0  0  0  0  0  0  0
   62.1480   33.9330   49.2790 C   0  0  0  0  0  0  0  0  0  0  0  0
   63.3700   33.8520   48.6110 C   0  0  0  0  0  0  0  0  0  0  0  0
   63.4010   33.6880   47.2280 C   0  0  0  0  0  0  0  0  0  0  0  0
   62.2110   33.6090   46.5040 C   0  0  0  0  0  0  0  0  0  0  0  0
   60.9680   33.6860   47.1590 C   0  0  0  0  0  0  0  0  0  0  0  0
   59.7180   33.5710   46.3690 C   0  0  0  0  0  0  0  0  0  0  0  0
   59.0030   34.7130   45.9720 C   0  0  0  0  0  0  0  0  0  0  0  0
   57.8480   34.5900   45.2670 N   0  0  0  0  0  0  0  0  0  0  0  0
   57.3450   33.3750   44.9210 C   0  0  0  0  0  0  0  0  0  0  0  0
   58.0270   32.1980   45.2720 C   0  0  0  0  0  0  0  0  0  0  0  0
   57.5000   30.8710   44.8780 C   0  0  0  0  0  0  0  0  0  0  0  0
   56.2560   30.6700   44.8670 O   0  0  0  0  0  0  0  0  0  0  0  0
   58.4070   29.8070   44.5610 N   0  0  0  0  0  0  0  0  0  0  0  0
   58.3400   28.4410   45.0070 C   0  0  0  0  0  0  0  0  0  0  0  0
   57.7620   27.4300   44.2170 C   0  0  0  0  0  0  0  0  0  0  0  0
   57.7470   26.1050   44.6670 C   0  0  0  0  0  0  0  0  0  0  0  0
   58.3270   25.7690   45.8900 C   0  0  0  0  0  0  0  0  0  0  0  0
   58.9240   26.7590   46.6700 C   0  0  0  0  0  0  0  0  0  0  0  0
   58.9320   28.0950   46.2360 C   0  0  0  0  0  0  0  0  0  0  0  0
   59.5220   29.1020   47.0710 N   0  0  0  0  0  0  0  0  0  0  0  0
   58.8800   29.3970   48.3630 C   0  0  0  0  0  0  0  0  0  0  0  0
   59.6860   30.4150   49.1570 C   0  0  0  0  0  0  0  0  0  0  0  0
   61.0610   30.1080   49.0570 O   0  0  0  0  0  0  0  0  0  0  0  0
   61.5250   30.4660   47.7690 C   0  0  0  0  0  0  0  0  0  0  0  0
   60.7810   29.7250   46.6330 C   0  0  0  0  0  0  0  0  0  0  0  0
   59.2250   32.3090   45.9990 C   0  0  0  0  0  0  0  0  0  0  0  0
   59.8839   34.2272   51.2481 H   0  0  0  0  0  0  0  0  0  0  0  0
   58.3899   33.3648   50.7472 H   0  0  0  0  0  0  0  0  0  0  0  0
   59.9665   32.5041   50.7472 H   0  0  0  0  0  0  0  0  0  0  0  0
   62.1299   34.0695   50.3703 H   0  0  0  0  0  0  0  0  0  0  0  0
   64.3107   33.9177   49.1773 H   0  0  0  0  0  0  0  0  0  0  0  0
   64.3665   33.6206   46.7052 H   0  0  0  0  0  0  0  0  0  0  0  0
   62.2448   33.4854   45.4115 H   0  0  0  0  0  0  0  0  0  0  0  0
   59.3803   35.7127   46.2334 H   0  0  0  0  0  0  0  0  0  0  0  0
   56.3989   33.3133   44.3632 H   0  0  0  0  0  0  0  0  0  0  0  0
   57.3202   27.6823   43.2417 H   0  0  0  0  0  0  0  0  0  0  0  0
   57.2751   25.3241   44.0526 H   0  0  0  0  0  0  0  0  0  0  0  0
   58.3136   24.7258   46.2385 H   0  0  0  0  0  0  0  0  0  0  0  0
   59.3909   26.4924   47.6297 H   0  0  0  0  0  0  0  0  0  0  0  0
   57.8731   29.8003   48.1798 H   0  0  0  0  0  0  0  0  0  0  0  0
   58.8240   28.4655   48.9454 H   0  0  0  0  0  0  0  0  0  0  0  0
   59.5048   31.4219   48.7529 H   0  0  0  0  0  0  0  0  0  0  0  0
   59.3789   30.3829   50.2128 H   0  0  0  0  0  0  0  0  0  0  0  0
   61.3836   31.5484   47.6334 H   0  0  0  0  0  0  0  0  0  0  0  0
   62.5857   30.1808   47.7095 H   0  0  0  0  0  0  0  0  0  0  0  0
   60.5539   30.4474   45.8351 H   0  0  0  0  0  0  0  0  0  0  0  0
   61.4406   28.9165   46.2849 H   0  0  0  0  0  0  0  0  0  0  0  0
   59.7799   31.4017   46.2799 H   0  0  0  0  0  0  0  0  0  0  0  0
  1  2  1  0
  2  3  1  0
  3  4  2  0
  4  5  1  0
  5  6  2  0
  6  7  1  0
  7  8  2  0
  8  9  1  0
  9 10  2  0
 10 11  1  0
 11 12  2  0
 12 13  1  0
 13 14  1  0
 14 15  2  0
 14 16  1  0
 16 17  1  0
 17 18  2  0
 18 19  1  0
 19 20  2  0
 20 21  1  0
 21 22  2  0
 22 23  1  0
 23 24  1  0
 24 25  1  0
 25 26  1  0
 26 27  1  0
 27 28  1  0
 13 29  2  0
  8  3  1  0
 29  9  1  0
 22 17  1  0
 28 23  1  0
  1 30  1  0
  1 31  1  0
  1 32  1  0
  4 33  1  0
  5 34  1  0
  6 35  1  0
  7 36  1  0
 10 37  1  0
 12 38  1  0
 18 39  1  0
 19 40  1  0
 20 41  1  0
 21 42  1  0
 24 43  1  0
 24 44  1  0
 25 45  1  0
 25 46  1  0
 27 47  1  0
 27 48  1  0
 28 49  1  0
 28 50  1  0
 29 51  1  0
M  CHG  1  16  -1
M  END
>  <UniqueID>  (83) 
79

>  <SMILES>  (83) 
COc1ccccc1-c1cncc(C(=O)[N-]c2ccccc2N2CCOCC2)c1

>  <Energy>  (83) 
75.52397391954754

>  <Genealogy>  (83) 
COc1ccccc1-c1cncc(C(=O)[N-]c2ccccc2N2CCOCC2)c1 (protonated)
COc1ccccc1-c1cncc(C(=O)[N-]c2ccccc2N2CCOCC2)c1 (3D coordinates assigned)
COc1ccccc1-c1cncc(C(=O)[N-]c2ccccc2N2CCOCC2)c1 (nonaromatic ring conformer: 75.52397391954754 kcal/mol)

>  <smiles>  (83) 
COc1ccccc1-c1cncc(C(=O)Nc2ccccc2N2CCOCC2)c1

>  <score_type>  (83) 
oracle

>  <origin>  (83) 
adg

>  <m_score__min__energy>  (83) 
-10.56

>  <m_primary>  (83) 
energy

$$$$
83:0
     RDKit          3D

 50 52  0  0  0  0  0  0  0  0999 V2000
   59.6200   29.6940   48.4420 C   0  0  0  0  0  0  0  0  0  0  0  0
   59.8620   31.0740   47.9920 N   0  0  0  0  0  0  0  0  0  0  0  0
   60.9390   31.1260   46.9740 C   0  0  0  0  0  0  0  0  0  0  0  0
   62.0890   31.9320   47.5120 C   0  0  0  0  0  0  0  0  0  0  0  0
   62.6610   31.5970   48.7480 C   0  0  0  0  0  0  0  0  0  0  0  0
   63.6840   32.3910   49.2720 C   0  0  0  0  0  0  0  0  0  0  0  0
   64.1220   33.4790   48.5860 N   0  0  0  0  0  0  0  0  0  0  0  0
   63.5900   33.8230   47.3820 C   0  0  0  0  0  0  0  0  0  0  0  0
   62.5670   33.0550   46.8220 C   0  0  0  0  0  0  0  0  0  0  0  0
   58.6010   31.6830   47.5150 C   0  0  0  0  0  0  0  0  0  0  0  0
   58.8670   32.9330   46.6970 C   0  0  0  0  0  0  0  0  0  0  0  0
   59.4260   34.0520   47.3410 C   0  0  0  0  0  0  0  0  0  0  0  0
   59.6270   35.2470   46.6500 C   0  0  0  0  0  0  0  0  0  0  0  0
   59.2720   35.3450   45.3070 C   0  0  0  0  0  0  0  0  0  0  0  0
   58.7240   34.2450   44.6450 C   0  0  0  0  0  0  0  0  0  0  0  0
   58.5310   33.0260   45.3180 C   0  0  0  0  0  0  0  0  0  0  0  0
   57.9320   31.8990   44.5730 C   0  0  0  0  0  0  0  0  0  0  0  0
   57.9580   31.8840   43.3130 O   0  0  0  0  0  0  0  0  0  0  0  0
   57.2860   30.8420   45.2900 N   0  0  0  0  0  0  0  0  0  0  0  0
   57.7370   29.4810   45.3550 C   0  0  0  0  0  0  0  0  0  0  0  0
   59.0810   29.2010   45.0800 C   0  0  0  0  0  0  0  0  0  0  0  0
   59.5410   27.8820   45.0790 C   0  0  0  0  0  0  0  0  0  0  0  0
   58.6570   26.8300   45.3350 C   0  0  0  0  0  0  0  0  0  0  0  0
   57.3040   27.0950   45.5870 C   0  0  0  0  0  0  0  0  0  0  0  0
   56.1640   25.7830   45.8750 S   0  0  0  0  0  0  0  0  0  0  0  0
   56.2250   24.6590   44.5630 N   0  0  0  0  0  0  0  0  0  0  0  0
   56.5250   25.0840   47.1570 O   0  0  0  0  0  0  0  0  0  0  0  0
   54.7660   26.3230   45.9910 O   0  0  0  0  0  0  0  0  0  0  0  0
   56.8480   28.4190   45.5950 C   0  0  0  0  0  0  0  0  0  0  0  0
   59.6145   29.6625   49.5415 H   0  0  0  0  0  0  0  0  0  0  0  0
   58.6477   29.3491   48.0604 H   0  0  0  0  0  0  0  0  0  0  0  0
   60.4170   29.0388   48.0604 H   0  0  0  0  0  0  0  0  0  0  0  0
   61.2798   30.1052   46.7464 H   0  0  0  0  0  0  0  0  0  0  0  0
   60.5569   31.5947   46.0551 H   0  0  0  0  0  0  0  0  0  0  0  0
   62.3064   30.7148   49.3012 H   0  0  0  0  0  0  0  0  0  0  0  0
   64.1357   32.1349   50.2417 H   0  0  0  0  0  0  0  0  0  0  0  0
   63.9666   34.7082   46.8484 H   0  0  0  0  0  0  0  0  0  0  0  0
   62.1392   33.3292   45.8464 H   0  0  0  0  0  0  0  0  0  0  0  0
   58.0646   30.9535   46.8904 H   0  0  0  0  0  0  0  0  0  0  0  0
   57.9978   31.9634   48.3911 H   0  0  0  0  0  0  0  0  0  0  0  0
   59.7079   33.9838   48.4021 H   0  0  0  0  0  0  0  0  0  0  0  0
   60.0665   36.1130   47.1666 H   0  0  0  0  0  0  0  0  0  0  0  0
   59.4237   36.2911   44.7668 H   0  0  0  0  0  0  0  0  0  0  0  0
   58.4403   34.3329   43.5859 H   0  0  0  0  0  0  0  0  0  0  0  0
   59.7782   30.0238   44.8636 H   0  0  0  0  0  0  0  0  0  0  0  0
   60.6013   27.6708   44.8763 H   0  0  0  0  0  0  0  0  0  0  0  0
   59.0236   25.7929   45.3387 H   0  0  0  0  0  0  0  0  0  0  0  0
   55.3130   24.1490   44.5560 H   0  0  0  0  0  0  0  0  0  0  0  0
   56.2650   25.2160   43.6800 H   0  0  0  0  0  0  0  0  0  0  0  0
   55.7862   28.6295   45.7906 H   0  0  0  0  0  0  0  0  0  0  0  0
  1  2  1  0
  2  3  1  0
  3  4  1  0
  4  5  2  0
  5  6  1  0
  6  7  2  0
  7  8  1  0
  8  9  2  0
  2 10  1  0
 10 11  1  0
 11 12  2  0
 12 13  1  0
 13 14  2  0
 14 15  1  0
 15 16  2  0
 16 17  1  0
 17 18  2  0
 17 19  1  0
 19 20  1  0
 20 21  2  0
 21 22  1  0
 22 23  2  0
 23 24  1  0
 24 25  1  0
 25 26  1  0
 25 27  2  0
 25 28  2  0
 24 29  2  0
  9  4  1  0
 16 11  1  0
 29 20  1  0
  1 30  1  0
  1 31  1  0
  1 32  1  0
  3 33  1  0
  3 34  1  0
  5 35  1  0
  6 36  1  0
  8 37  1  0
  9 38  1  0
 10 39  1  0
 10 40  1  0
 12 41  1  0
 13 42  1  0
 14 43  1  0
 15 44  1  0
 21 45  1  0
 22 46  1  0
 23 47  1  0
 26 48  1  0
 26 49  1  0
 29 50  1  0
M  CHG  1  19  -1
M  END
>  <UniqueID>  (84) 
80

>  <SMILES>  (84) 
CN(Cc1ccncc1)Cc1ccccc1C(=O)[N-]c1cccc(S(N)(=O)=O)c1

>  <Energy>  (84) 
55.99549099295748

>  <Genealogy>  (84) 
CN(Cc1ccncc1)Cc1ccccc1C(=O)[N-]c1cccc(S(N)(=O)=O)c1 (protonated)
CN(Cc1ccncc1)Cc1ccccc1C(=O)[N-]c1cccc(S(N)(=O)=O)c1 (3D coordinates assigned)
CN(Cc1ccncc1)Cc1ccccc1C(=O)[N-]c1cccc(S(N)(=O)=O)c1 (optimized conformer: 55.99549099295748 kcal/mol)

>  <smiles>  (84) 
CN(Cc1ccncc1)Cc1ccccc1C(=O)Nc1cccc(S(N)(=O)=O)c1

>  <score_type>  (84) 
oracle

>  <origin>  (84) 
adg

>  <m_score__min__energy>  (84) 
-10.94

>  <m_primary>  (84) 
energy

$$$$
84:0
     RDKit          3D

 45 47  0  0  0  0  0  0  0  0999 V2000
   56.5020   29.3260   52.3590 O   0  0  0  0  0  0  0  0  0  0  0  0
   56.5210   30.5310   51.9930 C   0  0  0  0  0  0  0  0  0  0  0  0
   55.3670   31.2930   52.1420 O   0  0  0  0  0  0  0  0  0  0  0  0
   57.7470   31.1350   51.4190 C   0  0  0  0  0  0  0  0  0  0  0  0
   58.5940   30.3550   50.6100 C   0  0  0  0  0  0  0  0  0  0  0  0
   59.7400   30.9130   50.0280 C   0  0  0  0  0  0  0  0  0  0  0  0
   60.7550   29.9700   48.9400 S   0  0  0  0  0  0  0  0  0  0  0  0
   62.0170   30.7500   48.6960 O   0  0  0  0  0  0  0  0  0  0  0  0
   61.1200   28.6540   49.5720 O   0  0  0  0  0  0  0  0  0  0  0  0
   59.8830   29.7010   47.4380 N   0  0  0  0  0  0  0  0  0  0  0  0
   59.9610   28.2820   47.0310 C   0  0  0  0  0  0  0  0  0  0  0  0
   58.6030   27.7490   46.6560 C   0  0  0  0  0  0  0  0  0  0  0  0
   57.7860   28.4660   45.7670 C   0  0  0  0  0  0  0  0  0  0  0  0
   56.5060   27.9970   45.4520 C   0  0  0  0  0  0  0  0  0  0  0  0
   56.0400   26.8040   46.0110 C   0  0  0  0  0  0  0  0  0  0  0  0
   54.7640   26.3450   45.7060 O   0  0  0  0  0  0  0  0  0  0  0  0
   56.8560   26.0740   46.8810 C   0  0  0  0  0  0  0  0  0  0  0  0
   58.1350   26.5410   47.2010 C   0  0  0  0  0  0  0  0  0  0  0  0
   60.4120   30.5770   46.3740 C   0  0  0  0  0  0  0  0  0  0  0  0
   59.4190   31.6620   46.0420 C   0  0  0  0  0  0  0  0  0  0  0  0
   58.5150   31.5010   44.9780 C   0  0  0  0  0  0  0  0  0  0  0  0
   57.5880   32.5060   44.6830 C   0  0  0  0  0  0  0  0  0  0  0  0
   57.5510   33.6720   45.4520 C   0  0  0  0  0  0  0  0  0  0  0  0
   56.6300   34.6700   45.1560 O   0  0  0  0  0  0  0  0  0  0  0  0
   58.4370   33.8330   46.5210 C   0  0  0  0  0  0  0  0  0  0  0  0
   59.3640   32.8300   46.8200 C   0  0  0  0  0  0  0  0  0  0  0  0
   60.0610   32.2520   50.2730 C   0  0  0  0  0  0  0  0  0  0  0  0
   59.2360   33.0330   51.0830 C   0  0  0  0  0  0  0  0  0  0  0  0
   58.0830   32.4850   51.6520 C   0  0  0  0  0  0  0  0  0  0  0  0
   57.2990   33.2810   52.4220 F   0  0  0  0  0  0  0  0  0  0  0  0
   58.3539   29.2963   50.4327 H   0  0  0  0  0  0  0  0  0  0  0  0
   60.6333   28.1933   46.1649 H   0  0  0  0  0  0  0  0  0  0  0  0
   60.3437   27.6961   47.8797 H   0  0  0  0  0  0  0  0  0  0  0  0
   58.1537   29.3998   45.3166 H   0  0  0  0  0  0  0  0  0  0  0  0
   55.8657   28.5680   44.7635 H   0  0  0  0  0  0  0  0  0  0  0  0
   56.4914   25.1310   47.3144 H   0  0  0  0  0  0  0  0  0  0  0  0
   58.7763   25.9612   47.8811 H   0  0  0  0  0  0  0  0  0  0  0  0
   61.3502   31.0374   46.7171 H   0  0  0  0  0  0  0  0  0  0  0  0
   60.5938   29.9728   45.4729 H   0  0  0  0  0  0  0  0  0  0  0  0
   58.5366   30.5812   44.3750 H   0  0  0  0  0  0  0  0  0  0  0  0
   56.8873   32.3783   43.8447 H   0  0  0  0  0  0  0  0  0  0  0  0
   58.4049   34.7499   47.1278 H   0  0  0  0  0  0  0  0  0  0  0  0
   60.0531   32.9562   47.6681 H   0  0  0  0  0  0  0  0  0  0  0  0
   60.9656   32.6902   49.8262 H   0  0  0  0  0  0  0  0  0  0  0  0
   59.4942   34.0849   51.2747 H   0  0  0  0  0  0  0  0  0  0  0  0
  1  2  2  0
  2  3  1  0
  2  4  1  0
  4  5  2  0
  5  6  1  0
  6  7  1  0
  7  8  2  0
  7  9  2  0
  7 10  1  0
 10 11  1  0
 11 12  1  0
 12 13  2  0
 13 14  1  0
 14 15  2  0
 15 16  1  0
 15 17  1  0
 17 18  2  0
 10 19  1  0
 19 20  1  0
 20 21  2  0
 21 22  1  0
 22 23  2  0
 23 24  1  0
 23 25  1  0
 25 26  2  0
  6 27  2  0
 27 28  1  0
 28 29  2  0
 29 30  1  0
 29  4  1  0
 18 12  1  0
 26 20  1  0
  5 31  1  0
 11 32  1  0
 11 33  1  0
 13 34  1  0
 14 35  1  0
 17 36  1  0
 18 37  1  0
 19 38  1  0
 19 39  1  0
 21 40  1  0
 22 41  1  0
 25 42  1  0
 26 43  1  0
 27 44  1  0
 28 45  1  0
M  CHG  3   3  -1  16  -1  24  -1
M  END
>  <UniqueID>  (85) 
81

>  <SMILES>  (85) 
O=C([O-])c1cc(S(=O)(=O)N(Cc2ccc([O-])cc2)Cc2ccc([O-])cc2)ccc1F

>  <Energy>  (85) 
45.91299047349537

>  <Genealogy>  (85) 
O=C([O-])c1cc(S(=O)(=O)N(Cc2ccc([O-])cc2)Cc2ccc([O-])cc2)ccc1F (protonated)
O=C([O-])c1cc(S(=O)(=O)N(Cc2ccc([O-])cc2)Cc2ccc([O-])cc2)ccc1F (3D coordinates assigned)
O=C([O-])c1cc(S(=O)(=O)N(Cc2ccc([O-])cc2)Cc2ccc([O-])cc2)ccc1F (optimized conformer: 45.91299047349537 kcal/mol)

>  <smiles>  (85) 
O=C(O)c1cc(S(=O)(=O)N(Cc2ccc(O)cc2)Cc2ccc(O)cc2)ccc1F

>  <score_type>  (85) 
oracle

>  <origin>  (85) 
adg

>  <m_score__min__energy>  (85) 
-13.550000000000001

>  <m_primary>  (85) 
energy

$$$$
85:0
     RDKit          3D

 57 60  0  0  0  0  0  0  0  0999 V2000
   54.8981   30.4719   43.7069 H   0  0  0  0  0  0  0  0  0  0  0  0
   55.7660   30.1320   44.2910 C   0  0  0  0  0  0  0  0  0  0  0  0
   55.7600   28.9010   44.8620 N   0  0  0  0  0  0  0  0  0  0  0  0
   56.8250   28.4550   45.5840 C   0  0  0  0  0  0  0  0  0  0  0  0
   56.8170   27.2800   46.1440 N   0  0  0  0  0  0  0  0  0  0  0  0
   56.5000   26.0300   45.5070 C   0  0  0  0  0  0  0  0  0  0  0  0
   57.3880   25.5130   44.5620 C   0  0  0  0  0  0  0  0  0  0  0  0
   58.3164   26.0552   44.3294 H   0  0  0  0  0  0  0  0  0  0  0  0
   57.1040   24.3120   43.9110 C   0  0  0  0  0  0  0  0  0  0  0  0
   57.8144   23.9142   43.1713 H   0  0  0  0  0  0  0  0  0  0  0  0
   55.9270   23.6070   44.1870 C   0  0  0  0  0  0  0  0  0  0  0  0
   55.7290   22.3600   43.5010 N   0  0  0  0  0  0  0  0  0  0  0  0
   56.7160   20.9400   43.6250 S   0  0  0  0  0  0  0  0  0  0  0  0
   55.8880   19.7130   43.3670 O   0  0  0  0  0  0  0  0  0  0  0  0
   57.8500   21.0140   42.6420 O   0  0  0  0  0  0  0  0  0  0  0  0
   57.3730   20.8420   45.2740 C   0  0  0  0  0  0  0  0  0  0  0  0
   56.5571   20.9637   46.0016 H   0  0  0  0  0  0  0  0  0  0  0  0
   57.8517   19.8625   45.4204 H   0  0  0  0  0  0  0  0  0  0  0  0
   58.1167   21.6391   45.4204 H   0  0  0  0  0  0  0  0  0  0  0  0
   54.9830   24.1550   45.0860 C   0  0  0  0  0  0  0  0  0  0  0  0
   53.7550   23.5060   45.2870 O   0  0  0  0  0  0  0  0  0  0  0  0
   52.4850   24.0350   44.9240 C   0  0  0  0  0  0  0  0  0  0  0  0
   51.9135   24.2731   45.8332 H   0  0  0  0  0  0  0  0  0  0  0  0
   52.6252   24.9496   44.3291 H   0  0  0  0  0  0  0  0  0  0  0  0
   51.9345   23.2914   44.3291 H   0  0  0  0  0  0  0  0  0  0  0  0
   55.2840   25.3670   45.7430 C   0  0  0  0  0  0  0  0  0  0  0  0
   54.5580   25.7978   46.4482 H   0  0  0  0  0  0  0  0  0  0  0  0
   57.9030   29.2630   45.7560 N   0  0  0  0  0  0  0  0  0  0  0  0
   57.9530   30.5090   45.2150 C   0  0  0  0  0  0  0  0  0  0  0  0
   59.1100   31.2760   45.4010 O   0  0  0  0  0  0  0  0  0  0  0  0
   59.1670   32.5740   45.9340 C   0  0  0  0  0  0  0  0  0  0  0  0
   59.2250   33.7130   45.1130 C   0  0  0  0  0  0  0  0  0  0  0  0
   59.2350   33.5999   44.0189 H   0  0  0  0  0  0  0  0  0  0  0  0
   59.2700   34.9900   45.6820 C   0  0  0  0  0  0  0  0  0  0  0  0
   59.3228   35.8776   45.0344 H   0  0  0  0  0  0  0  0  0  0  0  0
   59.2480   35.1410   47.0710 C   0  0  0  0  0  0  0  0  0  0  0  0
   59.2961   36.1458   47.5161 H   0  0  0  0  0  0  0  0  0  0  0  0
   59.1650   34.0170   47.8930 C   0  0  0  0  0  0  0  0  0  0  0  0
   59.1474   34.1367   48.9863 H   0  0  0  0  0  0  0  0  0  0  0  0
   59.1040   32.7360   47.3290 C   0  0  0  0  0  0  0  0  0  0  0  0
   58.9760   31.6000   48.1820 N   0  0  0  0  0  0  0  0  0  0  0  0
   60.3750   30.7680   48.7710 S   0  0  0  0  0  0  0  0  0  0  0  0
   60.1940   30.4840   50.2340 O   0  0  0  0  0  0  0  0  0  0  0  0
   60.5270   29.4610   48.0450 O   0  0  0  0  0  0  0  0  0  0  0  0
   61.8120   31.7580   48.5370 C   0  0  0  0  0  0  0  0  0  0  0  0
   62.2630   32.6090   49.5570 C   0  0  0  0  0  0  0  0  0  0  0  0
   61.7464   32.6235   50.5280 H   0  0  0  0  0  0  0  0  0  0  0  0
   63.3680   33.4390   49.3420 C   0  0  0  0  0  0  0  0  0  0  0  0
   63.7209   34.1028   50.1450 H   0  0  0  0  0  0  0  0  0  0  0  0
   64.0250   33.4260   48.1070 C   0  0  0  0  0  0  0  0  0  0  0  0
   64.8926   34.0808   47.9383 H   0  0  0  0  0  0  0  0  0  0  0  0
   63.5780   32.5800   47.0870 C   0  0  0  0  0  0  0  0  0  0  0  0
   64.0937   32.5706   46.1154 H   0  0  0  0  0  0  0  0  0  0  0  0
   62.4760   31.7460   47.3010 C   0  0  0  0  0  0  0  0  0  0  0  0
   62.1289   31.0789   46.4982 H   0  0  0  0  0  0  0  0  0  0  0  0
   56.8720   30.9650   44.4450 C   0  0  0  0  0  0  0  0  0  0  0  0
   56.8974   31.9584   43.9734 H   0  0  0  0  0  0  0  0  0  0  0  0
  1  2  1  0
  2  3  1  0
  3  4  1  0
  4  5  2  0
  5  6  1  0
  6  7  2  0
  7  8  1  0
  7  9  1  0
  9 10  1  0
  9 11  2  0
 11 12  1  0
 12 13  1  0
 13 14  2  0
 13 15  2  0
 13 16  1  0
 16 17  1  0
 16 18  1  0
 16 19  1  0
 11 20  1  0
 20 21  1  0
 21 22  1  0
 22 23  1  0
 22 24  1  0
 22 25  1  0
 20 26  2  0
 26 27  1  0
  4 28  1  0
 28 29  2  0
 29 30  1  0
 30 31  1  0
 31 32  2  0
 32 33  1  0
 32 34  1  0
 34 35  1  0
 34 36  2  0
 36 37  1  0
 36 38  1  0
 38 39  1  0
 38 40  2  0
 40 41  1  0
 41 42  1  0
 42 43  2  0
 42 44  2  0
 42 45  1  0
 45 46  2  0
 46 47  1  0
 46 48  1  0
 48 49  1  0
 48 50  2  0
 50 51  1  0
 50 52  1  0
 52 53  1  0
 52 54  2  0
 54 55  1  0
 29 56  1  0
 56 57  1  0
 56  2  2  0
 26  6  1  0
 40 31  1  0
 54 45  1  0
M  CHG  3   3  -1  12  -1  41  -1
M  END
>  <UniqueID>  (86) 
82

>  <SMILES>  (86) 
COc1cc(/N=c2/nc(Oc3ccccc3[N-]S(=O)(=O)c3ccccc3)cc[n-]2)ccc1[N-]S(C)(=O)=O

>  <Energy>  (86) 
85.2118770772343

>  <Genealogy>  (86) 
COc1cc(N=c2nc(Oc3ccccc3[N-]S(=O)(=O)c3ccccc3)cc[n-]2)ccc1[N-]S(C)(=O)=O (protonated)
COc1cc(/N=c2/nc(Oc3ccccc3[N-]S(=O)(=O)c3ccccc3)cc[n-]2)ccc1[N-]S(C)(=O)=O (cis-trans isomerization)
COc1cc(/N=c2/nc(Oc3ccccc3[N-]S(=O)(=O)c3ccccc3)cc[n-]2)ccc1[N-]S(C)(=O)=O (3D coordinates assigned)
COc1cc(/N=c2/nc(Oc3ccccc3[N-]S(=O)(=O)c3ccccc3)cc[n-]2)ccc1[N-]S(C)(=O)=O (optimized conformer: 85.2118770772343 kcal/mol)

>  <smiles>  (86) 
COc1cc(N=c2nc(Oc3ccccc3NS(=O)(=O)c3ccccc3)cc[nH]2)ccc1NS(C)(=O)=O

>  <score_type>  (86) 
oracle

>  <origin>  (86) 
adg

>  <m_score__min__energy>  (86) 
-15.33

>  <m_primary>  (86) 
energy

$$$$
86:0
     RDKit          3D

 28 30  0  0  0  0  0  0  0  0999 V2000
   58.3994   30.5556   43.8232 H   0  0  0  0  0  0  0  0  0  0  0  0
   57.6680   30.4670   44.6400 C   0  0  0  0  0  0  0  0  0  0  0  0
   57.1900   31.5360   45.1990 N   0  0  0  0  0  0  0  0  0  0  0  0
   57.9400   32.6860   45.6310 C   0  0  0  0  0  0  0  0  0  0  0  0
   58.1560   32.8550   47.0060 C   0  0  0  0  0  0  0  0  0  0  0  0
   57.7601   32.1135   47.7156 H   0  0  0  0  0  0  0  0  0  0  0  0
   58.8710   33.9590   47.4830 C   0  0  0  0  0  0  0  0  0  0  0  0
   59.0418   34.0778   48.5632 H   0  0  0  0  0  0  0  0  0  0  0  0
   59.3680   34.9100   46.5900 C   0  0  0  0  0  0  0  0  0  0  0  0
   59.9330   35.7758   46.9658 H   0  0  0  0  0  0  0  0  0  0  0  0
   59.1470   34.7610   45.2180 C   0  0  0  0  0  0  0  0  0  0  0  0
   59.5352   35.5130   44.5152 H   0  0  0  0  0  0  0  0  0  0  0  0
   58.4340   33.6590   44.7360 C   0  0  0  0  0  0  0  0  0  0  0  0
   58.2575   33.5501   43.6557 H   0  0  0  0  0  0  0  0  0  0  0  0
   57.2340   29.1350   45.0960 C   0  0  0  0  0  0  0  0  0  0  0  0
   55.9380   28.6380   45.1810 C   0  0  0  0  0  0  0  0  0  0  0  0
   54.7910   29.3430   44.8390 O   0  0  0  0  0  0  0  0  0  0  0  0
   55.9060   27.3660   45.6440 N   0  0  0  0  0  0  0  0  0  0  0  0
   57.2000   27.0600   45.8520 C   0  0  0  0  0  0  0  0  0  0  0  0
   57.6990   25.8490   46.3320 C   0  0  0  0  0  0  0  0  0  0  0  0
   57.0235   25.0190   46.5864 H   0  0  0  0  0  0  0  0  0  0  0  0
   59.0920   25.7210   46.4810 C   0  0  0  0  0  0  0  0  0  0  0  0
   59.5167   24.7783   46.8565 H   0  0  0  0  0  0  0  0  0  0  0  0
   59.9490   26.7940   46.1520 C   0  0  0  0  0  0  0  0  0  0  0  0
   61.0366   26.6817   46.2728 H   0  0  0  0  0  0  0  0  0  0  0  0
   59.4210   28.0050   45.6710 C   0  0  0  0  0  0  0  0  0  0  0  0
   60.0788   28.8477   45.4116 H   0  0  0  0  0  0  0  0  0  0  0  0
   58.0350   28.1040   45.5330 C   0  0  0  0  0  0  0  0  0  0  0  0
  1  2  1  0
  2  3  2  0
  3  4  1  0
  4  5  2  0
  5  6  1  0
  5  7  1  0
  7  8  1  0
  7  9  2  0
  9 10  1  0
  9 11  1  0
 11 12  1  0
 11 13  2  0
 13 14  1  0
  2 15  1  0
 15 16  2  0
 16 17  1  0
 16 18  1  0
 18 19  1  0
 19 20  2  0
 20 21  1  0
 20 22  1  0
 22 23  1  0
 22 24  2  0
 24 25  1  0
 24 26  1  0
 26 27  1  0
 26 28  2  0
 13  4  1  0
 28 15  1  0
 28 19  1  0
M  CHG  2  17  -1  18  -1
M  END
>  <UniqueID>  (87) 
83

>  <SMILES>  (87) 
[O-]c1[n-]c2ccccc2c1/C=N/c1ccccc1

>  <Energy>  (87) 
66.20600167568793

>  <Genealogy>  (87) 
[O-]c1[n-]c2ccccc2c1C=Nc1ccccc1 (protonated)
[O-]c1[n-]c2ccccc2c1/C=N/c1ccccc1 (cis-trans isomerization)
[O-]c1[n-]c2ccccc2c1/C=N/c1ccccc1 (3D coordinates assigned)
[O-]c1[n-]c2ccccc2c1/C=N/c1ccccc1 (optimized conformer: 66.20600167568793 kcal/mol)

>  <smiles>  (87) 
Oc1[nH]c2ccccc2c1C=Nc1ccccc1

>  <score_type>  (87) 
oracle

>  <origin>  (87) 
adg

>  <m_score__min__energy>  (87) 
-13.300000000000001

>  <m_primary>  (87) 
energy

$$$$
87:0
     RDKit          3D

 61 66  0  0  1  0  0  0  0  0999 V2000
   63.7680   34.1730   47.3580 N   0  0  0  0  0  0  0  0  0  0  0  0
   62.9810   33.3550   47.6470 C   0  0  0  0  0  0  0  0  0  0  0  0
   62.0070   32.3710   47.9980 C   0  0  0  0  0  0  0  0  0  0  0  0
   61.3480   32.3710   49.2270 C   0  0  0  0  0  0  0  0  0  0  0  0
   60.4120   31.3930   49.5160 C   0  0  0  0  0  0  0  0  0  0  0  0
   60.0890   30.3910   48.6240 C   0  0  0  0  0  0  0  0  0  0  0  0
   59.0860   29.3310   48.9200 C   0  0  0  0  0  0  0  0  0  0  0  0
   59.3970   28.2130   48.1020 N   0  0  0  0  0  0  0  0  0  0  0  0
   58.7740   27.7890   47.0820 C   0  0  0  0  0  0  0  0  0  0  0  0
   58.5890   28.6280   46.0220 C   0  0  0  0  0  0  0  0  0  0  0  0
   57.9230   28.2270   44.8870 C   0  0  0  0  0  0  0  0  0  0  0  0
   57.7470   29.1140   43.7970 N   0  0  0  0  0  0  0  0  0  0  0  0
   56.7620   30.1570   43.9300 C   0  0  0  0  0  0  0  0  0  0  0  0
   57.4480   31.3860   44.4140 C   0  0  0  0  0  0  0  0  0  0  0  0
   57.9130   32.2650   43.4600 C   0  0  0  0  0  0  0  0  0  0  0  0
   58.5690   33.4410   43.7600 C   0  0  0  0  0  0  0  0  0  0  0  0
   58.7560   33.7270   45.1150 C   0  0  0  0  0  0  0  0  0  0  0  0
   59.4120   34.9020   45.3950 C   0  0  0  0  0  0  0  0  0  0  0  0
   59.6250   35.2360   46.7200 C   0  0  0  0  0  0  0  0  0  0  0  0
   59.1700   34.3740   47.7160 C   0  0  0  0  0  0  0  0  0  0  0  0
   58.5110   33.1950   47.3980 C   0  0  0  0  0  0  0  0  0  0  0  0
   58.2930   32.8520   46.0620 C   0  0  0  0  0  0  0  0  0  0  0  0
   57.6330   31.6700   45.7510 C   0  0  0  0  0  0  0  0  0  0  0  0
   57.4490   26.9460   44.8580 N   0  0  0  0  0  0  0  0  0  0  0  0
   57.6260   26.1010   45.9040 C   0  0  0  0  0  0  0  0  0  0  0  0
   57.2750   24.7920   46.1710 C   0  0  0  0  0  0  0  0  0  0  0  0
   56.6150   24.0270   45.3250 C   0  0  0  0  0  0  0  0  0  0  0  0
   55.1620   23.9130   45.2930 C   0  0  0  0  0  0  0  0  0  0  0  0
   54.3640   22.8970   45.0070 N   0  0  0  0  0  0  0  0  0  0  0  0
   53.0770   23.3170   45.1240 C   0  0  0  0  0  0  0  0  0  0  0  0
   52.0220   22.6450   44.9340 O   0  0  0  0  0  0  0  0  0  0  0  0
   53.0530   24.6150   45.4890 N   0  0  0  0  0  0  0  0  0  0  0  0
   54.3370   24.9940   45.5970 C   0  0  0  0  0  0  0  0  0  0  0  0
   54.7250   26.2790   45.9580 O   0  0  0  0  0  0  0  0  0  0  0  0
   57.7400   24.4620   47.4390 C   0  0  0  0  0  0  0  0  0  0  0  0
   58.3520   25.5640   47.9090 N   0  0  0  0  0  0  0  0  0  0  0  0
   58.2810   26.5260   46.9980 N   0  0  0  0  0  0  0  0  0  0  0  0
   60.7760   30.4330   47.4040 C   0  0  0  0  0  0  0  0  0  0  0  0
   61.6980   31.3820   47.0990 C   0  0  0  0  0  0  0  0  0  0  0  0
   61.5728   33.1509   49.9694 H   0  0  0  0  0  0  0  0  0  0  0  0
   59.9070   31.4154   50.4930 H   0  0  0  0  0  0  0  0  0  0  0  0
   59.1407   29.0473   49.9814 H   0  0  0  0  0  0  0  0  0  0  0  0
   58.0673   29.6915   48.7146 H   0  0  0  0  0  0  0  0  0  0  0  0
   58.9833   29.6534   46.0765 H   0  0  0  0  0  0  0  0  0  0  0  0
   58.3370   28.9760   42.9490 H   0  0  0  0  0  0  0  0  0  0  0  0
   56.2925   30.3523   42.9546 H   0  0  0  0  0  0  0  0  0  0  0  0
   55.9805   29.8529   44.6419 H   0  0  0  0  0  0  0  0  0  0  0  0
   57.7523   32.0152   42.4009 H   0  0  0  0  0  0  0  0  0  0  0  0
   58.9270   34.1197   42.9719 H   0  0  0  0  0  0  0  0  0  0  0  0
   59.7590   35.5605   44.5851 H   0  0  0  0  0  0  0  0  0  0  0  0
   60.1459   36.1683   46.9838 H   0  0  0  0  0  0  0  0  0  0  0  0
   59.3361   34.6326   48.7722 H   0  0  0  0  0  0  0  0  0  0  0  0
   58.1596   32.5292   48.2000 H   0  0  0  0  0  0  0  0  0  0  0  0
   57.2734   30.9898   46.5371 H   0  0  0  0  0  0  0  0  0  0  0  0
   57.1956   23.4389   44.5990 H   0  0  0  0  0  0  0  0  0  0  0  0
   54.6840   21.9480   44.7410 H   0  0  0  0  0  0  0  0  0  0  0  0
   52.2200   25.2390   45.6640 H   0  0  0  0  0  0  0  0  0  0  0  0
   54.3230   26.7060   46.7880 H   0  0  0  0  0  0  0  0  0  0  0  0
   57.6299   23.4960   47.9535 H   0  0  0  0  0  0  0  0  0  0  0  0
   60.5574   29.6577   46.6549 H   0  0  0  0  0  0  0  0  0  0  0  0
   62.2020   31.3575   46.1216 H   0  0  0  0  0  0  0  0  0  0  0  0
  1  2  3  0
  2  3  1  0
  3  4  2  0
  4  5  1  0
  5  6  2  0
  6  7  1  0
  7  8  1  0
  8  9  2  0
  9 10  1  0
 10 11  2  0
 11 12  1  0
 12 13  1  0
 13 14  1  0
 14 15  2  0
 15 16  1  0
 16 17  2  0
 17 18  1  0
 18 19  2  0
 19 20  1  0
 20 21  2  0
 21 22  1  0
 22 23  2  0
 11 24  1  0
 24 25  2  0
 25 26  1  0
 26 27  2  0
 27 28  1  0
 28 29  1  0
 29 30  1  0
 30 31  2  0
 30 32  1  0
 32 33  1  0
 33 34  1  0
 26 35  1  0
 35 36  2  0
 36 37  1  0
  6 38  1  0
 38 39  2  0
 39  3  1  0
 37  9  1  0
 23 14  1  0
 37 25  1  0
 22 17  1  0
 33 28  2  0
  4 40  1  0
  5 41  1  0
  7 42  1  0
  7 43  1  0
 10 44  1  0
 12 45  1  0
 13 46  1  0
 13 47  1  0
 15 48  1  0
 16 49  1  0
 18 50  1  0
 19 51  1  0
 20 52  1  0
 21 53  1  0
 23 54  1  0
 27 55  1  0
 29 56  1  0
 32 57  1  0
 34 58  1  0
 35 59  1  0
 38 60  1  0
 39 61  1  0
M  END
>  <smiles>  (88) 
N#Cc1ccc(CN=c2cc(NCc3ccc4ccccc4c3)nc3c(=Cc4[nH]c(=O)[nH]c4O)cnn23)cc1

>  <score_type>  (88) 
oracle

>  <origin>  (88) 
adg

>  <m_score__min__energy>  (88) 
-11.66

>  <m_primary>  (88) 
energy

$$$$
88:0
     RDKit          3D

 52 55  0  0  1  0  0  0  0  0999 V2000
   59.8050   34.5920   48.2730 C   0  0  0  0  0  0  0  0  0  0  0  0
   59.3080   34.3210   46.9180 C   0  0  0  0  0  0  0  0  0  0  0  0
   59.8160   35.0010   45.8120 C   0  0  0  0  0  0  0  0  0  0  0  0
   59.3450   34.7400   44.5560 C   0  0  0  0  0  0  0  0  0  0  0  0
   58.3570   33.8080   44.3080 C   0  0  0  0  0  0  0  0  0  0  0  0
   57.8470   33.1290   45.3980 C   0  0  0  0  0  0  0  0  0  0  0  0
   56.8260   32.1450   45.2730 N   0  0  0  0  0  0  0  0  0  0  0  0
   57.1030   30.9580   44.8580 C   0  0  0  0  0  0  0  0  0  0  0  0
   56.3440   30.0970   44.1530 N   0  0  0  0  0  0  0  0  0  0  0  0
   56.9850   28.9740   43.9180 N   0  0  0  0  0  0  0  0  0  0  0  0
   58.2060   29.0580   44.4690 C   0  0  0  0  0  0  0  0  0  0  0  0
   58.3000   30.3120   45.0710 C   0  0  0  0  0  0  0  0  0  0  0  0
   59.5850   30.6150   45.7480 C   0  0  0  0  0  0  0  0  0  0  0  0
   59.9110   29.4490   46.5760 N   0  0  0  0  0  0  0  0  0  0  0  0
   60.3820   29.7310   47.8870 C   0  0  0  0  0  0  0  0  0  0  0  0
   59.7770   29.1640   48.8370 O   0  0  0  0  0  0  0  0  0  0  0  0
   61.5190   30.6360   48.1770 C   0  0  2  0  0  0  0  0  0  0  0  0
   61.1460   31.7020   49.1870 C   0  0  0  0  0  0  0  0  0  0  0  0
   62.4650   32.3570   49.5890 C   0  0  0  0  0  0  0  0  0  0  0  0
   63.0020   33.0300   48.3440 C   0  0  0  0  0  0  0  0  0  0  0  0
   62.3440   32.5080   47.1090 C   0  0  0  0  0  0  0  0  0  0  0  0
   62.1520   31.1420   47.0740 O   0  0  0  0  0  0  0  0  0  0  0  0
   59.7500   28.1080   46.0550 C   0  0  0  0  0  0  0  0  0  0  0  0
   59.4030   28.1900   44.5830 C   0  0  0  0  0  0  0  0  0  0  0  0
   58.3220   33.3920   46.6680 C   0  0  0  0  0  0  0  0  0  0  0  0
   57.7680   32.6580   47.8470 C   0  0  0  0  0  0  0  0  0  0  0  0
   59.0889   34.2016   49.0111 H   0  0  0  0  0  0  0  0  0  0  0  0
   60.7791   34.1002   48.4114 H   0  0  0  0  0  0  0  0  0  0  0  0
   59.9192   35.6773   48.4114 H   0  0  0  0  0  0  0  0  0  0  0  0
   60.6042   35.7555   45.9518 H   0  0  0  0  0  0  0  0  0  0  0  0
   59.7707   35.2955   43.7074 H   0  0  0  0  0  0  0  0  0  0  0  0
   57.9922   33.6147   43.2884 H   0  0  0  0  0  0  0  0  0  0  0  0
   55.3710   30.3190   43.8440 H   0  0  0  0  0  0  0  0  0  0  0  0
   56.6580   28.1290   43.4030 H   0  0  0  0  0  0  0  0  0  0  0  0
   60.3759   30.7833   45.0022 H   0  0  0  0  0  0  0  0  0  0  0  0
   59.5042   31.5250   46.3607 H   0  0  0  0  0  0  0  0  0  0  0  0
   62.2828   29.9948   48.6413 H   0  0  0  0  0  0  0  0  0  0  0  0
   60.4707   32.4426   48.7336 H   0  0  0  0  0  0  0  0  0  0  0  0
   60.6183   31.2780   50.0540 H   0  0  0  0  0  0  0  0  0  0  0  0
   62.2949   33.1012   50.3810 H   0  0  0  0  0  0  0  0  0  0  0  0
   63.1765   31.6153   49.9811 H   0  0  0  0  0  0  0  0  0  0  0  0
   62.8185   34.1122   48.4159 H   0  0  0  0  0  0  0  0  0  0  0  0
   64.0791   32.8176   48.2757 H   0  0  0  0  0  0  0  0  0  0  0  0
   61.3602   32.9916   47.0181 H   0  0  0  0  0  0  0  0  0  0  0  0
   63.0282   32.7397   46.2794 H   0  0  0  0  0  0  0  0  0  0  0  0
   60.6880   27.5477   46.1823 H   0  0  0  0  0  0  0  0  0  0  0  0
   58.9450   27.5919   46.5987 H   0  0  0  0  0  0  0  0  0  0  0  0
   60.2415   28.6266   44.0207 H   0  0  0  0  0  0  0  0  0  0  0  0
   59.2045   27.1902   44.1695 H   0  0  0  0  0  0  0  0  0  0  0  0
   58.1248   33.1307   48.7740 H   0  0  0  0  0  0  0  0  0  0  0  0
   56.6690   32.6927   47.8172 H   0  0  0  0  0  0  0  0  0  0  0  0
   58.1027   31.6106   47.8172 H   0  0  0  0  0  0  0  0  0  0  0  0
  1  2  1  0
  2  3  2  0
  3  4  1  0
  4  5  2  0
  5  6  1  0
  6  7  1  0
  7  8  2  0
  8  9  1  0
  9 10  1  0
 10 11  1  0
 11 12  2  0
 12 13  1  0
 13 14  1  0
 14 15  1  0
 15 16  2  0
 15 17  1  0
 17 18  1  0
 18 19  1  0
 19 20  1  0
 20 21  1  0
 21 22  1  0
 14 23  1  0
 23 24  1  0
  6 25  2  0
 25 26  1  0
 25  2  1  0
 12  8  1  0
 22 17  1  0
 24 11  1  0
  1 27  1  0
  1 28  1  0
  1 29  1  0
  3 30  1  0
  4 31  1  0
  5 32  1  0
  9 33  1  0
 10 34  1  0
 13 35  1  0
 13 36  1  0
 17 37  1  1
 18 38  1  0
 18 39  1  0
 19 40  1  0
 19 41  1  0
 20 42  1  0
 20 43  1  0
 21 44  1  0
 21 45  1  0
 23 46  1  0
 23 47  1  0
 24 48  1  0
 24 49  1  0
 26 50  1  0
 26 51  1  0
 26 52  1  0
M  END
>  <smiles>  (89) 
Cc1cccc(N=c2[nH][nH]c3c2CN(C(=O)C2CCCCO2)CC3)c1C

>  <score_type>  (89) 
oracle

>  <origin>  (89) 
adg

>  <m_score__min__energy>  (89) 
-9.1999999999999993

>  <m_primary>  (89) 
energy

$$$$
89:0
     RDKit          3D

 22 23  0  0  0  0  0  0  0  0999 V2000
   55.7440   21.8260   44.2110 O   0  0  0  0  0  0  0  0  0  0  0  0
   55.5990   22.9130   44.8280 C   0  0  0  0  0  0  0  0  0  0  0  0
   54.5160   23.7040   44.6620 N   0  0  0  0  0  0  0  0  0  0  0  0
   54.7730   24.7310   45.4900 C   0  0  0  0  0  0  0  0  0  0  0  0
   53.9290   25.8230   45.6580 O   0  0  0  0  0  0  0  0  0  0  0  0
   55.9750   24.5370   46.1280 C   0  0  0  0  0  0  0  0  0  0  0  0
   56.6470   25.4760   47.0810 C   0  0  0  0  0  0  0  0  0  0  0  0
   57.4900   26.4710   46.3250 C   0  0  0  0  0  0  0  0  0  0  0  0
   58.8860   26.3080   46.2880 C   0  0  0  0  0  0  0  0  0  0  0  0
   59.6810   27.2000   45.5650 C   0  0  0  0  0  0  0  0  0  0  0  0
   59.0940   28.2550   44.8650 C   0  0  0  0  0  0  0  0  0  0  0  0
   57.7040   28.4220   44.8820 C   0  0  0  0  0  0  0  0  0  0  0  0
   56.9850   29.7510   43.9870 Cl  0  0  0  0  0  0  0  0  0  0  0  0
   56.8990   27.5300   45.6080 C   0  0  0  0  0  0  0  0  0  0  0  0
   55.5190   27.7000   45.6110 O   0  0  0  0  0  0  0  0  0  0  0  0
   56.5150   23.3820   45.7030 N   0  0  0  0  0  0  0  0  0  0  0  0
   54.2940   26.7130   45.9750 H   0  0  0  0  0  0  0  0  0  0  0  0
   55.8824   26.0139   47.6607 H   0  0  0  0  0  0  0  0  0  0  0  0
   57.2941   24.8983   47.7574 H   0  0  0  0  0  0  0  0  0  0  0  0
   59.3543   25.4739   46.8311 H   0  0  0  0  0  0  0  0  0  0  0  0
   60.7732   27.0706   45.5472 H   0  0  0  0  0  0  0  0  0  0  0  0
   59.7244   28.9565   44.2990 H   0  0  0  0  0  0  0  0  0  0  0  0
  1  2  2  0
  2  3  1  0
  3  4  1  0
  4  5  1  0
  4  6  2  0
  6  7  1  0
  7  8  1  0
  8  9  2  0
  9 10  1  0
 10 11  2  0
 11 12  1  0
 12 13  1  0
 12 14  2  0
 14 15  1  0
  6 16  1  0
 16  2  1  0
 14  8  1  0
  5 17  1  0
  7 18  1  0
  7 19  1  0
  9 20  1  0
 10 21  1  0
 11 22  1  0
M  CHG  3   3  -1  15  -1  16  -1
M  END
>  <UniqueID>  (90) 
84

>  <SMILES>  (90) 
O=c1[n-]c(O)c(Cc2cccc(Cl)c2[O-])[n-]1

>  <Energy>  (90) 
50.57687615196209

>  <Genealogy>  (90) 
O=c1[n-]c(O)c(Cc2cccc(Cl)c2[O-])[n-]1 (protonated)
O=c1[n-]c(O)c(Cc2cccc(Cl)c2[O-])[n-]1 (3D coordinates assigned)
O=c1[n-]c(O)c(Cc2cccc(Cl)c2[O-])[n-]1 (optimized conformer: 50.57687615196209 kcal/mol)

>  <smiles>  (90) 
O=c1[nH]c(O)c(Cc2cccc(Cl)c2O)[nH]1

>  <score_type>  (90) 
oracle

>  <origin>  (90) 
adg

>  <m_score__min__energy>  (90) 
-12.98

>  <m_primary>  (90) 
energy

$$$$
90:0
     RDKit          3D

 48 51  0  0  0  0  0  0  0  0999 V2000
   67.2070   31.5550   50.8950 C   0  0  0  0  0  0  0  0  0  0  0  0
   66.3580   30.3890   51.3130 C   0  0  0  0  0  0  0  0  0  0  0  0
   66.9850   29.2210   51.6250 N   0  0  0  0  0  0  0  0  0  0  0  0
   66.3030   28.1020   51.9820 C   0  0  0  0  0  0  0  0  0  0  0  0
   64.9110   28.1200   52.0280 C   0  0  0  0  0  0  0  0  0  0  0  0
   64.2310   29.3000   51.7260 C   0  0  0  0  0  0  0  0  0  0  0  0
   64.9440   30.4610   51.3890 C   0  0  0  0  0  0  0  0  0  0  0  0
   64.1870   31.7050   51.1130 C   0  0  0  0  0  0  0  0  0  0  0  0
   63.3400   32.1070   51.9550 O   0  0  0  0  0  0  0  0  0  0  0  0
   64.3700   32.4590   49.9070 N   0  0  0  0  0  0  0  0  0  0  0  0
   63.3360   32.9010   49.0160 C   0  0  0  0  0  0  0  0  0  0  0  0
   63.6940   33.3710   47.7460 C   0  0  0  0  0  0  0  0  0  0  0  0
   62.7140   33.8150   46.8530 C   0  0  0  0  0  0  0  0  0  0  0  0
   61.3570   33.7860   47.2170 C   0  0  0  0  0  0  0  0  0  0  0  0
   60.3130   34.2530   46.2780 C   0  0  0  0  0  0  0  0  0  0  0  0
   60.2570   35.4830   45.9960 O   0  0  0  0  0  0  0  0  0  0  0  0
   59.3600   33.3450   45.6880 N   0  0  0  0  0  0  0  0  0  0  0  0
   58.3790   33.8240   44.7040 C   0  0  0  0  0  0  0  0  0  0  0  0
   57.0040   33.2470   45.0150 C   0  0  0  0  0  0  0  0  0  0  0  0
   57.0750   31.7540   45.0980 C   0  0  0  0  0  0  0  0  0  0  0  0
   55.9850   31.0180   44.7510 N   0  0  0  0  0  0  0  0  0  0  0  0
   55.9690   29.6630   44.8470 C   0  0  0  0  0  0  0  0  0  0  0  0
   54.8270   28.9660   44.4730 O   0  0  0  0  0  0  0  0  0  0  0  0
   57.0950   28.9810   45.3270 C   0  0  0  0  0  0  0  0  0  0  0  0
   57.1010   27.5900   45.4440 O   0  0  0  0  0  0  0  0  0  0  0  0
   58.2280   29.7140   45.7010 C   0  0  0  0  0  0  0  0  0  0  0  0
   59.2420   29.1080   46.1450 O   0  0  0  0  0  0  0  0  0  0  0  0
   58.2300   31.1160   45.5890 C   0  0  0  0  0  0  0  0  0  0  0  0
   59.4400   31.9150   46.0350 C   0  0  0  0  0  0  0  0  0  0  0  0
   60.9960   33.2710   48.4730 C   0  0  0  0  0  0  0  0  0  0  0  0
   61.9770   32.8310   49.3660 C   0  0  0  0  0  0  0  0  0  0  0  0
   67.5842   32.0731   51.7890 H   0  0  0  0  0  0  0  0  0  0  0  0
   68.0554   31.1943   50.2949 H   0  0  0  0  0  0  0  0  0  0  0  0
   66.6033   32.2517   50.2949 H   0  0  0  0  0  0  0  0  0  0  0  0
   66.8499   27.1817   52.2348 H   0  0  0  0  0  0  0  0  0  0  0  0
   64.3529   27.2119   52.3000 H   0  0  0  0  0  0  0  0  0  0  0  0
   63.1315   29.3206   51.7521 H   0  0  0  0  0  0  0  0  0  0  0  0
   64.7530   33.3909   47.4492 H   0  0  0  0  0  0  0  0  0  0  0  0
   63.0066   34.1888   45.8607 H   0  0  0  0  0  0  0  0  0  0  0  0
   58.3304   34.9222   44.7431 H   0  0  0  0  0  0  0  0  0  0  0  0
   58.6877   33.4995   43.6993 H   0  0  0  0  0  0  0  0  0  0  0  0
   56.6511   33.6477   45.9767 H   0  0  0  0  0  0  0  0  0  0  0  0
   56.3073   33.5285   44.2117 H   0  0  0  0  0  0  0  0  0  0  0  0
   56.5660   26.9960   44.8220 H   0  0  0  0  0  0  0  0  0  0  0  0
   59.5325   31.8264   47.1275 H   0  0  0  0  0  0  0  0  0  0  0  0
   60.3128   31.5022   45.5079 H   0  0  0  0  0  0  0  0  0  0  0  0
   59.9345   33.2136   48.7556 H   0  0  0  0  0  0  0  0  0  0  0  0
   61.6840   32.4283   50.3468 H   0  0  0  0  0  0  0  0  0  0  0  0
  1  2  1  0
  2  3  2  0
  3  4  1  0
  4  5  2  0
  5  6  1  0
  6  7  2  0
  7  8  1  0
  8  9  2  0
  8 10  1  0
 10 11  1  0
 11 12  2  0
 12 13  1  0
 13 14  2  0
 14 15  1  0
 15 16  2  0
 15 17  1  0
 17 18  1  0
 18 19  1  0
 19 20  1  0
 20 21  1  0
 21 22  1  0
 22 23  1  0
 22 24  2  0
 24 25  1  0
 24 26  1  0
 26 27  2  0
 26 28  1  0
 28 29  1  0
 14 30  1  0
 30 31  2  0
  7  2  1  0
 31 11  1  0
 29 17  1  0
 28 20  2  0
  1 32  1  0
  1 33  1  0
  1 34  1  0
  4 35  1  0
  5 36  1  0
  6 37  1  0
 12 38  1  0
 13 39  1  0
 18 40  1  0
 18 41  1  0
 19 42  1  0
 19 43  1  0
 25 44  1  0
 29 45  1  0
 29 46  1  0
 30 47  1  0
 31 48  1  0
M  CHG  3  10  -1  21  -1  23  -1
M  END
>  <UniqueID>  (91) 
85

>  <SMILES>  (91) 
Cc1ncccc1C(=O)[N-]c1ccc(C(=O)N2CCc3[n-]c([O-])c(O)c(=O)c3C2)cc1

>  <Energy>  (91) 
70.54811058124974

>  <Genealogy>  (91) 
Cc1ncccc1C(=O)[N-]c1ccc(C(=O)N2CCc3[n-]c([O-])c(O)c(=O)c3C2)cc1 (protonated)
Cc1ncccc1C(=O)[N-]c1ccc(C(=O)N2CCc3[n-]c([O-])c(O)c(=O)c3C2)cc1 (3D coordinates assigned)
Cc1ncccc1C(=O)[N-]c1ccc(C(=O)N2CCc3[n-]c([O-])c(O)c(=O)c3C2)cc1 (nonaromatic ring conformer: 70.54811058124974 kcal/mol)

>  <smiles>  (91) 
Cc1ncccc1C(=O)Nc1ccc(C(=O)N2CCc3[nH]c(O)c(O)c(=O)c3C2)cc1

>  <score_type>  (91) 
oracle

>  <origin>  (91) 
adg

>  <m_score__min__energy>  (91) 
-13.68

>  <m_primary>  (91) 
energy

$$$$
91:0
     RDKit          3D

 63 67  0  0  0  0  0  0  0  0999 V2000
   68.6370   26.2740   49.7750 C   0  0  0  0  0  0  0  0  0  0  0  0
   68.2750   26.3850   51.2230 C   0  0  0  0  0  0  0  0  0  0  0  0
   68.5500   25.4310   52.1370 N   0  0  0  0  0  0  0  0  0  0  0  0
   68.0980   25.8530   53.2820 O   0  0  0  0  0  0  0  0  0  0  0  0
   67.5350   27.0330   53.1650 C   0  0  0  0  0  0  0  0  0  0  0  0
   66.9080   27.7630   54.3080 C   0  0  0  0  0  0  0  0  0  0  0  0
   67.6320   27.4440   51.8450 C   0  0  0  0  0  0  0  0  0  0  0  0
   67.1450   28.6930   51.2240 C   0  0  0  0  0  0  0  0  0  0  0  0
   67.6010   29.0430   50.1040 O   0  0  0  0  0  0  0  0  0  0  0  0
   66.2100   29.5370   51.9080 N   0  0  0  0  0  0  0  0  0  0  0  0
   65.4200   30.5450   51.2520 C   0  0  0  0  0  0  0  0  0  0  0  0
   66.0610   31.5630   50.5340 C   0  0  0  0  0  0  0  0  0  0  0  0
   65.3140   32.5450   49.8800 C   0  0  0  0  0  0  0  0  0  0  0  0
   63.9190   32.5280   49.9480 C   0  0  0  0  0  0  0  0  0  0  0  0
   63.1990   33.4710   49.3010 N   0  0  0  0  0  0  0  0  0  0  0  0
   61.8410   33.4880   49.3380 C   0  0  0  0  0  0  0  0  0  0  0  0
   61.1390   34.5670   48.5640 C   0  0  0  0  0  0  0  0  0  0  0  0
   61.1540   32.5260   50.0520 N   0  0  0  0  0  0  0  0  0  0  0  0
   59.6730   32.5270   50.0940 C   0  0  0  0  0  0  0  0  0  0  0  0
   59.0760   31.9540   48.8310 C   0  0  0  0  0  0  0  0  0  0  0  0
   58.6200   32.8170   47.8250 C   0  0  0  0  0  0  0  0  0  0  0  0
   58.1050   32.3060   46.6320 C   0  0  0  0  0  0  0  0  0  0  0  0
   58.0480   30.9210   46.4240 C   0  0  0  0  0  0  0  0  0  0  0  0
   57.3660   30.2720   44.9370 S   0  0  0  0  0  0  0  0  0  0  0  0
   58.4870   29.9440   43.9920 O   0  0  0  0  0  0  0  0  0  0  0  0
   56.4830   31.2970   44.2770 O   0  0  0  0  0  0  0  0  0  0  0  0
   56.4390   28.8390   45.2280 N   0  0  0  0  0  0  0  0  0  0  0  0
   57.0130   27.6020   45.6520 C   0  0  0  0  0  0  0  0  0  0  0  0
   58.4040   27.4130   45.6470 C   0  0  0  0  0  0  0  0  0  0  0  0
   58.9450   26.1960   46.0610 C   0  0  0  0  0  0  0  0  0  0  0  0
   58.1000   25.1590   46.4750 C   0  0  0  0  0  0  0  0  0  0  0  0
   56.7150   25.3350   46.4620 C   0  0  0  0  0  0  0  0  0  0  0  0
   56.1680   26.5500   46.0450 C   0  0  0  0  0  0  0  0  0  0  0  0
   54.7860   26.7150   46.0320 O   0  0  0  0  0  0  0  0  0  0  0  0
   58.5200   30.0540   47.4150 C   0  0  0  0  0  0  0  0  0  0  0  0
   59.0370   30.5660   48.6100 C   0  0  0  0  0  0  0  0  0  0  0  0
   61.8560   31.5590   50.7320 C   0  0  0  0  0  0  0  0  0  0  0  0
   61.2420   30.6830   51.4060 O   0  0  0  0  0  0  0  0  0  0  0  0
   63.2600   31.5330   50.6860 C   0  0  0  0  0  0  0  0  0  0  0  0
   64.0160   30.5480   51.3480 C   0  0  0  0  0  0  0  0  0  0  0  0
   69.6850   25.9527   49.6826 H   0  0  0  0  0  0  0  0  0  0  0  0
   67.9828   25.5352   49.2891 H   0  0  0  0  0  0  0  0  0  0  0  0
   68.5093   27.2526   49.2891 H   0  0  0  0  0  0  0  0  0  0  0  0
   67.2711   27.3403   55.2564 H   0  0  0  0  0  0  0  0  0  0  0  0
   67.1770   28.8283   54.2545 H   0  0  0  0  0  0  0  0  0  0  0  0
   65.8143   27.6579   54.2545 H   0  0  0  0  0  0  0  0  0  0  0  0
   66.2190   29.5250   52.9520 H   0  0  0  0  0  0  0  0  0  0  0  0
   67.1596   31.5889   50.4851 H   0  0  0  0  0  0  0  0  0  0  0  0
   65.8257   33.3342   49.3096 H   0  0  0  0  0  0  0  0  0  0  0  0
   60.6762   35.2783   49.2639 H   0  0  0  0  0  0  0  0  0  0  0  0
   61.8662   35.0962   47.9307 H   0  0  0  0  0  0  0  0  0  0  0  0
   60.3605   34.1166   47.9307 H   0  0  0  0  0  0  0  0  0  0  0  0
   59.3407   31.9227   50.9510 H   0  0  0  0  0  0  0  0  0  0  0  0
   59.3343   33.5691   50.1901 H   0  0  0  0  0  0  0  0  0  0  0  0
   58.6682   33.9054   47.9766 H   0  0  0  0  0  0  0  0  0  0  0  0
   57.7428   32.9927   45.8527 H   0  0  0  0  0  0  0  0  0  0  0  0
   59.0678   28.2254   45.3163 H   0  0  0  0  0  0  0  0  0  0  0  0
   60.0354   26.0508   46.0623 H   0  0  0  0  0  0  0  0  0  0  0  0
   58.5285   24.2033   46.8113 H   0  0  0  0  0  0  0  0  0  0  0  0
   56.0540   24.5155   46.7807 H   0  0  0  0  0  0  0  0  0  0  0  0
   58.4846   28.9664   47.2543 H   0  0  0  0  0  0  0  0  0  0  0  0
   59.4151   29.8787   49.3811 H   0  0  0  0  0  0  0  0  0  0  0  0
   63.5068   29.7761   51.9438 H   0  0  0  0  0  0  0  0  0  0  0  0
  1  2  1  0
  2  3  2  0
  3  4  1  0
  4  5  1  0
  5  6  1  0
  5  7  2  0
  7  8  1  0
  8  9  2  0
  8 10  1  0
 10 11  1  0
 11 12  2  0
 12 13  1  0
 13 14  2  0
 14 15  1  0
 15 16  2  0
 16 17  1  0
 16 18  1  0
 18 19  1  0
 19 20  1  0
 20 21  2  0
 21 22  1  0
 22 23  2  0
 23 24  1  0
 24 25  2  0
 24 26  2  0
 24 27  1  0
 27 28  1  0
 28 29  2  0
 29 30  1  0
 30 31  2  0
 31 32  1  0
 32 33  2  0
 33 34  1  0
 23 35  1  0
 35 36  2  0
 18 37  1  0
 37 38  2  0
 37 39  1  0
 39 40  2  0
  7  2  1  0
 40 11  1  0
 39 14  1  0
 36 20  1  0
 33 28  1  0
  1 41  1  0
  1 42  1  0
  1 43  1  0
  6 44  1  0
  6 45  1  0
  6 46  1  0
 10 47  1  0
 12 48  1  0
 13 49  1  0
 17 50  1  0
 17 51  1  0
 17 52  1  0
 19 53  1  0
 19 54  1  0
 21 55  1  0
 22 56  1  0
 29 57  1  0
 30 58  1  0
 31 59  1  0
 32 60  1  0
 35 61  1  0
 36 62  1  0
 40 63  1  0
M  CHG  2  27  -1  34  -1
M  END
>  <UniqueID>  (92) 
86

>  <SMILES>  (92) 
Cc1noc(C)c1C(=O)Nc1ccc2nc(C)n(Cc3ccc(S(=O)(=O)[N-]c4ccccc4[O-])cc3)c(=O)c2c1

>  <Energy>  (92) 
119.60074894274693

>  <Genealogy>  (92) 
Cc1noc(C)c1C(=O)Nc1ccc2nc(C)n(Cc3ccc(S(=O)(=O)[N-]c4ccccc4[O-])cc3)c(=O)c2c1 (protonated)
Cc1noc(C)c1C(=O)Nc1ccc2nc(C)n(Cc3ccc(S(=O)(=O)[N-]c4ccccc4[O-])cc3)c(=O)c2c1 (3D coordinates assigned)
Cc1noc(C)c1C(=O)Nc1ccc2nc(C)n(Cc3ccc(S(=O)(=O)[N-]c4ccccc4[O-])cc3)c(=O)c2c1 (optimized conformer: 119.60074894274693 kcal/mol)

>  <smiles>  (92) 
Cc1noc(C)c1C(=O)Nc1ccc2nc(C)n(Cc3ccc(S(=O)(=O)Nc4ccccc4O)cc3)c(=O)c2c1

>  <score_type>  (92) 
oracle

>  <origin>  (92) 
adg

>  <m_score__min__energy>  (92) 
-15.52

>  <m_primary>  (92) 
energy

$$$$
92:0
     RDKit          3D

 64 67  0  0  0  0  0  0  0  0999 V2000
   64.7133   32.8581   47.2632 H   0  0  0  0  0  0  0  0  0  0  0  0
   63.8040   33.0460   47.8530 C   0  0  0  0  0  0  0  0  0  0  0  0
   63.6730   32.5000   49.0910 N   0  0  0  0  0  0  0  0  0  0  0  0
   62.5610   32.7010   49.8480 C   0  0  0  0  0  0  0  0  0  0  0  0
   62.4918   32.2525   50.8500 H   0  0  0  0  0  0  0  0  0  0  0  0
   61.5010   33.4790   49.3550 C   0  0  0  0  0  0  0  0  0  0  0  0
   60.2760   33.7370   50.1930 C   0  0  0  0  0  0  0  0  0  0  0  0
   60.1077   34.8220   50.2590 H   0  0  0  0  0  0  0  0  0  0  0  0
   60.4403   33.3101   51.1934 H   0  0  0  0  0  0  0  0  0  0  0  0
   59.0930   33.1040   49.6050 N   0  0  0  0  0  0  0  0  0  0  0  0
   58.9420   32.5380   48.4370 C   0  0  0  0  0  0  0  0  0  0  0  0
   58.6730   33.3440   47.3790 N   0  0  0  0  0  0  0  0  0  0  0  0
   58.5130   32.8770   46.1130 C   0  0  0  0  0  0  0  0  0  0  0  0
   58.2080   33.8420   44.9670 C   0  0  0  0  0  0  0  0  0  0  0  0
   58.2190   33.0790   43.6250 C   0  0  0  0  0  0  0  0  0  0  0  0
   58.2346   31.9963   43.8189 H   0  0  0  0  0  0  0  0  0  0  0  0
   57.3171   33.3355   43.0499 H   0  0  0  0  0  0  0  0  0  0  0  0
   59.1132   33.3614   43.0499 H   0  0  0  0  0  0  0  0  0  0  0  0
   59.2660   34.9670   44.8930 C   0  0  0  0  0  0  0  0  0  0  0  0
   59.5509   35.2700   45.9114 H   0  0  0  0  0  0  0  0  0  0  0  0
   60.1542   34.6004   44.3575 H   0  0  0  0  0  0  0  0  0  0  0  0
   58.8456   35.8310   44.3575 H   0  0  0  0  0  0  0  0  0  0  0  0
   56.8250   34.4880   45.1840 C   0  0  0  0  0  0  0  0  0  0  0  0
   56.6283   34.5799   46.2624 H   0  0  0  0  0  0  0  0  0  0  0  0
   56.8101   35.4863   44.7222 H   0  0  0  0  0  0  0  0  0  0  0  0
   56.0499   33.8588   44.7222 H   0  0  0  0  0  0  0  0  0  0  0  0
   58.6320   31.4970   45.8940 C   0  0  0  0  0  0  0  0  0  0  0  0
   58.5113   31.0902   44.8791 H   0  0  0  0  0  0  0  0  0  0  0  0
   58.8970   30.6580   46.9360 N   0  0  0  0  0  0  0  0  0  0  0  0
   59.0070   29.2480   46.6740 C   0  0  0  0  0  0  0  0  0  0  0  0
   60.1570   28.5700   47.0910 C   0  0  0  0  0  0  0  0  0  0  0  0
   60.9545   29.1190   47.6130 H   0  0  0  0  0  0  0  0  0  0  0  0
   60.3010   27.2060   46.8510 C   0  0  0  0  0  0  0  0  0  0  0  0
   61.2171   26.6884   47.1717 H   0  0  0  0  0  0  0  0  0  0  0  0
   59.2870   26.4890   46.2040 C   0  0  0  0  0  0  0  0  0  0  0  0
   59.4480   25.0090   45.9750 C   0  0  0  0  0  0  0  0  0  0  0  0
   59.5042   24.4920   46.9443 H   0  0  0  0  0  0  0  0  0  0  0  0
   58.5858   24.6300   45.4067 H   0  0  0  0  0  0  0  0  0  0  0  0
   60.3715   24.8242   45.4067 H   0  0  0  0  0  0  0  0  0  0  0  0
   58.1060   27.1480   45.8090 C   0  0  0  0  0  0  0  0  0  0  0  0
   57.0660   26.3870   45.1780 N   0  0  0  0  0  0  0  0  0  0  0  0
   56.0170   25.7180   45.8900 C   0  0  0  0  0  0  0  0  0  0  0  0
   54.8880   26.2690   46.0050 O   0  0  0  0  0  0  0  0  0  0  0  0
   56.2670   24.4010   46.5160 C   0  0  0  0  0  0  0  0  0  0  0  0
   56.9090   24.3040   47.7630 C   0  0  0  0  0  0  0  0  0  0  0  0
   57.2249   25.2179   48.2875 H   0  0  0  0  0  0  0  0  0  0  0  0
   57.1420   23.0880   48.3250 N   0  0  0  0  0  0  0  0  0  0  0  0
   56.7650   21.9340   47.7160 C   0  0  0  0  0  0  0  0  0  0  0  0
   57.0060   20.8270   48.2650 O   0  0  0  0  0  0  0  0  0  0  0  0
   56.1170   21.9760   46.4800 C   0  0  0  0  0  0  0  0  0  0  0  0
   55.8047   21.0447   45.9849 H   0  0  0  0  0  0  0  0  0  0  0  0
   55.8690   23.2120   45.8780 C   0  0  0  0  0  0  0  0  0  0  0  0
   55.3615   23.2556   44.9031 H   0  0  0  0  0  0  0  0  0  0  0  0
   57.9800   28.5490   45.9980 C   0  0  0  0  0  0  0  0  0  0  0  0
   56.7730   29.2990   45.4860 C   0  0  0  0  0  0  0  0  0  0  0  0
   56.1814   29.6666   46.3374 H   0  0  0  0  0  0  0  0  0  0  0  0
   57.1033   30.1512   44.8739 H   0  0  0  0  0  0  0  0  0  0  0  0
   56.1553   28.6254   44.8739 H   0  0  0  0  0  0  0  0  0  0  0  0
   59.0480   31.1430   48.2080 C   0  0  0  0  0  0  0  0  0  0  0  0
   59.2780   30.3400   49.1530 O   0  0  0  0  0  0  0  0  0  0  0  0
   61.6350   34.0680   48.0870 C   0  0  0  0  0  0  0  0  0  0  0  0
   60.8316   34.7062   47.6904 H   0  0  0  0  0  0  0  0  0  0  0  0
   62.7860   33.8450   47.3290 C   0  0  0  0  0  0  0  0  0  0  0  0
   62.8897   34.2938   46.3301 H   0  0  0  0  0  0  0  0  0  0  0  0
  1  2  1  0
  2  3  2  0
  3  4  1  0
  4  5  1  0
  4  6  2  0
  6  7  1  0
  7  8  1  0
  7  9  1  0
  7 10  1  0
 10 11  2  0
 11 12  1  0
 12 13  1  0
 13 14  1  0
 14 15  1  0
 15 16  1  0
 15 17  1  0
 15 18  1  0
 14 19  1  0
 19 20  1  0
 19 21  1  0
 19 22  1  0
 14 23  1  0
 23 24  1  0
 23 25  1  0
 23 26  1  0
 13 27  2  0
 27 28  1  0
 27 29  1  0
 29 30  1  0
 30 31  2  0
 31 32  1  0
 31 33  1  0
 33 34  1  0
 33 35  2  0
 35 36  1  0
 36 37  1  0
 36 38  1  0
 36 39  1  0
 35 40  1  0
 40 41  1  0
 41 42  1  0
 42 43  2  0
 42 44  1  0
 44 45  2  0
 45 46  1  0
 45 47  1  0
 47 48  1  0
 48 49  2  0
 48 50  1  0
 50 51  1  0
 50 52  2  0
 52 53  1  0
 40 54  2  0
 54 55  1  0
 55 56  1  0
 55 57  1  0
 55 58  1  0
 29 59  1  0
 59 60  2  0
  6 61  1  0
 61 62  1  0
 61 63  2  0
 63 64  1  0
 63  2  1  0
 59 11  1  0
 54 30  1  0
 52 44  1  0
M  CHG  3  12  -1  41  -1  47  -1
M  END
>  <UniqueID>  (93) 
87

>  <SMILES>  (93) 
Cc1ccc(-n2cc(C(C)(C)C)[n-]/c(=N/Cc3cccnc3)c2=O)c(C)c1[N-]C(=O)c1ccc(=O)[n-]c1

>  <Energy>  (93) 
90.88416023028789

>  <Genealogy>  (93) 
Cc1ccc(-n2cc(C(C)(C)C)[n-]c(=NCc3cccnc3)c2=O)c(C)c1[N-]C(=O)c1ccc(=O)[n-]c1 (protonated)
Cc1ccc(-n2cc(C(C)(C)C)[n-]/c(=N/Cc3cccnc3)c2=O)c(C)c1[N-]C(=O)c1ccc(=O)[n-]c1 (cis-trans isomerization)
Cc1ccc(-n2cc(C(C)(C)C)[n-]/c(=N/Cc3cccnc3)c2=O)c(C)c1[N-]C(=O)c1ccc(=O)[n-]c1 (3D coordinates assigned)
Cc1ccc(-n2cc(C(C)(C)C)[n-]/c(=N/Cc3cccnc3)c2=O)c(C)c1[N-]C(=O)c1ccc(=O)[n-]c1 (optimized conformer: 90.88416023028789 kcal/mol)

>  <smiles>  (93) 
Cc1ccc(-n2cc(C(C)(C)C)[nH]c(=NCc3cccnc3)c2=O)c(C)c1NC(=O)c1ccc(=O)[nH]c1

>  <score_type>  (93) 
oracle

>  <origin>  (93) 
adg

>  <m_score__min__energy>  (93) 
-14.25

>  <m_primary>  (93) 
energy

$$$$
93:0
     RDKit          3D

 43 46  0  0  0  0  0  0  0  0999 V2000
   57.7687   26.8325   44.2784 H   0  0  0  0  0  0  0  0  0  0  0  0
   57.9580   26.8290   45.3620 C   0  0  0  0  0  0  0  0  0  0  0  0
   58.8080   27.7590   45.8440 C   0  0  0  0  0  0  0  0  0  0  0  0
   60.0220   27.4180   46.6230 C   0  0  0  0  0  0  0  0  0  0  0  0
   60.1220   27.7620   47.8300 O   0  0  0  0  0  0  0  0  0  0  0  0
   61.0260   26.6340   46.0650 O   0  0  0  0  0  0  0  0  0  0  0  0
   58.4630   29.1900   45.6660 C   0  0  0  0  0  0  0  0  0  0  0  0
   57.9290   29.6480   44.4520 C   0  0  0  0  0  0  0  0  0  0  0  0
   57.7692   28.9422   43.6235 H   0  0  0  0  0  0  0  0  0  0  0  0
   57.5990   30.9970   44.2900 C   0  0  0  0  0  0  0  0  0  0  0  0
   57.1854   31.3455   43.3322 H   0  0  0  0  0  0  0  0  0  0  0  0
   57.7900   31.9080   45.3350 C   0  0  0  0  0  0  0  0  0  0  0  0
   57.4330   33.2490   45.1190 O   0  0  0  0  0  0  0  0  0  0  0  0
   58.3460   34.3440   45.0410 C   0  0  0  0  0  0  0  0  0  0  0  0
   58.9025   34.2835   44.0941 H   0  0  0  0  0  0  0  0  0  0  0  0
   57.7764   35.2838   45.0892 H   0  0  0  0  0  0  0  0  0  0  0  0
   59.3160   34.3080   46.1860 C   0  0  0  0  0  0  0  0  0  0  0  0
   60.6070   33.9340   45.9640 N   0  0  0  0  0  0  0  0  0  0  0  0
   61.5220   33.8780   46.9690 C   0  0  0  0  0  0  0  0  0  0  0  0
   62.8380   33.4840   46.7010 C   0  0  0  0  0  0  0  0  0  0  0  0
   63.1355   33.2215   45.6750 H   0  0  0  0  0  0  0  0  0  0  0  0
   63.7750   33.4240   47.7380 C   0  0  0  0  0  0  0  0  0  0  0  0
   64.8085   33.1126   47.5261 H   0  0  0  0  0  0  0  0  0  0  0  0
   63.4010   33.7590   49.0440 C   0  0  0  0  0  0  0  0  0  0  0  0
   64.1423   33.7114   49.8553 H   0  0  0  0  0  0  0  0  0  0  0  0
   62.0890   34.1540   49.3220 C   0  0  0  0  0  0  0  0  0  0  0  0
   61.7987   34.4165   50.3500 H   0  0  0  0  0  0  0  0  0  0  0  0
   61.1430   34.2150   48.2870 C   0  0  0  0  0  0  0  0  0  0  0  0
   59.8200   34.6080   48.5320 C   0  0  0  0  0  0  0  0  0  0  0  0
   59.5046   34.8786   49.5505 H   0  0  0  0  0  0  0  0  0  0  0  0
   58.9040   34.6550   47.4800 C   0  0  0  0  0  0  0  0  0  0  0  0
   57.8643   34.9627   47.6654 H   0  0  0  0  0  0  0  0  0  0  0  0
   58.3280   31.4500   46.5530 C   0  0  0  0  0  0  0  0  0  0  0  0
   58.4902   32.1569   47.3801 H   0  0  0  0  0  0  0  0  0  0  0  0
   58.6570   30.1010   46.7160 C   0  0  0  0  0  0  0  0  0  0  0  0
   59.0706   29.7513   47.6734 H   0  0  0  0  0  0  0  0  0  0  0  0
   57.2600   25.8060   46.1680 C   0  0  0  0  0  0  0  0  0  0  0  0
   57.8280   24.6990   46.6810 N   0  0  0  0  0  0  0  0  0  0  0  0
   56.7860   24.0410   47.2340 C   0  0  0  0  0  0  0  0  0  0  0  0
   56.9190   22.9420   47.8330 O   0  0  0  0  0  0  0  0  0  0  0  0
   55.5900   24.6470   47.0860 N   0  0  0  0  0  0  0  0  0  0  0  0
   55.9070   25.7580   46.4010 C   0  0  0  0  0  0  0  0  0  0  0  0
   54.9770   26.7060   45.9920 O   0  0  0  0  0  0  0  0  0  0  0  0
  1  2  1  0
  2  3  2  0
  3  4  1  0
  4  5  2  0
  4  6  1  0
  3  7  1  0
  7  8  2  0
  8  9  1  0
  8 10  1  0
 10 11  1  0
 10 12  2  0
 12 13  1  0
 13 14  1  0
 14 15  1  0
 14 16  1  0
 14 17  1  0
 17 18  2  0
 18 19  1  0
 19 20  2  0
 20 21  1  0
 20 22  1  0
 22 23  1  0
 22 24  2  0
 24 25  1  0
 24 26  1  0
 26 27  1  0
 26 28  2  0
 28 29  1  0
 29 30  1  0
 29 31  2  0
 31 32  1  0
 12 33  1  0
 33 34  1  0
 33 35  2  0
 35 36  1  0
  2 37  1  0
 37 38  1  0
 38 39  1  0
 39 40  2  0
 39 41  1  0
 41 42  1  0
 42 43  1  0
 35  7  1  0
 42 37  2  0
 31 17  1  0
 28 19  1  0
M  CHG  4   6  -1  38  -1  41  -1  43  -1
M  END
>  <UniqueID>  (94) 
88

>  <SMILES>  (94) 
O=C([O-])/C(=C\c1[n-]c(=O)[n-]c1[O-])c1ccc(OCc2ccc3ccccc3n2)cc1

>  <Energy>  (94) 
93.40430538140468

>  <Genealogy>  (94) 
O=C([O-])C(=Cc1[n-]c(=O)[n-]c1[O-])c1ccc(OCc2ccc3ccccc3n2)cc1 (protonated)
O=C([O-])/C(=C\c1[n-]c(=O)[n-]c1[O-])c1ccc(OCc2ccc3ccccc3n2)cc1 (cis-trans isomerization)
O=C([O-])/C(=C\c1[n-]c(=O)[n-]c1[O-])c1ccc(OCc2ccc3ccccc3n2)cc1 (3D coordinates assigned)
O=C([O-])/C(=C\c1[n-]c(=O)[n-]c1[O-])c1ccc(OCc2ccc3ccccc3n2)cc1 (optimized conformer: 93.40430538140468 kcal/mol)

>  <smiles>  (94) 
O=C(O)C(=Cc1[nH]c(=O)[nH]c1O)c1ccc(OCc2ccc3ccccc3n2)cc1

>  <score_type>  (94) 
oracle

>  <origin>  (94) 
adg

>  <m_score__min__energy>  (94) 
-19.07

>  <m_primary>  (94) 
energy

$$$$
94:0
     RDKit          3D

 35 36  0  0  0  0  0  0  0  0999 V2000
   53.6520   24.8490   45.6160 C   0  0  0  0  0  0  0  0  0  0  0  0
   54.7450   25.7440   45.7840 O   0  0  0  0  0  0  0  0  0  0  0  0
   56.0980   25.3660   45.7510 C   0  0  0  0  0  0  0  0  0  0  0  0
   56.4940   24.0130   45.7490 C   0  0  0  0  0  0  0  0  0  0  0  0
   57.8490   23.6750   45.7140 C   0  0  0  0  0  0  0  0  0  0  0  0
   58.8200   24.6760   45.6880 C   0  0  0  0  0  0  0  0  0  0  0  0
   58.4400   26.0200   45.6900 C   0  0  0  0  0  0  0  0  0  0  0  0
   57.0800   26.3740   45.7060 C   0  0  0  0  0  0  0  0  0  0  0  0
   56.6800   27.7540   45.7370 N   0  0  0  0  0  0  0  0  0  0  0  0
   57.2650   28.7730   44.9090 C   0  0  0  0  0  0  0  0  0  0  0  0
   58.2980   28.5310   44.2290 O   0  0  0  0  0  0  0  0  0  0  0  0
   56.7070   30.0920   44.8650 N   0  0  0  0  0  0  0  0  0  0  0  0
   57.3980   31.3030   45.1980 C   0  0  0  0  0  0  0  0  0  0  0  0
   57.3980   32.4130   44.3320 C   0  0  0  0  0  0  0  0  0  0  0  0
   58.1040   33.5700   44.6730 C   0  0  0  0  0  0  0  0  0  0  0  0
   58.8280   33.6250   45.8690 C   0  0  0  0  0  0  0  0  0  0  0  0
   59.7350   35.1110   46.3030 S   0  0  0  0  0  0  0  0  0  0  0  0
   60.0600   34.5600   48.0070 C   0  0  0  0  0  0  0  0  0  0  0  0
   58.8570   32.5120   46.7170 C   0  0  0  0  0  0  0  0  0  0  0  0
   58.1510   31.3530   46.3780 C   0  0  0  0  0  0  0  0  0  0  0  0
   53.2755   24.5407   46.6025 H   0  0  0  0  0  0  0  0  0  0  0  0
   52.8487   25.3520   45.0578 H   0  0  0  0  0  0  0  0  0  0  0  0
   53.9867   23.9622   45.0578 H   0  0  0  0  0  0  0  0  0  0  0  0
   55.7324   23.2197   45.7751 H   0  0  0  0  0  0  0  0  0  0  0  0
   58.1508   22.6172   45.7069 H   0  0  0  0  0  0  0  0  0  0  0  0
   59.8863   24.4066   45.6659 H   0  0  0  0  0  0  0  0  0  0  0  0
   59.2096   26.8059   45.6790 H   0  0  0  0  0  0  0  0  0  0  0  0
   55.8560   28.0050   46.3270 H   0  0  0  0  0  0  0  0  0  0  0  0
   56.8409   32.3695   43.3845 H   0  0  0  0  0  0  0  0  0  0  0  0
   58.0904   34.4395   43.9994 H   0  0  0  0  0  0  0  0  0  0  0  0
   59.6322   35.2853   48.7148 H   0  0  0  0  0  0  0  0  0  0  0  0
   59.5985   33.5746   48.1680 H   0  0  0  0  0  0  0  0  0  0  0  0
   61.1457   34.4872   48.1680 H   0  0  0  0  0  0  0  0  0  0  0  0
   59.4359   32.5487   47.6516 H   0  0  0  0  0  0  0  0  0  0  0  0
   58.1874   30.4764   47.0415 H   0  0  0  0  0  0  0  0  0  0  0  0
  1  2  1  0
  2  3  1  0
  3  4  2  0
  4  5  1  0
  5  6  2  0
  6  7  1  0
  7  8  2  0
  8  9  1  0
  9 10  1  0
 10 11  2  0
 10 12  1  0
 12 13  1  0
 13 14  2  0
 14 15  1  0
 15 16  2  0
 16 17  1  0
 17 18  1  0
 16 19  1  0
 19 20  2  0
  8  3  1  0
 20 13  1  0
  1 21  1  0
  1 22  1  0
  1 23  1  0
  4 24  1  0
  5 25  1  0
  6 26  1  0
  7 27  1  0
  9 28  1  0
 14 29  1  0
 15 30  1  0
 18 31  1  0
 18 32  1  0
 18 33  1  0
 19 34  1  0
 20 35  1  0
M  CHG  1  12  -1
M  END
>  <UniqueID>  (95) 
89

>  <SMILES>  (95) 
COc1ccccc1NC(=O)[N-]c1ccc(SC)cc1

>  <Energy>  (95) 
38.88188202585993

>  <Genealogy>  (95) 
COc1ccccc1NC(=O)[N-]c1ccc(SC)cc1 (protonated)
COc1ccccc1NC(=O)[N-]c1ccc(SC)cc1 (3D coordinates assigned)
COc1ccccc1NC(=O)[N-]c1ccc(SC)cc1 (optimized conformer: 38.88188202585993 kcal/mol)

>  <smiles>  (95) 
COc1ccccc1NC(=O)Nc1ccc(SC)cc1

>  <score_type>  (95) 
oracle

>  <origin>  (95) 
adg

>  <m_score__min__energy>  (95) 
-8.8100000000000005

>  <m_primary>  (95) 
energy

$$$$
95:0
     RDKit          3D

 59 63  0  0  0  0  0  0  0  0999 V2000
   62.6230   33.4660   46.6890 C   0  0  0  0  0  0  0  0  0  0  0  0
   62.5160   33.1010   48.0930 N   0  0  0  0  0  0  0  0  0  0  0  0
   63.8200   32.6810   48.5720 C   0  0  0  0  0  0  0  0  0  0  0  0
   63.6300   32.0440   49.9280 C   0  0  0  0  0  0  0  0  0  0  0  0
   62.7940   32.8780   50.7240 N   0  0  0  0  0  0  0  0  0  0  0  0
   61.7390   32.2450   51.4250 C   0  0  0  0  0  0  0  0  0  0  0  0
   61.4780   30.9120   50.8450 C   0  0  0  0  0  0  0  0  0  0  0  0
   61.7830   29.7220   51.4660 C   0  0  0  0  0  0  0  0  0  0  0  0
   61.5120   28.5050   50.8610 C   0  0  0  0  0  0  0  0  0  0  0  0
   60.9280   28.4380   49.6120 C   0  0  0  0  0  0  0  0  0  0  0  0
   60.6160   29.6230   48.9770 C   0  0  0  0  0  0  0  0  0  0  0  0
   60.0110   29.6670   47.6880 N   0  0  0  0  0  0  0  0  0  0  0  0
   58.9380   28.8570   47.2840 C   0  0  0  0  0  0  0  0  0  0  0  0
   58.4800   28.0310   48.1260 O   0  0  0  0  0  0  0  0  0  0  0  0
   58.3300   28.9150   45.9580 C   0  0  0  0  0  0  0  0  0  0  0  0
   57.9210   27.7740   45.2890 C   0  0  0  0  0  0  0  0  0  0  0  0
   57.3570   27.8610   44.0560 N   0  0  0  0  0  0  0  0  0  0  0  0
   57.1670   29.0280   43.4250 C   0  0  0  0  0  0  0  0  0  0  0  0
   56.6470   29.0380   42.2990 O   0  0  0  0  0  0  0  0  0  0  0  0
   57.5710   30.1810   44.0790 C   0  0  0  0  0  0  0  0  0  0  0  0
   57.3880   31.4060   43.4520 C   0  0  0  0  0  0  0  0  0  0  0  0
   57.7820   32.5890   44.0790 C   0  0  0  0  0  0  0  0  0  0  0  0
   58.3600   32.5690   45.3320 C   0  0  0  0  0  0  0  0  0  0  0  0
   58.7830   33.8070   46.0110 C   0  0  0  0  0  0  0  0  0  0  0  0
   59.4040   34.8880   45.4120 C   0  0  0  0  0  0  0  0  0  0  0  0
   59.6360   35.8280   46.3450 N   0  0  0  0  0  0  0  0  0  0  0  0
   59.1840   35.3690   47.4840 N   0  0  0  0  0  0  0  0  0  0  0  0
   58.6510   34.1370   47.3450 C   0  0  0  0  0  0  0  0  0  0  0  0
   58.5410   31.3340   45.9570 C   0  0  0  0  0  0  0  0  0  0  0  0
   58.1500   30.1500   45.3360 C   0  0  0  0  0  0  0  0  0  0  0  0
   60.8910   30.8410   49.5930 C   0  0  0  0  0  0  0  0  0  0  0  0
   62.6060   34.2070   50.2770 C   0  0  0  0  0  0  0  0  0  0  0  0
   62.0160   34.2290   48.8600 C   0  0  0  0  0  0  0  0  0  0  0  0
   62.9316   34.5186   46.6063 H   0  0  0  0  0  0  0  0  0  0  0  0
   63.3710   32.8250   46.1995 H   0  0  0  0  0  0  0  0  0  0  0  0
   61.6473   33.3304   46.1995 H   0  0  0  0  0  0  0  0  0  0  0  0
   64.2581   31.9522   47.8742 H   0  0  0  0  0  0  0  0  0  0  0  0
   64.4991   33.5433   48.6441 H   0  0  0  0  0  0  0  0  0  0  0  0
   63.1585   31.0574   49.8082 H   0  0  0  0  0  0  0  0  0  0  0  0
   64.6066   31.9227   50.4195 H   0  0  0  0  0  0  0  0  0  0  0  0
   62.0192   32.1339   52.4829 H   0  0  0  0  0  0  0  0  0  0  0  0
   60.8303   32.8595   51.3433 H   0  0  0  0  0  0  0  0  0  0  0  0
   62.2508   29.7373   52.4615 H   0  0  0  0  0  0  0  0  0  0  0  0
   61.7675   27.5732   51.3869 H   0  0  0  0  0  0  0  0  0  0  0  0
   60.7175   27.4686   49.1368 H   0  0  0  0  0  0  0  0  0  0  0  0
   60.3920   30.3580   46.9770 H   0  0  0  0  0  0  0  0  0  0  0  0
   58.0538   26.7887   45.7597 H   0  0  0  0  0  0  0  0  0  0  0  0
   57.0680   26.9630   43.6000 H   0  0  0  0  0  0  0  0  0  0  0  0
   56.9289   31.4446   42.4532 H   0  0  0  0  0  0  0  0  0  0  0  0
   57.6297   33.5508   43.5673 H   0  0  0  0  0  0  0  0  0  0  0  0
   59.6654   34.9660   44.3464 H   0  0  0  0  0  0  0  0  0  0  0  0
   59.2430   35.9120   48.3860 H   0  0  0  0  0  0  0  0  0  0  0  0
   58.2013   33.5193   48.1363 H   0  0  0  0  0  0  0  0  0  0  0  0
   58.9998   31.2952   46.9560 H   0  0  0  0  0  0  0  0  0  0  0  0
   60.6345   31.7740   49.0698 H   0  0  0  0  0  0  0  0  0  0  0  0
   61.9176   34.7236   50.9620 H   0  0  0  0  0  0  0  0  0  0  0  0
   63.5821   34.7138   50.2596 H   0  0  0  0  0  0  0  0  0  0  0  0
   60.9193   34.1695   48.9216 H   0  0  0  0  0  0  0  0  0  0  0  0
   62.3129   35.1633   48.3611 H   0  0  0  0  0  0  0  0  0  0  0  0
  1  2  1  0
  2  3  1  0
  3  4  1  0
  4  5  1  0
  5  6  1  0
  6  7  1  0
  7  8  2  0
  8  9  1  0
  9 10  2  0
 10 11  1  0
 11 12  1  0
 12 13  1  0
 13 14  2  0
 13 15  1  0
 15 16  2  0
 16 17  1  0
 17 18  1  0
 18 19  2  0
 18 20  1  0
 20 21  2  0
 21 22  1  0
 22 23  2  0
 23 24  1  0
 24 25  1  0
 25 26  2  0
 26 27  1  0
 27 28  1  0
 23 29  1  0
 29 30  2  0
 11 31  2  0
  5 32  1  0
 32 33  1  0
 33  2  1  0
 31  7  1  0
 30 15  1  0
 30 20  1  0
 28 24  2  0
  1 34  1  0
  1 35  1  0
  1 36  1  0
  3 37  1  0
  3 38  1  0
  4 39  1  0
  4 40  1  0
  6 41  1  0
  6 42  1  0
  8 43  1  0
  9 44  1  0
 10 45  1  0
 12 46  1  0
 16 47  1  0
 17 48  1  0
 21 49  1  0
 22 50  1  0
 25 51  1  0
 27 52  1  0
 28 53  1  0
 29 54  1  0
 31 55  1  0
 32 56  1  0
 32 57  1  0
 33 58  1  0
 33 59  1  0
M  END
>  <smiles>  (96) 
CN1CCN(Cc2cccc(NC(=O)c3c[nH]c(=O)c4ccc(-c5cn[nH]c5)cc34)c2)CC1

>  <score_type>  (96) 
oracle

>  <origin>  (96) 
adg

>  <m_score__min__energy>  (96) 
-8.9900000000000002

>  <m_primary>  (96) 
energy

$$$$
96:0
     RDKit          3D

 25 26  0  0  0  0  0  0  0  0999 V2000
   59.9540   27.9300   45.2930 O   0  0  0  0  0  0  0  0  0  0  0  0
   58.5070   28.2770   45.0790 S   0  0  0  0  0  0  0  0  0  0  0  0
   58.0710   27.7640   43.7360 O   0  0  0  0  0  0  0  0  0  0  0  0
   57.5510   27.5050   46.3080 N   0  0  0  0  0  0  0  0  0  0  0  0
   56.7920   26.4580   46.1560 C   0  0  0  0  0  0  0  0  0  0  0  0
   57.2960   25.1440   46.1560 C   0  0  0  0  0  0  0  0  0  0  0  0
   56.4150   24.0770   45.9950 C   0  0  0  0  0  0  0  0  0  0  0  0
   55.0550   24.3340   45.8370 C   0  0  0  0  0  0  0  0  0  0  0  0
   53.9170   23.0180   45.6310 Cl  0  0  0  0  0  0  0  0  0  0  0  0
   54.6130   25.6170   45.8430 N   0  0  0  0  0  0  0  0  0  0  0  0
   55.4540   26.6420   45.9970 N   0  0  0  0  0  0  0  0  0  0  0  0
   58.2710   30.0240   45.1230 C   0  0  0  0  0  0  0  0  0  0  0  0
   59.2340   30.9030   45.6410 C   0  0  0  0  0  0  0  0  0  0  0  0
   58.8640   32.2390   45.5730 C   0  0  0  0  0  0  0  0  0  0  0  0
   57.3380   32.3290   44.8760 S   0  0  0  0  0  0  0  0  0  0  0  0
   57.1240   30.6740   44.6670 C   0  0  0  0  0  0  0  0  0  0  0  0
   55.9260   30.0520   44.0160 C   0  0  0  0  0  0  0  0  0  0  0  0
   55.4720   28.9670   44.7760 O   0  0  0  0  0  0  0  0  0  0  0  0
   58.3735   24.9616   46.2817 H   0  0  0  0  0  0  0  0  0  0  0  0
   56.7892   23.0426   45.9927 H   0  0  0  0  0  0  0  0  0  0  0  0
   60.1925   30.5650   46.0616 H   0  0  0  0  0  0  0  0  0  0  0  0
   59.4667   33.0927   45.9166 H   0  0  0  0  0  0  0  0  0  0  0  0
   55.1247   30.8015   43.9377 H   0  0  0  0  0  0  0  0  0  0  0  0
   56.2062   29.6961   43.0136 H   0  0  0  0  0  0  0  0  0  0  0  0
   56.1690   28.2630   44.7110 H   0  0  0  0  0  0  0  0  0  0  0  0
  1  2  2  0
  2  3  2  0
  2  4  1  0
  4  5  2  3
  5  6  1  0
  6  7  2  0
  7  8  1  0
  8  9  1  0
  8 10  2  0
 10 11  1  0
  2 12  1  0
 12 13  1  0
 13 14  2  0
 14 15  1  0
 15 16  1  0
 16 17  1  0
 17 18  1  0
 11  5  1  0
 16 12  2  0
  6 19  1  0
  7 20  1  0
 13 21  1  0
 14 22  1  0
 17 23  1  0
 17 24  1  0
 18 25  1  0
M  CHG  1  11  -1
M  END
>  <UniqueID>  (97) 
90

>  <SMILES>  (97) 
O=S(=O)(N=c1ccc(Cl)n[n-]1)c1ccsc1CO

>  <Energy>  (97) 
56.711437808625206

>  <Genealogy>  (97) 
O=S(=O)(N=c1ccc(Cl)n[n-]1)c1ccsc1CO (protonated)
O=S(=O)(N=c1ccc(Cl)n[n-]1)c1ccsc1CO (3D coordinates assigned)
O=S(=O)(N=c1ccc(Cl)n[n-]1)c1ccsc1CO (optimized conformer: 56.711437808625206 kcal/mol)

>  <smiles>  (97) 
O=S(=O)(N=c1ccc(Cl)n[nH]1)c1ccsc1CO

>  <score_type>  (97) 
oracle

>  <origin>  (97) 
adg

>  <m_score__min__energy>  (97) 
-8.8300000000000001

>  <m_primary>  (97) 
energy

$$$$
97:0
     RDKit          3D

 47 49  0  0  0  0  0  0  0  0999 V2000
   55.6430   31.3290   53.3324 H   0  0  0  0  0  0  0  0  0  0  0  0
   55.6570   30.8610   52.3370 C   0  0  0  0  0  0  0  0  0  0  0  0
   56.9370   30.8100   51.6020 C   0  0  0  0  0  0  0  0  0  0  0  0
   57.5880   29.7300   51.6150 O   0  0  0  0  0  0  0  0  0  0  0  0
   57.4710   31.9660   50.9280 N   0  0  0  0  0  0  0  0  0  0  0  0
   57.0750   32.9060   51.1450 H   0  0  0  0  0  0  0  0  0  0  0  0
   58.5950   31.9170   50.0350 C   0  0  0  0  0  0  0  0  0  0  0  0
   59.0980   30.8100   49.6990 O   0  0  0  0  0  0  0  0  0  0  0  0
   59.1140   33.1400   49.4890 N   0  0  0  0  0  0  0  0  0  0  0  0
   58.5140   33.9920   49.5510 H   0  0  0  0  0  0  0  0  0  0  0  0
   60.3770   33.2370   48.8050 C   0  0  0  0  0  0  0  0  0  0  0  0
   61.5310   33.6530   49.4930 C   0  0  0  0  0  0  0  0  0  0  0  0
   61.4828   33.8449   50.5751 H   0  0  0  0  0  0  0  0  0  0  0  0
   62.7380   33.8240   48.8110 C   0  0  0  0  0  0  0  0  0  0  0  0
   63.6380   34.1405   49.3586 H   0  0  0  0  0  0  0  0  0  0  0  0
   62.8040   33.5940   47.4360 C   0  0  0  0  0  0  0  0  0  0  0  0
   63.7554   33.7303   46.9010 H   0  0  0  0  0  0  0  0  0  0  0  0
   61.6630   33.1910   46.7390 C   0  0  0  0  0  0  0  0  0  0  0  0
   61.7184   33.0152   45.6546 H   0  0  0  0  0  0  0  0  0  0  0  0
   60.4460   33.0090   47.4140 C   0  0  0  0  0  0  0  0  0  0  0  0
   59.2850   32.5750   46.6870 N   0  0  0  0  0  0  0  0  0  0  0  0
   58.1690   33.5040   46.4850 C   0  0  0  0  0  0  0  0  0  0  0  0
   57.4919   33.4566   47.3506 H   0  0  0  0  0  0  0  0  0  0  0  0
   58.5598   34.5267   46.3787 H   0  0  0  0  0  0  0  0  0  0  0  0
   57.4020   33.1180   45.2160 C   0  0  0  0  0  0  0  0  0  0  0  0
   56.4891   33.7278   45.1470 H   0  0  0  0  0  0  0  0  0  0  0  0
   58.0493   33.2972   44.3449 H   0  0  0  0  0  0  0  0  0  0  0  0
   57.0440   31.7470   45.2410 O   0  0  0  0  0  0  0  0  0  0  0  0
   58.2120   30.9460   45.2130 C   0  0  0  0  0  0  0  0  0  0  0  0
   57.9224   29.8879   45.1316 H   0  0  0  0  0  0  0  0  0  0  0  0
   58.8232   31.2420   44.3477 H   0  0  0  0  0  0  0  0  0  0  0  0
   59.0350   31.1450   46.4880 C   0  0  0  0  0  0  0  0  0  0  0  0
   58.4795   30.7461   47.3495 H   0  0  0  0  0  0  0  0  0  0  0  0
   59.9936   30.6138   46.3935 H   0  0  0  0  0  0  0  0  0  0  0  0
   54.5110   30.3640   51.8490 C   0  0  0  0  0  0  0  0  0  0  0  0
   54.5669   29.4914   51.1815 H   0  0  0  0  0  0  0  0  0  0  0  0
   53.1710   30.9240   52.1580 C   0  0  0  0  0  0  0  0  0  0  0  0
   52.5620   30.5700   53.3750 C   0  0  0  0  0  0  0  0  0  0  0  0
   53.0817   29.8915   54.0675 H   0  0  0  0  0  0  0  0  0  0  0  0
   51.3010   31.0730   53.7130 C   0  0  0  0  0  0  0  0  0  0  0  0
   50.8300   30.7819   54.6635 H   0  0  0  0  0  0  0  0  0  0  0  0
   50.6400   31.9440   52.8450 C   0  0  0  0  0  0  0  0  0  0  0  0
   49.6464   32.3351   53.1093 H   0  0  0  0  0  0  0  0  0  0  0  0
   51.2410   32.3190   51.6400 C   0  0  0  0  0  0  0  0  0  0  0  0
   50.7216   33.0100   50.9597 H   0  0  0  0  0  0  0  0  0  0  0  0
   52.5010   31.8180   51.2970 C   0  0  0  0  0  0  0  0  0  0  0  0
   52.9719   32.1228   50.3508 H   0  0  0  0  0  0  0  0  0  0  0  0
  1  2  1  0
  2  3  1  0
  3  4  2  0
  3  5  1  0
  5  6  1  0
  5  7  1  0
  7  8  2  0
  7  9  1  0
  9 10  1  0
  9 11  1  0
 11 12  2  0
 12 13  1  0
 12 14  1  0
 14 15  1  0
 14 16  2  0
 16 17  1  0
 16 18  1  0
 18 19  1  0
 18 20  2  0
 20 21  1  0
 21 22  1  0
 22 23  1  0
 22 24  1  0
 22 25  1  0
 25 26  1  0
 25 27  1  0
 25 28  1  0
 28 29  1  0
 29 30  1  0
 29 31  1  0
 29 32  1  0
 32 33  1  0
 32 34  1  0
  2 35  2  0
 35 36  1  0
 35 37  1  0
 37 38  2  0
 38 39  1  0
 38 40  1  0
 40 41  1  0
 40 42  2  0
 42 43  1  0
 42 44  1  0
 44 45  1  0
 44 46  2  0
 46 47  1  0
 20 11  1  0
 32 21  1  0
 46 37  1  0
M  END
>  <UniqueID>  (98) 
91

>  <SMILES>  (98) 
O=C(/C=C/c1ccccc1)NC(=O)Nc1ccccc1N1CCOCC1

>  <Energy>  (98) 
60.73057409250459

>  <Genealogy>  (98) 
O=C(/C=C/c1ccccc1)NC(=O)Nc1ccccc1N1CCOCC1 (cis-trans isomerization)
O=C(/C=C/c1ccccc1)NC(=O)Nc1ccccc1N1CCOCC1 (3D coordinates assigned)
O=C(/C=C/c1ccccc1)NC(=O)Nc1ccccc1N1CCOCC1 (nonaromatic ring conformer: 60.73057409250459 kcal/mol)

>  <smiles>  (98) 
O=C(C=Cc1ccccc1)NC(=O)Nc1ccccc1N1CCOCC1

>  <score_type>  (98) 
oracle

>  <origin>  (98) 
adg

>  <m_score__min__energy>  (98) 
-8.5099999999999998

>  <m_primary>  (98) 
energy

$$$$
