0:0
     RDKit          3D

 40 42  0  0  0  0  0  0  0  0999 V2000
   55.3120   30.6650   44.5220 O   0  0  0  0  0  0  0  0  0  0  0  0
   56.5380   30.8330   44.2810 C   0  0  0  0  0  0  0  0  0  0  0  0
   57.2410   29.8030   43.4330 C   0  0  0  0  0  0  0  0  0  0  0  0
   58.8310   29.2970   44.1830 S   0  0  0  0  0  0  0  0  0  0  0  0
   58.1330   27.9700   45.1620 C   0  0  0  0  0  0  0  0  0  0  0  0
   58.9530   27.0820   45.7770 N   0  0  0  0  0  0  0  0  0  0  0  0
   58.4530   26.0310   46.4770 C   0  0  0  0  0  0  0  0  0  0  0  0
   59.2480   25.2260   47.0290 O   0  0  0  0  0  0  0  0  0  0  0  0
   57.0610   25.8440   46.5670 C   0  0  0  0  0  0  0  0  0  0  0  0
   56.4760   24.6780   47.3280 C   0  0  0  0  0  0  0  0  0  0  0  0
   56.3600   23.4680   46.4390 C   0  0  0  0  0  0  0  0  0  0  0  0
   56.6350   23.5700   45.0660 C   0  0  0  0  0  0  0  0  0  0  0  0
   56.5040   22.4530   44.2350 C   0  0  0  0  0  0  0  0  0  0  0  0
   56.0930   21.2260   44.7650 C   0  0  0  0  0  0  0  0  0  0  0  0
   55.9660   20.1220   43.9250 O   0  0  0  0  0  0  0  0  0  0  0  0
   55.8130   21.1190   46.1340 C   0  0  0  0  0  0  0  0  0  0  0  0
   55.9430   22.2340   46.9670 C   0  0  0  0  0  0  0  0  0  0  0  0
   56.2340   26.7980   45.9450 C   0  0  0  0  0  0  0  0  0  0  0  0
   54.8500   26.6930   46.0110 O   0  0  0  0  0  0  0  0  0  0  0  0
   56.7870   27.8310   45.2580 N   0  0  0  0  0  0  0  0  0  0  0  0
   57.2480   31.9770   44.9130 C   0  0  0  0  0  0  0  0  0  0  0  0
   57.8250   31.8140   46.1860 C   0  0  0  0  0  0  0  0  0  0  0  0
   58.5630   32.8480   46.7730 C   0  0  0  0  0  0  0  0  0  0  0  0
   58.7260   34.0610   46.1000 C   0  0  0  0  0  0  0  0  0  0  0  0
   59.6760   35.3460   46.8220 Cl  0  0  0  0  0  0  0  0  0  0  0  0
   58.1320   34.2490   44.8500 C   0  0  0  0  0  0  0  0  0  0  0  0
   57.3930   33.2180   44.2600 C   0  0  0  0  0  0  0  0  0  0  0  0
   56.5942   28.9188   43.3337 H   0  0  0  0  0  0  0  0  0  0  0  0
   57.4476   30.2469   42.4480 H   0  0  0  0  0  0  0  0  0  0  0  0
   57.1288   24.4388   48.1804 H   0  0  0  0  0  0  0  0  0  0  0  0
   55.4721   24.9544   47.6827 H   0  0  0  0  0  0  0  0  0  0  0  0
   56.9550   24.5332   44.6419 H   0  0  0  0  0  0  0  0  0  0  0  0
   56.7250   22.5398   43.1609 H   0  0  0  0  0  0  0  0  0  0  0  0
   56.7410   19.4920   43.7580 H   0  0  0  0  0  0  0  0  0  0  0  0
   55.4901   20.1551   46.5542 H   0  0  0  0  0  0  0  0  0  0  0  0
   55.7180   22.1453   48.0401 H   0  0  0  0  0  0  0  0  0  0  0  0
   57.6946   30.8641   46.7252 H   0  0  0  0  0  0  0  0  0  0  0  0
   59.0152   32.7053   47.7655 H   0  0  0  0  0  0  0  0  0  0  0  0
   58.2456   35.2105   44.3279 H   0  0  0  0  0  0  0  0  0  0  0  0
   56.9214   33.3769   43.2790 H   0  0  0  0  0  0  0  0  0  0  0  0
  1  2  2  0
  2  3  1  0
  3  4  1  0
  4  5  1  0
  5  6  2  0
  6  7  1  0
  7  8  2  0
  7  9  1  0
  9 10  1  0
 10 11  1  0
 11 12  2  0
 12 13  1  0
 13 14  2  0
 14 15  1  0
 14 16  1  0
 16 17  2  0
  9 18  2  0
 18 19  1  0
 18 20  1  0
  2 21  1  0
 21 22  2  0
 22 23  1  0
 23 24  2  0
 24 25  1  0
 24 26  1  0
 26 27  2  0
 20  5  1  0
 27 21  1  0
 17 11  1  0
  3 28  1  0
  3 29  1  0
 10 30  1  0
 10 31  1  0
 12 32  1  0
 13 33  1  0
 15 34  1  0
 16 35  1  0
 17 36  1  0
 22 37  1  0
 23 38  1  0
 26 39  1  0
 27 40  1  0
M  CHG  2  19  -1  20  -1
M  END
>  <UniqueID>  (1) 
1

>  <SMILES>  (1) 
O=C(CSc1nc(=O)c(Cc2ccc(O)cc2)c([O-])[n-]1)c1ccc(Cl)cc1

>  <Energy>  (1) 
39.72906672631554

>  <Genealogy>  (1) 
O=C(CSc1nc(=O)c(Cc2ccc(O)cc2)c([O-])[n-]1)c1ccc(Cl)cc1 (protonated)
O=C(CSc1nc(=O)c(Cc2ccc(O)cc2)c([O-])[n-]1)c1ccc(Cl)cc1 (3D coordinates assigned)
O=C(CSc1nc(=O)c(Cc2ccc(O)cc2)c([O-])[n-]1)c1ccc(Cl)cc1 (optimized conformer: 39.72906672631554 kcal/mol)

>  <smiles>  (1) 
O=C(CSc1nc(=O)c(Cc2ccc(O)cc2)c(O)[nH]1)c1ccc(Cl)cc1

>  <score_type>  (1) 
oracle

>  <origin>  (1) 
adg

>  <m_score__min__energy>  (1) 
-14.41

>  <m_primary>  (1) 
energy

$$$$
1:0
     RDKit          3D

 32 33  0  0  0  0  0  0  0  0999 V2000
   60.0420   31.2650   47.8510 C   0  0  0  0  0  0  0  0  0  0  0  0
   59.0080   32.3540   47.5820 C   0  0  0  0  0  0  0  0  0  0  0  0
   58.6850   32.4230   46.1420 N   0  0  0  0  0  0  0  0  0  0  0  0
   57.9180   31.4520   45.5290 C   0  0  0  0  0  0  0  0  0  0  0  0
   57.4470   30.2980   46.2520 N   0  0  0  0  0  0  0  0  0  0  0  0
   57.6190   31.5630   44.1580 C   0  0  0  0  0  0  0  0  0  0  0  0
   56.8270   30.5630   43.5030 N   0  0  0  0  0  0  0  0  0  0  0  0
   56.5390   29.2680   44.0470 C   0  0  0  0  0  0  0  0  0  0  0  0
   55.4620   29.1030   44.6790 O   0  0  0  0  0  0  0  0  0  0  0  0
   57.4980   28.1140   43.9210 C   0  0  0  0  0  0  0  0  0  0  0  0
   57.8590   27.5500   45.2640 C   0  0  0  0  0  0  0  0  0  0  0  0
   59.4240   27.4520   45.8850 S   0  0  0  0  0  0  0  0  0  0  0  0
   58.9040   26.7180   47.3040 C   0  0  0  0  0  0  0  0  0  0  0  0
   59.6670   26.3710   48.2420 O   0  0  0  0  0  0  0  0  0  0  0  0
   57.5680   26.5300   47.3340 N   0  0  0  0  0  0  0  0  0  0  0  0
   56.9850   26.9900   46.1940 C   0  0  0  0  0  0  0  0  0  0  0  0
   55.6130   26.9030   45.9840 O   0  0  0  0  0  0  0  0  0  0  0  0
   58.1020   32.6650   43.4510 C   0  0  0  0  0  0  0  0  0  0  0  0
   57.8170   32.8250   42.2340 O   0  0  0  0  0  0  0  0  0  0  0  0
   58.8780   33.5760   44.0780 N   0  0  0  0  0  0  0  0  0  0  0  0
   59.1820   33.4650   45.3950 C   0  0  0  0  0  0  0  0  0  0  0  0
   59.9290   34.3380   45.9160 O   0  0  0  0  0  0  0  0  0  0  0  0
   60.1646   31.1359   48.9365 H   0  0  0  0  0  0  0  0  0  0  0  0
   59.7022   30.3185   47.4052 H   0  0  0  0  0  0  0  0  0  0  0  0
   61.0048   31.5554   47.4052 H   0  0  0  0  0  0  0  0  0  0  0  0
   58.0915   32.1293   48.1473 H   0  0  0  0  0  0  0  0  0  0  0  0
   59.4236   33.3222   47.8981 H   0  0  0  0  0  0  0  0  0  0  0  0
   56.4310   30.0580   46.2820 H   0  0  0  0  0  0  0  0  0  0  0  0
   58.0850   29.6100   46.7020 H   0  0  0  0  0  0  0  0  0  0  0  0
   57.0292   27.3241   43.3158 H   0  0  0  0  0  0  0  0  0  0  0  0
   58.4179   28.4803   43.4418 H   0  0  0  0  0  0  0  0  0  0  0  0
   55.1440   27.5450   45.3570 H   0  0  0  0  0  0  0  0  0  0  0  0
  1  2  1  0
  2  3  1  0
  3  4  1  0
  4  5  1  0
  4  6  2  0
  6  7  1  0
  7  8  1  0
  8  9  2  0
  8 10  1  0
 10 11  1  0
 11 12  1  0
 12 13  1  0
 13 14  2  0
 13 15  1  0
 15 16  1  0
 16 17  1  0
  6 18  1  0
 18 19  2  0
 18 20  1  0
 20 21  1  0
 21 22  2  0
 21  3  1  0
 16 11  2  0
  1 23  1  0
  1 24  1  0
  1 25  1  0
  2 26  1  0
  2 27  1  0
  5 28  1  0
  5 29  1  0
 10 30  1  0
 10 31  1  0
 17 32  1  0
M  CHG  3   7  -1  15  -1  20  -1
M  END
>  <UniqueID>  (2) 
2

>  <SMILES>  (2) 
CCn1c(N)c([N-]C(=O)Cc2sc(=O)[n-]c2O)c(=O)[n-]c1=O

>  <Energy>  (2) 
68.93991272836011

>  <Genealogy>  (2) 
CCn1c(N)c([N-]C(=O)Cc2sc(=O)[n-]c2O)c(=O)[n-]c1=O (protonated)
CCn1c(N)c([N-]C(=O)Cc2sc(=O)[n-]c2O)c(=O)[n-]c1=O (3D coordinates assigned)
CCn1c(N)c([N-]C(=O)Cc2sc(=O)[n-]c2O)c(=O)[n-]c1=O (optimized conformer: 68.93991272836011 kcal/mol)

>  <smiles>  (2) 
CCn1c(N)c(NC(=O)Cc2sc(=O)[nH]c2O)c(=O)[nH]c1=O

>  <score_type>  (2) 
oracle

>  <origin>  (2) 
adg

>  <m_score__min__energy>  (2) 
-11.69

>  <m_primary>  (2) 
energy

$$$$
2:0
     RDKit          3D

 53 56  0  0  0  0  0  0  0  0999 V2000
   55.1250   26.7050   45.9930 O   0  0  0  0  0  0  0  0  0  0  0  0
   56.3090   26.3210   46.1900 C   0  0  0  0  0  0  0  0  0  0  0  0
   56.5480   25.2790   47.0780 O   0  0  0  0  0  0  0  0  0  0  0  0
   57.4390   26.9960   45.5320 C   0  0  0  0  0  0  0  0  0  0  0  0
   58.4600   26.3220   45.2300 O   0  0  0  0  0  0  0  0  0  0  0  0
   57.4370   28.4470   45.2660 C   0  0  0  0  0  0  0  0  0  0  0  0
   56.7210   29.0810   44.2590 C   0  0  0  0  0  0  0  0  0  0  0  0
   56.9150   30.4170   44.3090 N   0  0  0  0  0  0  0  0  0  0  0  0
   57.7440   30.6450   45.3490 C   0  0  0  0  0  0  0  0  0  0  0  0
   58.2090   31.8830   45.8400 C   0  0  0  0  0  0  0  0  0  0  0  0
   57.9560   33.1730   45.1570 C   0  0  0  0  0  0  0  0  0  0  0  0
   57.4660   33.1820   43.9940 O   0  0  0  0  0  0  0  0  0  0  0  0
   58.2160   34.4110   45.8220 N   0  0  0  0  0  0  0  0  0  0  0  0
   59.5540   34.9560   46.0070 C   0  0  0  0  0  0  0  0  0  0  0  0
   60.0060   34.7560   47.4540 C   0  0  0  0  0  0  0  0  0  0  0  0
   61.4020   34.2140   47.5190 C   0  0  0  0  0  0  0  0  0  0  0  0
   62.1730   33.8260   46.4320 C   0  0  0  0  0  0  0  0  0  0  0  0
   63.4680   33.4320   46.7910 C   0  0  0  0  0  0  0  0  0  0  0  0
   63.7220   33.5220   48.1530 C   0  0  0  0  0  0  0  0  0  0  0  0
   62.3340   34.0950   48.9130 S   0  0  0  0  0  0  0  0  0  0  0  0
   58.9790   31.8570   47.0250 C   0  0  0  0  0  0  0  0  0  0  0  0
   59.2600   30.6400   47.6950 C   0  0  0  0  0  0  0  0  0  0  0  0
   60.0490   30.6150   48.8970 N   0  0  0  0  0  0  0  0  0  0  0  0
   61.4870   30.6250   48.9130 C   0  0  0  0  0  0  0  0  0  0  0  0
   62.1320   30.8800   47.8610 O   0  0  0  0  0  0  0  0  0  0  0  0
   62.2220   30.3890   50.1770 C   0  0  0  0  0  0  0  0  0  0  0  0
   63.2030   31.3200   50.5620 C   0  0  0  0  0  0  0  0  0  0  0  0
   63.9540   31.1250   51.7210 C   0  0  0  0  0  0  0  0  0  0  0  0
   63.7430   29.9970   52.5080 C   0  0  0  0  0  0  0  0  0  0  0  0
   62.7720   29.0630   52.1470 C   0  0  0  0  0  0  0  0  0  0  0  0
   61.9810   29.2480   50.9950 C   0  0  0  0  0  0  0  0  0  0  0  0
   60.9200   28.2200   50.6480 C   0  0  0  0  0  0  0  0  0  0  0  0
   61.0060   27.8310   49.3220 F   0  0  0  0  0  0  0  0  0  0  0  0
   59.6660   28.7590   50.8650 F   0  0  0  0  0  0  0  0  0  0  0  0
   61.0740   27.0870   51.4270 F   0  0  0  0  0  0  0  0  0  0  0  0
   58.8080   29.4250   47.1490 C   0  0  0  0  0  0  0  0  0  0  0  0
   58.0660   29.4600   45.9700 C   0  0  0  0  0  0  0  0  0  0  0  0
   56.0848   28.5671   43.5234 H   0  0  0  0  0  0  0  0  0  0  0  0
   56.4550   31.1100   43.6810 H   0  0  0  0  0  0  0  0  0  0  0  0
   60.2535   34.4405   45.3325 H   0  0  0  0  0  0  0  0  0  0  0  0
   59.5397   36.0321   45.7792 H   0  0  0  0  0  0  0  0  0  0  0  0
   59.9726   35.7233   47.9767 H   0  0  0  0  0  0  0  0  0  0  0  0
   59.3299   34.0316   47.9317 H   0  0  0  0  0  0  0  0  0  0  0  0
   61.8048   33.8278   45.3955 H   0  0  0  0  0  0  0  0  0  0  0  0
   64.2144   33.0837   46.0619 H   0  0  0  0  0  0  0  0  0  0  0  0
   64.6684   33.2631   48.6502 H   0  0  0  0  0  0  0  0  0  0  0  0
   59.3681   32.8004   47.4356 H   0  0  0  0  0  0  0  0  0  0  0  0
   59.5410   30.6460   49.8090 H   0  0  0  0  0  0  0  0  0  0  0  0
   63.3800   32.2116   49.9425 H   0  0  0  0  0  0  0  0  0  0  0  0
   64.7144   31.8641   52.0134 H   0  0  0  0  0  0  0  0  0  0  0  0
   64.3432   29.8416   53.4166 H   0  0  0  0  0  0  0  0  0  0  0  0
   62.6213   28.1692   52.7702 H   0  0  0  0  0  0  0  0  0  0  0  0
   59.0353   28.4682   47.6419 H   0  0  0  0  0  0  0  0  0  0  0  0
  1  2  2  0
  2  3  1  0
  2  4  1  0
  4  5  2  0
  4  6  1  0
  6  7  2  0
  7  8  1  0
  8  9  1  0
  9 10  2  0
 10 11  1  0
 11 12  2  0
 11 13  1  0
 13 14  1  0
 14 15  1  0
 15 16  1  0
 16 17  2  0
 17 18  1  0
 18 19  2  0
 19 20  1  0
 10 21  1  0
 21 22  2  0
 22 23  1  0
 23 24  1  0
 24 25  2  0
 24 26  1  0
 26 27  2  0
 27 28  1  0
 28 29  2  0
 29 30  1  0
 30 31  2  0
 31 32  1  0
 32 33  1  0
 32 34  1  0
 32 35  1  0
 22 36  1  0
 36 37  2  0
 37  6  1  0
 37  9  1  0
 20 16  1  0
 31 26  1  0
  7 38  1  0
  8 39  1  0
 14 40  1  0
 14 41  1  0
 15 42  1  0
 15 43  1  0
 17 44  1  0
 18 45  1  0
 19 46  1  0
 21 47  1  0
 23 48  1  0
 27 49  1  0
 28 50  1  0
 29 51  1  0
 30 52  1  0
 36 53  1  0
M  CHG  2   3  -1  13  -1
M  END
>  <UniqueID>  (3) 
3

>  <SMILES>  (3) 
O=C([O-])C(=O)c1c[nH]c2c(C(=O)[N-]CCc3cccs3)cc(NC(=O)c3ccccc3C(F)(F)F)cc12

>  <Energy>  (3) 
128.25834494669974

>  <Genealogy>  (3) 
O=C([O-])C(=O)c1c[nH]c2c(C(=O)[N-]CCc3cccs3)cc(NC(=O)c3ccccc3C(F)(F)F)cc12 (protonated)
O=C([O-])C(=O)c1c[nH]c2c(C(=O)[N-]CCc3cccs3)cc(NC(=O)c3ccccc3C(F)(F)F)cc12 (3D coordinates assigned)
O=C([O-])C(=O)c1c[nH]c2c(C(=O)[N-]CCc3cccs3)cc(NC(=O)c3ccccc3C(F)(F)F)cc12 (optimized conformer: 128.25834494669974 kcal/mol)

>  <smiles>  (3) 
O=C(O)C(=O)c1c[nH]c2c(C(=O)NCCc3cccs3)cc(NC(=O)c3ccccc3C(F)(F)F)cc12

>  <score_type>  (3) 
oracle

>  <origin>  (3) 
adg

>  <m_score__min__energy>  (3) 
-11.710000000000001

>  <m_primary>  (3) 
energy

$$$$
3:0
     RDKit          3D

 46 48  0  0  0  0  0  0  0  0999 V2000
   57.4030   28.5820   43.4250 C   0  0  0  0  0  0  0  0  0  0  0  0
   56.0740   29.8190   43.3170 S   0  0  0  0  0  0  0  0  0  0  0  0
   57.2000   31.2110   43.4480 C   0  0  0  0  0  0  0  0  0  0  0  0
   57.4060   31.9270   42.4330 O   0  0  0  0  0  0  0  0  0  0  0  0
   57.8830   31.5200   44.7140 C   0  0  0  0  0  0  0  0  0  0  0  0
   58.4740   32.7330   45.0570 C   0  0  0  0  0  0  0  0  0  0  0  0
   59.0500   32.7250   46.3360 C   0  0  0  0  0  0  0  0  0  0  0  0
   59.8470   34.1340   47.0300 S   0  0  0  0  0  0  0  0  0  0  0  0
   58.8940   34.8490   47.9480 O   0  0  0  0  0  0  0  0  0  0  0  0
   60.2480   35.0610   45.9180 O   0  0  0  0  0  0  0  0  0  0  0  0
   61.2570   33.6310   47.9260 N   0  0  0  0  0  0  0  0  0  0  0  0
   61.5280   34.5750   49.0160 C   0  0  0  0  0  0  0  0  0  0  0  0
   62.5400   33.9340   49.9620 C   0  0  0  0  0  0  0  0  0  0  0  0
   63.6120   33.2600   49.2130 N   0  0  0  0  0  0  0  0  0  0  0  0
   64.6550   32.5820   49.9440 C   0  0  0  0  0  0  0  0  0  0  0  0
   64.4120   31.3300   50.5360 C   0  0  0  0  0  0  0  0  0  0  0  0
   65.4250   30.6740   51.2420 C   0  0  0  0  0  0  0  0  0  0  0  0
   66.6870   31.2600   51.3650 C   0  0  0  0  0  0  0  0  0  0  0  0
   66.9390   32.5070   50.7840 C   0  0  0  0  0  0  0  0  0  0  0  0
   68.5200   33.2480   50.9490 Cl  0  0  0  0  0  0  0  0  0  0  0  0
   65.9270   33.1660   50.0760 C   0  0  0  0  0  0  0  0  0  0  0  0
   63.7710   33.5010   47.7700 C   0  0  0  0  0  0  0  0  0  0  0  0
   62.4180   33.5180   47.0210 C   0  0  0  0  0  0  0  0  0  0  0  0
   58.9150   31.5030   46.9900 C   0  0  0  0  0  0  0  0  0  0  0  0
   59.4990   31.0890   48.6350 S   0  0  0  0  0  0  0  0  0  0  0  0
   61.0850   30.4290   48.0360 C   0  0  0  0  0  0  0  0  0  0  0  0
   58.0760   30.4430   45.9930 S   0  0  0  0  0  0  0  0  0  0  0  0
   57.6258   28.3746   44.4820 H   0  0  0  0  0  0  0  0  0  0  0  0
   57.0815   27.6542   42.9291 H   0  0  0  0  0  0  0  0  0  0  0  0
   58.3054   28.9691   42.9291 H   0  0  0  0  0  0  0  0  0  0  0  0
   58.4879   33.6092   44.3921 H   0  0  0  0  0  0  0  0  0  0  0  0
   61.9410   35.5085   48.6060 H   0  0  0  0  0  0  0  0  0  0  0  0
   60.5985   34.8088   49.5559 H   0  0  0  0  0  0  0  0  0  0  0  0
   62.9823   34.7151   50.5978 H   0  0  0  0  0  0  0  0  0  0  0  0
   62.0186   33.1850   50.5761 H   0  0  0  0  0  0  0  0  0  0  0  0
   63.4198   30.8642   50.4432 H   0  0  0  0  0  0  0  0  0  0  0  0
   65.2277   29.6943   51.7016 H   0  0  0  0  0  0  0  0  0  0  0  0
   67.4828   30.7406   51.9190 H   0  0  0  0  0  0  0  0  0  0  0  0
   66.1283   34.1467   49.6202 H   0  0  0  0  0  0  0  0  0  0  0  0
   64.2659   34.4729   47.6269 H   0  0  0  0  0  0  0  0  0  0  0  0
   64.3718   32.6772   47.3572 H   0  0  0  0  0  0  0  0  0  0  0  0
   62.4098   34.3756   46.3322 H   0  0  0  0  0  0  0  0  0  0  0  0
   62.3262   32.5605   46.4873 H   0  0  0  0  0  0  0  0  0  0  0  0
   61.7199   30.1648   48.8945 H   0  0  0  0  0  0  0  0  0  0  0  0
   60.9020   29.5324   47.4256 H   0  0  0  0  0  0  0  0  0  0  0  0
   61.5921   31.1908   47.4256 H   0  0  0  0  0  0  0  0  0  0  0  0
  1  2  1  0
  2  3  1  0
  3  4  2  0
  3  5  1  0
  5  6  2  0
  6  7  1  0
  7  8  1  0
  8  9  2  0
  8 10  2  0
  8 11  1  0
 11 12  1  0
 12 13  1  0
 13 14  1  0
 14 15  1  0
 15 16  2  0
 16 17  1  0
 17 18  2  0
 18 19  1  0
 19 20  1  0
 19 21  2  0
 14 22  1  0
 22 23  1  0
  7 24  2  0
 24 25  1  0
 25 26  1  0
 24 27  1  0
 27  5  1  0
 23 11  1  0
 21 15  1  0
  1 28  1  0
  1 29  1  0
  1 30  1  0
  6 31  1  0
 12 32  1  0
 12 33  1  0
 13 34  1  0
 13 35  1  0
 16 36  1  0
 17 37  1  0
 18 38  1  0
 21 39  1  0
 22 40  1  0
 22 41  1  0
 23 42  1  0
 23 43  1  0
 26 44  1  0
 26 45  1  0
 26 46  1  0
M  END
>  <UniqueID>  (4) 
4

>  <SMILES>  (4) 
CSC(=O)c1cc(S(=O)(=O)N2CCN(c3cccc(Cl)c3)CC2)c(SC)s1

>  <Energy>  (4) 
70.97450061005509

>  <Genealogy>  (4) 
CSC(=O)c1cc(S(=O)(=O)N2CCN(c3cccc(Cl)c3)CC2)c(SC)s1 (3D coordinates assigned)
CSC(=O)c1cc(S(=O)(=O)N2CCN(c3cccc(Cl)c3)CC2)c(SC)s1 (nonaromatic ring conformer: 70.97450061005509 kcal/mol)

>  <smiles>  (4) 
CSC(=O)c1cc(S(=O)(=O)N2CCN(c3cccc(Cl)c3)CC2)c(SC)s1

>  <score_type>  (4) 
oracle

>  <origin>  (4) 
adg

>  <m_score__min__energy>  (4) 
-8.7400000000000002

>  <m_primary>  (4) 
energy

$$$$
4:0
     RDKit          3D

 44 46  0  0  0  0  0  0  0  0999 V2000
   64.8260   33.0130   47.0700 H   0  0  0  0  0  0  0  0  0  0  0  0
   63.9310   32.6620   46.7480 O   0  0  0  0  0  0  0  0  0  0  0  0
   62.7310   33.1970   47.2100 C   0  0  0  0  0  0  0  0  0  0  0  0
   62.4690   33.2810   48.5850 C   0  0  0  0  0  0  0  0  0  0  0  0
   63.2126   32.9164   49.3089 H   0  0  0  0  0  0  0  0  0  0  0  0
   61.2650   33.8270   49.0370 C   0  0  0  0  0  0  0  0  0  0  0  0
   61.0643   33.8970   50.1163 H   0  0  0  0  0  0  0  0  0  0  0  0
   60.3160   34.2840   48.1200 C   0  0  0  0  0  0  0  0  0  0  0  0
   59.3720   34.7189   48.4802 H   0  0  0  0  0  0  0  0  0  0  0  0
   60.5610   34.1910   46.7400 C   0  0  0  0  0  0  0  0  0  0  0  0
   59.5580   34.7220   45.7540 C   0  0  0  0  0  0  0  0  0  0  0  0
   60.0837   35.0777   44.8556 H   0  0  0  0  0  0  0  0  0  0  0  0
   59.0033   35.5522   46.2155 H   0  0  0  0  0  0  0  0  0  0  0  0
   58.5960   33.6430   45.3700 C   0  0  0  0  0  0  0  0  0  0  0  0
   58.4010   33.0250   43.8180 S   0  0  0  0  0  0  0  0  0  0  0  0
   57.2860   31.8600   44.3220 C   0  0  0  0  0  0  0  0  0  0  0  0
   57.3360   28.6710   43.3980 N   0  0  0  0  0  0  0  0  0  0  0  0
   56.5130   29.5690   43.8610 C   0  0  0  0  0  0  0  0  0  0  0  0
   56.7120   30.9630   43.5730 N   0  0  0  0  0  0  0  0  0  0  0  0
   58.4430   28.0750   44.1440 C   0  0  0  0  0  0  0  0  0  0  0  0
   58.0606   27.6567   45.0867 H   0  0  0  0  0  0  0  0  0  0  0  0
   58.8968   27.2806   43.5332 H   0  0  0  0  0  0  0  0  0  0  0  0
   59.5080   29.1290   44.4560 C   0  0  0  0  0  0  0  0  0  0  0  0
   60.4849   28.7583   44.1120 H   0  0  0  0  0  0  0  0  0  0  0  0
   59.2270   30.0573   43.9370 H   0  0  0  0  0  0  0  0  0  0  0  0
   59.5950   29.4310   45.9310 C   0  0  0  0  0  0  0  0  0  0  0  0
   58.7040   28.8280   46.8350 C   0  0  0  0  0  0  0  0  0  0  0  0
   57.9329   28.1364   46.4647 H   0  0  0  0  0  0  0  0  0  0  0  0
   58.7930   29.1030   48.2030 C   0  0  0  0  0  0  0  0  0  0  0  0
   58.0923   28.6284   48.9057 H   0  0  0  0  0  0  0  0  0  0  0  0
   59.7710   29.9800   48.6780 C   0  0  0  0  0  0  0  0  0  0  0  0
   59.8422   30.1929   49.7548 H   0  0  0  0  0  0  0  0  0  0  0  0
   60.6590   30.5870   47.7860 C   0  0  0  0  0  0  0  0  0  0  0  0
   61.4277   31.2784   48.1616 H   0  0  0  0  0  0  0  0  0  0  0  0
   60.5720   30.3170   46.4170 C   0  0  0  0  0  0  0  0  0  0  0  0
   61.2706   30.7997   45.7177 H   0  0  0  0  0  0  0  0  0  0  0  0
   55.3560   29.1960   44.6190 N   0  0  0  0  0  0  0  0  0  0  0  0
   55.1450   28.2070   44.8760 H   0  0  0  0  0  0  0  0  0  0  0  0
   54.6970   29.9350   44.9510 H   0  0  0  0  0  0  0  0  0  0  0  0
   57.0790   31.9150   45.6560 N   0  0  0  0  0  0  0  0  0  0  0  0
   57.8060   32.9030   46.2430 C   0  0  0  0  0  0  0  0  0  0  0  0
   57.7718   33.1014   47.3244 H   0  0  0  0  0  0  0  0  0  0  0  0
   61.7800   33.6540   46.2920 C   0  0  0  0  0  0  0  0  0  0  0  0
   61.9873   33.5928   45.2134 H   0  0  0  0  0  0  0  0  0  0  0  0
  1  2  1  0
  2  3  1  0
  3  4  2  0
  4  5  1  0
  4  6  1  0
  6  7  1  0
  6  8  2  0
  8  9  1  0
  8 10  1  0
 10 11  1  0
 11 12  1  0
 11 13  1  0
 11 14  1  0
 14 15  1  0
 15 16  1  0
 16 17  2  0
 17 18  1  0
 18 19  2  0
 19 20  1  0
 20 21  1  0
 20 22  1  0
 20 23  1  0
 23 24  1  0
 23 25  1  0
 23 26  1  0
 26 27  2  0
 27 28  1  0
 27 29  1  0
 29 30  1  0
 29 31  2  0
 31 32  1  0
 31 33  1  0
 33 34  1  0
 33 35  2  0
 35 36  1  0
 18 37  1  0
 37 38  1  0
 37 39  1  0
 16 40  1  0
 40 41  1  0
 41 42  1  0
 10 43  2  0
 43 44  1  0
 43  3  1  0
 41 14  2  0
 35 26  1  0
M  CHG  1  40  -1
M  END
>  <UniqueID>  (5) 
5

>  <SMILES>  (5) 
NC(/N=c1/[n-]cc(Cc2cccc(O)c2)s1)=N\CCc1ccccc1

>  <Energy>  (5) 
71.45848461227332

>  <Genealogy>  (5) 
NC(=NCCc1ccccc1)N=c1[n-]cc(Cc2cccc(O)c2)s1 (protonated)
NC(/N=c1/[n-]cc(Cc2cccc(O)c2)s1)=N\CCc1ccccc1 (cis-trans isomerization)
NC(/N=c1/[n-]cc(Cc2cccc(O)c2)s1)=N\CCc1ccccc1 (3D coordinates assigned)
NC(/N=c1/[n-]cc(Cc2cccc(O)c2)s1)=N\CCc1ccccc1 (optimized conformer: 71.45848461227332 kcal/mol)

>  <smiles>  (5) 
NC(=NCCc1ccccc1)N=c1[nH]cc(Cc2cccc(O)c2)s1

>  <score_type>  (5) 
oracle

>  <origin>  (5) 
adg

>  <m_score__min__energy>  (5) 
-9.9700000000000006

>  <m_primary>  (5) 
energy

$$$$
5:0
     RDKit          3D

 30 31  0  0  0  0  0  0  0  0999 V2000
   54.9510   26.2980   45.9880 N   0  0  0  0  0  0  0  0  0  0  0  0
   56.2550   26.0530   46.5090 C   0  0  0  0  0  0  0  0  0  0  0  0
   56.4180   25.1520   47.3750 O   0  0  0  0  0  0  0  0  0  0  0  0
   57.4010   26.8760   46.0630 C   0  0  0  0  0  0  0  0  0  0  0  0
   58.7130   26.4290   46.3250 C   0  0  0  0  0  0  0  0  0  0  0  0
   58.9370   25.2470   47.0230 O   0  0  0  0  0  0  0  0  0  0  0  0
   59.8110   27.1540   45.8590 C   0  0  0  0  0  0  0  0  0  0  0  0
   59.6220   28.3280   45.1340 C   0  0  0  0  0  0  0  0  0  0  0  0
   58.3330   28.8140   44.8930 C   0  0  0  0  0  0  0  0  0  0  0  0
   58.1780   30.0340   44.1530 N   0  0  0  0  0  0  0  0  0  0  0  0
   58.0930   31.3390   44.7570 C   0  0  0  0  0  0  0  0  0  0  0  0
   57.7600   32.4780   44.0000 C   0  0  0  0  0  0  0  0  0  0  0  0
   57.6660   33.7280   44.6140 C   0  0  0  0  0  0  0  0  0  0  0  0
   57.8880   33.8560   45.9870 C   0  0  0  0  0  0  0  0  0  0  0  0
   58.2020   32.7270   46.7560 C   0  0  0  0  0  0  0  0  0  0  0  0
   58.4210   32.8550   48.1640 N   0  0  0  0  0  0  0  0  0  0  0  0
   58.2960   31.4720   46.1390 C   0  0  0  0  0  0  0  0  0  0  0  0
   57.2120   28.0850   45.3450 C   0  0  0  0  0  0  0  0  0  0  0  0
   55.9360   28.5880   45.0740 O   0  0  0  0  0  0  0  0  0  0  0  0
   54.8220   26.6880   45.0290 H   0  0  0  0  0  0  0  0  0  0  0  0
   60.8305   26.7963   46.0654 H   0  0  0  0  0  0  0  0  0  0  0  0
   60.4934   28.8773   44.7479 H   0  0  0  0  0  0  0  0  0  0  0  0
   58.2150   29.9770   43.1090 H   0  0  0  0  0  0  0  0  0  0  0  0
   57.5731   32.3827   42.9202 H   0  0  0  0  0  0  0  0  0  0  0  0
   57.4161   34.6156   44.0143 H   0  0  0  0  0  0  0  0  0  0  0  0
   57.8163   34.8439   46.4654 H   0  0  0  0  0  0  0  0  0  0  0  0
   58.3520   32.0250   48.7940 H   0  0  0  0  0  0  0  0  0  0  0  0
   58.6560   33.7810   48.5870 H   0  0  0  0  0  0  0  0  0  0  0  0
   58.5310   30.5835   46.7435 H   0  0  0  0  0  0  0  0  0  0  0  0
   55.1300   28.0040   44.8970 H   0  0  0  0  0  0  0  0  0  0  0  0
  1  2  1  0
  2  3  2  0
  2  4  1  0
  4  5  2  0
  5  6  1  0
  5  7  1  0
  7  8  2  0
  8  9  1  0
  9 10  1  0
 10 11  1  0
 11 12  2  0
 12 13  1  0
 13 14  2  0
 14 15  1  0
 15 16  1  0
 15 17  2  0
  9 18  2  0
 18 19  1  0
 18  4  1  0
 17 11  1  0
  1 20  1  0
  7 21  1  0
  8 22  1  0
 10 23  1  0
 12 24  1  0
 13 25  1  0
 14 26  1  0
 16 27  1  0
 16 28  1  0
 17 29  1  0
 19 30  1  0
M  CHG  2   1  -1   6  -1
M  END
>  <UniqueID>  (6) 
6

>  <SMILES>  (6) 
[NH-]C(=O)c1c([O-])ccc(Nc2cccc(N)c2)c1O

>  <Energy>  (6) 
43.187976752453764

>  <Genealogy>  (6) 
[NH-]C(=O)c1c([O-])ccc(Nc2cccc(N)c2)c1O (protonated)
[NH-]C(=O)c1c([O-])ccc(Nc2cccc(N)c2)c1O (3D coordinates assigned)
[NH-]C(=O)c1c([O-])ccc(Nc2cccc(N)c2)c1O (optimized conformer: 43.187976752453764 kcal/mol)

>  <smiles>  (6) 
NC(=O)c1c(O)ccc(Nc2cccc(N)c2)c1O

>  <score_type>  (6) 
oracle

>  <origin>  (6) 
adg

>  <m_score__min__energy>  (6) 
-12.460000000000001

>  <m_primary>  (6) 
energy

$$$$
6:0
     RDKit          3D

 32 34  0  0  1  0  0  0  0  0999 V2000
   57.4840   33.0630   44.6200 C   0  0  0  0  0  0  0  0  0  0  0  0
   56.6450   32.1130   44.8730 N   0  0  0  0  0  0  0  0  0  0  0  0
   57.0260   30.7610   44.6440 C   0  0  0  0  0  0  0  0  0  0  0  0
   58.2640   30.3230   44.2870 N   0  0  0  0  0  0  0  0  0  0  0  0
   58.2330   28.9850   44.1650 C   0  0  0  0  0  0  0  0  0  0  0  0
   56.9680   28.6280   44.4530 N   0  0  0  0  0  0  0  0  0  0  0  0
   56.2400   29.6970   44.7410 N   0  0  0  0  0  0  0  0  0  0  0  0
   58.3650   33.4940   45.7180 C   0  0  0  0  0  0  0  0  0  0  0  0
   59.1890   34.5800   45.5010 C   0  0  0  0  0  0  0  0  0  0  0  0
   60.0080   34.9610   46.5560 C   0  0  0  0  0  0  0  0  0  0  0  0
   60.0020   34.2860   47.7680 C   0  0  0  0  0  0  0  0  0  0  0  0
   60.8610   34.7520   48.7520 O   0  0  0  0  0  0  0  0  0  0  0  0
   62.0970   34.1990   48.9400 C   0  0  0  0  0  0  0  0  0  0  0  0
   62.7280   34.1370   50.1850 C   0  0  0  0  0  0  0  0  0  0  0  0
   63.9710   33.5630   50.2760 C   0  0  0  0  0  0  0  0  0  0  0  0
   64.5900   33.0520   49.1490 C   0  0  0  0  0  0  0  0  0  0  0  0
   63.9740   33.1060   47.9020 C   0  0  0  0  0  0  0  0  0  0  0  0
   62.7430   33.6780   47.8250 C   0  0  0  0  0  0  0  0  0  0  0  0
   59.1630   33.2050   47.9430 C   0  0  0  0  0  0  0  0  0  0  0  0
   58.3350   32.8000   46.9120 C   0  0  0  0  0  0  0  0  0  0  0  0
   57.5376   33.5301   43.6256 H   0  0  0  0  0  0  0  0  0  0  0  0
   59.0658   28.3218   43.8882 H   0  0  0  0  0  0  0  0  0  0  0  0
   56.6340   27.6610   44.4440 H   0  0  0  0  0  0  0  0  0  0  0  0
   59.1966   35.1167   44.5408 H   0  0  0  0  0  0  0  0  0  0  0  0
   60.6802   35.8221   46.4270 H   0  0  0  0  0  0  0  0  0  0  0  0
   62.2348   34.5430   51.0805 H   0  0  0  0  0  0  0  0  0  0  0  0
   64.4783   33.5088   51.2505 H   0  0  0  0  0  0  0  0  0  0  0  0
   65.5864   32.5950   49.2401 H   0  0  0  0  0  0  0  0  0  0  0  0
   64.4675   32.6988   47.0072 H   0  0  0  0  0  0  0  0  0  0  0  0
   62.2414   33.7302   46.8474 H   0  0  0  0  0  0  0  0  0  0  0  0
   59.1526   32.6657   48.9017 H   0  0  0  0  0  0  0  0  0  0  0  0
   57.6630   31.9387   47.0407 H   0  0  0  0  0  0  0  0  0  0  0  0
  1  2  2  0
  2  3  1  0
  3  4  1  0
  4  5  2  0
  5  6  1  0
  6  7  1  0
  1  8  1  0
  8  9  2  0
  9 10  1  0
 10 11  2  0
 11 12  1  0
 12 13  1  0
 13 14  2  0
 14 15  1  0
 15 16  2  0
 16 17  1  0
 17 18  2  0
 11 19  1  0
 19 20  2  0
  7  3  2  0
 20  8  1  0
 18 13  1  0
  1 21  1  0
  5 22  1  0
  6 23  1  0
  9 24  1  0
 10 25  1  0
 14 26  1  0
 15 27  1  0
 16 28  1  0
 17 29  1  0
 18 30  1  0
 19 31  1  0
 20 32  1  0
M  END
>  <smiles>  (7) 
C(=Nc1nc[nH]n1)c1ccc(Oc2ccccc2)cc1

>  <score_type>  (7) 
oracle

>  <origin>  (7) 
adg

>  <m_score__min__energy>  (7) 
-7.7800000000000002

>  <m_primary>  (7) 
energy

$$$$
7:0
     RDKit          3D

 58 60  0  0  0  0  0  0  0  0999 V2000
   58.7420   33.2200   51.9180 C   0  0  0  0  0  0  0  0  0  0  0  0
   59.7540   32.8720   50.9780 O   0  0  0  0  0  0  0  0  0  0  0  0
   59.7990   31.6570   50.2760 C   0  0  0  0  0  0  0  0  0  0  0  0
   58.6480   31.0560   49.7320 C   0  0  0  0  0  0  0  0  0  0  0  0
   58.7470   29.8480   49.0340 C   0  0  0  0  0  0  0  0  0  0  0  0
   59.9990   29.2360   48.8530 C   0  0  0  0  0  0  0  0  0  0  0  0
   60.1250   27.9800   48.1730 N   0  0  0  0  0  0  0  0  0  0  0  0
   59.7740   27.7210   46.8070 C   0  0  0  0  0  0  0  0  0  0  0  0
   60.4680   28.2390   45.8930 O   0  0  0  0  0  0  0  0  0  0  0  0
   58.5330   26.9500   46.4400 C   0  0  0  0  0  0  0  0  0  0  0  0
   57.3910   27.8910   46.0510 C   0  0  0  0  0  0  0  0  0  0  0  0
   57.4760   28.2280   44.6320 N   0  0  0  0  0  0  0  0  0  0  0  0
   56.5580   29.6660   44.2800 S   0  0  0  0  0  0  0  0  0  0  0  0
   55.1920   29.5150   44.8870 O   0  0  0  0  0  0  0  0  0  0  0  0
   56.4100   29.8700   42.7950 O   0  0  0  0  0  0  0  0  0  0  0  0
   57.3570   31.0440   44.9930 N   0  0  0  0  0  0  0  0  0  0  0  0
   58.7130   30.6750   45.4040 C   0  0  0  0  0  0  0  0  0  0  0  0
   59.2610   31.7780   46.3000 C   0  0  0  0  0  0  0  0  0  0  0  0
   58.9680   33.1150   45.7570 N   0  0  0  0  0  0  0  0  0  0  0  0
   59.4480   34.2860   46.4560 C   0  0  0  0  0  0  0  0  0  0  0  0
   59.5260   35.3880   45.8450 O   0  0  0  0  0  0  0  0  0  0  0  0
   59.8680   34.2060   47.9060 C   0  0  0  0  0  0  0  0  0  0  0  0
   61.3320   33.8790   48.0670 C   0  0  0  0  0  0  0  0  0  0  0  0
   61.9940   34.1650   49.2730 C   0  0  0  0  0  0  0  0  0  0  0  0
   63.3430   33.8330   49.4320 C   0  0  0  0  0  0  0  0  0  0  0  0
   64.0370   33.2040   48.3950 C   0  0  0  0  0  0  0  0  0  0  0  0
   63.3820   32.9020   47.1970 C   0  0  0  0  0  0  0  0  0  0  0  0
   62.0330   33.2350   47.0330 C   0  0  0  0  0  0  0  0  0  0  0  0
   58.3950   33.2730   44.4070 C   0  0  0  0  0  0  0  0  0  0  0  0
   57.3960   32.1540   44.0230 C   0  0  0  0  0  0  0  0  0  0  0  0
   61.1380   29.8200   49.4180 C   0  0  0  0  0  0  0  0  0  0  0  0
   61.0390   31.0270   50.1160 C   0  0  0  0  0  0  0  0  0  0  0  0
   59.1287   33.0870   52.9392 H   0  0  0  0  0  0  0  0  0  0  0  0
   58.4499   34.2702   51.7704 H   0  0  0  0  0  0  0  0  0  0  0  0
   57.8658   32.5715   51.7704 H   0  0  0  0  0  0  0  0  0  0  0  0
   57.6672   31.5382   49.8563 H   0  0  0  0  0  0  0  0  0  0  0  0
   57.8417   29.3754   48.6253 H   0  0  0  0  0  0  0  0  0  0  0  0
   58.7592   26.2898   45.5897 H   0  0  0  0  0  0  0  0  0  0  0  0
   58.2171   26.3622   47.3145 H   0  0  0  0  0  0  0  0  0  0  0  0
   56.4288   27.3964   46.2500 H   0  0  0  0  0  0  0  0  0  0  0  0
   57.4686   28.8140   46.6444 H   0  0  0  0  0  0  0  0  0  0  0  0
   58.6877   29.7249   45.9577 H   0  0  0  0  0  0  0  0  0  0  0  0
   59.3556   30.5524   44.5197 H   0  0  0  0  0  0  0  0  0  0  0  0
   58.8027   31.6892   47.2960 H   0  0  0  0  0  0  0  0  0  0  0  0
   60.3534   31.6626   46.3578 H   0  0  0  0  0  0  0  0  0  0  0  0
   59.6686   35.1760   48.3849 H   0  0  0  0  0  0  0  0  0  0  0  0
   59.2912   33.3961   48.3765 H   0  0  0  0  0  0  0  0  0  0  0  0
   61.4490   34.6519   50.0951 H   0  0  0  0  0  0  0  0  0  0  0  0
   63.8587   34.0674   50.3749 H   0  0  0  0  0  0  0  0  0  0  0  0
   65.0989   32.9463   48.5211 H   0  0  0  0  0  0  0  0  0  0  0  0
   63.9277   32.4023   46.3830 H   0  0  0  0  0  0  0  0  0  0  0  0
   61.5192   32.9919   46.0913 H   0  0  0  0  0  0  0  0  0  0  0  0
   57.8696   34.2384   44.3630 H   0  0  0  0  0  0  0  0  0  0  0  0
   59.2304   33.2185   43.6935 H   0  0  0  0  0  0  0  0  0  0  0  0
   56.3898   32.5933   43.9555 H   0  0  0  0  0  0  0  0  0  0  0  0
   57.7324   31.7344   43.0634 H   0  0  0  0  0  0  0  0  0  0  0  0
   62.1157   29.3271   49.3124 H   0  0  0  0  0  0  0  0  0  0  0  0
   61.9429   31.4857   50.5432 H   0  0  0  0  0  0  0  0  0  0  0  0
  1  2  1  0
  2  3  1  0
  3  4  2  0
  4  5  1  0
  5  6  2  0
  6  7  1  0
  7  8  1  0
  8  9  2  0
  8 10  1  0
 10 11  1  0
 11 12  1  0
 12 13  1  0
 13 14  2  0
 13 15  2  0
 13 16  1  0
 16 17  1  0
 17 18  1  0
 18 19  1  0
 19 20  1  0
 20 21  2  0
 20 22  1  0
 22 23  1  0
 23 24  2  0
 24 25  1  0
 25 26  2  0
 26 27  1  0
 27 28  2  0
 19 29  1  0
 29 30  1  0
  6 31  1  0
 31 32  2  0
 32  3  1  0
 30 16  1  0
 28 23  1  0
  1 33  1  0
  1 34  1  0
  1 35  1  0
  4 36  1  0
  5 37  1  0
 10 38  1  0
 10 39  1  0
 11 40  1  0
 11 41  1  0
 17 42  1  0
 17 43  1  0
 18 44  1  0
 18 45  1  0
 22 46  1  0
 22 47  1  0
 24 48  1  0
 25 49  1  0
 26 50  1  0
 27 51  1  0
 28 52  1  0
 29 53  1  0
 29 54  1  0
 30 55  1  0
 30 56  1  0
 31 57  1  0
 32 58  1  0
M  CHG  2   7  -1  12  -1
M  END
>  <UniqueID>  (8) 
7

>  <SMILES>  (8) 
COc1ccc([N-]C(=O)CC[N-]S(=O)(=O)N2CCN(C(=O)Cc3ccccc3)CC2)cc1

>  <Energy>  (8) 
63.50682397894147

>  <Genealogy>  (8) 
COc1ccc([N-]C(=O)CC[N-]S(=O)(=O)N2CCN(C(=O)Cc3ccccc3)CC2)cc1 (protonated)
COc1ccc([N-]C(=O)CC[N-]S(=O)(=O)N2CCN(C(=O)Cc3ccccc3)CC2)cc1 (3D coordinates assigned)
COc1ccc([N-]C(=O)CC[N-]S(=O)(=O)N2CCN(C(=O)Cc3ccccc3)CC2)cc1 (nonaromatic ring conformer: 63.50682397894147 kcal/mol)

>  <smiles>  (8) 
COc1ccc(NC(=O)CCNS(=O)(=O)N2CCN(C(=O)Cc3ccccc3)CC2)cc1

>  <score_type>  (8) 
oracle

>  <origin>  (8) 
adg

>  <m_score__min__energy>  (8) 
-13.02

>  <m_primary>  (8) 
energy

$$$$
8:0
     RDKit          3D

 66 70  0  0  0  0  0  0  0  0999 V2000
   59.7399   27.3325   46.5102 H   0  0  0  0  0  0  0  0  0  0  0  0
   58.8590   27.7600   46.0090 C   0  0  0  0  0  0  0  0  0  0  0  0
   59.0550   28.8640   45.0500 C   0  0  0  0  0  0  0  0  0  0  0  0
   60.1830   28.9980   44.5020 O   0  0  0  0  0  0  0  0  0  0  0  0
   57.9790   29.8150   44.7050 C   0  0  0  0  0  0  0  0  0  0  0  0
   57.7470   31.0760   45.2370 C   0  0  0  0  0  0  0  0  0  0  0  0
   58.4160   31.7140   46.3940 C   0  0  0  0  0  0  0  0  0  0  0  0
   58.2800   33.0960   46.5990 C   0  0  0  0  0  0  0  0  0  0  0  0
   57.6892   33.6968   45.8919 H   0  0  0  0  0  0  0  0  0  0  0  0
   58.8890   33.7150   47.6940 C   0  0  0  0  0  0  0  0  0  0  0  0
   58.7859   34.8011   47.8343 H   0  0  0  0  0  0  0  0  0  0  0  0
   59.6320   32.9600   48.6170 C   0  0  0  0  0  0  0  0  0  0  0  0
   60.2880   33.6140   49.7700 C   0  0  0  0  0  0  0  0  0  0  0  0
   59.5780   34.1990   50.6340 O   0  0  0  0  0  0  0  0  0  0  0  0
   61.7160   33.5800   49.9370 N   0  0  0  0  0  0  0  0  0  0  0  0
   62.6100   33.9450   48.8330 C   0  0  0  0  0  0  0  0  0  0  0  0
   62.1125   33.7439   47.8727 H   0  0  0  0  0  0  0  0  0  0  0  0
   62.8581   35.0150   48.8917 H   0  0  0  0  0  0  0  0  0  0  0  0
   63.8880   33.1090   48.9350 C   0  0  0  0  0  0  0  0  0  0  0  0
   63.6225   32.0465   48.8324 H   0  0  0  0  0  0  0  0  0  0  0  0
   64.5652   33.4386   48.1333 H   0  0  0  0  0  0  0  0  0  0  0  0
   64.5960   33.2990   50.2260 N   0  0  0  0  0  0  0  0  0  0  0  0
   65.3560   32.0880   50.5960 C   0  0  0  0  0  0  0  0  0  0  0  0
   64.8433   31.5792   51.4256 H   0  0  0  0  0  0  0  0  0  0  0  0
   65.4142   31.4253   49.7200 H   0  0  0  0  0  0  0  0  0  0  0  0
   66.7540   32.4480   51.0250 C   0  0  0  0  0  0  0  0  0  0  0  0
   67.4110   33.5580   50.4680 C   0  0  0  0  0  0  0  0  0  0  0  0
   66.9025   34.1733   49.7112 H   0  0  0  0  0  0  0  0  0  0  0  0
   68.7100   33.8830   50.8730 C   0  0  0  0  0  0  0  0  0  0  0  0
   69.2201   34.7539   50.4356 H   0  0  0  0  0  0  0  0  0  0  0  0
   69.3600   33.1030   51.8320 C   0  0  0  0  0  0  0  0  0  0  0  0
   70.3815   33.3598   52.1492 H   0  0  0  0  0  0  0  0  0  0  0  0
   68.7130   31.9960   52.3890 C   0  0  0  0  0  0  0  0  0  0  0  0
   69.2270   31.3808   53.1422 H   0  0  0  0  0  0  0  0  0  0  0  0
   67.4140   31.6700   51.9900 C   0  0  0  0  0  0  0  0  0  0  0  0
   66.9065   30.8006   52.4335 H   0  0  0  0  0  0  0  0  0  0  0  0
   63.7440   33.7930   51.3410 C   0  0  0  0  0  0  0  0  0  0  0  0
   64.1762   33.4457   52.2911 H   0  0  0  0  0  0  0  0  0  0  0  0
   63.7218   34.8907   51.2727 H   0  0  0  0  0  0  0  0  0  0  0  0
   62.2900   33.3020   51.2580 C   0  0  0  0  0  0  0  0  0  0  0  0
   62.2656   32.2174   51.4398 H   0  0  0  0  0  0  0  0  0  0  0  0
   61.6968   33.8333   52.0168 H   0  0  0  0  0  0  0  0  0  0  0  0
   59.7680   31.5780   48.4130 C   0  0  0  0  0  0  0  0  0  0  0  0
   60.3621   30.9785   49.1185 H   0  0  0  0  0  0  0  0  0  0  0  0
   59.1550   30.9570   47.3210 C   0  0  0  0  0  0  0  0  0  0  0  0
   59.2511   29.8696   47.1858 H   0  0  0  0  0  0  0  0  0  0  0  0
   56.7720   31.6790   44.5280 N   0  0  0  0  0  0  0  0  0  0  0  0
   56.3770   30.8630   43.5620 N   0  0  0  0  0  0  0  0  0  0  0  0
   57.0930   29.7250   43.6450 C   0  0  0  0  0  0  0  0  0  0  0  0
   57.0010   28.6210   42.6400 C   0  0  0  0  0  0  0  0  0  0  0  0
   56.9206   27.6560   43.1618 H   0  0  0  0  0  0  0  0  0  0  0  0
   56.1123   28.7722   42.0096 H   0  0  0  0  0  0  0  0  0  0  0  0
   57.9024   28.6230   42.0096 H   0  0  0  0  0  0  0  0  0  0  0  0
   57.6500   27.2580   46.2930 C   0  0  0  0  0  0  0  0  0  0  0  0
   56.9757   27.8497   46.9295 H   0  0  0  0  0  0  0  0  0  0  0  0
   57.1740   25.9450   45.7930 C   0  0  0  0  0  0  0  0  0  0  0  0
   58.0730   24.9310   45.4040 C   0  0  0  0  0  0  0  0  0  0  0  0
   59.1567   25.1006   45.4868 H   0  0  0  0  0  0  0  0  0  0  0  0
   57.5970   23.7120   44.9140 C   0  0  0  0  0  0  0  0  0  0  0  0
   58.3064   22.9250   44.6184 H   0  0  0  0  0  0  0  0  0  0  0  0
   56.2270   23.4910   44.7990 C   0  0  0  0  0  0  0  0  0  0  0  0
   55.8560   22.5279   44.4185 H   0  0  0  0  0  0  0  0  0  0  0  0
   55.3240   24.4900   45.1660 C   0  0  0  0  0  0  0  0  0  0  0  0
   54.2426   24.3141   45.0679 H   0  0  0  0  0  0  0  0  0  0  0  0
   55.7890   25.7140   45.6580 C   0  0  0  0  0  0  0  0  0  0  0  0
   54.8670   26.6950   46.0140 O   0  0  0  0  0  0  0  0  0  0  0  0
  1  2  1  0
  2  3  1  0
  3  4  2  0
  3  5  1  0
  5  6  1  0
  6  7  1  0
  7  8  2  0
  8  9  1  0
  8 10  1  0
 10 11  1  0
 10 12  2  0
 12 13  1  0
 13 14  2  0
 13 15  1  0
 15 16  1  0
 16 17  1  0
 16 18  1  0
 16 19  1  0
 19 20  1  0
 19 21  1  0
 19 22  1  0
 22 23  1  0
 23 24  1  0
 23 25  1  0
 23 26  1  0
 26 27  2  0
 27 28  1  0
 27 29  1  0
 29 30  1  0
 29 31  2  0
 31 32  1  0
 31 33  1  0
 33 34  1  0
 33 35  2  0
 35 36  1  0
 22 37  1  0
 37 38  1  0
 37 39  1  0
 37 40  1  0
 40 41  1  0
 40 42  1  0
 12 43  1  0
 43 44  1  0
 43 45  2  0
 45 46  1  0
  6 47  2  0
 47 48  1  0
 48 49  1  0
 49 50  1  0
 50 51  1  0
 50 52  1  0
 50 53  1  0
  2 54  2  0
 54 55  1  0
 54 56  1  0
 56 57  2  0
 57 58  1  0
 57 59  1  0
 59 60  1  0
 59 61  2  0
 61 62  1  0
 61 63  1  0
 63 64  1  0
 63 65  2  0
 65 66  1  0
 49  5  2  0
 65 56  1  0
 45  7  1  0
 40 15  1  0
 35 26  1  0
M  CHG  2  48  -1  66  -1
M  END
>  <UniqueID>  (9) 
8

>  <SMILES>  (9) 
Cc1[n-]nc(-c2ccc(C(=O)N3CCN(Cc4ccccc4)CC3)cc2)c1C(=O)/C=C/c1ccccc1[O-]

>  <Energy>  (9) 
125.20013730545038

>  <Genealogy>  (9) 
Cc1[n-]nc(-c2ccc(C(=O)N3CCN(Cc4ccccc4)CC3)cc2)c1C(=O)C=Cc1ccccc1[O-] (protonated)
Cc1[n-]nc(-c2ccc(C(=O)N3CCN(Cc4ccccc4)CC3)cc2)c1C(=O)/C=C/c1ccccc1[O-] (cis-trans isomerization)
Cc1[n-]nc(-c2ccc(C(=O)N3CCN(Cc4ccccc4)CC3)cc2)c1C(=O)/C=C/c1ccccc1[O-] (3D coordinates assigned)
Cc1[n-]nc(-c2ccc(C(=O)N3CCN(Cc4ccccc4)CC3)cc2)c1C(=O)/C=C/c1ccccc1[O-] (nonaromatic ring conformer: 125.20013730545038 kcal/mol)

>  <smiles>  (9) 
Cc1[nH]nc(-c2ccc(C(=O)N3CCN(Cc4ccccc4)CC3)cc2)c1C(=O)C=Cc1ccccc1O

>  <score_type>  (9) 
oracle

>  <origin>  (9) 
adg

>  <m_score__min__energy>  (9) 
-16.73

>  <m_primary>  (9) 
energy

$$$$
9:0
     RDKit          3D

 57 60  0  0  0  0  0  0  0  0999 V2000
   60.0210   35.8410   46.0210 O   0  0  0  0  0  0  0  0  0  0  0  0
   59.4820   34.9150   46.6870 C   0  0  0  0  0  0  0  0  0  0  0  0
   59.4890   34.9700   48.1190 N   0  0  0  0  0  0  0  0  0  0  0  0
   60.0640   33.9340   48.9700 C   0  0  0  0  0  0  0  0  0  0  0  0
   61.3090   33.3580   48.3410 C   0  0  0  0  0  0  0  0  0  0  0  0
   62.4700   34.1410   48.2120 C   0  0  0  0  0  0  0  0  0  0  0  0
   63.6210   33.6010   47.6280 C   0  0  0  0  0  0  0  0  0  0  0  0
   63.6230   32.2770   47.1720 C   0  0  0  0  0  0  0  0  0  0  0  0
   62.4740   31.4910   47.3040 C   0  0  0  0  0  0  0  0  0  0  0  0
   61.3200   32.0270   47.8870 C   0  0  0  0  0  0  0  0  0  0  0  0
   58.8480   33.7720   45.9890 C   0  0  0  0  0  0  0  0  0  0  0  0
   58.6960   33.7830   44.5930 C   0  0  0  0  0  0  0  0  0  0  0  0
   58.0990   32.7030   43.9350 C   0  0  0  0  0  0  0  0  0  0  0  0
   57.6490   31.5890   44.6620 C   0  0  0  0  0  0  0  0  0  0  0  0
   56.9920   30.4850   44.0250 N   0  0  0  0  0  0  0  0  0  0  0  0
   56.4250   29.3440   44.6840 C   0  0  0  0  0  0  0  0  0  0  0  0
   55.1800   29.2790   44.8670 O   0  0  0  0  0  0  0  0  0  0  0  0
   57.2940   28.2190   45.1000 C   0  0  0  0  0  0  0  0  0  0  0  0
   58.6950   28.3530   45.0780 C   0  0  0  0  0  0  0  0  0  0  0  0
   59.5120   27.3000   45.4950 C   0  0  0  0  0  0  0  0  0  0  0  0
   58.9460   26.0990   45.9270 C   0  0  0  0  0  0  0  0  0  0  0  0
   57.5540   25.9410   45.9420 C   0  0  0  0  0  0  0  0  0  0  0  0
   56.8400   24.4080   46.4530 S   0  0  0  0  0  0  0  0  0  0  0  0
   55.5320   24.6800   47.1430 O   0  0  0  0  0  0  0  0  0  0  0  0
   57.7550   23.7440   47.4440 O   0  0  0  0  0  0  0  0  0  0  0  0
   56.5620   23.3310   45.1060 N   0  0  0  0  0  0  0  0  0  0  0  0
   56.4100   24.0940   43.8570 C   0  0  0  0  0  0  0  0  0  0  0  0
   56.2340   23.1320   42.6620 C   0  0  0  0  0  0  0  0  0  0  0  0
   56.2390   21.7770   43.0730 O   0  0  0  0  0  0  0  0  0  0  0  0
   57.4580   21.4790   43.7310 C   0  0  0  0  0  0  0  0  0  0  0  0
   57.6660   22.3650   44.9780 C   0  0  0  0  0  0  0  0  0  0  0  0
   56.7320   27.0050   45.5370 C   0  0  0  0  0  0  0  0  0  0  0  0
   57.7760   31.5860   46.0560 C   0  0  0  0  0  0  0  0  0  0  0  0
   58.3820   32.6600   46.7160 C   0  0  0  0  0  0  0  0  0  0  0  0
   60.3213   34.3703   49.9464 H   0  0  0  0  0  0  0  0  0  0  0  0
   59.3255   33.1284   49.0950 H   0  0  0  0  0  0  0  0  0  0  0  0
   62.4732   35.1807   48.5712 H   0  0  0  0  0  0  0  0  0  0  0  0
   64.5262   34.2177   47.5268 H   0  0  0  0  0  0  0  0  0  0  0  0
   64.5280   31.8554   46.7102 H   0  0  0  0  0  0  0  0  0  0  0  0
   62.4771   30.4498   46.9491 H   0  0  0  0  0  0  0  0  0  0  0  0
   60.4186   31.4051   47.9904 H   0  0  0  0  0  0  0  0  0  0  0  0
   59.0493   34.6480   44.0125 H   0  0  0  0  0  0  0  0  0  0  0  0
   57.9812   32.7263   42.8416 H   0  0  0  0  0  0  0  0  0  0  0  0
   59.1490   29.2927   44.7303 H   0  0  0  0  0  0  0  0  0  0  0  0
   60.6057   27.4172   45.4831 H   0  0  0  0  0  0  0  0  0  0  0  0
   59.5950   25.2743   46.2566 H   0  0  0  0  0  0  0  0  0  0  0  0
   55.5257   24.7438   43.9336 H   0  0  0  0  0  0  0  0  0  0  0  0
   57.3115   24.7036   43.6970 H   0  0  0  0  0  0  0  0  0  0  0  0
   55.2763   23.3505   42.1670 H   0  0  0  0  0  0  0  0  0  0  0  0
   57.0784   23.2837   41.9735 H   0  0  0  0  0  0  0  0  0  0  0  0
   57.4467   20.4238   44.0415 H   0  0  0  0  0  0  0  0  0  0  0  0
   58.2826   21.6752   43.0299 H   0  0  0  0  0  0  0  0  0  0  0  0
   57.6976   21.7286   45.8746 H   0  0  0  0  0  0  0  0  0  0  0  0
   58.6132   22.9145   44.8736 H   0  0  0  0  0  0  0  0  0  0  0  0
   55.6385   26.8885   45.5615 H   0  0  0  0  0  0  0  0  0  0  0  0
   57.3963   30.7325   46.6368 H   0  0  0  0  0  0  0  0  0  0  0  0
   58.4952   32.6357   47.8099 H   0  0  0  0  0  0  0  0  0  0  0  0
  1  2  2  0
  2  3  1  0
  3  4  1  0
  4  5  1  0
  5  6  2  0
  6  7  1  0
  7  8  2  0
  8  9  1  0
  9 10  2  0
  2 11  1  0
 11 12  2  0
 12 13  1  0
 13 14  2  0
 14 15  1  0
 15 16  1  0
 16 17  2  0
 16 18  1  0
 18 19  2  0
 19 20  1  0
 20 21  2  0
 21 22  1  0
 22 23  1  0
 23 24  2  0
 23 25  2  0
 23 26  1  0
 26 27  1  0
 27 28  1  0
 28 29  1  0
 29 30  1  0
 30 31  1  0
 22 32  2  0
 14 33  1  0
 33 34  2  0
 10  5  1  0
 34 11  1  0
 32 18  1  0
 31 26  1  0
  4 35  1  0
  4 36  1  0
  6 37  1  0
  7 38  1  0
  8 39  1  0
  9 40  1  0
 10 41  1  0
 12 42  1  0
 13 43  1  0
 19 44  1  0
 20 45  1  0
 21 46  1  0
 27 47  1  0
 27 48  1  0
 28 49  1  0
 28 50  1  0
 30 51  1  0
 30 52  1  0
 31 53  1  0
 31 54  1  0
 32 55  1  0
 33 56  1  0
 34 57  1  0
M  CHG  2   3  -1  15  -1
M  END
>  <UniqueID>  (10) 
9

>  <SMILES>  (10) 
O=C([N-]Cc1ccccc1)c1ccc([N-]C(=O)c2cccc(S(=O)(=O)N3CCOCC3)c2)cc1

>  <Energy>  (10) 
71.07328919101

>  <Genealogy>  (10) 
O=C([N-]Cc1ccccc1)c1ccc([N-]C(=O)c2cccc(S(=O)(=O)N3CCOCC3)c2)cc1 (protonated)
O=C([N-]Cc1ccccc1)c1ccc([N-]C(=O)c2cccc(S(=O)(=O)N3CCOCC3)c2)cc1 (3D coordinates assigned)
O=C([N-]Cc1ccccc1)c1ccc([N-]C(=O)c2cccc(S(=O)(=O)N3CCOCC3)c2)cc1 (nonaromatic ring conformer: 71.07328919101 kcal/mol)

>  <smiles>  (10) 
O=C(NCc1ccccc1)c1ccc(NC(=O)c2cccc(S(=O)(=O)N3CCOCC3)c2)cc1

>  <score_type>  (10) 
oracle

>  <origin>  (10) 
adg

>  <m_score__min__energy>  (10) 
-13.52

>  <m_primary>  (10) 
energy

$$$$
10:0
     RDKit          3D

 42 44  0  0  0  0  0  0  0  0999 V2000
   53.4610   24.3540   45.5650 O   0  0  0  0  0  0  0  0  0  0  0  0
   54.5430   25.0000   45.5460 C   0  0  0  0  0  0  0  0  0  0  0  0
   54.5490   26.3180   45.9890 O   0  0  0  0  0  0  0  0  0  0  0  0
   55.7990   24.3410   45.1180 C   0  0  0  0  0  0  0  0  0  0  0  0
   55.8530   23.7840   43.8260 C   0  0  0  0  0  0  0  0  0  0  0  0
   56.9660   23.0550   43.4090 C   0  0  0  0  0  0  0  0  0  0  0  0
   58.0430   22.8680   44.2740 C   0  0  0  0  0  0  0  0  0  0  0  0
   58.0200   23.4290   45.5510 C   0  0  0  0  0  0  0  0  0  0  0  0
   56.9160   24.1860   45.9840 C   0  0  0  0  0  0  0  0  0  0  0  0
   57.0050   24.8520   47.3030 C   0  0  0  0  0  0  0  0  0  0  0  0
   56.2760   24.4530   48.2500 O   0  0  0  0  0  0  0  0  0  0  0  0
   57.9230   25.9360   47.4970 N   0  0  0  0  0  0  0  0  0  0  0  0
   58.3410   26.8950   46.5140 C   0  0  0  0  0  0  0  0  0  0  0  0
   59.6650   26.9540   46.0430 C   0  0  0  0  0  0  0  0  0  0  0  0
   60.0220   27.8940   45.0720 C   0  0  0  0  0  0  0  0  0  0  0  0
   59.0650   28.7680   44.5530 C   0  0  0  0  0  0  0  0  0  0  0  0
   57.7360   28.6950   44.9910 C   0  0  0  0  0  0  0  0  0  0  0  0
   56.5240   29.8000   44.3510 S   0  0  0  0  0  0  0  0  0  0  0  0
   55.1710   29.4020   44.8710 O   0  0  0  0  0  0  0  0  0  0  0  0
   56.5020   29.7170   42.8490 O   0  0  0  0  0  0  0  0  0  0  0  0
   56.8930   31.4240   44.8710 N   0  0  0  0  0  0  0  0  0  0  0  0
   57.8450   31.4230   45.9810 C   0  0  0  0  0  0  0  0  0  0  0  0
   58.5950   32.7440   45.9100 C   0  0  0  0  0  0  0  0  0  0  0  0
   58.3970   33.2440   44.4880 C   0  0  0  0  0  0  0  0  0  0  0  0
   57.5380   32.1900   43.8050 C   0  0  0  0  0  0  0  0  0  0  0  0
   57.3800   27.7570   45.9700 C   0  0  0  0  0  0  0  0  0  0  0  0
   55.0070   23.9257   43.1374 H   0  0  0  0  0  0  0  0  0  0  0  0
   56.9942   22.6269   42.3961 H   0  0  0  0  0  0  0  0  0  0  0  0
   58.9122   22.2773   43.9492 H   0  0  0  0  0  0  0  0  0  0  0  0
   58.8745   23.2778   46.2269 H   0  0  0  0  0  0  0  0  0  0  0  0
   60.4205   26.2596   46.4393 H   0  0  0  0  0  0  0  0  0  0  0  0
   61.0613   27.9453   44.7153 H   0  0  0  0  0  0  0  0  0  0  0  0
   59.3547   29.5149   43.7992 H   0  0  0  0  0  0  0  0  0  0  0  0
   57.3110   31.3405   46.9392 H   0  0  0  0  0  0  0  0  0  0  0  0
   58.5358   30.5699   45.9109 H   0  0  0  0  0  0  0  0  0  0  0  0
   58.1791   33.4621   46.6320 H   0  0  0  0  0  0  0  0  0  0  0  0
   59.6601   32.6238   46.1570 H   0  0  0  0  0  0  0  0  0  0  0  0
   57.8835   34.2168   44.4901 H   0  0  0  0  0  0  0  0  0  0  0  0
   59.3555   33.3900   43.9685 H   0  0  0  0  0  0  0  0  0  0  0  0
   56.7792   32.6712   43.1705 H   0  0  0  0  0  0  0  0  0  0  0  0
   58.1461   31.5389   43.1598 H   0  0  0  0  0  0  0  0  0  0  0  0
   56.3369   27.6973   46.3141 H   0  0  0  0  0  0  0  0  0  0  0  0
  1  2  2  0
  2  3  1  0
  2  4  1  0
  4  5  2  0
  5  6  1  0
  6  7  2  0
  7  8  1  0
  8  9  2  0
  9 10  1  0
 10 11  2  0
 10 12  1  0
 12 13  1  0
 13 14  2  0
 14 15  1  0
 15 16  2  0
 16 17  1  0
 17 18  1  0
 18 19  2  0
 18 20  2  0
 18 21  1  0
 21 22  1  0
 22 23  1  0
 23 24  1  0
 24 25  1  0
 17 26  2  0
  9  4  1  0
 26 13  1  0
 25 21  1  0
  5 27  1  0
  6 28  1  0
  7 29  1  0
  8 30  1  0
 14 31  1  0
 15 32  1  0
 16 33  1  0
 22 34  1  0
 22 35  1  0
 23 36  1  0
 23 37  1  0
 24 38  1  0
 24 39  1  0
 25 40  1  0
 25 41  1  0
 26 42  1  0
M  CHG  2   3  -1  12  -1
M  END
>  <UniqueID>  (11) 
10

>  <SMILES>  (11) 
O=C([O-])c1ccccc1C(=O)[N-]c1cccc(S(=O)(=O)N2CCCC2)c1

>  <Energy>  (11) 
56.7845272045841

>  <Genealogy>  (11) 
O=C([O-])c1ccccc1C(=O)[N-]c1cccc(S(=O)(=O)N2CCCC2)c1 (protonated)
O=C([O-])c1ccccc1C(=O)[N-]c1cccc(S(=O)(=O)N2CCCC2)c1 (3D coordinates assigned)
O=C([O-])c1ccccc1C(=O)[N-]c1cccc(S(=O)(=O)N2CCCC2)c1 (nonaromatic ring conformer: 56.7845272045841 kcal/mol)

>  <smiles>  (11) 
O=C(O)c1ccccc1C(=O)Nc1cccc(S(=O)(=O)N2CCCC2)c1

>  <score_type>  (11) 
oracle

>  <origin>  (11) 
adg

>  <m_score__min__energy>  (11) 
-13.84

>  <m_primary>  (11) 
energy

$$$$
11:0
     RDKit          3D

 41 43  0  0  0  0  0  0  0  0999 V2000
   60.0180   34.6740   45.7990 N   0  0  0  0  0  0  0  0  0  0  0  0
   60.8000   34.1180   46.4480 C   0  0  0  0  0  0  0  0  0  0  0  0
   61.7760   33.4290   47.2560 C   0  0  0  0  0  0  0  0  0  0  0  0
   62.9180   34.1260   47.6790 C   0  0  0  0  0  0  0  0  0  0  0  0
   63.9090   33.4720   48.4190 C   0  0  0  0  0  0  0  0  0  0  0  0
   63.7680   32.1200   48.7420 C   0  0  0  0  0  0  0  0  0  0  0  0
   62.6340   31.4200   48.3240 C   0  0  0  0  0  0  0  0  0  0  0  0
   61.6280   32.0620   47.5810 C   0  0  0  0  0  0  0  0  0  0  0  0
   60.4940   31.2990   47.1270 N   0  0  0  0  0  0  0  0  0  0  0  0
   60.6690   30.0820   46.3250 C   0  0  0  0  0  0  0  0  0  0  0  0
   59.6900   30.0910   45.1530 C   0  0  0  0  0  0  0  0  0  0  0  0
   58.3400   30.4230   45.6280 N   0  0  0  0  0  0  0  0  0  0  0  0
   57.1790   29.8020   45.0390 C   0  0  0  0  0  0  0  0  0  0  0  0
   56.2290   30.5210   44.6070 O   0  0  0  0  0  0  0  0  0  0  0  0
   57.0210   28.3030   45.0300 C   0  0  0  0  0  0  0  0  0  0  0  0
   57.7610   27.6640   46.2090 C   0  0  0  0  0  0  0  0  0  0  0  0
   57.1950   26.3170   46.5480 C   0  0  0  0  0  0  0  0  0  0  0  0
   57.9310   25.2790   46.9830 N   0  0  0  0  0  0  0  0  0  0  0  0
   57.0190   24.2900   47.1140 C   0  0  0  0  0  0  0  0  0  0  0  0
   57.3270   23.1370   47.5140 O   0  0  0  0  0  0  0  0  0  0  0  0
   55.7550   24.6340   46.7880 N   0  0  0  0  0  0  0  0  0  0  0  0
   55.8850   25.9200   46.4280 C   0  0  0  0  0  0  0  0  0  0  0  0
   54.8210   26.7150   46.0150 O   0  0  0  0  0  0  0  0  0  0  0  0
   58.1860   31.6530   46.4130 C   0  0  0  0  0  0  0  0  0  0  0  0
   59.1500   31.6420   47.5940 C   0  0  0  0  0  0  0  0  0  0  0  0
   63.0345   35.1906   47.4279 H   0  0  0  0  0  0  0  0  0  0  0  0
   64.8020   34.0240   48.7475 H   0  0  0  0  0  0  0  0  0  0  0  0
   64.5484   31.6080   49.3242 H   0  0  0  0  0  0  0  0  0  0  0  0
   62.5269   30.3553   48.5788 H   0  0  0  0  0  0  0  0  0  0  0  0
   61.6989   30.0427   45.9405 H   0  0  0  0  0  0  0  0  0  0  0  0
   60.4750   29.2008   46.9542 H   0  0  0  0  0  0  0  0  0  0  0  0
   60.0114   30.8414   44.4157 H   0  0  0  0  0  0  0  0  0  0  0  0
   59.6741   29.0941   44.6884 H   0  0  0  0  0  0  0  0  0  0  0  0
   55.9518   28.0539   45.0992 H   0  0  0  0  0  0  0  0  0  0  0  0
   57.4490   27.9119   44.0952 H   0  0  0  0  0  0  0  0  0  0  0  0
   58.8227   27.5495   45.9450 H   0  0  0  0  0  0  0  0  0  0  0  0
   57.6439   28.3182   47.0855 H   0  0  0  0  0  0  0  0  0  0  0  0
   58.4022   32.5222   45.7744 H   0  0  0  0  0  0  0  0  0  0  0  0
   57.1543   31.7142   46.7896 H   0  0  0  0  0  0  0  0  0  0  0  0
   59.1678   32.6376   48.0614 H   0  0  0  0  0  0  0  0  0  0  0  0
   58.8174   30.8956   48.3304 H   0  0  0  0  0  0  0  0  0  0  0  0
  1  2  3  0
  2  3  1  0
  3  4  2  0
  4  5  1  0
  5  6  2  0
  6  7  1  0
  7  8  2  0
  8  9  1  0
  9 10  1  0
 10 11  1  0
 11 12  1  0
 12 13  1  0
 13 14  2  0
 13 15  1  0
 15 16  1  0
 16 17  1  0
 17 18  1  0
 18 19  1  0
 19 20  2  0
 19 21  1  0
 21 22  1  0
 22 23  1  0
 12 24  1  0
 24 25  1  0
  8  3  1  0
 25  9  1  0
 22 17  2  0
  4 26  1  0
  5 27  1  0
  6 28  1  0
  7 29  1  0
 10 30  1  0
 10 31  1  0
 11 32  1  0
 11 33  1  0
 15 34  1  0
 15 35  1  0
 16 36  1  0
 16 37  1  0
 24 38  1  0
 24 39  1  0
 25 40  1  0
 25 41  1  0
M  CHG  3  18  -1  21  -1  23  -1
M  END
>  <UniqueID>  (12) 
11

>  <SMILES>  (12) 
N#Cc1ccccc1N1CCN(C(=O)CCc2[n-]c(=O)[n-]c2[O-])CC1

>  <Energy>  (12) 
74.88926099967401

>  <Genealogy>  (12) 
N#Cc1ccccc1N1CCN(C(=O)CCc2[n-]c(=O)[n-]c2[O-])CC1 (protonated)
N#Cc1ccccc1N1CCN(C(=O)CCc2[n-]c(=O)[n-]c2[O-])CC1 (3D coordinates assigned)
N#Cc1ccccc1N1CCN(C(=O)CCc2[n-]c(=O)[n-]c2[O-])CC1 (nonaromatic ring conformer: 74.88926099967401 kcal/mol)

>  <smiles>  (12) 
N#Cc1ccccc1N1CCN(C(=O)CCc2[nH]c(=O)[nH]c2O)CC1

>  <score_type>  (12) 
oracle

>  <origin>  (12) 
adg

>  <m_score__min__energy>  (12) 
-16.420000000000002

>  <m_primary>  (12) 
energy

$$$$
12:0
     RDKit          3D

 58 61  0  0  0  0  0  0  0  0999 V2000
   57.6960   29.4900   51.3600 O   0  0  0  0  0  0  0  0  0  0  0  0
   58.6700   30.1160   50.8610 C   0  0  0  0  0  0  0  0  0  0  0  0
   59.7800   29.3410   50.1990 C   0  0  0  0  0  0  0  0  0  0  0  0
   60.6020   30.1510   49.2710 N   0  0  0  0  0  0  0  0  0  0  0  0
   61.4590   31.1030   49.7630 C   0  0  0  0  0  0  0  0  0  0  0  0
   62.3060   31.8280   48.9170 C   0  0  0  0  0  0  0  0  0  0  0  0
   63.2340   32.8760   49.4820 C   0  0  0  0  0  0  0  0  0  0  0  0
   62.3320   34.3770   50.0090 S   0  0  0  0  0  0  0  0  0  0  0  0
   61.0030   34.2010   48.8230 C   0  0  0  0  0  0  0  0  0  0  0  0
   61.1270   34.5830   47.5260 N   0  0  0  0  0  0  0  0  0  0  0  0
   59.9530   34.2030   47.0020 C   0  0  0  0  0  0  0  0  0  0  0  0
   59.5330   34.3170   45.6790 C   0  0  0  0  0  0  0  0  0  0  0  0
   58.2630   33.8050   45.3490 C   0  0  0  0  0  0  0  0  0  0  0  0
   57.4580   33.2010   46.3420 C   0  0  0  0  0  0  0  0  0  0  0  0
   57.9200   33.0980   47.6690 C   0  0  0  0  0  0  0  0  0  0  0  0
   59.1790   33.6190   47.9560 C   0  0  0  0  0  0  0  0  0  0  0  0
   59.8250   33.6000   49.1300 N   0  0  0  0  0  0  0  0  0  0  0  0
   62.3060   31.4980   47.5570 C   0  0  0  0  0  0  0  0  0  0  0  0
   63.0740   32.0850   46.7480 O   0  0  0  0  0  0  0  0  0  0  0  0
   61.4860   30.5240   47.1030 N   0  0  0  0  0  0  0  0  0  0  0  0
   60.6410   29.8530   47.9280 C   0  0  0  0  0  0  0  0  0  0  0  0
   59.6890   28.5010   47.2050 S   0  0  0  0  0  0  0  0  0  0  0  0
   59.8340   29.0870   45.4800 C   0  0  0  0  0  0  0  0  0  0  0  0
   58.5030   29.5580   44.9640 C   0  0  0  0  0  0  0  0  0  0  0  0
   58.4350   30.6680   44.1050 C   0  0  0  0  0  0  0  0  0  0  0  0
   57.2010   31.1020   43.6110 C   0  0  0  0  0  0  0  0  0  0  0  0
   56.0280   30.4350   43.9750 C   0  0  0  0  0  0  0  0  0  0  0  0
   56.0880   29.3330   44.8310 C   0  0  0  0  0  0  0  0  0  0  0  0
   57.3210   28.8890   45.3200 C   0  0  0  0  0  0  0  0  0  0  0  0
   58.6980   31.5510   50.8940 N   0  0  0  0  0  0  0  0  0  0  0  0
   57.6300   32.3380   51.5060 C   0  0  0  0  0  0  0  0  0  0  0  0
   58.2110   33.5510   52.2390 C   0  0  0  0  0  0  0  0  0  0  0  0
   59.5070   33.2070   52.9770 C   0  0  0  0  0  0  0  0  0  0  0  0
   60.5890   33.1610   52.0840 O   0  0  0  0  0  0  0  0  0  0  0  0
   60.4375   28.9379   50.9834 H   0  0  0  0  0  0  0  0  0  0  0  0
   59.3058   28.5495   49.6001 H   0  0  0  0  0  0  0  0  0  0  0  0
   61.4808   31.3005   50.8449 H   0  0  0  0  0  0  0  0  0  0  0  0
   63.7593   32.4537   50.3513 H   0  0  0  0  0  0  0  0  0  0  0  0
   63.9419   33.1650   48.6912 H   0  0  0  0  0  0  0  0  0  0  0  0
   60.1710   34.7905   44.9182 H   0  0  0  0  0  0  0  0  0  0  0  0
   57.8960   33.8754   44.3144 H   0  0  0  0  0  0  0  0  0  0  0  0
   56.4649   32.8091   46.0769 H   0  0  0  0  0  0  0  0  0  0  0  0
   57.3082   32.6231   48.4502 H   0  0  0  0  0  0  0  0  0  0  0  0
   60.5515   29.9199   45.4409 H   0  0  0  0  0  0  0  0  0  0  0  0
   60.1814   28.2535   44.8519 H   0  0  0  0  0  0  0  0  0  0  0  0
   59.3561   31.1975   43.8201 H   0  0  0  0  0  0  0  0  0  0  0  0
   57.1534   31.9689   42.9355 H   0  0  0  0  0  0  0  0  0  0  0  0
   55.0574   30.7780   43.5873 H   0  0  0  0  0  0  0  0  0  0  0  0
   55.1632   28.8129   45.1214 H   0  0  0  0  0  0  0  0  0  0  0  0
   57.3647   28.0138   45.9849 H   0  0  0  0  0  0  0  0  0  0  0  0
   59.5490   32.0510   50.5550 H   0  0  0  0  0  0  0  0  0  0  0  0
   56.9408   32.6847   50.7219 H   0  0  0  0  0  0  0  0  0  0  0  0
   57.0935   31.7076   52.2304 H   0  0  0  0  0  0  0  0  0  0  0  0
   58.4196   34.3433   51.5050 H   0  0  0  0  0  0  0  0  0  0  0  0
   57.4733   33.8837   52.9840 H   0  0  0  0  0  0  0  0  0  0  0  0
   59.7018   33.9738   53.7412 H   0  0  0  0  0  0  0  0  0  0  0  0
   59.3945   32.2192   53.4477 H   0  0  0  0  0  0  0  0  0  0  0  0
   60.2600   33.5080   51.2140 H   0  0  0  0  0  0  0  0  0  0  0  0
  1  2  2  0
  2  3  1  0
  3  4  1  0
  4  5  1  0
  5  6  2  0
  6  7  1  0
  7  8  1  0
  8  9  1  0
  9 10  2  0
 10 11  1  0
 11 12  2  0
 12 13  1  0
 13 14  2  0
 14 15  1  0
 15 16  2  0
 16 17  1  0
  6 18  1  0
 18 19  2  0
 18 20  1  0
 20 21  2  0
 21 22  1  0
 22 23  1  0
 23 24  1  0
 24 25  2  0
 25 26  1  0
 26 27  2  0
 27 28  1  0
 28 29  2  0
  2 30  1  0
 30 31  1  0
 31 32  1  0
 32 33  1  0
 33 34  1  0
 21  4  1  0
 29 24  1  0
 17  9  1  0
 16 11  1  0
  3 35  1  0
  3 36  1  0
  5 37  1  0
  7 38  1  0
  7 39  1  0
 12 40  1  0
 13 41  1  0
 14 42  1  0
 15 43  1  0
 23 44  1  0
 23 45  1  0
 25 46  1  0
 26 47  1  0
 27 48  1  0
 28 49  1  0
 29 50  1  0
 30 51  1  0
 31 52  1  0
 31 53  1  0
 32 54  1  0
 32 55  1  0
 33 56  1  0
 33 57  1  0
 34 58  1  0
M  CHG  1  17  -1
M  END
>  <UniqueID>  (13) 
12

>  <SMILES>  (13) 
O=C(Cn1cc(CSc2nc3ccccc3[n-]2)c(=O)nc1SCc1ccccc1)NCCCO

>  <Energy>  (13) 
80.19707287121628

>  <Genealogy>  (13) 
O=C(Cn1cc(CSc2nc3ccccc3[n-]2)c(=O)nc1SCc1ccccc1)NCCCO (protonated)
O=C(Cn1cc(CSc2nc3ccccc3[n-]2)c(=O)nc1SCc1ccccc1)NCCCO (3D coordinates assigned)
O=C(Cn1cc(CSc2nc3ccccc3[n-]2)c(=O)nc1SCc1ccccc1)NCCCO (optimized conformer: 80.19707287121628 kcal/mol)

>  <smiles>  (13) 
O=C(Cn1cc(CSc2nc3ccccc3[nH]2)c(=O)nc1SCc1ccccc1)NCCCO

>  <score_type>  (13) 
oracle

>  <origin>  (13) 
adg

>  <m_score__min__energy>  (13) 
-9.9399999999999995

>  <m_primary>  (13) 
energy

$$$$
13:0
     RDKit          3D

 38 39  0  0  1  0  0  0  0  0999 V2000
   57.3970   33.7370   44.9170 C   0  0  0  0  0  0  0  0  0  0  0  0
   58.6390   33.4570   45.6870 C   0  0  0  0  0  0  0  0  0  0  0  0
   59.5230   34.4610   46.0450 C   0  0  0  0  0  0  0  0  0  0  0  0
   60.6850   34.2050   46.7650 C   0  0  0  0  0  0  0  0  0  0  0  0
   60.9300   32.8860   47.1150 C   0  0  0  0  0  0  0  0  0  0  0  0
   60.0750   31.8560   46.7770 C   0  0  0  0  0  0  0  0  0  0  0  0
   58.9290   32.1560   46.0620 C   0  0  0  0  0  0  0  0  0  0  0  0
   58.0310   31.0660   45.7090 C   0  0  0  0  0  0  0  0  0  0  0  0
   56.9520   31.2450   45.0500 N   0  0  0  0  0  0  0  0  0  0  0  0
   56.6170   30.6910   43.7710 C   0  0  0  0  0  0  0  0  0  0  0  0
   55.4750   29.7540   43.7170 C   0  0  0  0  0  0  0  0  0  0  0  0
   55.1530   29.3530   45.0190 O   0  0  0  0  0  0  0  0  0  0  0  0
   58.3540   29.7460   46.1060 N   0  0  0  0  0  0  0  0  0  0  0  0
   57.3450   28.8550   46.1910 O   0  0  0  0  0  0  0  0  0  0  0  0
   59.7410   29.4100   46.4020 C   0  0  0  0  0  0  0  0  0  0  0  0
   59.6500   28.1920   47.3240 C   0  0  0  0  0  0  0  0  0  0  0  0
   60.5390   29.0280   45.2000 C   0  0  0  0  0  0  0  0  0  0  0  0
   60.4280   30.4770   47.2000 C   0  0  0  0  0  0  0  0  0  0  0  0
   56.5674   33.9240   45.6147 H   0  0  0  0  0  0  0  0  0  0  0  0
   57.5502   34.6231   44.2835 H   0  0  0  0  0  0  0  0  0  0  0  0
   57.1552   32.8708   44.2835 H   0  0  0  0  0  0  0  0  0  0  0  0
   59.2984   35.4966   45.7498 H   0  0  0  0  0  0  0  0  0  0  0  0
   61.3781   35.0123   47.0441 H   0  0  0  0  0  0  0  0  0  0  0  0
   61.8414   32.6509   47.6843 H   0  0  0  0  0  0  0  0  0  0  0  0
   56.3886   31.5298   43.0970 H   0  0  0  0  0  0  0  0  0  0  0  0
   57.4916   30.0876   43.4864 H   0  0  0  0  0  0  0  0  0  0  0  0
   54.6085   30.2545   43.2602 H   0  0  0  0  0  0  0  0  0  0  0  0
   55.7436   28.8748   43.1129 H   0  0  0  0  0  0  0  0  0  0  0  0
   55.5160   30.0610   45.6240 H   0  0  0  0  0  0  0  0  0  0  0  0
   56.4960   29.3090   45.9870 H   0  0  0  0  0  0  0  0  0  0  0  0
   59.6748   28.5233   48.3726 H   0  0  0  0  0  0  0  0  0  0  0  0
   58.7093   27.6555   47.1310 H   0  0  0  0  0  0  0  0  0  0  0  0
   60.5006   27.5217   47.1310 H   0  0  0  0  0  0  0  0  0  0  0  0
   61.4884   28.5735   45.5195 H   0  0  0  0  0  0  0  0  0  0  0  0
   59.9706   28.3044   44.5973 H   0  0  0  0  0  0  0  0  0  0  0  0
   60.7462   29.9246   44.5973 H   0  0  0  0  0  0  0  0  0  0  0  0
   60.1484   30.3552   48.2569 H   0  0  0  0  0  0  0  0  0  0  0  0
   61.5091   30.3563   47.0366 H   0  0  0  0  0  0  0  0  0  0  0  0
  1  2  1  0
  2  3  2  0
  3  4  1  0
  4  5  2  0
  5  6  1  0
  6  7  2  0
  7  8  1  0
  8  9  2  0
  9 10  1  0
 10 11  1  0
 11 12  1  0
  8 13  1  0
 13 14  1  0
 13 15  1  0
 15 16  1  0
 15 17  1  0
 15 18  1  0
  7  2  1  0
 18  6  1  0
  1 19  1  0
  1 20  1  0
  1 21  1  0
  3 22  1  0
  4 23  1  0
  5 24  1  0
 10 25  1  0
 10 26  1  0
 11 27  1  0
 11 28  1  0
 12 29  1  0
 14 30  1  0
 16 31  1  0
 16 32  1  0
 16 33  1  0
 17 34  1  0
 17 35  1  0
 17 36  1  0
 18 37  1  0
 18 38  1  0
M  END
>  <smiles>  (14) 
Cc1cccc2c1C(=NCCO)N(O)C(C)(C)C2

>  <score_type>  (14) 
oracle

>  <origin>  (14) 
adg

>  <m_score__min__energy>  (14) 
-7.5300000000000002

>  <m_primary>  (14) 
energy

$$$$
14:0
     RDKit          3D

 62 66  0  0  0  0  0  0  0  0999 V2000
   54.1420   31.9660   50.9090 H   0  0  0  0  0  0  0  0  0  0  0  0
   53.8370   31.3150   51.6210 O   0  0  0  0  0  0  0  0  0  0  0  0
   54.7090   30.3920   52.1990 C   0  0  0  0  0  0  0  0  0  0  0  0
   54.2140   29.3080   52.9410 C   0  0  0  0  0  0  0  0  0  0  0  0
   53.1300   29.1944   53.0892 H   0  0  0  0  0  0  0  0  0  0  0  0
   55.0960   28.3710   53.4930 C   0  0  0  0  0  0  0  0  0  0  0  0
   54.7118   27.5139   54.0655 H   0  0  0  0  0  0  0  0  0  0  0  0
   56.4710   28.5390   53.3070 C   0  0  0  0  0  0  0  0  0  0  0  0
   57.1779   27.8176   53.7426 H   0  0  0  0  0  0  0  0  0  0  0  0
   56.9360   29.6010   52.5830 N   0  0  0  0  0  0  0  0  0  0  0  0
   58.4050   27.6400   47.3980 C   0  0  0  0  0  0  0  0  0  0  0  0
   59.0520   27.9440   48.4850 N   0  0  0  0  0  0  0  0  0  0  0  0
   57.9360   31.8940   51.2360 C   0  0  0  0  0  0  0  0  0  0  0  0
   58.3270   32.8600   51.9500 O   0  0  0  0  0  0  0  0  0  0  0  0
   58.8810   31.1940   50.3320 C   0  0  0  0  0  0  0  0  0  0  0  0
   60.1370   31.7480   50.0310 C   0  0  0  0  0  0  0  0  0  0  0  0
   60.4199   32.7249   50.4500 H   0  0  0  0  0  0  0  0  0  0  0  0
   61.0300   31.0600   49.1990 C   0  0  0  0  0  0  0  0  0  0  0  0
   62.0107   31.5009   48.9669 H   0  0  0  0  0  0  0  0  0  0  0  0
   60.6830   29.8170   48.6620 C   0  0  0  0  0  0  0  0  0  0  0  0
   61.3960   29.2764   48.0222 H   0  0  0  0  0  0  0  0  0  0  0  0
   59.4230   29.2570   48.9390 C   0  0  0  0  0  0  0  0  0  0  0  0
   56.5590   31.4930   51.2830 N   0  0  0  0  0  0  0  0  0  0  0  0
   56.0960   30.5240   52.0220 C   0  0  0  0  0  0  0  0  0  0  0  0
   57.7510   28.6190   46.7250 N   0  0  0  0  0  0  0  0  0  0  0  0
   57.0950   28.3390   45.5680 C   0  0  0  0  0  0  0  0  0  0  0  0
   56.3280   29.3500   44.8960 N   0  0  0  0  0  0  0  0  0  0  0  0
   56.7720   30.4030   44.2610 C   0  0  0  0  0  0  0  0  0  0  0  0
   57.1130   31.5000   44.9860 N   0  0  0  0  0  0  0  0  0  0  0  0
   57.6030   32.6310   44.4110 C   0  0  0  0  0  0  0  0  0  0  0  0
   57.8673   33.4952   45.0381 H   0  0  0  0  0  0  0  0  0  0  0  0
   57.7700   32.6970   43.0370 C   0  0  0  0  0  0  0  0  0  0  0  0
   58.1973   33.5974   42.5714 H   0  0  0  0  0  0  0  0  0  0  0  0
   57.3910   31.6110   42.2520 C   0  0  0  0  0  0  0  0  0  0  0  0
   57.4896   31.6607   41.1576 H   0  0  0  0  0  0  0  0  0  0  0  0
   56.8860   30.4600   42.8570 C   0  0  0  0  0  0  0  0  0  0  0  0
   56.5784   29.6015   42.2419 H   0  0  0  0  0  0  0  0  0  0  0  0
   57.0710   27.0640   45.1060 N   0  0  0  0  0  0  0  0  0  0  0  0
   57.7330   26.0750   45.7640 C   0  0  0  0  0  0  0  0  0  0  0  0
   57.7070   24.7180   45.2790 N   0  0  0  0  0  0  0  0  0  0  0  0
   56.9000   24.3930   44.0880 C   0  0  0  0  0  0  0  0  0  0  0  0
   55.9139   24.8708   44.1848 H   0  0  0  0  0  0  0  0  0  0  0  0
   57.4341   24.7648   43.2011 H   0  0  0  0  0  0  0  0  0  0  0  0
   56.7040   22.8720   43.9270 C   0  0  1  0  0  0  0  0  0  0  0  0
   56.1070   22.5366   44.7878 H   0  0  0  0  0  0  0  0  0  0  0  0
   55.9780   22.5710   42.6840 N   0  0  0  0  0  0  0  0  0  0  0  0
   55.3270   23.3640   42.4720 H   0  0  0  0  0  0  0  0  0  0  0  0
   56.6640   22.5060   41.8920 H   0  0  0  0  0  0  0  0  0  0  0  0
   58.0410   22.0960   43.9620 C   0  0  0  0  0  0  0  0  0  0  0  0
   57.8412   21.0745   44.3178 H   0  0  0  0  0  0  0  0  0  0  0  0
   58.4496   22.1104   42.9408 H   0  0  0  0  0  0  0  0  0  0  0  0
   59.1080   22.7390   44.8890 C   0  0  2  0  0  0  0  0  0  0  0  0
   59.7486   23.3568   44.2426 H   0  0  0  0  0  0  0  0  0  0  0  0
   59.9460   21.7220   45.5370 N   0  0  0  0  0  0  0  0  0  0  0  0
   59.6030   20.7640   45.2760 H   0  0  0  0  0  0  0  0  0  0  0  0
   60.9270   21.8200   45.1880 H   0  0  0  0  0  0  0  0  0  0  0  0
   58.4770   23.6560   45.9450 C   0  0  0  0  0  0  0  0  0  0  0  0
   57.8072   23.0667   46.5886 H   0  0  0  0  0  0  0  0  0  0  0  0
   59.2708   24.1090   46.5570 H   0  0  0  0  0  0  0  0  0  0  0  0
   58.4020   26.3740   46.9070 N   0  0  0  0  0  0  0  0  0  0  0  0
   58.5380   29.9440   49.7850 C   0  0  0  0  0  0  0  0  0  0  0  0
   57.5612   29.4980   50.0239 H   0  0  0  0  0  0  0  0  0  0  0  0
  1  2  1  0
  2  3  1  0
  3  4  2  0
  4  5  1  0
  4  6  1  0
  6  7  1  0
  6  8  2  0
  8  9  1  0
  8 10  1  0
 10 11  1  0
 11 12  2  0
 12 13  1  0
 13 14  2  0
 13 15  1  0
 15 16  2  0
 16 17  1  0
 16 18  1  0
 18 19  1  0
 18 20  2  0
 20 21  1  0
 20 22  1  0
 22 23  1  0
 23 24  2  0
 24 25  1  0
 25 26  2  0
 26 27  1  0
 27 28  2  3
 28 29  1  0
 29 30  1  0
 30 31  1  0
 30 32  2  0
 32 33  1  0
 32 34  1  0
 34 35  1  0
 34 36  2  0
 36 37  1  0
 26 38  1  0
 38 39  1  0
 39 40  1  0
 40 41  1  0
 41 42  1  0
 41 43  1  0
 41 44  1  0
 44 45  1  1
 44 46  1  0
 46 47  1  0
 46 48  1  0
 44 49  1  0
 49 50  1  0
 49 51  1  0
 49 52  1  0
 52 53  1  6
 52 54  1  0
 54 55  1  0
 54 56  1  0
 52 57  1  0
 57 58  1  0
 57 59  1  0
 39 60  2  0
 22 61  2  0
 61 62  1  0
 11  3  1  0
 61 15  1  0
 60 24  1  0
 36 28  1  0
 57 40  1  0
M  CHG  3  10  -1  29  -1  38  -1
M  END
>  <UniqueID>  (15) 
13

>  <SMILES>  (15) 
N[C@H]1C[C@H](N)CN(c2n/c(=N\c3cccc(C(=O)/N=c4\[n-]cccc4O)c3)nc(N=c3cccc[n-]3)[n-]2)C1

>  <Energy>  (15) 
94.63029460309711

>  <Genealogy>  (15) 
NC1CC(N)CN(c2nc(=Nc3cccc(C(=O)N=c4[n-]cccc4O)c3)nc(N=c3cccc[n-]3)[n-]2)C1 (protonated)
N[C@H]1C[C@H](N)CN(c2nc(=Nc3cccc(C(=O)N=c4[n-]cccc4O)c3)nc(N=c3cccc[n-]3)[n-]2)C1 (chirality)
N[C@H]1C[C@H](N)CN(c2n/c(=N\c3cccc(C(=O)/N=c4\[n-]cccc4O)c3)nc(N=c3cccc[n-]3)[n-]2)C1 (cis-trans isomerization)
N[C@H]1C[C@H](N)CN(c2n/c(=N\c3cccc(C(=O)/N=c4\[n-]cccc4O)c3)nc(N=c3cccc[n-]3)[n-]2)C1 (3D coordinates assigned)
N[C@H]1C[C@H](N)CN(c2n/c(=N\c3cccc(C(=O)/N=c4\[n-]cccc4O)c3)nc(N=c3cccc[n-]3)[n-]2)C1 (nonaromatic ring conformer: 94.63029460309711 kcal/mol)

>  <smiles>  (15) 
NC1CC(N)CN(c2nc(=Nc3cccc(C(=O)N=c4[nH]cccc4O)c3)nc(N=c3cccc[nH]3)[nH]2)C1

>  <score_type>  (15) 
oracle

>  <origin>  (15) 
adg

>  <m_score__min__energy>  (15) 
-14.08

>  <m_primary>  (15) 
energy

$$$$
15:0
     RDKit          3D

 27 28  0  0  0  0  0  0  0  0999 V2000
   57.1289   23.3408   42.8937 H   0  0  0  0  0  0  0  0  0  0  0  0
   56.1800   23.5480   43.4100 C   0  0  0  0  0  0  0  0  0  0  0  0
   55.2253   23.2745   42.9370 H   0  0  0  0  0  0  0  0  0  0  0  0
   56.1870   24.1320   44.6120 C   0  0  0  0  0  0  0  0  0  0  0  0
   57.1484   24.4006   45.0742 H   0  0  0  0  0  0  0  0  0  0  0  0
   54.9130   24.4290   45.3440 C   0  0  0  0  0  0  0  0  0  0  0  0
   54.1589   24.7946   44.6314 H   0  0  0  0  0  0  0  0  0  0  0  0
   54.5498   23.5109   45.8289 H   0  0  0  0  0  0  0  0  0  0  0  0
   55.1540   25.4490   46.3610 N   0  0  0  0  0  0  0  0  0  0  0  0
   56.1810   26.2480   46.3630 C   0  0  0  0  0  0  0  0  0  0  0  0
   56.1740   27.3870   45.6190 N   0  0  0  0  0  0  0  0  0  0  0  0
   57.2260   28.2460   45.6060 C   0  0  0  0  0  0  0  0  0  0  0  0
   57.1020   29.4580   44.7660 C   0  0  0  0  0  0  0  0  0  0  0  0
   57.1080   30.6730   45.2660 O   0  0  0  0  0  0  0  0  0  0  0  0
   57.0170   31.5370   44.2810 C   0  0  0  0  0  0  0  0  0  0  0  0
   56.9917   32.6305   44.3979 H   0  0  0  0  0  0  0  0  0  0  0  0
   56.9580   30.8660   43.0790 C   0  0  0  0  0  0  0  0  0  0  0  0
   56.8789   31.3116   42.0764 H   0  0  0  0  0  0  0  0  0  0  0  0
   57.0180   29.5250   43.3860 C   0  0  0  0  0  0  0  0  0  0  0  0
   57.0024   28.6813   42.6804 H   0  0  0  0  0  0  0  0  0  0  0  0
   58.3770   27.9300   46.3630 C   0  0  0  0  0  0  0  0  0  0  0  0
   59.5770   28.7330   46.3150 C   0  0  0  0  0  0  0  0  0  0  0  0
   60.5390   29.3770   46.2690 N   0  0  0  0  0  0  0  0  0  0  0  0
   58.3630   26.7520   47.1280 C   0  0  0  0  0  0  0  0  0  0  0  0
   59.3660   26.4310   47.8240 O   0  0  0  0  0  0  0  0  0  0  0  0
   57.2690   25.9440   47.1180 N   0  0  0  0  0  0  0  0  0  0  0  0
   57.2730   25.0690   47.6920 H   0  0  0  0  0  0  0  0  0  0  0  0
  1  2  1  0
  2  3  1  0
  2  4  2  0
  4  5  1  0
  4  6  1  0
  6  7  1  0
  6  8  1  0
  6  9  1  0
  9 10  2  0
 10 11  1  0
 11 12  1  0
 12 13  1  0
 13 14  1  0
 14 15  1  0
 15 16  1  0
 15 17  2  0
 17 18  1  0
 17 19  1  0
 19 20  1  0
 12 21  2  0
 21 22  1  0
 22 23  3  0
 21 24  1  0
 24 25  2  0
 24 26  1  0
 26 27  1  0
 26 10  1  0
 19 13  2  0
M  CHG  1  11  -1
M  END
>  <UniqueID>  (16) 
14

>  <SMILES>  (16) 
C=CC/N=c1\[n-]c(-c2ccco2)c(C#N)c(=O)[nH]1

>  <Energy>  (16) 
55.273987914548165

>  <Genealogy>  (16) 
C=CCN=c1[n-]c(-c2ccco2)c(C#N)c(=O)[nH]1 (protonated)
C=CC/N=c1\[n-]c(-c2ccco2)c(C#N)c(=O)[nH]1 (cis-trans isomerization)
C=CC/N=c1\[n-]c(-c2ccco2)c(C#N)c(=O)[nH]1 (3D coordinates assigned)
C=CC/N=c1\[n-]c(-c2ccco2)c(C#N)c(=O)[nH]1 (optimized conformer: 55.273987914548165 kcal/mol)

>  <smiles>  (16) 
C=CCN=c1[nH]c(-c2ccco2)c(C#N)c(=O)[nH]1

>  <score_type>  (16) 
oracle

>  <origin>  (16) 
adg

>  <m_score__min__energy>  (16) 
-7.4400000000000004

>  <m_primary>  (16) 
energy

$$$$
16:0
     RDKit          3D

 38 40  0  0  0  0  0  0  0  0999 V2000
   60.2173   32.8049   50.5381 H   0  0  0  0  0  0  0  0  0  0  0  0
   60.1320   32.9050   49.4460 C   0  0  0  0  0  0  0  0  0  0  0  0
   58.9020   33.0770   48.9370 C   0  0  0  0  0  0  0  0  0  0  0  0
   58.0520   33.0114   49.6321 H   0  0  0  0  0  0  0  0  0  0  0  0
   58.6000   33.3480   47.5140 C   0  0  0  0  0  0  0  0  0  0  0  0
   59.1540   34.4760   46.9010 C   0  0  0  0  0  0  0  0  0  0  0  0
   59.8097   35.1563   47.4643 H   0  0  0  0  0  0  0  0  0  0  0  0
   58.8580   34.7200   45.5620 C   0  0  0  0  0  0  0  0  0  0  0  0
   59.3230   35.7380   44.9860 O   0  0  0  0  0  0  0  0  0  0  0  0
   58.0630   33.8610   44.8770 N   0  0  0  0  0  0  0  0  0  0  0  0
   57.5490   32.7480   45.4690 C   0  0  0  0  0  0  0  0  0  0  0  0
   56.7880   31.9220   44.8090 N   0  0  0  0  0  0  0  0  0  0  0  0
   57.2050   30.8190   43.9840 C   0  0  0  0  0  0  0  0  0  0  0  0
   57.3120   30.9670   42.7360 O   0  0  0  0  0  0  0  0  0  0  0  0
   57.5130   29.4950   44.5930 C   0  0  0  0  0  0  0  0  0  0  0  0
   58.8570   29.0840   44.7070 C   0  0  0  0  0  0  0  0  0  0  0  0
   59.6601   29.7452   44.3496 H   0  0  0  0  0  0  0  0  0  0  0  0
   59.1800   27.8460   45.2690 C   0  0  0  0  0  0  0  0  0  0  0  0
   60.2331   27.5389   45.3511 H   0  0  0  0  0  0  0  0  0  0  0  0
   58.1710   26.9990   45.7260 C   0  0  0  0  0  0  0  0  0  0  0  0
   58.4280   26.0251   46.1681 H   0  0  0  0  0  0  0  0  0  0  0  0
   56.8350   27.3880   45.6220 C   0  0  0  0  0  0  0  0  0  0  0  0
   56.0415   26.7175   45.9836 H   0  0  0  0  0  0  0  0  0  0  0  0
   56.4970   28.6250   45.0610 C   0  0  0  0  0  0  0  0  0  0  0  0
   55.1510   28.9680   44.9790 O   0  0  0  0  0  0  0  0  0  0  0  0
   57.8310   32.4920   46.7780 N   0  0  0  0  0  0  0  0  0  0  0  0
   57.4600   31.6180   47.2140 H   0  0  0  0  0  0  0  0  0  0  0  0
   61.3840   32.8390   48.6570 C   0  0  0  0  0  0  0  0  0  0  0  0
   61.6590   31.6830   47.9100 C   0  0  0  0  0  0  0  0  0  0  0  0
   60.9527   30.8399   47.9262 H   0  0  0  0  0  0  0  0  0  0  0  0
   62.8270   31.5980   47.1450 C   0  0  0  0  0  0  0  0  0  0  0  0
   63.0434   30.6836   46.5731 H   0  0  0  0  0  0  0  0  0  0  0  0
   63.7190   32.6720   47.1060 C   0  0  0  0  0  0  0  0  0  0  0  0
   64.6409   32.6001   46.5103 H   0  0  0  0  0  0  0  0  0  0  0  0
   63.4400   33.8380   47.8240 C   0  0  0  0  0  0  0  0  0  0  0  0
   64.1404   34.6855   47.7888 H   0  0  0  0  0  0  0  0  0  0  0  0
   62.2720   33.9290   48.5870 C   0  0  0  0  0  0  0  0  0  0  0  0
   62.0461   34.8558   49.1347 H   0  0  0  0  0  0  0  0  0  0  0  0
  1  2  1  0
  2  3  2  0
  3  4  1  0
  3  5  1  0
  5  6  2  0
  6  7  1  0
  6  8  1  0
  8  9  2  0
  8 10  1  0
 10 11  1  0
 11 12  2  0
 12 13  1  0
 13 14  2  0
 13 15  1  0
 15 16  2  0
 16 17  1  0
 16 18  1  0
 18 19  1  0
 18 20  2  0
 20 21  1  0
 20 22  1  0
 22 23  1  0
 22 24  2  0
 24 25  1  0
 11 26  1  0
 26 27  1  0
  2 28  1  0
 28 29  2  0
 29 30  1  0
 29 31  1  0
 31 32  1  0
 31 33  2  0
 33 34  1  0
 33 35  1  0
 35 36  1  0
 35 37  2  0
 37 38  1  0
 26  5  1  0
 37 28  1  0
 24 15  1  0
M  CHG  2  10  -1  25  -1
M  END
>  <UniqueID>  (17) 
15

>  <SMILES>  (17) 
O=C(/N=c1\[n-]c(=O)cc(/C=C\c2ccccc2)[nH]1)c1ccccc1[O-]

>  <Energy>  (17) 
56.028406884628964

>  <Genealogy>  (17) 
O=C(N=c1[n-]c(=O)cc(C=Cc2ccccc2)[nH]1)c1ccccc1[O-] (protonated)
O=C(/N=c1\[n-]c(=O)cc(/C=C\c2ccccc2)[nH]1)c1ccccc1[O-] (cis-trans isomerization)
O=C(/N=c1\[n-]c(=O)cc(/C=C\c2ccccc2)[nH]1)c1ccccc1[O-] (3D coordinates assigned)
O=C(/N=c1\[n-]c(=O)cc(/C=C\c2ccccc2)[nH]1)c1ccccc1[O-] (optimized conformer: 56.028406884628964 kcal/mol)

>  <smiles>  (17) 
O=C(N=c1[nH]c(C=Cc2ccccc2)cc(=O)[nH]1)c1ccccc1O

>  <score_type>  (17) 
oracle

>  <origin>  (17) 
adg

>  <m_score__min__energy>  (17) 
-14.33

>  <m_primary>  (17) 
energy

$$$$
17:0
     RDKit          3D

 43 45  0  0  0  0  0  0  0  0999 V2000
   55.1450   29.3340   44.8620 O   0  0  0  0  0  0  0  0  0  0  0  0
   56.3900   29.4990   44.7530 C   0  0  0  0  0  0  0  0  0  0  0  0
   57.2870   28.4070   44.9720 N   0  0  0  0  0  0  0  0  0  0  0  0
   57.7520   27.9960   46.2920 C   0  0  0  0  0  0  0  0  0  0  0  0
   58.8420   28.9150   46.7690 C   0  0  0  0  0  0  0  0  0  0  0  0
   58.8700   29.3400   48.1060 C   0  0  0  0  0  0  0  0  0  0  0  0
   59.9010   30.1760   48.5410 C   0  0  0  0  0  0  0  0  0  0  0  0
   60.8720   30.5710   47.6730 N   0  0  0  0  0  0  0  0  0  0  0  0
   60.8710   30.1710   46.3750 C   0  0  0  0  0  0  0  0  0  0  0  0
   59.8590   29.3340   45.8980 C   0  0  0  0  0  0  0  0  0  0  0  0
   56.9280   30.8180   44.4060 C   0  0  0  0  0  0  0  0  0  0  0  0
   57.4480   31.1850   43.1790 C   0  0  0  0  0  0  0  0  0  0  0  0
   57.8110   32.5080   43.3070 C   0  0  0  0  0  0  0  0  0  0  0  0
   57.4890   32.8620   44.6030 C   0  0  0  0  0  0  0  0  0  0  0  0
   57.7030   34.2120   45.2140 C   0  0  0  0  0  0  0  0  0  0  0  0
   58.8690   34.1380   46.5710 S   0  0  0  0  0  0  0  0  0  0  0  0
   58.3550   33.2420   47.6650 O   0  0  0  0  0  0  0  0  0  0  0  0
   59.0490   35.5220   47.1260 O   0  0  0  0  0  0  0  0  0  0  0  0
   60.4580   33.5470   46.0090 C   0  0  0  0  0  0  0  0  0  0  0  0
   61.4850   33.6160   47.1040 C   0  0  0  0  0  0  0  0  0  0  0  0
   62.8450   33.4110   46.8120 C   0  0  0  0  0  0  0  0  0  0  0  0
   63.7980   33.4600   47.8340 C   0  0  0  0  0  0  0  0  0  0  0  0
   63.4040   33.7260   49.1480 C   0  0  0  0  0  0  0  0  0  0  0  0
   62.0580   33.9500   49.4430 C   0  0  0  0  0  0  0  0  0  0  0  0
   61.0990   33.8950   48.4260 C   0  0  0  0  0  0  0  0  0  0  0  0
   56.9690   31.8350   45.2370 O   0  0  0  0  0  0  0  0  0  0  0  0
   56.9113   28.0313   47.0005 H   0  0  0  0  0  0  0  0  0  0  0  0
   58.1484   26.9718   46.2296 H   0  0  0  0  0  0  0  0  0  0  0  0
   58.0857   29.0171   48.8065 H   0  0  0  0  0  0  0  0  0  0  0  0
   59.9282   30.5157   49.5869 H   0  0  0  0  0  0  0  0  0  0  0  0
   61.6695   30.5071   45.6971 H   0  0  0  0  0  0  0  0  0  0  0  0
   59.8596   29.0062   44.8480 H   0  0  0  0  0  0  0  0  0  0  0  0
   57.5508   30.5519   42.2853 H   0  0  0  0  0  0  0  0  0  0  0  0
   58.2636   33.1496   42.5366 H   0  0  0  0  0  0  0  0  0  0  0  0
   58.0921   34.8953   44.4448 H   0  0  0  0  0  0  0  0  0  0  0  0
   56.7397   34.5717   45.6047 H   0  0  0  0  0  0  0  0  0  0  0  0
   60.3556   32.5026   45.6791 H   0  0  0  0  0  0  0  0  0  0  0  0
   60.7923   34.1865   45.1788 H   0  0  0  0  0  0  0  0  0  0  0  0
   63.1600   33.2116   45.7771 H   0  0  0  0  0  0  0  0  0  0  0  0
   64.8598   33.2888   47.6032 H   0  0  0  0  0  0  0  0  0  0  0  0
   64.1552   33.7589   49.9508 H   0  0  0  0  0  0  0  0  0  0  0  0
   61.7512   34.1700   50.4762 H   0  0  0  0  0  0  0  0  0  0  0  0
   60.0391   34.0708   48.6620 H   0  0  0  0  0  0  0  0  0  0  0  0
  1  2  2  0
  2  3  1  0
  3  4  1  0
  4  5  1  0
  5  6  2  0
  6  7  1  0
  7  8  2  0
  8  9  1  0
  9 10  2  0
  2 11  1  0
 11 12  2  0
 12 13  1  0
 13 14  2  0
 14 15  1  0
 15 16  1  0
 16 17  2  0
 16 18  2  0
 16 19  1  0
 19 20  1  0
 20 21  2  0
 21 22  1  0
 22 23  2  0
 23 24  1  0
 24 25  2  0
 14 26  1  0
 10  5  1  0
 26 11  1  0
 25 20  1  0
  4 27  1  0
  4 28  1  0
  6 29  1  0
  7 30  1  0
  9 31  1  0
 10 32  1  0
 12 33  1  0
 13 34  1  0
 15 35  1  0
 15 36  1  0
 19 37  1  0
 19 38  1  0
 21 39  1  0
 22 40  1  0
 23 41  1  0
 24 42  1  0
 25 43  1  0
M  CHG  1   3  -1
M  END
>  <UniqueID>  (18) 
16

>  <SMILES>  (18) 
O=C([N-]Cc1ccncc1)c1ccc(CS(=O)(=O)Cc2ccccc2)o1

>  <Energy>  (18) 
57.49001469598549

>  <Genealogy>  (18) 
O=C([N-]Cc1ccncc1)c1ccc(CS(=O)(=O)Cc2ccccc2)o1 (protonated)
O=C([N-]Cc1ccncc1)c1ccc(CS(=O)(=O)Cc2ccccc2)o1 (3D coordinates assigned)
O=C([N-]Cc1ccncc1)c1ccc(CS(=O)(=O)Cc2ccccc2)o1 (optimized conformer: 57.49001469598549 kcal/mol)

>  <smiles>  (18) 
O=C(NCc1ccncc1)c1ccc(CS(=O)(=O)Cc2ccccc2)o1

>  <score_type>  (18) 
oracle

>  <origin>  (18) 
adg

>  <m_score__min__energy>  (18) 
-11.76

>  <m_primary>  (18) 
energy

$$$$
18:0
     RDKit          3D

 41 43  0  0  0  0  0  0  0  0999 V2000
   57.7730   31.7600   43.0340 C   0  0  0  0  0  0  0  0  0  0  0  0
   56.6320   30.8640   43.5030 C   0  0  0  0  0  0  0  0  0  0  0  0
   56.8030   30.5040   44.8730 O   0  0  0  0  0  0  0  0  0  0  0  0
   57.7030   29.5240   45.3040 C   0  0  0  0  0  0  0  0  0  0  0  0
   58.9440   29.7350   45.2530 O   0  0  0  0  0  0  0  0  0  0  0  0
   57.1780   28.2260   45.7600 C   0  0  0  0  0  0  0  0  0  0  0  0
   55.9130   27.8410   45.5120 N   0  0  0  0  0  0  0  0  0  0  0  0
   55.8530   26.5910   46.0110 C   0  0  0  0  0  0  0  0  0  0  0  0
   54.8120   25.8890   45.9630 O   0  0  0  0  0  0  0  0  0  0  0  0
   57.0010   26.1540   46.5640 N   0  0  0  0  0  0  0  0  0  0  0  0
   57.8440   27.1930   46.4130 C   0  0  0  0  0  0  0  0  0  0  0  0
   59.2150   27.1690   46.9470 C   0  0  0  0  0  0  0  0  0  0  0  0
   60.0810   26.3920   46.4630 O   0  0  0  0  0  0  0  0  0  0  0  0
   59.5610   28.0630   47.9680 O   0  0  0  0  0  0  0  0  0  0  0  0
   60.4180   29.1840   47.7660 C   0  0  0  0  0  0  0  0  0  0  0  0
   59.7090   30.4480   48.1640 C   0  0  0  0  0  0  0  0  0  0  0  0
   58.7110   30.3730   48.9300 O   0  0  0  0  0  0  0  0  0  0  0  0
   60.2310   31.7370   47.7970 N   0  0  0  0  0  0  0  0  0  0  0  0
   61.5380   32.1430   48.3350 C   0  0  0  0  0  0  0  0  0  0  0  0
   62.2940   32.9820   47.3450 C   0  0  0  0  0  0  0  0  0  0  0  0
   63.5480   33.0600   47.4100 O   0  0  0  0  0  0  0  0  0  0  0  0
   61.5880   33.7530   46.3710 N   0  0  0  0  0  0  0  0  0  0  0  0
   60.1700   33.6440   46.2470 C   0  0  0  0  0  0  0  0  0  0  0  0
   59.4730   34.5240   45.4100 C   0  0  0  0  0  0  0  0  0  0  0  0
   58.0820   34.4430   45.3120 C   0  0  0  0  0  0  0  0  0  0  0  0
   57.3840   33.4860   46.0530 C   0  0  0  0  0  0  0  0  0  0  0  0
   58.0750   32.5990   46.8830 C   0  0  0  0  0  0  0  0  0  0  0  0
   59.4800   32.6550   46.9700 C   0  0  0  0  0  0  0  0  0  0  0  0
   58.2983   32.1725   43.9080 H   0  0  0  0  0  0  0  0  0  0  0  0
   58.4766   31.1706   42.4278 H   0  0  0  0  0  0  0  0  0  0  0  0
   57.3672   32.5833   42.4278 H   0  0  0  0  0  0  0  0  0  0  0  0
   55.6796   31.4021   43.3874 H   0  0  0  0  0  0  0  0  0  0  0  0
   56.6294   29.9476   42.8945 H   0  0  0  0  0  0  0  0  0  0  0  0
   61.3240   29.0656   48.3785 H   0  0  0  0  0  0  0  0  0  0  0  0
   60.6932   29.2425   46.7026 H   0  0  0  0  0  0  0  0  0  0  0  0
   61.3824   32.7258   49.2549 H   0  0  0  0  0  0  0  0  0  0  0  0
   62.1255   31.2372   48.5455 H   0  0  0  0  0  0  0  0  0  0  0  0
   60.0216   35.2800   44.8290 H   0  0  0  0  0  0  0  0  0  0  0  0
   57.5361   35.1327   44.6514 H   0  0  0  0  0  0  0  0  0  0  0  0
   56.2876   33.4306   45.9829 H   0  0  0  0  0  0  0  0  0  0  0  0
   57.5193   31.8537   47.4710 H   0  0  0  0  0  0  0  0  0  0  0  0
  1  2  1  0
  2  3  1  0
  3  4  1  0
  4  5  2  0
  4  6  1  0
  6  7  1  0
  7  8  1  0
  8  9  2  0
  8 10  1  0
 10 11  1  0
 11 12  1  0
 12 13  2  0
 12 14  1  0
 14 15  1  0
 15 16  1  0
 16 17  2  0
 16 18  1  0
 18 19  1  0
 19 20  1  0
 20 21  2  0
 20 22  1  0
 22 23  1  0
 23 24  2  0
 24 25  1  0
 25 26  2  0
 26 27  1  0
 27 28  2  0
 11  6  2  0
 28 18  1  0
 28 23  1  0
  1 29  1  0
  1 30  1  0
  1 31  1  0
  2 32  1  0
  2 33  1  0
 15 34  1  0
 15 35  1  0
 19 36  1  0
 19 37  1  0
 24 38  1  0
 25 39  1  0
 26 40  1  0
 27 41  1  0
M  CHG  3   7  -1  10  -1  22  -1
M  END
>  <UniqueID>  (19) 
17

>  <SMILES>  (19) 
CCOC(=O)c1[n-]c(=O)[n-]c1C(=O)OCC(=O)N1CC(=O)[N-]c2ccccc21

>  <Energy>  (19) 
73.70282723611962

>  <Genealogy>  (19) 
CCOC(=O)c1[n-]c(=O)[n-]c1C(=O)OCC(=O)N1CC(=O)[N-]c2ccccc21 (protonated)
CCOC(=O)c1[n-]c(=O)[n-]c1C(=O)OCC(=O)N1CC(=O)[N-]c2ccccc21 (3D coordinates assigned)
CCOC(=O)c1[n-]c(=O)[n-]c1C(=O)OCC(=O)N1CC(=O)[N-]c2ccccc21 (nonaromatic ring conformer: 73.70282723611962 kcal/mol)

>  <smiles>  (19) 
CCOC(=O)c1[nH]c(=O)[nH]c1C(=O)OCC(=O)N1CC(=O)Nc2ccccc21

>  <score_type>  (19) 
oracle

>  <origin>  (19) 
adg

>  <m_score__min__energy>  (19) 
-13.09

>  <m_primary>  (19) 
energy

$$$$
19:0
     RDKit          3D

 56 58  0  0  0  0  0  0  0  0999 V2000
   61.6160   28.6020   44.4780 C   0  0  0  0  0  0  0  0  0  0  0  0
   60.2820   28.3630   44.9110 O   0  0  0  0  0  0  0  0  0  0  0  0
   59.8440   28.4790   46.2390 C   0  0  0  0  0  0  0  0  0  0  0  0
   60.6140   29.1250   47.2290 C   0  0  0  0  0  0  0  0  0  0  0  0
   60.1400   29.2180   48.5410 C   0  0  0  0  0  0  0  0  0  0  0  0
   58.9010   28.6710   48.8790 C   0  0  0  0  0  0  0  0  0  0  0  0
   58.1300   28.0320   47.9070 C   0  0  0  0  0  0  0  0  0  0  0  0
   58.5950   27.9350   46.5890 C   0  0  0  0  0  0  0  0  0  0  0  0
   57.7860   27.2880   45.6010 N   0  0  0  0  0  0  0  0  0  0  0  0
   57.5230   27.9510   44.3210 C   0  0  0  0  0  0  0  0  0  0  0  0
   56.6280   29.1310   44.5250 C   0  0  0  0  0  0  0  0  0  0  0  0
   55.5290   28.9800   45.1210 O   0  0  0  0  0  0  0  0  0  0  0  0
   57.0840   30.4320   44.1270 N   0  0  0  0  0  0  0  0  0  0  0  0
   57.7440   31.4070   44.9460 C   0  0  0  0  0  0  0  0  0  0  0  0
   58.0320   31.1830   46.3040 C   0  0  0  0  0  0  0  0  0  0  0  0
   58.6880   32.1630   47.0560 C   0  0  0  0  0  0  0  0  0  0  0  0
   59.0520   33.3820   46.4670 C   0  0  0  0  0  0  0  0  0  0  0  0
   59.9150   34.6040   47.4070 S   0  0  0  0  0  0  0  0  0  0  0  0
   59.3090   34.6910   48.7820 O   0  0  0  0  0  0  0  0  0  0  0  0
   59.7550   35.9430   46.7420 O   0  0  0  0  0  0  0  0  0  0  0  0
   61.6170   34.2250   47.5450 N   0  0  0  0  0  0  0  0  0  0  0  0
   61.9840   33.0490   46.7250 C   0  0  0  0  0  0  0  0  0  0  0  0
   62.2100   31.7930   47.5850 C   0  0  0  0  0  0  0  0  0  0  0  0
   63.2260   31.9600   48.5640 O   0  0  0  0  0  0  0  0  0  0  0  0
   63.3020   33.2780   49.0950 C   0  0  0  0  0  0  0  0  0  0  0  0
   62.0000   34.0840   48.9640 C   0  0  0  0  0  0  0  0  0  0  0  0
   58.7280   33.6210   45.1240 C   0  0  0  0  0  0  0  0  0  0  0  0
   58.0770   32.6410   44.3720 C   0  0  0  0  0  0  0  0  0  0  0  0
   57.0590   25.7540   45.9710 S   0  0  0  0  0  0  0  0  0  0  0  0
   57.1280   24.6870   44.5490 C   0  0  0  0  0  0  0  0  0  0  0  0
   55.6260   25.9560   46.3790 O   0  0  0  0  0  0  0  0  0  0  0  0
   57.7970   25.1100   47.1110 O   0  0  0  0  0  0  0  0  0  0  0  0
   62.2705   28.7193   45.3543 H   0  0  0  0  0  0  0  0  0  0  0  0
   61.9628   27.7517   43.8725 H   0  0  0  0  0  0  0  0  0  0  0  0
   61.6461   29.5198   43.8725 H   0  0  0  0  0  0  0  0  0  0  0  0
   61.5912   29.5572   46.9676 H   0  0  0  0  0  0  0  0  0  0  0  0
   60.7447   29.7233   49.3085 H   0  0  0  0  0  0  0  0  0  0  0  0
   58.5319   28.7437   49.9127 H   0  0  0  0  0  0  0  0  0  0  0  0
   57.1537   27.6029   48.1767 H   0  0  0  0  0  0  0  0  0  0  0  0
   58.4746   28.2880   43.8841 H   0  0  0  0  0  0  0  0  0  0  0  0
   57.0295   27.2392   43.6429 H   0  0  0  0  0  0  0  0  0  0  0  0
   57.7403   30.2335   46.7766 H   0  0  0  0  0  0  0  0  0  0  0  0
   58.9195   31.9763   48.1150 H   0  0  0  0  0  0  0  0  0  0  0  0
   61.1729   32.8481   46.0096 H   0  0  0  0  0  0  0  0  0  0  0  0
   62.9260   33.2784   46.2053 H   0  0  0  0  0  0  0  0  0  0  0  0
   61.2683   31.5459   48.0971 H   0  0  0  0  0  0  0  0  0  0  0  0
   62.5364   30.9887   46.9093 H   0  0  0  0  0  0  0  0  0  0  0  0
   63.5577   33.2060   50.1625 H   0  0  0  0  0  0  0  0  0  0  0  0
   64.0654   33.8118   48.5100 H   0  0  0  0  0  0  0  0  0  0  0  0
   61.1964   33.5633   49.5054 H   0  0  0  0  0  0  0  0  0  0  0  0
   62.1585   35.0857   49.3899 H   0  0  0  0  0  0  0  0  0  0  0  0
   58.9877   34.5844   44.6609 H   0  0  0  0  0  0  0  0  0  0  0  0
   57.8235   32.8394   43.3202 H   0  0  0  0  0  0  0  0  0  0  0  0
   57.1957   23.6399   44.8792 H   0  0  0  0  0  0  0  0  0  0  0  0
   56.2192   24.8227   43.9443 H   0  0  0  0  0  0  0  0  0  0  0  0
   58.0117   24.9386   43.9443 H   0  0  0  0  0  0  0  0  0  0  0  0
  1  2  1  0
  2  3  1  0
  3  4  2  0
  4  5  1  0
  5  6  2  0
  6  7  1  0
  7  8  2  0
  8  9  1  0
  9 10  1  0
 10 11  1  0
 11 12  2  0
 11 13  1  0
 13 14  1  0
 14 15  2  0
 15 16  1  0
 16 17  2  0
 17 18  1  0
 18 19  2  0
 18 20  2  0
 18 21  1  0
 21 22  1  0
 22 23  1  0
 23 24  1  0
 24 25  1  0
 25 26  1  0
 17 27  1  0
 27 28  2  0
  9 29  1  0
 29 30  1  0
 29 31  2  0
 29 32  2  0
  8  3  1  0
 28 14  1  0
 26 21  1  0
  1 33  1  0
  1 34  1  0
  1 35  1  0
  4 36  1  0
  5 37  1  0
  6 38  1  0
  7 39  1  0
 10 40  1  0
 10 41  1  0
 15 42  1  0
 16 43  1  0
 22 44  1  0
 22 45  1  0
 23 46  1  0
 23 47  1  0
 25 48  1  0
 25 49  1  0
 26 50  1  0
 26 51  1  0
 27 52  1  0
 28 53  1  0
 30 54  1  0
 30 55  1  0
 30 56  1  0
M  CHG  1  13  -1
M  END
>  <UniqueID>  (20) 
18

>  <SMILES>  (20) 
COc1ccccc1N(CC(=O)[N-]c1ccc(S(=O)(=O)N2CCOCC2)cc1)S(C)(=O)=O

>  <Energy>  (20) 
71.54934005354363

>  <Genealogy>  (20) 
COc1ccccc1N(CC(=O)[N-]c1ccc(S(=O)(=O)N2CCOCC2)cc1)S(C)(=O)=O (protonated)
COc1ccccc1N(CC(=O)[N-]c1ccc(S(=O)(=O)N2CCOCC2)cc1)S(C)(=O)=O (3D coordinates assigned)
COc1ccccc1N(CC(=O)[N-]c1ccc(S(=O)(=O)N2CCOCC2)cc1)S(C)(=O)=O (nonaromatic ring conformer: 71.54934005354363 kcal/mol)

>  <smiles>  (20) 
COc1ccccc1N(CC(=O)Nc1ccc(S(=O)(=O)N2CCOCC2)cc1)S(C)(=O)=O

>  <score_type>  (20) 
oracle

>  <origin>  (20) 
adg

>  <m_score__min__energy>  (20) 
-10.51

>  <m_primary>  (20) 
energy

$$$$
20:0
     RDKit          3D

 41 43  0  0  0  0  0  0  0  0999 V2000
   55.1370   26.5750   46.0030 N   0  0  0  0  0  0  0  0  0  0  0  0
   56.3020   25.9940   46.5850 C   0  0  0  0  0  0  0  0  0  0  0  0
   56.1670   24.9840   47.3260 O   0  0  0  0  0  0  0  0  0  0  0  0
   57.6590   26.5490   46.3210 C   0  0  0  0  0  0  0  0  0  0  0  0
   58.7870   25.7980   46.7090 C   0  0  0  0  0  0  0  0  0  0  0  0
   60.0780   26.2660   46.4630 C   0  0  0  0  0  0  0  0  0  0  0  0
   60.2670   27.4930   45.8350 C   0  0  0  0  0  0  0  0  0  0  0  0
   59.1660   28.2570   45.4480 C   0  0  0  0  0  0  0  0  0  0  0  0
   57.8530   27.7980   45.6760 C   0  0  0  0  0  0  0  0  0  0  0  0
   56.7360   28.5610   45.2920 O   0  0  0  0  0  0  0  0  0  0  0  0
   56.6470   29.3880   44.1310 C   0  0  0  0  0  0  0  0  0  0  0  0
   57.3050   30.7100   44.3830 C   0  0  0  0  0  0  0  0  0  0  0  0
   57.4120   31.5330   43.4340 O   0  0  0  0  0  0  0  0  0  0  0  0
   57.8440   31.0230   45.6750 N   0  0  0  0  0  0  0  0  0  0  0  0
   58.5290   32.2560   45.9400 C   0  0  0  0  0  0  0  0  0  0  0  0
   57.8820   33.4770   45.6860 C   0  0  0  0  0  0  0  0  0  0  0  0
   56.6130   33.4960   45.2060 F   0  0  0  0  0  0  0  0  0  0  0  0
   58.5320   34.6860   45.9450 C   0  0  0  0  0  0  0  0  0  0  0  0
   59.8310   34.6880   46.4540 C   0  0  0  0  0  0  0  0  0  0  0  0
   60.4840   33.4810   46.7100 C   0  0  0  0  0  0  0  0  0  0  0  0
   59.8400   32.2540   46.4710 C   0  0  0  0  0  0  0  0  0  0  0  0
   60.6100   30.9720   46.6850 C   0  0  0  0  0  0  0  0  0  0  0  0
   60.0890   30.2310   47.8800 C   0  0  0  0  0  0  0  0  0  0  0  0
   58.7860   30.1970   48.2190 N   0  0  0  0  0  0  0  0  0  0  0  0
   58.6890   29.4090   49.2760 N   0  0  0  0  0  0  0  0  0  0  0  0
   59.9340   28.9830   49.5370 C   0  0  0  0  0  0  0  0  0  0  0  0
   60.2130   28.2040   50.4860 O   0  0  0  0  0  0  0  0  0  0  0  0
   60.8540   29.4630   48.6820 N   0  0  0  0  0  0  0  0  0  0  0  0
   55.1970   27.1380   45.1260 H   0  0  0  0  0  0  0  0  0  0  0  0
   58.6475   24.8300   47.2125 H   0  0  0  0  0  0  0  0  0  0  0  0
   60.9475   25.6642   46.7659 H   0  0  0  0  0  0  0  0  0  0  0  0
   61.2858   27.8610   45.6435 H   0  0  0  0  0  0  0  0  0  0  0  0
   59.3244   29.2295   44.9590 H   0  0  0  0  0  0  0  0  0  0  0  0
   57.1485   28.8875   43.2896 H   0  0  0  0  0  0  0  0  0  0  0  0
   55.5866   29.5559   43.8915 H   0  0  0  0  0  0  0  0  0  0  0  0
   57.7980   30.3080   46.4350 H   0  0  0  0  0  0  0  0  0  0  0  0
   58.0186   35.6385   45.7472 H   0  0  0  0  0  0  0  0  0  0  0  0
   60.3412   35.6418   46.6538 H   0  0  0  0  0  0  0  0  0  0  0  0
   61.5117   33.4898   47.1022 H   0  0  0  0  0  0  0  0  0  0  0  0
   60.5068   30.3362   45.7933 H   0  0  0  0  0  0  0  0  0  0  0  0
   61.6675   31.2206   46.8578 H   0  0  0  0  0  0  0  0  0  0  0  0
  1  2  1  0
  2  3  2  0
  2  4  1  0
  4  5  2  0
  5  6  1  0
  6  7  2  0
  7  8  1  0
  8  9  2  0
  9 10  1  0
 10 11  1  0
 11 12  1  0
 12 13  2  0
 12 14  1  0
 14 15  1  0
 15 16  2  0
 16 17  1  0
 16 18  1  0
 18 19  2  0
 19 20  1  0
 20 21  2  0
 21 22  1  0
 22 23  1  0
 23 24  2  0
 24 25  1  0
 25 26  1  0
 26 27  2  0
 26 28  1  0
  9  4  1  0
 21 15  1  0
 28 23  1  0
  1 29  1  0
  5 30  1  0
  6 31  1  0
  7 32  1  0
  8 33  1  0
 11 34  1  0
 11 35  1  0
 14 36  1  0
 18 37  1  0
 19 38  1  0
 20 39  1  0
 22 40  1  0
 22 41  1  0
M  CHG  3   1  -1  25  -1  28  -1
M  END
>  <UniqueID>  (21) 
19

>  <SMILES>  (21) 
[NH-]C(=O)c1ccccc1OCC(=O)Nc1c(F)cccc1Cc1n[n-]c(=O)[n-]1

>  <Energy>  (21) 
78.67739472934316

>  <Genealogy>  (21) 
[NH-]C(=O)c1ccccc1OCC(=O)Nc1c(F)cccc1Cc1n[n-]c(=O)[n-]1 (protonated)
[NH-]C(=O)c1ccccc1OCC(=O)Nc1c(F)cccc1Cc1n[n-]c(=O)[n-]1 (3D coordinates assigned)
[NH-]C(=O)c1ccccc1OCC(=O)Nc1c(F)cccc1Cc1n[n-]c(=O)[n-]1 (optimized conformer: 78.67739472934316 kcal/mol)

>  <smiles>  (21) 
NC(=O)c1ccccc1OCC(=O)Nc1c(F)cccc1Cc1n[nH]c(=O)[nH]1

>  <score_type>  (21) 
oracle

>  <origin>  (21) 
adg

>  <m_score__min__energy>  (21) 
-13.699999999999999

>  <m_primary>  (21) 
energy

$$$$
21:0
     RDKit          3D

 53 55  0  0  0  0  0  0  0  0999 V2000
   59.1580   34.8170   45.2890 C   0  0  0  0  0  0  0  0  0  0  0  0
   58.6420   33.6610   44.4500 C   0  0  0  0  0  0  0  0  0  0  0  0
   57.6300   32.9270   45.2890 C   0  0  0  0  0  0  0  0  0  0  0  0
   57.3880   31.5330   44.8640 C   0  0  0  0  0  0  0  0  0  0  0  0
   56.8910   31.1930   43.6220 C   0  0  0  0  0  0  0  0  0  0  0  0
   56.7210   29.8420   43.3710 C   0  0  0  0  0  0  0  0  0  0  0  0
   56.2630   29.5630   42.2160 O   0  0  0  0  0  0  0  0  0  0  0  0
   57.0130   28.8810   44.2630 N   0  0  0  0  0  0  0  0  0  0  0  0
   57.5010   29.2390   45.4820 C   0  0  0  0  0  0  0  0  0  0  0  0
   57.9150   28.0920   46.7550 S   0  0  0  0  0  0  0  0  0  0  0  0
   59.5900   28.2620   47.3580 C   0  0  0  0  0  0  0  0  0  0  0  0
   59.5900   29.1920   48.5530 C   0  0  0  0  0  0  0  0  0  0  0  0
   60.0280   28.8530   49.6670 O   0  0  0  0  0  0  0  0  0  0  0  0
   59.0500   30.5080   48.3370 N   0  0  0  0  0  0  0  0  0  0  0  0
   59.0110   31.4450   49.4000 C   0  0  0  0  0  0  0  0  0  0  0  0
   58.2210   31.0610   50.4930 C   0  0  0  0  0  0  0  0  0  0  0  0
   58.0810   31.8720   51.5930 C   0  0  0  0  0  0  0  0  0  0  0  0
   58.7360   33.0730   51.5960 C   0  0  0  0  0  0  0  0  0  0  0  0
   59.5160   33.4420   50.5060 C   0  0  0  0  0  0  0  0  0  0  0  0
   59.6860   32.6700   49.3880 C   0  0  0  0  0  0  0  0  0  0  0  0
   60.4750   32.9700   48.2360 C   0  0  0  0  0  0  0  0  0  0  0  0
   59.9390   32.5810   47.1140 O   0  0  0  0  0  0  0  0  0  0  0  0
   61.7080   33.6040   48.0990 N   0  0  0  0  0  0  0  0  0  0  0  0
   62.5890   34.1960   49.0570 C   0  0  0  0  0  0  0  0  0  0  0  0
   63.7560   33.2490   49.2230 C   0  0  0  0  0  0  0  0  0  0  0  0
   63.9560   32.5850   48.0220 O   0  0  0  0  0  0  0  0  0  0  0  0
   63.7180   33.3620   46.8960 C   0  0  0  0  0  0  0  0  0  0  0  0
   62.2400   33.6740   46.6940 C   0  0  0  0  0  0  0  0  0  0  0  0
   57.6730   30.5580   45.7400 N   0  0  0  0  0  0  0  0  0  0  0  0
   59.0490   34.5729   46.3560 H   0  0  0  0  0  0  0  0  0  0  0  0
   60.2195   34.9916   45.0593 H   0  0  0  0  0  0  0  0  0  0  0  0
   58.5792   35.7238   45.0593 H   0  0  0  0  0  0  0  0  0  0  0  0
   58.1682   34.0414   43.5331 H   0  0  0  0  0  0  0  0  0  0  0  0
   59.4642   32.9935   44.1525 H   0  0  0  0  0  0  0  0  0  0  0  0
   57.9887   32.9133   46.3288 H   0  0  0  0  0  0  0  0  0  0  0  0
   56.6761   33.4626   45.1743 H   0  0  0  0  0  0  0  0  0  0  0  0
   56.6426   31.9564   42.8700 H   0  0  0  0  0  0  0  0  0  0  0  0
   56.8720   27.8580   44.0420 H   0  0  0  0  0  0  0  0  0  0  0  0
   59.9764   27.2765   47.6573 H   0  0  0  0  0  0  0  0  0  0  0  0
   60.2311   28.6746   46.5651 H   0  0  0  0  0  0  0  0  0  0  0  0
   58.6810   30.8070   47.4020 H   0  0  0  0  0  0  0  0  0  0  0  0
   57.7030   30.0909   50.4692 H   0  0  0  0  0  0  0  0  0  0  0  0
   57.4598   31.5644   52.4471 H   0  0  0  0  0  0  0  0  0  0  0  0
   58.6455   33.7467   52.4608 H   0  0  0  0  0  0  0  0  0  0  0  0
   60.0284   34.4146   50.5441 H   0  0  0  0  0  0  0  0  0  0  0  0
   62.9425   35.1722   48.6935 H   0  0  0  0  0  0  0  0  0  0  0  0
   62.0755   34.3606   50.0158 H   0  0  0  0  0  0  0  0  0  0  0  0
   64.6600   33.8166   49.4886 H   0  0  0  0  0  0  0  0  0  0  0  0
   63.5442   32.5253   50.0239 H   0  0  0  0  0  0  0  0  0  0  0  0
   64.2659   34.3100   47.0012 H   0  0  0  0  0  0  0  0  0  0  0  0
   64.0576   32.7887   46.0208 H   0  0  0  0  0  0  0  0  0  0  0  0
   62.0988   34.6762   46.2631 H   0  0  0  0  0  0  0  0  0  0  0  0
   61.7351   32.9909   45.9951 H   0  0  0  0  0  0  0  0  0  0  0  0
  1  2  1  0
  2  3  1  0
  3  4  1  0
  4  5  2  0
  5  6  1  0
  6  7  2  0
  6  8  1  0
  8  9  1  0
  9 10  1  0
 10 11  1  0
 11 12  1  0
 12 13  2  0
 12 14  1  0
 14 15  1  0
 15 16  2  0
 16 17  1  0
 17 18  2  0
 18 19  1  0
 19 20  2  0
 20 21  1  0
 21 22  2  0
 21 23  1  0
 23 24  1  0
 24 25  1  0
 25 26  1  0
 26 27  1  0
 27 28  1  0
  9 29  2  0
 29  4  1  0
 20 15  1  0
 28 23  1  0
  1 30  1  0
  1 31  1  0
  1 32  1  0
  2 33  1  0
  2 34  1  0
  3 35  1  0
  3 36  1  0
  5 37  1  0
  8 38  1  0
 11 39  1  0
 11 40  1  0
 14 41  1  0
 16 42  1  0
 17 43  1  0
 18 44  1  0
 19 45  1  0
 24 46  1  0
 24 47  1  0
 25 48  1  0
 25 49  1  0
 27 50  1  0
 27 51  1  0
 28 52  1  0
 28 53  1  0
M  END
>  <smiles>  (22) 
CCCc1cc(=O)[nH]c(SCC(=O)Nc2ccccc2C(=O)N2CCOCC2)n1

>  <score_type>  (22) 
oracle

>  <origin>  (22) 
adg

>  <m_score__min__energy>  (22) 
-8.0500000000000007

>  <m_primary>  (22) 
energy

$$$$
22:0
     RDKit          3D

 53 56  0  0  0  0  0  0  0  0999 V2000
   56.9110   28.8120   44.8840 C   0  0  0  0  0  0  0  0  0  0  0  0
   57.6540   28.0160   45.9110 C   0  0  0  0  0  0  0  0  0  0  0  0
   57.4560   26.6880   46.3030 C   0  0  0  0  0  0  0  0  0  0  0  0
   56.4880   25.7280   45.7440 C   0  0  0  0  0  0  0  0  0  0  0  0
   55.2650   25.8870   46.0030 O   0  0  0  0  0  0  0  0  0  0  0  0
   56.9050   24.6070   44.9430 N   0  0  0  0  0  0  0  0  0  0  0  0
   56.0070   24.1090   43.8910 C   0  0  0  0  0  0  0  0  0  0  0  0
   56.6730   23.0030   43.0650 C   0  0  0  0  0  0  0  0  0  0  0  0
   57.2190   21.8770   43.9580 C   0  0  0  0  0  0  0  0  0  0  0  0
   57.8830   22.3780   45.2600 C   0  0  0  0  0  0  0  0  0  0  0  0
   58.1510   23.8850   45.2470 C   0  0  0  0  0  0  0  0  0  0  0  0
   58.2660   26.3820   47.3020 O   0  0  0  0  0  0  0  0  0  0  0  0
   58.9950   27.4390   47.5630 C   0  0  0  0  0  0  0  0  0  0  0  0
   59.9870   27.5680   48.5320 C   0  0  0  0  0  0  0  0  0  0  0  0
   60.6470   28.8050   48.6370 C   0  0  0  0  0  0  0  0  0  0  0  0
   60.3000   29.8830   47.7860 C   0  0  0  0  0  0  0  0  0  0  0  0
   61.1610   31.4120   47.9220 S   0  0  0  0  0  0  0  0  0  0  0  0
   61.2530   32.0450   46.5620 O   0  0  0  0  0  0  0  0  0  0  0  0
   62.5550   31.1790   48.4360 O   0  0  0  0  0  0  0  0  0  0  0  0
   60.3060   32.4790   48.9940 N   0  0  0  0  0  0  0  0  0  0  0  0
   58.8830   32.4910   48.6500 C   0  0  0  0  0  0  0  0  0  0  0  0
   58.6860   33.2090   47.3440 C   0  0  0  0  0  0  0  0  0  0  0  0
   59.4600   34.3390   47.0310 C   0  0  0  0  0  0  0  0  0  0  0  0
   59.2980   34.9840   45.8010 C   0  0  0  0  0  0  0  0  0  0  0  0
   58.3730   34.4990   44.8720 C   0  0  0  0  0  0  0  0  0  0  0  0
   57.6110   33.3660   45.1710 C   0  0  0  0  0  0  0  0  0  0  0  0
   57.7690   32.7180   46.4000 C   0  0  0  0  0  0  0  0  0  0  0  0
   59.2910   29.7170   46.8140 C   0  0  0  0  0  0  0  0  0  0  0  0
   58.6620   28.4750   46.7320 C   0  0  0  0  0  0  0  0  0  0  0  0
   56.2434   29.5272   45.3869 H   0  0  0  0  0  0  0  0  0  0  0  0
   57.6283   29.3598   44.2552 H   0  0  0  0  0  0  0  0  0  0  0  0
   56.3152   28.1341   44.2552 H   0  0  0  0  0  0  0  0  0  0  0  0
   55.0960   23.7072   44.3586 H   0  0  0  0  0  0  0  0  0  0  0  0
   55.7643   24.9450   43.2185 H   0  0  0  0  0  0  0  0  0  0  0  0
   55.9311   22.5801   42.3716 H   0  0  0  0  0  0  0  0  0  0  0  0
   57.5175   23.4458   42.5166 H   0  0  0  0  0  0  0  0  0  0  0  0
   56.3844   21.2132   44.2279 H   0  0  0  0  0  0  0  0  0  0  0  0
   57.9991   21.3602   43.3797 H   0  0  0  0  0  0  0  0  0  0  0  0
   57.2182   22.1465   46.1052 H   0  0  0  0  0  0  0  0  0  0  0  0
   58.8540   21.8696   45.3536 H   0  0  0  0  0  0  0  0  0  0  0  0
   58.5243   24.1987   46.2330 H   0  0  0  0  0  0  0  0  0  0  0  0
   58.9027   24.1151   44.4776 H   0  0  0  0  0  0  0  0  0  0  0  0
   60.2459   26.7287   49.1942 H   0  0  0  0  0  0  0  0  0  0  0  0
   61.4405   28.9370   49.3873 H   0  0  0  0  0  0  0  0  0  0  0  0
   60.4050   32.0820   49.9570 H   0  0  0  0  0  0  0  0  0  0  0  0
   58.5200   31.4568   48.5576 H   0  0  0  0  0  0  0  0  0  0  0  0
   58.3204   33.0094   49.4404 H   0  0  0  0  0  0  0  0  0  0  0  0
   60.1958   34.7175   47.7558 H   0  0  0  0  0  0  0  0  0  0  0  0
   59.8992   35.8742   45.5642 H   0  0  0  0  0  0  0  0  0  0  0  0
   58.2448   35.0089   43.9058 H   0  0  0  0  0  0  0  0  0  0  0  0
   56.8855   32.9833   44.4380 H   0  0  0  0  0  0  0  0  0  0  0  0
   57.1737   31.8215   46.6281 H   0  0  0  0  0  0  0  0  0  0  0  0
   59.0093   30.5411   46.1421 H   0  0  0  0  0  0  0  0  0  0  0  0
  1  2  1  0
  2  3  2  0
  3  4  1  0
  4  5  2  0
  4  6  1  0
  6  7  1  0
  7  8  1  0
  8  9  1  0
  9 10  1  0
 10 11  1  0
  3 12  1  0
 12 13  1  0
 13 14  2  0
 14 15  1  0
 15 16  2  0
 16 17  1  0
 17 18  2  0
 17 19  2  0
 17 20  1  0
 20 21  1  0
 21 22  1  0
 22 23  2  0
 23 24  1  0
 24 25  2  0
 25 26  1  0
 26 27  2  0
 16 28  1  0
 28 29  2  0
 29  2  1  0
 11  6  1  0
 29 13  1  0
 27 22  1  0
  1 30  1  0
  1 31  1  0
  1 32  1  0
  7 33  1  0
  7 34  1  0
  8 35  1  0
  8 36  1  0
  9 37  1  0
  9 38  1  0
 10 39  1  0
 10 40  1  0
 11 41  1  0
 11 42  1  0
 14 43  1  0
 15 44  1  0
 20 45  1  0
 21 46  1  0
 21 47  1  0
 23 48  1  0
 24 49  1  0
 25 50  1  0
 26 51  1  0
 27 52  1  0
 28 53  1  0
M  END
>  <UniqueID>  (23) 
20

>  <SMILES>  (23) 
Cc1c(C(=O)N2CCCCC2)oc2ccc(S(=O)(=O)NCc3ccccc3)cc12

>  <Energy>  (23) 
91.23899891005127

>  <Genealogy>  (23) 
Cc1c(C(=O)N2CCCCC2)oc2ccc(S(=O)(=O)NCc3ccccc3)cc12 (3D coordinates assigned)
Cc1c(C(=O)N2CCCCC2)oc2ccc(S(=O)(=O)NCc3ccccc3)cc12 (nonaromatic ring conformer: 91.23899891005127 kcal/mol)

>  <smiles>  (23) 
Cc1c(C(=O)N2CCCCC2)oc2ccc(S(=O)(=O)NCc3ccccc3)cc12

>  <score_type>  (23) 
oracle

>  <origin>  (23) 
adg

>  <m_score__min__energy>  (23) 
-9.5099999999999998

>  <m_primary>  (23) 
energy

$$$$
23:0
     RDKit          3D

 57 59  0  0  0  0  0  0  0  0999 V2000
   59.2430   33.1200   50.3890 C   0  0  0  0  0  0  0  0  0  0  0  0
   59.5810   31.6680   50.2240 C   0  0  0  0  0  0  0  0  0  0  0  0
   60.9200   31.2550   50.2540 C   0  0  0  0  0  0  0  0  0  0  0  0
   61.2460   29.9040   50.0990 C   0  0  0  0  0  0  0  0  0  0  0  0
   60.2350   28.9480   49.9170 C   0  0  0  0  0  0  0  0  0  0  0  0
   60.5750   27.4860   49.8330 C   0  0  0  0  0  0  0  0  0  0  0  0
   60.7070   27.1030   48.4330 N   0  0  0  0  0  0  0  0  0  0  0  0
   59.8460   27.6130   47.4110 C   0  0  0  0  0  0  0  0  0  0  0  0
   58.5950   27.5600   47.5450 O   0  0  0  0  0  0  0  0  0  0  0  0
   60.4420   28.3270   46.2420 C   0  0  0  0  0  0  0  0  0  0  0  0
   59.5710   29.5120   45.9000 C   0  0  0  0  0  0  0  0  0  0  0  0
   58.4510   29.3260   45.0920 C   0  0  0  0  0  0  0  0  0  0  0  0
   57.5780   30.3820   44.8300 C   0  0  0  0  0  0  0  0  0  0  0  0
   56.3680   30.0940   44.0260 C   0  0  0  0  0  0  0  0  0  0  0  0
   56.4750   29.6920   42.6600 N   0  0  0  0  0  0  0  0  0  0  0  0
   55.2270   30.2570   44.5350 O   0  0  0  0  0  0  0  0  0  0  0  0
   57.8680   31.6650   45.3590 C   0  0  0  0  0  0  0  0  0  0  0  0
   57.0200   32.8550   44.9470 C   0  0  0  0  0  0  0  0  0  0  0  0
   58.9260   31.8180   46.2370 N   0  0  0  0  0  0  0  0  0  0  0  0
   59.1770   33.1090   46.9190 C   0  0  0  0  0  0  0  0  0  0  0  0
   60.4020   33.8110   46.3190 C   0  0  0  0  0  0  0  0  0  0  0  0
   61.5830   33.6910   47.2420 C   0  0  0  0  0  0  0  0  0  0  0  0
   62.7840   33.1220   46.7840 C   0  0  0  0  0  0  0  0  0  0  0  0
   63.8930   33.0430   47.6310 C   0  0  0  0  0  0  0  0  0  0  0  0
   63.8150   33.5410   48.9360 C   0  0  0  0  0  0  0  0  0  0  0  0
   62.6290   34.1220   49.3910 C   0  0  0  0  0  0  0  0  0  0  0  0
   61.5170   34.2030   48.5480 C   0  0  0  0  0  0  0  0  0  0  0  0
   59.7800   30.7690   46.4910 C   0  0  0  0  0  0  0  0  0  0  0  0
   60.7660   30.9250   47.2660 O   0  0  0  0  0  0  0  0  0  0  0  0
   58.8920   29.3580   49.9240 C   0  0  0  0  0  0  0  0  0  0  0  0
   58.5670   30.7100   50.0720 C   0  0  0  0  0  0  0  0  0  0  0  0
   59.1862   33.3638   51.4601 H   0  0  0  0  0  0  0  0  0  0  0  0
   60.0222   33.7341   49.9139 H   0  0  0  0  0  0  0  0  0  0  0  0
   58.2727   33.3269   49.9139 H   0  0  0  0  0  0  0  0  0  0  0  0
   61.7185   31.9973   50.4002 H   0  0  0  0  0  0  0  0  0  0  0  0
   62.2998   29.5892   50.1198 H   0  0  0  0  0  0  0  0  0  0  0  0
   61.5241   27.2986   50.3565 H   0  0  0  0  0  0  0  0  0  0  0  0
   59.7765   26.8938   50.3038 H   0  0  0  0  0  0  0  0  0  0  0  0
   61.4542   28.6736   46.4973 H   0  0  0  0  0  0  0  0  0  0  0  0
   60.5028   27.6466   45.3798 H   0  0  0  0  0  0  0  0  0  0  0  0
   58.2531   28.3357   44.6560 H   0  0  0  0  0  0  0  0  0  0  0  0
   57.4000   29.6810   42.1770 H   0  0  0  0  0  0  0  0  0  0  0  0
   55.6180   29.4650   42.1100 H   0  0  0  0  0  0  0  0  0  0  0  0
   56.6519   33.3716   45.8457 H   0  0  0  0  0  0  0  0  0  0  0  0
   57.6283   33.5490   44.3484 H   0  0  0  0  0  0  0  0  0  0  0  0
   56.1654   32.5066   44.3484 H   0  0  0  0  0  0  0  0  0  0  0  0
   58.2959   33.7569   46.8009 H   0  0  0  0  0  0  0  0  0  0  0  0
   59.3681   32.9143   47.9846 H   0  0  0  0  0  0  0  0  0  0  0  0
   60.6488   33.3458   45.3532 H   0  0  0  0  0  0  0  0  0  0  0  0
   60.1677   34.8765   46.1781 H   0  0  0  0  0  0  0  0  0  0  0  0
   62.8513   32.7376   45.7555 H   0  0  0  0  0  0  0  0  0  0  0  0
   64.8280   32.5888   47.2712 H   0  0  0  0  0  0  0  0  0  0  0  0
   64.6870   33.4751   49.6033 H   0  0  0  0  0  0  0  0  0  0  0  0
   62.5700   34.5170   50.4159 H   0  0  0  0  0  0  0  0  0  0  0  0
   60.5880   34.6689   48.9084 H   0  0  0  0  0  0  0  0  0  0  0  0
   58.0915   28.6118   49.8125 H   0  0  0  0  0  0  0  0  0  0  0  0
   57.5127   31.0237   50.0693 H   0  0  0  0  0  0  0  0  0  0  0  0
  1  2  1  0
  2  3  2  0
  3  4  1  0
  4  5  2  0
  5  6  1  0
  6  7  1  0
  7  8  1  0
  8  9  2  0
  8 10  1  0
 10 11  1  0
 11 12  2  0
 12 13  1  0
 13 14  1  0
 14 15  1  0
 14 16  2  0
 13 17  2  0
 17 18  1  0
 17 19  1  0
 19 20  1  0
 20 21  1  0
 21 22  1  0
 22 23  2  0
 23 24  1  0
 24 25  2  0
 25 26  1  0
 26 27  2  0
 19 28  1  0
 28 29  2  0
  5 30  1  0
 30 31  2  0
 31  2  1  0
 28 11  1  0
 27 22  1  0
  1 32  1  0
  1 33  1  0
  1 34  1  0
  3 35  1  0
  4 36  1  0
  6 37  1  0
  6 38  1  0
 10 39  1  0
 10 40  1  0
 12 41  1  0
 15 42  1  0
 15 43  1  0
 18 44  1  0
 18 45  1  0
 18 46  1  0
 20 47  1  0
 20 48  1  0
 21 49  1  0
 21 50  1  0
 23 51  1  0
 24 52  1  0
 25 53  1  0
 26 54  1  0
 27 55  1  0
 30 56  1  0
 31 57  1  0
M  CHG  1   7  -1
M  END
>  <UniqueID>  (24) 
21

>  <SMILES>  (24) 
Cc1ccc(C[N-]C(=O)Cc2cc(C(N)=O)c(C)n(CCc3ccccc3)c2=O)cc1

>  <Energy>  (24) 
59.58260721421584

>  <Genealogy>  (24) 
Cc1ccc(C[N-]C(=O)Cc2cc(C(N)=O)c(C)n(CCc3ccccc3)c2=O)cc1 (protonated)
Cc1ccc(C[N-]C(=O)Cc2cc(C(N)=O)c(C)n(CCc3ccccc3)c2=O)cc1 (3D coordinates assigned)
Cc1ccc(C[N-]C(=O)Cc2cc(C(N)=O)c(C)n(CCc3ccccc3)c2=O)cc1 (optimized conformer: 59.58260721421584 kcal/mol)

>  <smiles>  (24) 
Cc1ccc(CNC(=O)Cc2cc(C(N)=O)c(C)n(CCc3ccccc3)c2=O)cc1

>  <score_type>  (24) 
oracle

>  <origin>  (24) 
adg

>  <m_score__min__energy>  (24) 
-11.06

>  <m_primary>  (24) 
energy

$$$$
24:0
     RDKit          3D

 37 39  0  0  0  0  0  0  0  0999 V2000
   65.3590   31.9010   50.1650 C   0  0  0  0  0  0  0  0  0  0  0  0
   64.3880   32.1560   49.4980 C   0  0  0  0  0  0  0  0  0  0  0  0
   63.2280   32.4640   48.7000 C   0  0  0  0  0  0  0  0  0  0  0  0
   63.2600   33.5310   47.7990 C   0  0  0  0  0  0  0  0  0  0  0  0
   62.1680   33.8090   47.0390 N   0  0  0  0  0  0  0  0  0  0  0  0
   61.0280   33.0720   47.1400 C   0  0  0  0  0  0  0  0  0  0  0  0
   59.8470   33.3950   46.2980 C   0  0  0  0  0  0  0  0  0  0  0  0
   59.7490   34.6370   45.6470 C   0  0  0  0  0  0  0  0  0  0  0  0
   58.6320   34.9400   44.8670 C   0  0  0  0  0  0  0  0  0  0  0  0
   57.6000   34.0110   44.7210 C   0  0  0  0  0  0  0  0  0  0  0  0
   57.6800   32.7620   45.3600 C   0  0  0  0  0  0  0  0  0  0  0  0
   56.6450   31.7760   45.2380 N   0  0  0  0  0  0  0  0  0  0  0  0
   56.8520   30.1780   44.5960 S   0  0  0  0  0  0  0  0  0  0  0  0
   55.6090   29.3760   44.8620 O   0  0  0  0  0  0  0  0  0  0  0  0
   57.0620   30.2620   43.1100 O   0  0  0  0  0  0  0  0  0  0  0  0
   58.2100   29.3820   45.3860 C   0  0  0  0  0  0  0  0  0  0  0  0
   59.0000   28.4800   44.6600 C   0  0  0  0  0  0  0  0  0  0  0  0
   60.0950   27.8590   45.2660 C   0  0  0  0  0  0  0  0  0  0  0  0
   60.4030   28.1330   46.6050 C   0  0  0  0  0  0  0  0  0  0  0  0
   59.6150   29.0300   47.3380 C   0  0  0  0  0  0  0  0  0  0  0  0
   59.9330   29.2960   48.6700 O   0  0  0  0  0  0  0  0  0  0  0  0
   58.5170   29.6530   46.7290 C   0  0  0  0  0  0  0  0  0  0  0  0
   58.8010   32.4630   46.1440 C   0  0  0  0  0  0  0  0  0  0  0  0
   60.9830   32.0310   48.0170 N   0  0  0  0  0  0  0  0  0  0  0  0
   62.0500   31.7100   48.7920 C   0  0  0  0  0  0  0  0  0  0  0  0
   61.9690   30.7360   49.5870 O   0  0  0  0  0  0  0  0  0  0  0  0
   66.2452   31.6683   50.7737 H   0  0  0  0  0  0  0  0  0  0  0  0
   64.1676   34.1453   47.7047 H   0  0  0  0  0  0  0  0  0  0  0  0
   60.5579   35.3749   45.7530 H   0  0  0  0  0  0  0  0  0  0  0  0
   58.5643   35.9162   44.3645 H   0  0  0  0  0  0  0  0  0  0  0  0
   56.7228   34.2572   44.1047 H   0  0  0  0  0  0  0  0  0  0  0  0
   58.7571   28.2604   43.6099 H   0  0  0  0  0  0  0  0  0  0  0  0
   60.7153   27.1550   44.6919 H   0  0  0  0  0  0  0  0  0  0  0  0
   61.2649   27.6431   47.0816 H   0  0  0  0  0  0  0  0  0  0  0  0
   60.4010   30.1540   48.9400 H   0  0  0  0  0  0  0  0  0  0  0  0
   57.8951   30.3550   47.3039 H   0  0  0  0  0  0  0  0  0  0  0  0
   58.8662   31.4868   46.6469 H   0  0  0  0  0  0  0  0  0  0  0  0
  1  2  3  0
  2  3  1  0
  3  4  2  0
  4  5  1  0
  5  6  1  0
  6  7  1  0
  7  8  2  0
  8  9  1  0
  9 10  2  0
 10 11  1  0
 11 12  1  0
 12 13  1  0
 13 14  2  0
 13 15  2  0
 13 16  1  0
 16 17  2  0
 17 18  1  0
 18 19  2  0
 19 20  1  0
 20 21  1  0
 20 22  2  0
 11 23  2  0
  6 24  2  0
 24 25  1  0
 25 26  2  0
 25  3  1  0
 23  7  1  0
 22 16  1  0
  1 27  1  0
  4 28  1  0
  8 29  1  0
  9 30  1  0
 10 31  1  0
 17 32  1  0
 18 33  1  0
 19 34  1  0
 21 35  1  0
 22 36  1  0
 23 37  1  0
M  CHG  2   5  -1  12  -1
M  END
>  <UniqueID>  (25) 
22

>  <SMILES>  (25) 
C#Cc1c[n-]c(-c2cccc([N-]S(=O)(=O)c3cccc(O)c3)c2)nc1=O

>  <Energy>  (25) 
44.53292952344665

>  <Genealogy>  (25) 
C#Cc1c[n-]c(-c2cccc([N-]S(=O)(=O)c3cccc(O)c3)c2)nc1=O (protonated)
C#Cc1c[n-]c(-c2cccc([N-]S(=O)(=O)c3cccc(O)c3)c2)nc1=O (3D coordinates assigned)
C#Cc1c[n-]c(-c2cccc([N-]S(=O)(=O)c3cccc(O)c3)c2)nc1=O (optimized conformer: 44.53292952344665 kcal/mol)

>  <smiles>  (25) 
C#Cc1c[nH]c(-c2cccc(NS(=O)(=O)c3cccc(O)c3)c2)nc1=O

>  <score_type>  (25) 
oracle

>  <origin>  (25) 
adg

>  <m_score__min__energy>  (25) 
-11.5

>  <m_primary>  (25) 
energy

$$$$
25:0
     RDKit          3D

 40 42  0  0  0  0  0  0  0  0999 V2000
   58.7960   29.4780   47.8290 O   0  0  0  0  0  0  0  0  0  0  0  0
   58.3760   29.5580   46.6440 C   0  0  0  0  0  0  0  0  0  0  0  0
   58.6310   28.4170   45.6940 C   0  0  0  0  0  0  0  0  0  0  0  0
   57.6240   27.3040   45.8940 C   0  0  0  0  0  0  0  0  0  0  0  0
   56.2560   27.5220   45.6470 C   0  0  0  0  0  0  0  0  0  0  0  0
   55.8010   28.7760   45.2480 O   0  0  0  0  0  0  0  0  0  0  0  0
   55.3680   26.5030   45.7930 N   0  0  0  0  0  0  0  0  0  0  0  0
   55.7730   25.2700   46.1860 C   0  0  0  0  0  0  0  0  0  0  0  0
   54.9330   24.3420   46.3090 O   0  0  0  0  0  0  0  0  0  0  0  0
   57.0830   25.0370   46.4490 N   0  0  0  0  0  0  0  0  0  0  0  0
   58.0130   26.0190   46.3190 C   0  0  0  0  0  0  0  0  0  0  0  0
   59.2170   25.7610   46.5840 O   0  0  0  0  0  0  0  0  0  0  0  0
   57.6100   30.7050   46.2590 N   0  0  0  0  0  0  0  0  0  0  0  0
   57.7650   31.4080   45.0210 C   0  0  0  0  0  0  0  0  0  0  0  0
   57.3920   30.7930   43.8160 C   0  0  0  0  0  0  0  0  0  0  0  0
   57.5660   31.4580   42.6010 C   0  0  0  0  0  0  0  0  0  0  0  0
   58.1210   32.7390   42.5790 C   0  0  0  0  0  0  0  0  0  0  0  0
   58.5050   33.3570   43.7720 C   0  0  0  0  0  0  0  0  0  0  0  0
   58.3280   32.7020   45.0030 C   0  0  0  0  0  0  0  0  0  0  0  0
   58.7430   33.3930   46.2800 C   0  0  0  0  0  0  0  0  0  0  0  0
   60.1920   33.1220   46.5810 C   0  0  0  0  0  0  0  0  0  0  0  0
   61.1560   34.1340   46.4260 C   0  0  0  0  0  0  0  0  0  0  0  0
   62.4980   33.8820   46.7270 C   0  0  0  0  0  0  0  0  0  0  0  0
   62.8860   32.6220   47.1890 C   0  0  0  0  0  0  0  0  0  0  0  0
   61.9350   31.6120   47.3520 C   0  0  0  0  0  0  0  0  0  0  0  0
   60.5920   31.8590   47.0510 C   0  0  0  0  0  0  0  0  0  0  0  0
   58.5569   28.7868   44.6607 H   0  0  0  0  0  0  0  0  0  0  0  0
   59.6366   28.0171   45.8911 H   0  0  0  0  0  0  0  0  0  0  0  0
   55.9460   29.5910   45.8310 H   0  0  0  0  0  0  0  0  0  0  0  0
   56.9602   29.7814   43.8289 H   0  0  0  0  0  0  0  0  0  0  0  0
   57.2658   30.9726   41.6606 H   0  0  0  0  0  0  0  0  0  0  0  0
   58.2562   33.2625   41.6211 H   0  0  0  0  0  0  0  0  0  0  0  0
   58.9489   34.3631   43.7476 H   0  0  0  0  0  0  0  0  0  0  0  0
   58.5932   34.4772   46.1697 H   0  0  0  0  0  0  0  0  0  0  0  0
   58.1302   33.0068   47.1079 H   0  0  0  0  0  0  0  0  0  0  0  0
   60.8529   35.1284   46.0663 H   0  0  0  0  0  0  0  0  0  0  0  0
   63.2485   34.6761   46.6000 H   0  0  0  0  0  0  0  0  0  0  0  0
   63.9422   32.4249   47.4248 H   0  0  0  0  0  0  0  0  0  0  0  0
   62.2429   30.6213   47.7175 H   0  0  0  0  0  0  0  0  0  0  0  0
   59.8455   31.0618   47.1825 H   0  0  0  0  0  0  0  0  0  0  0  0
  1  2  2  0
  2  3  1  0
  3  4  1  0
  4  5  2  0
  5  6  1  0
  5  7  1  0
  7  8  1  0
  8  9  2  0
  8 10  1  0
 10 11  1  0
 11 12  2  0
  2 13  1  0
 13 14  1  0
 14 15  2  0
 15 16  1  0
 16 17  2  0
 17 18  1  0
 18 19  2  0
 19 20  1  0
 20 21  1  0
 21 22  2  0
 22 23  1  0
 23 24  2  0
 24 25  1  0
 25 26  2  0
 11  4  1  0
 19 14  1  0
 26 21  1  0
  3 27  1  0
  3 28  1  0
  6 29  1  0
 15 30  1  0
 16 31  1  0
 17 32  1  0
 18 33  1  0
 20 34  1  0
 20 35  1  0
 22 36  1  0
 23 37  1  0
 24 38  1  0
 25 39  1  0
 26 40  1  0
M  CHG  3   7  -1  10  -1  13  -1
M  END
>  <UniqueID>  (26) 
23

>  <SMILES>  (26) 
O=C(Cc1c(O)[n-]c(=O)[n-]c1=O)[N-]c1ccccc1Cc1ccccc1

>  <Energy>  (26) 
46.82372318860858

>  <Genealogy>  (26) 
O=C(Cc1c(O)[n-]c(=O)[n-]c1=O)[N-]c1ccccc1Cc1ccccc1 (protonated)
O=C(Cc1c(O)[n-]c(=O)[n-]c1=O)[N-]c1ccccc1Cc1ccccc1 (3D coordinates assigned)
O=C(Cc1c(O)[n-]c(=O)[n-]c1=O)[N-]c1ccccc1Cc1ccccc1 (optimized conformer: 46.82372318860858 kcal/mol)

>  <smiles>  (26) 
O=C(Cc1c(O)[nH]c(=O)[nH]c1=O)Nc1ccccc1Cc1ccccc1

>  <score_type>  (26) 
oracle

>  <origin>  (26) 
adg

>  <m_score__min__energy>  (26) 
-14.470000000000001

>  <m_primary>  (26) 
energy

$$$$
26:0
     RDKit          3D

 45 47  0  0  0  0  0  0  0  0999 V2000
   56.6250   23.3430   42.8670 C   0  0  0  0  0  0  0  0  0  0  0  0
   56.0510   23.0120   44.2180 C   0  0  0  0  0  0  0  0  0  0  0  0
   54.6960   22.9390   44.3740 N   0  0  0  0  0  0  0  0  0  0  0  0
   54.1420   22.6490   45.5820 C   0  0  0  0  0  0  0  0  0  0  0  0
   52.8900   22.5940   45.7060 O   0  0  0  0  0  0  0  0  0  0  0  0
   54.9350   22.4110   46.6550 N   0  0  0  0  0  0  0  0  0  0  0  0
   56.2870   22.4640   46.5580 C   0  0  0  0  0  0  0  0  0  0  0  0
   56.9870   22.2060   47.5730 O   0  0  0  0  0  0  0  0  0  0  0  0
   56.8920   22.7880   45.3290 C   0  0  0  0  0  0  0  0  0  0  0  0
   58.3670   22.8420   45.1880 C   0  0  0  0  0  0  0  0  0  0  0  0
   59.1440   23.8200   45.6780 C   0  0  0  0  0  0  0  0  0  0  0  0
   58.7320   25.2330   45.8300 C   0  0  0  0  0  0  0  0  0  0  0  0
   57.5230   25.7100   45.2940 C   0  0  0  0  0  0  0  0  0  0  0  0
   57.1660   27.0530   45.4440 C   0  0  0  0  0  0  0  0  0  0  0  0
   58.0120   27.9420   46.1180 C   0  0  0  0  0  0  0  0  0  0  0  0
   57.5950   29.3050   46.2650 N   0  0  0  0  0  0  0  0  0  0  0  0
   57.3940   30.4420   44.9700 S   0  0  0  0  0  0  0  0  0  0  0  0
   55.9290   30.6100   44.6840 O   0  0  0  0  0  0  0  0  0  0  0  0
   58.0420   29.8850   43.7330 O   0  0  0  0  0  0  0  0  0  0  0  0
   58.1030   32.0160   45.3980 C   0  0  0  0  0  0  0  0  0  0  0  0
   57.4110   33.1730   44.9960 C   0  0  0  0  0  0  0  0  0  0  0  0
   57.9100   34.4420   45.2830 C   0  0  0  0  0  0  0  0  0  0  0  0
   59.1030   34.5800   45.9840 C   0  0  0  0  0  0  0  0  0  0  0  0
   59.5810   35.8160   46.2680 F   0  0  0  0  0  0  0  0  0  0  0  0
   59.8030   33.4490   46.4030 C   0  0  0  0  0  0  0  0  0  0  0  0
   59.3290   32.1510   46.1150 C   0  0  0  0  0  0  0  0  0  0  0  0
   60.1080   30.9540   46.6330 C   0  0  0  0  0  0  0  0  0  0  0  0
   59.4560   30.3750   47.7030 F   0  0  0  0  0  0  0  0  0  0  0  0
   60.2500   29.9760   45.6620 F   0  0  0  0  0  0  0  0  0  0  0  0
   61.3710   31.3530   47.0220 F   0  0  0  0  0  0  0  0  0  0  0  0
   59.2390   27.4750   46.6190 C   0  0  0  0  0  0  0  0  0  0  0  0
   59.5980   26.1320   46.4680 C   0  0  0  0  0  0  0  0  0  0  0  0
   57.5715   23.8888   42.9945 H   0  0  0  0  0  0  0  0  0  0  0  0
   56.8102   22.4130   42.3095 H   0  0  0  0  0  0  0  0  0  0  0  0
   55.9129   23.9691   42.3095 H   0  0  0  0  0  0  0  0  0  0  0  0
   54.0650   23.1110   43.5580 H   0  0  0  0  0  0  0  0  0  0  0  0
   58.8589   22.0226   44.6434 H   0  0  0  0  0  0  0  0  0  0  0  0
   60.1639   23.5511   45.9902 H   0  0  0  0  0  0  0  0  0  0  0  0
   56.8548   25.0230   44.7540 H   0  0  0  0  0  0  0  0  0  0  0  0
   56.2133   27.4142   45.0294 H   0  0  0  0  0  0  0  0  0  0  0  0
   56.4627   33.0745   44.4474 H   0  0  0  0  0  0  0  0  0  0  0  0
   57.3594   35.3359   44.9546 H   0  0  0  0  0  0  0  0  0  0  0  0
   60.7396   33.5703   46.9670 H   0  0  0  0  0  0  0  0  0  0  0  0
   59.9204   28.1693   47.1325 H   0  0  0  0  0  0  0  0  0  0  0  0
   60.5662   25.7787   46.8523 H   0  0  0  0  0  0  0  0  0  0  0  0
  1  2  1  0
  2  3  1  0
  3  4  1  0
  4  5  2  0
  4  6  1  0
  6  7  1  0
  7  8  2  0
  7  9  1  0
  9 10  1  0
 10 11  2  3
 11 12  1  0
 12 13  2  0
 13 14  1  0
 14 15  2  0
 15 16  1  0
 16 17  1  0
 17 18  2  0
 17 19  2  0
 17 20  1  0
 20 21  2  0
 21 22  1  0
 22 23  2  0
 23 24  1  0
 23 25  1  0
 25 26  2  0
 26 27  1  0
 27 28  1  0
 27 29  1  0
 27 30  1  0
 15 31  1  0
 31 32  2  0
  9  2  2  0
 32 12  1  0
 26 20  1  0
  1 33  1  0
  1 34  1  0
  1 35  1  0
  3 36  1  0
 10 37  1  0
 11 38  1  0
 13 39  1  0
 14 40  1  0
 21 41  1  0
 22 42  1  0
 25 43  1  0
 31 44  1  0
 32 45  1  0
M  CHG  2   6  -1  16  -1
M  END
>  <UniqueID>  (27) 
24

>  <SMILES>  (27) 
Cc1[nH]c(=O)[n-]c(=O)c1C=Cc1ccc([N-]S(=O)(=O)c2ccc(F)cc2C(F)(F)F)cc1

>  <Energy>  (27) 
68.50283823226495

>  <Genealogy>  (27) 
Cc1[nH]c(=O)[n-]c(=O)c1C=Cc1ccc([N-]S(=O)(=O)c2ccc(F)cc2C(F)(F)F)cc1 (protonated)
Cc1[nH]c(=O)[n-]c(=O)c1C=Cc1ccc([N-]S(=O)(=O)c2ccc(F)cc2C(F)(F)F)cc1 (3D coordinates assigned)
Cc1[nH]c(=O)[n-]c(=O)c1C=Cc1ccc([N-]S(=O)(=O)c2ccc(F)cc2C(F)(F)F)cc1 (optimized conformer: 68.50283823226495 kcal/mol)

>  <smiles>  (27) 
Cc1[nH]c(=O)[nH]c(=O)c1C=Cc1ccc(NS(=O)(=O)c2ccc(F)cc2C(F)(F)F)cc1

>  <score_type>  (27) 
oracle

>  <origin>  (27) 
adg

>  <m_score__min__energy>  (27) 
-11.539999999999999

>  <m_primary>  (27) 
energy

$$$$
27:0
     RDKit          3D

 32 34  0  0  0  0  0  0  0  0999 V2000
   60.3091   28.8995   45.8367 H   0  0  0  0  0  0  0  0  0  0  0  0
   60.2630   29.8890   46.3150 C   0  0  0  0  0  0  0  0  0  0  0  0
   61.3040   30.5410   46.7380 N   0  0  0  0  0  0  0  0  0  0  0  0
   60.8180   31.7630   47.2870 C   0  0  0  0  0  0  0  0  0  0  0  0
   61.5780   32.7800   47.8630 C   0  0  0  0  0  0  0  0  0  0  0  0
   62.6731   32.6999   47.9287 H   0  0  0  0  0  0  0  0  0  0  0  0
   60.9040   33.9120   48.3580 C   0  0  0  0  0  0  0  0  0  0  0  0
   61.4761   34.7314   48.8177 H   0  0  0  0  0  0  0  0  0  0  0  0
   59.4980   34.0020   48.2680 C   0  0  0  0  0  0  0  0  0  0  0  0
   58.9812   34.8917   48.6570 H   0  0  0  0  0  0  0  0  0  0  0  0
   58.7540   32.9610   47.6840 C   0  0  0  0  0  0  0  0  0  0  0  0
   57.6582   33.0191   47.6081 H   0  0  0  0  0  0  0  0  0  0  0  0
   59.4520   31.8520   47.2040 C   0  0  0  0  0  0  0  0  0  0  0  0
   59.0140   30.6320   46.5520 C   0  0  0  0  0  0  0  0  0  0  0  0
   57.7580   30.2560   46.2900 C   0  0  0  0  0  0  0  0  0  0  0  0
   57.1169   29.9390   47.1258 H   0  0  0  0  0  0  0  0  0  0  0  0
   57.1980   30.2490   44.9280 C   0  0  0  0  0  0  0  0  0  0  0  0
   56.1620   29.4490   44.4960 C   0  0  0  0  0  0  0  0  0  0  0  0
   55.5220   28.4650   45.2400 O   0  0  0  0  0  0  0  0  0  0  0  0
   55.8430   29.7620   43.2280 N   0  0  0  0  0  0  0  0  0  0  0  0
   55.0980   29.3370   42.6330 H   0  0  0  0  0  0  0  0  0  0  0  0
   56.6780   30.7720   42.9160 C   0  0  0  0  0  0  0  0  0  0  0  0
   56.6540   31.3660   41.8050 O   0  0  0  0  0  0  0  0  0  0  0  0
   57.5180   31.0990   43.9240 N   0  0  0  0  0  0  0  0  0  0  0  0
   58.4410   32.2390   43.9520 C   0  0  0  0  0  0  0  0  0  0  0  0
   58.7766   32.4571   42.9274 H   0  0  0  0  0  0  0  0  0  0  0  0
   59.3005   31.9825   44.5888 H   0  0  0  0  0  0  0  0  0  0  0  0
   57.7660   33.4550   44.5190 C   0  0  0  0  0  0  0  0  0  0  0  0
   56.6736   33.4569   44.6478 H   0  0  0  0  0  0  0  0  0  0  0  0
   58.4700   34.5330   44.8690 C   0  0  0  0  0  0  0  0  0  0  0  0
   57.9576   35.4141   45.2826 H   0  0  0  0  0  0  0  0  0  0  0  0
   59.5628   34.5406   44.7440 H   0  0  0  0  0  0  0  0  0  0  0  0
  1  2  1  0
  2  3  2  0
  3  4  1  0
  4  5  2  0
  5  6  1  0
  5  7  1  0
  7  8  1  0
  7  9  2  0
  9 10  1  0
  9 11  1  0
 11 12  1  0
 11 13  2  0
 13 14  1  0
 14 15  2  0
 15 16  1  0
 15 17  1  0
 17 18  2  0
 18 19  1  0
 18 20  1  0
 20 21  1  0
 20 22  1  0
 22 23  2  0
 22 24  1  0
 24 25  1  0
 25 26  1  0
 25 27  1  0
 25 28  1  0
 28 29  1  0
 28 30  2  0
 30 31  1  0
 30 32  1  0
 14  2  1  0
 24 17  1  0
 13  4  1  0
M  CHG  1  19  -1
M  END
>  <UniqueID>  (28) 
25

>  <SMILES>  (28) 
C=CCn1c(/C=C2\C=Nc3ccccc32)c([O-])[nH]c1=O

>  <Energy>  (28) 
101.01518284318743

>  <Genealogy>  (28) 
C=CCn1c(C=C2C=Nc3ccccc32)c([O-])[nH]c1=O (protonated)
C=CCn1c(/C=C2\C=Nc3ccccc32)c([O-])[nH]c1=O (cis-trans isomerization)
C=CCn1c(/C=C2\C=Nc3ccccc32)c([O-])[nH]c1=O (3D coordinates assigned)
C=CCn1c(/C=C2\C=Nc3ccccc32)c([O-])[nH]c1=O (nonaromatic ring conformer: 101.01518284318743 kcal/mol)

>  <smiles>  (28) 
C=CCn1c(C=C2C=Nc3ccccc32)c(O)[nH]c1=O

>  <score_type>  (28) 
oracle

>  <origin>  (28) 
adg

>  <m_score__min__energy>  (28) 
-10.539999999999999

>  <m_primary>  (28) 
energy

$$$$
28:0
     RDKit          3D

 50 52  0  0  0  0  0  0  0  0999 V2000
   59.6450   28.1810   47.5650 C   0  0  0  0  0  0  0  0  0  0  0  0
   60.4740   29.3400   48.0160 C   0  0  0  0  0  0  0  0  0  0  0  0
   61.0590   30.1590   47.1230 N   0  0  0  0  0  0  0  0  0  0  0  0
   61.7920   31.1830   47.5850 C   0  0  0  0  0  0  0  0  0  0  0  0
   62.3320   31.9410   46.7490 O   0  0  0  0  0  0  0  0  0  0  0  0
   61.9770   31.4410   48.9310 C   0  0  0  0  0  0  0  0  0  0  0  0
   62.7480   32.5190   49.3950 N   0  0  0  0  0  0  0  0  0  0  0  0
   64.1900   32.3600   49.4800 C   0  0  0  0  0  0  0  0  0  0  0  0
   62.2170   33.7790   49.7950 C   0  0  0  0  0  0  0  0  0  0  0  0
   62.9290   34.7350   50.1950 O   0  0  0  0  0  0  0  0  0  0  0  0
   60.7460   33.9490   49.7280 C   0  0  0  0  0  0  0  0  0  0  0  0
   60.2250   33.9420   48.3600 C   0  0  0  0  0  0  0  0  0  0  0  0
   60.6970   34.5040   47.2310 C   0  0  0  0  0  0  0  0  0  0  0  0
   60.0120   34.3410   46.0830 C   0  0  0  0  0  0  0  0  0  0  0  0
   58.8760   33.6220   46.0970 C   0  0  0  0  0  0  0  0  0  0  0  0
   57.7370   33.1840   44.8950 S   0  0  0  0  0  0  0  0  0  0  0  0
   56.6590   34.2270   44.7790 O   0  0  0  0  0  0  0  0  0  0  0  0
   58.4320   33.1280   43.5590 O   0  0  0  0  0  0  0  0  0  0  0  0
   56.9740   31.6810   45.1730 N   0  0  0  0  0  0  0  0  0  0  0  0
   57.7940   30.6930   45.8040 C   0  0  0  0  0  0  0  0  0  0  0  0
   57.5670   29.3030   45.1990 C   0  0  0  0  0  0  0  0  0  0  0  0
   56.2120   29.1050   44.9450 O   0  0  0  0  0  0  0  0  0  0  0  0
   55.7340   29.9750   43.9570 C   0  0  0  0  0  0  0  0  0  0  0  0
   56.6410   31.1530   43.8390 C   0  0  0  0  0  0  0  0  0  0  0  0
   58.6750   33.0810   47.8590 S   0  0  0  0  0  0  0  0  0  0  0  0
   61.3620   30.5800   49.8160 C   0  0  0  0  0  0  0  0  0  0  0  0
   61.4770   30.7390   51.2890 C   0  0  0  0  0  0  0  0  0  0  0  0
   60.6220   29.5460   49.3510 N   0  0  0  0  0  0  0  0  0  0  0  0
   59.2596   27.6421   48.4431 H   0  0  0  0  0  0  0  0  0  0  0  0
   58.8021   28.5464   46.9600 H   0  0  0  0  0  0  0  0  0  0  0  0
   60.2632   27.5014   46.9600 H   0  0  0  0  0  0  0  0  0  0  0  0
   64.4935   32.3265   50.5368 H   0  0  0  0  0  0  0  0  0  0  0  0
   64.4855   31.4238   48.9838 H   0  0  0  0  0  0  0  0  0  0  0  0
   64.6824   33.2093   48.9838 H   0  0  0  0  0  0  0  0  0  0  0  0
   60.2736   33.1271   50.2859 H   0  0  0  0  0  0  0  0  0  0  0  0
   60.5111   34.9323   50.1615 H   0  0  0  0  0  0  0  0  0  0  0  0
   61.6290   35.0881   47.2462 H   0  0  0  0  0  0  0  0  0  0  0  0
   60.3767   34.7897   45.1472 H   0  0  0  0  0  0  0  0  0  0  0  0
   58.8506   30.9704   45.6752 H   0  0  0  0  0  0  0  0  0  0  0  0
   57.5262   30.6527   46.8702 H   0  0  0  0  0  0  0  0  0  0  0  0
   58.1292   29.2203   44.2572 H   0  0  0  0  0  0  0  0  0  0  0  0
   57.9141   28.5401   45.9114 H   0  0  0  0  0  0  0  0  0  0  0  0
   55.6946   29.4465   42.9931 H   0  0  0  0  0  0  0  0  0  0  0  0
   54.7262   30.3189   44.2327 H   0  0  0  0  0  0  0  0  0  0  0  0
   57.5665   30.8480   43.3286 H   0  0  0  0  0  0  0  0  0  0  0  0
   56.1318   31.9386   43.2615 H   0  0  0  0  0  0  0  0  0  0  0  0
   60.9029   29.9453   51.7894 H   0  0  0  0  0  0  0  0  0  0  0  0
   62.5344   30.6684   51.5840 H   0  0  0  0  0  0  0  0  0  0  0  0
   61.0789   31.7211   51.5840 H   0  0  0  0  0  0  0  0  0  0  0  0
   60.1430   28.8760   50.0170 H   0  0  0  0  0  0  0  0  0  0  0  0
  1  2  1  0
  2  3  2  0
  3  4  1  0
  4  5  2  0
  4  6  1  0
  6  7  1  0
  7  8  1  0
  7  9  1  0
  9 10  2  0
  9 11  1  0
 11 12  1  0
 12 13  2  0
 13 14  1  0
 14 15  2  0
 15 16  1  0
 16 17  2  0
 16 18  2  0
 16 19  1  0
 19 20  1  0
 20 21  1  0
 21 22  1  0
 22 23  1  0
 23 24  1  0
 15 25  1  0
  6 26  2  0
 26 27  1  0
 26 28  1  0
 28  2  1  0
 25 12  1  0
 24 19  1  0
  1 29  1  0
  1 30  1  0
  1 31  1  0
  8 32  1  0
  8 33  1  0
  8 34  1  0
 11 35  1  0
 11 36  1  0
 13 37  1  0
 14 38  1  0
 20 39  1  0
 20 40  1  0
 21 41  1  0
 21 42  1  0
 23 43  1  0
 23 44  1  0
 24 45  1  0
 24 46  1  0
 27 47  1  0
 27 48  1  0
 27 49  1  0
 28 50  1  0
M  END
>  <smiles>  (29) 
Cc1nc(=O)c(N(C)C(=O)Cc2ccc(S(=O)(=O)N3CCOCC3)s2)c(C)[nH]1

>  <score_type>  (29) 
oracle

>  <origin>  (29) 
adg

>  <m_score__min__energy>  (29) 
-9.2200000000000006

>  <m_primary>  (29) 
energy

$$$$
29:0
     RDKit          3D

 41 43  0  0  0  0  0  0  0  0999 V2000
   55.6060   28.8030   52.3890 O   0  0  0  0  0  0  0  0  0  0  0  0
   54.7760   29.7310   52.1850 C   0  0  0  0  0  0  0  0  0  0  0  0
   53.3150   29.4560   52.3630 C   0  0  0  0  0  0  0  0  0  0  0  0
   52.5070   30.3340   51.4430 C   0  0  0  0  0  0  0  0  0  0  0  0
   52.2400   29.9270   50.1280 C   0  0  0  0  0  0  0  0  0  0  0  0
   51.4840   30.7070   49.3130 N   0  0  0  0  0  0  0  0  0  0  0  0
   50.9690   31.8830   49.7510 C   0  0  0  0  0  0  0  0  0  0  0  0
   50.2720   32.5900   48.9790 O   0  0  0  0  0  0  0  0  0  0  0  0
   51.2000   32.2940   51.0240 N   0  0  0  0  0  0  0  0  0  0  0  0
   51.9500   31.5500   51.8780 C   0  0  0  0  0  0  0  0  0  0  0  0
   52.1360   31.9590   53.0540 O   0  0  0  0  0  0  0  0  0  0  0  0
   55.2130   31.0120   51.6990 N   0  0  0  0  0  0  0  0  0  0  0  0
   56.5920   31.4020   51.6030 C   0  0  0  0  0  0  0  0  0  0  0  0
   56.9820   32.6750   52.0450 C   0  0  0  0  0  0  0  0  0  0  0  0
   58.3170   33.0780   51.9470 C   0  0  0  0  0  0  0  0  0  0  0  0
   59.2740   32.2140   51.4110 C   0  0  0  0  0  0  0  0  0  0  0  0
   58.9030   30.9320   50.9860 C   0  0  0  0  0  0  0  0  0  0  0  0
   60.1050   29.8500   50.2860 S   0  0  0  0  0  0  0  0  0  0  0  0
   59.7420   28.4350   50.6310 O   0  0  0  0  0  0  0  0  0  0  0  0
   61.4690   30.1610   50.8350 O   0  0  0  0  0  0  0  0  0  0  0  0
   60.1380   30.0190   48.5590 N   0  0  0  0  0  0  0  0  0  0  0  0
   59.1000   29.5900   47.6660 C   0  0  0  0  0  0  0  0  0  0  0  0
   58.4780   30.4720   46.7630 C   0  0  0  0  0  0  0  0  0  0  0  0
   57.4460   30.0200   45.9360 C   0  0  0  0  0  0  0  0  0  0  0  0
   57.0310   28.6860   45.9970 C   0  0  0  0  0  0  0  0  0  0  0  0
   56.0040   28.2390   45.1760 O   0  0  0  0  0  0  0  0  0  0  0  0
   57.6540   27.8020   46.8830 C   0  0  0  0  0  0  0  0  0  0  0  0
   58.6850   28.2530   47.7130 C   0  0  0  0  0  0  0  0  0  0  0  0
   57.5680   30.5200   51.1060 C   0  0  0  0  0  0  0  0  0  0  0  0
   53.1124   28.4004   52.1293 H   0  0  0  0  0  0  0  0  0  0  0  0
   53.0327   29.6697   53.4045 H   0  0  0  0  0  0  0  0  0  0  0  0
   52.6438   28.9739   49.7558 H   0  0  0  0  0  0  0  0  0  0  0  0
   54.4920   31.6510   51.2950 H   0  0  0  0  0  0  0  0  0  0  0  0
   56.2336   33.3595   52.4708 H   0  0  0  0  0  0  0  0  0  0  0  0
   58.6145   34.0788   52.2932 H   0  0  0  0  0  0  0  0  0  0  0  0
   60.3207   32.5406   51.3224 H   0  0  0  0  0  0  0  0  0  0  0  0
   58.8052   31.5208   46.7078 H   0  0  0  0  0  0  0  0  0  0  0  0
   56.9593   30.7149   45.2358 H   0  0  0  0  0  0  0  0  0  0  0  0
   57.3329   26.7508   46.9272 H   0  0  0  0  0  0  0  0  0  0  0  0
   59.1733   27.5533   48.4073 H   0  0  0  0  0  0  0  0  0  0  0  0
   57.2823   29.5000   50.8094 H   0  0  0  0  0  0  0  0  0  0  0  0
  1  2  2  0
  2  3  1  0
  3  4  1  0
  4  5  2  0
  5  6  1  0
  6  7  1  0
  7  8  2  0
  7  9  1  0
  9 10  1  0
 10 11  2  0
  2 12  1  0
 12 13  1  0
 13 14  2  0
 14 15  1  0
 15 16  2  0
 16 17  1  0
 17 18  1  0
 18 19  2  0
 18 20  2  0
 18 21  1  0
 21 22  1  0
 22 23  2  0
 23 24  1  0
 24 25  2  0
 25 26  1  0
 25 27  1  0
 27 28  2  0
 17 29  2  0
 10  4  1  0
 29 13  1  0
 28 22  1  0
  3 30  1  0
  3 31  1  0
  5 32  1  0
 12 33  1  0
 14 34  1  0
 15 35  1  0
 16 36  1  0
 23 37  1  0
 24 38  1  0
 27 39  1  0
 28 40  1  0
 29 41  1  0
M  CHG  4   6  -1   9  -1  21  -1  26  -1
M  END
>  <UniqueID>  (30) 
26

>  <SMILES>  (30) 
O=C(Cc1c[n-]c(=O)[n-]c1=O)Nc1cccc(S(=O)(=O)[N-]c2ccc([O-])cc2)c1

>  <Energy>  (30) 
49.34659904644531

>  <Genealogy>  (30) 
O=C(Cc1c[n-]c(=O)[n-]c1=O)Nc1cccc(S(=O)(=O)[N-]c2ccc([O-])cc2)c1 (protonated)
O=C(Cc1c[n-]c(=O)[n-]c1=O)Nc1cccc(S(=O)(=O)[N-]c2ccc([O-])cc2)c1 (3D coordinates assigned)
O=C(Cc1c[n-]c(=O)[n-]c1=O)Nc1cccc(S(=O)(=O)[N-]c2ccc([O-])cc2)c1 (optimized conformer: 49.34659904644531 kcal/mol)

>  <smiles>  (30) 
O=C(Cc1c[nH]c(=O)[nH]c1=O)Nc1cccc(S(=O)(=O)Nc2ccc(O)cc2)c1

>  <score_type>  (30) 
oracle

>  <origin>  (30) 
adg

>  <m_score__min__energy>  (30) 
-16.870000000000001

>  <m_primary>  (30) 
energy

$$$$
30:0
     RDKit          3D

 52 54  0  0  0  0  0  0  0  0999 V2000
   64.1791   33.4790   46.5522 H   0  0  0  0  0  0  0  0  0  0  0  0
   63.2490   33.6880   47.1010 C   0  0  0  0  0  0  0  0  0  0  0  0
   63.2720   33.8030   48.4870 C   0  0  0  0  0  0  0  0  0  0  0  0
   64.2196   33.6814   49.0323 H   0  0  0  0  0  0  0  0  0  0  0  0
   62.0970   34.0720   49.1860 C   0  0  0  0  0  0  0  0  0  0  0  0
   62.1245   34.1580   50.2823 H   0  0  0  0  0  0  0  0  0  0  0  0
   60.8750   34.2350   48.5060 C   0  0  0  0  0  0  0  0  0  0  0  0
   59.6440   34.5350   49.3240 C   0  0  0  0  0  0  0  0  0  0  0  0
   59.8912   34.4747   50.3942 H   0  0  0  0  0  0  0  0  0  0  0  0
   59.2841   35.5471   49.0872 H   0  0  0  0  0  0  0  0  0  0  0  0
   58.8588   33.8019   49.0872 H   0  0  0  0  0  0  0  0  0  0  0  0
   60.8430   34.1070   47.0850 C   0  0  0  0  0  0  0  0  0  0  0  0
   59.5990   34.2730   46.2780 C   0  0  0  0  0  0  0  0  0  0  0  0
   59.5180   35.1520   45.3790 O   0  0  0  0  0  0  0  0  0  0  0  0
   58.4300   33.5090   46.5880 N   0  0  0  0  0  0  0  0  0  0  0  0
   58.2520   32.2260   46.4400 C   0  0  0  0  0  0  0  0  0  0  0  0
   57.5170   31.6900   45.4080 C   0  0  0  0  0  0  0  0  0  0  0  0
   56.9969   32.2234   44.5987 H   0  0  0  0  0  0  0  0  0  0  0  0
   57.5830   30.3270   45.6230 C   0  0  0  0  0  0  0  0  0  0  0  0
   56.9480   29.2790   44.8040 C   0  0  0  0  0  0  0  0  0  0  0  0
   55.7450   29.4130   44.4560 O   0  0  0  0  0  0  0  0  0  0  0  0
   57.6400   28.0700   44.4680 N   0  0  0  0  0  0  0  0  0  0  0  0
   57.8750   27.0160   45.2060 C   0  0  0  0  0  0  0  0  0  0  0  0
   56.8570   26.2490   45.8490 C   0  0  0  0  0  0  0  0  0  0  0  0
   55.5090   26.7120   46.0050 N   0  0  0  0  0  0  0  0  0  0  0  0
   54.9380   26.4020   46.8220 H   0  0  0  0  0  0  0  0  0  0  0  0
   55.1460   27.5200   45.4550 H   0  0  0  0  0  0  0  0  0  0  0  0
   57.2150   25.0460   46.4710 C   0  0  0  0  0  0  0  0  0  0  0  0
   56.4366   24.4102   46.9180 H   0  0  0  0  0  0  0  0  0  0  0  0
   58.5470   24.6490   46.5280 C   0  0  0  0  0  0  0  0  0  0  0  0
   58.8238   23.6990   47.0085 H   0  0  0  0  0  0  0  0  0  0  0  0
   59.5250   25.4660   45.9710 C   0  0  0  0  0  0  0  0  0  0  0  0
   60.5845   25.1786   46.0411 H   0  0  0  0  0  0  0  0  0  0  0  0
   59.1760   26.6190   45.3400 N   0  0  0  0  0  0  0  0  0  0  0  0
   59.9370   27.1890   44.9050 H   0  0  0  0  0  0  0  0  0  0  0  0
   58.3000   30.0720   46.7350 N   0  0  0  0  0  0  0  0  0  0  0  0
   58.7110   31.2260   47.2410 N   0  0  0  0  0  0  0  0  0  0  0  0
   59.3030   31.2920   48.5810 C   0  0  0  0  0  0  0  0  0  0  0  0
   59.5252   32.3416   48.8238 H   0  0  0  0  0  0  0  0  0  0  0  0
   58.5848   30.8712   49.3002 H   0  0  0  0  0  0  0  0  0  0  0  0
   60.6090   30.4700   48.6560 C   0  0  0  0  0  0  0  0  0  0  0  0
   60.3325   29.4112   48.7677 H   0  0  0  0  0  0  0  0  0  0  0  0
   61.4420   30.9010   49.8680 C   0  0  0  0  0  0  0  0  0  0  0  0
   60.9128   30.6272   50.7927 H   0  0  0  0  0  0  0  0  0  0  0  0
   62.4183   30.3949   49.8406 H   0  0  0  0  0  0  0  0  0  0  0  0
   61.5928   31.9903   49.8406 H   0  0  0  0  0  0  0  0  0  0  0  0
   61.4350   30.6110   47.3700 C   0  0  0  0  0  0  0  0  0  0  0  0
   62.4888   30.7909   47.6290 H   0  0  0  0  0  0  0  0  0  0  0  0
   61.3552   29.6862   46.7797 H   0  0  0  0  0  0  0  0  0  0  0  0
   61.0529   31.4569   46.7797 H   0  0  0  0  0  0  0  0  0  0  0  0
   62.0500   33.8370   46.4060 C   0  0  0  0  0  0  0  0  0  0  0  0
   62.0447   33.7425   45.3101 H   0  0  0  0  0  0  0  0  0  0  0  0
  1  2  1  0
  2  3  2  0
  3  4  1  0
  3  5  1  0
  5  6  1  0
  5  7  2  0
  7  8  1  0
  8  9  1  0
  8 10  1  0
  8 11  1  0
  7 12  1  0
 12 13  1  0
 13 14  2  0
 13 15  1  0
 15 16  2  3
 16 17  1  0
 17 18  1  0
 17 19  2  0
 19 20  1  0
 20 21  2  0
 20 22  1  0
 22 23  2  0
 23 24  1  0
 24 25  1  0
 25 26  1  0
 25 27  1  0
 24 28  2  0
 28 29  1  0
 28 30  1  0
 30 31  1  0
 30 32  2  0
 32 33  1  0
 32 34  1  0
 34 35  1  0
 19 36  1  0
 36 37  1  0
 37 38  1  0
 38 39  1  0
 38 40  1  0
 38 41  1  0
 41 42  1  0
 41 43  1  0
 43 44  1  0
 43 45  1  0
 43 46  1  0
 41 47  1  0
 47 48  1  0
 47 49  1  0
 47 50  1  0
 12 51  2  0
 51 52  1  0
 51  2  1  0
 37 16  1  0
 34 23  1  0
M  CHG  1  36  -1
M  END
>  <UniqueID>  (31) 
27

>  <SMILES>  (31) 
Cc1ccccc1C(=O)N=c1cc(C(=O)/N=c2/[nH]cccc2N)[n-]n1CC(C)C

>  <Energy>  (31) 
110.47760458649805

>  <Genealogy>  (31) 
Cc1ccccc1C(=O)N=c1cc(C(=O)N=c2[nH]cccc2N)[n-]n1CC(C)C (protonated)
Cc1ccccc1C(=O)N=c1cc(C(=O)/N=c2/[nH]cccc2N)[n-]n1CC(C)C (cis-trans isomerization)
Cc1ccccc1C(=O)N=c1cc(C(=O)/N=c2/[nH]cccc2N)[n-]n1CC(C)C (3D coordinates assigned)
Cc1ccccc1C(=O)N=c1cc(C(=O)/N=c2/[nH]cccc2N)[n-]n1CC(C)C (optimized conformer: 110.47760458649805 kcal/mol)

>  <smiles>  (31) 
Cc1ccccc1C(=O)N=c1cc(C(=O)N=c2[nH]cccc2N)[nH]n1CC(C)C

>  <score_type>  (31) 
oracle

>  <origin>  (31) 
adg

>  <m_score__min__energy>  (31) 
-10.539999999999999

>  <m_primary>  (31) 
energy

$$$$
31:0
     RDKit          3D

 42 44  0  0  0  0  0  0  0  0999 V2000
   59.2405   35.4480   44.3087 H   0  0  0  0  0  0  0  0  0  0  0  0
   58.8200   34.5980   44.8660 C   0  0  0  0  0  0  0  0  0  0  0  0
   58.8300   34.6070   46.2240 N   0  0  0  0  0  0  0  0  0  0  0  0
   58.3180   33.5760   46.9480 C   0  0  0  0  0  0  0  0  0  0  0  0
   58.3394   33.6124   48.0472 H   0  0  0  0  0  0  0  0  0  0  0  0
   57.7650   32.4710   46.2970 C   0  0  0  0  0  0  0  0  0  0  0  0
   57.3425   31.6400   46.8808 H   0  0  0  0  0  0  0  0  0  0  0  0
   57.7510   32.4260   44.8920 C   0  0  0  0  0  0  0  0  0  0  0  0
   57.1610   31.2700   44.1740 C   0  0  0  0  0  0  0  0  0  0  0  0
   57.0060   31.3310   42.9250 O   0  0  0  0  0  0  0  0  0  0  0  0
   56.6950   30.1030   44.8660 N   0  0  0  0  0  0  0  0  0  0  0  0
   57.2640   28.9330   44.8460 C   0  0  0  0  0  0  0  0  0  0  0  0
   57.3910   27.8640   46.1490 S   0  0  0  0  0  0  0  0  0  0  0  0
   58.2590   26.7320   45.2520 C   0  0  0  0  0  0  0  0  0  0  0  0
   58.8310   25.4600   45.7910 C   0  0  0  0  0  0  0  0  0  0  0  0
   58.7440   25.4573   46.8875 H   0  0  0  0  0  0  0  0  0  0  0  0
   59.8896   25.3885   45.5006 H   0  0  0  0  0  0  0  0  0  0  0  0
   58.0840   24.2810   45.2290 C   0  0  0  0  0  0  0  0  0  0  0  0
   58.7580   23.0850   44.9520 C   0  0  0  0  0  0  0  0  0  0  0  0
   59.8317   22.9986   45.1748 H   0  0  0  0  0  0  0  0  0  0  0  0
   58.0760   22.0020   44.3950 C   0  0  0  0  0  0  0  0  0  0  0  0
   58.6133   21.0643   44.1900 H   0  0  0  0  0  0  0  0  0  0  0  0
   56.7040   22.1030   44.0940 C   0  0  0  0  0  0  0  0  0  0  0  0
   55.9840   21.0370   43.5340 O   0  0  0  0  0  0  0  0  0  0  0  0
   55.8940   19.7360   44.1050 C   0  0  0  0  0  0  0  0  0  0  0  0
   55.8995   19.8159   45.2021 H   0  0  0  0  0  0  0  0  0  0  0  0
   54.9605   19.2554   43.7771 H   0  0  0  0  0  0  0  0  0  0  0  0
   56.7525   19.1314   43.7771 H   0  0  0  0  0  0  0  0  0  0  0  0
   56.0230   23.3040   44.3560 C   0  0  0  0  0  0  0  0  0  0  0  0
   54.6580   23.3780   44.0380 O   0  0  0  0  0  0  0  0  0  0  0  0
   53.6660   23.9650   44.8760 C   0  0  0  0  0  0  0  0  0  0  0  0
   53.9356   23.8055   45.9304 H   0  0  0  0  0  0  0  0  0  0  0  0
   53.6057   25.0443   44.6722 H   0  0  0  0  0  0  0  0  0  0  0  0
   52.6910   23.4984   44.6722 H   0  0  0  0  0  0  0  0  0  0  0  0
   56.7200   24.3910   44.9200 C   0  0  0  0  0  0  0  0  0  0  0  0
   56.1900   25.3340   45.1197 H   0  0  0  0  0  0  0  0  0  0  0  0
   58.4530   27.2330   43.9680 C   0  0  0  0  0  0  0  0  0  0  0  0
   59.0117   26.6875   43.1932 H   0  0  0  0  0  0  0  0  0  0  0  0
   57.8940   28.4530   43.7520 N   0  0  0  0  0  0  0  0  0  0  0  0
   57.9570   28.9630   42.8420 H   0  0  0  0  0  0  0  0  0  0  0  0
   58.2770   33.5120   44.1750 C   0  0  0  0  0  0  0  0  0  0  0  0
   58.2618   33.5080   43.0751 H   0  0  0  0  0  0  0  0  0  0  0  0
  1  2  1  0
  2  3  2  0
  3  4  1  0
  4  5  1  0
  4  6  2  0
  6  7  1  0
  6  8  1  0
  8  9  1  0
  9 10  2  0
  9 11  1  0
 11 12  2  0
 12 13  1  0
 13 14  1  0
 14 15  1  0
 15 16  1  0
 15 17  1  0
 15 18  1  0
 18 19  2  0
 19 20  1  0
 19 21  1  0
 21 22  1  0
 21 23  2  0
 23 24  1  0
 24 25  1  0
 25 26  1  0
 25 27  1  0
 25 28  1  0
 23 29  1  0
 29 30  1  0
 30 31  1  0
 31 32  1  0
 31 33  1  0
 31 34  1  0
 29 35  2  0
 35 36  1  0
 14 37  2  0
 37 38  1  0
 37 39  1  0
 39 40  1  0
  8 41  2  0
 41 42  1  0
 41  2  1  0
 39 12  1  0
 35 18  1  0
M  END
>  <UniqueID>  (32) 
28

>  <SMILES>  (32) 
COc1ccc(Cc2c[nH]/c(=N/C(=O)c3ccncc3)s2)cc1OC

>  <Energy>  (32) 
80.425751048336

>  <Genealogy>  (32) 
COc1ccc(Cc2c[nH]/c(=N/C(=O)c3ccncc3)s2)cc1OC (cis-trans isomerization)
COc1ccc(Cc2c[nH]/c(=N/C(=O)c3ccncc3)s2)cc1OC (3D coordinates assigned)
COc1ccc(Cc2c[nH]/c(=N/C(=O)c3ccncc3)s2)cc1OC (optimized conformer: 80.425751048336 kcal/mol)

>  <smiles>  (32) 
COc1ccc(Cc2c[nH]c(=NC(=O)c3ccncc3)s2)cc1OC

>  <score_type>  (32) 
oracle

>  <origin>  (32) 
adg

>  <m_score__min__energy>  (32) 
-8.0999999999999996

>  <m_primary>  (32) 
energy

$$$$
32:0
     RDKit          3D

 36 38  0  0  0  0  0  0  0  0999 V2000
   55.2150   28.7810   45.6480 H   0  0  0  0  0  0  0  0  0  0  0  0
   55.1720   29.4600   44.8570 N   0  0  0  0  0  0  0  0  0  0  0  0
   56.3330   29.7560   44.0810 C   0  0  0  0  0  0  0  0  0  0  0  0
   56.6210   29.0160   43.1020 O   0  0  0  0  0  0  0  0  0  0  0  0
   57.1890   30.9190   44.4170 C   0  0  0  0  0  0  0  0  0  0  0  0
   57.3840   31.9520   43.4850 C   0  0  0  0  0  0  0  0  0  0  0  0
   56.8884   31.9032   42.5042 H   0  0  0  0  0  0  0  0  0  0  0  0
   58.2030   33.0410   43.7950 C   0  0  0  0  0  0  0  0  0  0  0  0
   58.3555   33.8409   43.0555 H   0  0  0  0  0  0  0  0  0  0  0  0
   58.8280   33.1160   45.0410 C   0  0  0  0  0  0  0  0  0  0  0  0
   59.4815   33.9695   45.2743 H   0  0  0  0  0  0  0  0  0  0  0  0
   58.6280   32.1110   45.9960 C   0  0  0  0  0  0  0  0  0  0  0  0
   59.2980   32.2020   47.2650 N   0  0  0  0  0  0  0  0  0  0  0  0
   59.6840   33.1310   47.5480 H   0  0  0  0  0  0  0  0  0  0  0  0
   59.3690   31.1260   48.2150 C   0  0  0  0  0  0  0  0  0  0  0  0
   59.2880   29.8300   47.8040 N   0  0  0  0  0  0  0  0  0  0  0  0
   59.3240   28.7990   48.6880 C   0  0  0  0  0  0  0  0  0  0  0  0
   59.2780   27.5790   48.2400 N   0  0  0  0  0  0  0  0  0  0  0  0
   58.5690   27.1100   47.0800 C   0  0  0  0  0  0  0  0  0  0  0  0
   59.2360   26.5540   45.9710 C   0  0  0  0  0  0  0  0  0  0  0  0
   60.3344   26.4956   45.9645 H   0  0  0  0  0  0  0  0  0  0  0  0
   58.5060   26.0760   44.8780 C   0  0  0  0  0  0  0  0  0  0  0  0
   59.0318   25.6569   44.0075 H   0  0  0  0  0  0  0  0  0  0  0  0
   57.1090   26.1300   44.8900 C   0  0  0  0  0  0  0  0  0  0  0  0
   56.5368   25.7629   44.0252 H   0  0  0  0  0  0  0  0  0  0  0  0
   56.4390   26.6510   46.0020 C   0  0  0  0  0  0  0  0  0  0  0  0
   55.0510   26.6910   46.0200 O   0  0  0  0  0  0  0  0  0  0  0  0
   57.1670   27.1290   47.0960 C   0  0  0  0  0  0  0  0  0  0  0  0
   56.6361   27.5227   47.9753 H   0  0  0  0  0  0  0  0  0  0  0  0
   59.4510   29.0620   50.0180 N   0  0  0  0  0  0  0  0  0  0  0  0
   59.5200   30.3380   50.4780 C   0  0  0  0  0  0  0  0  0  0  0  0
   59.6121   30.5300   51.5572 H   0  0  0  0  0  0  0  0  0  0  0  0
   59.4740   31.4040   49.5810 C   0  0  0  0  0  0  0  0  0  0  0  0
   59.5194   32.4426   49.9406 H   0  0  0  0  0  0  0  0  0  0  0  0
   57.8250   31.0020   45.6710 C   0  0  0  0  0  0  0  0  0  0  0  0
   57.6927   30.1920   46.4034 H   0  0  0  0  0  0  0  0  0  0  0  0
  1  2  1  0
  2  3  1  0
  3  4  2  0
  3  5  1  0
  5  6  2  0
  6  7  1  0
  6  8  1  0
  8  9  1  0
  8 10  2  0
 10 11  1  0
 10 12  1  0
 12 13  1  0
 13 14  1  0
 13 15  1  0
 15 16  2  0
 16 17  1  0
 17 18  2  0
 18 19  1  0
 19 20  2  0
 20 21  1  0
 20 22  1  0
 22 23  1  0
 22 24  2  0
 24 25  1  0
 24 26  1  0
 26 27  1  0
 26 28  2  0
 28 29  1  0
 17 30  1  0
 30 31  1  0
 31 32  1  0
 31 33  2  0
 33 34  1  0
 12 35  2  0
 35 36  1  0
 35  5  1  0
 33 15  1  0
 28 19  1  0
M  CHG  3   2  -1  27  -1  30  -1
M  END
>  <UniqueID>  (33) 
29

>  <SMILES>  (33) 
[NH-]C(=O)c1cccc(Nc2cc[n-]/c(=N\c3cccc([O-])c3)n2)c1

>  <Energy>  (33) 
50.248772043570206

>  <Genealogy>  (33) 
[NH-]C(=O)c1cccc(Nc2cc[n-]c(=Nc3cccc([O-])c3)n2)c1 (protonated)
[NH-]C(=O)c1cccc(Nc2cc[n-]/c(=N\c3cccc([O-])c3)n2)c1 (cis-trans isomerization)
[NH-]C(=O)c1cccc(Nc2cc[n-]/c(=N\c3cccc([O-])c3)n2)c1 (3D coordinates assigned)
[NH-]C(=O)c1cccc(Nc2cc[n-]/c(=N\c3cccc([O-])c3)n2)c1 (optimized conformer: 50.248772043570206 kcal/mol)

>  <smiles>  (33) 
NC(=O)c1cccc(Nc2cc[nH]c(=Nc3cccc(O)c3)n2)c1

>  <score_type>  (33) 
oracle

>  <origin>  (33) 
adg

>  <m_score__min__energy>  (33) 
-15.27

>  <m_primary>  (33) 
energy

$$$$
33:0
     RDKit          3D

 63 67  0  0  0  0  0  0  0  0999 V2000
   60.7290   25.8720   51.1940 C   0  0  0  0  0  0  0  0  0  0  0  0
   61.1970   27.2740   50.9370 C   0  0  0  0  0  0  0  0  0  0  0  0
   60.6330   28.0280   49.9030 C   0  0  0  0  0  0  0  0  0  0  0  0
   61.0410   29.3450   49.6850 C   0  0  0  0  0  0  0  0  0  0  0  0
   62.0180   29.9560   50.5050 C   0  0  0  0  0  0  0  0  0  0  0  0
   62.4420   31.4150   50.2320 C   0  0  2  0  0  0  0  0  0  0  0  0
   61.9540   32.4040   51.3360 C   0  0  0  0  0  0  0  0  0  0  0  0
   62.4000   33.8440   51.0150 C   0  0  1  0  0  0  0  0  0  0  0  0
   63.9380   33.9050   50.9440 C   0  0  0  0  0  0  0  0  0  0  0  0
   64.4500   32.9510   49.8360 C   0  0  2  0  0  0  0  0  0  0  0  0
   65.9870   33.0120   49.7660 C   0  0  0  0  0  0  0  0  0  0  0  0
   63.8410   33.3820   48.4750 C   0  0  0  0  0  0  0  0  0  0  0  0
   62.2910   33.3420   48.5360 C   0  0  2  0  0  0  0  0  0  0  0  0
   61.7060   33.7960   47.2050 C   0  0  0  0  0  0  0  0  0  0  0  0
   62.4300   33.8240   46.1710 O   0  0  0  0  0  0  0  0  0  0  0  0
   60.3280   34.1930   47.1080 N   0  0  0  0  0  0  0  0  0  0  0  0
   59.6660   34.3960   45.8220 C   0  0  0  0  0  0  0  0  0  0  0  0
   58.9620   33.1350   45.4020 C   0  0  0  0  0  0  0  0  0  0  0  0
   59.0050   31.9880   46.2100 C   0  0  0  0  0  0  0  0  0  0  0  0
   58.3180   30.8320   45.8300 C   0  0  0  0  0  0  0  0  0  0  0  0
   57.5710   30.8120   44.6440 C   0  0  0  0  0  0  0  0  0  0  0  0
   56.7170   29.3490   44.1650 S   0  0  0  0  0  0  0  0  0  0  0  0
   55.1430   29.3390   44.8790 N   0  0  0  0  0  0  0  0  0  0  0  0
   56.5920   29.3010   42.6670 O   0  0  0  0  0  0  0  0  0  0  0  0
   57.4800   28.1370   44.6230 O   0  0  0  0  0  0  0  0  0  0  0  0
   57.5270   31.9550   43.8350 C   0  0  0  0  0  0  0  0  0  0  0  0
   58.2140   33.1120   44.2150 C   0  0  0  0  0  0  0  0  0  0  0  0
   61.7990   34.2830   49.6670 C   0  0  0  0  0  0  0  0  0  0  0  0
   61.8460   31.8880   48.8740 C   0  0  0  0  0  0  0  0  0  0  0  0
   63.9940   31.5050   50.1620 C   0  0  0  0  0  0  0  0  0  0  0  0
   62.5640   29.1830   51.5580 C   0  0  0  0  0  0  0  0  0  0  0  0
   62.1520   27.8640   51.7720 C   0  0  0  0  0  0  0  0  0  0  0  0
   60.6709   25.6979   52.2786 H   0  0  0  0  0  0  0  0  0  0  0  0
   59.7346   25.7295   50.7459 H   0  0  0  0  0  0  0  0  0  0  0  0
   61.4384   25.1607   50.7459 H   0  0  0  0  0  0  0  0  0  0  0  0
   59.8630   27.5804   49.2574 H   0  0  0  0  0  0  0  0  0  0  0  0
   60.5941   29.9186   48.8596 H   0  0  0  0  0  0  0  0  0  0  0  0
   60.8559   32.3701   51.3910 H   0  0  0  0  0  0  0  0  0  0  0  0
   62.3944   32.1042   52.2984 H   0  0  0  0  0  0  0  0  0  0  0  0
   62.0464   34.5208   51.8068 H   0  0  0  0  0  0  0  0  0  0  0  0
   64.2525   34.9337   50.7143 H   0  0  0  0  0  0  0  0  0  0  0  0
   64.3590   33.5964   51.9123 H   0  0  0  0  0  0  0  0  0  0  0  0
   66.4001   33.0284   50.7853 H   0  0  0  0  0  0  0  0  0  0  0  0
   66.3651   32.1282   49.2313 H   0  0  0  0  0  0  0  0  0  0  0  0
   66.2938   33.9230   49.2313 H   0  0  0  0  0  0  0  0  0  0  0  0
   64.1677   34.4058   48.2402 H   0  0  0  0  0  0  0  0  0  0  0  0
   64.1844   32.6861   47.6953 H   0  0  0  0  0  0  0  0  0  0  0  0
   59.7520   34.2930   47.9730 H   0  0  0  0  0  0  0  0  0  0  0  0
   58.9317   35.2098   45.9146 H   0  0  0  0  0  0  0  0  0  0  0  0
   60.4197   34.6584   45.0650 H   0  0  0  0  0  0  0  0  0  0  0  0
   59.5820   31.9992   47.1464 H   0  0  0  0  0  0  0  0  0  0  0  0
   58.3636   29.9342   46.4640 H   0  0  0  0  0  0  0  0  0  0  0  0
   55.1610   28.6310   45.6460 H   0  0  0  0  0  0  0  0  0  0  0  0
   56.9504   31.9422   42.8983 H   0  0  0  0  0  0  0  0  0  0  0  0
   58.1679   34.0090   43.5800 H   0  0  0  0  0  0  0  0  0  0  0  0
   62.1135   35.3137   49.4462 H   0  0  0  0  0  0  0  0  0  0  0  0
   60.7018   34.2330   49.7271 H   0  0  0  0  0  0  0  0  0  0  0  0
   60.7481   31.8540   48.9333 H   0  0  0  0  0  0  0  0  0  0  0  0
   62.2140   31.2194   48.0818 H   0  0  0  0  0  0  0  0  0  0  0  0
   64.3591   30.8265   49.3769 H   0  0  0  0  0  0  0  0  0  0  0  0
   64.4073   31.2181   51.1402 H   0  0  0  0  0  0  0  0  0  0  0  0
   63.3240   29.6268   52.2179 H   0  0  0  0  0  0  0  0  0  0  0  0
   62.5820   27.2859   52.6032 H   0  0  0  0  0  0  0  0  0  0  0  0
  1  2  1  0
  2  3  2  0
  3  4  1  0
  4  5  2  0
  6  5  1  1
  6  7  1  0
  7  8  1  0
  8  9  1  0
  9 10  1  0
 10 11  1  6
 10 12  1  0
 12 13  1  0
 13 14  1  6
 14 15  2  0
 14 16  1  0
 16 17  1  0
 17 18  1  0
 18 19  2  0
 19 20  1  0
 20 21  2  0
 21 22  1  0
 22 23  1  0
 22 24  2  0
 22 25  2  0
 21 26  1  0
 26 27  2  0
 13 28  1  0
 13 29  1  0
 10 30  1  0
  5 31  1  0
 31 32  2  0
 32  2  1  0
 29  6  1  0
 30  6  1  0
 28  8  1  0
 27 18  1  0
  1 33  1  0
  1 34  1  0
  1 35  1  0
  3 36  1  0
  4 37  1  0
  7 38  1  0
  7 39  1  0
  8 40  1  1
  9 41  1  0
  9 42  1  0
 11 43  1  0
 11 44  1  0
 11 45  1  0
 12 46  1  0
 12 47  1  0
 16 48  1  0
 17 49  1  0
 17 50  1  0
 19 51  1  0
 20 52  1  0
 23 53  1  0
 26 54  1  0
 27 55  1  0
 28 56  1  0
 28 57  1  0
 29 58  1  0
 29 59  1  0
 30 60  1  0
 30 61  1  0
 31 62  1  0
 32 63  1  0
M  CHG  1  23  -1
M  END
>  <UniqueID>  (34) 
30

>  <SMILES>  (34) 
Cc1ccc([C@]23C[C@H]4CC(C)(CC(C(=O)NCc5ccc(S([NH-])(=O)=O)cc5)(C4)C2)C3)cc1

>  <Energy>  (34) 
67.1436911794071

>  <Genealogy>  (34) 
Cc1ccc(C23CC4CC(C)(CC(C(=O)NCc5ccc(S([NH-])(=O)=O)cc5)(C4)C2)C3)cc1 (protonated)
Cc1ccc([C@]23C[C@H]4CC(C)(CC(C(=O)NCc5ccc(S([NH-])(=O)=O)cc5)(C4)C2)C3)cc1 (chirality)
Cc1ccc([C@]23C[C@H]4CC(C)(CC(C(=O)NCc5ccc(S([NH-])(=O)=O)cc5)(C4)C2)C3)cc1 (3D coordinates assigned)
Cc1ccc([C@]23C[C@H]4CC(C)(CC(C(=O)NCc5ccc(S([NH-])(=O)=O)cc5)(C4)C2)C3)cc1 (nonaromatic ring conformer: 67.1436911794071 kcal/mol)

>  <smiles>  (34) 
Cc1ccc(C23CC4CC(C)(CC(C(=O)NCc5ccc(S(N)(=O)=O)cc5)(C4)C2)C3)cc1

>  <score_type>  (34) 
oracle

>  <origin>  (34) 
adg

>  <m_score__min__energy>  (34) 
-13.08

>  <m_primary>  (34) 
energy

$$$$
34:0
     RDKit          3D

 46 48  0  0  0  0  0  0  0  0999 V2000
   60.0450   28.2890   49.1700 C   0  0  0  0  0  0  0  0  0  0  0  0
   61.2060   29.0110   49.6670 N   0  0  0  0  0  0  0  0  0  0  0  0
   61.2380   30.4380   49.7900 C   0  0  0  0  0  0  0  0  0  0  0  0
   61.8370   30.9660   50.7670 O   0  0  0  0  0  0  0  0  0  0  0  0
   60.5730   31.2900   48.7760 C   0  0  0  0  0  0  0  0  0  0  0  0
   61.2980   31.8080   47.6880 C   0  0  0  0  0  0  0  0  0  0  0  0
   60.6660   32.6120   46.7340 C   0  0  0  0  0  0  0  0  0  0  0  0
   59.3050   32.9140   46.8540 C   0  0  0  0  0  0  0  0  0  0  0  0
   58.5090   33.9120   45.6420 S   0  0  0  0  0  0  0  0  0  0  0  0
   57.1130   34.2370   46.0970 O   0  0  0  0  0  0  0  0  0  0  0  0
   59.2810   35.1890   45.4590 O   0  0  0  0  0  0  0  0  0  0  0  0
   58.4530   33.0370   44.1480 N   0  0  0  0  0  0  0  0  0  0  0  0
   57.7830   31.7850   43.9470 C   0  0  0  0  0  0  0  0  0  0  0  0
   57.1370   31.4680   42.7390 C   0  0  0  0  0  0  0  0  0  0  0  0
   56.4940   30.2370   42.5890 C   0  0  0  0  0  0  0  0  0  0  0  0
   56.4920   29.3120   43.6350 C   0  0  0  0  0  0  0  0  0  0  0  0
   57.1440   29.6130   44.8460 C   0  0  0  0  0  0  0  0  0  0  0  0
   57.1720   28.7140   45.9250 O   0  0  0  0  0  0  0  0  0  0  0  0
   58.1160   27.6930   46.0750 C   0  0  0  0  0  0  0  0  0  0  0  0
   59.4670   28.0070   45.8810 C   0  0  0  0  0  0  0  0  0  0  0  0
   60.4550   27.0410   46.0780 C   0  0  0  0  0  0  0  0  0  0  0  0
   60.0990   25.7480   46.4640 C   0  0  0  0  0  0  0  0  0  0  0  0
   58.7540   25.4120   46.6330 C   0  0  0  0  0  0  0  0  0  0  0  0
   57.7430   26.3700   46.4220 C   0  0  0  0  0  0  0  0  0  0  0  0
   56.3240   25.9550   46.5330 C   0  0  0  0  0  0  0  0  0  0  0  0
   55.2850   26.7470   45.9620 N   0  0  0  0  0  0  0  0  0  0  0  0
   56.0260   24.8710   47.1060 O   0  0  0  0  0  0  0  0  0  0  0  0
   57.7770   30.8530   44.9930 C   0  0  0  0  0  0  0  0  0  0  0  0
   58.5750   32.3950   47.9300 C   0  0  0  0  0  0  0  0  0  0  0  0
   59.2020   31.5920   48.8850 C   0  0  0  0  0  0  0  0  0  0  0  0
   59.4515   27.9199   50.0194 H   0  0  0  0  0  0  0  0  0  0  0  0
   59.4285   28.9633   48.5574 H   0  0  0  0  0  0  0  0  0  0  0  0
   60.3771   27.4379   48.5574 H   0  0  0  0  0  0  0  0  0  0  0  0
   62.3692   31.5793   47.5867 H   0  0  0  0  0  0  0  0  0  0  0  0
   61.2418   33.0090   45.8850 H   0  0  0  0  0  0  0  0  0  0  0  0
   57.1380   32.1911   41.9101 H   0  0  0  0  0  0  0  0  0  0  0  0
   55.9872   29.9954   41.6431 H   0  0  0  0  0  0  0  0  0  0  0  0
   55.9800   28.3462   43.5126 H   0  0  0  0  0  0  0  0  0  0  0  0
   59.7518   29.0232   45.5708 H   0  0  0  0  0  0  0  0  0  0  0  0
   61.5139   27.2988   45.9290 H   0  0  0  0  0  0  0  0  0  0  0  0
   60.8794   24.9919   46.6355 H   0  0  0  0  0  0  0  0  0  0  0  0
   58.4815   24.3896   46.9337 H   0  0  0  0  0  0  0  0  0  0  0  0
   55.4860   27.4250   45.1940 H   0  0  0  0  0  0  0  0  0  0  0  0
   58.2761   31.0987   45.9420 H   0  0  0  0  0  0  0  0  0  0  0  0
   57.5025   32.6208   48.0236 H   0  0  0  0  0  0  0  0  0  0  0  0
   58.6205   31.1923   49.7288 H   0  0  0  0  0  0  0  0  0  0  0  0
  1  2  1  0
  2  3  1  0
  3  4  2  0
  3  5  1  0
  5  6  2  0
  6  7  1  0
  7  8  2  0
  8  9  1  0
  9 10  2  0
  9 11  2  0
  9 12  1  0
 12 13  1  0
 13 14  2  0
 14 15  1  0
 15 16  2  0
 16 17  1  0
 17 18  1  0
 18 19  1  0
 19 20  2  0
 20 21  1  0
 21 22  2  0
 22 23  1  0
 23 24  2  0
 24 25  1  0
 25 26  1  0
 25 27  2  0
 17 28  2  0
  8 29  1  0
 29 30  2  0
 30  5  1  0
 28 13  1  0
 24 19  1  0
  1 31  1  0
  1 32  1  0
  1 33  1  0
  6 34  1  0
  7 35  1  0
 14 36  1  0
 15 37  1  0
 16 38  1  0
 20 39  1  0
 21 40  1  0
 22 41  1  0
 23 42  1  0
 26 43  1  0
 28 44  1  0
 29 45  1  0
 30 46  1  0
M  CHG  3   2  -1  12  -1  26  -1
M  END
>  <UniqueID>  (35) 
31

>  <SMILES>  (35) 
C[N-]C(=O)c1ccc(S(=O)(=O)[N-]c2cccc(Oc3ccccc3C([NH-])=O)c2)cc1

>  <Energy>  (35) 
62.00685952676182

>  <Genealogy>  (35) 
C[N-]C(=O)c1ccc(S(=O)(=O)[N-]c2cccc(Oc3ccccc3C([NH-])=O)c2)cc1 (protonated)
C[N-]C(=O)c1ccc(S(=O)(=O)[N-]c2cccc(Oc3ccccc3C([NH-])=O)c2)cc1 (3D coordinates assigned)
C[N-]C(=O)c1ccc(S(=O)(=O)[N-]c2cccc(Oc3ccccc3C([NH-])=O)c2)cc1 (optimized conformer: 62.00685952676182 kcal/mol)

>  <smiles>  (35) 
CNC(=O)c1ccc(S(=O)(=O)Nc2cccc(Oc3ccccc3C(N)=O)c2)cc1

>  <score_type>  (35) 
oracle

>  <origin>  (35) 
adg

>  <m_score__min__energy>  (35) 
-13.77

>  <m_primary>  (35) 
energy

$$$$
35:0
     RDKit          3D

 55 57  0  0  0  0  0  0  0  0999 V2000
   57.4050   26.9850   44.9300 C   0  0  0  0  0  0  0  0  0  0  0  0
   58.2620   27.6190   45.9920 C   0  0  0  0  0  0  0  0  0  0  0  0
   59.3840   26.9180   46.4630 C   0  0  0  0  0  0  0  0  0  0  0  0
   60.2250   27.4830   47.4310 C   0  0  0  0  0  0  0  0  0  0  0  0
   61.3310   26.7720   47.8970 O   0  0  0  0  0  0  0  0  0  0  0  0
   59.9510   28.7650   47.9330 C   0  0  0  0  0  0  0  0  0  0  0  0
   60.7990   29.3390   48.9940 C   0  0  0  0  0  0  0  0  0  0  0  0
   61.0750   28.6230   49.9940 O   0  0  0  0  0  0  0  0  0  0  0  0
   61.3430   30.6730   48.8870 N   0  0  0  0  0  0  0  0  0  0  0  0
   60.7720   31.6450   47.9450 C   0  0  0  0  0  0  0  0  0  0  0  0
   61.3920   33.0370   48.1410 C   0  0  0  0  0  0  0  0  0  0  0  0
   62.8760   33.0060   48.1280 N   0  0  0  0  0  0  0  0  0  0  0  0
   63.4020   33.1170   46.7560 C   0  0  0  0  0  0  0  0  0  0  0  0
   63.4870   31.8550   48.8450 C   0  0  0  0  0  0  0  0  0  0  0  0
   62.4900   31.0740   49.7110 C   0  0  0  0  0  0  0  0  0  0  0  0
   58.8340   29.4710   47.4620 C   0  0  0  0  0  0  0  0  0  0  0  0
   58.0040   28.9160   46.4810 C   0  0  0  0  0  0  0  0  0  0  0  0
   56.9020   29.6820   45.9910 N   0  0  0  0  0  0  0  0  0  0  0  0
   56.9350   30.3590   44.4000 S   0  0  0  0  0  0  0  0  0  0  0  0
   57.6270   29.4160   43.4590 O   0  0  0  0  0  0  0  0  0  0  0  0
   55.5250   30.5600   43.9180 O   0  0  0  0  0  0  0  0  0  0  0  0
   57.7710   31.9120   44.4270 C   0  0  0  0  0  0  0  0  0  0  0  0
   58.2160   32.6490   43.3410 C   0  0  0  0  0  0  0  0  0  0  0  0
   58.1110   32.2780   41.8990 C   0  0  0  0  0  0  0  0  0  0  0  0
   58.7520   33.8080   43.7730 N   0  0  0  0  0  0  0  0  0  0  0  0
   58.6760   33.8190   45.0970 N   0  0  0  0  0  0  0  0  0  0  0  0
   59.1770   34.9160   45.9210 C   0  0  0  0  0  0  0  0  0  0  0  0
   58.1060   32.6740   45.5330 C   0  0  0  0  0  0  0  0  0  0  0  0
   57.8200   32.3370   46.9690 C   0  0  0  0  0  0  0  0  0  0  0  0
   56.6077   26.3952   45.4059 H   0  0  0  0  0  0  0  0  0  0  0  0
   56.9562   27.7702   44.3039 H   0  0  0  0  0  0  0  0  0  0  0  0
   58.0245   26.3261   44.3039 H   0  0  0  0  0  0  0  0  0  0  0  0
   59.6049   25.9154   46.0681 H   0  0  0  0  0  0  0  0  0  0  0  0
   61.6680   26.8780   48.8480 H   0  0  0  0  0  0  0  0  0  0  0  0
   60.9678   31.3063   46.9169 H   0  0  0  0  0  0  0  0  0  0  0  0
   59.6900   31.7159   48.1299 H   0  0  0  0  0  0  0  0  0  0  0  0
   61.0459   33.6946   47.3299 H   0  0  0  0  0  0  0  0  0  0  0  0
   61.0744   33.4083   49.1265 H   0  0  0  0  0  0  0  0  0  0  0  0
   64.4777   33.3440   46.7930 H   0  0  0  0  0  0  0  0  0  0  0  0
   63.2459   32.1661   46.2254 H   0  0  0  0  0  0  0  0  0  0  0  0
   62.8750   33.9237   46.2254 H   0  0  0  0  0  0  0  0  0  0  0  0
   63.9139   31.1676   48.0999 H   0  0  0  0  0  0  0  0  0  0  0  0
   64.2516   32.2644   49.5215 H   0  0  0  0  0  0  0  0  0  0  0  0
   62.9806   30.1780   50.1191 H   0  0  0  0  0  0  0  0  0  0  0  0
   62.1446   31.7094   50.5398 H   0  0  0  0  0  0  0  0  0  0  0  0
   58.6086   30.4687   47.8668 H   0  0  0  0  0  0  0  0  0  0  0  0
   57.8124   31.2228   41.8127 H   0  0  0  0  0  0  0  0  0  0  0  0
   57.3574   32.9135   41.4108 H   0  0  0  0  0  0  0  0  0  0  0  0
   59.0858   32.4243   41.4108 H   0  0  0  0  0  0  0  0  0  0  0  0
   59.0597   34.6592   46.9842 H   0  0  0  0  0  0  0  0  0  0  0  0
   60.2413   35.0844   45.6997 H   0  0  0  0  0  0  0  0  0  0  0  0
   58.6073   35.8306   45.6997 H   0  0  0  0  0  0  0  0  0  0  0  0
   58.3916   33.0105   47.6245 H   0  0  0  0  0  0  0  0  0  0  0  0
   56.7447   32.4580   47.1669 H   0  0  0  0  0  0  0  0  0  0  0  0
   58.1143   31.2957   47.1669 H   0  0  0  0  0  0  0  0  0  0  0  0
  1  2  1  0
  2  3  2  0
  3  4  1  0
  4  5  1  0
  4  6  2  0
  6  7  1  0
  7  8  2  0
  7  9  1  0
  9 10  1  0
 10 11  1  0
 11 12  1  0
 12 13  1  0
 12 14  1  0
 14 15  1  0
  6 16  1  0
 16 17  2  0
 17 18  1  0
 18 19  1  0
 19 20  2  0
 19 21  2  0
 19 22  1  0
 22 23  1  0
 23 24  1  0
 23 25  2  0
 25 26  1  0
 26 27  1  0
 26 28  1  0
 28 29  1  0
 17  2  1  0
 28 22  2  0
 15  9  1  0
  1 30  1  0
  1 31  1  0
  1 32  1  0
  3 33  1  0
  5 34  1  0
 10 35  1  0
 10 36  1  0
 11 37  1  0
 11 38  1  0
 13 39  1  0
 13 40  1  0
 13 41  1  0
 14 42  1  0
 14 43  1  0
 15 44  1  0
 15 45  1  0
 16 46  1  0
 24 47  1  0
 24 48  1  0
 24 49  1  0
 27 50  1  0
 27 51  1  0
 27 52  1  0
 29 53  1  0
 29 54  1  0
 29 55  1  0
M  CHG  1  18  -1
M  END
>  <UniqueID>  (36) 
32

>  <SMILES>  (36) 
Cc1cc(O)c(C(=O)N2CCN(C)CC2)cc1[N-]S(=O)(=O)c1c(C)nn(C)c1C

>  <Energy>  (36) 
102.98414421716502

>  <Genealogy>  (36) 
Cc1cc(O)c(C(=O)N2CCN(C)CC2)cc1[N-]S(=O)(=O)c1c(C)nn(C)c1C (protonated)
Cc1cc(O)c(C(=O)N2CCN(C)CC2)cc1[N-]S(=O)(=O)c1c(C)nn(C)c1C (3D coordinates assigned)
Cc1cc(O)c(C(=O)N2CCN(C)CC2)cc1[N-]S(=O)(=O)c1c(C)nn(C)c1C (nonaromatic ring conformer: 102.98414421716502 kcal/mol)

>  <smiles>  (36) 
Cc1cc(O)c(C(=O)N2CCN(C)CC2)cc1NS(=O)(=O)c1c(C)nn(C)c1C

>  <score_type>  (36) 
oracle

>  <origin>  (36) 
adg

>  <m_score__min__energy>  (36) 
-9.6699999999999999

>  <m_primary>  (36) 
energy

$$$$
36:0
     RDKit          3D

 59 62  0  0  0  0  0  0  0  0999 V2000
   54.8740   26.3400   45.9990 N   0  0  0  0  0  0  0  0  0  0  0  0
   56.5200   25.9110   46.3160 S   0  0  0  0  0  0  0  0  0  0  0  0
   56.5590   24.9810   47.4950 O   0  0  0  0  0  0  0  0  0  0  0  0
   57.1040   25.2090   45.1220 O   0  0  0  0  0  0  0  0  0  0  0  0
   57.4340   27.3110   46.6880 O   0  0  0  0  0  0  0  0  0  0  0  0
   57.4740   28.4820   45.9170 C   0  0  0  0  0  0  0  0  0  0  0  0
   56.6350   28.6960   44.8060 C   0  0  0  0  0  0  0  0  0  0  0  0
   56.7220   29.8830   44.0730 C   0  0  0  0  0  0  0  0  0  0  0  0
   57.6360   30.8750   44.4480 C   0  0  0  0  0  0  0  0  0  0  0  0
   58.4780   30.6690   45.5490 C   0  0  0  0  0  0  0  0  0  0  0  0
   58.3990   29.4710   46.2730 C   0  0  0  0  0  0  0  0  0  0  0  0
   59.4670   31.7450   45.9040 C   0  0  0  0  0  0  0  0  0  0  0  0
   58.8410   33.0730   45.7500 N   0  0  0  0  0  0  0  0  0  0  0  0
   58.9870   34.0670   46.7930 C   0  0  0  0  0  0  0  0  0  0  0  0
   58.9220   35.2940   46.5120 O   0  0  0  0  0  0  0  0  0  0  0  0
   59.2670   33.6900   48.1920 C   0  0  0  0  0  0  0  0  0  0  0  0
   60.3120   34.3170   48.8860 C   0  0  0  0  0  0  0  0  0  0  0  0
   60.6100   33.9440   50.1990 C   0  0  0  0  0  0  0  0  0  0  0  0
   59.8570   32.9470   50.8400 C   0  0  0  0  0  0  0  0  0  0  0  0
   60.2370   32.4660   52.2140 C   0  0  0  0  0  0  0  0  0  0  0  0
   61.5960   31.9310   52.1960 N   0  0  0  0  0  0  0  0  0  0  0  0
   62.7530   32.7730   52.2240 C   0  0  0  0  0  0  0  0  0  0  0  0
   62.6380   34.0030   52.4790 O   0  0  0  0  0  0  0  0  0  0  0  0
   64.0090   32.2200   51.9560 O   0  0  0  0  0  0  0  0  0  0  0  0
   64.2470   31.3040   50.8890 C   0  0  0  0  0  0  0  0  0  0  0  0
   63.7340   31.8720   49.5930 C   0  0  0  0  0  0  0  0  0  0  0  0
   62.6650   31.2490   48.9290 C   0  0  0  0  0  0  0  0  0  0  0  0
   62.1680   31.7850   47.7370 C   0  0  0  0  0  0  0  0  0  0  0  0
   62.7280   32.9500   47.2040 C   0  0  0  0  0  0  0  0  0  0  0  0
   63.7830   33.5830   47.8660 C   0  0  0  0  0  0  0  0  0  0  0  0
   64.2870   33.0490   49.0570 C   0  0  0  0  0  0  0  0  0  0  0  0
   58.7910   32.3430   50.1560 C   0  0  0  0  0  0  0  0  0  0  0  0
   58.4900   32.7210   48.8440 C   0  0  0  0  0  0  0  0  0  0  0  0
   57.9620   33.3510   44.5910 C   0  0  0  0  0  0  0  0  0  0  0  0
   57.7910   32.1410   43.6560 C   0  0  0  0  0  0  0  0  0  0  0  0
   54.6090   27.1000   46.6620 H   0  0  0  0  0  0  0  0  0  0  0  0
   55.9073   27.9247   44.5136 H   0  0  0  0  0  0  0  0  0  0  0  0
   56.0711   30.0380   43.1999 H   0  0  0  0  0  0  0  0  0  0  0  0
   59.0701   29.3065   47.1289 H   0  0  0  0  0  0  0  0  0  0  0  0
   59.7909   31.6131   46.9469 H   0  0  0  0  0  0  0  0  0  0  0  0
   60.3359   31.6741   45.2332 H   0  0  0  0  0  0  0  0  0  0  0  0
   60.8998   35.1061   48.3943 H   0  0  0  0  0  0  0  0  0  0  0  0
   61.4379   34.4334   50.7329 H   0  0  0  0  0  0  0  0  0  0  0  0
   60.1854   33.3065   52.9217 H   0  0  0  0  0  0  0  0  0  0  0  0
   59.5404   31.6738   52.5255 H   0  0  0  0  0  0  0  0  0  0  0  0
   61.7300   30.9010   52.0810 H   0  0  0  0  0  0  0  0  0  0  0  0
   65.3280   31.1197   50.8025 H   0  0  0  0  0  0  0  0  0  0  0  0
   63.7214   30.3612   51.1010 H   0  0  0  0  0  0  0  0  0  0  0  0
   62.2169   30.3360   49.3481 H   0  0  0  0  0  0  0  0  0  0  0  0
   61.3348   31.2891   47.2176 H   0  0  0  0  0  0  0  0  0  0  0  0
   62.3382   33.3679   46.2641 H   0  0  0  0  0  0  0  0  0  0  0  0
   64.2185   34.5034   47.4499 H   0  0  0  0  0  0  0  0  0  0  0  0
   65.1175   33.5507   49.5753 H   0  0  0  0  0  0  0  0  0  0  0  0
   58.1894   31.5686   50.6543 H   0  0  0  0  0  0  0  0  0  0  0  0
   57.6408   32.2568   48.3211 H   0  0  0  0  0  0  0  0  0  0  0  0
   56.9709   33.6455   44.9666 H   0  0  0  0  0  0  0  0  0  0  0  0
   58.4367   34.1521   44.0054 H   0  0  0  0  0  0  0  0  0  0  0  0
   56.8961   32.2893   43.0338 H   0  0  0  0  0  0  0  0  0  0  0  0
   58.6864   32.0543   43.0230 H   0  0  0  0  0  0  0  0  0  0  0  0
  1  2  1  0
  2  3  2  0
  2  4  2  0
  2  5  1  0
  5  6  1  0
  6  7  2  0
  7  8  1  0
  8  9  2  0
  9 10  1  0
 10 11  2  0
 10 12  1  0
 12 13  1  0
 13 14  1  0
 14 15  2  0
 14 16  1  0
 16 17  2  0
 17 18  1  0
 18 19  2  0
 19 20  1  0
 20 21  1  0
 21 22  1  0
 22 23  2  0
 22 24  1  0
 24 25  1  0
 25 26  1  0
 26 27  2  0
 27 28  1  0
 28 29  2  0
 29 30  1  0
 30 31  2  0
 19 32  1  0
 32 33  2  0
 13 34  1  0
 34 35  1  0
 11  6  1  0
 33 16  1  0
 35  9  1  0
 31 26  1  0
  1 36  1  0
  7 37  1  0
  8 38  1  0
 11 39  1  0
 12 40  1  0
 12 41  1  0
 17 42  1  0
 18 43  1  0
 20 44  1  0
 20 45  1  0
 21 46  1  0
 25 47  1  0
 25 48  1  0
 27 49  1  0
 28 50  1  0
 29 51  1  0
 30 52  1  0
 31 53  1  0
 32 54  1  0
 33 55  1  0
 34 56  1  0
 34 57  1  0
 35 58  1  0
 35 59  1  0
M  CHG  1   1  -1
M  END
>  <UniqueID>  (37) 
33

>  <SMILES>  (37) 
[NH-]S(=O)(=O)Oc1ccc2c(c1)CN(C(=O)c1ccc(CNC(=O)OCc3ccccc3)cc1)CC2

>  <Energy>  (37) 
63.105135362180356

>  <Genealogy>  (37) 
[NH-]S(=O)(=O)Oc1ccc2c(c1)CN(C(=O)c1ccc(CNC(=O)OCc3ccccc3)cc1)CC2 (protonated)
[NH-]S(=O)(=O)Oc1ccc2c(c1)CN(C(=O)c1ccc(CNC(=O)OCc3ccccc3)cc1)CC2 (3D coordinates assigned)
[NH-]S(=O)(=O)Oc1ccc2c(c1)CN(C(=O)c1ccc(CNC(=O)OCc3ccccc3)cc1)CC2 (nonaromatic ring conformer: 63.105135362180356 kcal/mol)

>  <smiles>  (37) 
NS(=O)(=O)Oc1ccc2c(c1)CN(C(=O)c1ccc(CNC(=O)OCc3ccccc3)cc1)CC2

>  <score_type>  (37) 
oracle

>  <origin>  (37) 
adg

>  <m_score__min__energy>  (37) 
-12.84

>  <m_primary>  (37) 
energy

$$$$
37:0
     RDKit          3D

 46 49  0  0  0  0  0  0  0  0999 V2000
   55.1560   27.4780   45.3910 H   0  0  0  0  0  0  0  0  0  0  0  0
   54.9820   26.7140   46.0320 O   0  0  0  0  0  0  0  0  0  0  0  0
   55.9320   25.7140   46.2150 C   0  0  0  0  0  0  0  0  0  0  0  0
   55.7530   24.6430   47.0060 N   0  0  0  0  0  0  0  0  0  0  0  0
   56.9280   23.9900   46.8870 C   0  0  0  0  0  0  0  0  0  0  0  0
   57.1700   22.9140   47.4930 O   0  0  0  0  0  0  0  0  0  0  0  0
   57.8300   24.5860   46.0770 N   0  0  0  0  0  0  0  0  0  0  0  0
   57.1740   25.6730   45.6310 C   0  0  0  0  0  0  0  0  0  0  0  0
   57.7730   26.7350   44.8040 C   0  0  0  0  0  0  0  0  0  0  0  0
   57.8022   26.5700   43.7168 H   0  0  0  0  0  0  0  0  0  0  0  0
   58.2880   27.8910   45.2660 C   0  0  0  0  0  0  0  0  0  0  0  0
   57.7830   29.1310   44.9120 C   0  0  0  0  0  0  0  0  0  0  0  0
   56.9754   29.3286   44.1917 H   0  0  0  0  0  0  0  0  0  0  0  0
   58.4870   30.0710   45.6360 C   0  0  0  0  0  0  0  0  0  0  0  0
   58.2460   31.5490   45.5720 C   0  0  0  0  0  0  0  0  0  0  0  0
   58.1799   31.9543   46.5925 H   0  0  0  0  0  0  0  0  0  0  0  0
   59.0770   32.0332   45.0383 H   0  0  0  0  0  0  0  0  0  0  0  0
   57.3042   31.7442   45.0383 H   0  0  0  0  0  0  0  0  0  0  0  0
   59.4310   29.4720   46.3950 N   0  0  0  0  0  0  0  0  0  0  0  0
   60.3670   30.1530   47.2530 C   0  0  0  0  0  0  0  0  0  0  0  0
   61.2720   31.0160   46.7180 N   0  0  0  0  0  0  0  0  0  0  0  0
   62.1630   31.6960   47.4880 C   0  0  0  0  0  0  0  0  0  0  0  0
   62.8843   32.3794   47.0162 H   0  0  0  0  0  0  0  0  0  0  0  0
   62.1670   31.5300   48.8840 C   0  0  0  0  0  0  0  0  0  0  0  0
   63.1280   32.2750   49.7370 C   0  0  0  0  0  0  0  0  0  0  0  0
   64.2900   31.7000   50.0970 C   0  0  0  0  0  0  0  0  0  0  0  0
   64.5170   30.6875   49.7318 H   0  0  0  0  0  0  0  0  0  0  0  0
   65.2910   32.3950   50.9830 C   0  0  0  0  0  0  0  0  0  0  0  0
   65.1346   32.0640   52.0203 H   0  0  0  0  0  0  0  0  0  0  0  0
   66.2969   32.1320   50.6238 H   0  0  0  0  0  0  0  0  0  0  0  0
   65.1640   33.8580   50.9300 N   0  0  0  0  0  0  0  0  0  0  0  0
   65.4540   34.1890   49.9780 H   0  0  0  0  0  0  0  0  0  0  0  0
   63.7730   34.2570   51.1710 C   0  0  0  0  0  0  0  0  0  0  0  0
   63.4440   33.8509   52.1389 H   0  0  0  0  0  0  0  0  0  0  0  0
   63.7178   35.3556   51.1775 H   0  0  0  0  0  0  0  0  0  0  0  0
   62.8540   33.7260   50.0650 C   0  0  0  0  0  0  0  0  0  0  0  0
   61.8096   33.8224   50.3965 H   0  0  0  0  0  0  0  0  0  0  0  0
   63.0441   34.3175   49.1572 H   0  0  0  0  0  0  0  0  0  0  0  0
   61.2300   30.6530   49.4520 C   0  0  0  0  0  0  0  0  0  0  0  0
   61.2070   30.5069   50.5420 H   0  0  0  0  0  0  0  0  0  0  0  0
   60.3280   29.9660   48.6400 C   0  0  0  0  0  0  0  0  0  0  0  0
   59.5910   29.2820   49.0861 H   0  0  0  0  0  0  0  0  0  0  0  0
   59.3520   28.1370   46.1490 C   0  0  0  0  0  0  0  0  0  0  0  0
   60.2850   27.2570   46.5460 C   0  0  0  0  0  0  0  0  0  0  0  0
   61.0739   27.5700   47.2457 H   0  0  0  0  0  0  0  0  0  0  0  0
   60.2605   26.2230   46.1716 H   0  0  0  0  0  0  0  0  0  0  0  0
  1  2  1  0
  2  3  1  0
  3  4  1  0
  4  5  1  0
  5  6  2  0
  5  7  1  0
  7  8  1  0
  8  9  1  0
  9 10  1  0
  9 11  2  0
 11 12  1  0
 12 13  1  0
 12 14  2  0
 14 15  1  0
 15 16  1  0
 15 17  1  0
 15 18  1  0
 14 19  1  0
 19 20  1  0
 20 21  2  0
 21 22  1  0
 22 23  1  0
 22 24  2  0
 24 25  1  0
 25 26  2  0
 26 27  1  0
 26 28  1  0
 28 29  1  0
 28 30  1  0
 28 31  1  0
 31 32  1  0
 31 33  1  0
 33 34  1  0
 33 35  1  0
 33 36  1  0
 36 37  1  0
 36 38  1  0
 24 39  1  0
 39 40  1  0
 39 41  2  0
 41 42  1  0
 19 43  1  0
 43 44  2  0
 44 45  1  0
 44 46  1  0
  8  3  2  0
 43 11  1  0
 41 20  1  0
 36 25  1  0
M  CHG  2   4  -1   7  -1
M  END
>  <UniqueID>  (38) 
34

>  <SMILES>  (38) 
C=c1/c(=C\c2[n-]c(=O)[n-]c2O)cc(C)n1-c1ccc(C2=CCNCC2)cn1

>  <Energy>  (38) 
129.69476262746596

>  <Genealogy>  (38) 
C=c1c(=Cc2[n-]c(=O)[n-]c2O)cc(C)n1-c1ccc(C2=CCNCC2)cn1 (protonated)
C=c1/c(=C\c2[n-]c(=O)[n-]c2O)cc(C)n1-c1ccc(C2=CCNCC2)cn1 (cis-trans isomerization)
C=c1/c(=C\c2[n-]c(=O)[n-]c2O)cc(C)n1-c1ccc(C2=CCNCC2)cn1 (3D coordinates assigned)
C=c1/c(=C\c2[n-]c(=O)[n-]c2O)cc(C)n1-c1ccc(C2=CCNCC2)cn1 (nonaromatic ring conformer: 129.69476262746596 kcal/mol)

>  <smiles>  (38) 
C=c1c(=Cc2[nH]c(=O)[nH]c2O)cc(C)n1-c1ccc(C2=CCNCC2)cn1

>  <score_type>  (38) 
oracle

>  <origin>  (38) 
adg

>  <m_score__min__energy>  (38) 
-12.25

>  <m_primary>  (38) 
energy

$$$$
38:0
     RDKit          3D

 39 41  0  0  0  0  0  0  0  0999 V2000
   52.3665   29.6495   56.2484 H   0  0  0  0  0  0  0  0  0  0  0  0
   52.1110   30.2290   55.3490 C   0  0  0  0  0  0  0  0  0  0  0  0
   51.5500   31.1706   55.4423 H   0  0  0  0  0  0  0  0  0  0  0  0
   52.4830   29.7880   54.1400 C   0  0  0  0  0  0  0  0  0  0  0  0
   53.2090   28.4920   54.0280 C   0  0  0  0  0  0  0  0  0  0  0  0
   54.5850   28.4210   53.6900 C   0  0  0  0  0  0  0  0  0  0  0  0
   55.4120   29.6410   53.5420 C   0  0  0  0  0  0  0  0  0  0  0  0
   55.9589   30.0201   54.4179 H   0  0  0  0  0  0  0  0  0  0  0  0
   55.5180   30.2990   52.3810 C   0  0  0  0  0  0  0  0  0  0  0  0
   54.6576   30.2916   51.6957 H   0  0  0  0  0  0  0  0  0  0  0  0
   56.7370   31.0370   51.9730 C   0  0  0  0  0  0  0  0  0  0  0  0
   56.8870   32.3740   52.3800 C   0  0  0  0  0  0  0  0  0  0  0  0
   56.0991   32.8543   52.9788 H   0  0  0  0  0  0  0  0  0  0  0  0
   58.0310   33.0980   52.0290 C   0  0  0  0  0  0  0  0  0  0  0  0
   58.1348   34.1470   52.3432 H   0  0  0  0  0  0  0  0  0  0  0  0
   59.0420   32.4910   51.2800 C   0  0  0  0  0  0  0  0  0  0  0  0
   59.9388   33.0634   51.0007 H   0  0  0  0  0  0  0  0  0  0  0  0
   58.9140   31.1580   50.8860 C   0  0  0  0  0  0  0  0  0  0  0  0
   59.7138   30.6793   50.3018 H   0  0  0  0  0  0  0  0  0  0  0  0
   57.7720   30.4300   51.2320 C   0  0  0  0  0  0  0  0  0  0  0  0
   57.6801   29.3778   50.9246 H   0  0  0  0  0  0  0  0  0  0  0  0
   55.1700   27.1990   53.5290 N   0  0  0  0  0  0  0  0  0  0  0  0
   54.4870   26.0370   53.6910 C   0  0  0  0  0  0  0  0  0  0  0  0
   54.9990   25.0739   53.5490 H   0  0  0  0  0  0  0  0  0  0  0  0
   53.1380   26.0640   54.0370 C   0  0  0  0  0  0  0  0  0  0  0  0
   52.5814   25.1255   54.1762 H   0  0  0  0  0  0  0  0  0  0  0  0
   52.5010   27.2910   54.2050 C   0  0  0  0  0  0  0  0  0  0  0  0
   51.4359   27.3203   54.4782 H   0  0  0  0  0  0  0  0  0  0  0  0
   52.1440   30.5620   52.9140 C   0  0  0  0  0  0  0  0  0  0  0  0
   52.3470   30.0180   51.6310 C   0  0  0  0  0  0  0  0  0  0  0  0
   52.8022   29.0221   51.5257 H   0  0  0  0  0  0  0  0  0  0  0  0
   51.9740   30.7350   50.4900 C   0  0  0  0  0  0  0  0  0  0  0  0
   52.1383   30.3020   49.4923 H   0  0  0  0  0  0  0  0  0  0  0  0
   51.3940   31.9980   50.6130 C   0  0  0  0  0  0  0  0  0  0  0  0
   51.0220   32.7030   49.4730 O   0  0  0  0  0  0  0  0  0  0  0  0
   51.1840   32.5510   51.8810 C   0  0  0  0  0  0  0  0  0  0  0  0
   50.6050   33.8070   52.0090 O   0  0  0  0  0  0  0  0  0  0  0  0
   51.5570   31.8370   53.0250 C   0  0  0  0  0  0  0  0  0  0  0  0
   51.3902   32.2756   54.0199 H   0  0  0  0  0  0  0  0  0  0  0  0
  1  2  1  0
  2  3  1  0
  2  4  2  0
  4  5  1  0
  5  6  1  0
  6  7  1  0
  7  8  1  0
  7  9  2  0
  9 10  1  0
  9 11  1  0
 11 12  2  0
 12 13  1  0
 12 14  1  0
 14 15  1  0
 14 16  2  0
 16 17  1  0
 16 18  1  0
 18 19  1  0
 18 20  2  0
 20 21  1  0
  6 22  2  0
 22 23  1  0
 23 24  1  0
 23 25  2  0
 25 26  1  0
 25 27  1  0
 27 28  1  0
  4 29  1  0
 29 30  2  0
 30 31  1  0
 30 32  1  0
 32 33  1  0
 32 34  2  0
 34 35  1  0
 34 36  1  0
 36 37  1  0
 36 38  2  0
 38 39  1  0
 27  5  2  0
 38 29  1  0
 20 11  1  0
M  CHG  2  35  -1  37  -1
M  END
>  <UniqueID>  (39) 
35

>  <SMILES>  (39) 
C=C(c1ccc([O-])c([O-])c1)c1cccnc1/C=C/c1ccccc1

>  <Energy>  (39) 
54.95204002902568

>  <Genealogy>  (39) 
C=C(c1ccc([O-])c([O-])c1)c1cccnc1C=Cc1ccccc1 (protonated)
C=C(c1ccc([O-])c([O-])c1)c1cccnc1/C=C/c1ccccc1 (cis-trans isomerization)
C=C(c1ccc([O-])c([O-])c1)c1cccnc1/C=C/c1ccccc1 (3D coordinates assigned)
C=C(c1ccc([O-])c([O-])c1)c1cccnc1/C=C/c1ccccc1 (optimized conformer: 54.95204002902568 kcal/mol)

>  <smiles>  (39) 
C=C(c1ccc(O)c(O)c1)c1cccnc1C=Cc1ccccc1

>  <score_type>  (39) 
oracle

>  <origin>  (39) 
adg

>  <m_score__min__energy>  (39) 
-15.42

>  <m_primary>  (39) 
energy

$$$$
39:0
     RDKit          3D

 55 58  0  0  0  0  0  0  0  0999 V2000
   56.6240   21.2620   47.9910 C   0  0  0  0  0  0  0  0  0  0  0  0
   57.3720   22.1180   47.1330 O   0  0  0  0  0  0  0  0  0  0  0  0
   57.1150   22.2980   45.7640 C   0  0  0  0  0  0  0  0  0  0  0  0
   57.3590   21.2780   44.8220 C   0  0  0  0  0  0  0  0  0  0  0  0
   57.0930   21.4920   43.4660 C   0  0  0  0  0  0  0  0  0  0  0  0
   56.5830   22.7180   43.0360 C   0  0  0  0  0  0  0  0  0  0  0  0
   56.3350   23.7350   43.9590 C   0  0  0  0  0  0  0  0  0  0  0  0
   56.5990   23.5340   45.3230 C   0  0  0  0  0  0  0  0  0  0  0  0
   56.2720   24.8250   46.4820 S   0  0  0  0  0  0  0  0  0  0  0  0
   55.1300   25.6650   45.9790 O   0  0  0  0  0  0  0  0  0  0  0  0
   55.8960   24.2440   47.8170 O   0  0  0  0  0  0  0  0  0  0  0  0
   57.7380   25.8260   46.6750 C   0  0  0  0  0  0  0  0  0  0  0  0
   57.6920   27.0120   45.7650 C   0  0  0  0  0  0  0  0  0  0  0  0
   58.6490   27.3510   44.8280 C   0  0  0  0  0  0  0  0  0  0  0  0
   58.1760   28.4850   44.2020 C   0  0  0  0  0  0  0  0  0  0  0  0
   56.9610   28.7670   44.8010 C   0  0  0  0  0  0  0  0  0  0  0  0
   56.0440   29.8710   44.4600 C   0  0  0  0  0  0  0  0  0  0  0  0
   54.8900   29.5950   44.0380 O   0  0  0  0  0  0  0  0  0  0  0  0
   56.4490   31.2450   44.5230 N   0  0  0  0  0  0  0  0  0  0  0  0
   57.5840   31.7540   45.2380 C   0  0  0  0  0  0  0  0  0  0  0  0
   58.0900   33.0110   44.8980 C   0  0  0  0  0  0  0  0  0  0  0  0
   59.1760   33.5500   45.5960 C   0  0  0  0  0  0  0  0  0  0  0  0
   59.7570   32.8490   46.6620 C   0  0  0  0  0  0  0  0  0  0  0  0
   60.8640   33.4180   47.3910 N   0  0  0  0  0  0  0  0  0  0  0  0
   60.6210   34.2460   48.5770 C   0  0  0  0  0  0  0  0  0  0  0  0
   61.8430   34.2010   49.5000 C   0  0  0  0  0  0  0  0  0  0  0  0
   63.0210   34.5290   48.7890 O   0  0  0  0  0  0  0  0  0  0  0  0
   63.2790   33.5430   47.8080 C   0  0  0  0  0  0  0  0  0  0  0  0
   62.1770   33.5330   46.7440 C   0  0  0  0  0  0  0  0  0  0  0  0
   59.2410   31.5880   47.0100 C   0  0  0  0  0  0  0  0  0  0  0  0
   58.1590   31.0470   46.3080 C   0  0  0  0  0  0  0  0  0  0  0  0
   56.6990   27.8680   45.7220 O   0  0  0  0  0  0  0  0  0  0  0  0
   56.8425   21.5121   49.0397 H   0  0  0  0  0  0  0  0  0  0  0  0
   55.5496   21.3974   47.7980 H   0  0  0  0  0  0  0  0  0  0  0  0
   56.9022   20.2154   47.7980 H   0  0  0  0  0  0  0  0  0  0  0  0
   57.7604   20.3095   45.1551 H   0  0  0  0  0  0  0  0  0  0  0  0
   57.2862   20.6920   42.7362 H   0  0  0  0  0  0  0  0  0  0  0  0
   56.3763   22.8829   41.9683 H   0  0  0  0  0  0  0  0  0  0  0  0
   55.9307   24.6988   43.6160 H   0  0  0  0  0  0  0  0  0  0  0  0
   57.8039   26.1726   47.7169 H   0  0  0  0  0  0  0  0  0  0  0  0
   58.6179   25.2176   46.4187 H   0  0  0  0  0  0  0  0  0  0  0  0
   59.5932   26.8250   44.6236 H   0  0  0  0  0  0  0  0  0  0  0  0
   58.6639   29.0490   43.3934 H   0  0  0  0  0  0  0  0  0  0  0  0
   57.6316   33.5806   44.0762 H   0  0  0  0  0  0  0  0  0  0  0  0
   59.5774   34.5322   45.3059 H   0  0  0  0  0  0  0  0  0  0  0  0
   60.4364   35.2848   48.2657 H   0  0  0  0  0  0  0  0  0  0  0  0
   59.7437   33.8595   49.1165 H   0  0  0  0  0  0  0  0  0  0  0  0
   61.7033   34.9220   50.3189 H   0  0  0  0  0  0  0  0  0  0  0  0
   61.9451   33.1818   49.9010 H   0  0  0  0  0  0  0  0  0  0  0  0
   64.2440   33.7579   47.3257 H   0  0  0  0  0  0  0  0  0  0  0  0
   63.3062   32.5579   48.2968 H   0  0  0  0  0  0  0  0  0  0  0  0
   62.2188   34.4678   46.1657 H   0  0  0  0  0  0  0  0  0  0  0  0
   62.3278   32.6753   46.0720 H   0  0  0  0  0  0  0  0  0  0  0  0
   59.6913   31.0234   47.8397 H   0  0  0  0  0  0  0  0  0  0  0  0
   57.7564   30.0642   46.5945 H   0  0  0  0  0  0  0  0  0  0  0  0
  1  2  1  0
  2  3  1  0
  3  4  2  0
  4  5  1  0
  5  6  2  0
  6  7  1  0
  7  8  2  0
  8  9  1  0
  9 10  2  0
  9 11  2  0
  9 12  1  0
 12 13  1  0
 13 14  2  0
 14 15  1  0
 15 16  2  0
 16 17  1  0
 17 18  2  0
 17 19  1  0
 19 20  1  0
 20 21  2  0
 21 22  1  0
 22 23  2  0
 23 24  1  0
 24 25  1  0
 25 26  1  0
 26 27  1  0
 27 28  1  0
 28 29  1  0
 23 30  1  0
 30 31  2  0
 16 32  1  0
  8  3  1  0
 32 13  1  0
 31 20  1  0
 29 24  1  0
  1 33  1  0
  1 34  1  0
  1 35  1  0
  4 36  1  0
  5 37  1  0
  6 38  1  0
  7 39  1  0
 12 40  1  0
 12 41  1  0
 14 42  1  0
 15 43  1  0
 21 44  1  0
 22 45  1  0
 25 46  1  0
 25 47  1  0
 26 48  1  0
 26 49  1  0
 28 50  1  0
 28 51  1  0
 29 52  1  0
 29 53  1  0
 30 54  1  0
 31 55  1  0
M  CHG  1  19  -1
M  END
>  <UniqueID>  (40) 
36

>  <SMILES>  (40) 
COc1ccccc1S(=O)(=O)Cc1ccc(C(=O)[N-]c2ccc(N3CCOCC3)cc2)o1

>  <Energy>  (40) 
91.19829950943988

>  <Genealogy>  (40) 
COc1ccccc1S(=O)(=O)Cc1ccc(C(=O)[N-]c2ccc(N3CCOCC3)cc2)o1 (protonated)
COc1ccccc1S(=O)(=O)Cc1ccc(C(=O)[N-]c2ccc(N3CCOCC3)cc2)o1 (3D coordinates assigned)
COc1ccccc1S(=O)(=O)Cc1ccc(C(=O)[N-]c2ccc(N3CCOCC3)cc2)o1 (nonaromatic ring conformer: 91.19829950943988 kcal/mol)

>  <smiles>  (40) 
COc1ccccc1S(=O)(=O)Cc1ccc(C(=O)Nc2ccc(N3CCOCC3)cc2)o1

>  <score_type>  (40) 
oracle

>  <origin>  (40) 
adg

>  <m_score__min__energy>  (40) 
-11.91

>  <m_primary>  (40) 
energy

$$$$
40:0
     RDKit          3D

 58 61  0  0  0  0  0  0  0  0999 V2000
   59.5560   33.2040   51.3910 C   0  0  0  0  0  0  0  0  0  0  0  0
   59.8130   33.5960   49.9720 C   0  0  0  0  0  0  0  0  0  0  0  0
   60.8780   34.2070   49.6830 O   0  0  0  0  0  0  0  0  0  0  0  0
   58.8900   33.2050   48.9450 N   0  0  0  0  0  0  0  0  0  0  0  0
   58.9460   33.6800   47.5890 C   0  0  0  0  0  0  0  0  0  0  0  0
   59.5870   34.8970   47.3110 C   0  0  0  0  0  0  0  0  0  0  0  0
   59.6620   35.3750   46.0010 C   0  0  0  0  0  0  0  0  0  0  0  0
   59.1160   34.6330   44.9510 C   0  0  0  0  0  0  0  0  0  0  0  0
   58.5030   33.3960   45.2040 C   0  0  0  0  0  0  0  0  0  0  0  0
   57.8840   32.6150   44.0790 C   0  0  0  0  0  0  0  0  0  0  0  0
   57.5320   31.2390   44.5520 C   0  0  0  0  0  0  0  0  0  0  0  0
   56.2980   30.6980   44.4540 N   0  0  0  0  0  0  0  0  0  0  0  0
   56.4680   29.4340   44.9000 C   0  0  0  0  0  0  0  0  0  0  0  0
   55.5200   28.6100   44.9890 O   0  0  0  0  0  0  0  0  0  0  0  0
   57.7430   29.1460   45.2460 N   0  0  0  0  0  0  0  0  0  0  0  0
   58.2790   27.8830   45.7670 C   0  0  0  0  0  0  0  0  0  0  0  0
   59.2300   28.0780   46.9710 C   0  0  1  0  0  0  0  0  0  0  0  0
   58.8670   29.3180   47.8270 C   0  0  0  0  0  0  0  0  0  0  0  0
   59.5130   29.3020   49.2300 C   0  0  0  0  0  0  0  0  0  0  0  0
   60.7820   28.4380   49.2720 C   0  0  1  0  0  0  0  0  0  0  0  0
   61.3830   28.4980   50.6030 N   0  0  0  0  0  0  0  0  0  0  0  0
   62.0900   29.6040   51.1840 C   0  0  0  0  0  0  0  0  0  0  0  0
   62.2450   29.6190   52.4330 O   0  0  0  0  0  0  0  0  0  0  0  0
   62.6620   30.7110   50.3900 C   0  0  0  0  0  0  0  0  0  0  0  0
   63.6170   31.6130   50.8570 C   0  0  0  0  0  0  0  0  0  0  0  0
   63.9370   32.6160   49.9350 C   0  0  0  0  0  0  0  0  0  0  0  0
   63.2200   32.5210   48.7520 C   0  0  0  0  0  0  0  0  0  0  0  0
   63.3530   33.7050   47.2640 Br  0  0  0  0  0  0  0  0  0  0  0  0
   62.1870   31.2010   48.8480 S   0  0  0  0  0  0  0  0  0  0  0  0
   60.4470   26.9700   48.9290 C   0  0  0  0  0  0  0  0  0  0  0  0
   59.3480   26.8220   47.8550 C   0  0  0  0  0  0  0  0  0  0  0  0
   58.4080   30.2930   45.0350 C   0  0  0  0  0  0  0  0  0  0  0  0
   59.7630   30.4820   45.2780 O   0  0  0  0  0  0  0  0  0  0  0  0
   58.4160   32.9250   46.5250 C   0  0  0  0  0  0  0  0  0  0  0  0
   60.0329   33.9314   52.0645 H   0  0  0  0  0  0  0  0  0  0  0  0
   58.4719   33.1885   51.5765 H   0  0  0  0  0  0  0  0  0  0  0  0
   59.9741   32.2036   51.5765 H   0  0  0  0  0  0  0  0  0  0  0  0
   58.1920   32.4650   49.1790 H   0  0  0  0  0  0  0  0  0  0  0  0
   60.0336   35.4787   48.1309 H   0  0  0  0  0  0  0  0  0  0  0  0
   60.1522   36.3381   45.7955 H   0  0  0  0  0  0  0  0  0  0  0  0
   59.1666   35.0195   43.9224 H   0  0  0  0  0  0  0  0  0  0  0  0
   56.9732   33.1277   43.7361 H   0  0  0  0  0  0  0  0  0  0  0  0
   58.6021   32.5416   43.2490 H   0  0  0  0  0  0  0  0  0  0  0  0
   57.4373   27.2501   46.0847 H   0  0  0  0  0  0  0  0  0  0  0  0
   58.8632   27.4169   44.9598 H   0  0  0  0  0  0  0  0  0  0  0  0
   60.2194   28.2591   46.5257 H   0  0  0  0  0  0  0  0  0  0  0  0
   59.2064   30.2199   47.2966 H   0  0  0  0  0  0  0  0  0  0  0  0
   57.7764   29.3072   47.9702 H   0  0  0  0  0  0  0  0  0  0  0  0
   59.7760   30.3324   49.5111 H   0  0  0  0  0  0  0  0  0  0  0  0
   58.7856   28.8698   49.9329 H   0  0  0  0  0  0  0  0  0  0  0  0
   61.4927   28.8281   48.5285 H   0  0  0  0  0  0  0  0  0  0  0  0
   64.0751   31.5430   51.8546 H   0  0  0  0  0  0  0  0  0  0  0  0
   64.6826   33.4011   50.1293 H   0  0  0  0  0  0  0  0  0  0  0  0
   61.3612   26.4815   48.5608 H   0  0  0  0  0  0  0  0  0  0  0  0
   60.0646   26.5029   49.8486 H   0  0  0  0  0  0  0  0  0  0  0  0
   59.5900   25.9599   47.2161 H   0  0  0  0  0  0  0  0  0  0  0  0
   58.3870   26.6788   48.3707 H   0  0  0  0  0  0  0  0  0  0  0  0
   57.9303   31.9594   46.7295 H   0  0  0  0  0  0  0  0  0  0  0  0
  1  2  1  0
  2  3  2  0
  2  4  1  0
  4  5  1  0
  5  6  2  0
  6  7  1  0
  7  8  2  0
  8  9  1  0
  9 10  1  0
 10 11  1  0
 11 12  1  0
 12 13  1  0
 13 14  2  0
 13 15  1  0
 15 16  1  0
 16 17  1  0
 17 18  1  0
 18 19  1  0
 19 20  1  0
 20 21  1  0
 21 22  1  0
 22 23  2  0
 22 24  1  0
 24 25  2  0
 25 26  1  0
 26 27  2  0
 27 28  1  0
 27 29  1  0
 20 30  1  0
 30 31  1  0
 15 32  1  0
 32 33  1  0
  9 34  2  0
 34  5  1  0
 32 11  2  0
 31 17  1  0
 29 24  1  0
  1 35  1  0
  1 36  1  0
  1 37  1  0
  4 38  1  0
  6 39  1  0
  7 40  1  0
  8 41  1  0
 10 42  1  0
 10 43  1  0
 16 44  1  0
 16 45  1  0
 17 46  1  6
 18 47  1  0
 18 48  1  0
 19 49  1  0
 19 50  1  0
 20 51  1  6
 25 52  1  0
 26 53  1  0
 30 54  1  0
 30 55  1  0
 31 56  1  0
 31 57  1  0
 34 58  1  0
M  CHG  3  12  -1  21  -1  33  -1
M  END
>  <UniqueID>  (41) 
37

>  <SMILES>  (41) 
CC(=O)Nc1cccc(Cc2[n-]c(=O)n(CC3CCC([N-]C(=O)c4ccc(Br)s4)CC3)c2[O-])c1

>  <Energy>  (41) 
124.24416395426543

>  <Genealogy>  (41) 
CC(=O)Nc1cccc(Cc2[n-]c(=O)n(CC3CCC([N-]C(=O)c4ccc(Br)s4)CC3)c2[O-])c1 (protonated)
CC(=O)Nc1cccc(Cc2[n-]c(=O)n(CC3CCC([N-]C(=O)c4ccc(Br)s4)CC3)c2[O-])c1 (3D coordinates assigned)
CC(=O)Nc1cccc(Cc2[n-]c(=O)n(CC3CCC([N-]C(=O)c4ccc(Br)s4)CC3)c2[O-])c1 (nonaromatic ring conformer: 124.24416395426543 kcal/mol)

>  <smiles>  (41) 
CC(=O)Nc1cccc(Cc2[nH]c(=O)n(CC3CCC(NC(=O)c4ccc(Br)s4)CC3)c2O)c1

>  <score_type>  (41) 
oracle

>  <origin>  (41) 
adg

>  <m_score__min__energy>  (41) 
-15.65

>  <m_primary>  (41) 
energy

$$$$
41:0
     RDKit          3D

 71 74  0  0  0  0  0  0  0  0999 V2000
   54.4620   27.0690   46.7130 H   0  0  0  0  0  0  0  0  0  0  0  0
   54.7930   26.3440   46.0390 N   0  0  0  0  0  0  0  0  0  0  0  0
   56.1750   26.2240   45.7090 C   0  0  0  0  0  0  0  0  0  0  0  0
   56.5770   25.1840   45.1200 O   0  0  0  0  0  0  0  0  0  0  0  0
   57.1290   27.3090   46.0490 C   0  0  0  0  0  0  0  0  0  0  0  0
   57.8260   27.2890   47.2670 C   0  0  0  0  0  0  0  0  0  0  0  0
   57.6723   26.4620   47.9758 H   0  0  0  0  0  0  0  0  0  0  0  0
   58.7200   28.3260   47.5800 C   0  0  0  0  0  0  0  0  0  0  0  0
   59.4890   28.3320   48.8510 C   0  0  0  0  0  0  0  0  0  0  0  0
   59.2570   29.3300   49.8130 C   0  0  0  0  0  0  0  0  0  0  0  0
   58.4947   30.1010   49.6273 H   0  0  0  0  0  0  0  0  0  0  0  0
   59.9680   29.3490   50.9710 N   0  0  0  0  0  0  0  0  0  0  0  0
   60.9150   28.4110   51.2530 C   0  0  0  0  0  0  0  0  0  0  0  0
   61.5900   28.4500   52.3640 N   0  0  0  0  0  0  0  0  0  0  0  0
   62.4500   29.5550   52.7950 C   0  0  0  0  0  0  0  0  0  0  0  0
   62.1937   29.8523   53.8226 H   0  0  0  0  0  0  0  0  0  0  0  0
   63.9160   29.0860   52.7480 C   0  0  0  0  0  0  0  0  0  0  0  0
   64.0585   28.2749   53.4772 H   0  0  0  0  0  0  0  0  0  0  0  0
   64.1398   28.7311   51.7312 H   0  0  0  0  0  0  0  0  0  0  0  0
   64.8680   30.2380   53.0860 C   0  0  0  0  0  0  0  0  0  0  0  0
   64.7175   30.5435   54.1320 H   0  0  0  0  0  0  0  0  0  0  0  0
   65.9080   29.9077   52.9471 H   0  0  0  0  0  0  0  0  0  0  0  0
   64.5930   31.3730   52.2010 N   0  0  0  0  0  0  0  0  0  0  0  0
   65.4890   31.6800   51.1140 C   0  0  0  0  0  0  0  0  0  0  0  0
   66.1460   30.7510   50.5720 O   0  0  0  0  0  0  0  0  0  0  0  0
   65.6020   33.0950   50.5850 C   0  0  0  0  0  0  0  0  0  0  0  0
   65.4788   33.7880   51.4303 H   0  0  0  0  0  0  0  0  0  0  0  0
   66.5890   33.1702   50.1051 H   0  0  0  0  0  0  0  0  0  0  0  0
   64.6050   33.4480   49.5500 N   0  0  0  0  0  0  0  0  0  0  0  0
   63.4420   34.1920   50.0740 C   0  0  0  0  0  0  0  0  0  0  0  0
   63.0273   33.6510   50.9374 H   0  0  0  0  0  0  0  0  0  0  0  0
   63.7732   35.1971   50.3742 H   0  0  0  0  0  0  0  0  0  0  0  0
   62.3510   34.3340   48.9960 C   0  0  0  0  0  0  0  0  0  0  0  0
   61.5851   33.5599   49.1517 H   0  0  0  0  0  0  0  0  0  0  0  0
   61.9001   35.3342   49.0751 H   0  0  0  0  0  0  0  0  0  0  0  0
   62.9090   34.1840   47.7050 O   0  0  0  0  0  0  0  0  0  0  0  0
   63.3430   32.8470   47.5160 C   0  0  0  0  0  0  0  0  0  0  0  0
   62.4581   32.2015   47.4141 H   0  0  0  0  0  0  0  0  0  0  0  0
   63.9694   32.8272   46.6120 H   0  0  0  0  0  0  0  0  0  0  0  0
   64.2030   32.3240   48.6890 C   0  0  0  0  0  0  0  0  0  0  0  0
   63.6175   31.6032   49.2785 H   0  0  0  0  0  0  0  0  0  0  0  0
   65.1020   31.8315   48.2899 H   0  0  0  0  0  0  0  0  0  0  0  0
   63.2250   31.9030   52.2220 C   0  0  0  0  0  0  0  0  0  0  0  0
   62.9987   32.2958   53.2243 H   0  0  0  0  0  0  0  0  0  0  0  0
   63.1327   32.7126   51.4831 H   0  0  0  0  0  0  0  0  0  0  0  0
   62.2400   30.7800   51.8780 C   0  0  0  0  0  0  0  0  0  0  0  0
   61.2126   31.1519   52.0052 H   0  0  0  0  0  0  0  0  0  0  0  0
   62.4133   30.4704   50.8368 H   0  0  0  0  0  0  0  0  0  0  0  0
   61.1640   27.3870   50.3360 C   0  0  0  0  0  0  0  0  0  0  0  0
   61.9179   26.6171   50.5572 H   0  0  0  0  0  0  0  0  0  0  0  0
   60.4500   27.3470   49.1370 C   0  0  0  0  0  0  0  0  0  0  0  0
   60.6403   26.5411   48.4129 H   0  0  0  0  0  0  0  0  0  0  0  0
   58.9020   29.3350   46.6860 N   0  0  0  0  0  0  0  0  0  0  0  0
   58.2480   29.3990   45.4970 C   0  0  0  0  0  0  0  0  0  0  0  0
   58.4920   30.4160   44.7160 N   0  0  0  0  0  0  0  0  0  0  0  0
   57.9020   31.7600   44.7430 C   0  0  0  0  0  0  0  0  0  0  0  0
   56.8482   31.6776   45.0477 H   0  0  0  0  0  0  0  0  0  0  0  0
   57.9965   32.1891   43.7346 H   0  0  0  0  0  0  0  0  0  0  0  0
   58.6350   32.7060   45.7320 C   0  0  0  0  0  0  0  0  0  0  0  0
   59.8390   32.1170   46.1610 O   0  0  0  0  0  0  0  0  0  0  0  0
   59.7470   31.1310   46.0850 H   0  0  0  0  0  0  0  0  0  0  0  0
   57.7590   33.0610   46.9510 C   0  0  0  0  0  0  0  0  0  0  0  0
   58.3103   32.8376   47.8763 H   0  0  0  0  0  0  0  0  0  0  0  0
   57.5083   34.1317   46.9230 H   0  0  0  0  0  0  0  0  0  0  0  0
   56.8337   32.4669   46.9230 H   0  0  0  0  0  0  0  0  0  0  0  0
   58.9930   34.0060   44.9940 C   0  0  0  0  0  0  0  0  0  0  0  0
   59.2106   34.7961   45.7277 H   0  0  0  0  0  0  0  0  0  0  0  0
   59.8782   33.8376   44.3631 H   0  0  0  0  0  0  0  0  0  0  0  0
   58.1464   34.3145   44.3631 H   0  0  0  0  0  0  0  0  0  0  0  0
   57.3470   28.3710   45.1570 C   0  0  0  0  0  0  0  0  0  0  0  0
   56.8153   28.4003   44.1945 H   0  0  0  0  0  0  0  0  0  0  0  0
  1  2  1  0
  2  3  1  0
  3  4  2  0
  3  5  1  0
  5  6  1  0
  6  7  1  0
  6  8  2  0
  8  9  1  0
  9 10  2  0
 10 11  1  0
 10 12  1  0
 12 13  1  0
 13 14  2  0
 14 15  1  0
 15 16  1  0
 15 17  1  0
 17 18  1  0
 17 19  1  0
 17 20  1  0
 20 21  1  0
 20 22  1  0
 20 23  1  0
 23 24  1  0
 24 25  2  0
 24 26  1  0
 26 27  1  0
 26 28  1  0
 26 29  1  0
 29 30  1  0
 30 31  1  0
 30 32  1  0
 30 33  1  0
 33 34  1  0
 33 35  1  0
 33 36  1  0
 36 37  1  0
 37 38  1  0
 37 39  1  0
 37 40  1  0
 40 41  1  0
 40 42  1  0
 23 43  1  0
 43 44  1  0
 43 45  1  0
 43 46  1  0
 46 47  1  0
 46 48  1  0
 13 49  1  0
 49 50  1  0
 49 51  2  0
 51 52  1  0
  8 53  1  0
 53 54  1  0
 54 55  2  3
 55 56  1  0
 56 57  1  0
 56 58  1  0
 56 59  1  0
 59 60  1  0
 60 61  1  0
 59 62  1  0
 62 63  1  0
 62 64  1  0
 62 65  1  0
 59 66  1  0
 66 67  1  0
 66 68  1  0
 66 69  1  0
 54 70  1  0
 70 71  1  0
 70  5  2  0
 51  9  1  0
 46 15  1  0
 40 29  1  0
M  CHG  3   2  -1  12  -1  53  -1
M  END
>  <UniqueID>  (42) 
38

>  <SMILES>  (42) 
CC(C)(O)CN=c1cc(C([NH-])=O)cc(-c2cc/c(=N/C3CCN(C(=O)CN4CCOCC4)CC3)[n-]c2)[n-]1

>  <Energy>  (42) 
91.37207768217024

>  <Genealogy>  (42) 
CC(C)(O)CN=c1cc(C([NH-])=O)cc(-c2ccc(=NC3CCN(C(=O)CN4CCOCC4)CC3)[n-]c2)[n-]1 (protonated)
CC(C)(O)CN=c1cc(C([NH-])=O)cc(-c2cc/c(=N/C3CCN(C(=O)CN4CCOCC4)CC3)[n-]c2)[n-]1 (cis-trans isomerization)
CC(C)(O)CN=c1cc(C([NH-])=O)cc(-c2cc/c(=N/C3CCN(C(=O)CN4CCOCC4)CC3)[n-]c2)[n-]1 (3D coordinates assigned)
CC(C)(O)CN=c1cc(C([NH-])=O)cc(-c2cc/c(=N/C3CCN(C(=O)CN4CCOCC4)CC3)[n-]c2)[n-]1 (nonaromatic ring conformer: 91.37207768217024 kcal/mol)

>  <smiles>  (42) 
CC(C)(O)CN=c1cc(C(N)=O)cc(-c2ccc(=NC3CCN(C(=O)CN4CCOCC4)CC3)[nH]c2)[nH]1

>  <score_type>  (42) 
oracle

>  <origin>  (42) 
adg

>  <m_score__min__energy>  (42) 
-14.390000000000001

>  <m_primary>  (42) 
energy

$$$$
42:0
     RDKit          3D

 40 42  0  0  0  0  0  0  0  0999 V2000
   67.7824   33.0924   50.4952 H   0  0  0  0  0  0  0  0  0  0  0  0
   66.7900   32.6180   50.5010 C   0  0  0  0  0  0  0  0  0  0  0  0
   65.8080   33.0880   49.6860 N   0  0  0  0  0  0  0  0  0  0  0  0
   64.5620   32.5340   49.6560 C   0  0  0  0  0  0  0  0  0  0  0  0
   63.5470   33.0520   48.7090 C   0  0  0  0  0  0  0  0  0  0  0  0
   62.3450   33.5280   49.1320 N   0  0  0  0  0  0  0  0  0  0  0  0
   61.5610   33.9110   48.1020 C   0  0  0  0  0  0  0  0  0  0  0  0
   60.3780   34.4020   48.2980 N   0  0  0  0  0  0  0  0  0  0  0  0
   59.3260   34.5790   47.3270 C   0  0  0  0  0  0  0  0  0  0  0  0
   58.1760   34.0810   47.4930 O   0  0  0  0  0  0  0  0  0  0  0  0
   59.6280   35.3390   46.0710 C   0  0  0  0  0  0  0  0  0  0  0  0
   58.9770   36.2244   46.0223 H   0  0  0  0  0  0  0  0  0  0  0  0
   60.6870   35.6360   46.0903 H   0  0  0  0  0  0  0  0  0  0  0  0
   59.3890   34.4720   44.8240 C   0  0  0  0  0  0  0  0  0  0  0  0
   58.9700   35.1028   44.0262 H   0  0  0  0  0  0  0  0  0  0  0  0
   60.3524   34.0379   44.5183 H   0  0  0  0  0  0  0  0  0  0  0  0
   58.4600   33.3740   45.0980 N   0  0  0  0  0  0  0  0  0  0  0  0
   58.1250   33.2720   46.0770 H   0  0  0  0  0  0  0  0  0  0  0  0
   58.1320   32.3670   44.1200 C   0  0  0  0  0  0  0  0  0  0  0  0
   58.4720   32.5450   42.9190 O   0  0  0  0  0  0  0  0  0  0  0  0
   57.4390   31.1090   44.4980 C   0  0  0  0  0  0  0  0  0  0  0  0
   56.1620   30.7860   44.0000 C   0  0  0  0  0  0  0  0  0  0  0  0
   55.6548   31.4768   43.3103 H   0  0  0  0  0  0  0  0  0  0  0  0
   55.5330   29.5940   44.3750 C   0  0  0  0  0  0  0  0  0  0  0  0
   54.5340   29.3558   43.9809 H   0  0  0  0  0  0  0  0  0  0  0  0
   56.1670   28.7020   45.2490 C   0  0  0  0  0  0  0  0  0  0  0  0
   55.5330   27.5160   45.6030 O   0  0  0  0  0  0  0  0  0  0  0  0
   57.4380   29.0050   45.7480 C   0  0  0  0  0  0  0  0  0  0  0  0
   58.2470   27.9010   46.8440 Cl  0  0  0  0  0  0  0  0  0  0  0  0
   58.0700   30.1990   45.3760 C   0  0  0  0  0  0  0  0  0  0  0  0
   59.0696   30.4309   45.7723 H   0  0  0  0  0  0  0  0  0  0  0  0
   62.3260   33.6850   46.6160 S   0  0  0  0  0  0  0  0  0  0  0  0
   63.7270   33.0620   47.3230 C   0  0  0  0  0  0  0  0  0  0  0  0
   64.6252   32.7229   46.7861 H   0  0  0  0  0  0  0  0  0  0  0  0
   64.2740   31.4490   50.5040 C   0  0  0  0  0  0  0  0  0  0  0  0
   63.2719   30.9953   50.5026 H   0  0  0  0  0  0  0  0  0  0  0  0
   65.2730   30.9510   51.3500 C   0  0  0  0  0  0  0  0  0  0  0  0
   65.0584   30.1024   52.0162 H   0  0  0  0  0  0  0  0  0  0  0  0
   66.5400   31.5330   51.3460 C   0  0  0  0  0  0  0  0  0  0  0  0
   67.3336   31.1428   52.0002 H   0  0  0  0  0  0  0  0  0  0  0  0
  1  2  1  0
  2  3  2  0
  3  4  1  0
  4  5  1  0
  5  6  1  0
  6  7  1  0
  7  8  2  0
  8  9  1  0
  9 10  2  0
  9 11  1  0
 11 12  1  0
 11 13  1  0
 11 14  1  0
 14 15  1  0
 14 16  1  0
 14 17  1  0
 17 18  1  0
 17 19  1  0
 19 20  2  0
 19 21  1  0
 21 22  2  0
 22 23  1  0
 22 24  1  0
 24 25  1  0
 24 26  2  0
 26 27  1  0
 26 28  1  0
 28 29  1  0
 28 30  2  0
 30 31  1  0
  7 32  1  0
 32 33  1  0
 33 34  1  0
  4 35  2  0
 35 36  1  0
 35 37  1  0
 37 38  1  0
 37 39  2  0
 39 40  1  0
 39  2  1  0
 33  5  2  0
 30 21  1  0
M  CHG  2   6  -1  27  -1
M  END
>  <UniqueID>  (43) 
39

>  <SMILES>  (43) 
O=C(CCNC(=O)c1ccc([O-])c(Cl)c1)/N=c1/[n-]c(-c2ccccn2)cs1

>  <Energy>  (43) 
73.29267936360839

>  <Genealogy>  (43) 
O=C(CCNC(=O)c1ccc([O-])c(Cl)c1)N=c1[n-]c(-c2ccccn2)cs1 (protonated)
O=C(CCNC(=O)c1ccc([O-])c(Cl)c1)/N=c1/[n-]c(-c2ccccn2)cs1 (cis-trans isomerization)
O=C(CCNC(=O)c1ccc([O-])c(Cl)c1)/N=c1/[n-]c(-c2ccccn2)cs1 (3D coordinates assigned)
O=C(CCNC(=O)c1ccc([O-])c(Cl)c1)/N=c1/[n-]c(-c2ccccn2)cs1 (optimized conformer: 73.29267936360839 kcal/mol)

>  <smiles>  (43) 
O=C(CCNC(=O)c1ccc(O)c(Cl)c1)N=c1[nH]c(-c2ccccn2)cs1

>  <score_type>  (43) 
oracle

>  <origin>  (43) 
adg

>  <m_score__min__energy>  (43) 
-13.35

>  <m_primary>  (43) 
energy

$$$$
43:0
     RDKit          3D

 35 37  0  0  0  0  0  0  0  0999 V2000
   52.5090   28.7060   53.2680 C   0  0  0  0  0  0  0  0  0  0  0  0
   53.7610   29.0690   52.9760 C   0  0  0  0  0  0  0  0  0  0  0  0
   54.8110   28.2440   53.1470 N   0  0  0  0  0  0  0  0  0  0  0  0
   55.9100   28.8760   52.7710 N   0  0  0  0  0  0  0  0  0  0  0  0
   55.5800   30.1110   52.3440 C   0  0  0  0  0  0  0  0  0  0  0  0
   56.6080   31.1260   52.0480 C   0  0  0  0  0  0  0  0  0  0  0  0
   56.8010   32.1950   52.9320 C   0  0  0  0  0  0  0  0  0  0  0  0
   57.7560   33.1730   52.6520 C   0  0  0  0  0  0  0  0  0  0  0  0
   58.4960   33.1140   51.4690 C   0  0  0  0  0  0  0  0  0  0  0  0
   59.4390   34.1000   51.2000 O   0  0  0  0  0  0  0  0  0  0  0  0
   58.2840   32.0770   50.5490 C   0  0  0  0  0  0  0  0  0  0  0  0
   59.0150   32.0990   49.3480 O   0  0  0  0  0  0  0  0  0  0  0  0
   58.6230   32.7500   48.1390 C   0  0  0  0  0  0  0  0  0  0  0  0
   59.3890   34.0530   47.9520 C   0  0  0  0  0  0  0  0  0  0  0  0
   57.3390   31.0760   50.8490 C   0  0  0  0  0  0  0  0  0  0  0  0
   54.1970   30.2780   52.4410 C   0  0  0  0  0  0  0  0  0  0  0  0
   53.4310   31.3330   52.0920 C   0  0  0  0  0  0  0  0  0  0  0  0
   52.3920   31.3070   51.0500 C   0  0  0  0  0  0  0  0  0  0  0  0
   52.3920   30.4370   50.0250 N   0  0  0  0  0  0  0  0  0  0  0  0
   51.3410   30.8370   49.2770 C   0  0  0  0  0  0  0  0  0  0  0  0
   50.9960   30.2440   48.2220 O   0  0  0  0  0  0  0  0  0  0  0  0
   50.6970   31.9290   49.7400 N   0  0  0  0  0  0  0  0  0  0  0  0
   51.3860   32.2260   50.8530 C   0  0  0  0  0  0  0  0  0  0  0  0
   51.1300   33.3390   51.6440 O   0  0  0  0  0  0  0  0  0  0  0  0
   51.6809   29.4131   53.1124 H   0  0  0  0  0  0  0  0  0  0  0  0
   52.3062   27.7000   53.6641 H   0  0  0  0  0  0  0  0  0  0  0  0
   56.1981   32.2638   53.8495 H   0  0  0  0  0  0  0  0  0  0  0  0
   57.9266   33.9929   53.3652 H   0  0  0  0  0  0  0  0  0  0  0  0
   58.8303   32.0847   47.2879 H   0  0  0  0  0  0  0  0  0  0  0  0
   57.5484   32.9782   48.1945 H   0  0  0  0  0  0  0  0  0  0  0  0
   59.6379   34.4765   48.9362 H   0  0  0  0  0  0  0  0  0  0  0  0
   60.3154   33.8566   47.3924 H   0  0  0  0  0  0  0  0  0  0  0  0
   58.7669   34.7670   47.3924 H   0  0  0  0  0  0  0  0  0  0  0  0
   57.1726   30.2509   50.1408 H   0  0  0  0  0  0  0  0  0  0  0  0
   53.5952   32.2811   52.6251 H   0  0  0  0  0  0  0  0  0  0  0  0
  1  2  2  0
  2  3  1  0
  3  4  1  0
  4  5  2  0
  5  6  1  0
  6  7  2  0
  7  8  1  0
  8  9  2  0
  9 10  1  0
  9 11  1  0
 11 12  1  0
 12 13  1  0
 13 14  1  0
 11 15  2  0
  5 16  1  0
 16 17  2  3
 17 18  1  0
 18 19  1  0
 19 20  1  0
 20 21  2  0
 20 22  1  0
 22 23  1  0
 23 24  1  0
 16  2  1  0
 23 18  2  0
 15  6  1  0
  1 25  1  0
  1 26  1  0
  7 27  1  0
  8 28  1  0
 13 29  1  0
 13 30  1  0
 14 31  1  0
 14 32  1  0
 14 33  1  0
 15 34  1  0
 17 35  1  0
M  CHG  5   3  -1  10  -1  19  -1  22  -1  24  -1
M  END
>  <UniqueID>  (44) 
40

>  <SMILES>  (44) 
C=c1[n-]nc(-c2ccc([O-])c(OCC)c2)c1=Cc1[n-]c(=O)[n-]c1[O-]

>  <Energy>  (44) 
110.23024369784255

>  <Genealogy>  (44) 
C=c1[n-]nc(-c2ccc([O-])c(OCC)c2)c1=Cc1[n-]c(=O)[n-]c1[O-] (protonated)
C=c1[n-]nc(-c2ccc([O-])c(OCC)c2)c1=Cc1[n-]c(=O)[n-]c1[O-] (3D coordinates assigned)
C=c1[n-]nc(-c2ccc([O-])c(OCC)c2)c1=Cc1[n-]c(=O)[n-]c1[O-] (optimized conformer: 110.23024369784255 kcal/mol)

>  <smiles>  (44) 
C=c1[nH]nc(-c2ccc(O)c(OCC)c2)c1=Cc1[nH]c(=O)[nH]c1O

>  <score_type>  (44) 
oracle

>  <origin>  (44) 
adg

>  <m_score__min__energy>  (44) 
-16.899999999999999

>  <m_primary>  (44) 
energy

$$$$
44:0
     RDKit          3D

 52 55  0  0  0  0  0  0  0  0999 V2000
   60.7983   34.2904   50.6803 H   0  0  0  0  0  0  0  0  0  0  0  0
   60.1140   33.4690   50.9390 C   0  0  0  0  0  0  0  0  0  0  0  0
   60.3400   32.1960   50.7070 O   0  0  0  0  0  0  0  0  0  0  0  0
   59.3120   31.5040   51.1430 C   0  0  0  0  0  0  0  0  0  0  0  0
   59.2240   30.0110   51.0960 C   0  0  0  0  0  0  0  0  0  0  0  0
   58.7047   29.6474   51.9950 H   0  0  0  0  0  0  0  0  0  0  0  0
   60.2390   29.5887   51.0575 H   0  0  0  0  0  0  0  0  0  0  0  0
   58.4830   29.5950   49.9060 N   0  0  0  0  0  0  0  0  0  0  0  0
   58.9020   29.7430   48.6830 C   0  0  0  0  0  0  0  0  0  0  0  0
   58.1440   29.3280   47.6330 N   0  0  0  0  0  0  0  0  0  0  0  0
   58.5750   29.4950   46.3600 C   0  0  0  0  0  0  0  0  0  0  0  0
   57.8370   29.0650   45.3800 N   0  0  0  0  0  0  0  0  0  0  0  0
   56.5650   29.5890   44.9610 C   0  0  0  0  0  0  0  0  0  0  0  0
   55.5380   28.8580   44.9320 O   0  0  0  0  0  0  0  0  0  0  0  0
   56.4540   30.9530   44.5540 N   0  0  0  0  0  0  0  0  0  0  0  0
   57.8060   31.8730   43.9910 S   0  0  0  0  0  0  0  0  0  0  0  0
   57.4020   32.6540   42.7710 O   0  0  0  0  0  0  0  0  0  0  0  0
   58.9210   30.9360   43.6130 O   0  0  0  0  0  0  0  0  0  0  0  0
   58.3720   32.9490   45.2610 C   0  0  0  0  0  0  0  0  0  0  0  0
   59.1140   34.0900   44.9230 C   0  0  0  0  0  0  0  0  0  0  0  0
   59.3414   34.3033   43.8681 H   0  0  0  0  0  0  0  0  0  0  0  0
   59.5660   34.9580   45.9230 C   0  0  0  0  0  0  0  0  0  0  0  0
   60.1502   35.8504   45.6540 H   0  0  0  0  0  0  0  0  0  0  0  0
   59.2750   34.6910   47.2640 C   0  0  0  0  0  0  0  0  0  0  0  0
   59.6287   35.3742   48.0502 H   0  0  0  0  0  0  0  0  0  0  0  0
   58.5340   33.5550   47.6060 C   0  0  0  0  0  0  0  0  0  0  0  0
   58.3011   33.3483   48.6610 H   0  0  0  0  0  0  0  0  0  0  0  0
   58.0890   32.6820   46.6090 C   0  0  0  0  0  0  0  0  0  0  0  0
   57.5157   31.7838   46.8819 H   0  0  0  0  0  0  0  0  0  0  0  0
   59.7750   30.0900   46.1350 N   0  0  0  0  0  0  0  0  0  0  0  0
   60.5480   30.5050   47.1700 C   0  0  0  0  0  0  0  0  0  0  0  0
   61.6880   31.0790   46.9070 N   0  0  0  0  0  0  0  0  0  0  0  0
   62.4850   31.8130   47.8460 C   0  0  0  0  0  0  0  0  0  0  0  0
   62.8120   31.2160   49.0700 C   0  0  0  0  0  0  0  0  0  0  0  0
   62.4505   30.2024   49.2981 H   0  0  0  0  0  0  0  0  0  0  0  0
   63.5940   31.9000   50.0020 C   0  0  0  0  0  0  0  0  0  0  0  0
   63.8507   31.4224   50.9591 H   0  0  0  0  0  0  0  0  0  0  0  0
   64.0510   33.1890   49.7220 C   0  0  0  0  0  0  0  0  0  0  0  0
   64.6756   33.7217   50.4542 H   0  0  0  0  0  0  0  0  0  0  0  0
   63.7160   33.8030   48.5130 C   0  0  0  0  0  0  0  0  0  0  0  0
   64.0837   34.8164   48.2943 H   0  0  0  0  0  0  0  0  0  0  0  0
   62.9120   33.1340   47.5740 C   0  0  0  0  0  0  0  0  0  0  0  0
   62.5640   33.8190   46.2810 C   0  0  0  0  0  0  0  0  0  0  0  0
   62.0753   34.7809   46.4956 H   0  0  0  0  0  0  0  0  0  0  0  0
   63.4818   33.9954   45.7009 H   0  0  0  0  0  0  0  0  0  0  0  0
   61.8803   33.1818   45.7009 H   0  0  0  0  0  0  0  0  0  0  0  0
   60.1090   30.3260   48.4510 N   0  0  0  0  0  0  0  0  0  0  0  0
   60.6730   30.6510   49.2690 H   0  0  0  0  0  0  0  0  0  0  0  0
   58.3700   32.3520   51.6920 C   0  0  0  0  0  0  0  0  0  0  0  0
   57.4066   32.0725   52.1435 H   0  0  0  0  0  0  0  0  0  0  0  0
   58.8890   33.6210   51.5560 C   0  0  0  0  0  0  0  0  0  0  0  0
   58.4216   34.5644   51.8747 H   0  0  0  0  0  0  0  0  0  0  0  0
  1  2  1  0
  2  3  1  0
  3  4  1  0
  4  5  1  0
  5  6  1  0
  5  7  1  0
  5  8  1  0
  8  9  2  0
  9 10  1  0
 10 11  1  0
 11 12  2  3
 12 13  1  0
 13 14  2  0
 13 15  1  0
 15 16  1  0
 16 17  2  0
 16 18  2  0
 16 19  1  0
 19 20  2  0
 20 21  1  0
 20 22  1  0
 22 23  1  0
 22 24  2  0
 24 25  1  0
 24 26  1  0
 26 27  1  0
 26 28  2  0
 28 29  1  0
 11 30  1  0
 30 31  1  0
 31 32  2  3
 32 33  1  0
 33 34  2  0
 34 35  1  0
 34 36  1  0
 36 37  1  0
 36 38  2  0
 38 39  1  0
 38 40  1  0
 40 41  1  0
 40 42  2  0
 42 43  1  0
 43 44  1  0
 43 45  1  0
 43 46  1  0
 31 47  1  0
 47 48  1  0
  4 49  2  0
 49 50  1  0
 49 51  1  0
 51 52  1  0
 51  2  2  0
 47  9  1  0
 28 19  1  0
 42 33  1  0
M  CHG  3  10  -1  15  -1  30  -1
M  END
>  <UniqueID>  (45) 
41

>  <SMILES>  (45) 
Cc1ccccc1N=c1[n-]c(=NC(=O)[N-]S(=O)(=O)c2ccccc2)[n-]/c(=N\Cc2ccco2)[nH]1

>  <Energy>  (45) 
92.97246496942248

>  <Genealogy>  (45) 
Cc1ccccc1N=c1[n-]c(=NC(=O)[N-]S(=O)(=O)c2ccccc2)[n-]c(=NCc2ccco2)[nH]1 (protonated)
Cc1ccccc1N=c1[n-]c(=NC(=O)[N-]S(=O)(=O)c2ccccc2)[n-]/c(=N\Cc2ccco2)[nH]1 (cis-trans isomerization)
Cc1ccccc1N=c1[n-]c(=NC(=O)[N-]S(=O)(=O)c2ccccc2)[n-]/c(=N\Cc2ccco2)[nH]1 (3D coordinates assigned)
Cc1ccccc1N=c1[n-]c(=NC(=O)[N-]S(=O)(=O)c2ccccc2)[n-]/c(=N\Cc2ccco2)[nH]1 (optimized conformer: 92.97246496942248 kcal/mol)

>  <smiles>  (45) 
Cc1ccccc1N=c1[nH]c(=NCc2ccco2)[nH]c(=NC(=O)NS(=O)(=O)c2ccccc2)[nH]1

>  <score_type>  (45) 
oracle

>  <origin>  (45) 
adg

>  <m_score__min__energy>  (45) 
-13.460000000000001

>  <m_primary>  (45) 
energy

$$$$
45:0
     RDKit          3D

 44 46  0  0  0  0  0  0  0  0999 V2000
   54.1560   29.5860   52.8680 C   0  0  0  0  0  0  0  0  0  0  0  0
   55.5940   29.9250   52.6730 C   0  0  0  0  0  0  0  0  0  0  0  0
   56.4040   29.0220   52.3330 O   0  0  0  0  0  0  0  0  0  0  0  0
   56.0390   31.2170   52.9800 O   0  0  0  0  0  0  0  0  0  0  0  0
   57.1840   31.8270   52.4460 C   0  0  0  0  0  0  0  0  0  0  0  0
   58.0330   32.5230   53.3130 C   0  0  0  0  0  0  0  0  0  0  0  0
   59.1850   33.1440   52.8280 C   0  0  0  0  0  0  0  0  0  0  0  0
   59.4910   33.0920   51.4660 C   0  0  0  0  0  0  0  0  0  0  0  0
   58.6360   32.4280   50.5690 C   0  0  0  0  0  0  0  0  0  0  0  0
   58.9590   32.3900   49.1220 C   0  0  0  0  0  0  0  0  0  0  0  0
   59.2890   31.2950   48.5890 O   0  0  0  0  0  0  0  0  0  0  0  0
   58.9510   33.5920   48.3330 N   0  0  0  0  0  0  0  0  0  0  0  0
   58.8480   33.6050   46.8980 C   0  0  0  0  0  0  0  0  0  0  0  0
   59.3270   34.7130   46.1850 C   0  0  0  0  0  0  0  0  0  0  0  0
   59.2220   34.7570   44.7940 C   0  0  0  0  0  0  0  0  0  0  0  0
   58.6260   33.7030   44.1000 C   0  0  0  0  0  0  0  0  0  0  0  0
   58.1180   32.5890   44.7940 C   0  0  0  0  0  0  0  0  0  0  0  0
   57.4710   31.4760   44.0600 C   0  0  0  0  0  0  0  0  0  0  0  0
   57.6520   31.3530   42.8180 O   0  0  0  0  0  0  0  0  0  0  0  0
   56.5960   30.5730   44.7530 N   0  0  0  0  0  0  0  0  0  0  0  0
   56.9080   29.2430   45.1910 C   0  0  0  0  0  0  0  0  0  0  0  0
   58.2100   28.8620   45.5500 C   0  0  0  0  0  0  0  0  0  0  0  0
   58.4250   27.5550   45.9880 C   0  0  0  0  0  0  0  0  0  0  0  0
   59.5820   27.1780   46.3130 O   0  0  0  0  0  0  0  0  0  0  0  0
   57.3850   26.6870   46.0750 N   0  0  0  0  0  0  0  0  0  0  0  0
   56.1240   27.0750   45.7430 C   0  0  0  0  0  0  0  0  0  0  0  0
   55.1390   26.2430   45.8390 N   0  0  0  0  0  0  0  0  0  0  0  0
   55.8960   28.3430   45.3120 N   0  0  0  0  0  0  0  0  0  0  0  0
   58.2270   32.5530   46.1980 C   0  0  0  0  0  0  0  0  0  0  0  0
   57.4820   31.7930   51.0690 C   0  0  0  0  0  0  0  0  0  0  0  0
   53.9343   29.5337   53.9442 H   0  0  0  0  0  0  0  0  0  0  0  0
   53.5301   30.3612   52.4019 H   0  0  0  0  0  0  0  0  0  0  0  0
   53.9422   28.6128   52.4019 H   0  0  0  0  0  0  0  0  0  0  0  0
   57.7910   32.5813   54.3845 H   0  0  0  0  0  0  0  0  0  0  0  0
   59.8540   33.6760   53.5204 H   0  0  0  0  0  0  0  0  0  0  0  0
   60.4069   33.5737   51.0929 H   0  0  0  0  0  0  0  0  0  0  0  0
   59.1510   34.4970   48.8150 H   0  0  0  0  0  0  0  0  0  0  0  0
   59.7884   35.5528   46.7252 H   0  0  0  0  0  0  0  0  0  0  0  0
   59.6105   35.6258   44.2425 H   0  0  0  0  0  0  0  0  0  0  0  0
   58.5528   33.7432   43.0032 H   0  0  0  0  0  0  0  0  0  0  0  0
   59.0427   29.5781   45.4874 H   0  0  0  0  0  0  0  0  0  0  0  0
   54.2890   26.3310   45.2370 H   0  0  0  0  0  0  0  0  0  0  0  0
   57.8227   31.6939   46.7533 H   0  0  0  0  0  0  0  0  0  0  0  0
   56.8074   31.2659   50.3783 H   0  0  0  0  0  0  0  0  0  0  0  0
  1  2  1  0
  2  3  2  0
  2  4  1  0
  4  5  1  0
  5  6  2  0
  6  7  1  0
  7  8  2  0
  8  9  1  0
  9 10  1  0
 10 11  2  0
 10 12  1  0
 12 13  1  0
 13 14  2  0
 14 15  1  0
 15 16  2  0
 16 17  1  0
 17 18  1  0
 18 19  2  0
 18 20  1  0
 20 21  1  0
 21 22  2  0
 22 23  1  0
 23 24  2  0
 23 25  1  0
 25 26  1  0
 26 27  2  3
 26 28  1  0
 17 29  2  0
  9 30  2  0
 30  5  1  0
 29 13  1  0
 28 21  1  0
  1 31  1  0
  1 32  1  0
  1 33  1  0
  6 34  1  0
  7 35  1  0
  8 36  1  0
 12 37  1  0
 14 38  1  0
 15 39  1  0
 16 40  1  0
 22 41  1  0
 27 42  1  0
 29 43  1  0
 30 44  1  0
M  CHG  3  20  -1  25  -1  28  -1
M  END
>  <UniqueID>  (46) 
42

>  <SMILES>  (46) 
CC(=O)Oc1cccc(C(=O)Nc2cccc(C(=O)[N-]c3cc(=O)[n-]c(=N)[n-]3)c2)c1

>  <Energy>  (46) 
60.3730174808371

>  <Genealogy>  (46) 
CC(=O)Oc1cccc(C(=O)Nc2cccc(C(=O)[N-]c3cc(=O)[n-]c(=N)[n-]3)c2)c1 (protonated)
CC(=O)Oc1cccc(C(=O)Nc2cccc(C(=O)[N-]c3cc(=O)[n-]c(=N)[n-]3)c2)c1 (3D coordinates assigned)
CC(=O)Oc1cccc(C(=O)Nc2cccc(C(=O)[N-]c3cc(=O)[n-]c(=N)[n-]3)c2)c1 (optimized conformer: 60.3730174808371 kcal/mol)

>  <smiles>  (46) 
CC(=O)Oc1cccc(C(=O)Nc2cccc(C(=O)Nc3cc(=O)[nH]c(=N)[nH]3)c2)c1

>  <score_type>  (46) 
oracle

>  <origin>  (46) 
adg

>  <m_score__min__energy>  (46) 
-14.99

>  <m_primary>  (46) 
energy

$$$$
46:0
     RDKit          3D

 64 67  0  0  0  0  0  0  0  0999 V2000
   58.5550   29.9890   48.3830 C   0  0  0  0  0  0  0  0  0  0  0  0
   59.1480   28.7470   47.7520 C   0  0  0  0  0  0  0  0  0  0  0  0
   58.6040   28.1980   46.5560 C   0  0  0  0  0  0  0  0  0  0  0  0
   57.4490   28.8440   45.8170 C   0  0  0  0  0  0  0  0  0  0  0  0
   57.8860   29.3820   44.5260 N   0  0  0  0  0  0  0  0  0  0  0  0
   57.0070   30.8270   44.1170 S   0  0  0  0  0  0  0  0  0  0  0  0
   55.5670   30.6930   44.5250 O   0  0  0  0  0  0  0  0  0  0  0  0
   57.0600   31.0270   42.6280 O   0  0  0  0  0  0  0  0  0  0  0  0
   57.7370   32.2240   44.9060 C   0  0  0  0  0  0  0  0  0  0  0  0
   57.7380   33.4650   44.2620 C   0  0  0  0  0  0  0  0  0  0  0  0
   58.3290   34.5720   44.8750 C   0  0  0  0  0  0  0  0  0  0  0  0
   58.9300   34.4450   46.1290 C   0  0  0  0  0  0  0  0  0  0  0  0
   58.9610   33.1980   46.7860 C   0  0  0  0  0  0  0  0  0  0  0  0
   59.5920   33.0090   48.1280 C   0  0  0  0  0  0  0  0  0  0  0  0
   58.8570   33.1300   49.1480 O   0  0  0  0  0  0  0  0  0  0  0  0
   60.9950   32.6900   48.3280 N   0  0  0  0  0  0  0  0  0  0  0  0
   61.7530   33.8590   48.8470 C   0  0  0  0  0  0  0  0  0  0  0  0
   63.2170   33.8810   48.3620 C   0  0  0  0  0  0  0  0  0  0  0  0
   63.8070   32.5270   48.3290 N   0  0  0  0  0  0  0  0  0  0  0  0
   64.0390   31.9920   49.6890 C   0  0  0  0  0  0  0  0  0  0  0  0
   65.0820   32.8120   50.4000 C   0  0  0  0  0  0  0  0  0  0  0  0
   66.4470   32.6420   50.1120 C   0  0  0  0  0  0  0  0  0  0  0  0
   67.4070   33.4130   50.7760 C   0  0  0  0  0  0  0  0  0  0  0  0
   67.0110   34.3610   51.7240 C   0  0  0  0  0  0  0  0  0  0  0  0
   65.6550   34.5380   52.0120 C   0  0  0  0  0  0  0  0  0  0  0  0
   64.6920   33.7680   51.3530 C   0  0  0  0  0  0  0  0  0  0  0  0
   63.0470   31.5870   47.4630 C   0  0  0  0  0  0  0  0  0  0  0  0
   61.6140   32.0610   47.1430 C   0  0  0  0  0  0  0  0  0  0  0  0
   58.3430   32.0950   46.1640 C   0  0  0  0  0  0  0  0  0  0  0  0
   59.1400   27.0080   46.0360 C   0  0  0  0  0  0  0  0  0  0  0  0
   60.2070   26.3730   46.6660 C   0  0  0  0  0  0  0  0  0  0  0  0
   60.7720   26.9240   47.8130 C   0  0  0  0  0  0  0  0  0  0  0  0
   60.2750   28.1190   48.3550 C   0  0  0  0  0  0  0  0  0  0  0  0
   60.9280   28.6770   49.5090 N   0  0  0  0  0  0  0  0  0  0  0  0
   61.3250   29.8600   49.5010 O   0  0  0  0  0  0  0  0  0  0  0  0
   61.3190   27.8540   50.5410 O   0  0  0  0  0  0  0  0  0  0  0  0
   58.5976   29.8997   49.4785 H   0  0  0  0  0  0  0  0  0  0  0  0
   59.1288   30.8718   48.0644 H   0  0  0  0  0  0  0  0  0  0  0  0
   57.5078   30.0978   48.0644 H   0  0  0  0  0  0  0  0  0  0  0  0
   56.6653   28.0912   45.6462 H   0  0  0  0  0  0  0  0  0  0  0  0
   57.0615   29.6722   46.4284 H   0  0  0  0  0  0  0  0  0  0  0  0
   57.2725   33.5696   43.2709 H   0  0  0  0  0  0  0  0  0  0  0  0
   58.3210   35.5481   44.3678 H   0  0  0  0  0  0  0  0  0  0  0  0
   59.3831   35.3253   46.6083 H   0  0  0  0  0  0  0  0  0  0  0  0
   61.0200   31.9560   49.0760 H   0  0  0  0  0  0  0  0  0  0  0  0
   61.2559   34.7797   48.5078 H   0  0  0  0  0  0  0  0  0  0  0  0
   61.7672   33.7856   49.9445 H   0  0  0  0  0  0  0  0  0  0  0  0
   63.2495   34.3078   47.3487 H   0  0  0  0  0  0  0  0  0  0  0  0
   63.8008   34.4900   49.0679 H   0  0  0  0  0  0  0  0  0  0  0  0
   63.0986   32.0275   50.2586 H   0  0  0  0  0  0  0  0  0  0  0  0
   64.3918   30.9531   49.6103 H   0  0  0  0  0  0  0  0  0  0  0  0
   66.7613   31.9008   49.3625 H   0  0  0  0  0  0  0  0  0  0  0  0
   68.4748   33.2731   50.5519 H   0  0  0  0  0  0  0  0  0  0  0  0
   67.7671   34.9679   52.2435 H   0  0  0  0  0  0  0  0  0  0  0  0
   65.3449   35.2843   52.7583 H   0  0  0  0  0  0  0  0  0  0  0  0
   63.6255   33.9111   51.5813 H   0  0  0  0  0  0  0  0  0  0  0  0
   63.5934   31.4683   46.5157 H   0  0  0  0  0  0  0  0  0  0  0  0
   62.9570   30.6406   48.0164 H   0  0  0  0  0  0  0  0  0  0  0  0
   61.6506   32.7935   46.3231 H   0  0  0  0  0  0  0  0  0  0  0  0
   61.0105   31.1894   46.8495 H   0  0  0  0  0  0  0  0  0  0  0  0
   58.3358   31.1194   46.6722 H   0  0  0  0  0  0  0  0  0  0  0  0
   58.7119   26.5730   45.1208 H   0  0  0  0  0  0  0  0  0  0  0  0
   60.6049   25.4329   46.2562 H   0  0  0  0  0  0  0  0  0  0  0  0
   61.6178   26.4166   48.3000 H   0  0  0  0  0  0  0  0  0  0  0  0
  1  2  1  0
  2  3  2  0
  3  4  1  0
  4  5  1  0
  5  6  1  0
  6  7  2  0
  6  8  2  0
  6  9  1  0
  9 10  2  0
 10 11  1  0
 11 12  2  0
 12 13  1  0
 13 14  1  0
 14 15  2  0
 14 16  1  0
 16 17  1  0
 17 18  1  0
 18 19  1  0
 19 20  1  0
 20 21  1  0
 21 22  2  0
 22 23  1  0
 23 24  2  0
 24 25  1  0
 25 26  2  0
 19 27  1  0
 27 28  1  0
 13 29  2  0
  3 30  1  0
 30 31  2  0
 31 32  1  0
 32 33  2  0
 33 34  1  0
 34 35  2  0
 34 36  1  0
 33  2  1  0
 29  9  1  0
 28 16  1  0
 26 21  1  0
  1 37  1  0
  1 38  1  0
  1 39  1  0
  4 40  1  0
  4 41  1  0
 10 42  1  0
 11 43  1  0
 12 44  1  0
 16 45  1  0
 17 46  1  0
 17 47  1  0
 18 48  1  0
 18 49  1  0
 20 50  1  0
 20 51  1  0
 22 52  1  0
 23 53  1  0
 24 54  1  0
 25 55  1  0
 26 56  1  0
 27 57  1  0
 27 58  1  0
 28 59  1  0
 28 60  1  0
 29 61  1  0
 30 62  1  0
 31 63  1  0
 32 64  1  0
M  CHG  4   5  -1  16   1  34   1  36  -1
M  END
>  <UniqueID>  (47) 
43

>  <SMILES>  (47) 
Cc1c(C[N-]S(=O)(=O)c2cccc(C(=O)[NH+]3CCN(Cc4ccccc4)CC3)c2)cccc1[N+](=O)[O-]

>  <Energy>  (47) 
94.38226704154772

>  <Genealogy>  (47) 
Cc1c(C[N-]S(=O)(=O)c2cccc(C(=O)[NH+]3CCN(Cc4ccccc4)CC3)c2)cccc1[N+](=O)[O-] (protonated)
Cc1c(C[N-]S(=O)(=O)c2cccc(C(=O)[NH+]3CCN(Cc4ccccc4)CC3)c2)cccc1[N+](=O)[O-] (3D coordinates assigned)
Cc1c(C[N-]S(=O)(=O)c2cccc(C(=O)[NH+]3CCN(Cc4ccccc4)CC3)c2)cccc1[N+](=O)[O-] (nonaromatic ring conformer: 94.38226704154772 kcal/mol)

>  <smiles>  (47) 
Cc1c(CNS(=O)(=O)c2cccc(C(=O)N3CCN(Cc4ccccc4)CC3)c2)cccc1[N+](=O)[O-]

>  <score_type>  (47) 
oracle

>  <origin>  (47) 
adg

>  <m_score__min__energy>  (47) 
-11.08

>  <m_primary>  (47) 
energy

$$$$
47:0
     RDKit          3D

 46 48  0  0  1  0  0  0  0  0999 V2000
   57.9960   24.5480   46.6670 C   0  0  0  0  0  0  0  0  0  0  0  0
   57.3860   25.7830   46.1090 C   0  0  0  0  0  0  0  0  0  0  0  0
   57.9460   26.6250   45.1640 C   0  0  0  0  0  0  0  0  0  0  0  0
   57.0700   27.6610   44.9070 C   0  0  0  0  0  0  0  0  0  0  0  0
   57.2520   28.6460   44.0760 N   0  0  0  0  0  0  0  0  0  0  0  0
   56.5050   29.8350   44.2810 C   0  0  0  0  0  0  0  0  0  0  0  0
   55.3690   29.8360   44.8250 O   0  0  0  0  0  0  0  0  0  0  0  0
   57.1540   31.1080   43.8060 C   0  0  0  0  0  0  0  0  0  0  0  0
   57.2270   32.0540   44.9160 N   0  0  0  0  0  0  0  0  0  0  0  0
   58.0450   33.2060   44.7700 C   0  0  0  0  0  0  0  0  0  0  0  0
   58.7130   33.4600   43.7340 O   0  0  0  0  0  0  0  0  0  0  0  0
   58.1080   34.1510   45.9000 C   0  0  0  0  0  0  0  0  0  0  0  0
   59.3630   34.0160   46.6860 C   0  0  0  0  0  0  0  0  0  0  0  0
   59.2460   34.2330   48.0620 C   0  0  0  0  0  0  0  0  0  0  0  0
   60.3830   34.1200   48.8360 C   0  0  0  0  0  0  0  0  0  0  0  0
   61.6220   33.8010   48.2830 C   0  0  0  0  0  0  0  0  0  0  0  0
   62.7810   33.6990   49.1640 C   0  0  0  0  0  0  0  0  0  0  0  0
   62.8050   34.2390   50.4360 C   0  0  0  0  0  0  0  0  0  0  0  0
   63.9420   34.1080   51.2260 C   0  0  0  0  0  0  0  0  0  0  0  0
   65.0340   33.4430   50.7440 C   0  0  0  0  0  0  0  0  0  0  0  0
   65.0310   32.8920   49.4680 C   0  0  0  0  0  0  0  0  0  0  0  0
   63.9000   33.0190   48.6730 C   0  0  0  0  0  0  0  0  0  0  0  0
   61.7090   33.5920   46.9210 C   0  0  0  0  0  0  0  0  0  0  0  0
   60.5810   33.6970   46.1040 C   0  0  0  0  0  0  0  0  0  0  0  0
   56.0000   27.4330   45.6940 N   0  0  0  0  0  0  0  0  0  0  0  0
   56.1890   26.3310   46.3960 N   0  0  0  0  0  0  0  0  0  0  0  0
   57.9741   24.5924   47.7659 H   0  0  0  0  0  0  0  0  0  0  0  0
   57.4274   23.6710   46.3241 H   0  0  0  0  0  0  0  0  0  0  0  0
   59.0380   24.4665   46.3241 H   0  0  0  0  0  0  0  0  0  0  0  0
   58.9310   26.4905   44.6932 H   0  0  0  0  0  0  0  0  0  0  0  0
   58.1687   30.8897   43.4415 H   0  0  0  0  0  0  0  0  0  0  0  0
   56.5596   31.5428   42.9889 H   0  0  0  0  0  0  0  0  0  0  0  0
   56.6900   31.8940   45.8050 H   0  0  0  0  0  0  0  0  0  0  0  0
   58.0470   35.1763   45.5062 H   0  0  0  0  0  0  0  0  0  0  0  0
   57.2669   33.9250   46.5719 H   0  0  0  0  0  0  0  0  0  0  0  0
   58.2760   34.4864   48.5146 H   0  0  0  0  0  0  0  0  0  0  0  0
   60.3093   34.2865   49.9208 H   0  0  0  0  0  0  0  0  0  0  0  0
   61.9246   34.7725   50.8236 H   0  0  0  0  0  0  0  0  0  0  0  0
   63.9622   34.5392   52.2377 H   0  0  0  0  0  0  0  0  0  0  0  0
   65.9291   33.3422   51.3754 H   0  0  0  0  0  0  0  0  0  0  0  0
   65.9170   32.3599   49.0913 H   0  0  0  0  0  0  0  0  0  0  0  0
   63.8841   32.5868   47.6616 H   0  0  0  0  0  0  0  0  0  0  0  0
   62.6811   33.3390   46.4727 H   0  0  0  0  0  0  0  0  0  0  0  0
   60.6571   33.5299   45.0194 H   0  0  0  0  0  0  0  0  0  0  0  0
   55.1430   28.0310   45.7470 H   0  0  0  0  0  0  0  0  0  0  0  0
   55.4990   25.9280   47.0920 H   0  0  0  0  0  0  0  0  0  0  0  0
  1  2  1  0
  2  3  2  0
  3  4  1  0
  4  5  2  0
  5  6  1  0
  6  7  2  0
  6  8  1  0
  8  9  1  0
  9 10  1  0
 10 11  2  0
 10 12  1  0
 12 13  1  0
 13 14  2  0
 14 15  1  0
 15 16  2  0
 16 17  1  0
 17 18  2  0
 18 19  1  0
 19 20  2  0
 20 21  1  0
 21 22  2  0
 16 23  1  0
 23 24  2  0
  4 25  1  0
 25 26  1  0
 26  2  1  0
 24 13  1  0
 22 17  1  0
  1 27  1  0
  1 28  1  0
  1 29  1  0
  3 30  1  0
  8 31  1  0
  8 32  1  0
  9 33  1  0
 12 34  1  0
 12 35  1  0
 14 36  1  0
 15 37  1  0
 18 38  1  0
 19 39  1  0
 20 40  1  0
 21 41  1  0
 22 42  1  0
 23 43  1  0
 24 44  1  0
 25 45  1  0
 26 46  1  0
M  END
>  <smiles>  (48) 
Cc1cc(=NC(=O)CNC(=O)Cc2ccc(-c3ccccc3)cc2)[nH][nH]1

>  <score_type>  (48) 
oracle

>  <origin>  (48) 
adg

>  <m_score__min__energy>  (48) 
-9.1999999999999993

>  <m_primary>  (48) 
energy

$$$$
48:0
     RDKit          3D

 53 56  0  0  0  0  0  0  0  0999 V2000
   62.8298   32.4713   48.4273 H   0  0  0  0  0  0  0  0  0  0  0  0
   61.8810   32.0340   48.0830 C   0  0  0  0  0  0  0  0  0  0  0  0
   61.8740   30.7760   47.4750 C   0  0  0  0  0  0  0  0  0  0  0  0
   62.8156   30.2207   47.3527 H   0  0  0  0  0  0  0  0  0  0  0  0
   60.6690   30.2190   47.0200 C   0  0  0  0  0  0  0  0  0  0  0  0
   60.6550   28.8550   46.3920 C   0  0  0  0  0  0  0  0  0  0  0  0
   61.6510   28.3976   46.4852 H   0  0  0  0  0  0  0  0  0  0  0  0
   60.3915   28.9428   45.3276 H   0  0  0  0  0  0  0  0  0  0  0  0
   59.6690   28.0190   47.0720 N   0  0  0  0  0  0  0  0  0  0  0  0
   58.4840   27.7700   46.6060 C   0  0  0  0  0  0  0  0  0  0  0  0
   57.8660   28.6940   45.8280 N   0  0  0  0  0  0  0  0  0  0  0  0
   56.6260   28.4490   45.3330 C   0  0  0  0  0  0  0  0  0  0  0  0
   55.7630   29.7500   44.2410 Br  0  0  0  0  0  0  0  0  0  0  0  0
   56.0020   27.2790   45.6160 N   0  0  0  0  0  0  0  0  0  0  0  0
   56.6100   26.3480   46.3930 C   0  0  0  0  0  0  0  0  0  0  0  0
   55.9900   25.2320   46.6510 N   0  0  0  0  0  0  0  0  0  0  0  0
   56.5780   24.0020   47.1090 C   0  0  0  0  0  0  0  0  0  0  0  0
   56.4150   23.6110   48.2970 O   0  0  0  0  0  0  0  0  0  0  0  0
   57.3820   23.1970   46.1670 C   0  0  0  0  0  0  0  0  0  0  0  0
   58.1520   23.7120   45.1370 C   0  0  0  0  0  0  0  0  0  0  0  0
   58.2846   24.7694   44.8642 H   0  0  0  0  0  0  0  0  0  0  0  0
   58.7170   22.6090   44.5270 C   0  0  0  0  0  0  0  0  0  0  0  0
   59.3960   22.6339   43.6619 H   0  0  0  0  0  0  0  0  0  0  0  0
   58.3010   21.4990   45.1640 N   0  0  0  0  0  0  0  0  0  0  0  0
   58.5670   20.5180   44.9220 H   0  0  0  0  0  0  0  0  0  0  0  0
   57.4950   21.8480   46.1540 N   0  0  0  0  0  0  0  0  0  0  0  0
   56.8600   20.8900   47.0560 C   0  0  0  0  0  0  0  0  0  0  0  0
   57.0544   21.1833   48.0982 H   0  0  0  0  0  0  0  0  0  0  0  0
   55.7751   20.8789   46.8744 H   0  0  0  0  0  0  0  0  0  0  0  0
   57.2724   19.8865   46.8744 H   0  0  0  0  0  0  0  0  0  0  0  0
   57.8520   26.5990   46.8870 N   0  0  0  0  0  0  0  0  0  0  0  0
   59.4670   30.9210   47.2090 C   0  0  0  0  0  0  0  0  0  0  0  0
   58.5174   30.4805   46.8710 H   0  0  0  0  0  0  0  0  0  0  0  0
   59.4710   32.1820   47.8270 C   0  0  0  0  0  0  0  0  0  0  0  0
   58.1880   32.9560   47.9980 C   0  0  0  0  0  0  0  0  0  0  0  0
   57.3568   32.2490   48.1368 H   0  0  0  0  0  0  0  0  0  0  0  0
   58.2870   33.6103   48.8767 H   0  0  0  0  0  0  0  0  0  0  0  0
   57.9160   33.7960   46.8120 N   0  0  0  0  0  0  0  0  0  0  0  0
   59.1460   34.4720   46.3320 C   0  0  0  0  0  0  0  0  0  0  0  0
   59.3132   35.3808   46.9288 H   0  0  0  0  0  0  0  0  0  0  0  0
   59.9925   33.7780   46.4410 H   0  0  0  0  0  0  0  0  0  0  0  0
   59.0190   34.8600   44.8510 C   0  0  0  0  0  0  0  0  0  0  0  0
   58.1619   35.5410   44.7432 H   0  0  0  0  0  0  0  0  0  0  0  0
   59.9699   35.3305   44.5605 H   0  0  0  0  0  0  0  0  0  0  0  0
   58.8230   33.7520   43.9820 O   0  0  0  0  0  0  0  0  0  0  0  0
   58.2100   32.6360   44.6100 C   0  0  0  0  0  0  0  0  0  0  0  0
   57.6502   32.0725   43.8490 H   0  0  0  0  0  0  0  0  0  0  0  0
   59.0143   32.0387   45.0643 H   0  0  0  0  0  0  0  0  0  0  0  0
   57.2400   33.0230   45.7410 C   0  0  0  0  0  0  0  0  0  0  0  0
   56.4287   33.6346   45.3195 H   0  0  0  0  0  0  0  0  0  0  0  0
   56.8491   32.0960   46.1858 H   0  0  0  0  0  0  0  0  0  0  0  0
   60.6870   32.7380   48.2550 C   0  0  0  0  0  0  0  0  0  0  0  0
   60.6995   33.7313   48.7274 H   0  0  0  0  0  0  0  0  0  0  0  0
  1  2  1  0
  2  3  2  0
  3  4  1  0
  3  5  1  0
  5  6  1  0
  6  7  1  0
  6  8  1  0
  6  9  1  0
  9 10  2  0
 10 11  1  0
 11 12  2  0
 12 13  1  0
 12 14  1  0
 14 15  1  0
 15 16  2  3
 16 17  1  0
 17 18  2  0
 17 19  1  0
 19 20  2  0
 20 21  1  0
 20 22  1  0
 22 23  1  0
 22 24  2  0
 24 25  1  0
 24 26  1  0
 26 27  1  0
 27 28  1  0
 27 29  1  0
 27 30  1  0
 15 31  1  0
  5 32  2  0
 32 33  1  0
 32 34  1  0
 34 35  1  0
 35 36  1  0
 35 37  1  0
 35 38  1  0
 38 39  1  0
 39 40  1  0
 39 41  1  0
 39 42  1  0
 42 43  1  0
 42 44  1  0
 42 45  1  0
 45 46  1  0
 46 47  1  0
 46 48  1  0
 46 49  1  0
 49 50  1  0
 49 51  1  0
 34 52  2  0
 52 53  1  0
 52  2  1  0
 31 10  1  0
 49 38  1  0
 26 19  1  0
M  CHG  3  14  -1  24   1  31  -1
M  END
>  <UniqueID>  (49) 
44

>  <SMILES>  (49) 
Cn1[nH+]ccc1C(=O)N=c1[n-]c(Br)n/c(=N/Cc2cccc(CN3CCOCC3)c2)[n-]1

>  <Energy>  (49) 
101.64009591189601

>  <Genealogy>  (49) 
Cn1[nH+]ccc1C(=O)N=c1[n-]c(Br)nc(=NCc2cccc(CN3CCOCC3)c2)[n-]1 (protonated)
Cn1[nH+]ccc1C(=O)N=c1[n-]c(Br)n/c(=N/Cc2cccc(CN3CCOCC3)c2)[n-]1 (cis-trans isomerization)
Cn1[nH+]ccc1C(=O)N=c1[n-]c(Br)n/c(=N/Cc2cccc(CN3CCOCC3)c2)[n-]1 (3D coordinates assigned)
Cn1[nH+]ccc1C(=O)N=c1[n-]c(Br)n/c(=N/Cc2cccc(CN3CCOCC3)c2)[n-]1 (nonaromatic ring conformer: 101.64009591189601 kcal/mol)

>  <smiles>  (49) 
Cn1nccc1C(=O)N=c1[nH]c(Br)nc(=NCc2cccc(CN3CCOCC3)c2)[nH]1

>  <score_type>  (49) 
oracle

>  <origin>  (49) 
adg

>  <m_score__min__energy>  (49) 
-12.039999999999999

>  <m_primary>  (49) 
energy

$$$$
49:0
     RDKit          3D

 63 65  0  0  0  0  0  0  0  0999 V2000
   63.5220   31.9360   46.9640 N   0  0  0  0  0  0  0  0  0  0  0  0
   62.7740   33.1120   47.2980 C   0  0  0  0  0  0  0  0  0  0  0  0
   61.4280   33.2380   46.8400 N   0  0  0  0  0  0  0  0  0  0  0  0
   63.2900   34.0700   48.0140 N   0  0  0  0  0  0  0  0  0  0  0  0
   63.0530   34.2800   49.4400 C   0  0  0  0  0  0  0  0  0  0  0  0
   62.2720   33.0970   50.0250 C   0  0  0  0  0  0  0  0  0  0  0  0
   60.7530   33.3450   50.0760 C   0  0  0  0  0  0  0  0  0  0  0  0
   59.9590   32.4930   49.1170 C   0  0  0  0  0  0  0  0  0  0  0  0
   59.2990   33.0200   48.1800 O   0  0  0  0  0  0  0  0  0  0  0  0
   59.9740   31.0680   49.2660 N   0  0  0  0  0  0  0  0  0  0  0  0
   59.2060   30.2040   48.3700 C   0  0  0  0  0  0  0  0  0  0  0  0
   59.9430   29.9650   47.0830 C   0  0  0  0  0  0  0  0  0  0  0  0
   60.9990   30.6090   46.8420 O   0  0  0  0  0  0  0  0  0  0  0  0
   59.4730   28.9960   46.1310 N   0  0  0  0  0  0  0  0  0  0  0  0
   59.9180   27.6040   46.3040 C   0  0  0  0  0  0  0  0  0  0  0  0
   59.0790   26.6240   45.4650 C   0  0  0  0  0  0  0  0  0  0  0  0
   57.6540   26.9960   45.5070 N   0  0  0  0  0  0  0  0  0  0  0  0
   56.6380   25.9780   45.5570 C   0  0  0  0  0  0  0  0  0  0  0  0
   55.5180   26.2440   46.0740 O   0  0  0  0  0  0  0  0  0  0  0  0
   56.8860   24.6150   45.0310 C   0  0  0  0  0  0  0  0  0  0  0  0
   56.3950   24.2350   43.7690 C   0  0  0  0  0  0  0  0  0  0  0  0
   56.6430   22.9520   43.2720 C   0  0  0  0  0  0  0  0  0  0  0  0
   57.3840   22.0390   44.0260 C   0  0  0  0  0  0  0  0  0  0  0  0
   57.8860   22.4100   45.2760 C   0  0  0  0  0  0  0  0  0  0  0  0
   57.6430   23.6950   45.7760 C   0  0  0  0  0  0  0  0  0  0  0  0
   57.2440   28.3970   45.3180 C   0  0  0  0  0  0  0  0  0  0  0  0
   58.4700   29.2990   45.0890 C   0  0  1  0  0  0  0  0  0  0  0  0
   58.1800   30.7900   44.9320 C   0  0  0  0  0  0  0  0  0  0  0  0
   58.3510   31.3710   43.6610 C   0  0  0  0  0  0  0  0  0  0  0  0
   58.1210   32.7350   43.4630 C   0  0  0  0  0  0  0  0  0  0  0  0
   57.7210   33.5390   44.5310 C   0  0  0  0  0  0  0  0  0  0  0  0
   57.5470   32.9800   45.7970 C   0  0  0  0  0  0  0  0  0  0  0  0
   57.7720   31.6150   46.0010 C   0  0  0  0  0  0  0  0  0  0  0  0
   63.0700   31.1700   46.4170 H   0  0  0  0  0  0  0  0  0  0  0  0
   64.5160   31.8030   47.2510 H   0  0  0  0  0  0  0  0  0  0  0  0
   60.9840   32.4750   46.2810 H   0  0  0  0  0  0  0  0  0  0  0  0
   60.8700   34.0930   47.0580 H   0  0  0  0  0  0  0  0  0  0  0  0
   64.0183   34.3711   49.9596 H   0  0  0  0  0  0  0  0  0  0  0  0
   62.4663   35.2006   49.5754 H   0  0  0  0  0  0  0  0  0  0  0  0
   62.4616   32.2098   49.4029 H   0  0  0  0  0  0  0  0  0  0  0  0
   62.6170   32.9544   51.0597 H   0  0  0  0  0  0  0  0  0  0  0  0
   60.4024   33.1346   51.0972 H   0  0  0  0  0  0  0  0  0  0  0  0
   60.5916   34.3920   49.7797 H   0  0  0  0  0  0  0  0  0  0  0  0
   60.5290   30.6530   50.0490 H   0  0  0  0  0  0  0  0  0  0  0  0
   59.0289   29.2387   48.8668 H   0  0  0  0  0  0  0  0  0  0  0  0
   58.2526   30.7014   48.1385 H   0  0  0  0  0  0  0  0  0  0  0  0
   60.9706   27.5262   45.9943 H   0  0  0  0  0  0  0  0  0  0  0  0
   59.7953   27.3365   47.3639 H   0  0  0  0  0  0  0  0  0  0  0  0
   59.4288   26.6490   44.4224 H   0  0  0  0  0  0  0  0  0  0  0  0
   59.1944   25.6119   45.8802 H   0  0  0  0  0  0  0  0  0  0  0  0
   55.8129   24.9508   43.1700 H   0  0  0  0  0  0  0  0  0  0  0  0
   56.2538   22.6609   42.2852 H   0  0  0  0  0  0  0  0  0  0  0  0
   57.5723   21.0280   43.6357 H   0  0  0  0  0  0  0  0  0  0  0  0
   58.4726   21.6919   45.8678 H   0  0  0  0  0  0  0  0  0  0  0  0
   58.0467   23.9858   46.7570 H   0  0  0  0  0  0  0  0  0  0  0  0
   56.5791   28.4635   44.4442 H   0  0  0  0  0  0  0  0  0  0  0  0
   56.7207   28.7366   46.2240 H   0  0  0  0  0  0  0  0  0  0  0  0
   58.8765   29.0541   44.0966 H   0  0  0  0  0  0  0  0  0  0  0  0
   58.6691   30.7444   42.8147 H   0  0  0  0  0  0  0  0  0  0  0  0
   58.2554   33.1754   42.4640 H   0  0  0  0  0  0  0  0  0  0  0  0
   57.5430   34.6132   44.3746 H   0  0  0  0  0  0  0  0  0  0  0  0
   57.2317   33.6151   46.6379 H   0  0  0  0  0  0  0  0  0  0  0  0
   57.6298   31.1816   47.0020 H   0  0  0  0  0  0  0  0  0  0  0  0
  1  2  1  0
  2  3  1  0
  2  4  2  3
  4  5  1  0
  5  6  1  0
  6  7  1  0
  7  8  1  0
  8  9  2  0
  8 10  1  0
 10 11  1  0
 11 12  1  0
 12 13  2  0
 12 14  1  0
 14 15  1  0
 15 16  1  0
 16 17  1  0
 17 18  1  0
 18 19  2  0
 18 20  1  0
 20 21  2  0
 21 22  1  0
 22 23  2  0
 23 24  1  0
 24 25  2  0
 17 26  1  0
 26 27  1  0
 27 28  1  0
 28 29  2  0
 29 30  1  0
 30 31  2  0
 31 32  1  0
 32 33  2  0
 27 14  1  0
 33 28  1  0
 25 20  1  0
  1 34  1  0
  1 35  1  0
  3 36  1  0
  3 37  1  0
  5 38  1  0
  5 39  1  0
  6 40  1  0
  6 41  1  0
  7 42  1  0
  7 43  1  0
 10 44  1  0
 11 45  1  0
 11 46  1  0
 15 47  1  0
 15 48  1  0
 16 49  1  0
 16 50  1  0
 21 51  1  0
 22 52  1  0
 23 53  1  0
 24 54  1  0
 25 55  1  0
 26 56  1  0
 26 57  1  0
 27 58  1  6
 29 59  1  0
 30 60  1  0
 31 61  1  0
 32 62  1  0
 33 63  1  0
M  END
>  <UniqueID>  (50) 
45

>  <SMILES>  (50) 
NC(N)=NCCCC(=O)NCC(=O)N1CCN(C(=O)c2ccccc2)C[C@H]1c1ccccc1

>  <Energy>  (50) 
71.664385779673

>  <Genealogy>  (50) 
NC(N)=NCCCC(=O)NCC(=O)N1CCN(C(=O)c2ccccc2)C[C@H]1c1ccccc1 (chirality)
NC(N)=NCCCC(=O)NCC(=O)N1CCN(C(=O)c2ccccc2)C[C@H]1c1ccccc1 (3D coordinates assigned)
NC(N)=NCCCC(=O)NCC(=O)N1CCN(C(=O)c2ccccc2)C[C@H]1c1ccccc1 (nonaromatic ring conformer: 71.664385779673 kcal/mol)

>  <smiles>  (50) 
NC(N)=NCCCC(=O)NCC(=O)N1CCN(C(=O)c2ccccc2)CC1c1ccccc1

>  <score_type>  (50) 
oracle

>  <origin>  (50) 
adg

>  <m_score__min__energy>  (50) 
-9.8399999999999999

>  <m_primary>  (50) 
energy

$$$$
50:0
     RDKit          3D

 51 53  0  0  0  0  0  0  0  0999 V2000
   54.5740   30.4820   51.9900 C   0  0  0  0  0  0  0  0  0  0  0  0
   55.9590   30.5600   52.6240 C   0  0  0  0  0  0  0  0  0  0  0  0
   56.9730   30.4940   51.6240 O   0  0  0  0  0  0  0  0  0  0  0  0
   57.8580   31.5430   51.3380 C   0  0  0  0  0  0  0  0  0  0  0  0
   57.7940   32.7080   52.0460 N   0  0  0  0  0  0  0  0  0  0  0  0
   58.6500   33.7390   51.8180 C   0  0  0  0  0  0  0  0  0  0  0  0
   59.6400   33.6210   50.8440 C   0  0  0  0  0  0  0  0  0  0  0  0
   59.7310   32.4430   50.1010 C   0  0  0  0  0  0  0  0  0  0  0  0
   58.8270   31.3920   50.3260 C   0  0  0  0  0  0  0  0  0  0  0  0
   58.9050   30.1640   49.5010 C   0  0  0  0  0  0  0  0  0  0  0  0
   58.2330   29.1540   49.8350 O   0  0  0  0  0  0  0  0  0  0  0  0
   59.7210   30.0940   48.3220 N   0  0  0  0  0  0  0  0  0  0  0  0
   59.3450   29.4580   47.0910 C   0  0  0  0  0  0  0  0  0  0  0  0
   60.1060   28.3900   46.6130 C   0  0  0  0  0  0  0  0  0  0  0  0
   59.7580   27.7510   45.4210 C   0  0  0  0  0  0  0  0  0  0  0  0
   58.6450   28.1810   44.6760 C   0  0  0  0  0  0  0  0  0  0  0  0
   58.3030   27.4690   43.3930 C   0  0  0  0  0  0  0  0  0  0  0  0
   57.8650   29.2610   45.1600 C   0  0  0  0  0  0  0  0  0  0  0  0
   56.4310   29.8530   44.3040 S   0  0  0  0  0  0  0  0  0  0  0  0
   56.7090   29.8580   42.8280 O   0  0  0  0  0  0  0  0  0  0  0  0
   55.2500   28.9740   44.6080 O   0  0  0  0  0  0  0  0  0  0  0  0
   56.0760   31.4660   44.8330 N   0  0  0  0  0  0  0  0  0  0  0  0
   57.0470   32.4630   45.1750 C   0  0  0  0  0  0  0  0  0  0  0  0
   57.9810   32.8440   44.2060 C   0  0  0  0  0  0  0  0  0  0  0  0
   58.9450   33.8160   44.4930 C   0  0  0  0  0  0  0  0  0  0  0  0
   58.9780   34.4320   45.7550 C   0  0  0  0  0  0  0  0  0  0  0  0
   60.0110   35.4710   46.0650 C   0  0  0  0  0  0  0  0  0  0  0  0
   58.0590   34.0340   46.7370 C   0  0  0  0  0  0  0  0  0  0  0  0
   57.0950   33.0610   46.4490 C   0  0  0  0  0  0  0  0  0  0  0  0
   58.2440   29.9050   46.3460 C   0  0  0  0  0  0  0  0  0  0  0  0
   53.8106   30.4390   52.7808 H   0  0  0  0  0  0  0  0  0  0  0  0
   54.4057   31.3721   51.3660 H   0  0  0  0  0  0  0  0  0  0  0  0
   54.5067   29.5786   51.3660 H   0  0  0  0  0  0  0  0  0  0  0  0
   56.0528   31.5092   53.1719 H   0  0  0  0  0  0  0  0  0  0  0  0
   56.0828   29.7101   53.3113 H   0  0  0  0  0  0  0  0  0  0  0  0
   58.5614   34.6667   52.4024 H   0  0  0  0  0  0  0  0  0  0  0  0
   60.3424   34.4479   50.6627 H   0  0  0  0  0  0  0  0  0  0  0  0
   60.5142   32.3373   49.3359 H   0  0  0  0  0  0  0  0  0  0  0  0
   60.9856   28.0494   47.1789 H   0  0  0  0  0  0  0  0  0  0  0  0
   60.3599   26.9035   45.0613 H   0  0  0  0  0  0  0  0  0  0  0  0
   57.8374   26.4997   43.6245 H   0  0  0  0  0  0  0  0  0  0  0  0
   57.6014   28.0826   42.8089 H   0  0  0  0  0  0  0  0  0  0  0  0
   59.2206   27.3049   42.8089 H   0  0  0  0  0  0  0  0  0  0  0  0
   57.9572   32.3758   43.2109 H   0  0  0  0  0  0  0  0  0  0  0  0
   59.6812   34.0995   43.7264 H   0  0  0  0  0  0  0  0  0  0  0  0
   60.1126   35.5731   47.1555 H   0  0  0  0  0  0  0  0  0  0  0  0
   60.9765   35.1683   45.6336 H   0  0  0  0  0  0  0  0  0  0  0  0
   59.7027   36.4348   45.6336 H   0  0  0  0  0  0  0  0  0  0  0  0
   58.0961   34.4886   47.7380 H   0  0  0  0  0  0  0  0  0  0  0  0
   56.3713   32.7620   47.2216 H   0  0  0  0  0  0  0  0  0  0  0  0
   57.6690   30.7743   46.6978 H   0  0  0  0  0  0  0  0  0  0  0  0
  1  2  1  0
  2  3  1  0
  3  4  1  0
  4  5  2  0
  5  6  1  0
  6  7  2  0
  7  8  1  0
  8  9  2  0
  9 10  1  0
 10 11  2  0
 10 12  1  0
 12 13  1  0
 13 14  2  0
 14 15  1  0
 15 16  2  0
 16 17  1  0
 16 18  1  0
 18 19  1  0
 19 20  2  0
 19 21  2  0
 19 22  1  0
 22 23  1  0
 23 24  2  0
 24 25  1  0
 25 26  2  0
 26 27  1  0
 26 28  1  0
 28 29  2  0
 18 30  2  0
  9  4  1  0
 30 13  1  0
 29 23  1  0
  1 31  1  0
  1 32  1  0
  1 33  1  0
  2 34  1  0
  2 35  1  0
  6 36  1  0
  7 37  1  0
  8 38  1  0
 14 39  1  0
 15 40  1  0
 17 41  1  0
 17 42  1  0
 17 43  1  0
 24 44  1  0
 25 45  1  0
 27 46  1  0
 27 47  1  0
 27 48  1  0
 28 49  1  0
 29 50  1  0
 30 51  1  0
M  CHG  2  12  -1  22  -1
M  END
>  <UniqueID>  (51) 
46

>  <SMILES>  (51) 
CCOc1ncccc1C(=O)[N-]c1ccc(C)c(S(=O)(=O)[N-]c2ccc(C)cc2)c1

>  <Energy>  (51) 
60.55592059202345

>  <Genealogy>  (51) 
CCOc1ncccc1C(=O)[N-]c1ccc(C)c(S(=O)(=O)[N-]c2ccc(C)cc2)c1 (protonated)
CCOc1ncccc1C(=O)[N-]c1ccc(C)c(S(=O)(=O)[N-]c2ccc(C)cc2)c1 (3D coordinates assigned)
CCOc1ncccc1C(=O)[N-]c1ccc(C)c(S(=O)(=O)[N-]c2ccc(C)cc2)c1 (optimized conformer: 60.55592059202345 kcal/mol)

>  <smiles>  (51) 
CCOc1ncccc1C(=O)Nc1ccc(C)c(S(=O)(=O)Nc2ccc(C)cc2)c1

>  <score_type>  (51) 
oracle

>  <origin>  (51) 
adg

>  <m_score__min__energy>  (51) 
-12.24

>  <m_primary>  (51) 
energy

$$$$
51:0
     RDKit          3D

 48 51  0  0  0  0  0  0  0  0999 V2000
   59.8290   27.9280   46.5690 C   0  0  0  0  0  0  0  0  0  0  0  0
   58.9180   28.6720   45.9200 C   0  0  0  0  0  0  0  0  0  0  0  0
   57.9530   28.2210   45.0060 C   0  0  0  0  0  0  0  0  0  0  0  0
   57.5460   26.9750   44.6900 C   0  0  0  0  0  0  0  0  0  0  0  0
   57.0940   25.9530   45.6460 C   0  0  0  0  0  0  0  0  0  0  0  0
   57.8220   24.8740   45.9800 N   0  0  0  0  0  0  0  0  0  0  0  0
   56.9840   24.1610   46.7630 C   0  0  0  0  0  0  0  0  0  0  0  0
   57.3160   23.0700   47.2940 O   0  0  0  0  0  0  0  0  0  0  0  0
   55.7570   24.7040   46.9240 N   0  0  0  0  0  0  0  0  0  0  0  0
   55.8370   25.8290   46.1960 C   0  0  0  0  0  0  0  0  0  0  0  0
   54.7780   26.7100   46.0190 O   0  0  0  0  0  0  0  0  0  0  0  0
   57.4160   29.3550   44.4170 C   0  0  0  0  0  0  0  0  0  0  0  0
   58.0050   30.4410   45.0310 C   0  0  0  0  0  0  0  0  0  0  0  0
   57.6960   31.8720   44.7060 C   0  0  0  0  0  0  0  0  0  0  0  0
   58.9170   30.0310   45.9400 N   0  0  0  0  0  0  0  0  0  0  0  0
   59.7420   30.8880   46.7490 C   0  0  0  0  0  0  0  0  0  0  0  0
   61.1350   30.7290   46.7520 C   0  0  0  0  0  0  0  0  0  0  0  0
   61.9380   31.5550   47.5420 C   0  0  0  0  0  0  0  0  0  0  0  0
   61.3590   32.5490   48.3500 C   0  0  0  0  0  0  0  0  0  0  0  0
   62.2070   33.4340   49.1830 C   0  0  0  0  0  0  0  0  0  0  0  0
   61.8860   34.6460   49.3190 O   0  0  0  0  0  0  0  0  0  0  0  0
   63.3960   32.9420   49.8270 N   0  0  0  0  0  0  0  0  0  0  0  0
   64.6930   33.0700   49.1500 C   0  0  0  0  0  0  0  0  0  0  0  0
   65.7810   33.3860   50.1750 C   0  0  0  0  0  0  0  0  0  0  0  0
   65.7350   32.4410   51.2860 N   0  0  0  0  0  0  0  0  0  0  0  0
   64.5040   31.8670   51.7380 C   0  0  0  0  0  0  0  0  0  0  0  0
   64.4740   31.2350   52.8270 O   0  0  0  0  0  0  0  0  0  0  0  0
   63.2590   31.9510   50.9000 C   0  0  0  0  0  0  0  0  0  0  0  0
   59.9630   32.7150   48.3340 C   0  0  0  0  0  0  0  0  0  0  0  0
   59.1610   31.8870   47.5420 C   0  0  0  0  0  0  0  0  0  0  0  0
   60.5347   28.4057   47.2645 H   0  0  0  0  0  0  0  0  0  0  0  0
   59.8692   26.8410   46.4049 H   0  0  0  0  0  0  0  0  0  0  0  0
   57.5526   26.6991   43.6252 H   0  0  0  0  0  0  0  0  0  0  0  0
   56.6645   29.3836   43.6142 H   0  0  0  0  0  0  0  0  0  0  0  0
   57.5730   32.4416   45.6390 H   0  0  0  0  0  0  0  0  0  0  0  0
   58.5221   32.3016   44.1203 H   0  0  0  0  0  0  0  0  0  0  0  0
   56.7663   31.9225   44.1203 H   0  0  0  0  0  0  0  0  0  0  0  0
   61.5980   29.9496   46.1289 H   0  0  0  0  0  0  0  0  0  0  0  0
   63.0305   31.4268   47.5318 H   0  0  0  0  0  0  0  0  0  0  0  0
   64.9341   32.1254   48.6405 H   0  0  0  0  0  0  0  0  0  0  0  0
   64.6399   33.8847   48.4128 H   0  0  0  0  0  0  0  0  0  0  0  0
   66.7652   33.3225   49.6878 H   0  0  0  0  0  0  0  0  0  0  0  0
   65.6131   34.4000   50.5668 H   0  0  0  0  0  0  0  0  0  0  0  0
   66.5920   32.3260   51.8750 H   0  0  0  0  0  0  0  0  0  0  0  0
   63.0626   30.9654   50.4527 H   0  0  0  0  0  0  0  0  0  0  0  0
   62.4271   32.2603   51.5498 H   0  0  0  0  0  0  0  0  0  0  0  0
   59.4988   33.5008   48.9480 H   0  0  0  0  0  0  0  0  0  0  0  0
   58.0691   32.0204   47.5415 H   0  0  0  0  0  0  0  0  0  0  0  0
  1  2  2  0
  2  3  1  0
  3  4  2  3
  4  5  1  0
  5  6  1  0
  6  7  1  0
  7  8  2  0
  7  9  1  0
  9 10  1  0
 10 11  1  0
  3 12  1  0
 12 13  2  0
 13 14  1  0
 13 15  1  0
 15 16  1  0
 16 17  2  0
 17 18  1  0
 18 19  2  0
 19 20  1  0
 20 21  2  0
 20 22  1  0
 22 23  1  0
 23 24  1  0
 24 25  1  0
 25 26  1  0
 26 27  2  0
 26 28  1  0
 19 29  1  0
 29 30  2  0
 15  2  1  0
 30 16  1  0
 10  5  2  0
 28 22  1  0
  1 31  1  0
  1 32  1  0
  4 33  1  0
 12 34  1  0
 14 35  1  0
 14 36  1  0
 14 37  1  0
 17 38  1  0
 18 39  1  0
 23 40  1  0
 23 41  1  0
 24 42  1  0
 24 43  1  0
 25 44  1  0
 28 45  1  0
 28 46  1  0
 29 47  1  0
 30 48  1  0
M  CHG  3   6  -1   9  -1  11  -1
M  END
>  <UniqueID>  (52) 
47

>  <SMILES>  (52) 
C=c1c(=Cc2[n-]c(=O)[n-]c2[O-])cc(C)n1-c1ccc(C(=O)N2CCNC(=O)C2)cc1

>  <Energy>  (52) 
130.28094352104208

>  <Genealogy>  (52) 
C=c1c(=Cc2[n-]c(=O)[n-]c2[O-])cc(C)n1-c1ccc(C(=O)N2CCNC(=O)C2)cc1 (protonated)
C=c1c(=Cc2[n-]c(=O)[n-]c2[O-])cc(C)n1-c1ccc(C(=O)N2CCNC(=O)C2)cc1 (3D coordinates assigned)
C=c1c(=Cc2[n-]c(=O)[n-]c2[O-])cc(C)n1-c1ccc(C(=O)N2CCNC(=O)C2)cc1 (nonaromatic ring conformer: 130.28094352104208 kcal/mol)

>  <smiles>  (52) 
C=c1c(=Cc2[nH]c(=O)[nH]c2O)cc(C)n1-c1ccc(C(=O)N2CCNC(=O)C2)cc1

>  <score_type>  (52) 
oracle

>  <origin>  (52) 
adg

>  <m_score__min__energy>  (52) 
-15.49

>  <m_primary>  (52) 
energy

$$$$
52:0
     RDKit          3D

 40 42  0  0  0  0  0  0  0  0999 V2000
   56.8070   22.3040   42.9950 O   0  0  0  0  0  0  0  0  0  0  0  0
   56.3350   22.3630   44.1650 C   0  0  0  0  0  0  0  0  0  0  0  0
   56.2940   23.6790   44.8400 C   0  0  0  0  0  0  0  0  0  0  0  0
   55.1890   24.5120   44.9220 C   0  0  0  0  0  0  0  0  0  0  0  0
   55.5960   25.5960   45.6690 C   0  0  0  0  0  0  0  0  0  0  0  0
   54.7870   26.6720   46.0160 O   0  0  0  0  0  0  0  0  0  0  0  0
   56.8880   25.4740   46.0320 N   0  0  0  0  0  0  0  0  0  0  0  0
   57.6450   26.3750   46.8980 C   0  0  0  0  0  0  0  0  0  0  0  0
   58.1820   27.5260   46.0940 C   0  0  0  0  0  0  0  0  0  0  0  0
   59.5550   27.6170   45.8120 C   0  0  0  0  0  0  0  0  0  0  0  0
   60.0440   28.6660   45.0280 C   0  0  0  0  0  0  0  0  0  0  0  0
   59.1670   29.6240   44.5120 C   0  0  0  0  0  0  0  0  0  0  0  0
   57.7980   29.5320   44.7760 C   0  0  0  0  0  0  0  0  0  0  0  0
   57.3040   28.4850   45.5600 C   0  0  0  0  0  0  0  0  0  0  0  0
   57.3210   24.2970   45.5390 C   0  0  0  0  0  0  0  0  0  0  0  0
   55.7930   21.1740   44.8030 N   0  0  0  0  0  0  0  0  0  0  0  0
   56.8650   20.1950   45.0810 C   0  0  0  0  0  0  0  0  0  0  0  0
   57.8270   20.6690   46.1940 C   0  0  0  0  0  0  0  0  0  0  0  0
   57.2240   21.6880   47.0670 N   0  0  0  0  0  0  0  0  0  0  0  0
   55.8140   21.3930   47.3260 C   0  0  0  0  0  0  0  0  0  0  0  0
   54.9960   21.4840   46.0210 C   0  0  0  0  0  0  0  0  0  0  0  0
   54.1949   24.3430   44.4825 H   0  0  0  0  0  0  0  0  0  0  0  0
   56.9854   26.7595   47.6899 H   0  0  0  0  0  0  0  0  0  0  0  0
   58.4844   25.8246   47.3480 H   0  0  0  0  0  0  0  0  0  0  0  0
   60.2476   26.8604   46.2093 H   0  0  0  0  0  0  0  0  0  0  0  0
   61.1212   28.7375   44.8168 H   0  0  0  0  0  0  0  0  0  0  0  0
   59.5545   30.4504   43.8981 H   0  0  0  0  0  0  0  0  0  0  0  0
   57.1079   30.2844   44.3665 H   0  0  0  0  0  0  0  0  0  0  0  0
   56.2247   28.4115   45.7596 H   0  0  0  0  0  0  0  0  0  0  0  0
   58.3338   23.8886   45.6706 H   0  0  0  0  0  0  0  0  0  0  0  0
   55.1300   20.7300   44.1270 H   0  0  0  0  0  0  0  0  0  0  0  0
   56.4039   19.2466   45.3939 H   0  0  0  0  0  0  0  0  0  0  0  0
   57.4540   20.0745   44.1598 H   0  0  0  0  0  0  0  0  0  0  0  0
   58.1097   19.8014   46.8083 H   0  0  0  0  0  0  0  0  0  0  0  0
   58.7021   21.1235   45.7066 H   0  0  0  0  0  0  0  0  0  0  0  0
   57.7340   21.6780   47.9820 H   0  0  0  0  0  0  0  0  0  0  0  0
   55.7263   20.3770   47.7385 H   0  0  0  0  0  0  0  0  0  0  0  0
   55.4221   22.1282   48.0443 H   0  0  0  0  0  0  0  0  0  0  0  0
   54.1606   20.7710   46.0823 H   0  0  0  0  0  0  0  0  0  0  0  0
   54.6483   22.5233   45.9266 H   0  0  0  0  0  0  0  0  0  0  0  0
  1  2  2  0
  2  3  1  0
  3  4  1  0
  4  5  2  0
  5  6  1  0
  5  7  1  0
  7  8  1  0
  8  9  1  0
  9 10  2  0
 10 11  1  0
 11 12  2  0
 12 13  1  0
 13 14  2  0
  7 15  1  0
  2 16  1  0
 16 17  1  0
 17 18  1  0
 18 19  1  0
 19 20  1  0
 20 21  1  0
 15  3  2  0
 21 16  1  0
 14  9  1  0
  4 22  1  0
  8 23  1  0
  8 24  1  0
 10 25  1  0
 11 26  1  0
 12 27  1  0
 13 28  1  0
 14 29  1  0
 15 30  1  0
 16 31  1  0
 17 32  1  0
 17 33  1  0
 18 34  1  0
 18 35  1  0
 19 36  1  0
 20 37  1  0
 20 38  1  0
 21 39  1  0
 21 40  1  0
M  CHG  2   6  -1  16   1
M  END
>  <UniqueID>  (53) 
48

>  <SMILES>  (53) 
O=C(c1cc([O-])n(Cc2ccccc2)c1)[NH+]1CCNCC1

>  <Energy>  (53) 
77.69465004728758

>  <Genealogy>  (53) 
O=C(c1cc([O-])n(Cc2ccccc2)c1)[NH+]1CCNCC1 (protonated)
O=C(c1cc([O-])n(Cc2ccccc2)c1)[NH+]1CCNCC1 (3D coordinates assigned)
O=C(c1cc([O-])n(Cc2ccccc2)c1)[NH+]1CCNCC1 (nonaromatic ring conformer: 77.69465004728758 kcal/mol)

>  <smiles>  (53) 
O=C(c1cc(O)n(Cc2ccccc2)c1)N1CCNCC1

>  <score_type>  (53) 
oracle

>  <origin>  (53) 
adg

>  <m_score__min__energy>  (53) 
-8.8000000000000007

>  <m_primary>  (53) 
energy

$$$$
53:0
     RDKit          3D

 47 49  0  0  0  0  0  0  0  0999 V2000
   66.7920   32.0290   50.5800 C   0  0  0  0  0  0  0  0  0  0  0  0
   65.4750   32.7960   50.6300 C   0  0  0  0  0  0  0  0  0  0  0  0
   65.0720   33.1960   49.3200 O   0  0  0  0  0  0  0  0  0  0  0  0
   63.7510   33.4370   48.9100 C   0  0  0  0  0  0  0  0  0  0  0  0
   63.4120   33.1560   47.5800 C   0  0  0  0  0  0  0  0  0  0  0  0
   62.1120   33.3730   47.1160 C   0  0  0  0  0  0  0  0  0  0  0  0
   61.1200   33.8490   47.9800 C   0  0  0  0  0  0  0  0  0  0  0  0
   59.8040   34.0890   47.4540 N   0  0  0  0  0  0  0  0  0  0  0  0
   59.3020   33.6080   46.3540 C   0  0  0  0  0  0  0  0  0  0  0  0
   59.2570   34.3480   45.2140 N   0  0  0  0  0  0  0  0  0  0  0  0
   58.7180   33.8500   44.0730 C   0  0  0  0  0  0  0  0  0  0  0  0
   58.1930   32.5530   44.0460 C   0  0  0  0  0  0  0  0  0  0  0  0
   57.6420   32.0050   42.7560 C   0  0  0  0  0  0  0  0  0  0  0  0
   58.2010   31.8140   45.2520 C   0  0  0  0  0  0  0  0  0  0  0  0
   57.6330   30.4530   45.3580 C   0  0  0  0  0  0  0  0  0  0  0  0
   58.3210   29.4590   46.0630 C   0  0  0  0  0  0  0  0  0  0  0  0
   57.7760   28.1780   46.1860 C   0  0  0  0  0  0  0  0  0  0  0  0
   56.5220   27.8990   45.6100 C   0  0  0  0  0  0  0  0  0  0  0  0
   55.9570   26.7290   45.6840 N   0  0  0  0  0  0  0  0  0  0  0  0
   56.6220   25.2850   46.3880 S   0  0  0  0  0  0  0  0  0  0  0  0
   57.4940   24.3410   45.1550 C   0  0  0  0  0  0  0  0  0  0  0  0
   57.5370   25.6370   47.5270 O   0  0  0  0  0  0  0  0  0  0  0  0
   55.4930   24.4480   46.9200 O   0  0  0  0  0  0  0  0  0  0  0  0
   55.8640   28.8920   44.9520 N   0  0  0  0  0  0  0  0  0  0  0  0
   56.3770   30.1440   44.8180 C   0  0  0  0  0  0  0  0  0  0  0  0
   58.7670   32.3600   46.3610 N   0  0  0  0  0  0  0  0  0  0  0  0
   61.4590   34.1570   49.3100 C   0  0  0  0  0  0  0  0  0  0  0  0
   62.7610   33.9420   49.7750 C   0  0  0  0  0  0  0  0  0  0  0  0
   67.1381   31.8275   51.6045 H   0  0  0  0  0  0  0  0  0  0  0  0
   66.6420   31.0770   50.0497 H   0  0  0  0  0  0  0  0  0  0  0  0
   67.5460   32.6292   50.0497 H   0  0  0  0  0  0  0  0  0  0  0  0
   64.6979   32.1505   51.0652 H   0  0  0  0  0  0  0  0  0  0  0  0
   65.6141   33.6962   51.2467 H   0  0  0  0  0  0  0  0  0  0  0  0
   64.1763   32.7609   46.8947 H   0  0  0  0  0  0  0  0  0  0  0  0
   61.8667   33.1680   46.0635 H   0  0  0  0  0  0  0  0  0  0  0  0
   58.6935   34.4690   43.1641 H   0  0  0  0  0  0  0  0  0  0  0  0
   56.8780   31.2451   42.9771 H   0  0  0  0  0  0  0  0  0  0  0  0
   57.1894   32.8216   42.1743 H   0  0  0  0  0  0  0  0  0  0  0  0
   58.4561   31.5480   42.1743 H   0  0  0  0  0  0  0  0  0  0  0  0
   59.2943   29.6868   46.5220 H   0  0  0  0  0  0  0  0  0  0  0  0
   58.3230   27.3932   46.7291 H   0  0  0  0  0  0  0  0  0  0  0  0
   58.1607   23.6192   45.6495 H   0  0  0  0  0  0  0  0  0  0  0  0
   56.7702   23.8009   44.5270 H   0  0  0  0  0  0  0  0  0  0  0  0
   58.0897   25.0198   44.5270 H   0  0  0  0  0  0  0  0  0  0  0  0
   55.8045   30.9168   44.2841 H   0  0  0  0  0  0  0  0  0  0  0  0
   60.6968   34.5689   49.9878 H   0  0  0  0  0  0  0  0  0  0  0  0
   63.0126   34.1686   50.8216 H   0  0  0  0  0  0  0  0  0  0  0  0
  1  2  1  0
  2  3  1  0
  3  4  1  0
  4  5  2  0
  5  6  1  0
  6  7  2  0
  7  8  1  0
  8  9  2  3
  9 10  1  0
 10 11  2  0
 11 12  1  0
 12 13  1  0
 12 14  2  0
 14 15  1  0
 15 16  1  0
 16 17  2  0
 17 18  1  0
 18 19  2  3
 19 20  1  0
 20 21  1  0
 20 22  2  0
 20 23  2  0
 18 24  1  0
 24 25  1  0
 14 26  1  0
  7 27  1  0
 27 28  2  0
 28  4  1  0
 26  9  1  0
 25 15  2  0
  1 29  1  0
  1 30  1  0
  1 31  1  0
  2 32  1  0
  2 33  1  0
  5 34  1  0
  6 35  1  0
 11 36  1  0
 13 37  1  0
 13 38  1  0
 13 39  1  0
 16 40  1  0
 17 41  1  0
 21 42  1  0
 21 43  1  0
 21 44  1  0
 25 45  1  0
 27 46  1  0
 28 47  1  0
M  CHG  2  24  -1  26  -1
M  END
>  <UniqueID>  (54) 
49

>  <SMILES>  (54) 
CCOc1ccc(N=c2ncc(C)c(-c3ccc(=NS(C)(=O)=O)[n-]c3)[n-]2)cc1

>  <Energy>  (54) 
63.11388044751159

>  <Genealogy>  (54) 
CCOc1ccc(N=c2ncc(C)c(-c3ccc(=NS(C)(=O)=O)[n-]c3)[n-]2)cc1 (protonated)
CCOc1ccc(N=c2ncc(C)c(-c3ccc(=NS(C)(=O)=O)[n-]c3)[n-]2)cc1 (3D coordinates assigned)
CCOc1ccc(N=c2ncc(C)c(-c3ccc(=NS(C)(=O)=O)[n-]c3)[n-]2)cc1 (optimized conformer: 63.11388044751159 kcal/mol)

>  <smiles>  (54) 
CCOc1ccc(N=c2ncc(C)c(-c3ccc(=NS(C)(=O)=O)[nH]c3)[nH]2)cc1

>  <score_type>  (54) 
oracle

>  <origin>  (54) 
adg

>  <m_score__min__energy>  (54) 
-11.699999999999999

>  <m_primary>  (54) 
energy

$$$$
54:0
     RDKit          3D

 66 70  0  0  0  0  0  0  0  0999 V2000
   55.5110   29.8340   43.0200 O   0  0  0  0  0  0  0  0  0  0  0  0
   56.1270   30.1360   44.0740 C   0  0  0  0  0  0  0  0  0  0  0  0
   56.0070   29.2710   45.2160 N   0  0  0  0  0  0  0  0  0  0  0  0
   56.5180   28.0790   45.3330 C   0  0  0  0  0  0  0  0  0  0  0  0
   57.7730   27.8120   44.7700 C   0  0  0  0  0  0  0  0  0  0  0  0
   58.3090   26.5260   44.8680 C   0  0  0  0  0  0  0  0  0  0  0  0
   57.6010   25.5260   45.5360 C   0  0  0  0  0  0  0  0  0  0  0  0
   56.3630   25.8300   46.1030 C   0  0  0  0  0  0  0  0  0  0  0  0
   55.8530   27.0860   45.9910 N   0  0  0  0  0  0  0  0  0  0  0  0
   56.9270   31.3300   44.0910 N   0  0  0  0  0  0  0  0  0  0  0  0
   57.3420   31.9670   45.1480 C   0  0  0  0  0  0  0  0  0  0  0  0
   57.1360   33.2900   45.3170 N   0  0  0  0  0  0  0  0  0  0  0  0
   57.6740   33.7420   46.4830 C   0  0  0  0  0  0  0  0  0  0  0  0
   58.3040   32.7670   47.2510 C   0  0  0  0  0  0  0  0  0  0  0  0
   59.0560   32.9780   48.4940 C   0  0  0  0  0  0  0  0  0  0  0  0
   58.5680   32.5410   49.6840 N   0  0  0  0  0  0  0  0  0  0  0  0
   59.2320   32.7860   50.8440 C   0  0  0  0  0  0  0  0  0  0  0  0
   58.7620   32.3680   51.9330 O   0  0  0  0  0  0  0  0  0  0  0  0
   60.4270   33.5130   50.8220 C   0  0  0  0  0  0  0  0  0  0  0  0
   61.1180   33.7850   51.9990 O   0  0  0  0  0  0  0  0  0  0  0  0
   60.9100   33.9640   49.5930 C   0  0  0  0  0  0  0  0  0  0  0  0
   62.0870   34.7220   49.5400 O   0  0  0  0  0  0  0  0  0  0  0  0
   63.1850   34.5450   50.4370 C   0  0  0  0  0  0  0  0  0  0  0  0
   63.9230   33.2270   50.1770 C   0  0  0  0  0  0  0  0  0  0  0  0
   63.4310   32.1830   51.0730 N   0  0  0  0  0  0  0  0  0  0  0  0
   64.3070   31.2830   51.7700 C   0  0  0  0  0  0  0  0  0  0  0  0
   65.5230   31.1960   51.4500 O   0  0  0  0  0  0  0  0  0  0  0  0
   63.7710   30.4180   52.8700 C   0  0  0  0  0  0  0  0  0  0  0  0
   62.9730   29.3140   52.3110 N   0  0  0  0  0  0  0  0  0  0  0  0
   63.3910   28.0310   52.5080 C   0  0  0  0  0  0  0  0  0  0  0  0
   62.6650   26.9670   51.9950 C   0  0  0  0  0  0  0  0  0  0  0  0
   63.0930   25.6920   52.1880 F   0  0  0  0  0  0  0  0  0  0  0  0
   61.5020   27.2290   51.2790 C   0  0  0  0  0  0  0  0  0  0  0  0
   60.8480   26.2610   50.8040 O   0  0  0  0  0  0  0  0  0  0  0  0
   61.0780   28.5220   51.0970 N   0  0  0  0  0  0  0  0  0  0  0  0
   59.8730   28.7960   50.2860 C   0  0  0  0  0  0  0  0  0  0  0  0
   60.2660   29.2130   48.8910 C   0  0  0  0  0  0  0  0  0  0  0  0
   59.8470   28.4610   47.7800 C   0  0  0  0  0  0  0  0  0  0  0  0
   60.2550   28.8190   46.4910 C   0  0  0  0  0  0  0  0  0  0  0  0
   61.0850   29.9250   46.3010 C   0  0  0  0  0  0  0  0  0  0  0  0
   61.5090   30.6790   47.4000 C   0  0  0  0  0  0  0  0  0  0  0  0
   62.5540   32.0670   47.1600 Cl  0  0  0  0  0  0  0  0  0  0  0  0
   61.1040   30.3240   48.6910 C   0  0  0  0  0  0  0  0  0  0  0  0
   61.8110   29.5600   51.6230 C   0  0  0  0  0  0  0  0  0  0  0  0
   61.4140   30.7500   51.4760 O   0  0  0  0  0  0  0  0  0  0  0  0
   60.2180   33.6810   48.4590 N   0  0  0  0  0  0  0  0  0  0  0  0
   58.1680   31.2930   46.4550 S   0  0  0  0  0  0  0  0  0  0  0  0
   58.3311   28.6081   44.2554 H   0  0  0  0  0  0  0  0  0  0  0  0
   59.2879   26.3017   44.4192 H   0  0  0  0  0  0  0  0  0  0  0  0
   58.0143   24.5096   45.6146 H   0  0  0  0  0  0  0  0  0  0  0  0
   55.7991   25.0536   46.6408 H   0  0  0  0  0  0  0  0  0  0  0  0
   57.6154   34.7955   46.7939 H   0  0  0  0  0  0  0  0  0  0  0  0
   63.8896   35.3797   50.3070 H   0  0  0  0  0  0  0  0  0  0  0  0
   62.7889   34.5195   51.4629 H   0  0  0  0  0  0  0  0  0  0  0  0
   63.7568   32.9180   49.1345 H   0  0  0  0  0  0  0  0  0  0  0  0
   64.9973   33.3773   50.3597 H   0  0  0  0  0  0  0  0  0  0  0  0
   62.4160   32.1860   51.3160 H   0  0  0  0  0  0  0  0  0  0  0  0
   64.6107   30.0027   53.4466 H   0  0  0  0  0  0  0  0  0  0  0  0
   63.1293   31.0275   53.5232 H   0  0  0  0  0  0  0  0  0  0  0  0
   64.3116   27.8387   53.0785 H   0  0  0  0  0  0  0  0  0  0  0  0
   59.2565   27.8865   50.2330 H   0  0  0  0  0  0  0  0  0  0  0  0
   59.3024   29.6105   50.7560 H   0  0  0  0  0  0  0  0  0  0  0  0
   59.1952   27.5869   47.9249 H   0  0  0  0  0  0  0  0  0  0  0  0
   59.9212   28.2279   45.6254 H   0  0  0  0  0  0  0  0  0  0  0  0
   61.4058   30.2037   45.2864 H   0  0  0  0  0  0  0  0  0  0  0  0
   61.4427   30.9167   49.5535 H   0  0  0  0  0  0  0  0  0  0  0  0
  1  2  2  0
  2  3  1  0
  3  4  2  3
  4  5  1  0
  5  6  2  0
  6  7  1  0
  7  8  2  0
  8  9  1  0
  2 10  1  0
 10 11  2  3
 11 12  1  0
 12 13  1  0
 13 14  2  0
 14 15  1  0
 15 16  2  0
 16 17  1  0
 17 18  2  0
 17 19  1  0
 19 20  1  0
 19 21  2  0
 21 22  1  0
 22 23  1  0
 23 24  1  0
 24 25  1  0
 25 26  1  0
 26 27  2  0
 26 28  1  0
 28 29  1  0
 29 30  1  0
 30 31  2  0
 31 32  1  0
 31 33  1  0
 33 34  2  0
 33 35  1  0
 35 36  1  0
 36 37  1  0
 37 38  2  0
 38 39  1  0
 39 40  2  0
 40 41  1  0
 41 42  1  0
 41 43  2  0
 35 44  1  0
 44 45  2  0
 21 46  1  0
 14 47  1  0
  9  4  1  0
 47 11  1  0
 46 15  1  0
 44 29  1  0
 43 37  1  0
  5 48  1  0
  6 49  1  0
  7 50  1  0
  8 51  1  0
 13 52  1  0
 23 53  1  0
 23 54  1  0
 24 55  1  0
 24 56  1  0
 25 57  1  0
 28 58  1  0
 28 59  1  0
 30 60  1  0
 36 61  1  0
 36 62  1  0
 38 63  1  0
 39 64  1  0
 40 65  1  0
 43 66  1  0
M  CHG  4   9  -1  12  -1  20  -1  46  -1
M  END
>  <UniqueID>  (55) 
50

>  <SMILES>  (55) 
O=C(N=c1cccc[n-]1)N=c1[n-]cc(-c2nc(=O)c([O-])c(OCCNC(=O)Cn3cc(F)c(=O)n(Cc4cccc(Cl)c4)c3=O)[n-]2)s1

>  <Energy>  (55) 
111.8657649416285

>  <Genealogy>  (55) 
O=C(N=c1cccc[n-]1)N=c1[n-]cc(-c2nc(=O)c([O-])c(OCCNC(=O)Cn3cc(F)c(=O)n(Cc4cccc(Cl)c4)c3=O)[n-]2)s1 (protonated)
O=C(N=c1cccc[n-]1)N=c1[n-]cc(-c2nc(=O)c([O-])c(OCCNC(=O)Cn3cc(F)c(=O)n(Cc4cccc(Cl)c4)c3=O)[n-]2)s1 (3D coordinates assigned)
O=C(N=c1cccc[n-]1)N=c1[n-]cc(-c2nc(=O)c([O-])c(OCCNC(=O)Cn3cc(F)c(=O)n(Cc4cccc(Cl)c4)c3=O)[n-]2)s1 (optimized conformer: 111.8657649416285 kcal/mol)

>  <smiles>  (55) 
O=C(N=c1cccc[nH]1)N=c1[nH]cc(-c2nc(=O)c(O)c(OCCNC(=O)Cn3cc(F)c(=O)n(Cc4cccc(Cl)c4)c3=O)[nH]2)s1

>  <score_type>  (55) 
oracle

>  <origin>  (55) 
adg

>  <m_score__min__energy>  (55) 
-14.65

>  <m_primary>  (55) 
energy

$$$$
55:0
     RDKit          3D

 53 56  0  0  0  0  0  0  0  0999 V2000
   65.8800   33.0990   48.6460 H   0  0  0  0  0  0  0  0  0  0  0  0
   65.0740   33.3390   49.1730 O   0  0  0  0  0  0  0  0  0  0  0  0
   64.0420   32.4810   48.7560 C   0  0  0  0  0  0  0  0  0  0  0  0
   64.3598   31.4295   48.8129 H   0  0  0  0  0  0  0  0  0  0  0  0
   63.7040   32.7830   47.2780 C   0  0  0  0  0  0  0  0  0  0  0  0
   64.2863   32.1052   46.6365 H   0  0  0  0  0  0  0  0  0  0  0  0
   63.9562   33.8360   47.0839 H   0  0  0  0  0  0  0  0  0  0  0  0
   62.2160   32.5940   46.9710 C   0  0  0  0  0  0  0  0  0  0  0  0
   61.9385   31.5434   47.1419 H   0  0  0  0  0  0  0  0  0  0  0  0
   62.0251   32.8620   45.9214 H   0  0  0  0  0  0  0  0  0  0  0  0
   61.4120   33.4600   47.8470 N   0  0  0  0  0  0  0  0  0  0  0  0
   60.2830   34.1890   47.3280 C   0  0  0  0  0  0  0  0  0  0  0  0
   60.0280   35.3390   47.7810 O   0  0  0  0  0  0  0  0  0  0  0  0
   59.4090   33.6230   46.2760 C   0  0  0  0  0  0  0  0  0  0  0  0
   58.9820   34.4140   45.1960 C   0  0  0  0  0  0  0  0  0  0  0  0
   59.2898   35.4683   45.1346 H   0  0  0  0  0  0  0  0  0  0  0  0
   58.1680   33.8680   44.1990 C   0  0  0  0  0  0  0  0  0  0  0  0
   57.8326   34.4952   43.3599 H   0  0  0  0  0  0  0  0  0  0  0  0
   57.7800   32.5290   44.2660 C   0  0  0  0  0  0  0  0  0  0  0  0
   57.1376   32.1046   43.4803 H   0  0  0  0  0  0  0  0  0  0  0  0
   58.2060   31.7230   45.3310 C   0  0  0  0  0  0  0  0  0  0  0  0
   57.8220   30.3380   45.3920 N   0  0  0  0  0  0  0  0  0  0  0  0
   57.0810   29.6840   44.4690 C   0  0  0  0  0  0  0  0  0  0  0  0
   56.5530   30.2900   43.2050 C   0  0  0  0  0  0  0  0  0  0  0  0
   55.8489   31.0982   43.4521 H   0  0  0  0  0  0  0  0  0  0  0  0
   57.3884   30.6984   42.6173 H   0  0  0  0  0  0  0  0  0  0  0  0
   56.0340   29.5184   42.6173 H   0  0  0  0  0  0  0  0  0  0  0  0
   56.8900   28.3700   44.8490 C   0  0  0  0  0  0  0  0  0  0  0  0
   56.3356   27.5996   44.2930 H   0  0  0  0  0  0  0  0  0  0  0  0
   57.5330   28.2100   46.0680 C   0  0  0  0  0  0  0  0  0  0  0  0
   57.5660   27.0860   46.8080 C   0  0  0  0  0  0  0  0  0  0  0  0
   58.0155   27.1352   47.8108 H   0  0  0  0  0  0  0  0  0  0  0  0
   57.0290   25.7870   46.3430 C   0  0  0  0  0  0  0  0  0  0  0  0
   55.6760   25.6310   45.9940 C   0  0  0  0  0  0  0  0  0  0  0  0
   54.7910   26.7000   46.0760 O   0  0  0  0  0  0  0  0  0  0  0  0
   55.2250   24.4290   45.5500 N   0  0  0  0  0  0  0  0  0  0  0  0
   56.0640   23.3700   45.4190 C   0  0  0  0  0  0  0  0  0  0  0  0
   55.4920   21.9390   44.8840 S   0  0  0  0  0  0  0  0  0  0  0  0
   57.3800   23.5040   45.7220 N   0  0  0  0  0  0  0  0  0  0  0  0
   57.8810   24.6840   46.1710 C   0  0  0  0  0  0  0  0  0  0  0  0
   59.1090   24.7720   46.4400 O   0  0  0  0  0  0  0  0  0  0  0  0
   58.1010   29.4490   46.3790 C   0  0  0  0  0  0  0  0  0  0  0  0
   58.8510   29.7330   47.4570 C   0  0  0  0  0  0  0  0  0  0  0  0
   59.2473   30.7493   47.5991 H   0  0  0  0  0  0  0  0  0  0  0  0
   59.0687   28.9493   48.1975 H   0  0  0  0  0  0  0  0  0  0  0  0
   59.0280   32.2720   46.3280 C   0  0  0  0  0  0  0  0  0  0  0  0
   59.3767   31.6387   47.1570 H   0  0  0  0  0  0  0  0  0  0  0  0
   61.8430   33.7020   49.2320 C   0  0  0  0  0  0  0  0  0  0  0  0
   60.9609   33.6957   49.8892 H   0  0  0  0  0  0  0  0  0  0  0  0
   62.3499   34.6773   49.2751 H   0  0  0  0  0  0  0  0  0  0  0  0
   62.8250   32.6210   49.7010 C   0  0  0  0  0  0  0  0  0  0  0  0
   62.2965   31.6571   49.7418 H   0  0  0  0  0  0  0  0  0  0  0  0
   63.2013   32.9161   50.6916 H   0  0  0  0  0  0  0  0  0  0  0  0
  1  2  1  0
  2  3  1  0
  3  4  1  0
  3  5  1  0
  5  6  1  0
  5  7  1  0
  5  8  1  0
  8  9  1  0
  8 10  1  0
  8 11  1  0
 11 12  1  0
 12 13  2  0
 12 14  1  0
 14 15  2  0
 15 16  1  0
 15 17  1  0
 17 18  1  0
 17 19  2  0
 19 20  1  0
 19 21  1  0
 21 22  1  0
 22 23  1  0
 23 24  1  0
 24 25  1  0
 24 26  1  0
 24 27  1  0
 23 28  2  0
 28 29  1  0
 28 30  1  0
 30 31  2  0
 31 32  1  0
 31 33  1  0
 33 34  2  0
 34 35  1  0
 34 36  1  0
 36 37  1  0
 37 38  2  0
 37 39  1  0
 39 40  1  0
 40 41  2  0
 30 42  1  0
 42 43  2  0
 43 44  1  0
 43 45  1  0
 21 46  2  0
 46 47  1  0
 11 48  1  0
 48 49  1  0
 48 50  1  0
 48 51  1  0
 51 52  1  0
 51 53  1  0
 51  3  1  0
 46 14  1  0
 42 22  1  0
 40 33  1  0
M  CHG  3  35  -1  36  -1  39  -1
M  END
>  <UniqueID>  (56) 
51

>  <SMILES>  (56) 
C=c1/c(=C/c2c([O-])[n-]c(=S)[n-]c2=O)cc(C)n1-c1cccc(C(=O)N2CCC(O)CC2)c1

>  <Energy>  (56) 
107.27987477318017

>  <Genealogy>  (56) 
C=c1c(=Cc2c([O-])[n-]c(=S)[n-]c2=O)cc(C)n1-c1cccc(C(=O)N2CCC(O)CC2)c1 (protonated)
C=c1/c(=C/c2c([O-])[n-]c(=S)[n-]c2=O)cc(C)n1-c1cccc(C(=O)N2CCC(O)CC2)c1 (cis-trans isomerization)
C=c1/c(=C/c2c([O-])[n-]c(=S)[n-]c2=O)cc(C)n1-c1cccc(C(=O)N2CCC(O)CC2)c1 (3D coordinates assigned)
C=c1/c(=C/c2c([O-])[n-]c(=S)[n-]c2=O)cc(C)n1-c1cccc(C(=O)N2CCC(O)CC2)c1 (nonaromatic ring conformer: 107.27987477318017 kcal/mol)

>  <smiles>  (56) 
C=c1c(=Cc2c(O)[nH]c(=S)[nH]c2=O)cc(C)n1-c1cccc(C(=O)N2CCC(O)CC2)c1

>  <score_type>  (56) 
oracle

>  <origin>  (56) 
adg

>  <m_score__min__energy>  (56) 
-17.559999999999999

>  <m_primary>  (56) 
energy

$$$$
56:0
     RDKit          3D

 44 47  0  0  0  0  0  0  0  0999 V2000
   60.8970   29.6769   44.1417 H   0  0  0  0  0  0  0  0  0  0  0  0
   60.1170   28.9470   44.4040 C   0  0  0  0  0  0  0  0  0  0  0  0
   59.8857   28.1188   43.7180 H   0  0  0  0  0  0  0  0  0  0  0  0
   59.4470   29.0670   45.5620 C   0  0  0  0  0  0  0  0  0  0  0  0
   58.4300   28.2170   46.0310 C   0  0  0  0  0  0  0  0  0  0  0  0
   57.7510   27.2250   45.4200 C   0  0  0  0  0  0  0  0  0  0  0  0
   57.6194   27.3039   44.3308 H   0  0  0  0  0  0  0  0  0  0  0  0
   57.1710   26.0470   46.0820 C   0  0  0  0  0  0  0  0  0  0  0  0
   57.9080   25.0790   46.6560 N   0  0  0  0  0  0  0  0  0  0  0  0
   56.9820   24.2880   47.2400 C   0  0  0  0  0  0  0  0  0  0  0  0
   57.2860   23.2440   47.8750 O   0  0  0  0  0  0  0  0  0  0  0  0
   55.7060   24.7080   47.1000 N   0  0  0  0  0  0  0  0  0  0  0  0
   55.8440   25.8310   46.3770 C   0  0  0  0  0  0  0  0  0  0  0  0
   54.7830   26.6550   46.0210 O   0  0  0  0  0  0  0  0  0  0  0  0
   58.1700   28.6030   47.3330 C   0  0  0  0  0  0  0  0  0  0  0  0
   57.4595   28.1297   48.0267 H   0  0  0  0  0  0  0  0  0  0  0  0
   58.9700   29.6930   47.5960 C   0  0  0  0  0  0  0  0  0  0  0  0
   58.9290   30.4800   48.8710 C   0  0  0  0  0  0  0  0  0  0  0  0
   58.9649   29.7915   49.7282 H   0  0  0  0  0  0  0  0  0  0  0  0
   59.7930   31.1597   48.9103 H   0  0  0  0  0  0  0  0  0  0  0  0
   57.9991   31.0663   48.9103 H   0  0  0  0  0  0  0  0  0  0  0  0
   59.7460   29.9850   46.5250 N   0  0  0  0  0  0  0  0  0  0  0  0
   60.6940   31.1100   46.4570 C   0  0  0  0  0  0  0  0  0  0  0  0
   61.5184   30.9314   47.1631 H   0  0  0  0  0  0  0  0  0  0  0  0
   61.0822   31.1855   45.4306 H   0  0  0  0  0  0  0  0  0  0  0  0
   60.0030   32.4120   46.8160 C   0  0  0  0  0  0  0  0  0  0  0  0
   60.5950   33.2310   47.7960 C   0  0  0  0  0  0  0  0  0  0  0  0
   61.5015   32.8879   48.3162 H   0  0  0  0  0  0  0  0  0  0  0  0
   60.0450   34.4730   48.1150 C   0  0  0  0  0  0  0  0  0  0  0  0
   60.5201   35.1028   48.8815 H   0  0  0  0  0  0  0  0  0  0  0  0
   58.8970   34.9170   47.4660 C   0  0  0  0  0  0  0  0  0  0  0  0
   58.4745   35.9029   47.7099 H   0  0  0  0  0  0  0  0  0  0  0  0
   58.2810   34.1130   46.5060 C   0  0  0  0  0  0  0  0  0  0  0  0
   57.3714   34.4690   46.0001 H   0  0  0  0  0  0  0  0  0  0  0  0
   58.8110   32.8530   46.1790 C   0  0  0  0  0  0  0  0  0  0  0  0
   58.0810   32.0210   45.2000 C   0  0  0  0  0  0  0  0  0  0  0  0
   57.0940   31.1800   45.6190 N   0  0  0  0  0  0  0  0  0  0  0  0
   56.4030   30.4280   44.7610 N   0  0  0  0  0  0  0  0  0  0  0  0
   56.6500   30.4700   43.4260 C   0  0  0  0  0  0  0  0  0  0  0  0
   55.9840   29.7470   42.6400 O   0  0  0  0  0  0  0  0  0  0  0  0
   57.6400   31.3210   42.9360 C   0  0  0  0  0  0  0  0  0  0  0  0
   57.8499   31.3689   41.8573 H   0  0  0  0  0  0  0  0  0  0  0  0
   58.3600   32.1100   43.8310 C   0  0  0  0  0  0  0  0  0  0  0  0
   59.1391   32.7953   43.4658 H   0  0  0  0  0  0  0  0  0  0  0  0
  1  2  1  0
  2  3  1  0
  2  4  2  0
  4  5  1  0
  5  6  2  0
  6  7  1  0
  6  8  1  0
  8  9  1  0
  9 10  1  0
 10 11  2  0
 10 12  1  0
 12 13  1  0
 13 14  1  0
  5 15  1  0
 15 16  1  0
 15 17  2  0
 17 18  1  0
 18 19  1  0
 18 20  1  0
 18 21  1  0
 17 22  1  0
 22 23  1  0
 23 24  1  0
 23 25  1  0
 23 26  1  0
 26 27  2  0
 27 28  1  0
 27 29  1  0
 29 30  1  0
 29 31  2  0
 31 32  1  0
 31 33  1  0
 33 34  1  0
 33 35  2  0
 35 36  1  0
 36 37  2  0
 37 38  1  0
 38 39  1  0
 39 40  2  0
 39 41  1  0
 41 42  1  0
 41 43  2  0
 43 44  1  0
 22  4  1  0
 35 26  1  0
 43 36  1  0
 13  8  2  0
M  CHG  4   9  -1  12  -1  14  -1  38  -1
M  END
>  <UniqueID>  (57) 
52

>  <SMILES>  (57) 
C=c1/c(=C\c2[n-]c(=O)[n-]c2[O-])cc(C)n1Cc1ccccc1-c1ccc(=O)[n-]n1

>  <Energy>  (57) 
127.19844453468062

>  <Genealogy>  (57) 
C=c1c(=Cc2[n-]c(=O)[n-]c2[O-])cc(C)n1Cc1ccccc1-c1ccc(=O)[n-]n1 (protonated)
C=c1/c(=C\c2[n-]c(=O)[n-]c2[O-])cc(C)n1Cc1ccccc1-c1ccc(=O)[n-]n1 (cis-trans isomerization)
C=c1/c(=C\c2[n-]c(=O)[n-]c2[O-])cc(C)n1Cc1ccccc1-c1ccc(=O)[n-]n1 (3D coordinates assigned)
C=c1/c(=C\c2[n-]c(=O)[n-]c2[O-])cc(C)n1Cc1ccccc1-c1ccc(=O)[n-]n1 (optimized conformer: 127.19844453468062 kcal/mol)

>  <smiles>  (57) 
C=c1c(=Cc2[nH]c(=O)[nH]c2O)cc(C)n1Cc1ccccc1-c1ccc(=O)[nH]n1

>  <score_type>  (57) 
oracle

>  <origin>  (57) 
adg

>  <m_score__min__energy>  (57) 
-18.280000000000001

>  <m_primary>  (57) 
energy

$$$$
57:0
     RDKit          3D

 29 30  0  0  0  0  0  0  0  0999 V2000
   60.0340   28.7340   44.7950 C   0  0  0  0  0  0  0  0  0  0  0  0
   58.7830   28.3290   45.0620 C   0  0  0  0  0  0  0  0  0  0  0  0
   58.6410   27.0680   45.5540 N   0  0  0  0  0  0  0  0  0  0  0  0
   57.4420   26.5250   45.8910 C   0  0  0  0  0  0  0  0  0  0  0  0
   57.3520   25.1750   46.3730 N   0  0  0  0  0  0  0  0  0  0  0  0
   56.4760   24.6810   47.2020 C   0  0  0  0  0  0  0  0  0  0  0  0
   55.5920   23.5370   46.8960 C   0  0  0  0  0  0  0  0  0  0  0  0
   55.9270   22.2620   47.3710 C   0  0  0  0  0  0  0  0  0  0  0  0
   55.1180   21.1600   47.0720 C   0  0  0  0  0  0  0  0  0  0  0  0
   55.4580   19.9070   47.5700 O   0  0  0  0  0  0  0  0  0  0  0  0
   53.9740   21.3230   46.2730 C   0  0  0  0  0  0  0  0  0  0  0  0
   53.1500   20.2400   45.9680 O   0  0  0  0  0  0  0  0  0  0  0  0
   53.6540   22.5920   45.7710 C   0  0  0  0  0  0  0  0  0  0  0  0
   52.5310   22.7630   44.9700 O   0  0  0  0  0  0  0  0  0  0  0  0
   54.4660   23.6910   46.0700 C   0  0  0  0  0  0  0  0  0  0  0  0
   56.2780   27.2630   45.6890 C   0  0  0  0  0  0  0  0  0  0  0  0
   55.0380   26.7110   45.9950 O   0  0  0  0  0  0  0  0  0  0  0  0
   56.3600   28.5620   45.1840 C   0  0  0  0  0  0  0  0  0  0  0  0
   55.1800   29.2820   45.0040 O   0  0  0  0  0  0  0  0  0  0  0  0
   57.6160   29.1310   44.8620 C   0  0  0  0  0  0  0  0  0  0  0  0
   57.6590   30.3910   44.3840 C   0  0  0  0  0  0  0  0  0  0  0  0
   60.2119   29.7433   44.3954 H   0  0  0  0  0  0  0  0  0  0  0  0
   60.8817   28.0567   44.9757 H   0  0  0  0  0  0  0  0  0  0  0  0
   56.3889   25.1463   48.1949 H   0  0  0  0  0  0  0  0  0  0  0  0
   56.8313   22.1265   47.9825 H   0  0  0  0  0  0  0  0  0  0  0  0
   53.3240   19.3110   46.3340 H   0  0  0  0  0  0  0  0  0  0  0  0
   54.2218   24.6806   45.6564 H   0  0  0  0  0  0  0  0  0  0  0  0
   58.6256   30.8496   44.1284 H   0  0  0  0  0  0  0  0  0  0  0  0
   56.7275   30.9604   44.2496 H   0  0  0  0  0  0  0  0  0  0  0  0
  1  2  2  0
  2  3  1  0
  3  4  2  0
  4  5  1  0
  5  6  2  3
  6  7  1  0
  7  8  2  0
  8  9  1  0
  9 10  1  0
  9 11  2  0
 11 12  1  0
 11 13  1  0
 13 14  1  0
 13 15  2  0
  4 16  1  0
 16 17  1  0
 16 18  2  0
 18 19  1  0
 18 20  1  0
 20 21  2  0
 20  2  1  0
 15  7  1  0
  1 22  1  0
  1 23  1  0
  6 24  1  0
  8 25  1  0
 12 26  1  0
 15 27  1  0
 21 28  1  0
 21 29  1  0
M  CHG  4  10  -1  14  -1  17  -1  19  -1
M  END
>  <UniqueID>  (58) 
53

>  <SMILES>  (58) 
C=c1nc(N=Cc2cc([O-])c(O)c([O-])c2)c([O-])c([O-])c1=C

>  <Energy>  (58) 
47.77683597721309

>  <Genealogy>  (58) 
C=c1nc(N=Cc2cc([O-])c(O)c([O-])c2)c([O-])c([O-])c1=C (protonated)
C=c1nc(N=Cc2cc([O-])c(O)c([O-])c2)c([O-])c([O-])c1=C (3D coordinates assigned)
C=c1nc(N=Cc2cc([O-])c(O)c([O-])c2)c([O-])c([O-])c1=C (optimized conformer: 47.77683597721309 kcal/mol)

>  <smiles>  (58) 
C=c1nc(N=Cc2cc(O)c(O)c(O)c2)c(O)c(O)c1=C

>  <score_type>  (58) 
oracle

>  <origin>  (58) 
adg

>  <m_score__min__energy>  (58) 
-16.23

>  <m_primary>  (58) 
energy

$$$$
58:0
     RDKit          3D

 47 49  0  0  0  0  0  0  0  0999 V2000
   53.2423   24.3410   45.8033 H   0  0  0  0  0  0  0  0  0  0  0  0
   54.3040   24.5930   45.6640 C   0  0  0  0  0  0  0  0  0  0  0  0
   54.7340   25.8620   45.8870 N   0  0  0  0  0  0  0  0  0  0  0  0
   56.0350   26.2300   45.7240 C   0  0  0  0  0  0  0  0  0  0  0  0
   56.3600   27.4700   45.9590 N   0  0  0  0  0  0  0  0  0  0  0  0
   56.4390   28.5590   45.0240 C   0  0  0  0  0  0  0  0  0  0  0  0
   55.5750   29.4720   45.0860 O   0  0  0  0  0  0  0  0  0  0  0  0
   57.4530   28.5980   43.9070 C   0  0  0  0  0  0  0  0  0  0  0  0
   58.4143   28.2223   44.2873 H   0  0  0  0  0  0  0  0  0  0  0  0
   57.0764   27.9709   43.0854 H   0  0  0  0  0  0  0  0  0  0  0  0
   57.6480   29.9540   43.3870 N   0  0  0  0  0  0  0  0  0  0  0  0
   57.3990   30.1200   42.3860 H   0  0  0  0  0  0  0  0  0  0  0  0
   58.1090   31.0700   44.1730 C   0  0  0  0  0  0  0  0  0  0  0  0
   57.8990   32.3730   43.6980 C   0  0  0  0  0  0  0  0  0  0  0  0
   57.4067   32.5256   42.7262 H   0  0  0  0  0  0  0  0  0  0  0  0
   58.3090   33.4790   44.4470 C   0  0  0  0  0  0  0  0  0  0  0  0
   58.1289   34.4944   44.0643 H   0  0  0  0  0  0  0  0  0  0  0  0
   58.9500   33.3040   45.6860 C   0  0  0  0  0  0  0  0  0  0  0  0
   59.3810   34.4760   46.4830 C   0  0  0  0  0  0  0  0  0  0  0  0
   58.5300   35.1440   47.1330 O   0  0  0  0  0  0  0  0  0  0  0  0
   60.7660   34.8390   46.5390 N   0  0  0  0  0  0  0  0  0  0  0  0
   61.7430   34.1840   47.3570 C   0  0  0  0  0  0  0  0  0  0  0  0
   62.9430   33.7740   46.7580 C   0  0  0  0  0  0  0  0  0  0  0  0
   63.1261   33.9956   45.6962 H   0  0  0  0  0  0  0  0  0  0  0  0
   63.9070   33.0870   47.4980 C   0  0  0  0  0  0  0  0  0  0  0  0
   64.8432   32.7658   47.0180 H   0  0  0  0  0  0  0  0  0  0  0  0
   63.6830   32.8080   48.8460 C   0  0  0  0  0  0  0  0  0  0  0  0
   64.4325   32.2452   49.4219 H   0  0  0  0  0  0  0  0  0  0  0  0
   62.5080   33.2420   49.4670 C   0  0  0  0  0  0  0  0  0  0  0  0
   62.3421   33.0287   50.5333 H   0  0  0  0  0  0  0  0  0  0  0  0
   61.5380   33.9490   48.7370 C   0  0  0  0  0  0  0  0  0  0  0  0
   60.3980   34.4780   49.4260 N   0  0  0  0  0  0  0  0  0  0  0  0
   60.1580   34.1800   50.3970 H   0  0  0  0  0  0  0  0  0  0  0  0
   59.7260   35.1070   48.9340 H   0  0  0  0  0  0  0  0  0  0  0  0
   59.1730   31.9980   46.1560 C   0  0  0  0  0  0  0  0  0  0  0  0
   59.6797   31.8443   47.1202 H   0  0  0  0  0  0  0  0  0  0  0  0
   58.7560   30.8930   45.4080 C   0  0  0  0  0  0  0  0  0  0  0  0
   58.9357   29.8769   45.7891 H   0  0  0  0  0  0  0  0  0  0  0  0
   56.9770   25.2530   45.3420 C   0  0  0  0  0  0  0  0  0  0  0  0
   58.0402   25.5188   45.2468 H   0  0  0  0  0  0  0  0  0  0  0  0
   56.5540   23.9420   45.0840 C   0  0  0  0  0  0  0  0  0  0  0  0
   57.5490   22.8850   44.7090 C   0  0  0  0  0  0  0  0  0  0  0  0
   57.9701   22.4376   45.6214 H   0  0  0  0  0  0  0  0  0  0  0  0
   57.0495   22.1053   44.1152 H   0  0  0  0  0  0  0  0  0  0  0  0
   58.3574   23.3366   44.1152 H   0  0  0  0  0  0  0  0  0  0  0  0
   55.2050   23.6090   45.2590 C   0  0  0  0  0  0  0  0  0  0  0  0
   54.8594   22.5804   45.0786 H   0  0  0  0  0  0  0  0  0  0  0  0
  1  2  1  0
  2  3  1  0
  3  4  1  0
  4  5  2  0
  5  6  1  0
  6  7  2  0
  6  8  1  0
  8  9  1  0
  8 10  1  0
  8 11  1  0
 11 12  1  0
 11 13  1  0
 13 14  2  0
 14 15  1  0
 14 16  1  0
 16 17  1  0
 16 18  2  0
 18 19  1  0
 19 20  2  0
 19 21  1  0
 21 22  1  0
 22 23  2  0
 23 24  1  0
 23 25  1  0
 25 26  1  0
 25 27  2  0
 27 28  1  0
 27 29  1  0
 29 30  1  0
 29 31  2  0
 31 32  1  0
 32 33  1  0
 32 34  1  0
 18 35  1  0
 35 36  1  0
 35 37  2  0
 37 38  1  0
  4 39  1  0
 39 40  1  0
 39 41  2  0
 41 42  1  0
 42 43  1  0
 42 44  1  0
 42 45  1  0
 41 46  1  0
 46 47  1  0
 46  2  2  0
 37 13  1  0
 31 22  1  0
M  CHG  2   3  -1  21  -1
M  END
>  <UniqueID>  (59) 
54

>  <SMILES>  (59) 
Cc1cc[n-]/c(=N/C(=O)CNc2ccc(C(=O)[N-]c3ccccc3N)cc2)c1

>  <Energy>  (59) 
64.98753539593707

>  <Genealogy>  (59) 
Cc1cc[n-]c(=NC(=O)CNc2ccc(C(=O)[N-]c3ccccc3N)cc2)c1 (protonated)
Cc1cc[n-]/c(=N/C(=O)CNc2ccc(C(=O)[N-]c3ccccc3N)cc2)c1 (cis-trans isomerization)
Cc1cc[n-]/c(=N/C(=O)CNc2ccc(C(=O)[N-]c3ccccc3N)cc2)c1 (3D coordinates assigned)
Cc1cc[n-]/c(=N/C(=O)CNc2ccc(C(=O)[N-]c3ccccc3N)cc2)c1 (optimized conformer: 64.98753539593707 kcal/mol)

>  <smiles>  (59) 
Cc1cc[nH]c(=NC(=O)CNc2ccc(C(=O)Nc3ccccc3N)cc2)c1

>  <score_type>  (59) 
oracle

>  <origin>  (59) 
adg

>  <m_score__min__energy>  (59) 
-10.99

>  <m_primary>  (59) 
energy

$$$$
59:0
     RDKit          3D

 23 24  0  0  0  0  0  0  0  0999 V2000
   57.5110   25.3580   46.7480 C   0  0  0  0  0  0  0  0  0  0  0  0
   57.3090   26.5530   46.1850 C   0  0  0  0  0  0  0  0  0  0  0  0
   58.3710   27.3730   45.9730 N   0  0  0  0  0  0  0  0  0  0  0  0
   58.2400   28.5990   45.4020 C   0  0  0  0  0  0  0  0  0  0  0  0
   59.2620   29.3270   45.2960 O   0  0  0  0  0  0  0  0  0  0  0  0
   56.9570   29.0380   44.9880 C   0  0  0  0  0  0  0  0  0  0  0  0
   56.7010   30.2240   44.3960 C   0  0  0  0  0  0  0  0  0  0  0  0
   57.4570   31.4740   44.5820 C   0  0  0  0  0  0  0  0  0  0  0  0
   57.7870   32.3950   43.5880 C   0  0  0  0  0  0  0  0  0  0  0  0
   58.3720   33.5650   44.0880 C   0  0  0  0  0  0  0  0  0  0  0  0
   58.4670   33.5700   45.4740 C   0  0  0  0  0  0  0  0  0  0  0  0
   58.9940   34.6360   46.2690 N   0  0  0  0  0  0  0  0  0  0  0  0
   58.8750   34.6200   47.5110 O   0  0  0  0  0  0  0  0  0  0  0  0
   59.6350   35.6930   45.6650 O   0  0  0  0  0  0  0  0  0  0  0  0
   57.8240   32.1400   46.0850 S   0  0  0  0  0  0  0  0  0  0  0  0
   55.8960   28.2200   45.2330 N   0  0  0  0  0  0  0  0  0  0  0  0
   56.0290   27.0000   45.8130 C   0  0  0  0  0  0  0  0  0  0  0  0
   55.0050   26.2910   46.0020 O   0  0  0  0  0  0  0  0  0  0  0  0
   56.6608   24.6831   46.9260 H   0  0  0  0  0  0  0  0  0  0  0  0
   58.5275   25.0493   47.0335 H   0  0  0  0  0  0  0  0  0  0  0  0
   55.8439   30.2602   43.7074 H   0  0  0  0  0  0  0  0  0  0  0  0
   57.6057   32.2197   42.5173 H   0  0  0  0  0  0  0  0  0  0  0  0
   58.7193   34.3919   43.4512 H   0  0  0  0  0  0  0  0  0  0  0  0
  1  2  2  0
  2  3  1  0
  3  4  1  0
  4  5  2  0
  4  6  1  0
  6  7  2  3
  7  8  1  0
  8  9  2  0
  9 10  1  0
 10 11  2  0
 11 12  1  0
 12 13  2  0
 12 14  1  0
 11 15  1  0
  6 16  1  0
 16 17  1  0
 17 18  2  0
 17  2  1  0
 15  8  1  0
  1 19  1  0
  1 20  1  0
  7 21  1  0
  9 22  1  0
 10 23  1  0
M  CHG  4   3  -1  12   1  14  -1  16  -1
M  END
>  <UniqueID>  (60) 
55

>  <SMILES>  (60) 
C=c1[n-]c(=O)c(=Cc2ccc([N+](=O)[O-])s2)[n-]c1=O

>  <Energy>  (60) 
64.46070007896259

>  <Genealogy>  (60) 
C=c1[n-]c(=O)c(=Cc2ccc([N+](=O)[O-])s2)[n-]c1=O (protonated)
C=c1[n-]c(=O)c(=Cc2ccc([N+](=O)[O-])s2)[n-]c1=O (3D coordinates assigned)
C=c1[n-]c(=O)c(=Cc2ccc([N+](=O)[O-])s2)[n-]c1=O (optimized conformer: 64.46070007896259 kcal/mol)

>  <smiles>  (60) 
C=c1[nH]c(=O)c(=Cc2ccc([N+](=O)[O-])s2)[nH]c1=O

>  <score_type>  (60) 
oracle

>  <origin>  (60) 
adg

>  <m_score__min__energy>  (60) 
-10.130000000000001

>  <m_primary>  (60) 
energy

$$$$
60:0
     RDKit          3D

 70 75  0  0  0  0  0  0  0  0999 V2000
   56.0880   29.7340   42.9780 C   0  0  0  0  0  0  0  0  0  0  0  0
   56.1060   29.9750   44.4840 C   0  0  0  0  0  0  0  0  0  0  0  0
   57.3960   30.6270   44.9100 C   0  0  0  0  0  0  0  0  0  0  0  0
   57.5840   32.0200   44.8360 C   0  0  0  0  0  0  0  0  0  0  0  0
   58.8020   32.4550   45.3500 C   0  0  0  0  0  0  0  0  0  0  0  0
   59.2200   33.8730   45.4460 C   0  0  0  0  0  0  0  0  0  0  0  0
   58.8640   34.6500   44.5150 O   0  0  0  0  0  0  0  0  0  0  0  0
   59.9870   34.4180   46.5580 N   0  0  0  0  0  0  0  0  0  0  0  0
   59.1590   34.6960   47.7670 C   0  0  0  0  0  0  0  0  0  0  0  0
   59.8050   34.2000   49.0560 C   0  0  0  0  0  0  0  0  0  0  0  0
   60.1530   32.7880   48.8780 N   0  0  0  0  0  0  0  0  0  0  0  0
   60.3980   32.0700   50.1470 C   0  0  0  0  0  0  0  0  0  0  0  0
   59.2510   32.1590   51.1220 C   0  0  0  0  0  0  0  0  0  0  0  0
   59.2730   32.9750   52.2520 C   0  0  0  0  0  0  0  0  0  0  0  0
   57.8180   32.7660   53.0670 S   0  0  0  0  0  0  0  0  0  0  0  0
   57.2180   31.6720   51.9430 C   0  0  0  0  0  0  0  0  0  0  0  0
   55.9090   30.9680   52.0550 C   0  0  0  0  0  0  0  0  0  0  0  0
   58.1100   31.4340   50.9590 N   0  0  0  0  0  0  0  0  0  0  0  0
   61.2170   32.5850   47.8740 C   0  0  0  0  0  0  0  0  0  0  0  0
   61.2610   33.6830   46.7830 C   0  0  0  0  0  0  0  0  0  0  0  0
   59.6450   31.1050   45.8790 S   0  0  0  0  0  0  0  0  0  0  0  0
   58.4750   29.9570   45.5020 C   0  0  0  0  0  0  0  0  0  0  0  0
   58.6110   28.5010   45.7330 C   0  0  0  0  0  0  0  0  0  0  0  0
   57.9890   27.6570   44.8670 N   0  0  0  0  0  0  0  0  0  0  0  0
   58.0960   26.3080   44.9480 C   0  0  0  0  0  0  0  0  0  0  0  0
   57.4160   25.4990   44.0300 C   0  0  0  0  0  0  0  0  0  0  0  0
   57.5310   24.1060   44.0870 C   0  0  0  0  0  0  0  0  0  0  0  0
   56.8250   23.3400   43.1470 O   0  0  0  0  0  0  0  0  0  0  0  0
   56.9500   21.9280   43.0010 C   0  0  0  0  0  0  0  0  0  0  0  0
   58.3440   23.5220   45.0760 C   0  0  0  0  0  0  0  0  0  0  0  0
   59.0270   24.3240   45.9960 C   0  0  0  0  0  0  0  0  0  0  0  0
   58.9040   25.7250   45.9440 C   0  0  0  0  0  0  0  0  0  0  0  0
   59.5660   26.5640   46.8590 C   0  0  0  0  0  0  0  0  0  0  0  0
   60.3200   26.0650   47.7410 O   0  0  0  0  0  0  0  0  0  0  0  0
   59.3890   27.9630   46.7920 C   0  0  0  0  0  0  0  0  0  0  0  0
   60.0750   28.8510   47.8110 C   0  0  0  0  0  0  0  0  0  0  0  0
   60.0100   28.3630   49.2550 C   0  0  0  0  0  0  0  0  0  0  0  0
   59.1580   29.5370   48.8200 C   0  0  0  0  0  0  0  0  0  0  0  0
   56.0074   28.6549   42.7803 H   0  0  0  0  0  0  0  0  0  0  0  0
   55.2262   30.2535   42.5338 H   0  0  0  0  0  0  0  0  0  0  0  0
   57.0175   30.1198   42.5338 H   0  0  0  0  0  0  0  0  0  0  0  0
   55.2650   30.6308   44.7536 H   0  0  0  0  0  0  0  0  0  0  0  0
   56.0172   29.0053   44.9957 H   0  0  0  0  0  0  0  0  0  0  0  0
   56.8351   32.7038   44.4099 H   0  0  0  0  0  0  0  0  0  0  0  0
   60.2950   35.3660   46.2280 H   0  0  0  0  0  0  0  0  0  0  0  0
   59.0072   35.7826   47.8461 H   0  0  0  0  0  0  0  0  0  0  0  0
   58.2076   34.1573   47.6463 H   0  0  0  0  0  0  0  0  0  0  0  0
   60.7132   34.7840   49.2664 H   0  0  0  0  0  0  0  0  0  0  0  0
   59.1093   34.3171   49.8999 H   0  0  0  0  0  0  0  0  0  0  0  0
   60.5778   31.0094   49.9174 H   0  0  0  0  0  0  0  0  0  0  0  0
   61.2659   32.5473   50.6254 H   0  0  0  0  0  0  0  0  0  0  0  0
   60.0964   33.6379   52.5562 H   0  0  0  0  0  0  0  0  0  0  0  0
   55.6556   30.8317   53.1167 H   0  0  0  0  0  0  0  0  0  0  0  0
   55.1273   31.5674   51.5655 H   0  0  0  0  0  0  0  0  0  0  0  0
   55.9781   29.9854   51.5655 H   0  0  0  0  0  0  0  0  0  0  0  0
   62.1866   32.5723   48.3933 H   0  0  0  0  0  0  0  0  0  0  0  0
   61.0012   31.6342   47.3647 H   0  0  0  0  0  0  0  0  0  0  0  0
   62.0282   34.4164   47.0719 H   0  0  0  0  0  0  0  0  0  0  0  0
   61.4774   33.1607   45.8394 H   0  0  0  0  0  0  0  0  0  0  0  0
   56.7856   25.9628   43.2570 H   0  0  0  0  0  0  0  0  0  0  0  0
   56.9915   21.4588   43.9951 H   0  0  0  0  0  0  0  0  0  0  0  0
   56.0828   21.5384   42.4476 H   0  0  0  0  0  0  0  0  0  0  0  0
   57.8721   21.6968   42.4476 H   0  0  0  0  0  0  0  0  0  0  0  0
   58.4430   22.4276   45.1259 H   0  0  0  0  0  0  0  0  0  0  0  0
   59.6628   23.8579   46.7632 H   0  0  0  0  0  0  0  0  0  0  0  0
   60.8727   29.1831   47.1303 H   0  0  0  0  0  0  0  0  0  0  0  0
   59.5371   27.3975   49.4877 H   0  0  0  0  0  0  0  0  0  0  0  0
   60.7499   28.1937   50.0512 H   0  0  0  0  0  0  0  0  0  0  0  0
   58.0671   29.4232   48.7369 H   0  0  0  0  0  0  0  0  0  0  0  0
   59.0243   30.5713   49.1699 H   0  0  0  0  0  0  0  0  0  0  0  0
  1  2  1  0
  2  3  1  0
  3  4  1  0
  4  5  2  0
  5  6  1  0
  6  7  2  0
  6  8  1  0
  8  9  1  0
  9 10  1  0
 10 11  1  0
 11 12  1  0
 12 13  1  0
 13 14  2  0
 14 15  1  0
 15 16  1  0
 16 17  1  0
 16 18  2  0
 11 19  1  0
 19 20  1  0
  5 21  1  0
 21 22  1  0
 22 23  1  0
 23 24  1  0
 24 25  1  0
 25 26  2  0
 26 27  1  0
 27 28  1  0
 28 29  1  0
 27 30  2  0
 30 31  1  0
 31 32  2  0
 32 33  1  0
 33 34  2  0
 33 35  1  0
 35 36  1  0
 36 37  1  0
 37 38  1  0
 22  3  2  0
 35 23  2  0
 38 36  1  0
 20  8  1  0
 32 25  1  0
 18 13  1  0
  1 39  1  0
  1 40  1  0
  1 41  1  0
  2 42  1  0
  2 43  1  0
  4 44  1  0
  8 45  1  0
  9 46  1  0
  9 47  1  0
 10 48  1  0
 10 49  1  0
 12 50  1  0
 12 51  1  0
 14 52  1  0
 17 53  1  0
 17 54  1  0
 17 55  1  0
 19 56  1  0
 19 57  1  0
 20 58  1  0
 20 59  1  0
 26 60  1  0
 29 61  1  0
 29 62  1  0
 29 63  1  0
 30 64  1  0
 31 65  1  0
 36 66  1  0
 37 67  1  0
 37 68  1  0
 38 69  1  0
 38 70  1  0
M  CHG  2   8   1  24  -1
M  END
>  <UniqueID>  (61) 
56

>  <SMILES>  (61) 
CCc1cc(C(=O)[NH+]2CCN(Cc3csc(C)n3)CC2)sc1-c1[n-]c2cc(OC)ccc2c(=O)c1C1CC1

>  <Energy>  (61) 
421.0660629595285

>  <Genealogy>  (61) 
CCc1cc(C(=O)[NH+]2CCN(Cc3csc(C)n3)CC2)sc1-c1[n-]c2cc(OC)ccc2c(=O)c1C1CC1 (protonated)
CCc1cc(C(=O)[NH+]2CCN(Cc3csc(C)n3)CC2)sc1-c1[n-]c2cc(OC)ccc2c(=O)c1C1CC1 (3D coordinates assigned)
CCc1cc(C(=O)[NH+]2CCN(Cc3csc(C)n3)CC2)sc1-c1[n-]c2cc(OC)ccc2c(=O)c1C1CC1 (nonaromatic ring conformer: 421.0660629595285 kcal/mol)

>  <smiles>  (61) 
CCc1cc(C(=O)N2CCN(Cc3csc(C)n3)CC2)sc1-c1[nH]c2cc(OC)ccc2c(=O)c1C1CC1

>  <score_type>  (61) 
oracle

>  <origin>  (61) 
adg

>  <m_score__min__energy>  (61) 
-10.300000000000001

>  <m_primary>  (61) 
energy

$$$$
61:0
     RDKit          3D

 67 71  0  0  0  0  0  0  0  0999 V2000
   59.6558   25.3005   44.6022 H   0  0  0  0  0  0  0  0  0  0  0  0
   58.9060   24.9210   45.3120 C   0  0  0  0  0  0  0  0  0  0  0  0
   58.8590   23.3650   45.9530 S   0  0  0  0  0  0  0  0  0  0  0  0
   57.4940   23.6790   46.8680 C   0  0  0  0  0  0  0  0  0  0  0  0
   56.8960   22.7850   47.5970 N   0  0  0  0  0  0  0  0  0  0  0  0
   55.5030   22.4330   47.5400 C   0  0  0  0  0  0  0  0  0  0  0  0
   55.0020   21.2750   48.1620 C   0  0  0  0  0  0  0  0  0  0  0  0
   55.6762   20.6277   48.7421 H   0  0  0  0  0  0  0  0  0  0  0  0
   53.6500   20.9460   48.0440 C   0  0  0  0  0  0  0  0  0  0  0  0
   53.2622   20.0402   48.5329 H   0  0  0  0  0  0  0  0  0  0  0  0
   52.7870   21.7630   47.3070 C   0  0  0  0  0  0  0  0  0  0  0  0
   51.7238   21.4963   47.2144 H   0  0  0  0  0  0  0  0  0  0  0  0
   53.2760   22.9250   46.6840 C   0  0  0  0  0  0  0  0  0  0  0  0
   52.4360   23.7870   45.9020 N   0  0  0  0  0  0  0  0  0  0  0  0
   51.6220   23.4200   44.7790 C   0  0  0  0  0  0  0  0  0  0  0  0
   51.3030   22.2170   44.5790 O   0  0  0  0  0  0  0  0  0  0  0  0
   51.1440   24.4460   43.9020 N   0  0  0  0  0  0  0  0  0  0  0  0
   51.4510   25.4300   44.0700 H   0  0  0  0  0  0  0  0  0  0  0  0
   50.2760   24.1690   42.7580 C   0  0  0  0  0  0  0  0  0  0  0  0
   49.2259   24.2113   43.0830 H   0  0  0  0  0  0  0  0  0  0  0  0
   50.5148   23.1689   42.3671 H   0  0  0  0  0  0  0  0  0  0  0  0
   50.4990   25.1940   41.6510 C   0  0  0  0  0  0  0  0  0  0  0  0
   50.7127   26.1760   42.0982 H   0  0  0  0  0  0  0  0  0  0  0  0
   51.3502   24.8817   41.0282 H   0  0  0  0  0  0  0  0  0  0  0  0
   49.5950   25.2636   41.0282 H   0  0  0  0  0  0  0  0  0  0  0  0
   54.6400   23.2310   46.7800 C   0  0  0  0  0  0  0  0  0  0  0  0
   55.0377   24.1098   46.2512 H   0  0  0  0  0  0  0  0  0  0  0  0
   57.0500   24.9430   46.6960 N   0  0  0  0  0  0  0  0  0  0  0  0
   57.8300   25.6520   45.8340 C   0  0  0  0  0  0  0  0  0  0  0  0
   57.5250   27.0730   45.4840 C   0  0  0  0  0  0  0  0  0  0  0  0
   56.2130   27.5900   45.5750 C   0  0  0  0  0  0  0  0  0  0  0  0
   55.1500   26.7970   45.9950 O   0  0  0  0  0  0  0  0  0  0  0  0
   55.9620   28.8830   45.2430 N   0  0  0  0  0  0  0  0  0  0  0  0
   56.9280   29.7370   44.8160 C   0  0  0  0  0  0  0  0  0  0  0  0
   56.5840   30.9570   44.5090 N   0  0  0  0  0  0  0  0  0  0  0  0
   57.0780   32.2090   45.0940 C   0  0  0  0  0  0  0  0  0  0  0  0
   56.2415   32.8922   45.3026 H   0  0  0  0  0  0  0  0  0  0  0  0
   57.7800   31.9010   46.4460 C   0  0  0  0  0  0  0  0  0  0  0  0
   57.2830   32.4829   47.2362 H   0  0  0  0  0  0  0  0  0  0  0  0
   57.6995   30.8164   46.6111 H   0  0  0  0  0  0  0  0  0  0  0  0
   59.2730   32.2470   46.4560 C   0  0  0  0  0  0  0  0  0  0  0  0
   59.6591   32.1661   47.4828 H   0  0  0  0  0  0  0  0  0  0  0  0
   59.8109   31.5471   45.7997 H   0  0  0  0  0  0  0  0  0  0  0  0
   59.4730   33.6190   45.9670 N   0  0  0  0  0  0  0  0  0  0  0  0
   60.3020   34.5490   46.6880 C   0  0  0  0  0  0  0  0  0  0  0  0
   59.9960   35.7730   46.7000 O   0  0  0  0  0  0  0  0  0  0  0  0
   61.5060   34.1070   47.4270 C   0  0  0  0  0  0  0  0  0  0  0  0
   62.6320   33.6560   46.7160 C   0  0  0  0  0  0  0  0  0  0  0  0
   62.6126   33.6344   45.6164 H   0  0  0  0  0  0  0  0  0  0  0  0
   63.7760   33.2350   47.4000 C   0  0  0  0  0  0  0  0  0  0  0  0
   64.6571   32.8922   46.8377 H   0  0  0  0  0  0  0  0  0  0  0  0
   63.8020   33.2490   48.7970 C   0  0  0  0  0  0  0  0  0  0  0  0
   64.7053   32.9229   49.3333 H   0  0  0  0  0  0  0  0  0  0  0  0
   62.6810   33.6770   49.5130 C   0  0  0  0  0  0  0  0  0  0  0  0
   62.7010   33.6795   50.6128 H   0  0  0  0  0  0  0  0  0  0  0  0
   61.5340   34.1020   48.8360 C   0  0  0  0  0  0  0  0  0  0  0  0
   60.4420   34.4650   49.5550 F   0  0  0  0  0  0  0  0  0  0  0  0
   58.7650   34.0770   44.7640 C   0  0  0  0  0  0  0  0  0  0  0  0
   58.0498   34.8632   45.0476 H   0  0  0  0  0  0  0  0  0  0  0  0
   59.5088   34.4632   44.0515 H   0  0  0  0  0  0  0  0  0  0  0  0
   58.0040   32.9310   44.0910 C   0  0  0  0  0  0  0  0  0  0  0  0
   57.3954   33.3380   43.2701 H   0  0  0  0  0  0  0  0  0  0  0  0
   58.7362   32.2046   43.7086 H   0  0  0  0  0  0  0  0  0  0  0  0
   58.2480   29.2690   44.7130 C   0  0  0  0  0  0  0  0  0  0  0  0
   59.0475   29.9410   44.3677 H   0  0  0  0  0  0  0  0  0  0  0  0
   58.5400   27.9470   45.0510 C   0  0  0  0  0  0  0  0  0  0  0  0
   59.5757   27.5835   44.9782 H   0  0  0  0  0  0  0  0  0  0  0  0
  1  2  1  0
  2  3  1  0
  3  4  1  0
  4  5  2  3
  5  6  1  0
  6  7  2  0
  7  8  1  0
  7  9  1  0
  9 10  1  0
  9 11  2  0
 11 12  1  0
 11 13  1  0
 13 14  1  0
 14 15  1  0
 15 16  2  0
 15 17  1  0
 17 18  1  0
 17 19  1  0
 19 20  1  0
 19 21  1  0
 19 22  1  0
 22 23  1  0
 22 24  1  0
 22 25  1  0
 13 26  2  0
 26 27  1  0
  4 28  1  0
 28 29  1  0
 29 30  1  0
 30 31  2  0
 31 32  1  0
 31 33  1  0
 33 34  1  0
 34 35  2  0
 35 36  1  0
 36 37  1  0
 36 38  1  0
 38 39  1  0
 38 40  1  0
 38 41  1  0
 41 42  1  0
 41 43  1  0
 41 44  1  0
 44 45  1  0
 45 46  2  0
 45 47  1  0
 47 48  2  0
 48 49  1  0
 48 50  1  0
 50 51  1  0
 50 52  2  0
 52 53  1  0
 52 54  1  0
 54 55  1  0
 54 56  2  0
 56 57  1  0
 44 58  1  0
 58 59  1  0
 58 60  1  0
 58 61  1  0
 61 62  1  0
 61 63  1  0
 34 64  1  0
 64 65  1  0
 64 66  2  0
 66 67  1  0
 29  2  2  0
 66 30  1  0
 26  6  1  0
 61 36  1  0
 56 47  1  0
M  CHG  4  14  -1  28  -1  32  -1  33  -1
M  END
>  <UniqueID>  (62) 
57

>  <SMILES>  (62) 
CCNC(=O)[N-]c1cccc(N=c2[n-]c(-c3cc/c(=N\C4CCN(C(=O)c5ccccc5F)CC4)[n-]c3[O-])cs2)c1

>  <Energy>  (62) 
121.50879115668945

>  <Genealogy>  (62) 
CCNC(=O)[N-]c1cccc(N=c2[n-]c(-c3ccc(=NC4CCN(C(=O)c5ccccc5F)CC4)[n-]c3[O-])cs2)c1 (protonated)
CCNC(=O)[N-]c1cccc(N=c2[n-]c(-c3cc/c(=N\C4CCN(C(=O)c5ccccc5F)CC4)[n-]c3[O-])cs2)c1 (cis-trans isomerization)
CCNC(=O)[N-]c1cccc(N=c2[n-]c(-c3cc/c(=N\C4CCN(C(=O)c5ccccc5F)CC4)[n-]c3[O-])cs2)c1 (3D coordinates assigned)
CCNC(=O)[N-]c1cccc(N=c2[n-]c(-c3cc/c(=N\C4CCN(C(=O)c5ccccc5F)CC4)[n-]c3[O-])cs2)c1 (nonaromatic ring conformer: 121.50879115668945 kcal/mol)

>  <smiles>  (62) 
CCNC(=O)Nc1cccc(N=c2[nH]c(-c3ccc(=NC4CCN(C(=O)c5ccccc5F)CC4)[nH]c3O)cs2)c1

>  <score_type>  (62) 
oracle

>  <origin>  (62) 
adg

>  <m_score__min__energy>  (62) 
-19.670000000000002

>  <m_primary>  (62) 
energy

$$$$
62:0
     RDKit          3D

 52 55  0  0  0  0  0  0  0  0999 V2000
   63.4250   33.4900   46.3740 C   0  0  0  0  0  0  0  0  0  0  0  0
   62.2140   34.2360   46.3300 O   0  0  0  0  0  0  0  0  0  0  0  0
   60.9790   33.7850   46.8260 C   0  0  0  0  0  0  0  0  0  0  0  0
   59.8340   33.7180   46.0090 C   0  0  0  0  0  0  0  0  0  0  0  0
   58.6080   33.2920   46.5370 C   0  0  0  0  0  0  0  0  0  0  0  0
   57.4310   33.1720   45.6640 C   0  0  0  0  0  0  0  0  0  0  0  0
   56.7780   34.2100   45.3830 O   0  0  0  0  0  0  0  0  0  0  0  0
   57.0050   31.9130   45.1160 N   0  0  0  0  0  0  0  0  0  0  0  0
   57.6650   31.0970   44.0890 C   0  0  2  0  0  0  0  0  0  0  0  0
   56.7670   30.8650   42.8500 C   0  0  0  0  0  0  0  0  0  0  0  0
   56.6110   29.3380   42.6770 C   0  0  0  0  0  0  0  0  0  0  0  0
   57.3890   28.7700   43.8020 C   0  0  0  0  0  0  0  0  0  0  0  0
   57.5490   27.4490   44.0700 N   0  0  0  0  0  0  0  0  0  0  0  0
   58.3470   27.0410   45.1080 C   0  0  0  0  0  0  0  0  0  0  0  0
   58.5000   25.5710   45.3890 C   0  0  0  0  0  0  0  0  0  0  0  0
   59.0250   28.0110   45.8980 C   0  0  0  0  0  0  0  0  0  0  0  0
   59.9820   27.6090   46.9890 C   0  0  0  0  0  0  0  0  0  0  0  0
   58.8240   29.3770   45.6200 C   0  0  0  0  0  0  0  0  0  0  0  0
   57.9820   29.7310   44.5710 C   0  0  0  0  0  0  0  0  0  0  0  0
   58.5000   33.0160   47.9020 C   0  0  0  0  0  0  0  0  0  0  0  0
   59.6320   33.0620   48.7170 C   0  0  0  0  0  0  0  0  0  0  0  0
   60.8840   33.4100   48.1830 C   0  0  0  0  0  0  0  0  0  0  0  0
   62.0530   33.3770   49.0240 N   0  0  0  0  0  0  0  0  0  0  0  0
   62.5610   34.3950   49.7510 C   0  0  0  0  0  0  0  0  0  0  0  0
   63.6290   34.0240   50.4890 N   0  0  0  0  0  0  0  0  0  0  0  0
   63.7890   32.7170   50.1980 C   0  0  0  0  0  0  0  0  0  0  0  0
   64.8170   31.8400   50.8260 C   0  0  0  0  0  0  0  0  0  0  0  0
   62.8160   32.3080   49.3120 C   0  0  0  0  0  0  0  0  0  0  0  0
   63.7097   33.3146   47.4219 H   0  0  0  0  0  0  0  0  0  0  0  0
   63.2796   32.5247   45.8670 H   0  0  0  0  0  0  0  0  0  0  0  0
   64.2218   34.0541   45.8670 H   0  0  0  0  0  0  0  0  0  0  0  0
   59.9026   34.0022   44.9486 H   0  0  0  0  0  0  0  0  0  0  0  0
   58.5709   31.6693   43.8404 H   0  0  0  0  0  0  0  0  0  0  0  0
   55.7820   31.3289   43.0065 H   0  0  0  0  0  0  0  0  0  0  0  0
   57.2165   31.3153   41.9527 H   0  0  0  0  0  0  0  0  0  0  0  0
   55.5535   29.0427   42.7441 H   0  0  0  0  0  0  0  0  0  0  0  0
   56.9632   28.9843   41.6968 H   0  0  0  0  0  0  0  0  0  0  0  0
   57.0620   26.7470   43.4680 H   0  0  0  0  0  0  0  0  0  0  0  0
   58.5172   25.4054   46.4763 H   0  0  0  0  0  0  0  0  0  0  0  0
   57.6540   25.0234   44.9481 H   0  0  0  0  0  0  0  0  0  0  0  0
   59.4406   25.2094   44.9481 H   0  0  0  0  0  0  0  0  0  0  0  0
   59.5223   27.8021   47.9695 H   0  0  0  0  0  0  0  0  0  0  0  0
   60.2135   26.5376   46.8972 H   0  0  0  0  0  0  0  0  0  0  0  0
   60.9092   28.1937   46.8972 H   0  0  0  0  0  0  0  0  0  0  0  0
   59.3240   30.1502   46.2218 H   0  0  0  0  0  0  0  0  0  0  0  0
   57.5213   32.7620   48.3352 H   0  0  0  0  0  0  0  0  0  0  0  0
   59.5431   32.8236   49.7872 H   0  0  0  0  0  0  0  0  0  0  0  0
   62.1497   35.4152   49.7429 H   0  0  0  0  0  0  0  0  0  0  0  0
   64.7374   31.9079   51.9210 H   0  0  0  0  0  0  0  0  0  0  0  0
   64.6533   30.7991   50.5103 H   0  0  0  0  0  0  0  0  0  0  0  0
   65.8191   32.1656   50.5103 H   0  0  0  0  0  0  0  0  0  0  0  0
   62.6869   31.2912   48.9127 H   0  0  0  0  0  0  0  0  0  0  0  0
  1  2  1  0
  2  3  1  0
  3  4  2  0
  4  5  1  0
  5  6  1  0
  6  7  2  0
  6  8  1  0
  8  9  1  0
  9 10  1  0
 10 11  1  0
 11 12  1  0
 12 13  2  0
 13 14  1  0
 14 15  1  0
 14 16  2  0
 16 17  1  0
 16 18  1  0
 18 19  2  0
  5 20  2  0
 20 21  1  0
 21 22  2  0
 22 23  1  0
 23 24  1  0
 24 25  2  0
 25 26  1  0
 26 27  1  0
 26 28  2  0
 22  3  1  0
 28 23  1  0
 19  9  1  0
 19 12  1  0
  1 29  1  0
  1 30  1  0
  1 31  1  0
  4 32  1  0
  9 33  1  6
 10 34  1  0
 10 35  1  0
 11 36  1  0
 11 37  1  0
 13 38  1  0
 15 39  1  0
 15 40  1  0
 15 41  1  0
 17 42  1  0
 17 43  1  0
 17 44  1  0
 18 45  1  0
 20 46  1  0
 21 47  1  0
 24 48  1  0
 27 49  1  0
 27 50  1  0
 27 51  1  0
 28 52  1  0
M  CHG  2   8  -1  13   1
M  END
>  <UniqueID>  (63) 
58

>  <SMILES>  (63) 
COc1cc(C(=O)[N-][C@@H]2CCc3[nH+]c(C)c(C)cc32)ccc1-n1cnc(C)c1

>  <Energy>  (63) 
97.94873762819554

>  <Genealogy>  (63) 
COc1cc(C(=O)[N-]C2CCc3[nH+]c(C)c(C)cc32)ccc1-n1cnc(C)c1 (protonated)
COc1cc(C(=O)[N-][C@@H]2CCc3[nH+]c(C)c(C)cc32)ccc1-n1cnc(C)c1 (chirality)
COc1cc(C(=O)[N-][C@@H]2CCc3[nH+]c(C)c(C)cc32)ccc1-n1cnc(C)c1 (3D coordinates assigned)
COc1cc(C(=O)[N-][C@@H]2CCc3[nH+]c(C)c(C)cc32)ccc1-n1cnc(C)c1 (nonaromatic ring conformer: 97.94873762819554 kcal/mol)

>  <smiles>  (63) 
COc1cc(C(=O)NC2CCc3nc(C)c(C)cc32)ccc1-n1cnc(C)c1

>  <score_type>  (63) 
oracle

>  <origin>  (63) 
adg

>  <m_score__min__energy>  (63) 
-8.5999999999999996

>  <m_primary>  (63) 
energy

$$$$
63:0
     RDKit          3D

 93 97  0  0  0  0  0  0  0  0999 V2000
   63.5850   31.1100   53.4340 C   0  0  0  0  0  0  0  0  0  0  0  0
   62.5860   31.0130   52.3570 N   0  0  0  0  0  0  0  0  0  0  0  0
   61.2370   30.7680   52.9210 C   0  0  0  0  0  0  0  0  0  0  0  0
   60.2530   30.1690   51.8930 C   0  0  0  0  0  0  0  0  0  0  0  0
   60.6980   30.4320   50.5190 N   0  0  0  0  0  0  0  0  0  0  0  0
   59.7870   31.0110   49.5630 C   0  0  0  0  0  0  0  0  0  0  0  0
   58.9550   31.8720   49.9610 O   0  0  0  0  0  0  0  0  0  0  0  0
   59.7810   30.5780   48.1070 C   0  0  1  0  0  0  0  0  0  0  0  0
   58.8490   29.3730   47.8610 C   0  0  0  0  0  0  0  0  0  0  0  0
   59.5970   28.1480   47.3160 C   0  0  0  0  0  0  0  0  0  0  0  0
   58.6660   27.2860   46.4630 C   0  0  0  0  0  0  0  0  0  0  0  0
   57.6740   28.1300   45.8180 N   0  0  0  0  0  0  0  0  0  0  0  0
   56.2860   27.8390   45.5990 C   0  0  0  0  0  0  0  0  0  0  0  0
   55.5960   28.6930   44.9880 O   0  0  0  0  0  0  0  0  0  0  0  0
   55.6440   26.6180   46.0080 N   0  0  0  0  0  0  0  0  0  0  0  0
   56.2280   25.3930   46.5530 C   0  0  0  0  0  0  0  0  0  0  0  0
   56.4690   24.3530   45.4860 C   0  0  0  0  0  0  0  0  0  0  0  0
   55.4970   24.0780   44.5050 C   0  0  0  0  0  0  0  0  0  0  0  0
   55.7610   23.1510   43.4910 C   0  0  0  0  0  0  0  0  0  0  0  0
   56.9990   22.5040   43.4360 C   0  0  0  0  0  0  0  0  0  0  0  0
   57.9790   22.7900   44.3890 C   0  0  0  0  0  0  0  0  0  0  0  0
   57.7230   23.7200   45.4000 C   0  0  0  0  0  0  0  0  0  0  0  0
   59.5010   31.7260   47.2000 N   0  0  0  0  0  0  0  0  0  0  0  0
   58.0710   31.8860   46.8540 C   0  0  0  0  0  0  0  0  0  0  0  0
   57.9310   31.9910   45.3630 C   0  0  0  0  0  0  0  0  0  0  0  0
   58.5610   33.0230   44.6510 C   0  0  0  0  0  0  0  0  0  0  0  0
   58.4280   33.1040   43.2610 C   0  0  0  0  0  0  0  0  0  0  0  0
   57.6590   32.1560   42.5710 C   0  0  0  0  0  0  0  0  0  0  0  0
   57.5110   32.2510   41.1420 C   0  0  0  0  0  0  0  0  0  0  0  0
   57.3940   32.3300   39.9940 N   0  0  0  0  0  0  0  0  0  0  0  0
   57.0250   31.1280   43.2780 C   0  0  0  0  0  0  0  0  0  0  0  0
   57.1630   31.0420   44.6670 C   0  0  0  0  0  0  0  0  0  0  0  0
   60.2880   33.2670   47.5580 S   0  0  0  0  0  0  0  0  0  0  0  0
   60.5400   34.0680   46.3120 O   0  0  0  0  0  0  0  0  0  0  0  0
   59.3540   34.0670   48.4220 O   0  0  0  0  0  0  0  0  0  0  0  0
   61.8320   33.1030   48.4110 C   0  0  0  0  0  0  0  0  0  0  0  0
   62.9000   32.4200   47.8220 C   0  0  0  0  0  0  0  0  0  0  0  0
   64.1130   32.2800   48.5030 C   0  0  0  0  0  0  0  0  0  0  0  0
   64.2940   32.8370   49.7860 C   0  0  0  0  0  0  0  0  0  0  0  0
   65.5600   32.6750   50.4780 N   0  0  0  0  0  0  0  0  0  0  0  0
   66.1250   31.3770   50.8290 C   0  0  0  0  0  0  0  0  0  0  0  0
   67.5130   31.6580   51.3860 C   0  0  0  0  0  0  0  0  0  0  0  0
   67.5030   33.1390   51.7820 C   0  0  2  0  0  0  0  0  0  0  0  0
   67.1970   33.3100   53.2060 N   0  0  0  0  0  0  0  0  0  0  0  0
   66.4090   33.7730   50.9240 C   0  0  0  0  0  0  0  0  0  0  0  0
   63.2170   33.5580   50.3580 C   0  0  0  0  0  0  0  0  0  0  0  0
   63.3220   34.1610   51.5680 F   0  0  0  0  0  0  0  0  0  0  0  0
   62.0050   33.6860   49.6720 C   0  0  0  0  0  0  0  0  0  0  0  0
   62.0790   30.1040   50.1450 C   0  0  0  0  0  0  0  0  0  0  0  0
   62.9670   29.9730   51.3880 C   0  0  0  0  0  0  0  0  0  0  0  0
   63.0787   31.0608   54.4093 H   0  0  0  0  0  0  0  0  0  0  0  0
   64.2982   30.2769   53.3487 H   0  0  0  0  0  0  0  0  0  0  0  0
   64.1246   32.0648   53.3487 H   0  0  0  0  0  0  0  0  0  0  0  0
   61.3315   30.0684   53.7646 H   0  0  0  0  0  0  0  0  0  0  0  0
   60.8311   31.7402   53.2373 H   0  0  0  0  0  0  0  0  0  0  0  0
   60.1894   29.0818   52.0480 H   0  0  0  0  0  0  0  0  0  0  0  0
   59.2688   30.6387   52.0371 H   0  0  0  0  0  0  0  0  0  0  0  0
   60.7937   30.2248   47.8626 H   0  0  0  0  0  0  0  0  0  0  0  0
   58.3699   29.0985   48.8124 H   0  0  0  0  0  0  0  0  0  0  0  0
   58.1086   29.6740   47.1052 H   0  0  0  0  0  0  0  0  0  0  0  0
   60.4432   28.4856   46.6996 H   0  0  0  0  0  0  0  0  0  0  0  0
   59.9598   27.5476   48.1632 H   0  0  0  0  0  0  0  0  0  0  0  0
   59.2541   26.7608   45.6960 H   0  0  0  0  0  0  0  0  0  0  0  0
   58.1582   26.5514   47.1052 H   0  0  0  0  0  0  0  0  0  0  0  0
   57.1878   25.6399   47.0303 H   0  0  0  0  0  0  0  0  0  0  0  0
   55.5162   24.9734   47.2792 H   0  0  0  0  0  0  0  0  0  0  0  0
   54.5261   24.5942   44.5361 H   0  0  0  0  0  0  0  0  0  0  0  0
   54.9927   22.9307   42.7353 H   0  0  0  0  0  0  0  0  0  0  0  0
   57.2012   21.7698   42.6423 H   0  0  0  0  0  0  0  0  0  0  0  0
   58.9538   22.2824   44.3437 H   0  0  0  0  0  0  0  0  0  0  0  0
   58.5070   23.9590   46.1337 H   0  0  0  0  0  0  0  0  0  0  0  0
   57.5055   31.0147   47.2159 H   0  0  0  0  0  0  0  0  0  0  0  0
   57.6769   32.7978   47.3266 H   0  0  0  0  0  0  0  0  0  0  0  0
   59.1620   33.7715   45.1882 H   0  0  0  0  0  0  0  0  0  0  0  0
   58.9277   33.9130   42.7080 H   0  0  0  0  0  0  0  0  0  0  0  0
   56.4168   30.3860   42.7400 H   0  0  0  0  0  0  0  0  0  0  0  0
   56.6682   30.2280   45.2171 H   0  0  0  0  0  0  0  0  0  0  0  0
   62.7853   31.9899   46.8161 H   0  0  0  0  0  0  0  0  0  0  0  0
   64.9386   31.7271   48.0310 H   0  0  0  0  0  0  0  0  0  0  0  0
   65.5018   30.8821   51.5884 H   0  0  0  0  0  0  0  0  0  0  0  0
   66.1697   30.7088   49.9564 H   0  0  0  0  0  0  0  0  0  0  0  0
   67.7097   31.0263   52.2648 H   0  0  0  0  0  0  0  0  0  0  0  0
   68.3004   31.4375   50.6503 H   0  0  0  0  0  0  0  0  0  0  0  0
   68.4864   33.6045   51.6200 H   0  0  0  0  0  0  0  0  0  0  0  0
   66.5650   32.5300   53.5040 H   0  0  0  0  0  0  0  0  0  0  0  0
   66.6730   34.2060   53.3480 H   0  0  0  0  0  0  0  0  0  0  0  0
   65.8247   34.4905   51.5188 H   0  0  0  0  0  0  0  0  0  0  0  0
   66.8342   34.3246   50.0725 H   0  0  0  0  0  0  0  0  0  0  0  0
   61.1787   34.2509   50.1282 H   0  0  0  0  0  0  0  0  0  0  0  0
   62.0865   29.1513   49.5952 H   0  0  0  0  0  0  0  0  0  0  0  0
   62.4741   30.9147   49.5151 H   0  0  0  0  0  0  0  0  0  0  0  0
   62.8274   28.9793   51.8386 H   0  0  0  0  0  0  0  0  0  0  0  0
   64.0233   30.0947   51.1062 H   0  0  0  0  0  0  0  0  0  0  0  0
  1  2  1  0
  2  3  1  0
  3  4  1  0
  4  5  1  0
  5  6  1  0
  6  7  2  0
  6  8  1  0
  8  9  1  0
  9 10  1  0
 10 11  1  0
 11 12  1  0
 12 13  1  0
 13 14  2  0
 13 15  1  0
 15 16  1  0
 16 17  1  0
 17 18  2  0
 18 19  1  0
 19 20  2  0
 20 21  1  0
 21 22  2  0
  8 23  1  0
 23 24  1  0
 24 25  1  0
 25 26  2  0
 26 27  1  0
 27 28  2  0
 28 29  1  0
 29 30  3  0
 28 31  1  0
 31 32  2  0
 23 33  1  0
 33 34  2  0
 33 35  2  0
 33 36  1  0
 36 37  2  0
 37 38  1  0
 38 39  2  0
 39 40  1  0
 40 41  1  0
 41 42  1  0
 42 43  1  0
 43 44  1  0
 43 45  1  0
 39 46  1  0
 46 47  1  0
 46 48  2  0
  5 49  1  0
 49 50  1  0
 50  2  1  0
 22 17  1  0
 32 25  1  0
 48 36  1  0
 45 40  1  0
  1 51  1  0
  1 52  1  0
  1 53  1  0
  3 54  1  0
  3 55  1  0
  4 56  1  0
  4 57  1  0
  8 58  1  6
  9 59  1  0
  9 60  1  0
 10 61  1  0
 10 62  1  0
 11 63  1  0
 11 64  1  0
 16 65  1  0
 16 66  1  0
 18 67  1  0
 19 68  1  0
 20 69  1  0
 21 70  1  0
 22 71  1  0
 24 72  1  0
 24 73  1  0
 26 74  1  0
 27 75  1  0
 31 76  1  0
 32 77  1  0
 37 78  1  0
 38 79  1  0
 41 80  1  0
 41 81  1  0
 42 82  1  0
 42 83  1  0
 43 84  1  1
 44 85  1  0
 44 86  1  0
 45 87  1  0
 45 88  1  0
 48 89  1  0
 49 90  1  0
 49 91  1  0
 50 92  1  0
 50 93  1  0
M  CHG  2  12  -1  15  -1
M  END
>  <UniqueID>  (64) 
59

>  <SMILES>  (64) 
CN1CCN(C(=O)[C@@H](CCC[N-]C(=O)[N-]Cc2ccccc2)N(Cc2ccc(C#N)cc2)S(=O)(=O)c2ccc(N3CC[C@H](N)C3)c(F)c2)CC1

>  <Energy>  (64) 
112.26869855823028

>  <Genealogy>  (64) 
CN1CCN(C(=O)C(CCC[N-]C(=O)[N-]Cc2ccccc2)N(Cc2ccc(C#N)cc2)S(=O)(=O)c2ccc(N3CCC(N)C3)c(F)c2)CC1 (protonated)
CN1CCN(C(=O)[C@@H](CCC[N-]C(=O)[N-]Cc2ccccc2)N(Cc2ccc(C#N)cc2)S(=O)(=O)c2ccc(N3CC[C@H](N)C3)c(F)c2)CC1 (chirality)
CN1CCN(C(=O)[C@@H](CCC[N-]C(=O)[N-]Cc2ccccc2)N(Cc2ccc(C#N)cc2)S(=O)(=O)c2ccc(N3CC[C@H](N)C3)c(F)c2)CC1 (3D coordinates assigned)
CN1CCN(C(=O)[C@@H](CCC[N-]C(=O)[N-]Cc2ccccc2)N(Cc2ccc(C#N)cc2)S(=O)(=O)c2ccc(N3CC[C@H](N)C3)c(F)c2)CC1 (nonaromatic ring conformer: 112.26869855823028 kcal/mol)

>  <smiles>  (64) 
CN1CCN(C(=O)C(CCCNC(=O)NCc2ccccc2)N(Cc2ccc(C#N)cc2)S(=O)(=O)c2ccc(N3CCC(N)C3)c(F)c2)CC1

>  <score_type>  (64) 
oracle

>  <origin>  (64) 
adg

>  <m_score__min__energy>  (64) 
-13.65

>  <m_primary>  (64) 
energy

$$$$
64:0
     RDKit          3D

 62 65  0  0  0  0  0  0  0  0999 V2000
   55.5820   26.1040   46.6670 O   0  0  0  0  0  0  0  0  0  0  0  0
   56.6960   26.6710   46.5010 C   0  0  0  0  0  0  0  0  0  0  0  0
   57.7100   26.5690   47.5020 N   0  0  0  0  0  0  0  0  0  0  0  0
   59.0600   27.0840   47.3130 C   0  0  0  0  0  0  0  0  0  0  0  0
   59.5390   27.7920   48.5860 C   0  0  0  0  0  0  0  0  0  0  0  0
   58.8870   29.1640   48.7950 C   0  0  0  0  0  0  0  0  0  0  0  0
   59.8550   30.1190   49.3910 N   0  0  0  0  0  0  0  0  0  0  0  0
   60.3910   29.6630   50.6930 C   0  0  0  0  0  0  0  0  0  0  0  0
   59.4490   29.9550   51.8850 C   0  0  0  0  0  0  0  0  0  0  0  0
   58.1610   30.4910   51.4370 N   0  0  0  0  0  0  0  0  0  0  0  0
   56.9480   30.1000   52.1040 C   0  0  0  0  0  0  0  0  0  0  0  0
   55.7710   30.8500   51.9300 C   0  0  0  0  0  0  0  0  0  0  0  0
   54.5840   30.4550   52.5540 C   0  0  0  0  0  0  0  0  0  0  0  0
   54.5580   29.3090   53.3530 C   0  0  0  0  0  0  0  0  0  0  0  0
   55.7240   28.5550   53.5340 C   0  0  0  0  0  0  0  0  0  0  0  0
   55.6910   27.1180   54.5400 Cl  0  0  0  0  0  0  0  0  0  0  0  0
   56.9160   28.9480   52.9090 C   0  0  0  0  0  0  0  0  0  0  0  0
   58.1360   31.5860   50.4600 C   0  0  0  0  0  0  0  0  0  0  0  0
   59.3290   31.4940   49.4910 C   0  0  0  0  0  0  0  0  0  0  0  0
   56.9840   27.3750   45.2890 N   0  0  0  0  0  0  0  0  0  0  0  0
   57.0660   28.8000   45.1410 C   0  0  0  0  0  0  0  0  0  0  0  0
   58.2180   29.4500   45.6010 C   0  0  0  0  0  0  0  0  0  0  0  0
   58.3510   30.8460   45.4960 C   0  0  0  0  0  0  0  0  0  0  0  0
   59.5820   31.5160   45.9880 C   0  0  0  0  0  0  0  0  0  0  0  0
   59.6730   32.8190   45.9830 N   0  0  0  0  0  0  0  0  0  0  0  0
   60.8820   33.5160   46.4230 C   0  0  0  0  0  0  0  0  0  0  0  0
   61.5400   32.7730   47.5860 C   0  0  0  0  0  0  0  0  0  0  0  0
   61.8240   31.3280   47.1710 C   0  0  0  0  0  0  0  0  0  0  0  0
   60.6480   30.7240   46.5470 N   0  0  0  0  0  0  0  0  0  0  0  0
   57.3040   31.5890   44.9230 C   0  0  0  0  0  0  0  0  0  0  0  0
   56.1360   30.9520   44.4960 C   0  0  0  0  0  0  0  0  0  0  0  0
   56.0010   29.5660   44.6230 C   0  0  0  0  0  0  0  0  0  0  0  0
   54.7940   28.9750   44.2750 O   0  0  0  0  0  0  0  0  0  0  0  0
   59.7387   26.2492   47.0841 H   0  0  0  0  0  0  0  0  0  0  0  0
   59.0567   27.8038   46.4812 H   0  0  0  0  0  0  0  0  0  0  0  0
   59.3001   27.1558   49.4510 H   0  0  0  0  0  0  0  0  0  0  0  0
   60.6215   27.9567   48.4812 H   0  0  0  0  0  0  0  0  0  0  0  0
   58.5462   29.5536   47.8244 H   0  0  0  0  0  0  0  0  0  0  0  0
   58.0345   29.0500   49.4807 H   0  0  0  0  0  0  0  0  0  0  0  0
   60.5584   28.5771   50.6395 H   0  0  0  0  0  0  0  0  0  0  0  0
   61.3221   30.2205   50.8725 H   0  0  0  0  0  0  0  0  0  0  0  0
   59.2736   29.0206   52.4384 H   0  0  0  0  0  0  0  0  0  0  0  0
   59.9300   30.7078   52.5268 H   0  0  0  0  0  0  0  0  0  0  0  0
   55.7845   31.7516   51.3000 H   0  0  0  0  0  0  0  0  0  0  0  0
   53.6679   31.0480   52.4156 H   0  0  0  0  0  0  0  0  0  0  0  0
   53.6215   28.9991   53.8398 H   0  0  0  0  0  0  0  0  0  0  0  0
   57.8301   28.3523   53.0492 H   0  0  0  0  0  0  0  0  0  0  0  0
   57.2006   31.5317   49.8838 H   0  0  0  0  0  0  0  0  0  0  0  0
   58.2013   32.5400   51.0038 H   0  0  0  0  0  0  0  0  0  0  0  0
   59.0024   31.8228   48.4934 H   0  0  0  0  0  0  0  0  0  0  0  0
   60.1322   32.1377   49.8788 H   0  0  0  0  0  0  0  0  0  0  0  0
   59.0303   28.8602   46.0508 H   0  0  0  0  0  0  0  0  0  0  0  0
   58.8740   33.4060   45.6490 H   0  0  0  0  0  0  0  0  0  0  0  0
   61.5911   33.5741   45.5840 H   0  0  0  0  0  0  0  0  0  0  0  0
   60.6057   34.5262   46.7593 H   0  0  0  0  0  0  0  0  0  0  0  0
   62.4842   33.2706   47.8520 H   0  0  0  0  0  0  0  0  0  0  0  0
   60.8653   32.7797   48.4547 H   0  0  0  0  0  0  0  0  0  0  0  0
   62.6581   31.3165   46.4540 H   0  0  0  0  0  0  0  0  0  0  0  0
   62.0819   30.7484   48.0696 H   0  0  0  0  0  0  0  0  0  0  0  0
   60.6490   29.6900   46.4000 H   0  0  0  0  0  0  0  0  0  0  0  0
   57.4050   32.6785   44.8101 H   0  0  0  0  0  0  0  0  0  0  0  0
   55.3187   31.5437   44.0578 H   0  0  0  0  0  0  0  0  0  0  0  0
  1  2  2  0
  2  3  1  0
  3  4  1  0
  4  5  1  0
  5  6  1  0
  6  7  1  0
  7  8  1  0
  8  9  1  0
  9 10  1  0
 10 11  1  0
 11 12  2  0
 12 13  1  0
 13 14  2  0
 14 15  1  0
 15 16  1  0
 15 17  2  0
 10 18  1  0
 18 19  1  0
  2 20  1  0
 20 21  1  0
 21 22  2  0
 22 23  1  0
 23 24  1  0
 24 25  2  0
 25 26  1  0
 26 27  1  0
 27 28  1  0
 28 29  1  0
 23 30  2  0
 30 31  1  0
 31 32  2  0
 32 33  1  0
 19  7  1  0
 32 21  1  0
 17 11  1  0
 29 24  1  0
  4 34  1  0
  4 35  1  0
  5 36  1  0
  5 37  1  0
  6 38  1  0
  6 39  1  0
  8 40  1  0
  8 41  1  0
  9 42  1  0
  9 43  1  0
 12 44  1  0
 13 45  1  0
 14 46  1  0
 17 47  1  0
 18 48  1  0
 18 49  1  0
 19 50  1  0
 19 51  1  0
 22 52  1  0
 25 53  1  0
 26 54  1  0
 26 55  1  0
 27 56  1  0
 27 57  1  0
 28 58  1  0
 28 59  1  0
 29 60  1  0
 30 61  1  0
 31 62  1  0
M  CHG  4   3  -1  20  -1  25   1  33  -1
M  END
>  <UniqueID>  (65) 
60

>  <SMILES>  (65) 
O=C([N-]CCCN1CCN(c2cccc(Cl)c2)CC1)[N-]c1cc(C2=[NH+]CCCN2)ccc1[O-]

>  <Energy>  (65) 
80.47116476958735

>  <Genealogy>  (65) 
O=C([N-]CCCN1CCN(c2cccc(Cl)c2)CC1)[N-]c1cc(C2=[NH+]CCCN2)ccc1[O-] (protonated)
O=C([N-]CCCN1CCN(c2cccc(Cl)c2)CC1)[N-]c1cc(C2=[NH+]CCCN2)ccc1[O-] (3D coordinates assigned)
O=C([N-]CCCN1CCN(c2cccc(Cl)c2)CC1)[N-]c1cc(C2=[NH+]CCCN2)ccc1[O-] (nonaromatic ring conformer: 80.47116476958735 kcal/mol)

>  <smiles>  (65) 
O=C(NCCCN1CCN(c2cccc(Cl)c2)CC1)Nc1cc(C2=NCCCN2)ccc1O

>  <score_type>  (65) 
oracle

>  <origin>  (65) 
adg

>  <m_score__min__energy>  (65) 
-11.77

>  <m_primary>  (65) 
energy

$$$$
65:0
     RDKit          3D

 60 63  0  0  0  0  0  0  0  0999 V2000
   58.2880   29.7120   45.9100 C   0  0  0  0  0  0  0  0  0  0  0  0
   57.7640   31.0190   44.8260 S   0  0  0  0  0  0  0  0  0  0  0  0
   56.2640   31.1110   44.8450 O   0  0  0  0  0  0  0  0  0  0  0  0
   58.2100   30.7200   43.4220 O   0  0  0  0  0  0  0  0  0  0  0  0
   58.4690   32.5420   45.3580 C   0  0  0  0  0  0  0  0  0  0  0  0
   58.5220   33.6410   44.4920 C   0  0  0  0  0  0  0  0  0  0  0  0
   59.0570   34.8530   44.9330 C   0  0  0  0  0  0  0  0  0  0  0  0
   59.5410   34.9760   46.2370 C   0  0  0  0  0  0  0  0  0  0  0  0
   59.5020   33.8810   47.1170 C   0  0  0  0  0  0  0  0  0  0  0  0
   60.0030   34.0240   48.5050 C   0  0  0  0  0  0  0  0  0  0  0  0
   61.0980   34.6170   48.7110 O   0  0  0  0  0  0  0  0  0  0  0  0
   59.2680   33.4900   49.6170 N   0  0  0  0  0  0  0  0  0  0  0  0
   59.6050   33.8530   50.9930 C   0  0  0  0  0  0  0  0  0  0  0  0
   58.7570   33.1070   51.9760 C   0  0  0  0  0  0  0  0  0  0  0  0
   59.0230   33.0090   53.2920 N   0  0  0  0  0  0  0  0  0  0  0  0
   58.0760   32.2400   53.8070 N   0  0  0  0  0  0  0  0  0  0  0  0
   57.2750   31.8980   52.7820 C   0  0  0  0  0  0  0  0  0  0  0  0
   55.8430   30.8350   52.9420 S   0  0  0  0  0  0  0  0  0  0  0  0
   56.7020   29.3210   52.3910 C   0  0  0  0  0  0  0  0  0  0  0  0
   58.1470   29.3360   52.8110 C   0  0  0  0  0  0  0  0  0  0  0  0
   58.4240   28.9980   53.9940 O   0  0  0  0  0  0  0  0  0  0  0  0
   59.2080   29.7150   51.9030 N   0  0  0  0  0  0  0  0  0  0  0  0
   58.9510   29.8360   50.4590 C   0  0  0  0  0  0  0  0  0  0  0  0
   60.2510   29.9020   49.6490 C   0  0  0  0  0  0  0  0  0  0  0  0
   61.1700   30.8970   50.2200 N   0  0  0  0  0  0  0  0  0  0  0  0
   62.0740   31.6280   49.3600 C   0  0  0  0  0  0  0  0  0  0  0  0
   62.0070   31.4840   47.9600 C   0  0  0  0  0  0  0  0  0  0  0  0
   62.8770   32.2000   47.1310 C   0  0  0  0  0  0  0  0  0  0  0  0
   63.8250   33.0620   47.6860 C   0  0  0  0  0  0  0  0  0  0  0  0
   63.9050   33.2090   49.0730 C   0  0  0  0  0  0  0  0  0  0  0  0
   63.0370   32.4970   49.9070 C   0  0  0  0  0  0  0  0  0  0  0  0
   61.2680   31.0530   51.6790 C   0  0  0  0  0  0  0  0  0  0  0  0
   60.5730   29.9050   52.4170 C   0  0  0  0  0  0  0  0  0  0  0  0
   57.6860   32.4210   51.6540 O   0  0  0  0  0  0  0  0  0  0  0  0
   58.9510   32.6660   46.6680 C   0  0  0  0  0  0  0  0  0  0  0  0
   58.1607   30.0295   46.9555 H   0  0  0  0  0  0  0  0  0  0  0  0
   57.6802   28.8145   45.7228 H   0  0  0  0  0  0  0  0  0  0  0  0
   59.3475   29.4829   45.7228 H   0  0  0  0  0  0  0  0  0  0  0  0
   58.1420   33.5495   43.4638 H   0  0  0  0  0  0  0  0  0  0  0  0
   59.0974   35.7146   44.2503 H   0  0  0  0  0  0  0  0  0  0  0  0
   59.9555   35.9363   46.5777 H   0  0  0  0  0  0  0  0  0  0  0  0
   58.5170   32.7860   49.4370 H   0  0  0  0  0  0  0  0  0  0  0  0
   60.6626   33.6136   51.1779 H   0  0  0  0  0  0  0  0  0  0  0  0
   59.4211   34.9297   51.1229 H   0  0  0  0  0  0  0  0  0  0  0  0
   56.2074   28.4450   52.8359 H   0  0  0  0  0  0  0  0  0  0  0  0
   56.6573   29.2733   51.2929 H   0  0  0  0  0  0  0  0  0  0  0  0
   58.3695   28.9632   50.1272 H   0  0  0  0  0  0  0  0  0  0  0  0
   58.3965   30.7707   50.2892 H   0  0  0  0  0  0  0  0  0  0  0  0
   60.7350   28.9143   49.6621 H   0  0  0  0  0  0  0  0  0  0  0  0
   60.0095   30.1955   48.6167 H   0  0  0  0  0  0  0  0  0  0  0  0
   61.2654   30.8038   47.5158 H   0  0  0  0  0  0  0  0  0  0  0  0
   62.8142   32.0837   46.0390 H   0  0  0  0  0  0  0  0  0  0  0  0
   64.5078   33.6244   47.0322 H   0  0  0  0  0  0  0  0  0  0  0  0
   64.6529   33.8867   49.5104 H   0  0  0  0  0  0  0  0  0  0  0  0
   63.1073   32.6169   50.9982 H   0  0  0  0  0  0  0  0  0  0  0  0
   62.3299   31.0705   51.9656 H   0  0  0  0  0  0  0  0  0  0  0  0
   60.7699   31.9931   51.9586 H   0  0  0  0  0  0  0  0  0  0  0  0
   61.1478   28.9789   52.2693 H   0  0  0  0  0  0  0  0  0  0  0  0
   60.5194   30.1507   53.4879 H   0  0  0  0  0  0  0  0  0  0  0  0
   58.8983   31.8059   47.3517 H   0  0  0  0  0  0  0  0  0  0  0  0
  1  2  1  0
  2  3  2  0
  2  4  2  0
  2  5  1  0
  5  6  2  0
  6  7  1  0
  7  8  2  0
  8  9  1  0
  9 10  1  0
 10 11  2  0
 10 12  1  0
 12 13  1  0
 13 14  1  0
 14 15  2  0
 15 16  1  0
 16 17  2  0
 17 18  1  0
 18 19  1  0
 19 20  1  0
 20 21  2  0
 20 22  1  0
 22 23  1  0
 23 24  1  0
 24 25  1  0
 25 26  1  0
 26 27  2  0
 27 28  1  0
 28 29  2  0
 29 30  1  0
 30 31  2  0
 25 32  1  0
 32 33  1  0
 17 34  1  0
  9 35  2  0
 35  5  1  0
 34 14  1  0
 33 22  1  0
 31 26  1  0
  1 36  1  0
  1 37  1  0
  1 38  1  0
  6 39  1  0
  7 40  1  0
  8 41  1  0
 12 42  1  0
 13 43  1  0
 13 44  1  0
 19 45  1  0
 19 46  1  0
 23 47  1  0
 23 48  1  0
 24 49  1  0
 24 50  1  0
 27 51  1  0
 28 52  1  0
 29 53  1  0
 30 54  1  0
 31 55  1  0
 32 56  1  0
 32 57  1  0
 33 58  1  0
 33 59  1  0
 35 60  1  0
M  END
>  <UniqueID>  (66) 
61

>  <SMILES>  (66) 
CS(=O)(=O)c1cccc(C(=O)NCc2nnc(SCC(=O)N3CCN(c4ccccc4)CC3)o2)c1

>  <Energy>  (66) 
95.27637660118586

>  <Genealogy>  (66) 
CS(=O)(=O)c1cccc(C(=O)NCc2nnc(SCC(=O)N3CCN(c4ccccc4)CC3)o2)c1 (3D coordinates assigned)
CS(=O)(=O)c1cccc(C(=O)NCc2nnc(SCC(=O)N3CCN(c4ccccc4)CC3)o2)c1 (nonaromatic ring conformer: 95.27637660118586 kcal/mol)

>  <smiles>  (66) 
CS(=O)(=O)c1cccc(C(=O)NCc2nnc(SCC(=O)N3CCN(c4ccccc4)CC3)o2)c1

>  <score_type>  (66) 
oracle

>  <origin>  (66) 
adg

>  <m_score__min__energy>  (66) 
-11.26

>  <m_primary>  (66) 
energy

$$$$
66:0
     RDKit          3D

 38 39  0  0  0  0  0  0  0  0999 V2000
   58.1400   29.9590   50.4710 O   0  0  0  0  0  0  0  0  0  0  0  0
   58.6940   30.0160   49.3390 C   0  0  0  0  0  0  0  0  0  0  0  0
   58.9440   28.7460   48.5820 C   0  0  0  0  0  0  0  0  0  0  0  0
   59.4560   29.0320   47.2830 O   0  0  0  0  0  0  0  0  0  0  0  0
   58.6450   29.4210   46.2100 C   0  0  0  0  0  0  0  0  0  0  0  0
   58.0690   30.5440   46.2100 O   0  0  0  0  0  0  0  0  0  0  0  0
   58.4150   28.4670   45.0830 C   0  0  0  0  0  0  0  0  0  0  0  0
   57.5380   27.3290   45.5520 C   0  0  0  0  0  0  0  0  0  0  0  0
   56.1420   27.4760   45.6200 C   0  0  0  0  0  0  0  0  0  0  0  0
   55.5320   28.6620   45.2270 O   0  0  0  0  0  0  0  0  0  0  0  0
   55.3710   26.4540   46.0730 N   0  0  0  0  0  0  0  0  0  0  0  0
   55.9260   25.2820   46.4760 C   0  0  0  0  0  0  0  0  0  0  0  0
   55.1910   24.3490   46.8900 O   0  0  0  0  0  0  0  0  0  0  0  0
   57.2730   25.1210   46.4420 N   0  0  0  0  0  0  0  0  0  0  0  0
   58.0880   26.1130   45.9980 C   0  0  0  0  0  0  0  0  0  0  0  0
   59.3360   25.9300   45.9950 O   0  0  0  0  0  0  0  0  0  0  0  0
   59.0530   31.2810   48.7600 N   0  0  0  0  0  0  0  0  0  0  0  0
   58.9980   32.5310   49.4640 C   0  0  0  0  0  0  0  0  0  0  0  0
   58.5590   32.5890   50.6440 O   0  0  0  0  0  0  0  0  0  0  0  0
   59.4300   33.7930   48.7810 C   0  0  0  0  0  0  0  0  0  0  0  0
   58.8570   33.8530   47.3920 C   0  0  0  0  0  0  0  0  0  0  0  0
   57.5580   33.3800   47.1410 C   0  0  0  0  0  0  0  0  0  0  0  0
   57.0140   33.4670   45.8550 C   0  0  0  0  0  0  0  0  0  0  0  0
   57.7610   34.0290   44.8160 C   0  0  0  0  0  0  0  0  0  0  0  0
   59.0510   34.5100   45.0600 C   0  0  0  0  0  0  0  0  0  0  0  0
   59.5970   34.4270   46.3450 C   0  0  0  0  0  0  0  0  0  0  0  0
   59.6740   28.1342   49.1323 H   0  0  0  0  0  0  0  0  0  0  0  0
   57.9943   28.2008   48.4781 H   0  0  0  0  0  0  0  0  0  0  0  0
   57.9196   28.9930   44.2536 H   0  0  0  0  0  0  0  0  0  0  0  0
   59.3807   28.0665   44.7410 H   0  0  0  0  0  0  0  0  0  0  0  0
   59.4130   31.2860   47.7780 H   0  0  0  0  0  0  0  0  0  0  0  0
   59.0745   34.6590   49.3586 H   0  0  0  0  0  0  0  0  0  0  0  0
   60.5281   33.8096   48.7177 H   0  0  0  0  0  0  0  0  0  0  0  0
   56.9671   32.9401   47.9579 H   0  0  0  0  0  0  0  0  0  0  0  0
   55.9978   33.0929   45.6615 H   0  0  0  0  0  0  0  0  0  0  0  0
   57.3333   34.0930   43.8046 H   0  0  0  0  0  0  0  0  0  0  0  0
   59.6365   34.9537   44.2413 H   0  0  0  0  0  0  0  0  0  0  0  0
   60.6093   34.8125   46.5364 H   0  0  0  0  0  0  0  0  0  0  0  0
  1  2  2  0
  2  3  1  0
  3  4  1  0
  4  5  1  0
  5  6  2  0
  5  7  1  0
  7  8  1  0
  8  9  2  0
  9 10  1  0
  9 11  1  0
 11 12  1  0
 12 13  2  0
 12 14  1  0
 14 15  1  0
 15 16  2  0
  2 17  1  0
 17 18  1  0
 18 19  2  0
 18 20  1  0
 20 21  1  0
 21 22  2  0
 22 23  1  0
 23 24  2  0
 24 25  1  0
 25 26  2  0
 15  8  1  0
 26 21  1  0
  3 27  1  0
  3 28  1  0
  7 29  1  0
  7 30  1  0
 17 31  1  0
 20 32  1  0
 20 33  1  0
 22 34  1  0
 23 35  1  0
 24 36  1  0
 25 37  1  0
 26 38  1  0
M  CHG  3  10  -1  11  -1  14  -1
M  END
>  <UniqueID>  (67) 
62

>  <SMILES>  (67) 
O=C(COC(=O)Cc1c([O-])[n-]c(=O)[n-]c1=O)NC(=O)Cc1ccccc1

>  <Energy>  (67) 
32.33625831627338

>  <Genealogy>  (67) 
O=C(COC(=O)Cc1c([O-])[n-]c(=O)[n-]c1=O)NC(=O)Cc1ccccc1 (protonated)
O=C(COC(=O)Cc1c([O-])[n-]c(=O)[n-]c1=O)NC(=O)Cc1ccccc1 (3D coordinates assigned)
O=C(COC(=O)Cc1c([O-])[n-]c(=O)[n-]c1=O)NC(=O)Cc1ccccc1 (optimized conformer: 32.33625831627338 kcal/mol)

>  <smiles>  (67) 
O=C(COC(=O)Cc1c(O)[nH]c(=O)[nH]c1=O)NC(=O)Cc1ccccc1

>  <score_type>  (67) 
oracle

>  <origin>  (67) 
adg

>  <m_score__min__energy>  (67) 
-16.609999999999999

>  <m_primary>  (67) 
energy

$$$$
67:0
     RDKit          3D

 42 44  0  0  0  0  0  0  0  0999 V2000
   58.1450   27.0790   43.2470 C   0  0  0  0  0  0  0  0  0  0  0  0
   58.5440   27.7240   44.5410 C   0  0  0  0  0  0  0  0  0  0  0  0
   59.6770   28.5490   44.5950 C   0  0  0  0  0  0  0  0  0  0  0  0
   60.0430   29.1640   45.7950 C   0  0  0  0  0  0  0  0  0  0  0  0
   59.2890   28.9540   46.9580 C   0  0  0  0  0  0  0  0  0  0  0  0
   59.7410   29.7620   48.4610 S   0  0  0  0  0  0  0  0  0  0  0  0
   58.5500   30.5540   48.9220 O   0  0  0  0  0  0  0  0  0  0  0  0
   60.0320   28.7340   49.5190 O   0  0  0  0  0  0  0  0  0  0  0  0
   61.0990   30.8610   48.3420 N   0  0  0  0  0  0  0  0  0  0  0  0
   60.8940   32.1870   47.7180 C   0  0  1  0  0  0  0  0  0  0  0  0
   60.1680   32.2010   46.3670 C   0  0  0  0  0  0  0  0  0  0  0  0
   58.9600   32.9860   46.5690 N   0  0  0  0  0  0  0  0  0  0  0  0
   58.0030   33.1940   45.5090 C   0  0  0  0  0  0  0  0  0  0  0  0
   57.6630   34.3720   45.2150 O   0  0  0  0  0  0  0  0  0  0  0  0
   57.4200   32.0800   44.7270 C   0  0  0  0  0  0  0  0  0  0  0  0
   57.6300   31.8760   43.3720 C   0  0  0  0  0  0  0  0  0  0  0  0
   56.9530   30.7240   43.0400 C   0  0  0  0  0  0  0  0  0  0  0  0
   56.3710   30.2880   44.2070 C   0  0  0  0  0  0  0  0  0  0  0  0
   55.5940   29.1410   44.3210 O   0  0  0  0  0  0  0  0  0  0  0  0
   56.6470   31.1020   45.2420 N   0  0  0  0  0  0  0  0  0  0  0  0
   58.8700   33.5660   47.9020 C   0  0  0  0  0  0  0  0  0  0  0  0
   60.1610   33.1870   48.6300 C   0  0  1  0  0  0  0  0  0  0  0  0
   59.9010   32.6480   49.8990 O   0  0  0  0  0  0  0  0  0  0  0  0
   58.1260   28.1730   46.8910 C   0  0  0  0  0  0  0  0  0  0  0  0
   57.7560   27.5600   45.6900 C   0  0  0  0  0  0  0  0  0  0  0  0
   57.5768   26.1604   43.4551 H   0  0  0  0  0  0  0  0  0  0  0  0
   57.5190   27.7743   42.6685 H   0  0  0  0  0  0  0  0  0  0  0  0
   59.0466   26.8293   42.6685 H   0  0  0  0  0  0  0  0  0  0  0  0
   60.2796   28.7124   43.6894 H   0  0  0  0  0  0  0  0  0  0  0  0
   60.9278   29.8167   45.8273 H   0  0  0  0  0  0  0  0  0  0  0  0
   61.9368   32.4921   47.5465 H   0  0  0  0  0  0  0  0  0  0  0  0
   60.8017   32.6659   45.5974 H   0  0  0  0  0  0  0  0  0  0  0  0
   59.9339   31.1821   46.0249 H   0  0  0  0  0  0  0  0  0  0  0  0
   58.2214   32.5100   42.6950 H   0  0  0  0  0  0  0  0  0  0  0  0
   56.8907   30.2514   42.0487 H   0  0  0  0  0  0  0  0  0  0  0  0
   55.8900   28.2730   43.8900 H   0  0  0  0  0  0  0  0  0  0  0  0
   58.7791   34.6602   47.8348 H   0  0  0  0  0  0  0  0  0  0  0  0
   57.9863   33.1915   48.4394 H   0  0  0  0  0  0  0  0  0  0  0  0
   60.7849   34.0739   48.8149 H   0  0  0  0  0  0  0  0  0  0  0  0
   60.0170   31.6640   49.8180 H   0  0  0  0  0  0  0  0  0  0  0  0
   57.5021   28.0421   47.7874 H   0  0  0  0  0  0  0  0  0  0  0  0
   56.8437   26.9469   45.6459 H   0  0  0  0  0  0  0  0  0  0  0  0
  1  2  1  0
  2  3  2  0
  3  4  1  0
  4  5  2  0
  5  6  1  0
  6  7  2  0
  6  8  2  0
  6  9  1  0
  9 10  1  0
 10 11  1  0
 11 12  1  0
 12 13  1  0
 13 14  2  0
 13 15  1  0
 15 16  2  0
 16 17  1  0
 17 18  2  0
 18 19  1  0
 18 20  1  0
 12 21  1  0
 21 22  1  0
 22 23  1  0
  5 24  1  0
 24 25  2  0
 25  2  1  0
 22 10  1  0
 20 15  1  0
  1 26  1  0
  1 27  1  0
  1 28  1  0
  3 29  1  0
  4 30  1  0
 10 31  1  6
 11 32  1  0
 11 33  1  0
 16 34  1  0
 17 35  1  0
 19 36  1  0
 21 37  1  0
 21 38  1  0
 22 39  1  1
 23 40  1  0
 24 41  1  0
 25 42  1  0
M  CHG  2   9  -1  20  -1
M  END
>  <UniqueID>  (68) 
63

>  <SMILES>  (68) 
Cc1ccc(S(=O)(=O)[N-][C@H]2CN(C(=O)c3ccc(O)[n-]3)C[C@H]2O)cc1

>  <Energy>  (68) 
75.22943000688481

>  <Genealogy>  (68) 
Cc1ccc(S(=O)(=O)[N-]C2CN(C(=O)c3ccc(O)[n-]3)CC2O)cc1 (protonated)
Cc1ccc(S(=O)(=O)[N-][C@H]2CN(C(=O)c3ccc(O)[n-]3)C[C@H]2O)cc1 (chirality)
Cc1ccc(S(=O)(=O)[N-][C@H]2CN(C(=O)c3ccc(O)[n-]3)C[C@H]2O)cc1 (3D coordinates assigned)
Cc1ccc(S(=O)(=O)[N-][C@H]2CN(C(=O)c3ccc(O)[n-]3)C[C@H]2O)cc1 (nonaromatic ring conformer: 75.22943000688481 kcal/mol)

>  <smiles>  (68) 
Cc1ccc(S(=O)(=O)NC2CN(C(=O)c3ccc(O)[nH]3)CC2O)cc1

>  <score_type>  (68) 
oracle

>  <origin>  (68) 
adg

>  <m_score__min__energy>  (68) 
-11.59

>  <m_primary>  (68) 
energy

$$$$
68:0
     RDKit          3D

 40 43  0  0  0  0  0  0  0  0999 V2000
   56.9050   19.8470   42.8360 H   0  0  0  0  0  0  0  0  0  0  0  0
   56.3950   20.7400   42.6520 N   0  0  0  0  0  0  0  0  0  0  0  0
   56.6400   21.8110   43.3340 C   0  0  0  0  0  0  0  0  0  0  0  0
   55.6850   22.7680   43.4740 N   0  0  0  0  0  0  0  0  0  0  0  0
   55.9260   23.9000   44.1850 C   0  0  0  0  0  0  0  0  0  0  0  0
   55.1402   24.6633   44.2841 H   0  0  0  0  0  0  0  0  0  0  0  0
   57.1740   24.0980   44.7930 C   0  0  0  0  0  0  0  0  0  0  0  0
   57.4620   25.3180   45.5850 C   0  0  0  0  0  0  0  0  0  0  0  0
   57.2390   26.5880   45.0270 C   0  0  0  0  0  0  0  0  0  0  0  0
   56.8474   26.6786   44.0031 H   0  0  0  0  0  0  0  0  0  0  0  0
   57.5170   27.7430   45.7790 C   0  0  0  0  0  0  0  0  0  0  0  0
   57.3060   29.1020   45.2340 C   0  0  0  0  0  0  0  0  0  0  0  0
   58.5170   30.2650   45.0780 S   0  0  0  0  0  0  0  0  0  0  0  0
   57.4760   31.4030   44.4210 C   0  0  0  0  0  0  0  0  0  0  0  0
   57.8440   32.6010   44.0770 N   0  0  0  0  0  0  0  0  0  0  0  0
   57.8570   33.7490   44.9390 C   0  0  0  0  0  0  0  0  0  0  0  0
   56.7690   34.1600   45.4210 O   0  0  0  0  0  0  0  0  0  0  0  0
   59.0680   34.4410   45.2730 N   0  0  0  0  0  0  0  0  0  0  0  0
   59.8640   34.2320   46.4490 C   0  0  0  0  0  0  0  0  0  0  0  0
   59.2750   34.4200   47.7070 C   0  0  0  0  0  0  0  0  0  0  0  0
   58.2200   34.7232   47.7777 H   0  0  0  0  0  0  0  0  0  0  0  0
   60.0220   34.2240   48.8720 C   0  0  0  0  0  0  0  0  0  0  0  0
   59.5561   34.3817   49.8559 H   0  0  0  0  0  0  0  0  0  0  0  0
   61.3600   33.8280   48.7890 C   0  0  0  0  0  0  0  0  0  0  0  0
   61.9489   33.6825   49.7066 H   0  0  0  0  0  0  0  0  0  0  0  0
   61.9490   33.6170   47.5390 C   0  0  0  0  0  0  0  0  0  0  0  0
   62.9999   33.2987   47.4738 H   0  0  0  0  0  0  0  0  0  0  0  0
   61.2040   33.8100   46.3710 C   0  0  0  0  0  0  0  0  0  0  0  0
   61.6668   33.6315   45.3892 H   0  0  0  0  0  0  0  0  0  0  0  0
   56.2110   30.9380   44.3220 N   0  0  0  0  0  0  0  0  0  0  0  0
   56.1100   29.6580   44.7680 C   0  0  0  0  0  0  0  0  0  0  0  0
   55.1608   29.1021   44.7629 H   0  0  0  0  0  0  0  0  0  0  0  0
   57.9980   27.6120   47.0450 N   0  0  0  0  0  0  0  0  0  0  0  0
   58.2190   26.3990   47.6130 C   0  0  0  0  0  0  0  0  0  0  0  0
   58.6077   26.3376   48.6402 H   0  0  0  0  0  0  0  0  0  0  0  0
   57.9550   25.2300   46.8990 C   0  0  0  0  0  0  0  0  0  0  0  0
   58.1450   24.0270   47.5000 F   0  0  0  0  0  0  0  0  0  0  0  0
   58.1390   23.0910   44.6400 C   0  0  0  0  0  0  0  0  0  0  0  0
   59.1284   23.2041   45.1073 H   0  0  0  0  0  0  0  0  0  0  0  0
   57.8550   21.9760   43.9160 N   0  0  0  0  0  0  0  0  0  0  0  0
  1  2  1  0
  2  3  2  3
  3  4  1  0
  4  5  2  0
  5  6  1  0
  5  7  1  0
  7  8  1  0
  8  9  2  0
  9 10  1  0
  9 11  1  0
 11 12  1  0
 12 13  1  0
 13 14  1  0
 14 15  2  0
 15 16  1  0
 16 17  2  0
 16 18  1  0
 18 19  1  0
 19 20  2  0
 20 21  1  0
 20 22  1  0
 22 23  1  0
 22 24  2  0
 24 25  1  0
 24 26  1  0
 26 27  1  0
 26 28  2  0
 28 29  1  0
 14 30  1  0
 30 31  1  0
 31 32  1  0
 11 33  2  0
 33 34  1  0
 34 35  1  0
 34 36  2  0
 36 37  1  0
  7 38  2  0
 38 39  1  0
 38 40  1  0
 40  3  1  0
 36  8  1  0
 31 12  2  0
 28 19  1  0
M  CHG  3  18  -1  30  -1  40  -1
M  END
>  <UniqueID>  (69) 
64

>  <SMILES>  (69) 
N=c1ncc(-c2cc(-c3c[n-]/c(=N\C(=O)[N-]c4ccccc4)s3)ncc2F)c[n-]1

>  <Energy>  (69) 
91.81230232439697

>  <Genealogy>  (69) 
N=c1ncc(-c2cc(-c3c[n-]c(=NC(=O)[N-]c4ccccc4)s3)ncc2F)c[n-]1 (protonated)
N=c1ncc(-c2cc(-c3c[n-]/c(=N\C(=O)[N-]c4ccccc4)s3)ncc2F)c[n-]1 (cis-trans isomerization)
N=c1ncc(-c2cc(-c3c[n-]/c(=N\C(=O)[N-]c4ccccc4)s3)ncc2F)c[n-]1 (3D coordinates assigned)
N=c1ncc(-c2cc(-c3c[n-]/c(=N\C(=O)[N-]c4ccccc4)s3)ncc2F)c[n-]1 (optimized conformer: 91.81230232439697 kcal/mol)

>  <smiles>  (69) 
N=c1ncc(-c2cc(-c3c[nH]c(=NC(=O)Nc4ccccc4)s3)ncc2F)c[nH]1

>  <score_type>  (69) 
oracle

>  <origin>  (69) 
adg

>  <m_score__min__energy>  (69) 
-11.859999999999999

>  <m_primary>  (69) 
energy

$$$$
69:0
     RDKit          3D

 44 46  0  0  0  0  0  0  0  0999 V2000
   55.5170   28.9270   45.1780 O   0  0  0  0  0  0  0  0  0  0  0  0
   56.5570   29.6300   45.0900 C   0  0  0  0  0  0  0  0  0  0  0  0
   56.4500   30.9860   44.8080 O   0  0  0  0  0  0  0  0  0  0  0  0
   57.9030   29.0170   45.3260 C   0  0  0  0  0  0  0  0  0  0  0  0
   58.9090   30.0460   45.8580 C   0  0  0  0  0  0  0  0  0  0  0  0
   58.5700   30.5080   47.2810 C   0  0  0  0  0  0  0  0  0  0  0  0
   59.1400   31.8380   47.5310 N   0  0  0  0  0  0  0  0  0  0  0  0
   59.4040   32.7820   46.5990 C   0  0  0  0  0  0  0  0  0  0  0  0
   59.0420   32.7010   45.2550 O   0  0  0  0  0  0  0  0  0  0  0  0
   60.1110   33.8320   47.1440 C   0  0  0  0  0  0  0  0  0  0  0  0
   60.3130   33.5110   48.4710 C   0  0  0  0  0  0  0  0  0  0  0  0
   59.7000   32.2900   48.6800 C   0  0  0  0  0  0  0  0  0  0  0  0
   59.7280   31.5660   49.9650 C   0  0  0  0  0  0  0  0  0  0  0  0
   58.6130   31.2890   50.6670 C   0  0  0  0  0  0  0  0  0  0  0  0
   57.8710   32.3000   51.1950 N   0  0  0  0  0  0  0  0  0  0  0  0
   56.7390   32.0780   51.9110 C   0  0  0  0  0  0  0  0  0  0  0  0
   56.1350   33.0660   52.4050 O   0  0  0  0  0  0  0  0  0  0  0  0
   56.2980   30.7480   52.1130 C   0  0  0  0  0  0  0  0  0  0  0  0
   55.1840   30.4030   52.7920 C   0  0  0  0  0  0  0  0  0  0  0  0
   53.8320   30.9610   52.5840 C   0  0  0  0  0  0  0  0  0  0  0  0
   52.9130   31.0320   53.6440 C   0  0  0  0  0  0  0  0  0  0  0  0
   51.6570   31.6140   53.4470 C   0  0  0  0  0  0  0  0  0  0  0  0
   51.3190   32.1470   52.1990 C   0  0  0  0  0  0  0  0  0  0  0  0
   50.0700   32.7250   52.0040 O   0  0  0  0  0  0  0  0  0  0  0  0
   52.2430   32.1060   51.1490 C   0  0  0  0  0  0  0  0  0  0  0  0
   53.4990   31.5240   51.3430 C   0  0  0  0  0  0  0  0  0  0  0  0
   57.0640   29.7400   51.6130 N   0  0  0  0  0  0  0  0  0  0  0  0
   58.1980   29.9640   50.9020 C   0  0  0  0  0  0  0  0  0  0  0  0
   58.8540   28.9820   50.4610 O   0  0  0  0  0  0  0  0  0  0  0  0
   57.8011   28.2049   46.0610 H   0  0  0  0  0  0  0  0  0  0  0  0
   58.2789   28.6342   44.3657 H   0  0  0  0  0  0  0  0  0  0  0  0
   59.9109   29.5919   45.8625 H   0  0  0  0  0  0  0  0  0  0  0  0
   58.8706   30.9264   45.1997 H   0  0  0  0  0  0  0  0  0  0  0  0
   57.4772   30.5531   47.3978 H   0  0  0  0  0  0  0  0  0  0  0  0
   58.9952   29.7937   48.0014 H   0  0  0  0  0  0  0  0  0  0  0  0
   58.1900   32.2490   44.9550 H   0  0  0  0  0  0  0  0  0  0  0  0
   60.4466   34.7424   46.6258 H   0  0  0  0  0  0  0  0  0  0  0  0
   60.8560   34.1101   49.2168 H   0  0  0  0  0  0  0  0  0  0  0  0
   60.6989   31.2393   50.3658 H   0  0  0  0  0  0  0  0  0  0  0  0
   55.2926   29.6354   53.5724 H   0  0  0  0  0  0  0  0  0  0  0  0
   53.1821   30.6288   54.6314 H   0  0  0  0  0  0  0  0  0  0  0  0
   50.9337   31.6527   54.2748 H   0  0  0  0  0  0  0  0  0  0  0  0
   51.9806   32.5324   50.1695 H   0  0  0  0  0  0  0  0  0  0  0  0
   54.2286   31.5074   50.5199 H   0  0  0  0  0  0  0  0  0  0  0  0
  1  2  2  0
  2  3  1  0
  2  4  1  0
  4  5  1  0
  5  6  1  0
  6  7  1  0
  7  8  1  0
  8  9  1  0
  8 10  2  0
 10 11  1  0
 11 12  2  0
 12 13  1  0
 13 14  2  3
 14 15  1  0
 15 16  1  0
 16 17  2  0
 16 18  1  0
 18 19  2  3
 19 20  1  0
 20 21  2  0
 21 22  1  0
 22 23  2  0
 23 24  1  0
 23 25  1  0
 25 26  2  0
 18 27  1  0
 27 28  1  0
 28 29  2  0
 12  7  1  0
 28 14  1  0
 26 20  1  0
  4 30  1  0
  4 31  1  0
  5 32  1  0
  5 33  1  0
  6 34  1  0
  6 35  1  0
  9 36  1  0
 10 37  1  0
 11 38  1  0
 13 39  1  0
 19 40  1  0
 21 41  1  0
 22 42  1  0
 25 43  1  0
 26 44  1  0
M  CHG  4   3  -1  15  -1  24  -1  27  -1
M  END
>  <UniqueID>  (70) 
65

>  <SMILES>  (70) 
O=C([O-])CCCn1c(O)ccc1C=c1[n-]c(=O)c(=Cc2ccc([O-])cc2)[n-]c1=O

>  <Energy>  (70) 
90.30962687878244

>  <Genealogy>  (70) 
O=C([O-])CCCn1c(O)ccc1C=c1[n-]c(=O)c(=Cc2ccc([O-])cc2)[n-]c1=O (protonated)
O=C([O-])CCCn1c(O)ccc1C=c1[n-]c(=O)c(=Cc2ccc([O-])cc2)[n-]c1=O (3D coordinates assigned)
O=C([O-])CCCn1c(O)ccc1C=c1[n-]c(=O)c(=Cc2ccc([O-])cc2)[n-]c1=O (optimized conformer: 90.30962687878244 kcal/mol)

>  <smiles>  (70) 
O=C(O)CCCn1c(O)ccc1C=c1[nH]c(=O)c(=Cc2ccc(O)cc2)[nH]c1=O

>  <score_type>  (70) 
oracle

>  <origin>  (70) 
adg

>  <m_score__min__energy>  (70) 
-14.970000000000001

>  <m_primary>  (70) 
energy

$$$$
70:0
     RDKit          3D

 43 44  0  0  0  0  0  0  0  0999 V2000
   60.8220   27.4310   50.2540 O   0  0  0  0  0  0  0  0  0  0  0  0
   60.0440   28.0360   49.4700 C   0  0  0  0  0  0  0  0  0  0  0  0
   59.6120   27.3540   48.1980 C   0  0  0  0  0  0  0  0  0  0  0  0
   59.7650   28.2650   46.9710 C   0  0  0  0  0  0  0  0  0  0  0  0
   58.4490   28.5110   46.2780 C   0  0  0  0  0  0  0  0  0  0  0  0
   58.2420   29.6920   45.5460 C   0  0  0  0  0  0  0  0  0  0  0  0
   57.0310   29.9060   44.8810 C   0  0  0  0  0  0  0  0  0  0  0  0
   56.0200   28.9400   44.9350 C   0  0  0  0  0  0  0  0  0  0  0  0
   54.8180   29.1590   44.2710 O   0  0  0  0  0  0  0  0  0  0  0  0
   56.2230   27.7550   45.6530 C   0  0  0  0  0  0  0  0  0  0  0  0
   55.2240   26.7890   45.7040 O   0  0  0  0  0  0  0  0  0  0  0  0
   57.4340   27.5410   46.3200 C   0  0  0  0  0  0  0  0  0  0  0  0
   59.5520   29.3270   49.8490 N   0  0  0  0  0  0  0  0  0  0  0  0
   58.1570   29.7460   49.7770 C   0  0  0  0  0  0  0  0  0  0  0  0
   57.8250   30.5640   50.9810 C   0  0  0  0  0  0  0  0  0  0  0  0
   58.7470   31.0080   51.7190 O   0  0  0  0  0  0  0  0  0  0  0  0
   56.4590   30.8800   51.2570 N   0  0  0  0  0  0  0  0  0  0  0  0
   55.6990   30.2740   52.3430 C   0  0  0  0  0  0  0  0  0  0  0  0
   54.4110   29.6510   51.7990 C   0  0  0  0  0  0  0  0  0  0  0  0
   53.2450   30.5970   51.9240 C   0  0  0  0  0  0  0  0  0  0  0  0
   52.6580   30.8400   53.1780 C   0  0  0  0  0  0  0  0  0  0  0  0
   51.5520   31.6880   53.2850 C   0  0  0  0  0  0  0  0  0  0  0  0
   51.0180   32.2940   52.1450 C   0  0  0  0  0  0  0  0  0  0  0  0
   49.9170   33.1360   52.2600 O   0  0  0  0  0  0  0  0  0  0  0  0
   51.5900   32.0490   50.8900 C   0  0  0  0  0  0  0  0  0  0  0  0
   51.0600   32.6460   49.7520 O   0  0  0  0  0  0  0  0  0  0  0  0
   52.6980   31.2020   50.7800 C   0  0  0  0  0  0  0  0  0  0  0  0
   60.2286   26.4550   48.0509 H   0  0  0  0  0  0  0  0  0  0  0  0
   58.5471   27.0969   48.2973 H   0  0  0  0  0  0  0  0  0  0  0  0
   60.1804   29.2304   47.2959 H   0  0  0  0  0  0  0  0  0  0  0  0
   60.4340   27.7617   46.2575 H   0  0  0  0  0  0  0  0  0  0  0  0
   59.0361   30.4516   45.4958 H   0  0  0  0  0  0  0  0  0  0  0  0
   56.8726   30.8354   44.3143 H   0  0  0  0  0  0  0  0  0  0  0  0
   57.5922   26.6078   46.8805 H   0  0  0  0  0  0  0  0  0  0  0  0
   58.0003   30.3475   48.8694 H   0  0  0  0  0  0  0  0  0  0  0  0
   57.5071   28.8592   49.7432 H   0  0  0  0  0  0  0  0  0  0  0  0
   56.3076   29.4924   52.8212 H   0  0  0  0  0  0  0  0  0  0  0  0
   55.4411   31.0498   53.0790 H   0  0  0  0  0  0  0  0  0  0  0  0
   54.5557   29.4001   50.7378 H   0  0  0  0  0  0  0  0  0  0  0  0
   54.1884   28.7488   52.3876 H   0  0  0  0  0  0  0  0  0  0  0  0
   53.0705   30.3611   54.0783 H   0  0  0  0  0  0  0  0  0  0  0  0
   51.1006   31.8788   54.2698 H   0  0  0  0  0  0  0  0  0  0  0  0
   53.1432   31.0087   49.7929 H   0  0  0  0  0  0  0  0  0  0  0  0
  1  2  2  0
  2  3  1  0
  3  4  1  0
  4  5  1  0
  5  6  2  0
  6  7  1  0
  7  8  2  0
  8  9  1  0
  8 10  1  0
 10 11  1  0
 10 12  2  0
  2 13  1  0
 13 14  1  0
 14 15  1  0
 15 16  2  0
 15 17  1  0
 17 18  1  0
 18 19  1  0
 19 20  1  0
 20 21  2  0
 21 22  1  0
 22 23  2  0
 23 24  1  0
 23 25  1  0
 25 26  1  0
 25 27  2  0
 12  5  1  0
 27 20  1  0
  3 28  1  0
  3 29  1  0
  4 30  1  0
  4 31  1  0
  6 32  1  0
  7 33  1  0
 12 34  1  0
 14 35  1  0
 14 36  1  0
 18 37  1  0
 18 38  1  0
 19 39  1  0
 19 40  1  0
 21 41  1  0
 22 42  1  0
 27 43  1  0
M  CHG  6   9  -1  11  -1  13  -1  17  -1  24  -1  26  -1
M  END
>  <UniqueID>  (71) 
66

>  <SMILES>  (71) 
O=C(CCc1ccc([O-])c([O-])c1)[N-]CC(=O)[N-]CCc1ccc([O-])c([O-])c1

>  <Energy>  (71) 
31.31967917020518

>  <Genealogy>  (71) 
O=C(CCc1ccc([O-])c([O-])c1)[N-]CC(=O)[N-]CCc1ccc([O-])c([O-])c1 (protonated)
O=C(CCc1ccc([O-])c([O-])c1)[N-]CC(=O)[N-]CCc1ccc([O-])c([O-])c1 (3D coordinates assigned)
O=C(CCc1ccc([O-])c([O-])c1)[N-]CC(=O)[N-]CCc1ccc([O-])c([O-])c1 (optimized conformer: 31.31967917020518 kcal/mol)

>  <smiles>  (71) 
O=C(CCc1ccc(O)c(O)c1)NCC(=O)NCCc1ccc(O)c(O)c1

>  <score_type>  (71) 
oracle

>  <origin>  (71) 
adg

>  <m_score__min__energy>  (71) 
-25.050000000000001

>  <m_primary>  (71) 
energy

$$$$
71:0
     RDKit          3D

 82 82  0  0  0  0  0  0  0  0999 V2000
   58.3679   34.0593   47.5741 H   0  0  0  0  0  0  0  0  0  0  0  0
   59.0470   34.5110   46.8360 C   0  0  0  0  0  0  0  0  0  0  0  0
   58.1590   30.5060   50.4270 C   0  0  0  0  0  0  0  0  0  0  0  0
   57.1746   30.1214   50.7319 H   0  0  0  0  0  0  0  0  0  0  0  0
   58.3250   31.8270   50.2760 C   0  0  0  0  0  0  0  0  0  0  0  0
   58.2706   32.2649   49.2684 H   0  0  0  0  0  0  0  0  0  0  0  0
   59.2810   29.5370   50.1910 C   0  0  0  0  0  0  0  0  0  0  0  0
   60.2396   30.0307   50.4088 H   0  0  0  0  0  0  0  0  0  0  0  0
   59.1490   28.6667   50.8507 H   0  0  0  0  0  0  0  0  0  0  0  0
   58.8890   29.8830   47.7610 C   0  0  0  0  0  0  0  0  0  0  0  0
   58.2669   30.7601   47.9926 H   0  0  0  0  0  0  0  0  0  0  0  0
   60.9550   33.0360   52.1110 C   0  0  0  0  0  0  0  0  0  0  0  0
   61.3999   33.7808   52.7872 H   0  0  0  0  0  0  0  0  0  0  0  0
   61.1680   31.8360   47.2610 C   0  0  0  0  0  0  0  0  0  0  0  0
   60.7069   32.3620   46.4120 H   0  0  0  0  0  0  0  0  0  0  0  0
   60.4450   31.7149   48.0811 H   0  0  0  0  0  0  0  0  0  0  0  0
   60.7880   29.5790   46.2190 C   0  0  0  0  0  0  0  0  0  0  0  0
   61.2378   28.7751   45.6178 H   0  0  0  0  0  0  0  0  0  0  0  0
   61.6120   30.4660   46.8090 C   0  0  0  0  0  0  0  0  0  0  0  0
   62.6613   30.1776   46.9695 H   0  0  0  0  0  0  0  0  0  0  0  0
   60.8870   34.5640   48.5620 C   0  0  0  0  0  0  0  0  0  0  0  0
   60.2085   33.8917   49.1076 H   0  0  0  0  0  0  0  0  0  0  0  0
   61.0916   35.4830   49.1308 H   0  0  0  0  0  0  0  0  0  0  0  0
   58.5960   34.5780   45.4340 C   0  0  0  0  0  0  0  0  0  0  0  0
   59.2895   34.9241   44.6534 H   0  0  0  0  0  0  0  0  0  0  0  0
   62.3360   32.6490   47.7690 C   0  0  0  0  0  0  0  0  0  0  0  0
   63.3482   32.2329   47.6579 H   0  0  0  0  0  0  0  0  0  0  0  0
   58.5840   32.7230   51.4550 C   0  0  0  0  0  0  0  0  0  0  0  0
   58.5670   32.1221   52.3762 H   0  0  0  0  0  0  0  0  0  0  0  0
   57.8029   33.4967   51.4906 H   0  0  0  0  0  0  0  0  0  0  0  0
   59.2740   29.0740   48.7590 C   0  0  0  0  0  0  0  0  0  0  0  0
   59.5923   28.0473   48.5253 H   0  0  0  0  0  0  0  0  0  0  0  0
   59.9220   33.3920   51.3270 C   0  0  0  0  0  0  0  0  0  0  0  0
   60.0597   34.1869   50.5792 H   0  0  0  0  0  0  0  0  0  0  0  0
   59.2850   29.6230   46.3340 C   0  0  0  0  0  0  0  0  0  0  0  0
   58.8658   28.6594   46.0088 H   0  0  0  0  0  0  0  0  0  0  0  0
   58.8963   30.4312   45.6970 H   0  0  0  0  0  0  0  0  0  0  0  0
   62.2030   33.8550   48.3500 C   0  0  0  0  0  0  0  0  0  0  0  0
   63.1173   34.3601   48.6949 H   0  0  0  0  0  0  0  0  0  0  0  0
   57.3530   34.2220   45.1050 C   0  0  0  0  0  0  0  0  0  0  0  0
   56.6343   34.9954   44.7964 H   0  0  0  0  0  0  0  0  0  0  0  0
   61.5140   31.6410   52.0820 C   0  0  0  0  0  0  0  0  0  0  0  0
   60.7194   30.9292   52.3503 H   0  0  0  0  0  0  0  0  0  0  0  0
   62.3439   31.5804   52.8015 H   0  0  0  0  0  0  0  0  0  0  0  0
   62.0500   31.2930   50.6850 C   0  0  0  0  0  0  0  0  0  0  0  0
   61.7061   32.0598   49.9752 H   0  0  0  0  0  0  0  0  0  0  0  0
   61.6691   30.2950   50.4225 H   0  0  0  0  0  0  0  0  0  0  0  0
   63.5870   31.2310   50.6360 C   0  0  0  0  0  0  0  0  0  0  0  0
   63.8914   30.8000   49.6708 H   0  0  0  0  0  0  0  0  0  0  0  0
   63.9221   30.6119   51.4812 H   0  0  0  0  0  0  0  0  0  0  0  0
   64.2400   32.6130   50.7850 C   0  0  0  0  0  0  0  0  0  0  0  0
   64.7242   32.6773   51.7706 H   0  0  0  0  0  0  0  0  0  0  0  0
   63.4587   33.3812   50.6875 H   0  0  0  0  0  0  0  0  0  0  0  0
   65.2850   32.8450   49.7010 C   0  0  0  0  0  0  0  0  0  0  0  0
   66.2569   33.0608   50.1688 H   0  0  0  0  0  0  0  0  0  0  0  0
   65.3710   31.9441   49.0757 H   0  0  0  0  0  0  0  0  0  0  0  0
   64.9817   33.6977   49.0757 H   0  0  0  0  0  0  0  0  0  0  0  0
   56.9250   32.8150   45.1470 C   0  0  0  0  0  0  0  0  0  0  0  0
   55.9293   32.5649   45.5420 H   0  0  0  0  0  0  0  0  0  0  0  0
   60.2310   34.9650   47.2690 C   0  0  0  0  0  0  0  0  0  0  0  0
   60.7636   35.6854   46.6307 H   0  0  0  0  0  0  0  0  0  0  0  0
   57.7220   31.8380   44.7150 C   0  0  0  0  0  0  0  0  0  0  0  0
   58.5784   31.5301   45.3329 H   0  0  0  0  0  0  0  0  0  0  0  0
   57.4770   31.1470   43.4020 C   0  0  0  0  0  0  0  0  0  0  0  0
   56.6221   31.6269   42.9031 H   0  0  0  0  0  0  0  0  0  0  0  0
   58.3925   31.2336   42.7984 H   0  0  0  0  0  0  0  0  0  0  0  0
   57.1700   29.6530   43.5820 C   0  0  0  0  0  0  0  0  0  0  0  0
   56.9360   29.2155   42.6003 H   0  0  0  0  0  0  0  0  0  0  0  0
   58.0534   29.1704   44.0256 H   0  0  0  0  0  0  0  0  0  0  0  0
   56.0070   29.4380   44.5000 C   0  0  0  0  0  0  0  0  0  0  0  0
   55.1370   30.3420   44.6280 O   0  0  0  0  0  0  0  0  0  0  0  0
   55.9090   28.2240   45.2520 N   0  0  0  0  0  0  0  0  0  0  0  0
   57.0650   27.4740   45.7310 C   0  0  0  0  0  0  0  0  0  0  0  0
   57.7829   27.3529   44.9064 H   0  0  0  0  0  0  0  0  0  0  0  0
   57.5251   28.0291   46.5618 H   0  0  0  0  0  0  0  0  0  0  0  0
   56.6550   26.1220   46.2270 C   0  0  0  0  0  0  0  0  0  0  0  0
   55.4460   25.5730   46.0070 N   0  0  0  0  0  0  0  0  0  0  0  0
   55.5280   24.3720   46.6120 C   0  0  0  0  0  0  0  0  0  0  0  0
   54.6969   23.6517   46.6343 H   0  0  0  0  0  0  0  0  0  0  0  0
   56.7270   24.1350   47.1890 N   0  0  0  0  0  0  0  0  0  0  0  0
   57.4390   25.2440   46.9350 C   0  0  0  0  0  0  0  0  0  0  0  0
   58.4800   25.4209   47.2433 H   0  0  0  0  0  0  0  0  0  0  0  0
  1  2  1  0
  2  3  1  0
  3  4  1  0
  3  5  2  3
  5  6  1  0
  5  7  1  0
  7  8  1  0
  7  9  1  0
  7 10  1  0
 10 11  1  0
 10 12  2  3
 12 13  1  0
 12 14  1  0
 14 15  1  0
 14 16  1  0
 14 17  1  0
 17 18  1  0
 17 19  2  0
 19 20  1  0
 19 21  1  0
 21 22  1  0
 21 23  1  0
 21 24  1  0
 24 25  1  0
 24 26  2  3
 26 27  1  0
 26 28  1  0
 28 29  1  0
 28 30  1  0
 28 31  1  0
 31 32  1  0
 31 33  2  3
 33 34  1  0
 33 35  1  0
 35 36  1  0
 35 37  1  0
 35 38  1  0
 38 39  1  0
 38 40  2  3
 40 41  1  0
 40 42  1  0
 42 43  1  0
 42 44  1  0
 42 45  1  0
 45 46  1  0
 45 47  1  0
 45 48  1  0
 48 49  1  0
 48 50  1  0
 48 51  1  0
 51 52  1  0
 51 53  1  0
 51 54  1  0
 54 55  1  0
 54 56  1  0
 54 57  1  0
  2 58  2  0
 58 59  1  0
 58 60  1  0
 60 61  1  0
 60 62  2  0
 62 63  1  0
 62 64  1  0
 64 65  1  0
 64 66  1  0
 64 67  1  0
 67 68  1  0
 67 69  1  0
 67 70  1  0
 70 71  2  0
 70 72  1  0
 72 73  1  0
 73 74  1  0
 73 75  1  0
 73 76  1  0
 76 77  1  0
 77 78  2  0
 78 79  1  0
 78 80  1  0
 80 81  1  0
 81 82  1  0
 81 76  2  0
M  CHG  2  72  -1  80  -1
M  END
>  <UniqueID>  (72) 
67

>  <SMILES>  (72) 
CCCCCC=CCC=CCC=CC/C=C\CC=CCC=CC=C/C=C/CCC(=O)[N-]Cc1c[n-]cn1

>  <Energy>  (72) 
65.54831397981303

>  <Genealogy>  (72) 
CCCCCC=CCC=CCC=CCC=CCC=CCC=CC=CC=CCCC(=O)[N-]Cc1c[n-]cn1 (protonated)
CCCCCC=CCC=CCC=CC/C=C\CC=CCC=CC=C/C=C/CCC(=O)[N-]Cc1c[n-]cn1 (cis-trans isomerization)
CCCCCC=CCC=CCC=CC/C=C\CC=CCC=CC=C/C=C/CCC(=O)[N-]Cc1c[n-]cn1 (3D coordinates assigned)
CCCCCC=CCC=CCC=CC/C=C\CC=CCC=CC=C/C=C/CCC(=O)[N-]Cc1c[n-]cn1 (optimized conformer: 65.54831397981303 kcal/mol)

>  <smiles>  (72) 
CCCCCC=CCC=CCC=CCC=CCC=CCC=CC=CC=CCCC(=O)NCc1c[nH]cn1

>  <score_type>  (72) 
oracle

>  <origin>  (72) 
adg

>  <m_score__min__energy>  (72) 
-11.56

>  <m_primary>  (72) 
energy

$$$$
72:0
     RDKit          3D

 35 36  0  0  0  0  0  0  0  0999 V2000
   58.7911   35.5136   44.8966 H   0  0  0  0  0  0  0  0  0  0  0  0
   58.6160   34.4350   45.0230 C   0  0  0  0  0  0  0  0  0  0  0  0
   58.2570   33.7460   43.9230 N   0  0  0  0  0  0  0  0  0  0  0  0
   58.0010   32.4430   43.6660 C   0  0  0  0  0  0  0  0  0  0  0  0
   57.6820   32.1790   42.4750 O   0  0  0  0  0  0  0  0  0  0  0  0
   58.0680   31.3700   44.5930 C   0  0  0  0  0  0  0  0  0  0  0  0
   57.8120   29.9710   44.0260 C   0  0  0  0  0  0  0  0  0  0  0  0
   58.0724   29.9643   42.9573 H   0  0  0  0  0  0  0  0  0  0  0  0
   58.4318   29.2522   44.5820 H   0  0  0  0  0  0  0  0  0  0  0  0
   56.3730   29.5750   44.1810 C   0  0  0  0  0  0  0  0  0  0  0  0
   55.5300   29.9390   43.3170 O   0  0  0  0  0  0  0  0  0  0  0  0
   55.9890   28.6950   45.2470 N   0  0  0  0  0  0  0  0  0  0  0  0
   56.5580   27.5920   45.6530 C   0  0  0  0  0  0  0  0  0  0  0  0
   57.9110   27.6040   45.8080 N   0  0  0  0  0  0  0  0  0  0  0  0
   58.6140   26.5140   46.2140 C   0  0  0  0  0  0  0  0  0  0  0  0
   59.7073   26.5724   46.3206 H   0  0  0  0  0  0  0  0  0  0  0  0
   57.9490   25.3230   46.4950 C   0  0  0  0  0  0  0  0  0  0  0  0
   58.5128   24.4311   46.8058 H   0  0  0  0  0  0  0  0  0  0  0  0
   56.5620   25.2740   46.3780 C   0  0  0  0  0  0  0  0  0  0  0  0
   56.0261   24.3398   46.6021 H   0  0  0  0  0  0  0  0  0  0  0  0
   55.8480   26.4070   45.9770 C   0  0  0  0  0  0  0  0  0  0  0  0
   54.4600   26.3400   45.9660 O   0  0  0  0  0  0  0  0  0  0  0  0
   58.3230   31.4650   45.9890 C   0  0  0  0  0  0  0  0  0  0  0  0
   58.2360   30.2620   46.7760 N   0  0  0  0  0  0  0  0  0  0  0  0
   57.4660   29.5860   46.5760 H   0  0  0  0  0  0  0  0  0  0  0  0
   59.1960   29.9320   47.7890 C   0  0  0  0  0  0  0  0  0  0  0  0
   60.2050   30.6650   47.9750 O   0  0  0  0  0  0  0  0  0  0  0  0
   59.0340   28.6820   48.5900 C   0  0  0  0  0  0  0  0  0  0  0  0
   59.0657   28.9267   49.6620 H   0  0  0  0  0  0  0  0  0  0  0  0
   58.0678   28.2147   48.3490 H   0  0  0  0  0  0  0  0  0  0  0  0
   59.8492   27.9839   48.3490 H   0  0  0  0  0  0  0  0  0  0  0  0
   58.6320   32.6180   46.7160 C   0  0  0  0  0  0  0  0  0  0  0  0
   58.7749   32.4612   47.7953 H   0  0  0  0  0  0  0  0  0  0  0  0
   58.7860   33.9230   46.2920 C   0  0  0  0  0  0  0  0  0  0  0  0
   59.0822   34.6468   47.0655 H   0  0  0  0  0  0  0  0  0  0  0  0
  1  2  1  0
  2  3  2  0
  3  4  1  0
  4  5  2  0
  4  6  1  0
  6  7  1  0
  7  8  1  0
  7  9  1  0
  7 10  1  0
 10 11  2  0
 10 12  1  0
 12 13  2  0
 13 14  1  0
 14 15  1  0
 15 16  1  0
 15 17  2  0
 17 18  1  0
 17 19  1  0
 19 20  1  0
 19 21  2  0
 21 22  1  0
  6 23  2  0
 23 24  1  0
 24 25  1  0
 24 26  1  0
 26 27  2  0
 26 28  1  0
 28 29  1  0
 28 30  1  0
 28 31  1  0
 23 32  1  0
 32 33  1  0
 32 34  2  0
 34 35  1  0
 34  2  1  0
 21 13  1  0
M  CHG  2  14  -1  22  -1
M  END
>  <UniqueID>  (73) 
68

>  <SMILES>  (73) 
CC(=O)Nc1cccnc(=O)c1CC(=O)/N=c1/[n-]cccc1[O-]

>  <Energy>  (73) 
76.60608656572956

>  <Genealogy>  (73) 
CC(=O)Nc1cccnc(=O)c1CC(=O)N=c1[n-]cccc1[O-] (protonated)
CC(=O)Nc1cccnc(=O)c1CC(=O)/N=c1/[n-]cccc1[O-] (cis-trans isomerization)
CC(=O)Nc1cccnc(=O)c1CC(=O)/N=c1/[n-]cccc1[O-] (3D coordinates assigned)
CC(=O)Nc1cccnc(=O)c1CC(=O)/N=c1/[n-]cccc1[O-] (optimized conformer: 76.60608656572956 kcal/mol)

>  <smiles>  (73) 
CC(=O)Nc1cccnc(=O)c1CC(=O)N=c1[nH]cccc1O

>  <score_type>  (73) 
oracle

>  <origin>  (73) 
adg

>  <m_score__min__energy>  (73) 
-12.66

>  <m_primary>  (73) 
energy

$$$$
73:0
     RDKit          3D

 74 78  0  0  0  0  0  0  0  0999 V2000
   62.8350   33.4760   46.9970 C   0  0  0  0  0  0  0  0  0  0  0  0
   61.5840   33.7340   47.6270 O   0  0  0  0  0  0  0  0  0  0  0  0
   60.3640   33.8800   46.9470 C   0  0  0  0  0  0  0  0  0  0  0  0
   60.3040   34.3550   45.6220 C   0  0  0  0  0  0  0  0  0  0  0  0
   59.0730   34.5130   44.9820 C   0  0  0  0  0  0  0  0  0  0  0  0
   57.8900   34.2000   45.6530 C   0  0  0  0  0  0  0  0  0  0  0  0
   57.9350   33.7270   46.9650 C   0  0  0  0  0  0  0  0  0  0  0  0
   59.1660   33.5560   47.6190 C   0  0  0  0  0  0  0  0  0  0  0  0
   59.1940   33.0660   48.9710 N   0  0  0  0  0  0  0  0  0  0  0  0
   60.2470   33.5080   49.8920 C   0  0  0  0  0  0  0  0  0  0  0  0
   60.3100   32.5870   51.1220 C   0  0  0  0  0  0  0  0  0  0  0  0
   60.1150   31.1680   50.7470 N   0  0  0  0  0  0  0  0  0  0  0  0
   61.2400   30.6620   49.9270 C   0  0  0  0  0  0  0  0  0  0  0  0
   61.0560   31.0460   48.4530 C   0  0  0  0  0  0  0  0  0  0  0  0
   60.2550   30.0330   47.7540 N   0  0  0  0  0  0  0  0  0  0  0  0
   59.5370   30.4170   46.6960 N   0  0  0  0  0  0  0  0  0  0  0  0
   58.7630   29.5550   45.9830 C   0  0  0  0  0  0  0  0  0  0  0  0
   58.0180   30.0520   44.7990 C   0  0  0  0  0  0  0  0  0  0  0  0
   56.9470   29.3230   44.2480 C   0  0  0  0  0  0  0  0  0  0  0  0
   56.2730   29.7980   43.1180 C   0  0  0  0  0  0  0  0  0  0  0  0
   56.6620   31.0000   42.5230 C   0  0  0  0  0  0  0  0  0  0  0  0
   57.7290   31.7280   43.0540 C   0  0  0  0  0  0  0  0  0  0  0  0
   58.4060   31.2570   44.1830 C   0  0  0  0  0  0  0  0  0  0  0  0
   58.6910   28.2190   46.3940 C   0  0  0  0  0  0  0  0  0  0  0  0
   59.4190   27.7980   47.5100 C   0  0  0  0  0  0  0  0  0  0  0  0
   59.3630   26.3530   47.9420 C   0  0  0  0  0  0  0  0  0  0  0  0
   58.5690   25.5400   46.9560 C   0  0  0  0  0  0  0  0  0  0  0  0
   59.2280   24.7700   45.9850 C   0  0  0  0  0  0  0  0  0  0  0  0
   58.4940   23.9870   45.0890 C   0  0  0  0  0  0  0  0  0  0  0  0
   57.0950   23.9580   45.1580 C   0  0  0  0  0  0  0  0  0  0  0  0
   56.1750   22.9840   44.0170 S   0  0  0  0  0  0  0  0  0  0  0  0
   56.8240   21.3290   43.9940 C   0  0  0  0  0  0  0  0  0  0  0  0
   56.2730   23.5800   42.6410 O   0  0  0  0  0  0  0  0  0  0  0  0
   54.7300   22.9540   44.4270 O   0  0  0  0  0  0  0  0  0  0  0  0
   56.4350   24.7270   46.1260 C   0  0  0  0  0  0  0  0  0  0  0  0
   57.1670   25.5090   47.0240 C   0  0  0  0  0  0  0  0  0  0  0  0
   60.2280   28.7310   48.1790 C   0  0  0  0  0  0  0  0  0  0  0  0
   60.9230   28.3680   49.1680 O   0  0  0  0  0  0  0  0  0  0  0  0
   58.7880   30.9200   50.1180 C   0  0  0  0  0  0  0  0  0  0  0  0
   58.1520   32.1670   49.4710 C   0  0  0  0  0  0  0  0  0  0  0  0
   63.6064   33.3169   47.7649 H   0  0  0  0  0  0  0  0  0  0  0  0
   62.7510   32.5763   46.3698 H   0  0  0  0  0  0  0  0  0  0  0  0
   63.1138   34.3355   46.3698 H   0  0  0  0  0  0  0  0  0  0  0  0
   61.2331   34.6031   45.0880 H   0  0  0  0  0  0  0  0  0  0  0  0
   59.0357   34.8847   43.9474 H   0  0  0  0  0  0  0  0  0  0  0  0
   56.9214   34.3263   45.1472 H   0  0  0  0  0  0  0  0  0  0  0  0
   56.9993   33.4863   47.4909 H   0  0  0  0  0  0  0  0  0  0  0  0
   61.2160   33.4838   49.3720 H   0  0  0  0  0  0  0  0  0  0  0  0
   60.0204   34.5314   50.2257 H   0  0  0  0  0  0  0  0  0  0  0  0
   61.2935   32.6981   51.6019 H   0  0  0  0  0  0  0  0  0  0  0  0
   59.5033   32.8761   51.8117 H   0  0  0  0  0  0  0  0  0  0  0  0
   62.1803   31.0958   50.2980 H   0  0  0  0  0  0  0  0  0  0  0  0
   61.2674   29.5651   50.0047 H   0  0  0  0  0  0  0  0  0  0  0  0
   60.5434   32.0174   48.3932 H   0  0  0  0  0  0  0  0  0  0  0  0
   62.0450   31.1093   47.9756 H   0  0  0  0  0  0  0  0  0  0  0  0
   56.6381   28.3734   44.7092 H   0  0  0  0  0  0  0  0  0  0  0  0
   55.4347   29.2234   42.6972 H   0  0  0  0  0  0  0  0  0  0  0  0
   56.1283   31.3732   41.6365 H   0  0  0  0  0  0  0  0  0  0  0  0
   58.0372   32.6733   42.5833 H   0  0  0  0  0  0  0  0  0  0  0  0
   59.2487   31.8327   44.5933 H   0  0  0  0  0  0  0  0  0  0  0  0
   58.0643   27.5038   45.8411 H   0  0  0  0  0  0  0  0  0  0  0  0
   60.3859   25.9527   48.0011 H   0  0  0  0  0  0  0  0  0  0  0  0
   58.8759   26.2941   48.9265 H   0  0  0  0  0  0  0  0  0  0  0  0
   60.3265   24.7826   45.9287 H   0  0  0  0  0  0  0  0  0  0  0  0
   59.0172   23.3912   44.3266 H   0  0  0  0  0  0  0  0  0  0  0  0
   56.9627   20.9752   45.0263 H   0  0  0  0  0  0  0  0  0  0  0  0
   56.1193   20.6660   43.4708 H   0  0  0  0  0  0  0  0  0  0  0  0
   57.7916   21.3218   43.4708 H   0  0  0  0  0  0  0  0  0  0  0  0
   55.3364   24.7151   46.1793 H   0  0  0  0  0  0  0  0  0  0  0  0
   56.6424   26.1026   47.7872 H   0  0  0  0  0  0  0  0  0  0  0  0
   58.9133   30.1533   49.3393 H   0  0  0  0  0  0  0  0  0  0  0  0
   58.1106   30.6020   50.9242 H   0  0  0  0  0  0  0  0  0  0  0  0
   57.5099   31.8544   48.6343 H   0  0  0  0  0  0  0  0  0  0  0  0
   57.5537   32.6971   50.2267 H   0  0  0  0  0  0  0  0  0  0  0  0
  1  2  1  0
  2  3  1  0
  3  4  2  0
  4  5  1  0
  5  6  2  0
  6  7  1  0
  7  8  2  0
  8  9  1  0
  9 10  1  0
 10 11  1  0
 11 12  1  0
 12 13  1  0
 13 14  1  0
 14 15  1  0
 15 16  1  0
 16 17  2  0
 17 18  1  0
 18 19  2  0
 19 20  1  0
 20 21  2  0
 21 22  1  0
 22 23  2  0
 17 24  1  0
 24 25  2  0
 25 26  1  0
 26 27  1  0
 27 28  2  0
 28 29  1  0
 29 30  2  0
 30 31  1  0
 31 32  1  0
 31 33  2  0
 31 34  2  0
 30 35  1  0
 35 36  2  0
 25 37  1  0
 37 38  2  0
 12 39  1  0
 39 40  1  0
  8  3  1  0
 40  9  1  0
 37 15  1  0
 23 18  1  0
 36 27  1  0
  1 41  1  0
  1 42  1  0
  1 43  1  0
  4 44  1  0
  5 45  1  0
  6 46  1  0
  7 47  1  0
 10 48  1  0
 10 49  1  0
 11 50  1  0
 11 51  1  0
 13 52  1  0
 13 53  1  0
 14 54  1  0
 14 55  1  0
 19 56  1  0
 20 57  1  0
 21 58  1  0
 22 59  1  0
 23 60  1  0
 24 61  1  0
 26 62  1  0
 26 63  1  0
 28 64  1  0
 29 65  1  0
 32 66  1  0
 32 67  1  0
 32 68  1  0
 35 69  1  0
 36 70  1  0
 39 71  1  0
 39 72  1  0
 40 73  1  0
 40 74  1  0
M  END
>  <UniqueID>  (74) 
69

>  <SMILES>  (74) 
COc1ccccc1N1CCN(CCn2nc(-c3ccccc3)cc(Cc3ccc(S(C)(=O)=O)cc3)c2=O)CC1

>  <Energy>  (74) 
90.15411835195044

>  <Genealogy>  (74) 
COc1ccccc1N1CCN(CCn2nc(-c3ccccc3)cc(Cc3ccc(S(C)(=O)=O)cc3)c2=O)CC1 (3D coordinates assigned)
COc1ccccc1N1CCN(CCn2nc(-c3ccccc3)cc(Cc3ccc(S(C)(=O)=O)cc3)c2=O)CC1 (nonaromatic ring conformer: 90.15411835195044 kcal/mol)

>  <smiles>  (74) 
COc1ccccc1N1CCN(CCn2nc(-c3ccccc3)cc(Cc3ccc(S(C)(=O)=O)cc3)c2=O)CC1

>  <score_type>  (74) 
oracle

>  <origin>  (74) 
adg

>  <m_score__min__energy>  (74) 
-9.9700000000000006

>  <m_primary>  (74) 
energy

$$$$
74:0
     RDKit          3D

 28 29  0  0  0  0  0  0  0  0999 V2000
   55.2270   29.1770   44.8370 N   0  0  0  0  0  0  0  0  0  0  0  0
   56.5690   29.1490   45.3210 C   0  0  0  0  0  0  0  0  0  0  0  0
   57.1920   30.2380   45.4460 O   0  0  0  0  0  0  0  0  0  0  0  0
   57.2140   27.8560   45.6730 C   0  0  0  0  0  0  0  0  0  0  0  0
   58.6170   27.7840   45.7780 C   0  0  0  0  0  0  0  0  0  0  0  0
   59.2500   26.5800   46.0900 C   0  0  0  0  0  0  0  0  0  0  0  0
   58.4960   25.4300   46.3180 C   0  0  0  0  0  0  0  0  0  0  0  0
   57.0960   25.4820   46.2560 C   0  0  0  0  0  0  0  0  0  0  0  0
   56.3100   24.3070   46.4870 N   0  0  0  0  0  0  0  0  0  0  0  0
   56.2060   23.6090   47.7380 C   0  0  0  0  0  0  0  0  0  0  0  0
   57.2600   23.2320   48.3110 O   0  0  0  0  0  0  0  0  0  0  0  0
   54.8750   23.2300   48.3280 C   0  0  0  0  0  0  0  0  0  0  0  0
   53.9740   22.6670   47.2710 C   0  0  0  0  0  0  0  0  0  0  0  0
   53.6220   21.3720   47.1950 N   0  0  0  0  0  0  0  0  0  0  0  0
   52.8460   21.3250   46.0900 C   0  0  0  0  0  0  0  0  0  0  0  0
   52.3150   20.2600   45.6800 O   0  0  0  0  0  0  0  0  0  0  0  0
   52.6890   22.5070   45.4560 N   0  0  0  0  0  0  0  0  0  0  0  0
   53.4140   23.3470   46.2140 C   0  0  0  0  0  0  0  0  0  0  0  0
   53.5660   24.7030   45.9420 O   0  0  0  0  0  0  0  0  0  0  0  0
   56.4560   26.6830   45.9080 C   0  0  0  0  0  0  0  0  0  0  0  0
   55.0670   26.7000   45.8140 O   0  0  0  0  0  0  0  0  0  0  0  0
   54.4310   29.3940   45.4770 H   0  0  0  0  0  0  0  0  0  0  0  0
   59.2212   28.6881   45.6120 H   0  0  0  0  0  0  0  0  0  0  0  0
   60.3472   26.5384   46.1562 H   0  0  0  0  0  0  0  0  0  0  0  0
   59.0003   24.4796   46.5471 H   0  0  0  0  0  0  0  0  0  0  0  0
   55.0287   22.4746   49.1127 H   0  0  0  0  0  0  0  0  0  0  0  0
   54.4055   24.1290   48.7540 H   0  0  0  0  0  0  0  0  0  0  0  0
   54.3370   25.2250   46.3380 H   0  0  0  0  0  0  0  0  0  0  0  0
  1  2  1  0
  2  3  2  0
  2  4  1  0
  4  5  2  0
  5  6  1  0
  6  7  2  0
  7  8  1  0
  8  9  1  0
  9 10  1  0
 10 11  2  0
 10 12  1  0
 12 13  1  0
 13 14  1  0
 14 15  1  0
 15 16  2  0
 15 17  1  0
 17 18  1  0
 18 19  1  0
  8 20  2  0
 20 21  1  0
 20  4  1  0
 18 13  2  0
  1 22  1  0
  5 23  1  0
  6 24  1  0
  7 25  1  0
 12 26  1  0
 12 27  1  0
 19 28  1  0
M  CHG  5   1  -1   9  -1  14  -1  17  -1  21  -1
M  END
>  <UniqueID>  (75) 
70

>  <SMILES>  (75) 
[NH-]C(=O)c1cccc([N-]C(=O)Cc2[n-]c(=O)[n-]c2O)c1[O-]

>  <Energy>  (75) 
61.98805794851039

>  <Genealogy>  (75) 
[NH-]C(=O)c1cccc([N-]C(=O)Cc2[n-]c(=O)[n-]c2O)c1[O-] (protonated)
[NH-]C(=O)c1cccc([N-]C(=O)Cc2[n-]c(=O)[n-]c2O)c1[O-] (3D coordinates assigned)
[NH-]C(=O)c1cccc([N-]C(=O)Cc2[n-]c(=O)[n-]c2O)c1[O-] (optimized conformer: 61.98805794851039 kcal/mol)

>  <smiles>  (75) 
NC(=O)c1cccc(NC(=O)Cc2[nH]c(=O)[nH]c2O)c1O

>  <score_type>  (75) 
oracle

>  <origin>  (75) 
adg

>  <m_score__min__energy>  (75) 
-18.120000000000001

>  <m_primary>  (75) 
energy

$$$$
75:0
     RDKit          3D

 56 59  0  0  0  0  0  0  0  0999 V2000
   57.2450   31.2150   54.4910 C   0  0  0  0  0  0  0  0  0  0  0  0
   56.9350   29.9720   54.0840 C   0  0  0  0  0  0  0  0  0  0  0  0
   57.8410   29.0010   53.6220 C   0  0  0  0  0  0  0  0  0  0  0  0
   59.1370   29.0990   53.2650 C   0  0  0  0  0  0  0  0  0  0  0  0
   59.6330   29.7350   52.0380 C   0  0  0  0  0  0  0  0  0  0  0  0
   61.2560   29.9690   51.6660 S   0  0  0  0  0  0  0  0  0  0  0  0
   60.9270   30.6160   50.1490 C   0  0  0  0  0  0  0  0  0  0  0  0
   62.0900   31.1600   49.1300 S   0  0  0  0  0  0  0  0  0  0  0  0
   59.5910   30.6300   49.8900 N   0  0  0  0  0  0  0  0  0  0  0  0
   58.9690   31.1740   48.6770 C   0  0  0  0  0  0  0  0  0  0  0  0
   58.7950   32.6880   48.8100 C   0  0  0  0  0  0  0  0  0  0  0  0
   58.7670   33.3380   47.4530 C   0  0  0  0  0  0  0  0  0  0  0  0
   57.7680   32.9980   46.5260 C   0  0  0  0  0  0  0  0  0  0  0  0
   57.7170   33.6330   45.2810 C   0  0  0  0  0  0  0  0  0  0  0  0
   58.6570   34.6180   44.9570 C   0  0  0  0  0  0  0  0  0  0  0  0
   59.6440   34.9710   45.8800 C   0  0  0  0  0  0  0  0  0  0  0  0
   59.6990   34.3380   47.1270 C   0  0  0  0  0  0  0  0  0  0  0  0
   58.8730   30.1300   50.9370 C   0  0  0  0  0  0  0  0  0  0  0  0
   57.4860   30.0150   50.9010 O   0  0  0  0  0  0  0  0  0  0  0  0
   57.1320   27.8170   53.5340 C   0  0  0  0  0  0  0  0  0  0  0  0
   55.8280   28.1050   53.8720 C   0  0  0  0  0  0  0  0  0  0  0  0
   54.7100   27.1080   53.8190 C   0  0  0  0  0  0  0  0  0  0  0  0
   55.6940   29.4170   54.1910 N   0  0  0  0  0  0  0  0  0  0  0  0
   54.4250   30.0690   54.5660 C   0  0  0  0  0  0  0  0  0  0  0  0
   53.6020   30.3860   53.3390 C   0  0  0  0  0  0  0  0  0  0  0  0
   52.2250   30.1130   53.3330 C   0  0  0  0  0  0  0  0  0  0  0  0
   51.4490   30.3860   52.2040 C   0  0  0  0  0  0  0  0  0  0  0  0
   52.0360   30.9390   51.0540 C   0  0  0  0  0  0  0  0  0  0  0  0
   51.2210   31.2200   49.8510 C   0  0  0  0  0  0  0  0  0  0  0  0
   50.6430   32.3310   49.7150 O   0  0  0  0  0  0  0  0  0  0  0  0
   51.0770   30.2590   48.8570 O   0  0  0  0  0  0  0  0  0  0  0  0
   53.4120   31.2210   51.0590 C   0  0  0  0  0  0  0  0  0  0  0  0
   54.1930   30.9550   52.1930 C   0  0  0  0  0  0  0  0  0  0  0  0
   55.5540   31.2580   52.1810 O   0  0  0  0  0  0  0  0  0  0  0  0
   56.4517   31.8951   54.8345 H   0  0  0  0  0  0  0  0  0  0  0  0
   58.2920   31.5521   54.4805 H   0  0  0  0  0  0  0  0  0  0  0  0
   59.8835   28.6676   53.9481 H   0  0  0  0  0  0  0  0  0  0  0  0
   59.6101   30.9561   47.8101 H   0  0  0  0  0  0  0  0  0  0  0  0
   57.9820   30.7087   48.5384 H   0  0  0  0  0  0  0  0  0  0  0  0
   57.8499   32.8990   49.3317 H   0  0  0  0  0  0  0  0  0  0  0  0
   59.6430   33.0941   49.3809 H   0  0  0  0  0  0  0  0  0  0  0  0
   57.0231   32.2295   46.7802 H   0  0  0  0  0  0  0  0  0  0  0  0
   56.9372   33.3580   44.5556 H   0  0  0  0  0  0  0  0  0  0  0  0
   58.6185   35.1139   43.9759 H   0  0  0  0  0  0  0  0  0  0  0  0
   60.3798   35.7483   45.6263 H   0  0  0  0  0  0  0  0  0  0  0  0
   60.4737   34.6239   47.8537 H   0  0  0  0  0  0  0  0  0  0  0  0
   57.5327   26.8332   53.2486 H   0  0  0  0  0  0  0  0  0  0  0  0
   54.4091   26.8397   54.8425 H   0  0  0  0  0  0  0  0  0  0  0  0
   53.8524   27.5466   53.2878 H   0  0  0  0  0  0  0  0  0  0  0  0
   55.0480   26.2060   53.2878 H   0  0  0  0  0  0  0  0  0  0  0  0
   53.8525   29.3948   55.2200 H   0  0  0  0  0  0  0  0  0  0  0  0
   54.6527   31.0087   55.0905 H   0  0  0  0  0  0  0  0  0  0  0  0
   51.7522   29.6796   54.2266 H   0  0  0  0  0  0  0  0  0  0  0  0
   50.3712   30.1665   52.2157 H   0  0  0  0  0  0  0  0  0  0  0  0
   53.8819   31.6550   50.1641 H   0  0  0  0  0  0  0  0  0  0  0  0
   56.2240   30.6920   51.6730 H   0  0  0  0  0  0  0  0  0  0  0  0
  1  2  2  0
  2  3  1  0
  3  4  2  3
  4  5  1  0
  5  6  1  0
  6  7  1  0
  7  8  2  0
  7  9  1  0
  9 10  1  0
 10 11  1  0
 11 12  1  0
 12 13  2  0
 13 14  1  0
 14 15  2  0
 15 16  1  0
 16 17  2  0
  9 18  1  0
 18 19  1  0
  3 20  1  0
 20 21  2  0
 21 22  1  0
 21 23  1  0
 23 24  1  0
 24 25  1  0
 25 26  2  0
 26 27  1  0
 27 28  2  0
 28 29  1  0
 29 30  2  0
 29 31  1  0
 28 32  1  0
 32 33  2  0
 33 34  1  0
 23  2  1  0
 33 25  1  0
 18  5  2  0
 17 12  1  0
  1 35  1  0
  1 36  1  0
  4 37  1  0
 10 38  1  0
 10 39  1  0
 11 40  1  0
 11 41  1  0
 13 42  1  0
 14 43  1  0
 15 44  1  0
 16 45  1  0
 17 46  1  0
 20 47  1  0
 22 48  1  0
 22 49  1  0
 22 50  1  0
 24 51  1  0
 24 52  1  0
 26 53  1  0
 27 54  1  0
 32 55  1  0
 34 56  1  0
M  CHG  2  19  -1  31  -1
M  END
>  <UniqueID>  (76) 
71

>  <SMILES>  (76) 
C=c1c(=Cc2sc(=S)n(CCc3ccccc3)c2[O-])cc(C)n1Cc1ccc(C(=O)[O-])cc1O

>  <Energy>  (76) 
129.37326029216675

>  <Genealogy>  (76) 
C=c1c(=Cc2sc(=S)n(CCc3ccccc3)c2[O-])cc(C)n1Cc1ccc(C(=O)[O-])cc1O (protonated)
C=c1c(=Cc2sc(=S)n(CCc3ccccc3)c2[O-])cc(C)n1Cc1ccc(C(=O)[O-])cc1O (3D coordinates assigned)
C=c1c(=Cc2sc(=S)n(CCc3ccccc3)c2[O-])cc(C)n1Cc1ccc(C(=O)[O-])cc1O (optimized conformer: 129.37326029216675 kcal/mol)

>  <smiles>  (76) 
C=c1c(=Cc2sc(=S)n(CCc3ccccc3)c2O)cc(C)n1Cc1ccc(C(=O)O)cc1O

>  <score_type>  (76) 
oracle

>  <origin>  (76) 
adg

>  <m_score__min__energy>  (76) 
-13.16

>  <m_primary>  (76) 
energy

$$$$
76:0
     RDKit          3D

 45 47  0  0  0  0  0  0  0  0999 V2000
   54.0580   24.8920   45.9050 O   0  0  0  0  0  0  0  0  0  0  0  0
   55.1930   25.3640   45.6280 C   0  0  0  0  0  0  0  0  0  0  0  0
   56.2400   24.4520   45.0480 C   0  0  0  0  0  0  0  0  0  0  0  0
   56.3920   23.2260   45.9110 C   0  0  0  0  0  0  0  0  0  0  0  0
   56.5450   21.9640   45.3080 C   0  0  0  0  0  0  0  0  0  0  0  0
   56.6640   20.8150   46.0940 C   0  0  0  0  0  0  0  0  0  0  0  0
   56.6230   20.9110   47.4870 C   0  0  0  0  0  0  0  0  0  0  0  0
   56.4580   22.1570   48.0980 C   0  0  0  0  0  0  0  0  0  0  0  0
   56.3360   23.3170   47.3180 C   0  0  0  0  0  0  0  0  0  0  0  0
   56.1620   24.5570   47.9360 O   0  0  0  0  0  0  0  0  0  0  0  0
   55.4880   26.7170   45.9990 N   0  0  0  0  0  0  0  0  0  0  0  0
   56.6630   27.4510   45.6360 C   0  0  0  0  0  0  0  0  0  0  0  0
   57.9330   26.8500   45.6480 C   0  0  0  0  0  0  0  0  0  0  0  0
   59.0600   27.5830   45.2660 C   0  0  0  0  0  0  0  0  0  0  0  0
   58.9270   28.9090   44.8490 C   0  0  0  0  0  0  0  0  0  0  0  0
   57.6590   29.5060   44.8010 C   0  0  0  0  0  0  0  0  0  0  0  0
   57.4670   31.1650   44.2420 S   0  0  0  0  0  0  0  0  0  0  0  0
   57.7080   31.2050   42.7590 O   0  0  0  0  0  0  0  0  0  0  0  0
   56.0730   31.6500   44.5270 O   0  0  0  0  0  0  0  0  0  0  0  0
   58.6190   32.1910   45.0620 N   0  0  0  0  0  0  0  0  0  0  0  0
   58.4380   32.1340   46.5300 C   0  0  0  0  0  0  0  0  0  0  0  0
   57.8730   33.4440   47.1040 C   0  0  0  0  0  0  0  0  0  0  0  0
   58.6830   34.5690   46.8020 O   0  0  0  0  0  0  0  0  0  0  0  0
   59.2150   34.5570   45.4820 C   0  0  0  0  0  0  0  0  0  0  0  0
   58.5410   33.5610   44.5220 C   0  0  0  0  0  0  0  0  0  0  0  0
   56.5300   28.7700   45.1870 C   0  0  0  0  0  0  0  0  0  0  0  0
   55.9379   24.1488   44.0347 H   0  0  0  0  0  0  0  0  0  0  0  0
   57.2009   24.9859   45.0072 H   0  0  0  0  0  0  0  0  0  0  0  0
   56.5711   21.8815   44.2114 H   0  0  0  0  0  0  0  0  0  0  0  0
   56.7902   19.8329   45.6149 H   0  0  0  0  0  0  0  0  0  0  0  0
   56.7207   20.0052   48.1034 H   0  0  0  0  0  0  0  0  0  0  0  0
   56.4236   22.2287   49.1951 H   0  0  0  0  0  0  0  0  0  0  0  0
   55.4930   25.2350   47.5900 H   0  0  0  0  0  0  0  0  0  0  0  0
   58.0405   25.8003   45.9587 H   0  0  0  0  0  0  0  0  0  0  0  0
   60.0546   27.1140   45.2939 H   0  0  0  0  0  0  0  0  0  0  0  0
   59.8174   29.4856   44.5580 H   0  0  0  0  0  0  0  0  0  0  0  0
   57.7429   31.3154   46.7684 H   0  0  0  0  0  0  0  0  0  0  0  0
   59.4268   31.9691   46.9830 H   0  0  0  0  0  0  0  0  0  0  0  0
   56.8704   33.6091   46.6827 H   0  0  0  0  0  0  0  0  0  0  0  0
   57.8427   33.3410   48.1987 H   0  0  0  0  0  0  0  0  0  0  0  0
   59.1048   35.5667   45.0598 H   0  0  0  0  0  0  0  0  0  0  0  0
   60.2631   34.2362   45.5742 H   0  0  0  0  0  0  0  0  0  0  0  0
   57.4848   33.8400   44.3936 H   0  0  0  0  0  0  0  0  0  0  0  0
   59.0615   33.5922   43.5534 H   0  0  0  0  0  0  0  0  0  0  0  0
   55.5331   29.2321   45.1367 H   0  0  0  0  0  0  0  0  0  0  0  0
  1  2  2  0
  2  3  1  0
  3  4  1  0
  4  5  2  0
  5  6  1  0
  6  7  2  0
  7  8  1  0
  8  9  2  0
  9 10  1  0
  2 11  1  0
 11 12  1  0
 12 13  2  0
 13 14  1  0
 14 15  2  0
 15 16  1  0
 16 17  1  0
 17 18  2  0
 17 19  2  0
 17 20  1  0
 20 21  1  0
 21 22  1  0
 22 23  1  0
 23 24  1  0
 24 25  1  0
 16 26  2  0
  9  4  1  0
 26 12  1  0
 25 20  1  0
  3 27  1  0
  3 28  1  0
  5 29  1  0
  6 30  1  0
  7 31  1  0
  8 32  1  0
 10 33  1  0
 13 34  1  0
 14 35  1  0
 15 36  1  0
 21 37  1  0
 21 38  1  0
 22 39  1  0
 22 40  1  0
 24 41  1  0
 24 42  1  0
 25 43  1  0
 25 44  1  0
 26 45  1  0
M  CHG  1  11  -1
M  END
>  <UniqueID>  (77) 
72

>  <SMILES>  (77) 
O=C(Cc1ccccc1O)[N-]c1cccc(S(=O)(=O)N2CCOCC2)c1

>  <Energy>  (77) 
62.232002235674145

>  <Genealogy>  (77) 
O=C(Cc1ccccc1O)[N-]c1cccc(S(=O)(=O)N2CCOCC2)c1 (protonated)
O=C(Cc1ccccc1O)[N-]c1cccc(S(=O)(=O)N2CCOCC2)c1 (3D coordinates assigned)
O=C(Cc1ccccc1O)[N-]c1cccc(S(=O)(=O)N2CCOCC2)c1 (nonaromatic ring conformer: 62.232002235674145 kcal/mol)

>  <smiles>  (77) 
O=C(Cc1ccccc1O)Nc1cccc(S(=O)(=O)N2CCOCC2)c1

>  <score_type>  (77) 
oracle

>  <origin>  (77) 
adg

>  <m_score__min__energy>  (77) 
-11.57

>  <m_primary>  (77) 
energy

$$$$
77:0
     RDKit          3D

 30 32  0  0  0  0  0  0  0  0999 V2000
   56.9330   32.5740   41.8110 H   0  0  0  0  0  0  0  0  0  0  0  0
   56.9890   31.5670   41.9050 O   0  0  0  0  0  0  0  0  0  0  0  0
   57.1100   30.9530   43.1490 C   0  0  0  0  0  0  0  0  0  0  0  0
   57.3260   31.5650   44.3710 C   0  0  0  0  0  0  0  0  0  0  0  0
   57.3950   33.0250   44.5970 C   0  0  0  0  0  0  0  0  0  0  0  0
   56.7674   33.6668   43.9612 H   0  0  0  0  0  0  0  0  0  0  0  0
   58.1650   33.6290   45.5190 C   0  0  0  0  0  0  0  0  0  0  0  0
   58.8800   34.7930   45.2850 C   0  0  0  0  0  0  0  0  0  0  0  0
   58.9058   35.3716   44.3498 H   0  0  0  0  0  0  0  0  0  0  0  0
   59.5540   35.0850   46.4550 C   0  0  0  0  0  0  0  0  0  0  0  0
   60.2167   35.9432   46.6401 H   0  0  0  0  0  0  0  0  0  0  0  0
   59.2270   34.0810   47.3450 C   0  0  0  0  0  0  0  0  0  0  0  0
   59.6830   33.9830   48.5940 C   0  0  0  0  0  0  0  0  0  0  0  0
   59.3654   33.1445   49.2313 H   0  0  0  0  0  0  0  0  0  0  0  0
   60.3768   34.7406   48.9872 H   0  0  0  0  0  0  0  0  0  0  0  0
   58.3850   33.1930   46.7810 N   0  0  0  0  0  0  0  0  0  0  0  0
   58.0240   32.3290   47.2400 H   0  0  0  0  0  0  0  0  0  0  0  0
   57.3720   30.6360   45.3460 N   0  0  0  0  0  0  0  0  0  0  0  0
   57.2060   29.4440   44.7350 C   0  0  0  0  0  0  0  0  0  0  0  0
   57.2020   28.1620   45.4590 C   0  0  0  0  0  0  0  0  0  0  0  0
   58.3040   27.5830   46.0590 C   0  0  0  0  0  0  0  0  0  0  0  0
   59.3276   27.9849   46.0872 H   0  0  0  0  0  0  0  0  0  0  0  0
   57.8630   26.3990   46.6160 C   0  0  0  0  0  0  0  0  0  0  0  0
   58.4676   25.6706   47.1763 H   0  0  0  0  0  0  0  0  0  0  0  0
   56.5140   26.3080   46.3320 C   0  0  0  0  0  0  0  0  0  0  0  0
   55.8605   25.4774   46.6371 H   0  0  0  0  0  0  0  0  0  0  0  0
   56.1160   27.3830   45.6280 N   0  0  0  0  0  0  0  0  0  0  0  0
   55.1470   27.5650   45.2830 H   0  0  0  0  0  0  0  0  0  0  0  0
   57.0380   29.5990   43.3710 C   0  0  0  0  0  0  0  0  0  0  0  0
   56.8804   28.8074   42.6236 H   0  0  0  0  0  0  0  0  0  0  0  0
  1  2  1  0
  2  3  1  0
  3  4  2  0
  4  5  1  0
  5  6  1  0
  5  7  2  0
  7  8  1  0
  8  9  1  0
  8 10  2  0
 10 11  1  0
 10 12  1  0
 12 13  2  0
 13 14  1  0
 13 15  1  0
 12 16  1  0
 16 17  1  0
  4 18  1  0
 18 19  1  0
 19 20  1  0
 20 21  2  0
 21 22  1  0
 21 23  1  0
 23 24  1  0
 23 25  2  0
 25 26  1  0
 25 27  1  0
 27 28  1  0
 19 29  2  0
 29 30  1  0
 29  3  1  0
 16  7  1  0
 27 20  1  0
M  CHG  1  18  -1
M  END
>  <UniqueID>  (78) 
73

>  <SMILES>  (78) 
C=c1cc/c(=C/c2[n-]c(-c3ccc[nH]3)cc2O)[nH]1

>  <Energy>  (78) 
111.04279833006437

>  <Genealogy>  (78) 
C=c1ccc(=Cc2[n-]c(-c3ccc[nH]3)cc2O)[nH]1 (protonated)
C=c1cc/c(=C/c2[n-]c(-c3ccc[nH]3)cc2O)[nH]1 (cis-trans isomerization)
C=c1cc/c(=C/c2[n-]c(-c3ccc[nH]3)cc2O)[nH]1 (3D coordinates assigned)
C=c1cc/c(=C/c2[n-]c(-c3ccc[nH]3)cc2O)[nH]1 (optimized conformer: 111.04279833006437 kcal/mol)

>  <smiles>  (78) 
C=c1ccc(=Cc2[nH]c(-c3ccc[nH]3)cc2O)[nH]1

>  <score_type>  (78) 
oracle

>  <origin>  (78) 
adg

>  <m_score__min__energy>  (78) 
-8.1400000000000006

>  <m_primary>  (78) 
energy

$$$$
78:0
     RDKit          3D

 48 51  0  0  0  0  0  0  0  0999 V2000
   58.8890   34.2130   51.9950 C   0  0  0  0  0  0  0  0  0  0  0  0
   58.6140   32.8580   51.5320 N   0  0  0  0  0  0  0  0  0  0  0  0
   57.5360   32.0450   51.9660 C   0  0  0  0  0  0  0  0  0  0  0  0
   56.6340   32.4440   52.7500 O   0  0  0  0  0  0  0  0  0  0  0  0
   57.6080   30.6840   51.3950 C   0  0  0  0  0  0  0  0  0  0  0  0
   58.8270   30.7490   50.5900 N   0  0  0  0  0  0  0  0  0  0  0  0
   59.3680   29.6330   49.8690 C   0  0  0  0  0  0  0  0  0  0  0  0
   58.9300   29.3730   48.6080 N   0  0  0  0  0  0  0  0  0  0  0  0
   59.3990   28.3230   47.8790 C   0  0  0  0  0  0  0  0  0  0  0  0
   58.8640   28.0830   46.5130 C   0  0  0  0  0  0  0  0  0  0  0  0
   59.2710   26.9690   45.7520 C   0  0  0  0  0  0  0  0  0  0  0  0
   58.7520   26.7570   44.4720 C   0  0  0  0  0  0  0  0  0  0  0  0
   57.8190   27.6450   43.9350 C   0  0  0  0  0  0  0  0  0  0  0  0
   57.3890   28.7490   44.6830 C   0  0  0  0  0  0  0  0  0  0  0  0
   56.2070   29.8730   44.0190 S   0  0  0  0  0  0  0  0  0  0  0  0
   56.4850   30.0700   42.3230 N   0  0  0  0  0  0  0  0  0  0  0  0
   56.3340   31.1980   44.7150 O   0  0  0  0  0  0  0  0  0  0  0  0
   54.8150   29.3480   44.2270 O   0  0  0  0  0  0  0  0  0  0  0  0
   57.9100   28.9630   45.9680 C   0  0  0  0  0  0  0  0  0  0  0  0
   60.3870   27.5020   48.4480 C   0  0  0  0  0  0  0  0  0  0  0  0
   60.8370   27.7630   49.7030 N   0  0  0  0  0  0  0  0  0  0  0  0
   60.3530   28.8040   50.4310 C   0  0  0  0  0  0  0  0  0  0  0  0
   60.8220   29.0380   51.6150 N   0  0  0  0  0  0  0  0  0  0  0  0
   59.4580   32.0740   50.6400 C   0  0  1  0  0  0  0  0  0  0  0  0
   59.5090   32.7120   49.2700 C   0  0  0  0  0  0  0  0  0  0  0  0
   60.6150   33.4810   48.8770 C   0  0  0  0  0  0  0  0  0  0  0  0
   60.6510   34.0300   47.5940 C   0  0  0  0  0  0  0  0  0  0  0  0
   59.6240   33.8140   46.7310 N   0  0  0  0  0  0  0  0  0  0  0  0
   58.5410   33.0720   47.0830 C   0  0  0  0  0  0  0  0  0  0  0  0
   58.4630   32.5090   48.3590 C   0  0  0  0  0  0  0  0  0  0  0  0
   58.8927   34.2310   53.0948 H   0  0  0  0  0  0  0  0  0  0  0  0
   59.8711   34.5365   51.6197 H   0  0  0  0  0  0  0  0  0  0  0  0
   58.1107   34.8938   51.6197 H   0  0  0  0  0  0  0  0  0  0  0  0
   57.6926   29.9240   52.1857 H   0  0  0  0  0  0  0  0  0  0  0  0
   56.7146   30.3993   50.8199 H   0  0  0  0  0  0  0  0  0  0  0  0
   60.0026   26.2611   46.1686 H   0  0  0  0  0  0  0  0  0  0  0  0
   59.0803   25.8864   43.8852 H   0  0  0  0  0  0  0  0  0  0  0  0
   57.4207   27.4781   42.9233 H   0  0  0  0  0  0  0  0  0  0  0  0
   57.4810   29.8110   42.1440 H   0  0  0  0  0  0  0  0  0  0  0  0
   55.8970   29.3630   41.8300 H   0  0  0  0  0  0  0  0  0  0  0  0
   57.5693   29.8279   46.5560 H   0  0  0  0  0  0  0  0  0  0  0  0
   60.7941   26.6523   47.8803 H   0  0  0  0  0  0  0  0  0  0  0  0
   61.4020   29.8840   51.8150 H   0  0  0  0  0  0  0  0  0  0  0  0
   60.4990   32.0124   50.9899 H   0  0  0  0  0  0  0  0  0  0  0  0
   61.4480   33.6501   49.5752 H   0  0  0  0  0  0  0  0  0  0  0  0
   61.5123   34.6385   47.2812 H   0  0  0  0  0  0  0  0  0  0  0  0
   57.7250   32.9147   46.3623 H   0  0  0  0  0  0  0  0  0  0  0  0
   57.5864   31.9102   48.6472 H   0  0  0  0  0  0  0  0  0  0  0  0
  1  2  1  0
  2  3  1  0
  3  4  2  0
  3  5  1  0
  5  6  1  0
  6  7  1  0
  7  8  2  0
  8  9  1  0
  9 10  1  0
 10 11  2  0
 11 12  1  0
 12 13  2  0
 13 14  1  0
 14 15  1  0
 15 16  1  0
 15 17  2  0
 15 18  2  0
 14 19  2  0
  9 20  2  0
 20 21  1  0
 21 22  1  0
 22 23  2  3
  6 24  1  0
 24 25  1  0
 25 26  2  0
 26 27  1  0
 27 28  2  0
 28 29  1  0
 29 30  2  0
 24  2  1  0
 30 25  1  0
 22  7  1  0
 19 10  1  0
  1 31  1  0
  1 32  1  0
  1 33  1  0
  5 34  1  0
  5 35  1  0
 11 36  1  0
 12 37  1  0
 13 38  1  0
 16 39  1  0
 16 40  1  0
 19 41  1  0
 20 42  1  0
 23 43  1  0
 24 44  1  1
 26 45  1  0
 27 46  1  0
 29 47  1  0
 30 48  1  0
M  CHG  1  21  -1
M  END
>  <UniqueID>  (79) 
74

>  <SMILES>  (79) 
CN1C(=O)CN(c2nc(-c3cccc(S(N)(=O)=O)c3)c[n-]c2=N)[C@H]1c1ccncc1

>  <Energy>  (79) 
67.03168384556069

>  <Genealogy>  (79) 
CN1C(=O)CN(c2nc(-c3cccc(S(N)(=O)=O)c3)c[n-]c2=N)C1c1ccncc1 (protonated)
CN1C(=O)CN(c2nc(-c3cccc(S(N)(=O)=O)c3)c[n-]c2=N)[C@H]1c1ccncc1 (chirality)
CN1C(=O)CN(c2nc(-c3cccc(S(N)(=O)=O)c3)c[n-]c2=N)[C@H]1c1ccncc1 (3D coordinates assigned)
CN1C(=O)CN(c2nc(-c3cccc(S(N)(=O)=O)c3)c[n-]c2=N)[C@H]1c1ccncc1 (nonaromatic ring conformer: 67.03168384556069 kcal/mol)

>  <smiles>  (79) 
CN1C(=O)CN(c2nc(-c3cccc(S(N)(=O)=O)c3)c[nH]c2=N)C1c1ccncc1

>  <score_type>  (79) 
oracle

>  <origin>  (79) 
adg

>  <m_score__min__energy>  (79) 
-9.7300000000000004

>  <m_primary>  (79) 
energy

$$$$
79:0
     RDKit          3D

 56 59  0  0  0  0  0  0  0  0999 V2000
   54.3270   27.0950   46.3730 H   0  0  0  0  0  0  0  0  0  0  0  0
   54.8110   26.2910   45.9890 O   0  0  0  0  0  0  0  0  0  0  0  0
   56.2030   26.2080   45.9880 C   0  0  0  0  0  0  0  0  0  0  0  0
   56.8460   25.0600   46.4660 C   0  0  0  0  0  0  0  0  0  0  0  0
   56.2538   24.2245   46.8674 H   0  0  0  0  0  0  0  0  0  0  0  0
   58.2390   24.9760   46.4330 C   0  0  0  0  0  0  0  0  0  0  0  0
   58.7506   24.0755   46.8037 H   0  0  0  0  0  0  0  0  0  0  0  0
   58.9750   26.0460   45.9250 C   0  0  0  0  0  0  0  0  0  0  0  0
   60.0731   25.9910   45.8908 H   0  0  0  0  0  0  0  0  0  0  0  0
   58.3360   27.1570   45.4720 N   0  0  0  0  0  0  0  0  0  0  0  0
   56.9760   27.2670   45.4880 C   0  0  0  0  0  0  0  0  0  0  0  0
   56.3870   28.3510   45.0730 N   0  0  0  0  0  0  0  0  0  0  0  0
   56.8760   29.6880   45.2430 C   0  0  0  0  0  0  0  0  0  0  0  0
   57.4870   29.9800   46.3060 O   0  0  0  0  0  0  0  0  0  0  0  0
   56.4900   30.7850   44.2770 C   0  0  1  0  0  0  0  0  0  0  0  0
   55.5051   31.1336   44.6212 H   0  0  0  0  0  0  0  0  0  0  0  0
   57.4770   31.8590   44.2750 N   0  0  0  0  0  0  0  0  0  0  0  0
   57.6340   32.7540   45.3900 C   0  0  0  0  0  0  0  0  0  0  0  0
   56.6370   33.3890   45.8290 O   0  0  0  0  0  0  0  0  0  0  0  0
   58.9400   32.9170   46.0500 C   0  0  0  0  0  0  0  0  0  0  0  0
   59.4180   34.1980   46.3640 C   0  0  0  0  0  0  0  0  0  0  0  0
   58.8040   35.0821   46.1375 H   0  0  0  0  0  0  0  0  0  0  0  0
   60.6700   34.3560   46.9630 C   0  0  0  0  0  0  0  0  0  0  0  0
   61.0372   35.3637   47.2072 H   0  0  0  0  0  0  0  0  0  0  0  0
   61.4600   33.2360   47.2540 C   0  0  0  0  0  0  0  0  0  0  0  0
   63.0400   33.4240   48.0100 S   0  0  0  0  0  0  0  0  0  0  0  0
   63.9210   34.2250   47.0930 O   0  0  0  0  0  0  0  0  0  0  0  0
   63.6740   32.0750   48.2080 O   0  0  0  0  0  0  0  0  0  0  0  0
   62.8680   34.2830   49.5180 N   0  0  0  0  0  0  0  0  0  0  0  0
   62.5120   33.3990   50.6290 C   0  0  0  0  0  0  0  0  0  0  0  0
   63.3175   32.6647   50.7774 H   0  0  0  0  0  0  0  0  0  0  0  0
   62.3769   34.0090   51.5343 H   0  0  0  0  0  0  0  0  0  0  0  0
   61.2270   32.6700   50.3440 C   0  0  0  0  0  0  0  0  0  0  0  0
   61.2290   31.2720   50.2060 C   0  0  0  0  0  0  0  0  0  0  0  0
   62.1720   30.7136   50.3006 H   0  0  0  0  0  0  0  0  0  0  0  0
   60.0380   30.5880   49.9490 C   0  0  0  0  0  0  0  0  0  0  0  0
   60.0451   29.4930   49.8442 H   0  0  0  0  0  0  0  0  0  0  0  0
   58.8380   31.2930   49.8250 C   0  0  0  0  0  0  0  0  0  0  0  0
   57.9016   30.7530   49.6211 H   0  0  0  0  0  0  0  0  0  0  0  0
   58.8270   32.6840   49.9600 C   0  0  0  0  0  0  0  0  0  0  0  0
   57.8813   33.2380   49.8665 H   0  0  0  0  0  0  0  0  0  0  0  0
   60.0180   33.3720   50.2140 C   0  0  0  0  0  0  0  0  0  0  0  0
   60.0074   34.4675   50.3123 H   0  0  0  0  0  0  0  0  0  0  0  0
   60.9800   31.9550   46.9500 C   0  0  0  0  0  0  0  0  0  0  0  0
   61.5952   31.0716   47.1763 H   0  0  0  0  0  0  0  0  0  0  0  0
   59.7220   31.7950   46.3600 C   0  0  0  0  0  0  0  0  0  0  0  0
   59.3448   30.7857   46.1384 H   0  0  0  0  0  0  0  0  0  0  0  0
   57.8800   32.2310   42.9280 C   0  0  0  0  0  0  0  0  0  0  0  0
   58.9419   31.9932   42.7675 H   0  0  0  0  0  0  0  0  0  0  0  0
   57.7573   33.3103   42.7547 H   0  0  0  0  0  0  0  0  0  0  0  0
   57.0060   31.4120   41.9860 C   0  0  0  0  0  0  0  0  0  0  0  0
   57.6124   30.9935   41.1692 H   0  0  0  0  0  0  0  0  0  0  0  0
   56.2208   32.0300   41.5261 H   0  0  0  0  0  0  0  0  0  0  0  0
   56.4110   30.2920   42.8310 C   0  0  0  0  0  0  0  0  0  0  0  0
   56.9931   29.3668   42.7079 H   0  0  0  0  0  0  0  0  0  0  0  0
   55.3771   30.0620   42.5341 H   0  0  0  0  0  0  0  0  0  0  0  0
  1  2  1  0
  2  3  1  0
  3  4  2  0
  4  5  1  0
  4  6  1  0
  6  7  1  0
  6  8  2  0
  8  9  1  0
  8 10  1  0
 10 11  1  0
 11 12  2  0
 12 13  1  0
 13 14  2  0
 13 15  1  0
 15 16  1  1
 15 17  1  0
 17 18  1  0
 18 19  2  0
 18 20  1  0
 20 21  2  0
 21 22  1  0
 21 23  1  0
 23 24  1  0
 23 25  2  0
 25 26  1  0
 26 27  2  0
 26 28  2  0
 26 29  1  0
 29 30  1  0
 30 31  1  0
 30 32  1  0
 30 33  1  0
 33 34  2  0
 34 35  1  0
 34 36  1  0
 36 37  1  0
 36 38  2  0
 38 39  1  0
 38 40  1  0
 40 41  1  0
 40 42  2  0
 42 43  1  0
 25 44  1  0
 44 45  1  0
 44 46  2  0
 46 47  1  0
 17 48  1  0
 48 49  1  0
 48 50  1  0
 48 51  1  0
 51 52  1  0
 51 53  1  0
 51 54  1  0
 54 55  1  0
 54 56  1  0
 11  3  1  0
 54 15  1  0
 46 20  1  0
 42 33  1  0
M  CHG  2  10  -1  29  -1
M  END
>  <UniqueID>  (80) 
75

>  <SMILES>  (80) 
O=C(/N=c1\[n-]cccc1O)[C@@H]1CCCN1C(=O)c1ccc(S(=O)(=O)[N-]Cc2ccccc2)cc1

>  <Energy>  (80) 
69.29139220849419

>  <Genealogy>  (80) 
O=C(N=c1[n-]cccc1O)C1CCCN1C(=O)c1ccc(S(=O)(=O)[N-]Cc2ccccc2)cc1 (protonated)
O=C(N=c1[n-]cccc1O)[C@@H]1CCCN1C(=O)c1ccc(S(=O)(=O)[N-]Cc2ccccc2)cc1 (chirality)
O=C(/N=c1\[n-]cccc1O)[C@@H]1CCCN1C(=O)c1ccc(S(=O)(=O)[N-]Cc2ccccc2)cc1 (cis-trans isomerization)
O=C(/N=c1\[n-]cccc1O)[C@@H]1CCCN1C(=O)c1ccc(S(=O)(=O)[N-]Cc2ccccc2)cc1 (3D coordinates assigned)
O=C(/N=c1\[n-]cccc1O)[C@@H]1CCCN1C(=O)c1ccc(S(=O)(=O)[N-]Cc2ccccc2)cc1 (nonaromatic ring conformer: 69.29139220849419 kcal/mol)

>  <smiles>  (80) 
O=C(N=c1[nH]cccc1O)C1CCCN1C(=O)c1ccc(S(=O)(=O)NCc2ccccc2)cc1

>  <score_type>  (80) 
oracle

>  <origin>  (80) 
adg

>  <m_score__min__energy>  (80) 
-13.359999999999999

>  <m_primary>  (80) 
energy

$$$$
80:0
     RDKit          3D

 60 63  0  0  0  0  0  0  0  0999 V2000
   57.4200   32.7030   40.4380 C   0  0  0  0  0  0  0  0  0  0  0  0
   56.7810   31.8850   41.3920 O   0  0  0  0  0  0  0  0  0  0  0  0
   57.5400   31.8340   42.5860 C   0  0  0  0  0  0  0  0  0  0  0  0
   56.9050   30.8620   43.5830 C   0  0  0  0  0  0  0  0  0  0  0  0
   57.7340   30.7590   44.7880 N   0  0  0  0  0  0  0  0  0  0  0  0
   58.4640   29.6920   45.2110 C   0  0  0  0  0  0  0  0  0  0  0  0
   58.4260   28.0750   44.4280 S   0  0  0  0  0  0  0  0  0  0  0  0
   59.1010   27.1830   45.8750 C   0  0  0  0  0  0  0  0  0  0  0  0
   58.0640   27.0030   46.9450 C   0  0  0  0  0  0  0  0  0  0  0  0
   57.8940   27.9180   47.7970 O   0  0  0  0  0  0  0  0  0  0  0  0
   57.2200   25.7950   46.9900 C   0  0  0  0  0  0  0  0  0  0  0  0
   57.6450   24.6000   47.4560 N   0  0  0  0  0  0  0  0  0  0  0  0
   56.6000   23.7550   47.3110 C   0  0  0  0  0  0  0  0  0  0  0  0
   56.6710   22.3060   47.6680 C   0  0  0  0  0  0  0  0  0  0  0  0
   55.5130   24.3980   46.7370 C   0  0  0  0  0  0  0  0  0  0  0  0
   54.1530   23.8280   46.4370 C   0  0  0  0  0  0  0  0  0  0  0  0
   53.4580   24.5840   45.2980 C   0  0  0  0  0  0  0  0  0  0  0  0
   53.2590   23.7130   44.0950 C   0  0  0  0  0  0  0  0  0  0  0  0
   52.1060   23.2830   43.8220 O   0  0  0  0  0  0  0  0  0  0  0  0
   54.3810   23.3840   43.2640 N   0  0  0  0  0  0  0  0  0  0  0  0
   55.7390   23.2250   43.7000 C   0  0  0  0  0  0  0  0  0  0  0  0
   56.6380   24.3080   43.7470 C   0  0  0  0  0  0  0  0  0  0  0  0
   57.9600   24.1080   44.1580 C   0  0  0  0  0  0  0  0  0  0  0  0
   58.3960   22.8290   44.5130 C   0  0  0  0  0  0  0  0  0  0  0  0
   59.6780   22.6380   44.9100 F   0  0  0  0  0  0  0  0  0  0  0  0
   57.5150   21.7460   44.4460 C   0  0  0  0  0  0  0  0  0  0  0  0
   56.1940   21.9430   44.0330 C   0  0  0  0  0  0  0  0  0  0  0  0
   55.9180   25.6980   46.5420 C   0  0  0  0  0  0  0  0  0  0  0  0
   55.1530   26.7200   45.9870 O   0  0  0  0  0  0  0  0  0  0  0  0
   59.2270   29.9540   46.3040 N   0  0  0  0  0  0  0  0  0  0  0  0
   58.9510   31.2460   46.5580 C   0  0  0  0  0  0  0  0  0  0  0  0
   59.4750   32.0410   47.5760 C   0  0  0  0  0  0  0  0  0  0  0  0
   59.0560   33.3830   47.6400 C   0  0  0  0  0  0  0  0  0  0  0  0
   58.1370   33.8930   46.6950 C   0  0  0  0  0  0  0  0  0  0  0  0
   57.6280   33.0650   45.6760 C   0  0  0  0  0  0  0  0  0  0  0  0
   58.0590   31.7370   45.6470 C   0  0  0  0  0  0  0  0  0  0  0  0
   58.0182   33.4688   40.9535 H   0  0  0  0  0  0  0  0  0  0  0  0
   58.0780   32.0863   39.8081 H   0  0  0  0  0  0  0  0  0  0  0  0
   56.6624   33.1921   39.8081 H   0  0  0  0  0  0  0  0  0  0  0  0
   58.5607   31.4973   42.3521 H   0  0  0  0  0  0  0  0  0  0  0  0
   57.5656   32.8380   43.0347 H   0  0  0  0  0  0  0  0  0  0  0  0
   55.9051   31.2273   43.8600 H   0  0  0  0  0  0  0  0  0  0  0  0
   56.8261   29.8693   43.1158 H   0  0  0  0  0  0  0  0  0  0  0  0
   59.4554   26.1933   45.5510 H   0  0  0  0  0  0  0  0  0  0  0  0
   59.9266   27.7782   46.2922 H   0  0  0  0  0  0  0  0  0  0  0  0
   56.6763   22.1979   48.7627 H   0  0  0  0  0  0  0  0  0  0  0  0
   55.7974   21.7827   47.2521 H   0  0  0  0  0  0  0  0  0  0  0  0
   57.5916   21.8706   47.2521 H   0  0  0  0  0  0  0  0  0  0  0  0
   54.2650   22.7726   46.1477 H   0  0  0  0  0  0  0  0  0  0  0  0
   53.5338   23.9263   47.3408 H   0  0  0  0  0  0  0  0  0  0  0  0
   52.4768   24.9354   45.6499 H   0  0  0  0  0  0  0  0  0  0  0  0
   54.0984   25.4297   45.0069 H   0  0  0  0  0  0  0  0  0  0  0  0
   56.2995   25.3144   43.4596 H   0  0  0  0  0  0  0  0  0  0  0  0
   58.6567   24.9581   44.2017 H   0  0  0  0  0  0  0  0  0  0  0  0
   57.8613   20.7381   44.7184 H   0  0  0  0  0  0  0  0  0  0  0  0
   55.5077   21.0857   43.9692 H   0  0  0  0  0  0  0  0  0  0  0  0
   60.1915   31.6334   48.3044 H   0  0  0  0  0  0  0  0  0  0  0  0
   59.4466   34.0398   48.4312 H   0  0  0  0  0  0  0  0  0  0  0  0
   57.8172   34.9437   46.7559 H   0  0  0  0  0  0  0  0  0  0  0  0
   56.9170   33.4501   44.9302 H   0  0  0  0  0  0  0  0  0  0  0  0
  1  2  1  0
  2  3  1  0
  3  4  1  0
  4  5  1  0
  5  6  1  0
  6  7  1  0
  7  8  1  0
  8  9  1  0
  9 10  2  0
  9 11  1  0
 11 12  1  0
 12 13  1  0
 13 14  1  0
 13 15  2  0
 15 16  1  0
 16 17  1  0
 17 18  1  0
 18 19  2  0
 18 20  1  0
 20 21  1  0
 21 22  2  0
 22 23  1  0
 23 24  2  0
 24 25  1  0
 24 26  1  0
 26 27  2  0
 15 28  1  0
 28 29  1  0
  6 30  2  0
 30 31  1  0
 31 32  2  0
 32 33  1  0
 33 34  2  0
 34 35  1  0
 35 36  2  0
 36  5  1  0
 28 11  2  0
 36 31  1  0
 27 21  1  0
  1 37  1  0
  1 38  1  0
  1 39  1  0
  3 40  1  0
  3 41  1  0
  4 42  1  0
  4 43  1  0
  8 44  1  0
  8 45  1  0
 14 46  1  0
 14 47  1  0
 14 48  1  0
 16 49  1  0
 16 50  1  0
 17 51  1  0
 17 52  1  0
 22 53  1  0
 23 54  1  0
 26 55  1  0
 27 56  1  0
 32 57  1  0
 33 58  1  0
 34 59  1  0
 35 60  1  0
M  CHG  3  12  -1  20  -1  29  -1
M  END
>  <UniqueID>  (81) 
76

>  <SMILES>  (81) 
COCCn1c(SCC(=O)c2[n-]c(C)c(CCC(=O)[N-]c3ccc(F)cc3)c2[O-])nc2ccccc21

>  <Energy>  (81) 
117.90248118638743

>  <Genealogy>  (81) 
COCCn1c(SCC(=O)c2[n-]c(C)c(CCC(=O)[N-]c3ccc(F)cc3)c2[O-])nc2ccccc21 (protonated)
COCCn1c(SCC(=O)c2[n-]c(C)c(CCC(=O)[N-]c3ccc(F)cc3)c2[O-])nc2ccccc21 (3D coordinates assigned)
COCCn1c(SCC(=O)c2[n-]c(C)c(CCC(=O)[N-]c3ccc(F)cc3)c2[O-])nc2ccccc21 (optimized conformer: 117.90248118638743 kcal/mol)

>  <smiles>  (81) 
COCCn1c(SCC(=O)c2[nH]c(C)c(CCC(=O)Nc3ccc(F)cc3)c2O)nc2ccccc21

>  <score_type>  (81) 
oracle

>  <origin>  (81) 
adg

>  <m_score__min__energy>  (81) 
-14.720000000000001

>  <m_primary>  (81) 
energy

$$$$
81:0
     RDKit          3D

 49 50  0  0  0  0  0  0  0  0999 V2000
   56.8740   22.6780   47.6890 N   0  0  0  0  0  0  0  0  0  0  0  0
   55.4040   23.3260   47.0460 S   0  0  0  0  0  0  0  0  0  0  0  0
   55.6140   24.7740   46.7130 O   0  0  0  0  0  0  0  0  0  0  0  0
   54.3120   23.2140   48.0720 O   0  0  0  0  0  0  0  0  0  0  0  0
   54.9460   22.4760   45.6020 N   0  0  0  0  0  0  0  0  0  0  0  0
   55.3380   23.2480   44.4260 C   0  0  0  0  0  0  0  0  0  0  0  0
   56.2980   22.4180   43.5700 C   0  0  0  0  0  0  0  0  0  0  0  0
   57.7600   22.6900   43.9380 C   0  0  0  0  0  0  0  0  0  0  0  0
   57.8840   22.9340   45.3820 N   0  0  0  0  0  0  0  0  0  0  0  0
   58.9960   23.8470   45.6800 C   0  0  0  0  0  0  0  0  0  0  0  0
   58.5050   25.2690   45.6800 C   0  0  0  0  0  0  0  0  0  0  0  0
   58.1430   25.8870   44.4730 C   0  0  0  0  0  0  0  0  0  0  0  0
   57.6490   27.1950   44.4700 C   0  0  0  0  0  0  0  0  0  0  0  0
   57.4930   27.8980   45.6710 C   0  0  0  0  0  0  0  0  0  0  0  0
   56.9620   29.2290   45.6210 N   0  0  0  0  0  0  0  0  0  0  0  0
   56.4950   30.0690   44.1770 S   0  0  0  0  0  0  0  0  0  0  0  0
   56.2450   29.0860   43.0680 O   0  0  0  0  0  0  0  0  0  0  0  0
   55.2240   30.8240   44.4470 O   0  0  0  0  0  0  0  0  0  0  0  0
   57.7700   31.2280   43.7040 C   0  0  0  0  0  0  0  0  0  0  0  0
   58.1270   32.1090   44.8690 C   0  0  0  0  0  0  0  0  0  0  0  0
   57.6340   33.4230   44.9380 C   0  0  0  0  0  0  0  0  0  0  0  0
   57.9270   34.2280   46.0430 C   0  0  0  0  0  0  0  0  0  0  0  0
   58.7030   33.7250   47.0900 C   0  0  0  0  0  0  0  0  0  0  0  0
   58.9820   34.5060   48.1620 F   0  0  0  0  0  0  0  0  0  0  0  0
   59.1880   32.4160   47.0340 C   0  0  0  0  0  0  0  0  0  0  0  0
   58.9040   31.6090   45.9280 C   0  0  0  0  0  0  0  0  0  0  0  0
   57.8490   27.2770   46.8810 C   0  0  0  0  0  0  0  0  0  0  0  0
   58.3550   25.9740   46.8830 C   0  0  0  0  0  0  0  0  0  0  0  0
   57.1200   21.8350   47.1230 H   0  0  0  0  0  0  0  0  0  0  0  0
   57.6210   23.3880   47.5190 H   0  0  0  0  0  0  0  0  0  0  0  0
   54.4437   23.4985   43.8365 H   0  0  0  0  0  0  0  0  0  0  0  0
   55.8374   24.1749   44.7446 H   0  0  0  0  0  0  0  0  0  0  0  0
   56.0833   21.3505   43.7258 H   0  0  0  0  0  0  0  0  0  0  0  0
   56.1503   22.6986   42.5167 H   0  0  0  0  0  0  0  0  0  0  0  0
   58.3719   21.8182   43.6631 H   0  0  0  0  0  0  0  0  0  0  0  0
   58.1072   23.5801   43.3929 H   0  0  0  0  0  0  0  0  0  0  0  0
   56.9970   23.3850   45.7070 H   0  0  0  0  0  0  0  0  0  0  0  0
   59.4118   23.6047   46.6691 H   0  0  0  0  0  0  0  0  0  0  0  0
   59.7744   23.7326   44.9113 H   0  0  0  0  0  0  0  0  0  0  0  0
   58.2485   25.3396   43.5247 H   0  0  0  0  0  0  0  0  0  0  0  0
   57.3810   27.6753   43.5174 H   0  0  0  0  0  0  0  0  0  0  0  0
   58.6633   30.6737   43.3801 H   0  0  0  0  0  0  0  0  0  0  0  0
   57.3985   31.8547   42.8799 H   0  0  0  0  0  0  0  0  0  0  0  0
   57.0153   33.8198   44.1196 H   0  0  0  0  0  0  0  0  0  0  0  0
   57.5459   35.2589   46.0880 H   0  0  0  0  0  0  0  0  0  0  0  0
   59.7945   32.0194   47.8616 H   0  0  0  0  0  0  0  0  0  0  0  0
   59.2899   30.5797   45.8867 H   0  0  0  0  0  0  0  0  0  0  0  0
   57.7288   27.8190   47.8306 H   0  0  0  0  0  0  0  0  0  0  0  0
   58.6373   25.4987   47.8340 H   0  0  0  0  0  0  0  0  0  0  0  0
  1  2  1  0
  2  3  2  0
  2  4  2  0
  2  5  1  0
  5  6  1  0
  6  7  1  0
  7  8  1  0
  8  9  1  0
  9 10  1  0
 10 11  1  0
 11 12  2  0
 12 13  1  0
 13 14  2  0
 14 15  1  0
 15 16  1  0
 16 17  2  0
 16 18  2  0
 16 19  1  0
 19 20  1  0
 20 21  2  0
 21 22  1  0
 22 23  2  0
 23 24  1  0
 23 25  1  0
 25 26  2  0
 14 27  1  0
 27 28  2  0
 28 11  1  0
 26 20  1  0
  1 29  1  0
  1 30  1  0
  6 31  1  0
  6 32  1  0
  7 33  1  0
  7 34  1  0
  8 35  1  0
  8 36  1  0
  9 37  1  0
 10 38  1  0
 10 39  1  0
 12 40  1  0
 13 41  1  0
 19 42  1  0
 19 43  1  0
 21 44  1  0
 22 45  1  0
 25 46  1  0
 26 47  1  0
 27 48  1  0
 28 49  1  0
M  CHG  2   5  -1  15  -1
M  END
>  <UniqueID>  (82) 
77

>  <SMILES>  (82) 
NS(=O)(=O)[N-]CCCNCc1ccc([N-]S(=O)(=O)Cc2ccc(F)cc2)cc1

>  <Energy>  (82) 
33.462601700169955

>  <Genealogy>  (82) 
NS(=O)(=O)[N-]CCCNCc1ccc([N-]S(=O)(=O)Cc2ccc(F)cc2)cc1 (protonated)
NS(=O)(=O)[N-]CCCNCc1ccc([N-]S(=O)(=O)Cc2ccc(F)cc2)cc1 (3D coordinates assigned)
NS(=O)(=O)[N-]CCCNCc1ccc([N-]S(=O)(=O)Cc2ccc(F)cc2)cc1 (optimized conformer: 33.462601700169955 kcal/mol)

>  <smiles>  (82) 
NS(=O)(=O)NCCCNCc1ccc(NS(=O)(=O)Cc2ccc(F)cc2)cc1

>  <score_type>  (82) 
oracle

>  <origin>  (82) 
adg

>  <m_score__min__energy>  (82) 
-11.01

>  <m_primary>  (82) 
energy

$$$$
82:0
     RDKit          3D

 37 40  0  0  0  0  0  0  0  0999 V2000
   56.5220   29.4380   44.2780 C   0  0  0  0  0  0  0  0  0  0  0  0
   57.7710   30.2960   44.0650 C   0  0  1  0  0  0  0  0  0  0  0  0
   57.3920   31.7460   43.6410 C   0  0  0  0  0  0  0  0  0  0  0  0
   57.9930   32.5830   44.7100 C   0  0  0  0  0  0  0  0  0  0  0  0
   57.9670   33.9740   44.8290 C   0  0  0  0  0  0  0  0  0  0  0  0
   58.6200   34.5660   45.9230 C   0  0  0  0  0  0  0  0  0  0  0  0
   59.2850   33.7610   46.8690 C   0  0  0  0  0  0  0  0  0  0  0  0
   59.2980   32.3650   46.7250 C   0  0  0  0  0  0  0  0  0  0  0  0
   58.6390   31.8020   45.6260 C   0  0  0  0  0  0  0  0  0  0  0  0
   58.5420   30.4220   45.3120 N   0  0  0  0  0  0  0  0  0  0  0  0
   59.5320   29.4690   45.7210 C   0  0  0  0  0  0  0  0  0  0  0  0
   60.5670   29.3060   45.0190 O   0  0  0  0  0  0  0  0  0  0  0  0
   59.4110   28.7560   47.0340 C   0  0  0  0  0  0  0  0  0  0  0  0
   60.1930   27.1030   46.9740 S   0  0  0  0  0  0  0  0  0  0  0  0
   58.6610   26.2200   46.7030 C   0  0  0  0  0  0  0  0  0  0  0  0
   58.6510   24.8480   46.7340 N   0  0  0  0  0  0  0  0  0  0  0  0
   57.5010   24.1440   46.5180 C   0  0  0  0  0  0  0  0  0  0  0  0
   57.5040   22.8860   46.5410 O   0  0  0  0  0  0  0  0  0  0  0  0
   56.3410   24.8610   46.2710 C   0  0  0  0  0  0  0  0  0  0  0  0
   55.0360   24.5240   46.0090 C   0  0  0  0  0  0  0  0  0  0  0  0
   54.3360   25.6740   45.8460 N   0  0  0  0  0  0  0  0  0  0  0  0
   55.1510   26.7160   45.9960 N   0  0  0  0  0  0  0  0  0  0  0  0
   56.3690   26.2150   46.2560 C   0  0  0  0  0  0  0  0  0  0  0  0
   57.5070   26.9180   46.4670 N   0  0  0  0  0  0  0  0  0  0  0  0
   56.3417   29.3141   45.3560 H   0  0  0  0  0  0  0  0  0  0  0  0
   55.6547   29.9318   43.8155 H   0  0  0  0  0  0  0  0  0  0  0  0
   56.6718   28.4512   43.8155 H   0  0  0  0  0  0  0  0  0  0  0  0
   58.3587   29.7958   43.2811 H   0  0  0  0  0  0  0  0  0  0  0  0
   57.8205   31.9940   42.6587 H   0  0  0  0  0  0  0  0  0  0  0  0
   56.3070   31.8943   43.5373 H   0  0  0  0  0  0  0  0  0  0  0  0
   57.4468   34.5925   44.0828 H   0  0  0  0  0  0  0  0  0  0  0  0
   58.6121   35.6596   46.0412 H   0  0  0  0  0  0  0  0  0  0  0  0
   59.7959   34.2284   47.7237 H   0  0  0  0  0  0  0  0  0  0  0  0
   59.8140   31.7282   47.4587 H   0  0  0  0  0  0  0  0  0  0  0  0
   59.9033   29.3562   47.8134 H   0  0  0  0  0  0  0  0  0  0  0  0
   58.3421   28.6242   47.2579 H   0  0  0  0  0  0  0  0  0  0  0  0
   54.6307   23.5035   45.9431 H   0  0  0  0  0  0  0  0  0  0  0  0
  1  2  1  0
  2  3  1  0
  3  4  1  0
  4  5  2  0
  5  6  1  0
  6  7  2  0
  7  8  1  0
  8  9  2  0
  9 10  1  0
 10 11  1  0
 11 12  2  0
 11 13  1  0
 13 14  1  0
 14 15  1  0
 15 16  2  0
 16 17  1  0
 17 18  2  0
 17 19  1  0
 19 20  2  0
 20 21  1  0
 21 22  1  0
 22 23  2  0
 23 24  1  0
 10  2  1  0
 24 15  1  0
  9  4  1  0
 23 19  1  0
  1 25  1  0
  1 26  1  0
  1 27  1  0
  2 28  1  6
  3 29  1  0
  3 30  1  0
  5 31  1  0
  6 32  1  0
  7 33  1  0
  8 34  1  0
 13 35  1  0
 13 36  1  0
 20 37  1  0
M  CHG  2  21  -1  24  -1
M  END
>  <UniqueID>  (83) 
78

>  <SMILES>  (83) 
C[C@H]1Cc2ccccc2N1C(=O)CSc1nc(=O)c2c[n-]nc2[n-]1

>  <Energy>  (83) 
95.6746172192859

>  <Genealogy>  (83) 
CC1Cc2ccccc2N1C(=O)CSc1nc(=O)c2c[n-]nc2[n-]1 (protonated)
C[C@H]1Cc2ccccc2N1C(=O)CSc1nc(=O)c2c[n-]nc2[n-]1 (chirality)
C[C@H]1Cc2ccccc2N1C(=O)CSc1nc(=O)c2c[n-]nc2[n-]1 (3D coordinates assigned)
C[C@H]1Cc2ccccc2N1C(=O)CSc1nc(=O)c2c[n-]nc2[n-]1 (nonaromatic ring conformer: 95.6746172192859 kcal/mol)

>  <smiles>  (83) 
CC1Cc2ccccc2N1C(=O)CSc1nc(=O)c2c[nH]nc2[nH]1

>  <score_type>  (83) 
oracle

>  <origin>  (83) 
adg

>  <m_score__min__energy>  (83) 
-12.84

>  <m_primary>  (83) 
energy

$$$$
83:0
     RDKit          3D

 46 49  0  0  0  0  0  0  0  0999 V2000
   55.9080   23.4840   43.3940 C   0  0  0  0  0  0  0  0  0  0  0  0
   56.1170   23.7520   44.8850 C   0  0  2  0  0  0  0  0  0  0  0  0
   54.9270   24.4990   45.5210 C   0  0  0  0  0  0  0  0  0  0  0  0
   55.4870   25.7540   46.0050 N   0  0  0  0  0  0  0  0  0  0  0  0
   56.7510   25.8050   45.7540 C   0  0  0  0  0  0  0  0  0  0  0  0
   57.5910   26.9710   46.1310 C   0  0  0  0  0  0  0  0  0  0  0  0
   58.5250   26.8590   47.1760 C   0  0  0  0  0  0  0  0  0  0  0  0
   59.3210   27.9490   47.5400 C   0  0  0  0  0  0  0  0  0  0  0  0
   59.2040   29.1770   46.8670 C   0  0  0  0  0  0  0  0  0  0  0  0
   60.0220   30.3020   47.2420 N   0  0  0  0  0  0  0  0  0  0  0  0
   61.3060   30.5180   46.8780 C   0  0  0  0  0  0  0  0  0  0  0  0
   61.7390   31.7060   47.4390 C   0  0  0  0  0  0  0  0  0  0  0  0
   60.6430   32.1660   48.1500 C   0  0  0  0  0  0  0  0  0  0  0  0
   60.5600   33.3370   48.9110 O   0  0  0  0  0  0  0  0  0  0  0  0
   59.6520   34.4010   48.6280 C   0  0  0  0  0  0  0  0  0  0  0  0
   59.0330   34.2230   47.2680 C   0  0  0  0  0  0  0  0  0  0  0  0
   59.6600   34.7650   46.1330 C   0  0  0  0  0  0  0  0  0  0  0  0
   59.0890   34.6040   44.8670 C   0  0  0  0  0  0  0  0  0  0  0  0
   57.8850   33.9070   44.7250 C   0  0  0  0  0  0  0  0  0  0  0  0
   57.2500   33.3720   45.8500 C   0  0  0  0  0  0  0  0  0  0  0  0
   57.8190   33.5310   47.1180 C   0  0  0  0  0  0  0  0  0  0  0  0
   59.6220   31.3040   48.0120 N   0  0  0  0  0  0  0  0  0  0  0  0
   58.2750   29.2880   45.8200 C   0  0  0  0  0  0  0  0  0  0  0  0
   57.4790   28.1980   45.4540 C   0  0  0  0  0  0  0  0  0  0  0  0
   57.2360   24.6550   45.0820 N   0  0  0  0  0  0  0  0  0  0  0  0
   55.2361   22.6224   43.2670 H   0  0  0  0  0  0  0  0  0  0  0  0
   55.4606   24.3707   42.9213 H   0  0  0  0  0  0  0  0  0  0  0  0
   56.8770   23.2661   42.9213 H   0  0  0  0  0  0  0  0  0  0  0  0
   56.2631   22.7609   45.3393 H   0  0  0  0  0  0  0  0  0  0  0  0
   54.1439   24.6881   44.7720 H   0  0  0  0  0  0  0  0  0  0  0  0
   54.4565   23.9174   46.3275 H   0  0  0  0  0  0  0  0  0  0  0  0
   58.6304   25.9044   47.7123 H   0  0  0  0  0  0  0  0  0  0  0  0
   60.0457   27.8444   48.3609 H   0  0  0  0  0  0  0  0  0  0  0  0
   61.9089   29.8561   46.2390 H   0  0  0  0  0  0  0  0  0  0  0  0
   62.7280   32.1777   47.3425 H   0  0  0  0  0  0  0  0  0  0  0  0
   58.8572   34.4096   49.3884 H   0  0  0  0  0  0  0  0  0  0  0  0
   60.2048   35.3519   48.6438 H   0  0  0  0  0  0  0  0  0  0  0  0
   60.6044   35.3185   46.2412 H   0  0  0  0  0  0  0  0  0  0  0  0
   59.5873   35.0260   43.9818 H   0  0  0  0  0  0  0  0  0  0  0  0
   57.4375   33.7796   43.7283 H   0  0  0  0  0  0  0  0  0  0  0  0
   56.3020   32.8255   45.7378 H   0  0  0  0  0  0  0  0  0  0  0  0
   57.3142   33.1127   48.0013 H   0  0  0  0  0  0  0  0  0  0  0  0
   58.6830   31.3920   48.4600 H   0  0  0  0  0  0  0  0  0  0  0  0
   58.1723   30.2420   45.2822 H   0  0  0  0  0  0  0  0  0  0  0  0
   56.7588   28.3016   44.6290 H   0  0  0  0  0  0  0  0  0  0  0  0
   58.2110   24.4760   44.7570 H   0  0  0  0  0  0  0  0  0  0  0  0
  1  2  1  0
  2  3  1  0
  3  4  1  0
  4  5  2  0
  5  6  1  0
  6  7  2  0
  7  8  1  0
  8  9  2  0
  9 10  1  0
 10 11  1  0
 11 12  2  0
 12 13  1  0
 13 14  1  0
 14 15  1  0
 15 16  1  0
 16 17  2  0
 17 18  1  0
 18 19  2  0
 19 20  1  0
 20 21  2  0
 13 22  2  0
  9 23  1  0
 23 24  2  0
  5 25  1  0
 25  2  1  0
 24  6  1  0
 22 10  1  0
 21 16  1  0
  1 26  1  0
  1 27  1  0
  1 28  1  0
  2 29  1  1
  3 30  1  0
  3 31  1  0
  7 32  1  0
  8 33  1  0
 11 34  1  0
 12 35  1  0
 15 36  1  0
 15 37  1  0
 17 38  1  0
 18 39  1  0
 19 40  1  0
 20 41  1  0
 21 42  1  0
 22 43  1  0
 23 44  1  0
 24 45  1  0
 25 46  1  0
M  CHG  1  22   1
M  END
>  <UniqueID>  (84) 
79

>  <SMILES>  (84) 
C[C@@H]1CN=C(c2ccc(-n3ccc(OCc4ccccc4)[nH+]3)cc2)N1

>  <Energy>  (84) 
93.92613271765255

>  <Genealogy>  (84) 
CC1CN=C(c2ccc(-n3ccc(OCc4ccccc4)[nH+]3)cc2)N1 (protonated)
C[C@@H]1CN=C(c2ccc(-n3ccc(OCc4ccccc4)[nH+]3)cc2)N1 (chirality)
C[C@@H]1CN=C(c2ccc(-n3ccc(OCc4ccccc4)[nH+]3)cc2)N1 (3D coordinates assigned)
C[C@@H]1CN=C(c2ccc(-n3ccc(OCc4ccccc4)[nH+]3)cc2)N1 (nonaromatic ring conformer: 93.92613271765255 kcal/mol)

>  <smiles>  (84) 
CC1CN=C(c2ccc(-n3ccc(OCc4ccccc4)n3)cc2)N1

>  <score_type>  (84) 
oracle

>  <origin>  (84) 
adg

>  <m_score__min__energy>  (84) 
-6.7300000000000004

>  <m_primary>  (84) 
energy

$$$$
84:0
     RDKit          3D

 69 73  0  0  0  0  0  0  0  0999 V2000
   59.3560   34.9890   48.0310 N   0  0  0  0  0  0  0  0  0  0  0  0
   60.5400   34.1760   48.0580 C   0  0  0  0  0  0  0  0  0  0  0  0
   61.0990   33.8120   49.2930 C   0  0  0  0  0  0  0  0  0  0  0  0
   62.2910   33.0810   49.3450 C   0  0  0  0  0  0  0  0  0  0  0  0
   62.9360   32.7090   48.1630 C   0  0  0  0  0  0  0  0  0  0  0  0
   62.3860   33.0600   46.9280 C   0  0  0  0  0  0  0  0  0  0  0  0
   61.1790   33.7710   46.8640 C   0  0  0  0  0  0  0  0  0  0  0  0
   60.6240   34.0760   45.5800 N   0  0  0  0  0  0  0  0  0  0  0  0
   59.2180   34.0310   45.3000 C   0  0  0  0  0  0  0  0  0  0  0  0
   58.5430   35.0960   45.3010 O   0  0  0  0  0  0  0  0  0  0  0  0
   58.5570   32.7300   45.0620 C   0  0  0  0  0  0  0  0  0  0  0  0
   58.4270   31.7990   46.1060 C   0  0  0  0  0  0  0  0  0  0  0  0
   57.7920   30.5760   45.8880 C   0  0  0  0  0  0  0  0  0  0  0  0
   57.2790   30.2560   44.6210 C   0  0  0  0  0  0  0  0  0  0  0  0
   56.5490   28.9590   44.4100 C   0  0  0  0  0  0  0  0  0  0  0  0
   56.4760   28.2150   45.6610 N   0  0  0  0  0  0  0  0  0  0  0  0
   56.2600   26.8070   45.7680 C   0  0  0  0  0  0  0  0  0  0  0  0
   55.0940   26.3370   45.8530 O   0  0  0  0  0  0  0  0  0  0  0  0
   57.4190   25.9090   45.8270 C   0  0  0  0  0  0  0  0  0  0  0  0
   58.6280   26.2660   45.3650 C   0  0  0  0  0  0  0  0  0  0  0  0
   59.4160   27.3840   45.9260 C   0  0  0  0  0  0  0  0  0  0  0  0
   60.0600   28.2850   45.0660 C   0  0  0  0  0  0  0  0  0  0  0  0
   60.7720   29.3680   45.5890 C   0  0  0  0  0  0  0  0  0  0  0  0
   60.8220   29.5740   46.9710 C   0  0  0  0  0  0  0  0  0  0  0  0
   60.1720   28.6910   47.8430 C   0  0  0  0  0  0  0  0  0  0  0  0
   60.1870   28.9680   49.2210 O   0  0  0  0  0  0  0  0  0  0  0  0
   59.6880   30.1330   49.8260 C   0  0  0  0  0  0  0  0  0  0  0  0
   58.8750   31.0450   49.1310 C   0  0  0  0  0  0  0  0  0  0  0  0
   58.3490   32.1660   49.7830 C   0  0  0  0  0  0  0  0  0  0  0  0
   58.6360   32.3870   51.1330 C   0  0  0  0  0  0  0  0  0  0  0  0
   59.4480   31.4880   51.8290 C   0  0  0  0  0  0  0  0  0  0  0  0
   59.9730   30.3640   51.1790 C   0  0  0  0  0  0  0  0  0  0  0  0
   59.4660   27.5940   47.3130 C   0  0  0  0  0  0  0  0  0  0  0  0
   57.2240   24.3270   46.6510 S   0  0  0  0  0  0  0  0  0  0  0  0
   57.0400   23.4440   45.1000 C   0  0  0  0  0  0  0  0  0  0  0  0
   57.8080   22.3020   44.8460 C   0  0  0  0  0  0  0  0  0  0  0  0
   57.6390   21.5940   43.6500 C   0  0  0  0  0  0  0  0  0  0  0  0
   56.6980   22.0190   42.7090 C   0  0  0  0  0  0  0  0  0  0  0  0
   55.9280   23.1560   42.9620 C   0  0  0  0  0  0  0  0  0  0  0  0
   56.1030   23.8720   44.1510 C   0  0  0  0  0  0  0  0  0  0  0  0
   57.3860   31.1930   43.5800 C   0  0  0  0  0  0  0  0  0  0  0  0
   58.0330   32.4140   43.7950 C   0  0  0  0  0  0  0  0  0  0  0  0
   58.9490   35.3540   48.9190 H   0  0  0  0  0  0  0  0  0  0  0  0
   58.8960   35.2670   47.1370 H   0  0  0  0  0  0  0  0  0  0  0  0
   60.5963   34.1036   50.2269 H   0  0  0  0  0  0  0  0  0  0  0  0
   62.7206   32.7990   50.3176 H   0  0  0  0  0  0  0  0  0  0  0  0
   63.8765   32.1400   48.2049 H   0  0  0  0  0  0  0  0  0  0  0  0
   62.9031   32.7768   45.9994 H   0  0  0  0  0  0  0  0  0  0  0  0
   58.8287   32.0359   47.1023 H   0  0  0  0  0  0  0  0  0  0  0  0
   57.6926   29.8573   46.7148 H   0  0  0  0  0  0  0  0  0  0  0  0
   55.5304   29.1691   44.0519 H   0  0  0  0  0  0  0  0  0  0  0  0
   57.0915   28.3580   43.6653 H   0  0  0  0  0  0  0  0  0  0  0  0
   59.0543   25.6971   44.5256 H   0  0  0  0  0  0  0  0  0  0  0  0
   60.0047   28.1391   43.9771 H   0  0  0  0  0  0  0  0  0  0  0  0
   61.2942   30.0599   44.9118 H   0  0  0  0  0  0  0  0  0  0  0  0
   61.3749   30.4344   47.3759 H   0  0  0  0  0  0  0  0  0  0  0  0
   58.6507   30.8764   48.0674 H   0  0  0  0  0  0  0  0  0  0  0  0
   57.7100   32.8728   49.2334 H   0  0  0  0  0  0  0  0  0  0  0  0
   58.2231   33.2676   51.6468 H   0  0  0  0  0  0  0  0  0  0  0  0
   59.6757   31.6635   52.8908 H   0  0  0  0  0  0  0  0  0  0  0  0
   60.6115   29.6597   51.7323 H   0  0  0  0  0  0  0  0  0  0  0  0
   58.9504   26.8972   47.9902 H   0  0  0  0  0  0  0  0  0  0  0  0
   58.5455   21.9601   45.5871 H   0  0  0  0  0  0  0  0  0  0  0  0
   58.2489   20.7005   43.4507 H   0  0  0  0  0  0  0  0  0  0  0  0
   56.5640   21.4595   41.7714 H   0  0  0  0  0  0  0  0  0  0  0  0
   55.1825   23.4893   42.2251 H   0  0  0  0  0  0  0  0  0  0  0  0
   55.5028   24.7740   44.3412 H   0  0  0  0  0  0  0  0  0  0  0  0
   56.9593   30.9655   42.5920 H   0  0  0  0  0  0  0  0  0  0  0  0
   58.1329   33.1323   42.9679 H   0  0  0  0  0  0  0  0  0  0  0  0
  1  2  1  0
  2  3  2  0
  3  4  1  0
  4  5  2  0
  5  6  1  0
  6  7  2  0
  7  8  1  0
  8  9  1  0
  9 10  2  0
  9 11  1  0
 11 12  2  0
 12 13  1  0
 13 14  2  0
 14 15  1  0
 15 16  1  0
 16 17  1  0
 17 18  2  0
 17 19  1  0
 19 20  2  3
 20 21  1  0
 21 22  2  0
 22 23  1  0
 23 24  2  0
 24 25  1  0
 25 26  1  0
 26 27  1  0
 27 28  2  0
 28 29  1  0
 29 30  2  0
 30 31  1  0
 31 32  2  0
 25 33  2  0
 19 34  1  0
 34 35  1  0
 35 36  2  0
 36 37  1  0
 37 38  2  0
 38 39  1  0
 39 40  2  0
 14 41  1  0
 41 42  2  0
  7  2  1  0
 42 11  1  0
 33 21  1  0
 40 35  1  0
 32 27  1  0
  1 43  1  0
  1 44  1  0
  3 45  1  0
  4 46  1  0
  5 47  1  0
  6 48  1  0
 12 49  1  0
 13 50  1  0
 15 51  1  0
 15 52  1  0
 20 53  1  0
 22 54  1  0
 23 55  1  0
 24 56  1  0
 28 57  1  0
 29 58  1  0
 30 59  1  0
 31 60  1  0
 32 61  1  0
 33 62  1  0
 36 63  1  0
 37 64  1  0
 38 65  1  0
 39 66  1  0
 40 67  1  0
 41 68  1  0
 42 69  1  0
M  CHG  2   8  -1  16  -1
M  END
>  <UniqueID>  (85) 
80

>  <SMILES>  (85) 
Nc1ccccc1[N-]C(=O)c1ccc(C[N-]C(=O)C(=Cc2cccc(Oc3ccccc3)c2)Sc2ccccc2)cc1

>  <Energy>  (85) 
89.18499964923673

>  <Genealogy>  (85) 
Nc1ccccc1[N-]C(=O)c1ccc(C[N-]C(=O)C(=Cc2cccc(Oc3ccccc3)c2)Sc2ccccc2)cc1 (protonated)
Nc1ccccc1[N-]C(=O)c1ccc(C[N-]C(=O)C(=Cc2cccc(Oc3ccccc3)c2)Sc2ccccc2)cc1 (3D coordinates assigned)
Nc1ccccc1[N-]C(=O)c1ccc(C[N-]C(=O)C(=Cc2cccc(Oc3ccccc3)c2)Sc2ccccc2)cc1 (optimized conformer: 89.18499964923673 kcal/mol)

>  <smiles>  (85) 
Nc1ccccc1NC(=O)c1ccc(CNC(=O)C(=Cc2cccc(Oc3ccccc3)c2)Sc2ccccc2)cc1

>  <score_type>  (85) 
oracle

>  <origin>  (85) 
adg

>  <m_score__min__energy>  (85) 
-13.949999999999999

>  <m_primary>  (85) 
energy

$$$$
85:0
     RDKit          3D

 82 87  0  0  0  0  0  0  0  0999 V2000
   63.2630   33.9050   47.1730 C   0  0  0  0  0  0  0  0  0  0  0  0
   61.8600   33.4340   46.9040 C   0  0  0  0  0  0  0  0  0  0  0  0
   61.0150   34.2120   46.0930 C   0  0  0  0  0  0  0  0  0  0  0  0
   59.7060   33.8050   45.8360 C   0  0  0  0  0  0  0  0  0  0  0  0
   59.2180   32.6080   46.3760 C   0  0  0  0  0  0  0  0  0  0  0  0
   57.7970   32.1730   46.1170 C   0  0  0  0  0  0  0  0  0  0  0  0
   57.5710   31.9390   44.6380 C   0  0  0  0  0  0  0  0  0  0  0  0
   57.9720   32.9310   43.7230 C   0  0  0  0  0  0  0  0  0  0  0  0
   57.8710   32.7110   42.3480 C   0  0  0  0  0  0  0  0  0  0  0  0
   57.3820   31.4960   41.8670 C   0  0  0  0  0  0  0  0  0  0  0  0
   56.9800   30.5020   42.7580 C   0  0  0  0  0  0  0  0  0  0  0  0
   57.0620   30.7130   44.1420 C   0  0  0  0  0  0  0  0  0  0  0  0
   56.6290   29.6300   45.0430 C   0  0  0  0  0  0  0  0  0  0  0  0
   55.3940   29.4240   45.1840 O   0  0  0  0  0  0  0  0  0  0  0  0
   57.5870   28.8300   45.7700 N   0  0  0  0  0  0  0  0  0  0  0  0
   58.2020   29.3890   46.9930 C   0  0  0  0  0  0  0  0  0  0  0  0
   59.1500   28.4410   47.6900 C   0  0  0  0  0  0  0  0  0  0  0  0
   59.5630   28.7210   49.0010 C   0  0  0  0  0  0  0  0  0  0  0  0
   60.4590   27.8710   49.6570 C   0  0  0  0  0  0  0  0  0  0  0  0
   60.9500   26.7360   49.0080 C   0  0  0  0  0  0  0  0  0  0  0  0
   60.5580   26.4550   47.6960 C   0  0  0  0  0  0  0  0  0  0  0  0
   59.6550   27.3020   47.0340 C   0  0  0  0  0  0  0  0  0  0  0  0
   59.2550   27.0230   45.6170 C   0  0  0  0  0  0  0  0  0  0  0  0
   57.7890   27.4220   45.3810 C   0  0  1  0  0  0  0  0  0  0  0  0
   56.7890   26.5180   46.1410 C   0  0  0  0  0  0  0  0  0  0  0  0
   56.2080   25.4700   45.2730 N   0  0  0  0  0  0  0  0  0  0  0  0
   55.6440   24.3540   46.0650 C   0  0  0  0  0  0  0  0  0  0  0  0
   55.3350   23.1360   45.1710 C   0  0  0  0  0  0  0  0  0  0  0  0
   55.3140   23.5050   43.8070 O   0  0  0  0  0  0  0  0  0  0  0  0
   56.6120   23.9020   43.4000 C   0  0  0  0  0  0  0  0  0  0  0  0
   57.2270   24.9600   44.3370 C   0  0  0  0  0  0  0  0  0  0  0  0
   60.0670   31.8120   47.1590 C   0  0  0  0  0  0  0  0  0  0  0  0
   61.3800   32.2220   47.4490 C   0  0  0  0  0  0  0  0  0  0  0  0
   62.2220   31.3960   48.2740 N   0  0  0  0  0  0  0  0  0  0  0  0
   62.6700   31.7990   49.5800 C   0  0  0  0  0  0  0  0  0  0  0  0
   62.6070   33.0150   49.9130 O   0  0  0  0  0  0  0  0  0  0  0  0
   63.2520   30.8180   50.5260 C   0  0  0  0  0  0  0  0  0  0  0  0
   64.6040   30.9080   50.8940 C   0  0  0  0  0  0  0  0  0  0  0  0
   65.1490   29.9890   51.7860 C   0  0  0  0  0  0  0  0  0  0  0  0
   64.3430   28.9800   52.3180 C   0  0  0  0  0  0  0  0  0  0  0  0
   64.8490   28.1540   53.1280 O   0  0  0  0  0  0  0  0  0  0  0  0
   63.0200   28.8910   51.9650 N   0  0  0  0  0  0  0  0  0  0  0  0
   62.1750   27.8390   52.5470 C   0  0  0  0  0  0  0  0  0  0  0  0
   62.4720   29.7920   51.0900 C   0  0  0  0  0  0  0  0  0  0  0  0
   63.4292   33.9608   48.2589 H   0  0  0  0  0  0  0  0  0  0  0  0
   63.9788   33.1979   46.7284 H   0  0  0  0  0  0  0  0  0  0  0  0
   63.4071   34.9008   46.7284 H   0  0  0  0  0  0  0  0  0  0  0  0
   61.3897   35.1500   45.6574 H   0  0  0  0  0  0  0  0  0  0  0  0
   59.0533   34.4272   45.2060 H   0  0  0  0  0  0  0  0  0  0  0  0
   57.5993   31.2398   46.6648 H   0  0  0  0  0  0  0  0  0  0  0  0
   57.1160   32.9667   46.4580 H   0  0  0  0  0  0  0  0  0  0  0  0
   58.3682   33.8875   44.0946 H   0  0  0  0  0  0  0  0  0  0  0  0
   58.1776   33.4972   41.6424 H   0  0  0  0  0  0  0  0  0  0  0  0
   57.3136   31.3221   40.7830 H   0  0  0  0  0  0  0  0  0  0  0  0
   56.5959   29.5459   42.3729 H   0  0  0  0  0  0  0  0  0  0  0  0
   58.7600   30.2958   46.7167 H   0  0  0  0  0  0  0  0  0  0  0  0
   57.3822   29.5955   47.6968 H   0  0  0  0  0  0  0  0  0  0  0  0
   59.1799   29.6143   49.5160 H   0  0  0  0  0  0  0  0  0  0  0  0
   60.7774   28.0966   50.6854 H   0  0  0  0  0  0  0  0  0  0  0  0
   61.6459   26.0625   49.5298 H   0  0  0  0  0  0  0  0  0  0  0  0
   60.9577   25.5688   47.1814 H   0  0  0  0  0  0  0  0  0  0  0  0
   59.9006   27.6001   44.9386 H   0  0  0  0  0  0  0  0  0  0  0  0
   59.3656   25.9460   45.4223 H   0  0  0  0  0  0  0  0  0  0  0  0
   57.5878   27.2907   44.3076 H   0  0  0  0  0  0  0  0  0  0  0  0
   57.3148   26.0336   46.9770 H   0  0  0  0  0  0  0  0  0  0  0  0
   55.9655   27.1535   46.4987 H   0  0  0  0  0  0  0  0  0  0  0  0
   56.3706   24.0580   46.8360 H   0  0  0  0  0  0  0  0  0  0  0  0
   54.7054   24.6942   46.5268 H   0  0  0  0  0  0  0  0  0  0  0  0
   56.1094   22.3702   45.3252 H   0  0  0  0  0  0  0  0  0  0  0  0
   54.3452   22.7413   45.4440 H   0  0  0  0  0  0  0  0  0  0  0  0
   57.2649   23.0168   43.3908 H   0  0  0  0  0  0  0  0  0  0  0  0
   56.5256   24.3514   42.3997 H   0  0  0  0  0  0  0  0  0  0  0  0
   58.0490   24.5044   44.9086 H   0  0  0  0  0  0  0  0  0  0  0  0
   57.6068   25.7962   43.7316 H   0  0  0  0  0  0  0  0  0  0  0  0
   59.6998   30.8525   47.5520 H   0  0  0  0  0  0  0  0  0  0  0  0
   62.6410   30.5380   47.8550 H   0  0  0  0  0  0  0  0  0  0  0  0
   65.2342   31.7070   50.4762 H   0  0  0  0  0  0  0  0  0  0  0  0
   66.2094   30.0570   52.0706 H   0  0  0  0  0  0  0  0  0  0  0  0
   62.2214   27.8967   53.6445 H   0  0  0  0  0  0  0  0  0  0  0  0
   61.1353   27.9788   52.2161 H   0  0  0  0  0  0  0  0  0  0  0  0
   62.5358   26.8539   52.2161 H   0  0  0  0  0  0  0  0  0  0  0  0
   61.4074   29.7119   50.8249 H   0  0  0  0  0  0  0  0  0  0  0  0
  1  2  1  0
  2  3  2  0
  3  4  1  0
  4  5  2  0
  5  6  1  0
  6  7  1  0
  7  8  2  0
  8  9  1  0
  9 10  2  0
 10 11  1  0
 11 12  2  0
 12 13  1  0
 13 14  2  0
 13 15  1  0
 15 16  1  0
 16 17  1  0
 17 18  2  0
 18 19  1  0
 19 20  2  0
 20 21  1  0
 21 22  2  0
 22 23  1  0
 23 24  1  0
 24 25  1  0
 25 26  1  0
 26 27  1  0
 27 28  1  0
 28 29  1  0
 29 30  1  0
 30 31  1  0
  5 32  1  0
 32 33  2  0
 33 34  1  0
 34 35  1  0
 35 36  2  0
 35 37  1  0
 37 38  1  0
 38 39  2  0
 39 40  1  0
 40 41  2  0
 40 42  1  0
 42 43  1  0
 42 44  1  0
 33  2  1  0
 44 37  2  0
 12  7  1  0
 24 15  1  0
 31 26  1  0
 22 17  1  0
  1 45  1  0
  1 46  1  0
  1 47  1  0
  3 48  1  0
  4 49  1  0
  6 50  1  0
  6 51  1  0
  8 52  1  0
  9 53  1  0
 10 54  1  0
 11 55  1  0
 16 56  1  0
 16 57  1  0
 18 58  1  0
 19 59  1  0
 20 60  1  0
 21 61  1  0
 23 62  1  0
 23 63  1  0
 24 64  1  6
 25 65  1  0
 25 66  1  0
 27 67  1  0
 27 68  1  0
 28 69  1  0
 28 70  1  0
 30 71  1  0
 30 72  1  0
 31 73  1  0
 31 74  1  0
 32 75  1  0
 34 76  1  0
 38 77  1  0
 39 78  1  0
 43 79  1  0
 43 80  1  0
 43 81  1  0
 44 82  1  0
M  END
>  <UniqueID>  (86) 
81

>  <SMILES>  (86) 
Cc1ccc(Cc2ccccc2C(=O)N2Cc3ccccc3C[C@H]2CN2CCOCC2)cc1NC(=O)c1ccc(=O)n(C)c1

>  <Energy>  (86) 
112.29165058548378

>  <Genealogy>  (86) 
Cc1ccc(Cc2ccccc2C(=O)N2Cc3ccccc3C[C@H]2CN2CCOCC2)cc1NC(=O)c1ccc(=O)n(C)c1 (chirality)
Cc1ccc(Cc2ccccc2C(=O)N2Cc3ccccc3C[C@H]2CN2CCOCC2)cc1NC(=O)c1ccc(=O)n(C)c1 (3D coordinates assigned)
Cc1ccc(Cc2ccccc2C(=O)N2Cc3ccccc3C[C@H]2CN2CCOCC2)cc1NC(=O)c1ccc(=O)n(C)c1 (nonaromatic ring conformer: 112.29165058548378 kcal/mol)

>  <smiles>  (86) 
Cc1ccc(Cc2ccccc2C(=O)N2Cc3ccccc3CC2CN2CCOCC2)cc1NC(=O)c1ccc(=O)n(C)c1

>  <score_type>  (86) 
oracle

>  <origin>  (86) 
adg

>  <m_score__min__energy>  (86) 
-11.69

>  <m_primary>  (86) 
energy

$$$$
86:0
     RDKit          3D

 65 69  0  0  0  0  0  0  0  0999 V2000
   56.7140   34.4350   44.7810 O   0  0  0  0  0  0  0  0  0  0  0  0
   57.6140   33.6260   45.1310 C   0  0  0  0  0  0  0  0  0  0  0  0
   59.0580   34.0110   44.9530 C   0  0  0  0  0  0  0  0  0  0  0  0
   59.7660   34.0480   46.2800 C   0  0  0  0  0  0  0  0  0  0  0  0
   59.1130   34.5410   47.4230 C   0  0  0  0  0  0  0  0  0  0  0  0
   59.7770   34.5760   48.6540 C   0  0  0  0  0  0  0  0  0  0  0  0
   61.0990   34.1340   48.7500 C   0  0  0  0  0  0  0  0  0  0  0  0
   61.7670   33.6650   47.6130 C   0  0  0  0  0  0  0  0  0  0  0  0
   63.5830   33.0920   47.7360 Br  0  0  0  0  0  0  0  0  0  0  0  0
   61.1050   33.6280   46.3800 C   0  0  0  0  0  0  0  0  0  0  0  0
   57.2280   32.3450   45.6430 N   0  0  0  0  0  0  0  0  0  0  0  0
   57.2290   31.0950   44.9320 C   0  0  0  0  0  0  0  0  0  0  0  0
   56.2850   30.8320   43.9220 C   0  0  0  0  0  0  0  0  0  0  0  0
   56.3540   29.6510   43.1790 C   0  0  0  0  0  0  0  0  0  0  0  0
   57.3840   28.7360   43.4090 C   0  0  0  0  0  0  0  0  0  0  0  0
   58.3490   28.9990   44.3850 C   0  0  0  0  0  0  0  0  0  0  0  0
   58.2750   30.1700   45.1580 C   0  0  0  0  0  0  0  0  0  0  0  0
   59.2770   30.4020   46.2180 C   0  0  0  0  0  0  0  0  0  0  0  0
   60.4990   30.2240   45.9660 O   0  0  0  0  0  0  0  0  0  0  0  0
   58.8810   30.8620   47.5680 C   0  0  0  0  0  0  0  0  0  0  0  0
   59.7350   30.9890   48.5960 C   0  0  0  0  0  0  0  0  0  0  0  0
   59.3970   30.6100   49.9820 C   0  0  0  0  0  0  0  0  0  0  0  0
   60.0920   29.5540   50.5840 C   0  0  0  0  0  0  0  0  0  0  0  0
   59.8410   29.2040   51.9120 C   0  0  0  0  0  0  0  0  0  0  0  0
   58.8630   29.8900   52.6540 C   0  0  0  0  0  0  0  0  0  0  0  0
   58.5640   29.5740   53.9900 O   0  0  0  0  0  0  0  0  0  0  0  0
   57.7630   28.4730   54.4160 C   0  0  0  0  0  0  0  0  0  0  0  0
   56.3740   28.6010   53.8760 C   0  0  0  0  0  0  0  0  0  0  0  0
   55.6570   29.7630   53.7040 C   0  0  0  0  0  0  0  0  0  0  0  0
   54.4470   29.3950   53.2340 N   0  0  0  0  0  0  0  0  0  0  0  0
   53.3250   30.2480   52.9120 C   0  0  0  0  0  0  0  0  0  0  0  0
   53.1960   30.8150   51.6260 C   0  0  0  0  0  0  0  0  0  0  0  0
   52.1230   31.6570   51.3230 C   0  0  0  0  0  0  0  0  0  0  0  0
   51.1600   31.9430   52.2920 C   0  0  0  0  0  0  0  0  0  0  0  0
   50.1210   32.7620   51.9950 F   0  0  0  0  0  0  0  0  0  0  0  0
   51.2710   31.3880   53.5680 C   0  0  0  0  0  0  0  0  0  0  0  0
   52.3440   30.5470   53.8820 C   0  0  0  0  0  0  0  0  0  0  0  0
   52.4130   30.0230   55.1310 F   0  0  0  0  0  0  0  0  0  0  0  0
   54.4380   28.0740   53.1270 N   0  0  0  0  0  0  0  0  0  0  0  0
   55.5980   27.5620   53.5130 N   0  0  0  0  0  0  0  0  0  0  0  0
   58.1460   30.9240   52.0420 C   0  0  0  0  0  0  0  0  0  0  0  0
   58.3990   31.2890   50.7160 C   0  0  0  0  0  0  0  0  0  0  0  0
   57.6450   32.3230   50.1570 O   0  0  0  0  0  0  0  0  0  0  0  0
   59.5505   33.2742   44.3014 H   0  0  0  0  0  0  0  0  0  0  0  0
   59.1038   35.0122   44.4997 H   0  0  0  0  0  0  0  0  0  0  0  0
   58.0761   34.9006   47.3493 H   0  0  0  0  0  0  0  0  0  0  0  0
   59.2575   34.9521   49.5477 H   0  0  0  0  0  0  0  0  0  0  0  0
   61.6157   34.1547   49.7209 H   0  0  0  0  0  0  0  0  0  0  0  0
   61.6343   33.2688   45.4851 H   0  0  0  0  0  0  0  0  0  0  0  0
   55.4875   31.5612   43.7162 H   0  0  0  0  0  0  0  0  0  0  0  0
   55.5952   29.4411   42.4108 H   0  0  0  0  0  0  0  0  0  0  0  0
   57.4356   27.8076   42.8214 H   0  0  0  0  0  0  0  0  0  0  0  0
   59.1704   28.2859   44.5488 H   0  0  0  0  0  0  0  0  0  0  0  0
   57.8242   31.1148   47.7391 H   0  0  0  0  0  0  0  0  0  0  0  0
   60.7371   31.3960   48.3954 H   0  0  0  0  0  0  0  0  0  0  0  0
   60.8424   28.9952   50.0055 H   0  0  0  0  0  0  0  0  0  0  0  0
   60.4109   28.3879   52.3801 H   0  0  0  0  0  0  0  0  0  0  0  0
   58.2095   27.5366   54.0502 H   0  0  0  0  0  0  0  0  0  0  0  0
   57.7200   28.4663   55.5151 H   0  0  0  0  0  0  0  0  0  0  0  0
   56.0016   30.7874   53.9088 H   0  0  0  0  0  0  0  0  0  0  0  0
   53.9477   30.5918   50.8546 H   0  0  0  0  0  0  0  0  0  0  0  0
   52.0369   32.0957   50.3180 H   0  0  0  0  0  0  0  0  0  0  0  0
   50.5109   31.6131   54.3306 H   0  0  0  0  0  0  0  0  0  0  0  0
   57.3717   31.4578   52.6125 H   0  0  0  0  0  0  0  0  0  0  0  0
   56.6340   32.3490   50.1950 H   0  0  0  0  0  0  0  0  0  0  0  0
  1  2  2  0
  2  3  1  0
  3  4  1  0
  4  5  2  0
  5  6  1  0
  6  7  2  0
  7  8  1  0
  8  9  1  0
  8 10  2  0
  2 11  1  0
 11 12  1  0
 12 13  2  0
 13 14  1  0
 14 15  2  0
 15 16  1  0
 16 17  2  0
 17 18  1  0
 18 19  2  0
 18 20  1  0
 20 21  2  3
 21 22  1  0
 22 23  2  0
 23 24  1  0
 24 25  2  0
 25 26  1  0
 26 27  1  0
 27 28  1  0
 28 29  2  0
 29 30  1  0
 30 31  1  0
 31 32  2  0
 32 33  1  0
 33 34  2  0
 34 35  1  0
 34 36  1  0
 36 37  2  0
 37 38  1  0
 30 39  1  0
 39 40  2  0
 25 41  1  0
 41 42  2  0
 42 43  1  0
 10  4  1  0
 17 12  1  0
 42 22  1  0
 40 28  1  0
 37 31  1  0
  3 44  1  0
  3 45  1  0
  5 46  1  0
  6 47  1  0
  7 48  1  0
 10 49  1  0
 13 50  1  0
 14 51  1  0
 15 52  1  0
 16 53  1  0
 20 54  1  0
 21 55  1  0
 23 56  1  0
 24 57  1  0
 27 58  1  0
 27 59  1  0
 29 60  1  0
 32 61  1  0
 33 62  1  0
 36 63  1  0
 41 64  1  0
 43 65  1  0
M  CHG  1  11  -1
M  END
>  <UniqueID>  (87) 
82

>  <SMILES>  (87) 
O=C(Cc1cccc(Br)c1)[N-]c1ccccc1C(=O)C=Cc1ccc(OCc2cn(-c3ccc(F)cc3F)nn2)cc1O

>  <Energy>  (87) 
122.67294198872189

>  <Genealogy>  (87) 
O=C(Cc1cccc(Br)c1)[N-]c1ccccc1C(=O)C=Cc1ccc(OCc2cn(-c3ccc(F)cc3F)nn2)cc1O (protonated)
O=C(Cc1cccc(Br)c1)[N-]c1ccccc1C(=O)C=Cc1ccc(OCc2cn(-c3ccc(F)cc3F)nn2)cc1O (3D coordinates assigned)
O=C(Cc1cccc(Br)c1)[N-]c1ccccc1C(=O)C=Cc1ccc(OCc2cn(-c3ccc(F)cc3F)nn2)cc1O (optimized conformer: 122.67294198872189 kcal/mol)

>  <smiles>  (87) 
O=C(Cc1cccc(Br)c1)Nc1ccccc1C(=O)C=Cc1ccc(OCc2cn(-c3ccc(F)cc3F)nn2)cc1O

>  <score_type>  (87) 
oracle

>  <origin>  (87) 
adg

>  <m_score__min__energy>  (87) 
-13.039999999999999

>  <m_primary>  (87) 
energy

$$$$
87:0
     RDKit          3D

 35 36  0  0  0  0  0  0  0  0999 V2000
   57.3233   34.6544   43.8329 H   0  0  0  0  0  0  0  0  0  0  0  0
   57.3680   34.3050   44.8750 C   0  0  0  0  0  0  0  0  0  0  0  0
   56.4928   33.8181   45.3299 H   0  0  0  0  0  0  0  0  0  0  0  0
   58.4850   34.4720   45.5880 C   0  0  0  0  0  0  0  0  0  0  0  0
   59.3511   34.9609   45.1179 H   0  0  0  0  0  0  0  0  0  0  0  0
   58.5920   34.0110   47.0140 C   0  0  0  0  0  0  0  0  0  0  0  0
   59.3987   34.5681   47.5129 H   0  0  0  0  0  0  0  0  0  0  0  0
   57.6304   34.1949   47.5156 H   0  0  0  0  0  0  0  0  0  0  0  0
   58.8960   32.5350   47.0820 C   0  0  0  0  0  0  0  0  0  0  0  0
   58.8690   31.7670   45.9060 C   0  0  0  0  0  0  0  0  0  0  0  0
   58.6446   32.2511   44.9441 H   0  0  0  0  0  0  0  0  0  0  0  0
   59.1260   30.3860   45.9470 C   0  0  0  0  0  0  0  0  0  0  0  0
   59.1410   29.5630   44.7170 C   0  0  0  0  0  0  0  0  0  0  0  0
   60.0868   29.5103   44.1578 H   0  0  0  0  0  0  0  0  0  0  0  0
   58.0970   28.8750   44.2260 C   0  0  0  0  0  0  0  0  0  0  0  0
   58.0275   28.7812   43.1322 H   0  0  0  0  0  0  0  0  0  0  0  0
   57.0320   28.2320   45.0280 C   0  0  0  0  0  0  0  0  0  0  0  0
   55.9300   28.8360   45.1290 O   0  0  0  0  0  0  0  0  0  0  0  0
   57.1820   26.8870   45.6430 C   0  0  0  0  0  0  0  0  0  0  0  0
   58.4560   26.3020   45.7670 C   0  0  0  0  0  0  0  0  0  0  0  0
   59.3416   26.8412   45.3995 H   0  0  0  0  0  0  0  0  0  0  0  0
   58.6060   25.0420   46.3530 C   0  0  0  0  0  0  0  0  0  0  0  0
   59.6082   24.6012   46.4591 H   0  0  0  0  0  0  0  0  0  0  0  0
   57.4850   24.3420   46.8040 C   0  0  0  0  0  0  0  0  0  0  0  0
   57.6360   23.0900   47.3860 O   0  0  0  0  0  0  0  0  0  0  0  0
   56.2130   24.9000   46.6660 C   0  0  0  0  0  0  0  0  0  0  0  0
   55.3302   24.3413   47.0101 H   0  0  0  0  0  0  0  0  0  0  0  0
   56.0550   26.1670   46.0920 C   0  0  0  0  0  0  0  0  0  0  0  0
   54.7760   26.7040   45.9910 O   0  0  0  0  0  0  0  0  0  0  0  0
   59.4450   29.7830   47.1700 C   0  0  0  0  0  0  0  0  0  0  0  0
   59.6835   28.7097   47.2049 H   0  0  0  0  0  0  0  0  0  0  0  0
   59.4620   30.5370   48.3460 C   0  0  0  0  0  0  0  0  0  0  0  0
   59.6935   30.0507   49.3051 H   0  0  0  0  0  0  0  0  0  0  0  0
   59.1860   31.9070   48.3090 C   0  0  0  0  0  0  0  0  0  0  0  0
   59.2110   32.6340   49.4940 O   0  0  0  0  0  0  0  0  0  0  0  0
  1  2  1  0
  2  3  1  0
  2  4  2  0
  4  5  1  0
  4  6  1  0
  6  7  1  0
  6  8  1  0
  6  9  1  0
  9 10  2  0
 10 11  1  0
 10 12  1  0
 12 13  1  0
 13 14  1  0
 13 15  2  0
 15 16  1  0
 15 17  1  0
 17 18  2  0
 17 19  1  0
 19 20  2  0
 20 21  1  0
 20 22  1  0
 22 23  1  0
 22 24  2  0
 24 25  1  0
 24 26  1  0
 26 27  1  0
 26 28  2  0
 28 29  1  0
 12 30  2  0
 30 31  1  0
 30 32  1  0
 32 33  1  0
 32 34  2  0
 34 35  1  0
 34  9  1  0
 28 19  1  0
M  CHG  3  25  -1  29  -1  35  -1
M  END
>  <UniqueID>  (88) 
83

>  <SMILES>  (88) 
C=CCc1cc(/C=C\C(=O)c2ccc([O-])cc2[O-])ccc1[O-]

>  <Energy>  (88) 
42.37612727657441

>  <Genealogy>  (88) 
C=CCc1cc(C=CC(=O)c2ccc([O-])cc2[O-])ccc1[O-] (protonated)
C=CCc1cc(/C=C\C(=O)c2ccc([O-])cc2[O-])ccc1[O-] (cis-trans isomerization)
C=CCc1cc(/C=C\C(=O)c2ccc([O-])cc2[O-])ccc1[O-] (3D coordinates assigned)
C=CCc1cc(/C=C\C(=O)c2ccc([O-])cc2[O-])ccc1[O-] (optimized conformer: 42.37612727657441 kcal/mol)

>  <smiles>  (88) 
C=CCc1cc(C=CC(=O)c2ccc(O)cc2O)ccc1O

>  <score_type>  (88) 
oracle

>  <origin>  (88) 
adg

>  <m_score__min__energy>  (88) 
-14.029999999999999

>  <m_primary>  (88) 
energy

$$$$
88:0
     RDKit          3D

 42 44  0  0  0  0  0  0  0  0999 V2000
   58.7771   35.3476   44.1522 H   0  0  0  0  0  0  0  0  0  0  0  0
   58.5720   34.5300   44.8590 C   0  0  0  0  0  0  0  0  0  0  0  0
   57.8290   33.4620   44.4650 N   0  0  0  0  0  0  0  0  0  0  0  0
   57.5570   32.4220   45.3050 C   0  0  0  0  0  0  0  0  0  0  0  0
   56.8330   31.4120   44.9140 N   0  0  0  0  0  0  0  0  0  0  0  0
   57.2250   30.4080   43.9640 C   0  0  0  0  0  0  0  0  0  0  0  0
   57.3890   30.7490   42.7630 O   0  0  0  0  0  0  0  0  0  0  0  0
   57.3820   28.9820   44.3410 C   0  0  0  0  0  0  0  0  0  0  0  0
   57.7680   28.0370   43.3770 C   0  0  0  0  0  0  0  0  0  0  0  0
   57.9623   28.3591   42.3433 H   0  0  0  0  0  0  0  0  0  0  0  0
   57.9070   26.6900   43.7220 C   0  0  0  0  0  0  0  0  0  0  0  0
   58.2218   25.9622   42.9596 H   0  0  0  0  0  0  0  0  0  0  0  0
   57.6490   26.2570   45.0310 C   0  0  0  0  0  0  0  0  0  0  0  0
   57.7980   24.8620   45.3510 N   0  0  0  0  0  0  0  0  0  0  0  0
   58.4450   24.2770   44.7760 H   0  0  0  0  0  0  0  0  0  0  0  0
   56.8510   24.0370   46.5490 S   0  0  0  0  0  0  0  0  0  0  0  0
   57.4650   22.6950   46.8290 O   0  0  0  0  0  0  0  0  0  0  0  0
   56.8520   24.8440   47.8170 O   0  0  0  0  0  0  0  0  0  0  0  0
   55.2060   23.7950   45.9540 C   0  0  0  0  0  0  0  0  0  0  0  0
   54.7180   22.4990   45.7370 C   0  0  0  0  0  0  0  0  0  0  0  0
   55.3658   21.6302   45.9256 H   0  0  0  0  0  0  0  0  0  0  0  0
   53.4460   22.3130   45.2940 N   0  0  0  0  0  0  0  0  0  0  0  0
   52.6100   23.3570   45.0450 C   0  0  0  0  0  0  0  0  0  0  0  0
   51.2230   23.0990   44.5520 C   0  0  0  0  0  0  0  0  0  0  0  0
   50.5463   22.9731   45.4101 H   0  0  0  0  0  0  0  0  0  0  0  0
   50.8866   23.9500   43.9415 H   0  0  0  0  0  0  0  0  0  0  0  0
   51.2151   22.1840   43.9415 H   0  0  0  0  0  0  0  0  0  0  0  0
   53.0600   24.6680   45.2400 C   0  0  0  0  0  0  0  0  0  0  0  0
   52.3933   25.5188   45.0359 H   0  0  0  0  0  0  0  0  0  0  0  0
   54.3630   24.8880   45.6960 C   0  0  0  0  0  0  0  0  0  0  0  0
   54.7680   26.0690   45.8710 O   0  0  0  0  0  0  0  0  0  0  0  0
   57.2560   27.2030   45.9950 C   0  0  0  0  0  0  0  0  0  0  0  0
   57.0575   26.8803   47.0277 H   0  0  0  0  0  0  0  0  0  0  0  0
   57.1160   28.5500   45.6500 C   0  0  0  0  0  0  0  0  0  0  0  0
   56.7949   29.2774   46.4101 H   0  0  0  0  0  0  0  0  0  0  0  0
   58.0370   32.4530   46.6210 C   0  0  0  0  0  0  0  0  0  0  0  0
   57.8129   31.6276   47.3127 H   0  0  0  0  0  0  0  0  0  0  0  0
   58.8040   33.5430   47.0480 C   0  0  0  0  0  0  0  0  0  0  0  0
   59.3110   33.5880   48.3930 C   0  0  0  0  0  0  0  0  0  0  0  0
   59.7180   33.6250   49.4760 N   0  0  0  0  0  0  0  0  0  0  0  0
   59.0750   34.5900   46.1600 C   0  0  0  0  0  0  0  0  0  0  0  0
   59.6780   35.4512   46.4836 H   0  0  0  0  0  0  0  0  0  0  0  0
  1  2  1  0
  2  3  1  0
  3  4  1  0
  4  5  2  0
  5  6  1  0
  6  7  2  0
  6  8  1  0
  8  9  2  0
  9 10  1  0
  9 11  1  0
 11 12  1  0
 11 13  2  0
 13 14  1  0
 14 15  1  0
 14 16  1  0
 16 17  2  0
 16 18  2  0
 16 19  1  0
 19 20  2  0
 20 21  1  0
 20 22  1  0
 22 23  1  0
 23 24  1  0
 24 25  1  0
 24 26  1  0
 24 27  1  0
 23 28  2  0
 28 29  1  0
 28 30  1  0
 30 31  2  0
 13 32  1  0
 32 33  1  0
 32 34  2  0
 34 35  1  0
  4 36  1  0
 36 37  1  0
 36 38  2  0
 38 39  1  0
 39 40  3  0
 38 41  1  0
 41 42  1  0
 41  2  2  0
 34  8  1  0
 30 19  1  0
M  CHG  2   3  -1  22  -1
M  END
>  <UniqueID>  (89) 
84

>  <SMILES>  (89) 
Cc1cc(=O)c(S(=O)(=O)Nc2ccc(C(=O)/N=c3/cc(C#N)cc[n-]3)cc2)c[n-]1

>  <Energy>  (89) 
55.98603022997906

>  <Genealogy>  (89) 
Cc1cc(=O)c(S(=O)(=O)Nc2ccc(C(=O)N=c3cc(C#N)cc[n-]3)cc2)c[n-]1 (protonated)
Cc1cc(=O)c(S(=O)(=O)Nc2ccc(C(=O)/N=c3/cc(C#N)cc[n-]3)cc2)c[n-]1 (cis-trans isomerization)
Cc1cc(=O)c(S(=O)(=O)Nc2ccc(C(=O)/N=c3/cc(C#N)cc[n-]3)cc2)c[n-]1 (3D coordinates assigned)
Cc1cc(=O)c(S(=O)(=O)Nc2ccc(C(=O)/N=c3/cc(C#N)cc[n-]3)cc2)c[n-]1 (optimized conformer: 55.98603022997906 kcal/mol)

>  <smiles>  (89) 
Cc1cc(=O)c(S(=O)(=O)Nc2ccc(C(=O)N=c3cc(C#N)cc[nH]3)cc2)c[nH]1

>  <score_type>  (89) 
oracle

>  <origin>  (89) 
adg

>  <m_score__min__energy>  (89) 
-11.640000000000001

>  <m_primary>  (89) 
energy

$$$$
