0:0
     RDKit          3D

 67 70  0  0  0  0  0  0  0  0999 V2000
   56.3970   28.5850   52.8330 H   0  0  0  0  0  0  0  0  0  0  0  0
   56.0400   29.4610   52.3910 N   0  0  0  0  0  0  0  0  0  0  0  0
   56.8410   30.3680   51.9240 C   0  0  0  0  0  0  0  0  0  0  0  0
   58.3090   30.1790   52.0400 C   0  0  0  0  0  0  0  0  0  0  0  0
   58.8810   29.6920   53.2280 C   0  0  0  0  0  0  0  0  0  0  0  0
   58.2358   29.4493   54.0852 H   0  0  0  0  0  0  0  0  0  0  0  0
   60.2630   29.5140   53.3280 C   0  0  0  0  0  0  0  0  0  0  0  0
   60.7007   29.1367   54.2640 H   0  0  0  0  0  0  0  0  0  0  0  0
   61.0900   29.8130   52.2450 C   0  0  0  0  0  0  0  0  0  0  0  0
   62.1782   29.6787   52.3335 H   0  0  0  0  0  0  0  0  0  0  0  0
   60.5400   30.2840   51.0440 C   0  0  0  0  0  0  0  0  0  0  0  0
   61.4280   30.5960   49.8620 C   0  0  0  0  0  0  0  0  0  0  0  0
   62.1148   31.4087   50.1409 H   0  0  0  0  0  0  0  0  0  0  0  0
   61.9749   29.6778   49.6016 H   0  0  0  0  0  0  0  0  0  0  0  0
   60.6190   31.0340   48.6150 C   0  0  1  0  0  0  0  0  0  0  0  0
   59.5806   30.7528   48.8444 H   0  0  0  0  0  0  0  0  0  0  0  0
   60.6830   32.4910   48.4080 N   0  0  0  0  0  0  0  0  0  0  0  0
   59.1430   33.2410   48.0630 S   0  0  0  0  0  0  0  0  0  0  0  0
   58.0920   32.7750   49.0320 O   0  0  0  0  0  0  0  0  0  0  0  0
   59.2880   34.7300   48.1890 O   0  0  0  0  0  0  0  0  0  0  0  0
   58.6590   32.8590   46.4140 C   0  0  0  0  0  0  0  0  0  0  0  0
   58.9890   33.7190   45.3580 C   0  0  0  0  0  0  0  0  0  0  0  0
   59.5732   34.6297   45.5564 H   0  0  0  0  0  0  0  0  0  0  0  0
   58.5800   33.4260   44.0540 C   0  0  0  0  0  0  0  0  0  0  0  0
   58.8448   34.1049   43.2300 H   0  0  0  0  0  0  0  0  0  0  0  0
   57.8320   32.2670   43.7940 C   0  0  0  0  0  0  0  0  0  0  0  0
   57.4060   31.9680   42.4900 C   0  0  0  0  0  0  0  0  0  0  0  0
   57.6608   32.6437   41.6602 H   0  0  0  0  0  0  0  0  0  0  0  0
   56.6580   30.8120   42.2450 C   0  0  0  0  0  0  0  0  0  0  0  0
   56.3242   30.5817   41.2225 H   0  0  0  0  0  0  0  0  0  0  0  0
   56.3330   29.9480   43.2950 C   0  0  0  0  0  0  0  0  0  0  0  0
   55.7452   29.0398   43.0956 H   0  0  0  0  0  0  0  0  0  0  0  0
   56.7520   30.2340   44.5960 C   0  0  0  0  0  0  0  0  0  0  0  0
   56.4939   29.5505   45.4183 H   0  0  0  0  0  0  0  0  0  0  0  0
   57.5020   31.3920   44.8570 C   0  0  0  0  0  0  0  0  0  0  0  0
   57.9250   31.6940   46.1610 C   0  0  0  0  0  0  0  0  0  0  0  0
   57.6785   31.0120   46.9881 H   0  0  0  0  0  0  0  0  0  0  0  0
   60.9700   30.2880   47.3380 C   0  0  0  0  0  0  0  0  0  0  0  0
   62.0780   30.5140   46.7760 O   0  0  0  0  0  0  0  0  0  0  0  0
   60.0610   29.3390   46.7360 N   0  0  0  0  0  0  0  0  0  0  0  0
   60.2450   29.0010   45.3140 C   0  0  0  0  0  0  0  0  0  0  0  0
   60.4027   29.9287   44.7443 H   0  0  0  0  0  0  0  0  0  0  0  0
   61.1159   28.3344   45.2292 H   0  0  0  0  0  0  0  0  0  0  0  0
   59.0260   28.2700   44.7450 C   0  0  0  0  0  0  0  0  0  0  0  0
   58.1654   28.9551   44.7434 H   0  0  0  0  0  0  0  0  0  0  0  0
   59.2631   27.9420   43.7222 H   0  0  0  0  0  0  0  0  0  0  0  0
   58.6780   27.0300   45.5850 C   0  0  0  0  0  0  0  0  0  0  0  0
   59.4478   26.2668   45.3983 H   0  0  0  0  0  0  0  0  0  0  0  0
   57.3650   26.5350   45.1770 N   0  0  0  0  0  0  0  0  0  0  0  0
   56.3290   26.1820   46.0980 C   0  0  0  0  0  0  0  0  0  0  0  0
   55.1800   26.6940   45.9890 O   0  0  0  0  0  0  0  0  0  0  0  0
   56.6030   25.2600   47.1100 O   0  0  0  0  0  0  0  0  0  0  0  0
   57.1480   23.9730   46.8450 C   0  0  0  0  0  0  0  0  0  0  0  0
   57.3638   23.4634   47.7956 H   0  0  0  0  0  0  0  0  0  0  0  0
   56.4238   23.3800   46.2672 H   0  0  0  0  0  0  0  0  0  0  0  0
   58.0779   24.0804   46.2672 H   0  0  0  0  0  0  0  0  0  0  0  0
   58.7090   27.3080   47.1130 C   0  0  0  0  0  0  0  0  0  0  0  0
   57.7549   26.9731   47.5461 H   0  0  0  0  0  0  0  0  0  0  0  0
   59.5712   26.7604   47.5213 H   0  0  0  0  0  0  0  0  0  0  0  0
   58.9090   28.7860   47.4680 C   0  0  0  0  0  0  0  0  0  0  0  0
   58.0037   29.3493   47.1977 H   0  0  0  0  0  0  0  0  0  0  0  0
   59.0988   28.8707   48.5482 H   0  0  0  0  0  0  0  0  0  0  0  0
   59.1510   30.4690   50.9490 C   0  0  0  0  0  0  0  0  0  0  0  0
   58.7156   30.8449   50.0113 H   0  0  0  0  0  0  0  0  0  0  0  0
   56.2970   31.5320   51.2880 N   0  0  0  0  0  0  0  0  0  0  0  0
   55.2640   31.6880   51.2630 H   0  0  0  0  0  0  0  0  0  0  0  0
   56.9050   32.2030   50.7700 H   0  0  0  0  0  0  0  0  0  0  0  0
  1  2  1  0
  2  3  2  0
  3  4  1  0
  4  5  2  0
  5  6  1  0
  5  7  1  0
  7  8  1  0
  7  9  2  0
  9 10  1  0
  9 11  1  0
 11 12  1  0
 12 13  1  0
 12 14  1  0
 12 15  1  0
 15 16  1  1
 15 17  1  0
 17 18  1  0
 18 19  2  0
 18 20  2  0
 18 21  1  0
 21 22  2  0
 22 23  1  0
 22 24  1  0
 24 25  1  0
 24 26  2  0
 26 27  1  0
 27 28  1  0
 27 29  2  0
 29 30  1  0
 29 31  1  0
 31 32  1  0
 31 33  2  0
 33 34  1  0
 33 35  1  0
 35 36  2  0
 36 37  1  0
 15 38  1  0
 38 39  2  0
 38 40  1  0
 40 41  1  0
 41 42  1  0
 41 43  1  0
 41 44  1  0
 44 45  1  0
 44 46  1  0
 44 47  1  0
 47 48  1  0
 47 49  1  0
 49 50  1  0
 50 51  2  0
 50 52  1  0
 52 53  1  0
 53 54  1  0
 53 55  1  0
 53 56  1  0
 47 57  1  0
 57 58  1  0
 57 59  1  0
 57 60  1  0
 60 61  1  0
 60 62  1  0
 11 63  2  0
 63 64  1  0
  3 65  1  0
 65 66  1  0
 65 67  1  0
 63  4  1  0
 36 21  1  0
 60 40  1  0
 35 26  1  0
M  CHG  2  17  -1  49  -1
M  END
>  <UniqueID>  (1) 
1

>  <SMILES>  (1) 
[H]/N=C(\N)c1cccc(C[C@@H]([N-]S(=O)(=O)c2ccc3ccccc3c2)C(=O)N2CCC([N-]C(=O)OC)CC2)c1

>  <Energy>  (1) 
75.15664321606852

>  <Genealogy>  (1) 
COC(=O)[N-]C1CCN(C(=O)C(Cc2cccc(C(=N)N)c2)[N-]S(=O)(=O)c2ccc3ccccc3c2)CC1 (protonated)
COC(=O)[N-]C1CCN(C(=O)[C@@H](Cc2cccc(C(=N)N)c2)[N-]S(=O)(=O)c2ccc3ccccc3c2)CC1 (chirality)
[H]/N=C(\N)c1cccc(C[C@@H]([N-]S(=O)(=O)c2ccc3ccccc3c2)C(=O)N2CCC([N-]C(=O)OC)CC2)c1 (cis-trans isomerization)
[H]/N=C(\N)c1cccc(C[C@@H]([N-]S(=O)(=O)c2ccc3ccccc3c2)C(=O)N2CCC([N-]C(=O)OC)CC2)c1 (3D coordinates assigned)
[H]/N=C(\N)c1cccc(C[C@@H]([N-]S(=O)(=O)c2ccc3ccccc3c2)C(=O)N2CCC([N-]C(=O)OC)CC2)c1 (nonaromatic ring conformer: 75.15664321606852 kcal/mol)

>  <smiles>  (1) 
COC(=O)NC1CCN(C(=O)C(Cc2cccc(C(=N)N)c2)NS(=O)(=O)c2ccc3ccccc3c2)CC1

>  <score_type>  (1) 
oracle

>  <origin>  (1) 
adg

>  <m_score__min__energy>  (1) 
-13.77

>  <m_primary>  (1) 
energy

$$$$
1:0
     RDKit          3D

 45 47  0  0  0  0  0  0  0  0999 V2000
   55.2720   29.6380   44.1410 C   0  0  0  0  0  0  0  0  0  0  0  0
   56.1580   29.3860   45.2690 N   0  0  0  0  0  0  0  0  0  0  0  0
   57.4100   30.0520   45.4700 C   0  0  0  0  0  0  0  0  0  0  0  0
   58.1940   29.6230   46.3580 O   0  0  0  0  0  0  0  0  0  0  0  0
   57.8030   31.2200   44.6540 C   0  0  0  0  0  0  0  0  0  0  0  0
   57.7790   31.1220   43.2950 N   0  0  0  0  0  0  0  0  0  0  0  0
   58.1480   32.1660   42.5070 C   0  0  0  0  0  0  0  0  0  0  0  0
   58.5560   33.3310   43.0670 N   0  0  0  0  0  0  0  0  0  0  0  0
   58.5980   33.4920   44.4150 C   0  0  0  0  0  0  0  0  0  0  0  0
   59.0620   34.8060   44.9720 C   0  0  0  0  0  0  0  0  0  0  0  0
   58.2110   32.4290   45.2550 C   0  0  0  0  0  0  0  0  0  0  0  0
   58.2590   32.5720   46.7240 C   0  0  0  0  0  0  0  0  0  0  0  0
   57.1940   32.8720   47.3280 O   0  0  0  0  0  0  0  0  0  0  0  0
   59.4880   32.3870   47.4620 N   0  0  0  0  0  0  0  0  0  0  0  0
   59.5070   32.6080   48.9150 C   0  0  0  0  0  0  0  0  0  0  0  0
   60.8490   33.1990   49.3530 C   0  0  0  0  0  0  0  0  0  0  0  0
   61.9600   32.4290   48.7760 N   0  0  0  0  0  0  0  0  0  0  0  0
   63.1620   32.1690   49.5320 C   0  0  0  0  0  0  0  0  0  0  0  0
   64.3160   32.8480   49.3480 N   0  0  0  0  0  0  0  0  0  0  0  0
   65.3070   32.4040   50.1690 C   0  0  0  0  0  0  0  0  0  0  0  0
   66.6730   33.0060   50.1560 C   0  0  0  0  0  0  0  0  0  0  0  0
   64.9480   31.3640   51.0230 C   0  0  0  0  0  0  0  0  0  0  0  0
   63.3370   30.9900   50.7250 S   0  0  0  0  0  0  0  0  0  0  0  0
   61.9460   32.2220   47.3230 C   0  0  0  0  0  0  0  0  0  0  0  0
   60.6080   31.6290   46.8820 C   0  0  0  0  0  0  0  0  0  0  0  0
   54.2763   29.9212   44.5130 H   0  0  0  0  0  0  0  0  0  0  0  0
   55.6810   30.4555   43.5290 H   0  0  0  0  0  0  0  0  0  0  0  0
   55.1895   28.7277   43.5290 H   0  0  0  0  0  0  0  0  0  0  0  0
   57.4570   30.2390   42.8380 H   0  0  0  0  0  0  0  0  0  0  0  0
   58.1155   32.0653   41.4121 H   0  0  0  0  0  0  0  0  0  0  0  0
   59.0472   34.7641   46.0711 H   0  0  0  0  0  0  0  0  0  0  0  0
   60.0863   35.0095   44.6266 H   0  0  0  0  0  0  0  0  0  0  0  0
   58.3926   35.6076   44.6266 H   0  0  0  0  0  0  0  0  0  0  0  0
   58.6998   33.3048   49.1852 H   0  0  0  0  0  0  0  0  0  0  0  0
   59.3624   31.6427   49.4222 H   0  0  0  0  0  0  0  0  0  0  0  0
   60.9147   34.2423   49.0107 H   0  0  0  0  0  0  0  0  0  0  0  0
   60.9169   33.1564   50.4501 H   0  0  0  0  0  0  0  0  0  0  0  0
   67.0168   33.1575   51.1899 H   0  0  0  0  0  0  0  0  0  0  0  0
   67.3666   32.3302   49.6343 H   0  0  0  0  0  0  0  0  0  0  0  0
   66.6422   33.9739   49.6343 H   0  0  0  0  0  0  0  0  0  0  0  0
   65.6017   30.8751   51.7603 H   0  0  0  0  0  0  0  0  0  0  0  0
   62.0987   33.1872   46.8179 H   0  0  0  0  0  0  0  0  0  0  0  0
   62.7518   31.5231   47.0544 H   0  0  0  0  0  0  0  0  0  0  0  0
   60.5401   31.6669   45.7848 H   0  0  0  0  0  0  0  0  0  0  0  0
   60.5497   30.5877   47.2317 H   0  0  0  0  0  0  0  0  0  0  0  0
  1  2  1  0
  2  3  1  0
  3  4  2  0
  3  5  1  0
  5  6  2  0
  6  7  1  0
  7  8  2  0
  8  9  1  0
  9 10  1  0
  9 11  2  0
 11 12  1  0
 12 13  2  0
 12 14  1  0
 14 15  1  0
 15 16  1  0
 16 17  1  0
 17 18  1  0
 18 19  2  0
 19 20  1  0
 20 21  1  0
 20 22  2  0
 22 23  1  0
 17 24  1  0
 24 25  1  0
 11  5  1  0
 25 14  1  0
 23 18  1  0
  1 26  1  0
  1 27  1  0
  1 28  1  0
  6 29  1  0
  7 30  1  0
 10 31  1  0
 10 32  1  0
 10 33  1  0
 15 34  1  0
 15 35  1  0
 16 36  1  0
 16 37  1  0
 21 38  1  0
 21 39  1  0
 21 40  1  0
 22 41  1  0
 24 42  1  0
 24 43  1  0
 25 44  1  0
 25 45  1  0
M  CHG  2   2  -1   6   1
M  END
>  <UniqueID>  (2) 
2

>  <SMILES>  (2) 
C[N-]C(=O)c1[nH+]cnc(C)c1C(=O)N1CCN(c2nc(C)cs2)CC1

>  <Energy>  (2) 
86.80336814091804

>  <Genealogy>  (2) 
C[N-]C(=O)c1[nH+]cnc(C)c1C(=O)N1CCN(c2nc(C)cs2)CC1 (protonated)
C[N-]C(=O)c1[nH+]cnc(C)c1C(=O)N1CCN(c2nc(C)cs2)CC1 (3D coordinates assigned)
C[N-]C(=O)c1[nH+]cnc(C)c1C(=O)N1CCN(c2nc(C)cs2)CC1 (nonaromatic ring conformer: 86.80336814091804 kcal/mol)

>  <smiles>  (2) 
CNC(=O)c1ncnc(C)c1C(=O)N1CCN(c2nc(C)cs2)CC1

>  <score_type>  (2) 
oracle

>  <origin>  (2) 
adg

>  <m_score__min__energy>  (2) 
-7.1699999999999999

>  <m_primary>  (2) 
energy

$$$$
2:0
     RDKit          3D

 34 36  0  0  0  0  0  0  0  0999 V2000
   56.3250   22.1300   42.7320 C   0  0  0  0  0  0  0  0  0  0  0  0
   56.4150   23.1140   43.8540 C   0  0  0  0  0  0  0  0  0  0  0  0
   55.2600   23.8150   44.2740 C   0  0  0  0  0  0  0  0  0  0  0  0
   55.3760   24.7310   45.3290 C   0  0  0  0  0  0  0  0  0  0  0  0
   54.3780   25.3810   45.7400 O   0  0  0  0  0  0  0  0  0  0  0  0
   56.5970   24.8960   45.8940 N   0  0  0  0  0  0  0  0  0  0  0  0
   56.9360   25.6910   46.8890 N   0  0  0  0  0  0  0  0  0  0  0  0
   58.2610   25.4630   47.0530 C   0  0  0  0  0  0  0  0  0  0  0  0
   58.9640   26.0730   47.9600 N   0  0  0  0  0  0  0  0  0  0  0  0
   59.0680   27.5260   48.0820 C   0  0  0  0  0  0  0  0  0  0  0  0
   59.1120   28.1680   46.7200 C   0  0  0  0  0  0  0  0  0  0  0  0
   60.2970   28.1670   45.9670 C   0  0  0  0  0  0  0  0  0  0  0  0
   60.3340   28.7800   44.7120 C   0  0  0  0  0  0  0  0  0  0  0  0
   59.1920   29.4030   44.2020 C   0  0  0  0  0  0  0  0  0  0  0  0
   58.0070   29.4220   44.9490 C   0  0  0  0  0  0  0  0  0  0  0  0
   56.5630   30.1980   44.3060 S   0  0  0  0  0  0  0  0  0  0  0  0
   55.1610   29.3550   44.8570 N   0  0  0  0  0  0  0  0  0  0  0  0
   56.5060   31.6270   44.7680 O   0  0  0  0  0  0  0  0  0  0  0  0
   56.5990   30.1790   42.8040 O   0  0  0  0  0  0  0  0  0  0  0  0
   57.9680   28.7990   46.2050 C   0  0  0  0  0  0  0  0  0  0  0  0
   58.7770   24.5440   46.1890 N   0  0  0  0  0  0  0  0  0  0  0  0
   57.6760   24.2260   45.4870 C   0  0  0  0  0  0  0  0  0  0  0  0
   57.6150   23.3310   44.4730 N   0  0  0  0  0  0  0  0  0  0  0  0
   56.2320   21.1136   43.1423 H   0  0  0  0  0  0  0  0  0  0  0  0
   55.4440   22.3580   42.1141 H   0  0  0  0  0  0  0  0  0  0  0  0
   57.2328   22.1944   42.1141 H   0  0  0  0  0  0  0  0  0  0  0  0
   54.2906   23.6447   43.7827 H   0  0  0  0  0  0  0  0  0  0  0  0
   58.1955   27.9063   48.6334 H   0  0  0  0  0  0  0  0  0  0  0  0
   59.9944   27.7723   48.6215 H   0  0  0  0  0  0  0  0  0  0  0  0
   61.1997   27.6818   46.3666 H   0  0  0  0  0  0  0  0  0  0  0  0
   61.2639   28.7721   44.1244 H   0  0  0  0  0  0  0  0  0  0  0  0
   59.2235   29.8798   43.2112 H   0  0  0  0  0  0  0  0  0  0  0  0
   55.4830   28.6580   45.5660 H   0  0  0  0  0  0  0  0  0  0  0  0
   57.0363   28.8047   46.7898 H   0  0  0  0  0  0  0  0  0  0  0  0
  1  2  1  0
  2  3  2  0
  3  4  1  0
  4  5  2  0
  4  6  1  0
  6  7  1  0
  7  8  1  0
  8  9  2  3
  9 10  1  0
 10 11  1  0
 11 12  2  0
 12 13  1  0
 13 14  2  0
 14 15  1  0
 15 16  1  0
 16 17  1  0
 16 18  2  0
 16 19  2  0
 15 20  2  0
  8 21  1  0
 21 22  2  0
 22 23  1  0
 23  2  1  0
 22  6  1  0
 20 11  1  0
  1 24  1  0
  1 25  1  0
  1 26  1  0
  3 27  1  0
 10 28  1  0
 10 29  1  0
 12 30  1  0
 13 31  1  0
 14 32  1  0
 17 33  1  0
 20 34  1  0
M  CHG  3   7  -1  17  -1  23  -1
M  END
>  <UniqueID>  (3) 
3

>  <SMILES>  (3) 
Cc1cc(=O)n2[n-]c(=NCc3cccc(S([NH-])(=O)=O)c3)nc2[n-]1

>  <Energy>  (3) 
74.47392545173102

>  <Genealogy>  (3) 
Cc1cc(=O)n2[n-]c(=NCc3cccc(S([NH-])(=O)=O)c3)nc2[n-]1 (protonated)
Cc1cc(=O)n2[n-]c(=NCc3cccc(S([NH-])(=O)=O)c3)nc2[n-]1 (3D coordinates assigned)
Cc1cc(=O)n2[n-]c(=NCc3cccc(S([NH-])(=O)=O)c3)nc2[n-]1 (optimized conformer: 74.47392545173102 kcal/mol)

>  <smiles>  (3) 
Cc1cc(=O)n2[nH]c(=NCc3cccc(S(N)(=O)=O)c3)nc2[nH]1

>  <score_type>  (3) 
oracle

>  <origin>  (3) 
adg

>  <m_score__min__energy>  (3) 
-12.94

>  <m_primary>  (3) 
energy

$$$$
3:0
     RDKit          3D

 57 59  0  0  0  0  0  0  0  0999 V2000
   54.4030   26.7150   46.7410 H   0  0  0  0  0  0  0  0  0  0  0  0
   55.1660   26.6010   46.1160 O   0  0  0  0  0  0  0  0  0  0  0  0
   55.1390   25.2620   45.7110 C   0  0  0  0  0  0  0  0  0  0  0  0
   54.4892   25.1587   44.8295 H   0  0  0  0  0  0  0  0  0  0  0  0
   54.7487   24.6393   46.5295 H   0  0  0  0  0  0  0  0  0  0  0  0
   56.5360   24.8140   45.3610 C   0  0  0  0  0  0  0  0  0  0  0  0
   56.8390   24.4390   44.1080 C   0  0  0  0  0  0  0  0  0  0  0  0
   57.8609   24.1139   43.8631 H   0  0  0  0  0  0  0  0  0  0  0  0
   56.0653   24.4568   43.3263 H   0  0  0  0  0  0  0  0  0  0  0  0
   57.6080   24.8390   46.4220 C   0  0  0  0  0  0  0  0  0  0  0  0
   57.2292   24.3526   47.3330 H   0  0  0  0  0  0  0  0  0  0  0  0
   58.4935   24.3024   46.0507 H   0  0  0  0  0  0  0  0  0  0  0  0
   57.9800   26.2180   46.7300 N   0  0  0  0  0  0  0  0  0  0  0  0
   57.2110   26.9180   46.8400 H   0  0  0  0  0  0  0  0  0  0  0  0
   59.3430   26.6620   46.8250 C   0  0  0  0  0  0  0  0  0  0  0  0
   60.2870   25.8270   46.7500 O   0  0  0  0  0  0  0  0  0  0  0  0
   59.6480   28.0870   47.0840 C   0  0  0  0  0  0  0  0  0  0  0  0
   60.5100   28.3550   48.1560 C   0  0  0  0  0  0  0  0  0  0  0  0
   61.1215   27.5476   48.5852 H   0  0  0  0  0  0  0  0  0  0  0  0
   60.5920   29.6390   48.6760 C   0  0  0  0  0  0  0  0  0  0  0  0
   61.3018   29.8609   49.4866 H   0  0  0  0  0  0  0  0  0  0  0  0
   59.7970   30.6180   48.1840 N   0  0  0  0  0  0  0  0  0  0  0  0
   58.9590   30.4250   47.1300 C   0  0  0  0  0  0  0  0  0  0  0  0
   58.1000   31.4650   46.6850 C   0  0  0  0  0  0  0  0  0  0  0  0
   57.9530   32.6060   47.3030 N   0  0  0  0  0  0  0  0  0  0  0  0
   58.8410   33.2430   48.2290 C   0  0  0  0  0  0  0  0  0  0  0  0
   58.9510   32.7780   49.3940 O   0  0  0  0  0  0  0  0  0  0  0  0
   59.7000   34.4190   47.8120 C   0  0  0  0  0  0  0  0  0  0  0  0
   59.0403   35.2161   47.4385 H   0  0  0  0  0  0  0  0  0  0  0  0
   60.2725   34.7299   48.6983 H   0  0  0  0  0  0  0  0  0  0  0  0
   60.6830   34.0910   46.7540 N   0  0  0  0  0  0  0  0  0  0  0  0
   60.0540   33.7940   45.4460 C   0  0  0  0  0  0  0  0  0  0  0  0
   60.8194   33.8198   44.6564 H   0  0  0  0  0  0  0  0  0  0  0  0
   59.5946   32.7950   45.4776 H   0  0  0  0  0  0  0  0  0  0  0  0
   58.9850   34.8360   45.1510 C   0  0  0  0  0  0  0  0  0  0  0  0
   58.5834   35.2274   46.0973 H   0  0  0  0  0  0  0  0  0  0  0  0
   59.4263   35.6601   44.5712 H   0  0  0  0  0  0  0  0  0  0  0  0
   58.1725   34.3738   44.5712 H   0  0  0  0  0  0  0  0  0  0  0  0
   61.6780   33.0820   47.1780 C   0  0  0  0  0  0  0  0  0  0  0  0
   61.6192   32.9532   48.2689 H   0  0  0  0  0  0  0  0  0  0  0  0
   61.4572   32.1322   46.6689 H   0  0  0  0  0  0  0  0  0  0  0  0
   63.0900   33.5240   46.8010 C   0  0  0  0  0  0  0  0  0  0  0  0
   63.6735   33.7066   47.7154 H   0  0  0  0  0  0  0  0  0  0  0  0
   63.5752   32.7348   46.2080 H   0  0  0  0  0  0  0  0  0  0  0  0
   63.0386   34.4490   46.2080 H   0  0  0  0  0  0  0  0  0  0  0  0
   57.3650   31.2710   45.5650 N   0  0  0  0  0  0  0  0  0  0  0  0
   57.4290   30.1430   44.8180 C   0  0  0  0  0  0  0  0  0  0  0  0
   56.6870   30.0720   43.6320 C   0  0  0  0  0  0  0  0  0  0  0  0
   55.9911   30.8830   43.3711 H   0  0  0  0  0  0  0  0  0  0  0  0
   56.8280   28.9760   42.7810 C   0  0  0  0  0  0  0  0  0  0  0  0
   56.2219   28.9072   41.8656 H   0  0  0  0  0  0  0  0  0  0  0  0
   57.7380   27.9690   43.0930 C   0  0  0  0  0  0  0  0  0  0  0  0
   57.8806   27.1260   42.4009 H   0  0  0  0  0  0  0  0  0  0  0  0
   58.4710   28.0250   44.2820 C   0  0  0  0  0  0  0  0  0  0  0  0
   59.2109   27.2410   44.5009 H   0  0  0  0  0  0  0  0  0  0  0  0
   58.2740   29.0760   45.2070 C   0  0  0  0  0  0  0  0  0  0  0  0
   58.9560   29.1700   46.4570 C   0  0  0  0  0  0  0  0  0  0  0  0
  1  2  1  0
  2  3  1  0
  3  4  1  0
  3  5  1  0
  3  6  1  0
  6  7  2  0
  7  8  1  0
  7  9  1  0
  6 10  1  0
 10 11  1  0
 10 12  1  0
 10 13  1  0
 13 14  1  0
 13 15  1  0
 15 16  2  0
 15 17  1  0
 17 18  2  0
 18 19  1  0
 18 20  1  0
 20 21  1  0
 20 22  2  0
 22 23  1  0
 23 24  1  0
 24 25  2  0
 25 26  1  0
 26 27  2  0
 26 28  1  0
 28 29  1  0
 28 30  1  0
 28 31  1  0
 31 32  1  0
 32 33  1  0
 32 34  1  0
 32 35  1  0
 35 36  1  0
 35 37  1  0
 35 38  1  0
 31 39  1  0
 39 40  1  0
 39 41  1  0
 39 42  1  0
 42 43  1  0
 42 44  1  0
 42 45  1  0
 24 46  1  0
 46 47  1  0
 47 48  2  0
 48 49  1  0
 48 50  1  0
 50 51  1  0
 50 52  2  0
 52 53  1  0
 52 54  1  0
 54 55  1  0
 54 56  2  0
 56 57  1  0
 57 17  1  0
 57 23  2  0
 56 47  1  0
M  CHG  1  46  -1
M  END
>  <UniqueID>  (4) 
4

>  <SMILES>  (4) 
C=C(CO)CNC(=O)c1ccnc2/c(=N\C(=O)CN(CC)CC)[n-]c3ccccc3c12

>  <Energy>  (4) 
91.8692299674393

>  <Genealogy>  (4) 
C=C(CO)CNC(=O)c1ccnc2c(=NC(=O)CN(CC)CC)[n-]c3ccccc3c12 (protonated)
C=C(CO)CNC(=O)c1ccnc2/c(=N\C(=O)CN(CC)CC)[n-]c3ccccc3c12 (cis-trans isomerization)
C=C(CO)CNC(=O)c1ccnc2/c(=N\C(=O)CN(CC)CC)[n-]c3ccccc3c12 (3D coordinates assigned)
C=C(CO)CNC(=O)c1ccnc2/c(=N\C(=O)CN(CC)CC)[n-]c3ccccc3c12 (optimized conformer: 91.8692299674393 kcal/mol)

>  <smiles>  (4) 
C=C(CO)CNC(=O)c1ccnc2c(=NC(=O)C[N+](CC)CC)[nH]c3ccccc3c12

>  <score_type>  (4) 
oracle

>  <origin>  (4) 
adg

>  <m_score__min__energy>  (4) 
-9.9399999999999995

>  <m_primary>  (4) 
energy

$$$$
4:0
     RDKit          3D

 44 47  0  0  0  0  0  0  0  0999 V2000
   57.8748   35.1719   44.6372 H   0  0  0  0  0  0  0  0  0  0  0  0
   57.9740   34.1060   44.8900 C   0  0  0  0  0  0  0  0  0  0  0  0
   57.3970   33.1820   44.1180 C   0  0  0  0  0  0  0  0  0  0  0  0
   56.8200   33.4964   43.2358 H   0  0  0  0  0  0  0  0  0  0  0  0
   57.5220   31.7440   44.4310 C   0  0  0  0  0  0  0  0  0  0  0  0
   57.0510   30.7800   43.5280 C   0  0  0  0  0  0  0  0  0  0  0  0
   56.5730   31.0946   42.5885 H   0  0  0  0  0  0  0  0  0  0  0  0
   57.1880   29.4200   43.8200 C   0  0  0  0  0  0  0  0  0  0  0  0
   56.8179   28.6659   43.1098 H   0  0  0  0  0  0  0  0  0  0  0  0
   57.7940   29.0170   45.0120 C   0  0  0  0  0  0  0  0  0  0  0  0
   57.9047   27.9457   45.2358 H   0  0  0  0  0  0  0  0  0  0  0  0
   58.2600   29.9700   45.9210 C   0  0  0  0  0  0  0  0  0  0  0  0
   58.7368   29.6461   46.8579 H   0  0  0  0  0  0  0  0  0  0  0  0
   58.1220   31.3430   45.6430 C   0  0  0  0  0  0  0  0  0  0  0  0
   58.5690   32.3500   46.5790 N   0  0  0  0  0  0  0  0  0  0  0  0
   58.5120   32.0720   48.0220 C   0  0  0  0  0  0  0  0  0  0  0  0
   58.7022   32.9995   48.5819 H   0  0  0  0  0  0  0  0  0  0  0  0
   57.5158   31.6847   48.2817 H   0  0  0  0  0  0  0  0  0  0  0  0
   59.2754   31.3239   48.2817 H   0  0  0  0  0  0  0  0  0  0  0  0
   58.7460   33.7000   46.0840 C   0  0  0  0  0  0  0  0  0  0  0  0
   59.6120   34.5790   46.6250 C   0  0  0  0  0  0  0  0  0  0  0  0
   59.3386   35.6443   46.6026 H   0  0  0  0  0  0  0  0  0  0  0  0
   60.9040   34.2150   47.2470 C   0  0  0  0  0  0  0  0  0  0  0  0
   61.9510   33.7700   46.4320 C   0  0  0  0  0  0  0  0  0  0  0  0
   61.8050   33.7102   45.3434 H   0  0  0  0  0  0  0  0  0  0  0  0
   63.1190   33.4190   46.9580 O   0  0  0  0  0  0  0  0  0  0  0  0
   63.3580   33.4530   48.2650 C   0  0  0  0  0  0  0  0  0  0  0  0
   64.6140   33.0770   48.7470 C   0  0  0  0  0  0  0  0  0  0  0  0
   65.3957   32.7617   48.0402 H   0  0  0  0  0  0  0  0  0  0  0  0
   64.8900   33.0970   50.1240 C   0  0  0  0  0  0  0  0  0  0  0  0
   66.2570   32.6880   50.6070 C   0  0  0  0  0  0  0  0  0  0  0  0
   66.2712   32.6838   51.7069 H   0  0  0  0  0  0  0  0  0  0  0  0
   66.4916   31.6803   50.2334 H   0  0  0  0  0  0  0  0  0  0  0  0
   67.0065   33.4012   50.2334 H   0  0  0  0  0  0  0  0  0  0  0  0
   63.8850   33.5110   51.0300 C   0  0  0  0  0  0  0  0  0  0  0  0
   64.1420   33.5460   52.5160 C   0  0  0  0  0  0  0  0  0  0  0  0
   63.1922   33.4166   53.0555 H   0  0  0  0  0  0  0  0  0  0  0  0
   64.8318   32.7335   52.7880 H   0  0  0  0  0  0  0  0  0  0  0  0
   64.5894   34.5134   52.7880 H   0  0  0  0  0  0  0  0  0  0  0  0
   62.6210   33.8840   50.5420 C   0  0  0  0  0  0  0  0  0  0  0  0
   61.8359   34.1963   51.2463 H   0  0  0  0  0  0  0  0  0  0  0  0
   62.3500   33.8620   49.1640 C   0  0  0  0  0  0  0  0  0  0  0  0
   61.0980   34.2310   48.6400 C   0  0  0  0  0  0  0  0  0  0  0  0
   60.1550   34.5610   49.4110 O   0  0  0  0  0  0  0  0  0  0  0  0
  1  2  1  0
  2  3  2  0
  3  4  1  0
  3  5  1  0
  5  6  2  0
  6  7  1  0
  6  8  1  0
  8  9  1  0
  8 10  2  0
 10 11  1  0
 10 12  1  0
 12 13  1  0
 12 14  2  0
 14 15  1  0
 15 16  1  0
 16 17  1  0
 16 18  1  0
 16 19  1  0
 15 20  1  0
 20 21  2  0
 21 22  1  0
 21 23  1  0
 23 24  2  0
 24 25  1  0
 24 26  1  0
 26 27  1  0
 27 28  2  0
 28 29  1  0
 28 30  1  0
 30 31  1  0
 31 32  1  0
 31 33  1  0
 31 34  1  0
 30 35  2  0
 35 36  1  0
 36 37  1  0
 36 38  1  0
 36 39  1  0
 35 40  1  0
 40 41  1  0
 40 42  2  0
 42 43  1  0
 43 44  2  0
 20  2  1  0
 43 23  1  0
 14  5  1  0
 42 27  1  0
M  END
>  <UniqueID>  (5) 
5

>  <SMILES>  (5) 
Cc1cc2occ(/C=C3/C=Cc4ccccc4N3C)c(=O)c2cc1C

>  <Energy>  (5) 
68.74691509164884

>  <Genealogy>  (5) 
Cc1cc2occ(/C=C3/C=Cc4ccccc4N3C)c(=O)c2cc1C (cis-trans isomerization)
Cc1cc2occ(/C=C3/C=Cc4ccccc4N3C)c(=O)c2cc1C (3D coordinates assigned)
Cc1cc2occ(/C=C3/C=Cc4ccccc4N3C)c(=O)c2cc1C (nonaromatic ring conformer: 68.74691509164884 kcal/mol)

>  <smiles>  (5) 
Cc1cc2occ(C=C3C=Cc4ccccc4N3C)c(=O)c2cc1C

>  <score_type>  (5) 
oracle

>  <origin>  (5) 
adg

>  <m_score__min__energy>  (5) 
-8.6099999999999994

>  <m_primary>  (5) 
energy

$$$$
5:0
     RDKit          3D

 57 60  0  0  0  0  0  0  0  0999 V2000
   67.4140   31.0500   51.7940 C   0  0  0  0  0  0  0  0  0  0  0  0
   66.2510   31.9200   51.4170 C   0  0  0  0  0  0  0  0  0  0  0  0
   65.5570   32.6460   52.3970 C   0  0  0  0  0  0  0  0  0  0  0  0
   64.4980   33.4910   52.0380 C   0  0  0  0  0  0  0  0  0  0  0  0
   63.7260   34.2240   53.0950 C   0  0  0  0  0  0  0  0  0  0  0  0
   64.1260   33.6010   50.6890 C   0  0  0  0  0  0  0  0  0  0  0  0
   64.8320   32.9070   49.6940 C   0  0  0  0  0  0  0  0  0  0  0  0
   64.4520   33.0730   48.3160 N   0  0  0  0  0  0  0  0  0  0  0  0
   62.8300   33.4350   47.8170 S   0  0  0  0  0  0  0  0  0  0  0  0
   62.3010   34.5870   48.6250 O   0  0  0  0  0  0  0  0  0  0  0  0
   62.8290   33.8250   46.3650 O   0  0  0  0  0  0  0  0  0  0  0  0
   61.8240   32.0040   48.0190 C   0  0  0  0  0  0  0  0  0  0  0  0
   61.6040   31.4930   49.3060 C   0  0  0  0  0  0  0  0  0  0  0  0
   60.7690   30.3900   49.4930 C   0  0  0  0  0  0  0  0  0  0  0  0
   60.1410   29.7910   48.3960 C   0  0  0  0  0  0  0  0  0  0  0  0
   59.3150   28.7330   48.5830 N   0  0  0  0  0  0  0  0  0  0  0  0
   58.6840   28.1400   47.5380 C   0  0  0  0  0  0  0  0  0  0  0  0
   58.8710   28.5910   46.2610 N   0  0  0  0  0  0  0  0  0  0  0  0
   58.1290   27.9450   45.1640 C   0  0  0  0  0  0  0  0  0  0  0  0
   56.6680   28.3060   45.2370 C   0  0  0  0  0  0  0  0  0  0  0  0
   55.8470   27.4330   45.6240 O   0  0  0  0  0  0  0  0  0  0  0  0
   56.1730   29.6130   44.9160 N   0  0  0  0  0  0  0  0  0  0  0  0
   56.6710   30.4960   43.8640 C   0  0  0  0  0  0  0  0  0  0  0  0
   57.3890   31.6870   44.4460 C   0  0  0  0  0  0  0  0  0  0  0  0
   58.0950   32.5660   43.6100 C   0  0  0  0  0  0  0  0  0  0  0  0
   58.7830   33.6560   44.1510 C   0  0  0  0  0  0  0  0  0  0  0  0
   58.7840   33.8690   45.5340 C   0  0  0  0  0  0  0  0  0  0  0  0
   59.6460   35.2390   46.2110 Cl  0  0  0  0  0  0  0  0  0  0  0  0
   58.0980   32.9880   46.3750 C   0  0  0  0  0  0  0  0  0  0  0  0
   57.4100   31.8970   45.8360 C   0  0  0  0  0  0  0  0  0  0  0  0
   59.6960   29.6640   46.0260 C   0  0  0  0  0  0  0  0  0  0  0  0
   59.8610   30.0920   44.8490 O   0  0  0  0  0  0  0  0  0  0  0  0
   60.3560   30.2910   47.0980 C   0  0  0  0  0  0  0  0  0  0  0  0
   61.2040   31.4000   46.9150 C   0  0  0  0  0  0  0  0  0  0  0  0
   65.8910   32.0600   50.0690 C   0  0  0  0  0  0  0  0  0  0  0  0
   67.4895   30.9935   52.8899 H   0  0  0  0  0  0  0  0  0  0  0  0
   67.2645   30.0402   51.3842 H   0  0  0  0  0  0  0  0  0  0  0  0
   68.3405   31.4786   51.3842 H   0  0  0  0  0  0  0  0  0  0  0  0
   65.8461   32.5513   53.4541 H   0  0  0  0  0  0  0  0  0  0  0  0
   64.0672   33.9000   54.0893 H   0  0  0  0  0  0  0  0  0  0  0  0
   63.8908   35.3060   52.9854 H   0  0  0  0  0  0  0  0  0  0  0  0
   62.6539   34.0034   52.9854 H   0  0  0  0  0  0  0  0  0  0  0  0
   63.2733   34.2370   50.4090 H   0  0  0  0  0  0  0  0  0  0  0  0
   65.1300   32.8040   47.5660 H   0  0  0  0  0  0  0  0  0  0  0  0
   62.0917   31.9635   50.1725 H   0  0  0  0  0  0  0  0  0  0  0  0
   60.6046   29.9912   50.5049 H   0  0  0  0  0  0  0  0  0  0  0  0
   58.0144   27.2866   47.7206 H   0  0  0  0  0  0  0  0  0  0  0  0
   58.5386   28.2829   44.2006 H   0  0  0  0  0  0  0  0  0  0  0  0
   58.2329   26.8538   45.2558 H   0  0  0  0  0  0  0  0  0  0  0  0
   57.3678   29.9345   43.2243 H   0  0  0  0  0  0  0  0  0  0  0  0
   55.8131   30.8585   43.2786 H   0  0  0  0  0  0  0  0  0  0  0  0
   58.1070   32.3963   42.5232 H   0  0  0  0  0  0  0  0  0  0  0  0
   59.3244   34.3473   43.4885 H   0  0  0  0  0  0  0  0  0  0  0  0
   58.0996   33.1535   47.4625 H   0  0  0  0  0  0  0  0  0  0  0  0
   56.8823   31.1992   46.5028 H   0  0  0  0  0  0  0  0  0  0  0  0
   61.3809   31.7940   45.9033 H   0  0  0  0  0  0  0  0  0  0  0  0
   66.4418   31.5023   49.2973 H   0  0  0  0  0  0  0  0  0  0  0  0
  1  2  1  0
  2  3  2  0
  3  4  1  0
  4  5  1  0
  4  6  2  0
  6  7  1  0
  7  8  1  0
  8  9  1  0
  9 10  2  0
  9 11  2  0
  9 12  1  0
 12 13  2  0
 13 14  1  0
 14 15  2  0
 15 16  1  0
 16 17  2  0
 17 18  1  0
 18 19  1  0
 19 20  1  0
 20 21  2  0
 20 22  1  0
 22 23  1  0
 23 24  1  0
 24 25  2  0
 25 26  1  0
 26 27  2  0
 27 28  1  0
 27 29  1  0
 29 30  2  0
 18 31  1  0
 31 32  2  0
 31 33  1  0
 33 34  2  0
  7 35  2  0
 35  2  1  0
 34 12  1  0
 33 15  1  0
 30 24  1  0
  1 36  1  0
  1 37  1  0
  1 38  1  0
  3 39  1  0
  5 40  1  0
  5 41  1  0
  5 42  1  0
  6 43  1  0
  8 44  1  0
 13 45  1  0
 14 46  1  0
 17 47  1  0
 19 48  1  0
 19 49  1  0
 23 50  1  0
 23 51  1  0
 25 52  1  0
 26 53  1  0
 29 54  1  0
 30 55  1  0
 34 56  1  0
 35 57  1  0
M  CHG  1  22  -1
M  END
>  <UniqueID>  (6) 
6

>  <SMILES>  (6) 
Cc1cc(C)cc(NS(=O)(=O)c2ccc3ncn(CC(=O)[N-]Cc4ccc(Cl)cc4)c(=O)c3c2)c1

>  <Energy>  (6) 
65.4420812474437

>  <Genealogy>  (6) 
Cc1cc(C)cc(NS(=O)(=O)c2ccc3ncn(CC(=O)[N-]Cc4ccc(Cl)cc4)c(=O)c3c2)c1 (protonated)
Cc1cc(C)cc(NS(=O)(=O)c2ccc3ncn(CC(=O)[N-]Cc4ccc(Cl)cc4)c(=O)c3c2)c1 (3D coordinates assigned)
Cc1cc(C)cc(NS(=O)(=O)c2ccc3ncn(CC(=O)[N-]Cc4ccc(Cl)cc4)c(=O)c3c2)c1 (optimized conformer: 65.4420812474437 kcal/mol)

>  <smiles>  (6) 
Cc1cc(C)cc(NS(=O)(=O)c2ccc3ncn(CC(=O)NCc4ccc(Cl)cc4)c(=O)c3c2)c1

>  <score_type>  (6) 
oracle

>  <origin>  (6) 
adg

>  <m_score__min__energy>  (6) 
-12.02

>  <m_primary>  (6) 
energy

$$$$
6:0
     RDKit          3D

 47 49  0  0  1  0  0  0  0  0999 V2000
   65.2090   29.2720   51.9020 C   0  0  0  0  0  0  0  0  0  0  0  0
   65.2610   30.6140   51.2660 C   0  0  0  0  0  0  0  0  0  0  0  0
   64.1570   31.3420   51.0100 N   0  0  0  0  0  0  0  0  0  0  0  0
   64.2300   32.5660   50.4270 C   0  0  0  0  0  0  0  0  0  0  0  0
   63.1980   33.2820   50.1720 N   0  0  0  0  0  0  0  0  0  0  0  0
   62.2170   32.8090   49.2490 C   0  0  0  0  0  0  0  0  0  0  0  0
   61.5970   33.5770   48.4600 O   0  0  0  0  0  0  0  0  0  0  0  0
   61.9200   31.4040   49.2120 N   0  0  0  0  0  0  0  0  0  0  0  0
   60.9400   30.9370   48.2880 C   0  0  0  0  0  0  0  0  0  0  0  0
   61.3130   30.9360   46.9470 C   0  0  0  0  0  0  0  0  0  0  0  0
   60.3920   30.4910   46.0240 C   0  0  0  0  0  0  0  0  0  0  0  0
   59.1190   30.0480   46.4010 C   0  0  0  0  0  0  0  0  0  0  0  0
   58.0660   29.5170   45.1270 S   0  0  0  0  0  0  0  0  0  0  0  0
   58.3380   28.1120   44.6970 O   0  0  0  0  0  0  0  0  0  0  0  0
   56.6430   29.6750   45.6220 O   0  0  0  0  0  0  0  0  0  0  0  0
   58.2370   30.5360   43.7440 N   0  0  0  0  0  0  0  0  0  0  0  0
   57.2620   31.6150   43.7690 C   0  0  0  0  0  0  0  0  0  0  0  0
   57.8330   32.6730   44.6740 C   0  0  0  0  0  0  0  0  0  0  0  0
   58.7750   33.5560   44.1580 C   0  0  0  0  0  0  0  0  0  0  0  0
   59.2860   34.5230   45.0130 C   0  0  0  0  0  0  0  0  0  0  0  0
   58.8670   34.5980   46.3260 C   0  0  0  0  0  0  0  0  0  0  0  0
   57.9270   33.7220   46.8480 C   0  0  0  0  0  0  0  0  0  0  0  0
   57.4210   32.7590   45.9920 C   0  0  0  0  0  0  0  0  0  0  0  0
   58.7600   30.0530   47.7380 C   0  0  0  0  0  0  0  0  0  0  0  0
   59.6870   30.5030   48.6840 C   0  0  0  0  0  0  0  0  0  0  0  0
   65.4620   33.1130   50.0700 C   0  0  0  0  0  0  0  0  0  0  0  0
   66.5820   32.3490   50.3420 C   0  0  0  0  0  0  0  0  0  0  0  0
   66.4560   31.1410   50.9210 N   0  0  0  0  0  0  0  0  0  0  0  0
   65.2134   29.3844   52.9962 H   0  0  0  0  0  0  0  0  0  0  0  0
   64.2901   28.7539   51.5903 H   0  0  0  0  0  0  0  0  0  0  0  0
   66.0850   28.6843   51.5903 H   0  0  0  0  0  0  0  0  0  0  0  0
   62.4220   30.7760   49.8520 H   0  0  0  0  0  0  0  0  0  0  0  0
   62.3103   31.2792   46.6345 H   0  0  0  0  0  0  0  0  0  0  0  0
   60.6654   30.4837   44.9585 H   0  0  0  0  0  0  0  0  0  0  0  0
   58.1980   30.0100   42.8590 H   0  0  0  0  0  0  0  0  0  0  0  0
   57.1131   32.0185   42.7566 H   0  0  0  0  0  0  0  0  0  0  0  0
   56.2835   31.2640   44.1287 H   0  0  0  0  0  0  0  0  0  0  0  0
   59.1035   33.4907   43.1102 H   0  0  0  0  0  0  0  0  0  0  0  0
   60.0338   35.2381   44.6396 H   0  0  0  0  0  0  0  0  0  0  0  0
   59.2913   35.3758   46.9779 H   0  0  0  0  0  0  0  0  0  0  0  0
   57.5982   33.7895   47.8955 H   0  0  0  0  0  0  0  0  0  0  0  0
   56.6736   32.0452   46.3686 H   0  0  0  0  0  0  0  0  0  0  0  0
   57.7631   29.7091   48.0510 H   0  0  0  0  0  0  0  0  0  0  0  0
   59.4180   30.5120   49.7506 H   0  0  0  0  0  0  0  0  0  0  0  0
   65.5390   34.1026   49.5958 H   0  0  0  0  0  0  0  0  0  0  0  0
   67.5808   32.7307   50.0838 H   0  0  0  0  0  0  0  0  0  0  0  0
   67.3220   30.5790   51.1170 H   0  0  0  0  0  0  0  0  0  0  0  0
  1  2  1  0
  2  3  2  0
  3  4  1  0
  4  5  2  0
  5  6  1  0
  6  7  2  0
  6  8  1  0
  8  9  1  0
  9 10  2  0
 10 11  1  0
 11 12  2  0
 12 13  1  0
 13 14  2  0
 13 15  2  0
 13 16  1  0
 16 17  1  0
 17 18  1  0
 18 19  2  0
 19 20  1  0
 20 21  2  0
 21 22  1  0
 22 23  2  0
 12 24  1  0
 24 25  2  0
  4 26  1  0
 26 27  2  0
 27 28  1  0
 28  2  1  0
 25  9  1  0
 23 18  1  0
  1 29  1  0
  1 30  1  0
  1 31  1  0
  8 32  1  0
 10 33  1  0
 11 34  1  0
 16 35  1  0
 17 36  1  0
 17 37  1  0
 19 38  1  0
 20 39  1  0
 21 40  1  0
 22 41  1  0
 23 42  1  0
 24 43  1  0
 25 44  1  0
 26 45  1  0
 27 46  1  0
 28 47  1  0
M  END
>  <smiles>  (7) 
Cc1nc(=NC(=O)Nc2ccc(S(=O)(=O)NCc3ccccc3)cc2)cc[nH]1

>  <score_type>  (7) 
oracle

>  <origin>  (7) 
adg

>  <m_score__min__energy>  (7) 
-9.1699999999999999

>  <m_primary>  (7) 
energy

$$$$
7:0
     RDKit          3D

 35 37  0  0  0  0  0  0  0  0999 V2000
   57.1570   32.5990   44.8780 N   0  0  0  0  0  0  0  0  0  0  0  0
   57.7330   31.3800   45.3660 C   0  0  0  0  0  0  0  0  0  0  0  0
   57.1980   30.1510   44.9210 C   0  0  0  0  0  0  0  0  0  0  0  0
   57.7320   28.9790   45.4410 C   0  0  0  0  0  0  0  0  0  0  0  0
   57.3840   27.7150   45.1690 N   0  0  0  0  0  0  0  0  0  0  0  0
   58.2200   26.9790   45.9400 C   0  0  0  0  0  0  0  0  0  0  0  0
   58.2020   25.1880   45.9690 S   0  0  0  0  0  0  0  0  0  0  0  0
   56.6770   25.0400   44.9780 C   0  0  0  0  0  0  0  0  0  0  0  0
   55.4790   25.3880   45.8020 C   0  0  0  0  0  0  0  0  0  0  0  0
   54.8120   24.4780   46.3600 O   0  0  0  0  0  0  0  0  0  0  0  0
   55.1170   26.7170   45.9790 O   0  0  0  0  0  0  0  0  0  0  0  0
   59.0760   27.7220   46.6890 N   0  0  0  0  0  0  0  0  0  0  0  0
   58.7420   28.9810   46.3520 C   0  0  0  0  0  0  0  0  0  0  0  0
   59.3070   30.1620   46.8160 C   0  0  0  0  0  0  0  0  0  0  0  0
   58.8020   31.3880   46.3200 C   0  0  0  0  0  0  0  0  0  0  0  0
   59.4360   32.6480   46.7660 C   0  0  0  0  0  0  0  0  0  0  0  0
   58.7060   33.6590   46.9540 O   0  0  0  0  0  0  0  0  0  0  0  0
   60.9050   32.7590   46.9630 C   0  0  0  0  0  0  0  0  0  0  0  0
   61.6200   33.8100   46.3590 C   0  0  0  0  0  0  0  0  0  0  0  0
   63.0000   33.9280   46.5450 C   0  0  0  0  0  0  0  0  0  0  0  0
   63.6810   33.0040   47.3400 C   0  0  0  0  0  0  0  0  0  0  0  0
   62.9830   31.9630   47.9550 C   0  0  0  0  0  0  0  0  0  0  0  0
   61.6020   31.8410   47.7720 C   0  0  0  0  0  0  0  0  0  0  0  0
   56.6460   32.6150   43.9680 H   0  0  0  0  0  0  0  0  0  0  0  0
   57.1670   33.4800   45.4390 H   0  0  0  0  0  0  0  0  0  0  0  0
   56.3820   30.1228   44.1839 H   0  0  0  0  0  0  0  0  0  0  0  0
   56.6470   27.3750   44.5120 H   0  0  0  0  0  0  0  0  0  0  0  0
   56.7362   25.7244   44.1188 H   0  0  0  0  0  0  0  0  0  0  0  0
   56.5790   24.0010   44.6304 H   0  0  0  0  0  0  0  0  0  0  0  0
   60.1260   30.1451   47.5502 H   0  0  0  0  0  0  0  0  0  0  0  0
   61.0885   34.5442   45.7357 H   0  0  0  0  0  0  0  0  0  0  0  0
   63.5506   34.7501   46.0644 H   0  0  0  0  0  0  0  0  0  0  0  0
   64.7679   33.0963   47.4818 H   0  0  0  0  0  0  0  0  0  0  0  0
   63.5200   31.2379   48.5842 H   0  0  0  0  0  0  0  0  0  0  0  0
   61.0563   31.0221   48.2635 H   0  0  0  0  0  0  0  0  0  0  0  0
  1  2  1  0
  2  3  2  0
  3  4  1  0
  4  5  1  0
  5  6  1  0
  6  7  1  0
  7  8  1  0
  8  9  1  0
  9 10  2  0
  9 11  1  0
  6 12  2  0
 12 13  1  0
 13 14  1  0
 14 15  2  0
 15 16  1  0
 16 17  2  0
 16 18  1  0
 18 19  2  0
 19 20  1  0
 20 21  2  0
 21 22  1  0
 22 23  2  0
 15  2  1  0
 23 18  1  0
 13  4  2  0
  1 24  1  0
  1 25  1  0
  3 26  1  0
  5 27  1  0
  8 28  1  0
  8 29  1  0
 14 30  1  0
 19 31  1  0
 20 32  1  0
 21 33  1  0
 22 34  1  0
 23 35  1  0
M  CHG  1  11  -1
M  END
>  <UniqueID>  (8) 
7

>  <SMILES>  (8) 
Nc1cc2[nH]c(SCC(=O)[O-])nc2cc1C(=O)c1ccccc1

>  <Energy>  (8) 
76.97473649997421

>  <Genealogy>  (8) 
Nc1cc2[nH]c(SCC(=O)[O-])nc2cc1C(=O)c1ccccc1 (protonated)
Nc1cc2[nH]c(SCC(=O)[O-])nc2cc1C(=O)c1ccccc1 (3D coordinates assigned)
Nc1cc2[nH]c(SCC(=O)[O-])nc2cc1C(=O)c1ccccc1 (optimized conformer: 76.97473649997421 kcal/mol)

>  <smiles>  (8) 
Nc1cc2[nH]c(SCC(=O)O)nc2cc1C(=O)c1ccccc1

>  <score_type>  (8) 
oracle

>  <origin>  (8) 
adg

>  <m_score__min__energy>  (8) 
-10.460000000000001

>  <m_primary>  (8) 
energy

$$$$
8:0
     RDKit          3D

 38 40  0  0  0  0  0  0  0  0999 V2000
   57.8040   24.0780   46.7420 C   0  0  0  0  0  0  0  0  0  0  0  0
   57.2070   23.6050   45.4420 C   0  0  0  0  0  0  0  0  0  0  0  0
   57.8460   22.5720   44.7330 C   0  0  0  0  0  0  0  0  0  0  0  0
   57.3260   22.1180   43.5190 C   0  0  0  0  0  0  0  0  0  0  0  0
   56.1600   22.6800   43.0030 C   0  0  0  0  0  0  0  0  0  0  0  0
   55.5040   23.6960   43.7010 C   0  0  0  0  0  0  0  0  0  0  0  0
   56.0150   24.1700   44.9220 C   0  0  0  0  0  0  0  0  0  0  0  0
   55.2710   25.2290   45.6440 C   0  0  0  0  0  0  0  0  0  0  0  0
   54.0120   25.2270   45.6200 O   0  0  0  0  0  0  0  0  0  0  0  0
   55.9450   26.2940   46.3270 N   0  0  0  0  0  0  0  0  0  0  0  0
   56.3430   27.5280   45.7250 C   0  0  0  0  0  0  0  0  0  0  0  0
   55.5270   28.4330   45.2300 O   0  0  0  0  0  0  0  0  0  0  0  0
   56.2890   29.4030   44.7690 C   0  0  0  0  0  0  0  0  0  0  0  0
   55.8330   30.4460   44.2290 O   0  0  0  0  0  0  0  0  0  0  0  0
   57.6090   29.1570   44.9370 N   0  0  0  0  0  0  0  0  0  0  0  0
   58.7380   30.0270   44.6120 C   0  0  0  0  0  0  0  0  0  0  0  0
   58.4440   31.4480   45.0330 C   0  0  0  0  0  0  0  0  0  0  0  0
   58.6130   31.7980   46.3830 C   0  0  0  0  0  0  0  0  0  0  0  0
   58.3850   33.1080   46.8130 C   0  0  0  0  0  0  0  0  0  0  0  0
   57.9860   34.0840   45.8990 C   0  0  0  0  0  0  0  0  0  0  0  0
   57.8150   33.7520   44.5540 C   0  0  0  0  0  0  0  0  0  0  0  0
   58.0410   32.4420   44.1100 C   0  0  0  0  0  0  0  0  0  0  0  0
   57.7940   32.1000   42.4010 Cl  0  0  0  0  0  0  0  0  0  0  0  0
   57.6360   27.9600   45.5520 C   0  0  0  0  0  0  0  0  0  0  0  0
   58.7870   27.2870   45.9400 O   0  0  0  0  0  0  0  0  0  0  0  0
   57.2479   23.6374   47.5826 H   0  0  0  0  0  0  0  0  0  0  0  0
   58.8577   23.7670   46.7962 H   0  0  0  0  0  0  0  0  0  0  0  0
   57.7422   25.1749   46.7962 H   0  0  0  0  0  0  0  0  0  0  0  0
   58.7625   22.1181   45.1379 H   0  0  0  0  0  0  0  0  0  0  0  0
   57.8381   21.3148   42.9688 H   0  0  0  0  0  0  0  0  0  0  0  0
   55.7557   22.3228   42.0444 H   0  0  0  0  0  0  0  0  0  0  0  0
   54.5794   24.1293   43.2920 H   0  0  0  0  0  0  0  0  0  0  0  0
   59.6346   29.6703   45.1401 H   0  0  0  0  0  0  0  0  0  0  0  0
   58.9061   30.0036   43.5252 H   0  0  0  0  0  0  0  0  0  0  0  0
   58.9278   31.0335   47.1086 H   0  0  0  0  0  0  0  0  0  0  0  0
   58.5202   33.3700   47.8728 H   0  0  0  0  0  0  0  0  0  0  0  0
   57.8063   35.1148   46.2383 H   0  0  0  0  0  0  0  0  0  0  0  0
   57.5004   34.5246   43.8370 H   0  0  0  0  0  0  0  0  0  0  0  0
  1  2  1  0
  2  3  2  0
  3  4  1  0
  4  5  2  0
  5  6  1  0
  6  7  2  0
  7  8  1  0
  8  9  2  0
  8 10  1  0
 10 11  1  0
 11 12  1  0
 12 13  1  0
 13 14  2  0
 13 15  1  0
 15 16  1  0
 16 17  1  0
 17 18  2  0
 18 19  1  0
 19 20  2  0
 20 21  1  0
 21 22  2  0
 22 23  1  0
 15 24  1  0
 24 25  1  0
  7  2  1  0
 24 11  2  0
 22 17  1  0
  1 26  1  0
  1 27  1  0
  1 28  1  0
  3 29  1  0
  4 30  1  0
  5 31  1  0
  6 32  1  0
 16 33  1  0
 16 34  1  0
 18 35  1  0
 19 36  1  0
 20 37  1  0
 21 38  1  0
M  CHG  2  10  -1  25  -1
M  END
>  <UniqueID>  (9) 
8

>  <SMILES>  (9) 
Cc1ccccc1C(=O)[N-]c1oc(=O)n(Cc2ccccc2Cl)c1[O-]

>  <Energy>  (9) 
83.34908451311397

>  <Genealogy>  (9) 
Cc1ccccc1C(=O)[N-]c1oc(=O)n(Cc2ccccc2Cl)c1[O-] (protonated)
Cc1ccccc1C(=O)[N-]c1oc(=O)n(Cc2ccccc2Cl)c1[O-] (3D coordinates assigned)
Cc1ccccc1C(=O)[N-]c1oc(=O)n(Cc2ccccc2Cl)c1[O-] (optimized conformer: 83.34908451311397 kcal/mol)

>  <smiles>  (9) 
Cc1ccccc1C(=O)Nc1oc(=O)n(Cc2ccccc2Cl)c1O

>  <score_type>  (9) 
oracle

>  <origin>  (9) 
adg

>  <m_score__min__energy>  (9) 
-13.66

>  <m_primary>  (9) 
energy

$$$$
9:0
     RDKit          3D

 29 30  0  0  0  0  0  0  0  0999 V2000
   57.2230   29.0770   43.3280 O   0  0  0  0  0  0  0  0  0  0  0  0
   56.7960   29.5360   44.6920 S   0  0  0  0  0  0  0  0  0  0  0  0
   56.3050   30.9530   44.6010 O   0  0  0  0  0  0  0  0  0  0  0  0
   55.5240   28.5810   45.2350 O   0  0  0  0  0  0  0  0  0  0  0  0
   58.1730   29.4700   45.7990 C   0  0  0  0  0  0  0  0  0  0  0  0
   58.9420   30.6340   45.9610 C   0  0  0  0  0  0  0  0  0  0  0  0
   59.9770   30.6790   46.8980 C   0  0  0  0  0  0  0  0  0  0  0  0
   60.2460   29.5670   47.6950 C   0  0  0  0  0  0  0  0  0  0  0  0
   59.4980   28.3990   47.5380 C   0  0  0  0  0  0  0  0  0  0  0  0
   58.4920   28.3200   46.5650 C   0  0  0  0  0  0  0  0  0  0  0  0
   57.7690   27.0870   46.4350 N   0  0  0  0  0  0  0  0  0  0  0  0
   57.9710   26.1640   45.5380 C   0  0  0  0  0  0  0  0  0  0  0  0
   56.9980   25.1000   45.2100 C   0  0  0  0  0  0  0  0  0  0  0  0
   57.4190   24.0340   44.3980 C   0  0  0  0  0  0  0  0  0  0  0  0
   56.5340   23.0060   44.0630 C   0  0  0  0  0  0  0  0  0  0  0  0
   55.2130   23.0450   44.5140 C   0  0  0  0  0  0  0  0  0  0  0  0
   54.7690   24.1250   45.2810 C   0  0  0  0  0  0  0  0  0  0  0  0
   55.6470   25.1670   45.6130 C   0  0  0  0  0  0  0  0  0  0  0  0
   55.1720   26.2780   46.3070 O   0  0  0  0  0  0  0  0  0  0  0  0
   58.7271   31.5189   45.3440 H   0  0  0  0  0  0  0  0  0  0  0  0
   60.5802   31.5923   47.0072 H   0  0  0  0  0  0  0  0  0  0  0  0
   61.0474   29.6102   48.4472 H   0  0  0  0  0  0  0  0  0  0  0  0
   59.6999   27.5320   48.1842 H   0  0  0  0  0  0  0  0  0  0  0  0
   58.9250   26.1770   44.9905 H   0  0  0  0  0  0  0  0  0  0  0  0
   58.4528   24.0083   44.0231 H   0  0  0  0  0  0  0  0  0  0  0  0
   56.8783   22.1649   43.4432 H   0  0  0  0  0  0  0  0  0  0  0  0
   54.5223   22.2257   44.2655 H   0  0  0  0  0  0  0  0  0  0  0  0
   53.7252   24.1582   45.6264 H   0  0  0  0  0  0  0  0  0  0  0  0
   55.7320   27.1140   46.4210 H   0  0  0  0  0  0  0  0  0  0  0  0
  1  2  2  0
  2  3  2  0
  2  4  1  0
  2  5  1  0
  5  6  2  0
  6  7  1  0
  7  8  2  0
  8  9  1  0
  9 10  2  0
 10 11  1  0
 11 12  2  3
 12 13  1  0
 13 14  2  0
 14 15  1  0
 15 16  2  0
 16 17  1  0
 17 18  2  0
 18 19  1  0
 10  5  1  0
 18 13  1  0
  6 20  1  0
  7 21  1  0
  8 22  1  0
  9 23  1  0
 12 24  1  0
 14 25  1  0
 15 26  1  0
 16 27  1  0
 17 28  1  0
 19 29  1  0
M  CHG  1   4  -1
M  END
>  <UniqueID>  (10) 
9

>  <SMILES>  (10) 
O=S(=O)([O-])c1ccccc1N=Cc1ccccc1O

>  <Energy>  (10) 
46.64608621192952

>  <Genealogy>  (10) 
O=S(=O)([O-])c1ccccc1N=Cc1ccccc1O (protonated)
O=S(=O)([O-])c1ccccc1N=Cc1ccccc1O (3D coordinates assigned)
O=S(=O)([O-])c1ccccc1N=Cc1ccccc1O (optimized conformer: 46.64608621192952 kcal/mol)

>  <smiles>  (10) 
O=S(=O)(O)c1ccccc1N=Cc1ccccc1O

>  <score_type>  (10) 
oracle

>  <origin>  (10) 
adg

>  <m_score__min__energy>  (10) 
-11.039999999999999

>  <m_primary>  (10) 
energy

$$$$
10:0
     RDKit          3D

 69 71  0  0  0  0  0  0  0  0999 V2000
   57.7219   32.2288   51.1972 H   0  0  0  0  0  0  0  0  0  0  0  0
   58.6810   32.0340   50.6950 C   0  0  0  0  0  0  0  0  0  0  0  0
   59.5660   32.9910   50.6850 N   0  0  0  0  0  0  0  0  0  0  0  0
   60.2770   33.5120   49.5520 C   0  0  0  0  0  0  0  0  0  0  0  0
   61.4930   33.2130   49.4110 O   0  0  0  0  0  0  0  0  0  0  0  0
   59.6680   34.5720   48.6680 C   0  0  0  0  0  0  0  0  0  0  0  0
   59.9909   35.5609   49.0254 H   0  0  0  0  0  0  0  0  0  0  0  0
   58.5740   34.4684   48.7179 H   0  0  0  0  0  0  0  0  0  0  0  0
   60.0930   34.4120   47.2010 C   0  0  0  0  0  0  0  0  0  0  0  0
   61.0646   33.8979   47.1607 H   0  0  0  0  0  0  0  0  0  0  0  0
   60.1695   35.4099   46.7445 H   0  0  0  0  0  0  0  0  0  0  0  0
   59.0760   33.6070   46.4360 C   0  0  0  0  0  0  0  0  0  0  0  0
   58.7180   32.3220   46.8620 C   0  0  0  0  0  0  0  0  0  0  0  0
   59.1897   31.8907   47.7573 H   0  0  0  0  0  0  0  0  0  0  0  0
   57.7900   31.6050   46.1740 N   0  0  0  0  0  0  0  0  0  0  0  0
   57.1920   32.0780   45.0470 C   0  0  0  0  0  0  0  0  0  0  0  0
   56.2700   31.3530   44.4810 N   0  0  0  0  0  0  0  0  0  0  0  0
   56.2710   29.9230   44.3800 C   0  0  0  0  0  0  0  0  0  0  0  0
   55.2140   29.2740   44.6070 O   0  0  0  0  0  0  0  0  0  0  0  0
   57.5490   29.2020   44.0830 C   0  0  0  0  0  0  0  0  0  0  0  0
   58.3989   29.7816   44.4726 H   0  0  0  0  0  0  0  0  0  0  0  0
   57.6640   29.0806   42.9958 H   0  0  0  0  0  0  0  0  0  0  0  0
   57.5130   27.8520   44.7450 C   0  0  0  0  0  0  0  0  0  0  0  0
   57.8160   26.6920   44.0140 C   0  0  0  0  0  0  0  0  0  0  0  0
   58.1827   26.7768   42.9804 H   0  0  0  0  0  0  0  0  0  0  0  0
   57.6540   25.4300   44.5930 C   0  0  0  0  0  0  0  0  0  0  0  0
   57.9172   24.5281   44.0210 H   0  0  0  0  0  0  0  0  0  0  0  0
   57.1570   25.3070   45.9010 C   0  0  0  0  0  0  0  0  0  0  0  0
   56.8770   23.9740   46.4750 C   0  0  0  0  0  0  0  0  0  0  0  0
   57.8180   23.2550   46.9070 O   0  0  0  0  0  0  0  0  0  0  0  0
   55.5320   23.4850   46.5030 N   0  0  0  0  0  0  0  0  0  0  0  0
   54.9050   22.7840   45.3920 C   0  0  0  0  0  0  0  0  0  0  0  0
   54.6830   23.5011   44.5880 H   0  0  0  0  0  0  0  0  0  0  0  0
   53.9739   22.3143   45.7418 H   0  0  0  0  0  0  0  0  0  0  0  0
   55.8460   21.6970   44.8570 C   0  0  0  0  0  0  0  0  0  0  0  0
   55.4070   20.7102   45.0655 H   0  0  0  0  0  0  0  0  0  0  0  0
   56.8194   21.8067   45.3575 H   0  0  0  0  0  0  0  0  0  0  0  0
   56.0570   21.8310   43.3970 N   0  0  0  0  0  0  0  0  0  0  0  0
   57.4050   21.3760   43.0020 C   0  0  0  0  0  0  0  0  0  0  0  0
   58.0026   21.1743   43.9032 H   0  0  0  0  0  0  0  0  0  0  0  0
   57.3211   20.4564   42.4043 H   0  0  0  0  0  0  0  0  0  0  0  0
   57.8955   22.1583   42.4043 H   0  0  0  0  0  0  0  0  0  0  0  0
   55.8780   23.2350   42.9900 C   0  0  0  0  0  0  0  0  0  0  0  0
   55.7972   23.8689   43.8854 H   0  0  0  0  0  0  0  0  0  0  0  0
   56.7425   23.5560   42.3903 H   0  0  0  0  0  0  0  0  0  0  0  0
   54.9606   23.3288   42.3903 H   0  0  0  0  0  0  0  0  0  0  0  0
   56.8700   26.4710   46.6360 C   0  0  0  0  0  0  0  0  0  0  0  0
   56.4954   26.3875   47.6669 H   0  0  0  0  0  0  0  0  0  0  0  0
   57.0570   27.7310   46.0670 C   0  0  0  0  0  0  0  0  0  0  0  0
   56.8459   28.6347   46.6576 H   0  0  0  0  0  0  0  0  0  0  0  0
   57.5510   33.3550   44.5690 C   0  0  0  0  0  0  0  0  0  0  0  0
   57.0907   33.7522   43.6523 H   0  0  0  0  0  0  0  0  0  0  0  0
   58.4940   34.1120   45.2660 C   0  0  0  0  0  0  0  0  0  0  0  0
   58.7808   35.1073   44.8958 H   0  0  0  0  0  0  0  0  0  0  0  0
   58.8770   30.7070   50.0790 C   0  0  0  0  0  0  0  0  0  0  0  0
   58.1220   29.7460   50.3880 O   0  0  0  0  0  0  0  0  0  0  0  0
   59.9340   30.5170   49.1260 N   0  0  0  0  0  0  0  0  0  0  0  0
   60.6790   31.2490   49.0710 H   0  0  0  0  0  0  0  0  0  0  0  0
   60.1100   29.3140   48.3580 C   0  0  0  0  0  0  0  0  0  0  0  0
   60.0820   28.0450   48.9680 C   0  0  0  0  0  0  0  0  0  0  0  0
   59.9186   27.9625   50.0527 H   0  0  0  0  0  0  0  0  0  0  0  0
   60.2610   26.8890   48.2010 C   0  0  0  0  0  0  0  0  0  0  0  0
   60.2577   25.9021   48.6869 H   0  0  0  0  0  0  0  0  0  0  0  0
   60.4440   26.9850   46.8190 C   0  0  0  0  0  0  0  0  0  0  0  0
   60.6170   25.8620   46.0760 F   0  0  0  0  0  0  0  0  0  0  0  0
   60.4400   28.2400   46.2000 C   0  0  0  0  0  0  0  0  0  0  0  0
   60.5738   28.3159   45.1108 H   0  0  0  0  0  0  0  0  0  0  0  0
   60.2660   29.3980   46.9650 C   0  0  0  0  0  0  0  0  0  0  0  0
   60.2513   30.3812   46.4720 H   0  0  0  0  0  0  0  0  0  0  0  0
  1  2  1  0
  2  3  2  0
  3  4  1  0
  4  5  2  0
  4  6  1  0
  6  7  1  0
  6  8  1  0
  6  9  1  0
  9 10  1  0
  9 11  1  0
  9 12  1  0
 12 13  2  0
 13 14  1  0
 13 15  1  0
 15 16  1  0
 16 17  2  0
 17 18  1  0
 18 19  2  0
 18 20  1  0
 20 21  1  0
 20 22  1  0
 20 23  1  0
 23 24  2  0
 24 25  1  0
 24 26  1  0
 26 27  1  0
 26 28  2  0
 28 29  1  0
 29 30  2  0
 29 31  1  0
 31 32  1  0
 32 33  1  0
 32 34  1  0
 32 35  1  0
 35 36  1  0
 35 37  1  0
 35 38  1  0
 38 39  1  0
 39 40  1  0
 39 41  1  0
 39 42  1  0
 38 43  1  0
 43 44  1  0
 43 45  1  0
 43 46  1  0
 28 47  1  0
 47 48  1  0
 47 49  2  0
 49 50  1  0
 16 51  1  0
 51 52  1  0
 51 53  2  0
 53 54  1  0
  2 55  1  0
 55 56  2  0
 55 57  1  0
 57 58  1  0
 57 59  1  0
 59 60  2  0
 60 61  1  0
 60 62  1  0
 62 63  1  0
 62 64  2  0
 64 65  1  0
 64 66  1  0
 66 67  1  0
 66 68  2  0
 68 69  1  0
 53 12  1  0
 68 59  1  0
 49 23  1  0
M  CHG  2  15  -1  31  -1
M  END
>  <UniqueID>  (11) 
10

>  <SMILES>  (11) 
CN(C)CC[N-]C(=O)c1ccc(CC(=O)/N=c2\ccc(CCC(=O)/N=C\C(=O)Nc3ccc(F)cc3)c[n-]2)cc1

>  <Energy>  (11) 
82.65422547312643

>  <Genealogy>  (11) 
CN(C)CC[N-]C(=O)c1ccc(CC(=O)N=c2ccc(CCC(=O)N=CC(=O)Nc3ccc(F)cc3)c[n-]2)cc1 (protonated)
CN(C)CC[N-]C(=O)c1ccc(CC(=O)/N=c2\ccc(CCC(=O)/N=C\C(=O)Nc3ccc(F)cc3)c[n-]2)cc1 (cis-trans isomerization)
CN(C)CC[N-]C(=O)c1ccc(CC(=O)/N=c2\ccc(CCC(=O)/N=C\C(=O)Nc3ccc(F)cc3)c[n-]2)cc1 (3D coordinates assigned)
CN(C)CC[N-]C(=O)c1ccc(CC(=O)/N=c2\ccc(CCC(=O)/N=C\C(=O)Nc3ccc(F)cc3)c[n-]2)cc1 (optimized conformer: 82.65422547312643 kcal/mol)

>  <smiles>  (11) 
CN(C)CCNC(=O)c1ccc(CC(=O)N=c2ccc(CCC(=O)N=CC(=O)Nc3ccc(F)cc3)c[nH]2)cc1

>  <score_type>  (11) 
oracle

>  <origin>  (11) 
adg

>  <m_score__min__energy>  (11) 
-12.529999999999999

>  <m_primary>  (11) 
energy

$$$$
11:0
     RDKit          3D

 47 48  0  0  0  0  0  0  0  0999 V2000
   58.3415   33.0497   41.9682 H   0  0  0  0  0  0  0  0  0  0  0  0
   58.1380   32.6560   42.9750 C   0  0  0  0  0  0  0  0  0  0  0  0
   58.4200   33.4360   44.0960 C   0  0  0  0  0  0  0  0  0  0  0  0
   58.8444   34.4433   43.9730 H   0  0  0  0  0  0  0  0  0  0  0  0
   58.1630   32.9370   45.3760 C   0  0  0  0  0  0  0  0  0  0  0  0
   58.5630   34.0000   46.9110 Br  0  0  0  0  0  0  0  0  0  0  0  0
   57.6310   31.6540   45.5350 C   0  0  0  0  0  0  0  0  0  0  0  0
   57.4289   31.2695   46.5456 H   0  0  0  0  0  0  0  0  0  0  0  0
   57.3510   30.8480   44.4120 C   0  0  0  0  0  0  0  0  0  0  0  0
   56.7690   29.4920   44.6110 C   0  0  0  0  0  0  0  0  0  0  0  0
   55.5390   29.3860   44.8800 O   0  0  0  0  0  0  0  0  0  0  0  0
   57.5790   28.2250   44.4890 C   0  0  0  0  0  0  0  0  0  0  0  0
   58.6239   28.4853   44.2646 H   0  0  0  0  0  0  0  0  0  0  0  0
   57.1548   27.6120   43.6801 H   0  0  0  0  0  0  0  0  0  0  0  0
   57.5310   27.4290   45.7780 C   0  0  0  0  0  0  0  0  0  0  0  0
   58.3730   27.6300   46.7540 N   0  0  0  0  0  0  0  0  0  0  0  0
   59.1340   28.8240   46.9840 C   0  0  0  0  0  0  0  0  0  0  0  0
   58.8850   29.5850   48.1300 C   0  0  0  0  0  0  0  0  0  0  0  0
   58.0797   29.2897   48.8187 H   0  0  0  0  0  0  0  0  0  0  0  0
   59.6540   30.7190   48.4050 C   0  0  0  0  0  0  0  0  0  0  0  0
   59.4397   31.3182   49.3023 H   0  0  0  0  0  0  0  0  0  0  0  0
   60.7010   31.1020   47.5440 C   0  0  0  0  0  0  0  0  0  0  0  0
   61.5180   32.2610   47.8400 N   0  0  0  0  0  0  0  0  0  0  0  0
   61.8170   32.6250   49.2350 C   0  0  0  0  0  0  0  0  0  0  0  0
   62.8896   32.8513   49.3260 H   0  0  0  0  0  0  0  0  0  0  0  0
   61.5458   31.7795   49.8843 H   0  0  0  0  0  0  0  0  0  0  0  0
   61.0100   33.8480   49.6650 C   0  0  0  0  0  0  0  0  0  0  0  0
   60.9771   33.8979   50.7634 H   0  0  0  0  0  0  0  0  0  0  0  0
   61.4855   34.7582   49.2707 H   0  0  0  0  0  0  0  0  0  0  0  0
   59.9862   33.7689   49.2707 H   0  0  0  0  0  0  0  0  0  0  0  0
   62.0630   33.1020   46.7580 C   0  0  0  0  0  0  0  0  0  0  0  0
   61.9906   32.5564   45.8056 H   0  0  0  0  0  0  0  0  0  0  0  0
   61.4822   34.0349   46.7093 H   0  0  0  0  0  0  0  0  0  0  0  0
   63.5270   33.4490   47.0270 C   0  0  0  0  0  0  0  0  0  0  0  0
   63.7006   33.4901   48.1124 H   0  0  0  0  0  0  0  0  0  0  0  0
   64.1742   32.6794   46.5811 H   0  0  0  0  0  0  0  0  0  0  0  0
   63.7599   34.4272   46.5811 H   0  0  0  0  0  0  0  0  0  0  0  0
   60.9510   30.3200   46.3990 C   0  0  0  0  0  0  0  0  0  0  0  0
   61.7599   30.6060   45.7106 H   0  0  0  0  0  0  0  0  0  0  0  0
   60.1830   29.1860   46.1290 C   0  0  0  0  0  0  0  0  0  0  0  0
   60.4024   28.5743   45.2415 H   0  0  0  0  0  0  0  0  0  0  0  0
   56.4340   26.4320   45.9960 C   0  0  0  0  0  0  0  0  0  0  0  0
   56.2772   26.2895   47.0754 H   0  0  0  0  0  0  0  0  0  0  0  0
   55.5056   26.8019   45.5363 H   0  0  0  0  0  0  0  0  0  0  0  0
   56.7138   25.4726   45.5363 H   0  0  0  0  0  0  0  0  0  0  0  0
   57.5970   31.3740   43.1260 C   0  0  0  0  0  0  0  0  0  0  0  0
   57.3619   30.7722   42.2357 H   0  0  0  0  0  0  0  0  0  0  0  0
  1  2  1  0
  2  3  2  0
  3  4  1  0
  3  5  1  0
  5  6  1  0
  5  7  2  0
  7  8  1  0
  7  9  1  0
  9 10  1  0
 10 11  2  0
 10 12  1  0
 12 13  1  0
 12 14  1  0
 12 15  1  0
 15 16  2  0
 16 17  1  0
 17 18  2  0
 18 19  1  0
 18 20  1  0
 20 21  1  0
 20 22  2  0
 22 23  1  0
 23 24  1  0
 24 25  1  0
 24 26  1  0
 24 27  1  0
 27 28  1  0
 27 29  1  0
 27 30  1  0
 23 31  1  0
 31 32  1  0
 31 33  1  0
 31 34  1  0
 34 35  1  0
 34 36  1  0
 34 37  1  0
 22 38  1  0
 38 39  1  0
 38 40  2  0
 40 41  1  0
 15 42  1  0
 42 43  1  0
 42 44  1  0
 42 45  1  0
  9 46  2  0
 46 47  1  0
 46  2  1  0
 40 17  1  0
M  END
>  <UniqueID>  (12) 
11

>  <SMILES>  (12) 
CCN(CC)c1ccc(/N=C(/C)CC(=O)c2cccc(Br)c2)cc1

>  <Energy>  (12) 
47.553112871205435

>  <Genealogy>  (12) 
CCN(CC)c1ccc(/N=C(/C)CC(=O)c2cccc(Br)c2)cc1 (cis-trans isomerization)
CCN(CC)c1ccc(/N=C(/C)CC(=O)c2cccc(Br)c2)cc1 (3D coordinates assigned)
CCN(CC)c1ccc(/N=C(/C)CC(=O)c2cccc(Br)c2)cc1 (optimized conformer: 47.553112871205435 kcal/mol)

>  <smiles>  (12) 
CCN(CC)c1ccc(N=C(C)CC(=O)c2cccc(Br)c2)cc1

>  <score_type>  (12) 
oracle

>  <origin>  (12) 
adg

>  <m_score__min__energy>  (12) 
-8.9499999999999993

>  <m_primary>  (12) 
energy

$$$$
12:0
     RDKit          3D

 52 54  0  0  0  0  0  0  0  0999 V2000
   56.4805   24.4777   42.5810 H   0  0  0  0  0  0  0  0  0  0  0  0
   56.5780   24.0460   43.5880 C   0  0  0  0  0  0  0  0  0  0  0  0
   56.4410   22.6730   43.7710 C   0  0  0  0  0  0  0  0  0  0  0  0
   56.2376   22.0264   42.9046 H   0  0  0  0  0  0  0  0  0  0  0  0
   56.5600   22.1020   45.0540 C   0  0  0  0  0  0  0  0  0  0  0  0
   56.4230   20.7160   45.2370 O   0  0  0  0  0  0  0  0  0  0  0  0
   57.3450   19.8900   45.9420 C   0  0  0  0  0  0  0  0  0  0  0  0
   57.2000   20.0199   47.0246 H   0  0  0  0  0  0  0  0  0  0  0  0
   57.1741   18.8372   45.6729 H   0  0  0  0  0  0  0  0  0  0  0  0
   58.3728   20.1751   45.6729 H   0  0  0  0  0  0  0  0  0  0  0  0
   56.8230   22.9450   46.1670 C   0  0  0  0  0  0  0  0  0  0  0  0
   56.9450   22.4660   47.4870 O   0  0  0  0  0  0  0  0  0  0  0  0
   55.8990   22.3160   48.4390 C   0  0  0  0  0  0  0  0  0  0  0  0
   56.3165   22.3759   49.4549 H   0  0  0  0  0  0  0  0  0  0  0  0
   55.1583   23.1171   48.2992 H   0  0  0  0  0  0  0  0  0  0  0  0
   55.4133   21.3390   48.2992 H   0  0  0  0  0  0  0  0  0  0  0  0
   56.9770   24.3350   45.9620 C   0  0  0  0  0  0  0  0  0  0  0  0
   57.2180   25.2730   47.1190 C   0  0  0  0  0  0  0  0  0  0  0  0
   56.5042   25.0484   47.9253 H   0  0  0  0  0  0  0  0  0  0  0  0
   58.2467   25.1395   47.4849 H   0  0  0  0  0  0  0  0  0  0  0  0
   57.0380   26.6570   46.6840 N   0  0  0  0  0  0  0  0  0  0  0  0
   56.1140   27.1050   46.8760 H   0  0  0  0  0  0  0  0  0  0  0  0
   58.1180   27.4680   46.1920 C   0  0  0  0  0  0  0  0  0  0  0  0
   59.2960   27.0170   46.1930 O   0  0  0  0  0  0  0  0  0  0  0  0
   57.8760   28.8470   45.7110 C   0  0  0  0  0  0  0  0  0  0  0  0
   56.6060   29.2730   45.2720 C   0  0  0  0  0  0  0  0  0  0  0  0
   55.5250   28.3990   45.2470 O   0  0  0  0  0  0  0  0  0  0  0  0
   56.4310   30.5480   44.8370 N   0  0  0  0  0  0  0  0  0  0  0  0
   57.4510   31.4490   44.7910 C   0  0  0  0  0  0  0  0  0  0  0  0
   57.2540   32.6610   44.3620 N   0  0  0  0  0  0  0  0  0  0  0  0
   57.0230   33.8230   45.2210 C   0  0  0  0  0  0  0  0  0  0  0  0
   57.1037   34.7399   44.6187 H   0  0  0  0  0  0  0  0  0  0  0  0
   56.0180   33.7451   45.6614 H   0  0  0  0  0  0  0  0  0  0  0  0
   58.0350   33.8690   46.3280 C   0  0  0  0  0  0  0  0  0  0  0  0
   57.9320   32.9770   47.7520 S   0  0  0  0  0  0  0  0  0  0  0  0
   59.3730   33.5880   48.3630 C   0  0  0  0  0  0  0  0  0  0  0  0
   59.9290   33.2700   49.7080 C   0  0  0  0  0  0  0  0  0  0  0  0
   59.2531   33.6566   50.4849 H   0  0  0  0  0  0  0  0  0  0  0  0
   60.0263   32.1797   49.8161 H   0  0  0  0  0  0  0  0  0  0  0  0
   60.9182   33.7389   49.8161 H   0  0  0  0  0  0  0  0  0  0  0  0
   59.9300   34.4860   47.5210 N   0  0  0  0  0  0  0  0  0  0  0  0
   59.2000   34.6420   46.3840 C   0  0  0  0  0  0  0  0  0  0  0  0
   59.6270   35.5920   45.3100 C   0  0  0  0  0  0  0  0  0  0  0  0
   60.0369   36.5039   45.7688 H   0  0  0  0  0  0  0  0  0  0  0  0
   60.3982   35.1171   44.6858 H   0  0  0  0  0  0  0  0  0  0  0  0
   58.7598   35.8535   44.6858 H   0  0  0  0  0  0  0  0  0  0  0  0
   58.7300   31.0630   45.2010 C   0  0  0  0  0  0  0  0  0  0  0  0
   59.5635   31.7800   45.1665 H   0  0  0  0  0  0  0  0  0  0  0  0
   58.9410   29.7590   45.6550 C   0  0  0  0  0  0  0  0  0  0  0  0
   59.9471   29.4454   45.9702 H   0  0  0  0  0  0  0  0  0  0  0  0
   56.8380   24.8740   44.6760 C   0  0  0  0  0  0  0  0  0  0  0  0
   56.9351   25.9593   44.5254 H   0  0  0  0  0  0  0  0  0  0  0  0
  1  2  1  0
  2  3  2  0
  3  4  1  0
  3  5  1  0
  5  6  1  0
  6  7  1  0
  7  8  1  0
  7  9  1  0
  7 10  1  0
  5 11  2  0
 11 12  1  0
 12 13  1  0
 13 14  1  0
 13 15  1  0
 13 16  1  0
 11 17  1  0
 17 18  1  0
 18 19  1  0
 18 20  1  0
 18 21  1  0
 21 22  1  0
 21 23  1  0
 23 24  2  0
 23 25  1  0
 25 26  2  0
 26 27  1  0
 26 28  1  0
 28 29  1  0
 29 30  2  0
 30 31  1  0
 31 32  1  0
 31 33  1  0
 31 34  1  0
 34 35  1  0
 35 36  1  0
 36 37  1  0
 37 38  1  0
 37 39  1  0
 37 40  1  0
 36 41  2  0
 41 42  1  0
 42 43  1  0
 43 44  1  0
 43 45  1  0
 43 46  1  0
 29 47  1  0
 47 48  1  0
 47 49  2  0
 49 50  1  0
 17 51  2  0
 51 52  1  0
 51  2  1  0
 49 25  1  0
 42 34  2  0
M  CHG  2  27  -1  28  -1
M  END
>  <UniqueID>  (13) 
12

>  <SMILES>  (13) 
COc1cccc(CNC(=O)c2cc/c(=N/Cc3sc(C)nc3C)[n-]c2[O-])c1OC

>  <Energy>  (13) 
85.18832697968648

>  <Genealogy>  (13) 
COc1cccc(CNC(=O)c2ccc(=NCc3sc(C)nc3C)[n-]c2[O-])c1OC (protonated)
COc1cccc(CNC(=O)c2cc/c(=N/Cc3sc(C)nc3C)[n-]c2[O-])c1OC (cis-trans isomerization)
COc1cccc(CNC(=O)c2cc/c(=N/Cc3sc(C)nc3C)[n-]c2[O-])c1OC (3D coordinates assigned)
COc1cccc(CNC(=O)c2cc/c(=N/Cc3sc(C)nc3C)[n-]c2[O-])c1OC (optimized conformer: 85.18832697968648 kcal/mol)

>  <smiles>  (13) 
COc1cccc(CNC(=O)c2ccc(=NCc3sc(C)nc3C)[nH]c2O)c1OC

>  <score_type>  (13) 
oracle

>  <origin>  (13) 
adg

>  <m_score__min__energy>  (13) 
-13.369999999999999

>  <m_primary>  (13) 
energy

$$$$
13:0
     RDKit          3D

 26 26  0  0  0  0  0  0  0  0999 V2000
   61.0788   33.4952   45.5280 H   0  0  0  0  0  0  0  0  0  0  0  0
   61.4450   33.7670   46.5290 C   0  0  0  0  0  0  0  0  0  0  0  0
   63.1430   33.4860   46.9080 Cl  0  0  0  0  0  0  0  0  0  0  0  0
   60.5790   34.2970   47.4050 C   0  0  0  0  0  0  0  0  0  0  0  0
   60.8463   34.2872   48.4720 H   0  0  0  0  0  0  0  0  0  0  0  0
   59.2620   34.9040   47.0070 C   0  0  0  0  0  0  0  0  0  0  0  0
   59.2785   35.9799   47.2352 H   0  0  0  0  0  0  0  0  0  0  0  0
   58.4612   34.4021   47.5699 H   0  0  0  0  0  0  0  0  0  0  0  0
   58.9470   34.6770   45.2200 S   0  0  0  0  0  0  0  0  0  0  0  0
   57.7490   33.2980   45.3750 C   0  0  0  0  0  0  0  0  0  0  0  0
   56.8987   33.4850   44.7026 H   0  0  0  0  0  0  0  0  0  0  0  0
   57.4141   33.2456   46.4215 H   0  0  0  0  0  0  0  0  0  0  0  0
   58.3910   31.9580   45.0060 C   0  0  0  0  0  0  0  0  0  0  0  0
   58.7151   31.4536   45.9283 H   0  0  0  0  0  0  0  0  0  0  0  0
   59.2445   32.1615   44.3426 H   0  0  0  0  0  0  0  0  0  0  0  0
   57.4370   31.0600   44.2720 C   0  0  0  0  0  0  0  0  0  0  0  0
   56.6310   30.1710   44.8880 N   0  0  0  0  0  0  0  0  0  0  0  0
   55.8970   29.6410   43.8860 C   0  0  0  0  0  0  0  0  0  0  0  0
   55.1320   28.8652   44.0375 H   0  0  0  0  0  0  0  0  0  0  0  0
   56.2000   30.1620   42.6820 N   0  0  0  0  0  0  0  0  0  0  0  0
   55.7510   29.9340   41.7670 H   0  0  0  0  0  0  0  0  0  0  0  0
   57.1760   31.0530   42.9150 C   0  0  0  0  0  0  0  0  0  0  0  0
   57.7550   31.9550   41.8730 C   0  0  0  0  0  0  0  0  0  0  0  0
   58.2875   32.7846   42.3610 H   0  0  0  0  0  0  0  0  0  0  0  0
   58.4576   31.3869   41.2456 H   0  0  0  0  0  0  0  0  0  0  0  0
   56.9459   32.3572   41.2456 H   0  0  0  0  0  0  0  0  0  0  0  0
  1  2  1  0
  2  3  1  0
  2  4  2  0
  4  5  1  0
  4  6  1  0
  6  7  1  0
  6  8  1  0
  6  9  1  0
  9 10  1  0
 10 11  1  0
 10 12  1  0
 10 13  1  0
 13 14  1  0
 13 15  1  0
 13 16  1  0
 16 17  1  0
 17 18  2  0
 18 19  1  0
 18 20  1  0
 20 21  1  0
 20 22  1  0
 22 23  1  0
 23 24  1  0
 23 25  1  0
 23 26  1  0
 22 16  2  0
M  END
>  <UniqueID>  (14) 
13

>  <SMILES>  (14) 
Cc1[nH]cnc1CCSC/C=C\Cl

>  <Energy>  (14) 
43.90211345249876

>  <Genealogy>  (14) 
Cc1[nH]cnc1CCSC/C=C\Cl (cis-trans isomerization)
Cc1[nH]cnc1CCSC/C=C\Cl (3D coordinates assigned)
Cc1[nH]cnc1CCSC/C=C\Cl (optimized conformer: 43.90211345249876 kcal/mol)

>  <smiles>  (14) 
Cc1[nH]cnc1CCSCC=CCl

>  <score_type>  (14) 
oracle

>  <origin>  (14) 
adg

>  <m_score__min__energy>  (14) 
-5.9199999999999999

>  <m_primary>  (14) 
energy

$$$$
15:0
     RDKit          3D

 41 42  0  0  0  0  0  0  0  0999 V2000
   56.1800   24.6470   47.1920 H   0  0  0  0  0  0  0  0  0  0  0  0
   57.1820   24.6790   47.3340 O   0  0  0  0  0  0  0  0  0  0  0  0
   57.9330   25.7690   46.8990 C   0  0  0  0  0  0  0  0  0  0  0  0
   58.5680   26.5480   47.8070 N   0  0  0  0  0  0  0  0  0  0  0  0
   59.2860   27.6390   47.4430 C   0  0  0  0  0  0  0  0  0  0  0  0
   59.9980   28.5000   48.6490 S   0  0  0  0  0  0  0  0  0  0  0  0
   59.3810   27.9960   46.1120 N   0  0  0  0  0  0  0  0  0  0  0  0
   60.1420   29.1880   45.6660 C   0  0  0  0  0  0  0  0  0  0  0  0
   60.9934   29.3374   46.3463 H   0  0  0  0  0  0  0  0  0  0  0  0
   60.4753   29.0040   44.6340 H   0  0  0  0  0  0  0  0  0  0  0  0
   59.2860   30.4670   45.6590 C   0  0  0  0  0  0  0  0  0  0  0  0
   59.6756   31.1489   46.4292 H   0  0  0  0  0  0  0  0  0  0  0  0
   59.3537   30.8915   44.6465 H   0  0  0  0  0  0  0  0  0  0  0  0
   57.7940   30.2190   45.9410 C   0  0  0  0  0  0  0  0  0  0  0  0
   57.6169   29.1352   46.0046 H   0  0  0  0  0  0  0  0  0  0  0  0
   57.5336   30.7128   46.8888 H   0  0  0  0  0  0  0  0  0  0  0  0
   56.9410   30.7850   44.8700 N   0  0  0  0  0  0  0  0  0  0  0  0
   56.3100   29.7050   44.0940 C   0  0  0  0  0  0  0  0  0  0  0  0
   55.8770   28.9639   44.7820 H   0  0  0  0  0  0  0  0  0  0  0  0
   55.5152   30.1251   43.4601 H   0  0  0  0  0  0  0  0  0  0  0  0
   57.0662   29.2189   43.4601 H   0  0  0  0  0  0  0  0  0  0  0  0
   57.7300   31.6360   43.9600 C   0  0  0  0  0  0  0  0  0  0  0  0
   58.3613   32.3169   44.5498 H   0  0  0  0  0  0  0  0  0  0  0  0
   58.3672   31.0023   43.3257 H   0  0  0  0  0  0  0  0  0  0  0  0
   57.0500   32.2236   43.3257 H   0  0  0  0  0  0  0  0  0  0  0  0
   58.7400   27.2280   45.1660 C   0  0  0  0  0  0  0  0  0  0  0  0
   58.7890   27.5490   43.9450 O   0  0  0  0  0  0  0  0  0  0  0  0
   58.0270   26.0770   45.5390 C   0  0  0  0  0  0  0  0  0  0  0  0
   57.3190   25.2700   44.5170 C   0  0  0  0  0  0  0  0  0  0  0  0
   57.7853   25.2164   43.5221 H   0  0  0  0  0  0  0  0  0  0  0  0
   56.1500   24.5870   44.6810 C   0  0  0  0  0  0  0  0  0  0  0  0
   55.1440   25.1610   45.5050 C   0  0  0  0  0  0  0  0  0  0  0  0
   55.2740   26.3200   45.9840 O   0  0  0  0  0  0  0  0  0  0  0  0
   54.0340   24.4520   45.8270 N   0  0  0  0  0  0  0  0  0  0  0  0
   53.8350   23.2000   45.3590 C   0  0  0  0  0  0  0  0  0  0  0  0
   52.8090   22.5570   45.6990 O   0  0  0  0  0  0  0  0  0  0  0  0
   54.7270   22.6500   44.5050 N   0  0  0  0  0  0  0  0  0  0  0  0
   55.8530   23.3040   44.1120 C   0  0  0  0  0  0  0  0  0  0  0  0
   56.5540   22.7330   43.1230 C   0  0  0  0  0  0  0  0  0  0  0  0
   57.4754   23.2088   42.7562 H   0  0  0  0  0  0  0  0  0  0  0  0
   56.2080   21.7884   42.6779 H   0  0  0  0  0  0  0  0  0  0  0  0
  1  2  1  0
  2  3  1  0
  3  4  1  0
  4  5  1  0
  5  6  2  0
  5  7  1  0
  7  8  1  0
  8  9  1  0
  8 10  1  0
  8 11  1  0
 11 12  1  0
 11 13  1  0
 11 14  1  0
 14 15  1  0
 14 16  1  0
 14 17  1  0
 17 18  1  0
 18 19  1  0
 18 20  1  0
 18 21  1  0
 17 22  1  0
 22 23  1  0
 22 24  1  0
 22 25  1  0
  7 26  1  0
 26 27  2  0
 26 28  1  0
 28 29  1  0
 29 30  1  0
 29 31  2  0
 31 32  1  0
 32 33  2  0
 32 34  1  0
 34 35  1  0
 35 36  2  0
 35 37  1  0
 37 38  1  0
 38 39  2  0
 39 40  1  0
 39 41  1  0
 28  3  2  0
 38 31  1  0
M  CHG  3   4  -1  34  -1  37  -1
M  END
>  <UniqueID>  (15) 
14

>  <SMILES>  (15) 
C=c1[n-]c(=O)[n-]c(=O)/c1=C/c1c(O)[n-]c(=S)n(CCCN(C)C)c1=O

>  <Energy>  (15) 
68.52536069610055

>  <Genealogy>  (15) 
C=c1[n-]c(=O)[n-]c(=O)c1=Cc1c(O)[n-]c(=S)n(CCCN(C)C)c1=O (protonated)
C=c1[n-]c(=O)[n-]c(=O)/c1=C/c1c(O)[n-]c(=S)n(CCCN(C)C)c1=O (cis-trans isomerization)
C=c1[n-]c(=O)[n-]c(=O)/c1=C/c1c(O)[n-]c(=S)n(CCCN(C)C)c1=O (3D coordinates assigned)
C=c1[n-]c(=O)[n-]c(=O)/c1=C/c1c(O)[n-]c(=S)n(CCCN(C)C)c1=O (optimized conformer: 68.52536069610055 kcal/mol)

>  <smiles>  (15) 
C=c1[nH]c(=O)[nH]c(=O)c1=Cc1c(O)[nH]c(=S)n(CCCN(C)C)c1=O

>  <score_type>  (15) 
oracle

>  <origin>  (15) 
adg

>  <m_score__min__energy>  (15) 
-12.98

>  <m_primary>  (15) 
energy

$$$$
16:0
     RDKit          3D

 56 59  0  0  0  0  0  0  0  0999 V2000
   56.7580   29.8020   52.5530 C   0  0  0  0  0  0  0  0  0  0  0  0
   57.3680   29.9800   51.2770 O   0  0  0  0  0  0  0  0  0  0  0  0
   58.6420   30.5390   51.0730 C   0  0  0  0  0  0  0  0  0  0  0  0
   59.6940   29.8090   50.4880 C   0  0  0  0  0  0  0  0  0  0  0  0
   60.9420   30.4040   50.2890 C   0  0  0  0  0  0  0  0  0  0  0  0
   61.1640   31.7400   50.6640 C   0  0  0  0  0  0  0  0  0  0  0  0
   62.4330   32.3860   50.4580 N   0  0  0  0  0  0  0  0  0  0  0  0
   62.6850   33.6870   49.3370 S   0  0  0  0  0  0  0  0  0  0  0  0
   63.9930   33.4800   48.6300 O   0  0  0  0  0  0  0  0  0  0  0  0
   62.7430   34.9860   50.0940 O   0  0  0  0  0  0  0  0  0  0  0  0
   61.3880   33.7260   48.1500 C   0  0  0  0  0  0  0  0  0  0  0  0
   60.2320   34.4800   48.3920 C   0  0  0  0  0  0  0  0  0  0  0  0
   59.2080   34.5220   47.4420 C   0  0  0  0  0  0  0  0  0  0  0  0
   59.3380   33.8230   46.2270 C   0  0  0  0  0  0  0  0  0  0  0  0
   58.3050   33.8260   45.2310 N   0  0  0  0  0  0  0  0  0  0  0  0
   58.0770   32.8170   44.2370 C   0  0  0  0  0  0  0  0  0  0  0  0
   58.1910   33.0910   43.0120 O   0  0  0  0  0  0  0  0  0  0  0  0
   57.7710   31.4330   44.6390 C   0  0  0  0  0  0  0  0  0  0  0  0
   56.5320   30.8420   44.3460 C   0  0  0  0  0  0  0  0  0  0  0  0
   56.2850   29.5310   44.7530 C   0  0  0  0  0  0  0  0  0  0  0  0
   55.1730   28.9960   44.4930 O   0  0  0  0  0  0  0  0  0  0  0  0
   57.2820   28.8280   45.4480 C   0  0  0  0  0  0  0  0  0  0  0  0
   57.0950   27.5080   45.8990 C   0  0  0  0  0  0  0  0  0  0  0  0
   58.1210   26.8450   46.5920 C   0  0  0  0  0  0  0  0  0  0  0  0
   57.9000   25.4650   47.1370 C   0  0  0  0  0  0  0  0  0  0  0  0
   59.3300   27.5120   46.8450 C   0  0  0  0  0  0  0  0  0  0  0  0
   59.5230   28.8220   46.3960 C   0  0  0  0  0  0  0  0  0  0  0  0
   58.5070   29.4860   45.7040 C   0  0  0  0  0  0  0  0  0  0  0  0
   58.6960   30.7380   45.2970 O   0  0  0  0  0  0  0  0  0  0  0  0
   60.4860   33.0550   46.0000 C   0  0  0  0  0  0  0  0  0  0  0  0
   61.5110   33.0140   46.9510 C   0  0  0  0  0  0  0  0  0  0  0  0
   60.1220   32.4590   51.2670 C   0  0  0  0  0  0  0  0  0  0  0  0
   58.8590   31.8680   51.4670 C   0  0  0  0  0  0  0  0  0  0  0  0
   57.7930   32.5710   52.0540 O   0  0  0  0  0  0  0  0  0  0  0  0
   57.9120   33.8480   52.6740 C   0  0  0  0  0  0  0  0  0  0  0  0
   57.4923   30.0163   53.3435 H   0  0  0  0  0  0  0  0  0  0  0  0
   55.9039   30.4884   52.6501 H   0  0  0  0  0  0  0  0  0  0  0  0
   56.4071   28.7640   52.6501 H   0  0  0  0  0  0  0  0  0  0  0  0
   59.5322   28.7638   50.1858 H   0  0  0  0  0  0  0  0  0  0  0  0
   61.7577   29.8221   49.8351 H   0  0  0  0  0  0  0  0  0  0  0  0
   63.2410   32.1260   51.0670 H   0  0  0  0  0  0  0  0  0  0  0  0
   60.1302   35.0407   49.3329 H   0  0  0  0  0  0  0  0  0  0  0  0
   58.2966   35.1037   47.6444 H   0  0  0  0  0  0  0  0  0  0  0  0
   55.7626   31.4078   43.8002 H   0  0  0  0  0  0  0  0  0  0  0  0
   56.1416   26.9936   45.7080 H   0  0  0  0  0  0  0  0  0  0  0  0
   57.9056   25.4997   48.2364 H   0  0  0  0  0  0  0  0  0  0  0  0
   56.9293   25.0837   46.7871 H   0  0  0  0  0  0  0  0  0  0  0  0
   58.7030   24.7996   46.7871 H   0  0  0  0  0  0  0  0  0  0  0  0
   60.1305   27.0009   47.3999 H   0  0  0  0  0  0  0  0  0  0  0  0
   60.4785   29.3319   46.5883 H   0  0  0  0  0  0  0  0  0  0  0  0
   60.5828   32.4798   45.0674 H   0  0  0  0  0  0  0  0  0  0  0  0
   62.4164   32.4205   46.7561 H   0  0  0  0  0  0  0  0  0  0  0  0
   60.2929   33.4972   51.5878 H   0  0  0  0  0  0  0  0  0  0  0  0
   57.9007   33.7273   53.7673 H   0  0  0  0  0  0  0  0  0  0  0  0
   58.8578   34.3181   52.3667 H   0  0  0  0  0  0  0  0  0  0  0  0
   57.0693   34.4847   52.3667 H   0  0  0  0  0  0  0  0  0  0  0  0
  1  2  1  0
  2  3  1  0
  3  4  2  0
  4  5  1  0
  5  6  2  0
  6  7  1  0
  7  8  1  0
  8  9  2  0
  8 10  2  0
  8 11  1  0
 11 12  2  0
 12 13  1  0
 13 14  2  0
 14 15  1  0
 15 16  1  0
 16 17  2  0
 16 18  1  0
 18 19  2  0
 19 20  1  0
 20 21  2  0
 20 22  1  0
 22 23  2  0
 23 24  1  0
 24 25  1  0
 24 26  2  0
 26 27  1  0
 27 28  2  0
 28 29  1  0
 14 30  1  0
 30 31  2  0
  6 32  1  0
 32 33  2  0
 33 34  1  0
 34 35  1  0
 33  3  1  0
 31 11  1  0
 29 18  1  0
 28 22  1  0
  1 36  1  0
  1 37  1  0
  1 38  1  0
  4 39  1  0
  5 40  1  0
  7 41  1  0
 12 42  1  0
 13 43  1  0
 19 44  1  0
 23 45  1  0
 25 46  1  0
 25 47  1  0
 25 48  1  0
 26 49  1  0
 27 50  1  0
 30 51  1  0
 31 52  1  0
 32 53  1  0
 35 54  1  0
 35 55  1  0
 35 56  1  0
M  CHG  1  15  -1
M  END
>  <UniqueID>  (16) 
15

>  <SMILES>  (16) 
COc1ccc(NS(=O)(=O)c2ccc([N-]C(=O)c3cc(=O)c4cc(C)ccc4o3)cc2)cc1OC

>  <Energy>  (16) 
70.17668864650592

>  <Genealogy>  (16) 
COc1ccc(NS(=O)(=O)c2ccc([N-]C(=O)c3cc(=O)c4cc(C)ccc4o3)cc2)cc1OC (protonated)
COc1ccc(NS(=O)(=O)c2ccc([N-]C(=O)c3cc(=O)c4cc(C)ccc4o3)cc2)cc1OC (3D coordinates assigned)
COc1ccc(NS(=O)(=O)c2ccc([N-]C(=O)c3cc(=O)c4cc(C)ccc4o3)cc2)cc1OC (optimized conformer: 70.17668864650592 kcal/mol)

>  <smiles>  (16) 
COc1ccc(NS(=O)(=O)c2ccc(NC(=O)c3cc(=O)c4cc(C)ccc4o3)cc2)cc1OC

>  <score_type>  (16) 
oracle

>  <origin>  (16) 
adg

>  <m_score__min__energy>  (16) 
-10.619999999999999

>  <m_primary>  (16) 
energy

$$$$
17:0
     RDKit          3D

 63 66  0  0  0  0  0  0  0  0999 V2000
   53.4930   22.4820   49.4350 C   0  0  0  0  0  0  0  0  0  0  0  0
   54.3780   22.3480   48.2770 N   0  0  0  0  0  0  0  0  0  0  0  0
   53.6910   21.7520   47.1130 C   0  0  2  0  0  0  0  0  0  0  0  0
   54.6030   20.7660   46.3670 C   0  0  0  0  0  0  0  0  0  0  0  0
   53.2980   22.8460   46.1590 C   0  0  0  0  0  0  0  0  0  0  0  0
   52.4410   22.6200   45.2610 O   0  0  0  0  0  0  0  0  0  0  0  0
   53.9480   24.1200   46.2480 N   0  0  0  0  0  0  0  0  0  0  0  0
   55.3510   24.3440   45.9090 C   0  0  1  0  0  0  0  0  0  0  0  0
   55.6320   23.8260   44.4920 C   0  0  0  0  0  0  0  0  0  0  0  0
   56.9780   23.1500   44.4200 C   0  0  0  0  0  0  0  0  0  0  0  0
   57.1900   22.0750   43.5330 C   0  0  0  0  0  0  0  0  0  0  0  0
   58.4370   21.4440   43.4800 C   0  0  0  0  0  0  0  0  0  0  0  0
   59.4680   21.8600   44.3240 C   0  0  0  0  0  0  0  0  0  0  0  0
   59.2590   22.9160   45.2200 C   0  0  0  0  0  0  0  0  0  0  0  0
   58.0180   23.5590   45.2720 C   0  0  0  0  0  0  0  0  0  0  0  0
   55.6770   25.8080   45.9840 C   0  0  0  0  0  0  0  0  0  0  0  0
   54.7940   26.6410   46.3380 O   0  0  0  0  0  0  0  0  0  0  0  0
   56.9610   26.2560   45.5430 N   0  0  0  0  0  0  0  0  0  0  0  0
   57.7020   27.3370   46.1750 C   0  0  1  0  0  0  0  0  0  0  0  0
   59.2280   27.0910   46.1960 C   0  0  0  0  0  0  0  0  0  0  0  0
   59.8990   28.4290   45.8210 C   0  0  0  0  0  0  0  0  0  0  0  0
   58.7900   29.2040   45.2190 C   0  0  0  0  0  0  0  0  0  0  0  0
   58.8830   30.4430   44.5840 C   0  0  0  0  0  0  0  0  0  0  0  0
   57.7160   31.0100   44.0360 C   0  0  0  0  0  0  0  0  0  0  0  0
   57.8060   32.6080   43.2250 S   0  0  0  0  0  0  0  0  0  0  0  0
   58.3030   33.4410   44.7320 C   0  0  0  0  0  0  0  0  0  0  0  0
   57.7040   33.0860   45.9450 C   0  0  0  0  0  0  0  0  0  0  0  0
   58.0780   33.7320   47.1290 C   0  0  0  0  0  0  0  0  0  0  0  0
   59.0710   34.7180   47.1070 C   0  0  0  0  0  0  0  0  0  0  0  0
   59.6770   35.0700   45.8960 C   0  0  0  0  0  0  0  0  0  0  0  0
   59.2870   34.4410   44.7070 C   0  0  0  0  0  0  0  0  0  0  0  0
   56.4840   30.3270   44.1380 C   0  0  0  0  0  0  0  0  0  0  0  0
   56.4070   29.1130   44.8380 C   0  0  0  0  0  0  0  0  0  0  0  0
   57.5730   28.5780   45.3800 C   0  0  0  0  0  0  0  0  0  0  0  0
   54.0826   22.3927   50.3593 H   0  0  0  0  0  0  0  0  0  0  0  0
   53.0001   23.4650   49.4080 H   0  0  0  0  0  0  0  0  0  0  0  0
   52.7312   21.6890   49.4080 H   0  0  0  0  0  0  0  0  0  0  0  0
   54.6710   23.3210   48.0170 H   0  0  0  0  0  0  0  0  0  0  0  0
   52.8074   21.2099   47.4809 H   0  0  0  0  0  0  0  0  0  0  0  0
   55.1626   20.1610   47.0956 H   0  0  0  0  0  0  0  0  0  0  0  0
   53.9903   20.1057   45.7356 H   0  0  0  0  0  0  0  0  0  0  0  0
   55.3090   21.3254   45.7356 H   0  0  0  0  0  0  0  0  0  0  0  0
   55.9803   23.8005   46.6292 H   0  0  0  0  0  0  0  0  0  0  0  0
   54.8513   23.1035   44.2119 H   0  0  0  0  0  0  0  0  0  0  0  0
   55.6322   24.6812   43.8002 H   0  0  0  0  0  0  0  0  0  0  0  0
   56.3730   21.7318   42.8813 H   0  0  0  0  0  0  0  0  0  0  0  0
   58.6055   20.6189   42.7723 H   0  0  0  0  0  0  0  0  0  0  0  0
   60.4459   21.3578   44.2854 H   0  0  0  0  0  0  0  0  0  0  0  0
   60.0732   23.2406   45.8847 H   0  0  0  0  0  0  0  0  0  0  0  0
   57.8560   24.3851   45.9800 H   0  0  0  0  0  0  0  0  0  0  0  0
   57.2874   27.4041   47.1917 H   0  0  0  0  0  0  0  0  0  0  0  0
   59.5472   26.7754   47.2002 H   0  0  0  0  0  0  0  0  0  0  0  0
   59.5100   26.2959   45.4901 H   0  0  0  0  0  0  0  0  0  0  0  0
   60.2958   28.9354   46.7132 H   0  0  0  0  0  0  0  0  0  0  0  0
   60.7581   28.3072   45.1449 H   0  0  0  0  0  0  0  0  0  0  0  0
   59.8480   30.9662   44.5129 H   0  0  0  0  0  0  0  0  0  0  0  0
   56.9374   32.2975   45.9685 H   0  0  0  0  0  0  0  0  0  0  0  0
   57.5908   33.4643   48.0782 H   0  0  0  0  0  0  0  0  0  0  0  0
   59.3745   35.2153   48.0400 H   0  0  0  0  0  0  0  0  0  0  0  0
   60.4607   35.8417   45.8778 H   0  0  0  0  0  0  0  0  0  0  0  0
   59.7522   34.7310   43.7533 H   0  0  0  0  0  0  0  0  0  0  0  0
   55.5828   30.7475   43.6678 H   0  0  0  0  0  0  0  0  0  0  0  0
   55.4443   28.5941   44.9563 H   0  0  0  0  0  0  0  0  0  0  0  0
  1  2  1  0
  2  3  1  0
  3  4  1  0
  3  5  1  0
  5  6  2  0
  5  7  1  0
  7  8  1  0
  8  9  1  0
  9 10  1  0
 10 11  2  0
 11 12  1  0
 12 13  2  0
 13 14  1  0
 14 15  2  0
  8 16  1  0
 16 17  2  0
 16 18  1  0
 18 19  1  0
 19 20  1  0
 20 21  1  0
 21 22  1  0
 22 23  2  0
 23 24  1  0
 24 25  1  0
 25 26  1  0
 26 27  2  0
 27 28  1  0
 28 29  2  0
 29 30  1  0
 30 31  2  0
 24 32  2  0
 32 33  1  0
 33 34  2  0
 15 10  1  0
 34 19  1  0
 34 22  1  0
 31 26  1  0
  1 35  1  0
  1 36  1  0
  1 37  1  0
  2 38  1  0
  3 39  1  1
  4 40  1  0
  4 41  1  0
  4 42  1  0
  8 43  1  1
  9 44  1  0
  9 45  1  0
 11 46  1  0
 12 47  1  0
 13 48  1  0
 14 49  1  0
 15 50  1  0
 19 51  1  1
 20 52  1  0
 20 53  1  0
 21 54  1  0
 21 55  1  0
 23 56  1  0
 27 57  1  0
 28 58  1  0
 29 59  1  0
 30 60  1  0
 31 61  1  0
 32 62  1  0
 33 63  1  0
M  CHG  2   7  -1  18  -1
M  END
>  <UniqueID>  (17) 
16

>  <SMILES>  (17) 
CN[C@H](C)C(=O)[N-][C@@H](Cc1ccccc1)C(=O)[N-]C1CCc2cc(Sc3ccccc3)ccc21

>  <Energy>  (17) 
63.49380533719937

>  <Genealogy>  (17) 
CNC(C)C(=O)[N-]C(Cc1ccccc1)C(=O)[N-]C1CCc2cc(Sc3ccccc3)ccc21 (protonated)
CN[C@H](C)C(=O)[N-][C@@H](Cc1ccccc1)C(=O)[N-]C1CCc2cc(Sc3ccccc3)ccc21 (chirality)
CN[C@H](C)C(=O)[N-][C@@H](Cc1ccccc1)C(=O)[N-]C1CCc2cc(Sc3ccccc3)ccc21 (3D coordinates assigned)
CN[C@H](C)C(=O)[N-][C@@H](Cc1ccccc1)C(=O)[N-]C1CCc2cc(Sc3ccccc3)ccc21 (nonaromatic ring conformer: 63.49380533719937 kcal/mol)

>  <smiles>  (17) 
CNC(C)C(=O)NC(Cc1ccccc1)C(=O)NC1CCc2cc(Sc3ccccc3)ccc21

>  <score_type>  (17) 
oracle

>  <origin>  (17) 
adg

>  <m_score__min__energy>  (17) 
-13.970000000000001

>  <m_primary>  (17) 
energy

$$$$
18:0
     RDKit          3D

 69 72  0  0  0  0  0  0  0  0999 V2000
   57.1370   27.0640   46.2700 C   0  0  0  0  0  0  0  0  0  0  0  0
   56.1860   27.8620   45.5990 O   0  0  0  0  0  0  0  0  0  0  0  0
   56.8240   28.7450   44.6960 C   0  0  0  0  0  0  0  0  0  0  0  0
   55.8380   29.8190   44.2420 C   0  0  0  0  0  0  0  0  0  0  0  0
   56.2630   31.1370   44.7070 N   0  0  0  0  0  0  0  0  0  0  0  0
   57.5850   31.6610   44.5270 C   0  0  0  0  0  0  0  0  0  0  0  0
   58.0480   31.8120   43.3630 O   0  0  0  0  0  0  0  0  0  0  0  0
   58.4020   31.9750   45.6720 N   0  0  0  0  0  0  0  0  0  0  0  0
   58.1760   33.2490   46.3840 C   0  0  0  0  0  0  0  0  0  0  0  0
   59.2300   34.3190   46.0470 C   0  0  0  0  0  0  0  0  0  0  0  0
   60.5290   34.1890   46.8710 C   0  0  0  0  0  0  0  0  0  0  0  0
   61.2030   32.8870   46.6960 N   0  0  0  0  0  0  0  0  0  0  0  0
   62.7800   32.9200   47.4470 S   0  0  0  0  0  0  0  0  0  0  0  0
   63.7220   31.9830   46.7410 O   0  0  0  0  0  0  0  0  0  0  0  0
   63.3690   34.3040   47.4300 O   0  0  0  0  0  0  0  0  0  0  0  0
   62.5590   32.4380   49.1220 C   0  0  0  0  0  0  0  0  0  0  0  0
   63.3700   31.4630   49.7100 C   0  0  0  0  0  0  0  0  0  0  0  0
   63.1430   31.0640   51.0300 C   0  0  0  0  0  0  0  0  0  0  0  0
   62.0930   31.6350   51.7790 C   0  0  0  0  0  0  0  0  0  0  0  0
   61.8650   31.2790   53.1180 O   0  0  0  0  0  0  0  0  0  0  0  0
   60.7490   30.5260   53.5800 C   0  0  0  0  0  0  0  0  0  0  0  0
   60.7780   29.1430   52.9370 C   0  0  0  0  0  0  0  0  0  0  0  0
   60.2110   29.1890   51.5430 C   0  0  0  0  0  0  0  0  0  0  0  0
   59.0860   29.9800   51.2600 C   0  0  0  0  0  0  0  0  0  0  0  0
   58.5760   30.0400   49.9590 C   0  0  0  0  0  0  0  0  0  0  0  0
   59.1930   29.3220   48.9310 C   0  0  0  0  0  0  0  0  0  0  0  0
   60.3230   28.5450   49.2010 C   0  0  0  0  0  0  0  0  0  0  0  0
   60.8340   28.4790   50.5020 C   0  0  0  0  0  0  0  0  0  0  0  0
   61.2640   32.6070   51.1800 C   0  0  0  0  0  0  0  0  0  0  0  0
   60.1690   33.1980   51.9030 N   0  0  0  0  0  0  0  0  0  0  0  0
   60.2360   33.8510   53.0780 C   0  0  0  0  0  0  0  0  0  0  0  0
   58.9690   34.2770   53.4020 C   0  0  0  0  0  0  0  0  0  0  0  0
   58.1070   33.9050   52.4350 N   0  0  0  0  0  0  0  0  0  0  0  0
   58.8720   33.2540   51.5330 C   0  0  0  0  0  0  0  0  0  0  0  0
   61.5120   33.0040   49.8570 C   0  0  0  0  0  0  0  0  0  0  0  0
   60.3870   31.7450   47.1550 C   0  0  0  0  0  0  0  0  0  0  0  0
   59.5810   31.1470   45.9820 C   0  0  0  0  0  0  0  0  0  0  0  0
   57.0063   27.1736   47.3567 H   0  0  0  0  0  0  0  0  0  0  0  0
   56.9957   26.0102   45.9882 H   0  0  0  0  0  0  0  0  0  0  0  0
   58.1503   27.3862   45.9882 H   0  0  0  0  0  0  0  0  0  0  0  0
   57.6803   29.2223   45.1950 H   0  0  0  0  0  0  0  0  0  0  0  0
   57.1747   28.1793   43.8202 H   0  0  0  0  0  0  0  0  0  0  0  0
   55.7877   29.8223   43.1432 H   0  0  0  0  0  0  0  0  0  0  0  0
   54.8488   29.5948   44.6676 H   0  0  0  0  0  0  0  0  0  0  0  0
   57.1836   33.6345   46.1072 H   0  0  0  0  0  0  0  0  0  0  0  0
   58.2488   33.0420   47.4619 H   0  0  0  0  0  0  0  0  0  0  0  0
   59.4847   34.2322   44.9804 H   0  0  0  0  0  0  0  0  0  0  0  0
   58.7881   35.2956   46.2939 H   0  0  0  0  0  0  0  0  0  0  0  0
   61.2212   34.9852   46.5598 H   0  0  0  0  0  0  0  0  0  0  0  0
   60.2518   34.2727   47.9322 H   0  0  0  0  0  0  0  0  0  0  0  0
   64.1886   31.0088   49.1325 H   0  0  0  0  0  0  0  0  0  0  0  0
   63.7876   30.2994   51.4880 H   0  0  0  0  0  0  0  0  0  0  0  0
   60.8009   30.4245   54.6741 H   0  0  0  0  0  0  0  0  0  0  0  0
   59.8163   31.0415   53.3074 H   0  0  0  0  0  0  0  0  0  0  0  0
   61.8182   28.7882   52.8916 H   0  0  0  0  0  0  0  0  0  0  0  0
   60.1662   28.4593   53.5439 H   0  0  0  0  0  0  0  0  0  0  0  0
   58.6039   30.5547   52.0645 H   0  0  0  0  0  0  0  0  0  0  0  0
   57.6882   30.6531   49.7447 H   0  0  0  0  0  0  0  0  0  0  0  0
   58.7891   29.3684   47.9089 H   0  0  0  0  0  0  0  0  0  0  0  0
   60.8112   27.9848   48.3899 H   0  0  0  0  0  0  0  0  0  0  0  0
   61.7258   27.8698   50.7107 H   0  0  0  0  0  0  0  0  0  0  0  0
   61.1452   34.0153   53.6749 H   0  0  0  0  0  0  0  0  0  0  0  0
   58.7005   34.8355   54.3108 H   0  0  0  0  0  0  0  0  0  0  0  0
   58.4822   32.8182   50.6013 H   0  0  0  0  0  0  0  0  0  0  0  0
   60.8746   33.7704   49.3918 H   0  0  0  0  0  0  0  0  0  0  0  0
   61.0494   30.9711   47.5702 H   0  0  0  0  0  0  0  0  0  0  0  0
   59.6846   32.0976   47.9246 H   0  0  0  0  0  0  0  0  0  0  0  0
   60.2264   31.0937   45.0928 H   0  0  0  0  0  0  0  0  0  0  0  0
   59.2368   30.1429   46.2705 H   0  0  0  0  0  0  0  0  0  0  0  0
  1  2  1  0
  2  3  1  0
  3  4  1  0
  4  5  1  0
  5  6  1  0
  6  7  2  0
  6  8  1  0
  8  9  1  0
  9 10  1  0
 10 11  1  0
 11 12  1  0
 12 13  1  0
 13 14  2  0
 13 15  2  0
 13 16  1  0
 16 17  2  0
 17 18  1  0
 18 19  2  0
 19 20  1  0
 20 21  1  0
 21 22  1  0
 22 23  1  0
 23 24  2  0
 24 25  1  0
 25 26  2  0
 26 27  1  0
 27 28  2  0
 19 29  1  0
 29 30  1  0
 30 31  1  0
 31 32  2  0
 32 33  1  0
 33 34  2  0
 29 35  2  0
 12 36  1  0
 36 37  1  0
 37  8  1  0
 35 16  1  0
 28 23  1  0
 34 30  1  0
  1 38  1  0
  1 39  1  0
  1 40  1  0
  3 41  1  0
  3 42  1  0
  4 43  1  0
  4 44  1  0
  9 45  1  0
  9 46  1  0
 10 47  1  0
 10 48  1  0
 11 49  1  0
 11 50  1  0
 17 51  1  0
 18 52  1  0
 21 53  1  0
 21 54  1  0
 22 55  1  0
 22 56  1  0
 24 57  1  0
 25 58  1  0
 26 59  1  0
 27 60  1  0
 28 61  1  0
 31 62  1  0
 32 63  1  0
 34 64  1  0
 35 65  1  0
 36 66  1  0
 36 67  1  0
 37 68  1  0
 37 69  1  0
M  CHG  1   5  -1
M  END
>  <UniqueID>  (18) 
17

>  <SMILES>  (18) 
COCC[N-]C(=O)N1CCCN(S(=O)(=O)c2ccc(OCCc3ccccc3)c(-n3ccnc3)c2)CC1

>  <Energy>  (18) 
107.57753693440101

>  <Genealogy>  (18) 
COCC[N-]C(=O)N1CCCN(S(=O)(=O)c2ccc(OCCc3ccccc3)c(-n3ccnc3)c2)CC1 (protonated)
COCC[N-]C(=O)N1CCCN(S(=O)(=O)c2ccc(OCCc3ccccc3)c(-n3ccnc3)c2)CC1 (3D coordinates assigned)
COCC[N-]C(=O)N1CCCN(S(=O)(=O)c2ccc(OCCc3ccccc3)c(-n3ccnc3)c2)CC1 (nonaromatic ring conformer: 107.57753693440101 kcal/mol)

>  <smiles>  (18) 
COCCNC(=O)N1CCCN(S(=O)(=O)c2ccc(OCCc3ccccc3)c(-n3ccnc3)c2)CC1

>  <score_type>  (18) 
oracle

>  <origin>  (18) 
adg

>  <m_score__min__energy>  (18) 
-9.8100000000000005

>  <m_primary>  (18) 
energy

$$$$
19:0
     RDKit          3D

 36 37  0  0  0  0  0  0  0  0999 V2000
   64.9120   33.0990   49.1460 C   0  0  0  0  0  0  0  0  0  0  0  0
   63.4720   33.3030   49.5240 C   0  0  0  0  0  0  0  0  0  0  0  0
   63.0800   33.2250   50.8680 C   0  0  0  0  0  0  0  0  0  0  0  0
   61.7460   33.4260   51.2250 C   0  0  0  0  0  0  0  0  0  0  0  0
   61.2630   33.3090   52.9080 Cl  0  0  0  0  0  0  0  0  0  0  0  0
   60.7920   33.7130   50.2450 C   0  0  0  0  0  0  0  0  0  0  0  0
   61.1640   33.8100   48.8930 C   0  0  0  0  0  0  0  0  0  0  0  0
   60.1400   34.1080   47.8620 C   0  0  0  0  0  0  0  0  0  0  0  0
   58.9880   34.4760   48.2190 O   0  0  0  0  0  0  0  0  0  0  0  0
   60.4460   33.9810   46.4640 N   0  0  0  0  0  0  0  0  0  0  0  0
   59.4770   34.3060   45.4200 C   0  0  0  0  0  0  0  0  0  0  0  0
   58.7090   33.0760   45.0200 C   0  0  0  0  0  0  0  0  0  0  0  0
   58.1880   32.9480   43.7220 C   0  0  0  0  0  0  0  0  0  0  0  0
   57.4550   31.8120   43.3660 C   0  0  0  0  0  0  0  0  0  0  0  0
   57.2350   30.7920   44.3020 C   0  0  0  0  0  0  0  0  0  0  0  0
   56.2950   29.3720   43.8560 S   0  0  0  0  0  0  0  0  0  0  0  0
   56.0830   28.3610   45.2400 N   0  0  0  0  0  0  0  0  0  0  0  0
   54.9510   29.7950   43.3310 O   0  0  0  0  0  0  0  0  0  0  0  0
   57.0110   28.6040   42.7800 O   0  0  0  0  0  0  0  0  0  0  0  0
   57.7440   30.9230   45.6010 C   0  0  0  0  0  0  0  0  0  0  0  0
   58.4780   32.0580   45.9580 C   0  0  0  0  0  0  0  0  0  0  0  0
   62.5150   33.6020   48.5360 C   0  0  0  0  0  0  0  0  0  0  0  0
   62.9130   33.7100   47.2060 O   0  0  0  0  0  0  0  0  0  0  0  0
   65.5217   33.0126   50.0575 H   0  0  0  0  0  0  0  0  0  0  0  0
   65.0082   32.1783   48.5519 H   0  0  0  0  0  0  0  0  0  0  0  0
   65.2602   33.9568   48.5519 H   0  0  0  0  0  0  0  0  0  0  0  0
   63.8273   33.0044   51.6444 H   0  0  0  0  0  0  0  0  0  0  0  0
   59.7415   33.8642   50.5340 H   0  0  0  0  0  0  0  0  0  0  0  0
   61.3680   33.5880   46.1680 H   0  0  0  0  0  0  0  0  0  0  0  0
   58.7760   35.0644   45.7988 H   0  0  0  0  0  0  0  0  0  0  0  0
   60.0136   34.6944   44.5418 H   0  0  0  0  0  0  0  0  0  0  0  0
   58.3573   33.7447   42.9826 H   0  0  0  0  0  0  0  0  0  0  0  0
   57.0495   31.7183   42.3478 H   0  0  0  0  0  0  0  0  0  0  0  0
   55.1530   28.5990   45.6530 H   0  0  0  0  0  0  0  0  0  0  0  0
   57.5654   30.1301   46.3423 H   0  0  0  0  0  0  0  0  0  0  0  0
   58.8763   32.1536   46.9789 H   0  0  0  0  0  0  0  0  0  0  0  0
  1  2  1  0
  2  3  2  0
  3  4  1  0
  4  5  1  0
  4  6  2  0
  6  7  1  0
  7  8  1  0
  8  9  2  0
  8 10  1  0
 10 11  1  0
 11 12  1  0
 12 13  2  0
 13 14  1  0
 14 15  2  0
 15 16  1  0
 16 17  1  0
 16 18  2  0
 16 19  2  0
 15 20  1  0
 20 21  2  0
  7 22  2  0
 22 23  1  0
 22  2  1  0
 21 12  1  0
  1 24  1  0
  1 25  1  0
  1 26  1  0
  3 27  1  0
  6 28  1  0
 10 29  1  0
 11 30  1  0
 11 31  1  0
 13 32  1  0
 14 33  1  0
 17 34  1  0
 20 35  1  0
 21 36  1  0
M  CHG  2  17  -1  23  -1
M  END
>  <UniqueID>  (19) 
18

>  <SMILES>  (19) 
Cc1cc(Cl)cc(C(=O)NCc2ccc(S([NH-])(=O)=O)cc2)c1[O-]

>  <Energy>  (19) 
37.4969262821634

>  <Genealogy>  (19) 
Cc1cc(Cl)cc(C(=O)NCc2ccc(S([NH-])(=O)=O)cc2)c1[O-] (protonated)
Cc1cc(Cl)cc(C(=O)NCc2ccc(S([NH-])(=O)=O)cc2)c1[O-] (3D coordinates assigned)
Cc1cc(Cl)cc(C(=O)NCc2ccc(S([NH-])(=O)=O)cc2)c1[O-] (optimized conformer: 37.4969262821634 kcal/mol)

>  <smiles>  (19) 
Cc1cc(Cl)cc(C(=O)NCc2ccc(S(N)(=O)=O)cc2)c1O

>  <score_type>  (19) 
oracle

>  <origin>  (19) 
adg

>  <m_score__min__energy>  (19) 
-11.890000000000001

>  <m_primary>  (19) 
energy

$$$$
20:0
     RDKit          3D

 38 39  0  0  0  0  0  0  0  0999 V2000
   59.9190   34.2830   48.9840 C   0  0  0  0  0  0  0  0  0  0  0  0
   59.4490   34.8890   47.7860 O   0  0  0  0  0  0  0  0  0  0  0  0
   58.8990   34.1840   46.7050 C   0  0  0  0  0  0  0  0  0  0  0  0
   59.3090   34.5250   45.4110 C   0  0  0  0  0  0  0  0  0  0  0  0
   58.8030   33.8410   44.3020 C   0  0  0  0  0  0  0  0  0  0  0  0
   57.8710   32.8060   44.4740 C   0  0  0  0  0  0  0  0  0  0  0  0
   57.4030   32.0110   43.2830 C   0  0  0  0  0  0  0  0  0  0  0  0
   57.7470   30.6020   43.4590 N   0  0  0  0  0  0  0  0  0  0  0  0
   56.9710   29.7280   44.2890 C   0  0  0  0  0  0  0  0  0  0  0  0
   55.8070   30.0650   44.6400 O   0  0  0  0  0  0  0  0  0  0  0  0
   57.5400   28.4340   44.7190 C   0  0  0  0  0  0  0  0  0  0  0  0
   57.5980   28.0140   45.9910 C   0  0  0  0  0  0  0  0  0  0  0  0
   57.3990   26.6080   46.4110 C   0  0  0  0  0  0  0  0  0  0  0  0
   58.4730   25.7920   46.8290 C   0  0  0  0  0  0  0  0  0  0  0  0
   59.8900   26.2890   46.8520 C   0  0  0  0  0  0  0  0  0  0  0  0
   58.2260   24.5130   47.2200 N   0  0  0  0  0  0  0  0  0  0  0  0
   56.9720   23.9950   47.1970 C   0  0  0  0  0  0  0  0  0  0  0  0
   56.7750   22.8100   47.5670 O   0  0  0  0  0  0  0  0  0  0  0  0
   55.9310   24.7540   46.7710 N   0  0  0  0  0  0  0  0  0  0  0  0
   56.1160   26.0400   46.3750 C   0  0  0  0  0  0  0  0  0  0  0  0
   55.1250   26.7140   45.9860 O   0  0  0  0  0  0  0  0  0  0  0  0
   57.4540   32.4640   45.7690 C   0  0  0  0  0  0  0  0  0  0  0  0
   57.9620   33.1470   46.8780 C   0  0  0  0  0  0  0  0  0  0  0  0
   59.5048   34.8170   49.8519 H   0  0  0  0  0  0  0  0  0  0  0  0
   59.5981   33.2313   49.0132 H   0  0  0  0  0  0  0  0  0  0  0  0
   61.0175   34.3321   49.0132 H   0  0  0  0  0  0  0  0  0  0  0  0
   60.0355   35.3381   45.2655 H   0  0  0  0  0  0  0  0  0  0  0  0
   59.1367   34.1151   43.2903 H   0  0  0  0  0  0  0  0  0  0  0  0
   56.3120   32.1104   43.1841 H   0  0  0  0  0  0  0  0  0  0  0  0
   57.8951   32.3933   42.3765 H   0  0  0  0  0  0  0  0  0  0  0  0
   58.6460   30.2550   43.0540 H   0  0  0  0  0  0  0  0  0  0  0  0
   57.9441   27.7690   43.9415 H   0  0  0  0  0  0  0  0  0  0  0  0
   57.8065   28.7606   46.7715 H   0  0  0  0  0  0  0  0  0  0  0  0
   60.2210   26.4051   47.8946 H   0  0  0  0  0  0  0  0  0  0  0  0
   60.5407   25.5654   46.3391 H   0  0  0  0  0  0  0  0  0  0  0  0
   59.9462   27.2605   46.3391 H   0  0  0  0  0  0  0  0  0  0  0  0
   56.7235   31.6542   45.9126 H   0  0  0  0  0  0  0  0  0  0  0  0
   57.6285   32.8733   47.8899 H   0  0  0  0  0  0  0  0  0  0  0  0
  1  2  1  0
  2  3  1  0
  3  4  2  0
  4  5  1  0
  5  6  2  0
  6  7  1  0
  7  8  1  0
  8  9  1  0
  9 10  2  0
  9 11  1  0
 11 12  2  3
 12 13  1  0
 13 14  2  0
 14 15  1  0
 14 16  1  0
 16 17  1  0
 17 18  2  0
 17 19  1  0
 19 20  1  0
 20 21  2  0
  6 22  1  0
 22 23  2  0
 23  3  1  0
 20 13  1  0
  1 24  1  0
  1 25  1  0
  1 26  1  0
  4 27  1  0
  5 28  1  0
  7 29  1  0
  7 30  1  0
  8 31  1  0
 11 32  1  0
 12 33  1  0
 15 34  1  0
 15 35  1  0
 15 36  1  0
 22 37  1  0
 23 38  1  0
M  CHG  2  16  -1  19  -1
M  END
>  <UniqueID>  (20) 
19

>  <SMILES>  (20) 
COc1ccc(CNC(=O)C=Cc2c(C)[n-]c(=O)[n-]c2=O)cc1

>  <Energy>  (20) 
43.46234087134604

>  <Genealogy>  (20) 
COc1ccc(CNC(=O)C=Cc2c(C)[n-]c(=O)[n-]c2=O)cc1 (protonated)
COc1ccc(CNC(=O)C=Cc2c(C)[n-]c(=O)[n-]c2=O)cc1 (3D coordinates assigned)
COc1ccc(CNC(=O)C=Cc2c(C)[n-]c(=O)[n-]c2=O)cc1 (optimized conformer: 43.46234087134604 kcal/mol)

>  <smiles>  (20) 
COc1ccc(CNC(=O)C=Cc2c(C)[nH]c(=O)[nH]c2=O)cc1

>  <score_type>  (20) 
oracle

>  <origin>  (20) 
adg

>  <m_score__min__energy>  (20) 
-12.130000000000001

>  <m_primary>  (20) 
energy

$$$$
21:0
     RDKit          3D

 47 49  0  0  0  0  0  0  0  0999 V2000
   60.7080   27.5290   49.5440 C   0  0  0  0  0  0  0  0  0  0  0  0
   60.1060   26.7880   48.4860 O   0  0  0  0  0  0  0  0  0  0  0  0
   59.6030   27.3590   47.3090 C   0  0  0  0  0  0  0  0  0  0  0  0
   58.2290   27.2800   47.0650 C   0  0  0  0  0  0  0  0  0  0  0  0
   57.6790   27.8370   45.9070 C   0  0  0  0  0  0  0  0  0  0  0  0
   58.4950   28.4900   44.9720 C   0  0  0  0  0  0  0  0  0  0  0  0
   57.8940   29.0700   43.7990 N   0  0  0  0  0  0  0  0  0  0  0  0
   56.8610   30.4640   43.8230 S   0  0  0  0  0  0  0  0  0  0  0  0
   55.5350   30.0830   44.4220 O   0  0  0  0  0  0  0  0  0  0  0  0
   56.6390   30.9390   42.4150 O   0  0  0  0  0  0  0  0  0  0  0  0
   57.6190   31.7590   44.7420 C   0  0  0  0  0  0  0  0  0  0  0  0
   57.9420   31.5830   46.0920 C   0  0  0  0  0  0  0  0  0  0  0  0
   58.5510   32.6160   46.8130 C   0  0  0  0  0  0  0  0  0  0  0  0
   58.8420   33.8430   46.1910 C   0  0  0  0  0  0  0  0  0  0  0  0
   59.4770   34.9400   46.9560 C   0  0  0  0  0  0  0  0  0  0  0  0
   60.0070   35.9100   46.3480 O   0  0  0  0  0  0  0  0  0  0  0  0
   59.4910   34.9050   48.3900 N   0  0  0  0  0  0  0  0  0  0  0  0
   60.1460   33.8590   49.1680 C   0  0  0  0  0  0  0  0  0  0  0  0
   61.3730   33.3670   48.4510 C   0  0  0  0  0  0  0  0  0  0  0  0
   62.4900   34.2070   48.3090 C   0  0  0  0  0  0  0  0  0  0  0  0
   63.6460   33.7420   47.6750 C   0  0  0  0  0  0  0  0  0  0  0  0
   63.6960   32.4360   47.1790 C   0  0  0  0  0  0  0  0  0  0  0  0
   62.5900   31.5940   47.3180 C   0  0  0  0  0  0  0  0  0  0  0  0
   61.4340   32.0540   47.9530 C   0  0  0  0  0  0  0  0  0  0  0  0
   58.5120   34.0120   44.8340 C   0  0  0  0  0  0  0  0  0  0  0  0
   57.9070   32.9770   44.1170 C   0  0  0  0  0  0  0  0  0  0  0  0
   59.8790   28.5750   45.2210 C   0  0  0  0  0  0  0  0  0  0  0  0
   60.4280   28.0080   46.3740 C   0  0  0  0  0  0  0  0  0  0  0  0
   60.3774   27.1221   50.5110 H   0  0  0  0  0  0  0  0  0  0  0  0
   61.8027   27.4521   49.4688 H   0  0  0  0  0  0  0  0  0  0  0  0
   60.4086   28.5848   49.4688 H   0  0  0  0  0  0  0  0  0  0  0  0
   57.5747   26.7750   47.7908 H   0  0  0  0  0  0  0  0  0  0  0  0
   56.5963   27.7624   45.7275 H   0  0  0  0  0  0  0  0  0  0  0  0
   58.1100   28.6590   42.8630 H   0  0  0  0  0  0  0  0  0  0  0  0
   57.7161   30.6280   46.5889 H   0  0  0  0  0  0  0  0  0  0  0  0
   58.8037   32.4673   47.8732 H   0  0  0  0  0  0  0  0  0  0  0  0
   60.4365   34.2640   50.1486 H   0  0  0  0  0  0  0  0  0  0  0  0
   59.4473   33.0196   49.2993 H   0  0  0  0  0  0  0  0  0  0  0  0
   62.4549   35.2352   48.6984 H   0  0  0  0  0  0  0  0  0  0  0  0
   64.5173   34.4046   47.5663 H   0  0  0  0  0  0  0  0  0  0  0  0
   64.6058   32.0715   46.6795 H   0  0  0  0  0  0  0  0  0  0  0  0
   62.6295   30.5667   46.9266 H   0  0  0  0  0  0  0  0  0  0  0  0
   60.5674   31.3856   48.0638 H   0  0  0  0  0  0  0  0  0  0  0  0
   58.7321   34.9666   44.3336 H   0  0  0  0  0  0  0  0  0  0  0  0
   57.6558   33.1204   43.0557 H   0  0  0  0  0  0  0  0  0  0  0  0
   60.5323   29.0916   44.5024 H   0  0  0  0  0  0  0  0  0  0  0  0
   61.5119   28.0698   46.5511 H   0  0  0  0  0  0  0  0  0  0  0  0
  1  2  1  0
  2  3  1  0
  3  4  2  0
  4  5  1  0
  5  6  2  0
  6  7  1  0
  7  8  1  0
  8  9  2  0
  8 10  2  0
  8 11  1  0
 11 12  2  0
 12 13  1  0
 13 14  2  0
 14 15  1  0
 15 16  2  0
 15 17  1  0
 17 18  1  0
 18 19  1  0
 19 20  2  0
 20 21  1  0
 21 22  2  0
 22 23  1  0
 23 24  2  0
 14 25  1  0
 25 26  2  0
  6 27  1  0
 27 28  2  0
 28  3  1  0
 26 11  1  0
 24 19  1  0
  1 29  1  0
  1 30  1  0
  1 31  1  0
  4 32  1  0
  5 33  1  0
  7 34  1  0
 12 35  1  0
 13 36  1  0
 18 37  1  0
 18 38  1  0
 20 39  1  0
 21 40  1  0
 22 41  1  0
 23 42  1  0
 24 43  1  0
 25 44  1  0
 26 45  1  0
 27 46  1  0
 28 47  1  0
M  CHG  1  17  -1
M  END
>  <UniqueID>  (21) 
20

>  <SMILES>  (21) 
COc1ccc(NS(=O)(=O)c2ccc(C(=O)[N-]Cc3ccccc3)cc2)cc1

>  <Energy>  (21) 
50.06177861662624

>  <Genealogy>  (21) 
COc1ccc(NS(=O)(=O)c2ccc(C(=O)[N-]Cc3ccccc3)cc2)cc1 (protonated)
COc1ccc(NS(=O)(=O)c2ccc(C(=O)[N-]Cc3ccccc3)cc2)cc1 (3D coordinates assigned)
COc1ccc(NS(=O)(=O)c2ccc(C(=O)[N-]Cc3ccccc3)cc2)cc1 (optimized conformer: 50.06177861662624 kcal/mol)

>  <smiles>  (21) 
COc1ccc(NS(=O)(=O)c2ccc(C(=O)NCc3ccccc3)cc2)cc1

>  <score_type>  (21) 
oracle

>  <origin>  (21) 
adg

>  <m_score__min__energy>  (21) 
-9.9600000000000009

>  <m_primary>  (21) 
energy

$$$$
22:0
     RDKit          3D

 51 54  0  0  0  0  0  0  0  0999 V2000
   59.1480   27.5090   47.7730 O   0  0  0  0  0  0  0  0  0  0  0  0
   59.0900   27.5250   46.5150 C   0  0  0  0  0  0  0  0  0  0  0  0
   59.5220   26.3650   45.7920 N   0  0  0  0  0  0  0  0  0  0  0  0
   59.1480   24.9940   46.1190 C   0  0  0  0  0  0  0  0  0  0  0  0
   57.7300   24.7510   45.6930 C   0  0  0  0  0  0  0  0  0  0  0  0
   57.3890   23.5730   45.0100 C   0  0  0  0  0  0  0  0  0  0  0  0
   56.0610   23.3310   44.6430 C   0  0  0  0  0  0  0  0  0  0  0  0
   55.0650   24.2560   44.9670 C   0  0  0  0  0  0  0  0  0  0  0  0
   55.3940   25.4250   45.6620 C   0  0  0  0  0  0  0  0  0  0  0  0
   54.4020   26.3400   45.9900 O   0  0  0  0  0  0  0  0  0  0  0  0
   56.7210   25.6700   46.0290 C   0  0  0  0  0  0  0  0  0  0  0  0
   58.6200   28.7460   45.8340 C   0  0  0  0  0  0  0  0  0  0  0  0
   57.7480   28.6650   44.7390 C   0  0  0  0  0  0  0  0  0  0  0  0
   57.2970   29.8260   44.1110 C   0  0  0  0  0  0  0  0  0  0  0  0
   57.7020   31.0800   44.5760 C   0  0  0  0  0  0  0  0  0  0  0  0
   58.5580   31.1850   45.6860 C   0  0  0  0  0  0  0  0  0  0  0  0
   58.9660   32.5260   46.1670 C   0  0  0  0  0  0  0  0  0  0  0  0
   58.7170   33.7460   45.5560 C   0  0  0  0  0  0  0  0  0  0  0  0
   59.2820   34.7030   46.3710 C   0  0  0  0  0  0  0  0  0  0  0  0
   59.8430   34.0100   47.4250 C   0  0  0  0  0  0  0  0  0  0  0  0
   60.5530   34.6160   48.5950 C   0  0  0  0  0  0  0  0  0  0  0  0
   62.0040   34.3800   48.4900 N   0  0  0  0  0  0  0  0  0  0  0  0
   62.4860   33.5010   49.5600 C   0  0  0  0  0  0  0  0  0  0  0  0
   63.7180   32.7800   49.0250 C   0  0  0  0  0  0  0  0  0  0  0  0
   63.6970   32.9980   47.5180 C   0  0  1  0  0  0  0  0  0  0  0  0
   63.7670   31.7710   46.8380 O   0  0  0  0  0  0  0  0  0  0  0  0
   62.3780   33.7060   47.2430 C   0  0  0  0  0  0  0  0  0  0  0  0
   59.6370   32.7220   47.2800 O   0  0  0  0  0  0  0  0  0  0  0  0
   59.0070   30.0080   46.3150 C   0  0  0  0  0  0  0  0  0  0  0  0
   59.8147   24.2957   45.5918 H   0  0  0  0  0  0  0  0  0  0  0  0
   59.2387   24.8364   47.2039 H   0  0  0  0  0  0  0  0  0  0  0  0
   58.1687   22.8376   44.7625 H   0  0  0  0  0  0  0  0  0  0  0  0
   55.8004   22.4113   44.0986 H   0  0  0  0  0  0  0  0  0  0  0  0
   54.0217   24.0650   44.6755 H   0  0  0  0  0  0  0  0  0  0  0  0
   56.9761   26.5855   46.5828 H   0  0  0  0  0  0  0  0  0  0  0  0
   57.4180   27.6814   44.3735 H   0  0  0  0  0  0  0  0  0  0  0  0
   56.6202   29.7542   43.2468 H   0  0  0  0  0  0  0  0  0  0  0  0
   57.3487   31.9907   44.0702 H   0  0  0  0  0  0  0  0  0  0  0  0
   58.1779   33.9154   44.6123 H   0  0  0  0  0  0  0  0  0  0  0  0
   59.2853   35.7918   46.2144 H   0  0  0  0  0  0  0  0  0  0  0  0
   60.3618   35.6991   48.6144 H   0  0  0  0  0  0  0  0  0  0  0  0
   60.1806   34.1514   49.5199 H   0  0  0  0  0  0  0  0  0  0  0  0
   62.7518   34.0958   50.4463 H   0  0  0  0  0  0  0  0  0  0  0  0
   61.7085   32.7815   49.8565 H   0  0  0  0  0  0  0  0  0  0  0  0
   64.6328   33.2067   49.4621 H   0  0  0  0  0  0  0  0  0  0  0  0
   63.7077   31.7105   49.2820 H   0  0  0  0  0  0  0  0  0  0  0  0
   64.5571   33.5888   47.1701 H   0  0  0  0  0  0  0  0  0  0  0  0
   64.7130   31.6590   46.5590 H   0  0  0  0  0  0  0  0  0  0  0  0
   62.5022   34.4419   46.4349 H   0  0  0  0  0  0  0  0  0  0  0  0
   61.6015   32.9947   46.9250 H   0  0  0  0  0  0  0  0  0  0  0  0
   59.6675   30.0773   47.1919 H   0  0  0  0  0  0  0  0  0  0  0  0
  1  2  2  0
  2  3  1  0
  3  4  1  0
  4  5  1  0
  5  6  2  0
  6  7  1  0
  7  8  2  0
  8  9  1  0
  9 10  1  0
  9 11  2  0
  2 12  1  0
 12 13  2  0
 13 14  1  0
 14 15  2  0
 15 16  1  0
 16 17  1  0
 17 18  2  0
 18 19  1  0
 19 20  2  0
 20 21  1  0
 21 22  1  0
 22 23  1  0
 23 24  1  0
 24 25  1  0
 25 26  1  0
 25 27  1  0
 20 28  1  0
 16 29  2  0
 11  5  1  0
 29 12  1  0
 28 17  1  0
 27 22  1  0
  4 30  1  0
  4 31  1  0
  6 32  1  0
  7 33  1  0
  8 34  1  0
 11 35  1  0
 13 36  1  0
 14 37  1  0
 15 38  1  0
 18 39  1  0
 19 40  1  0
 21 41  1  0
 21 42  1  0
 23 43  1  0
 23 44  1  0
 24 45  1  0
 24 46  1  0
 25 47  1  6
 26 48  1  0
 27 49  1  0
 27 50  1  0
 29 51  1  0
M  CHG  2   3  -1  10  -1
M  END
>  <UniqueID>  (22) 
21

>  <SMILES>  (22) 
O=C([N-]Cc1cccc([O-])c1)c1cccc(-c2ccc(CN3CC[C@@H](O)C3)o2)c1

>  <Energy>  (22) 
86.52699481740436

>  <Genealogy>  (22) 
O=C([N-]Cc1cccc([O-])c1)c1cccc(-c2ccc(CN3CCC(O)C3)o2)c1 (protonated)
O=C([N-]Cc1cccc([O-])c1)c1cccc(-c2ccc(CN3CC[C@@H](O)C3)o2)c1 (chirality)
O=C([N-]Cc1cccc([O-])c1)c1cccc(-c2ccc(CN3CC[C@@H](O)C3)o2)c1 (3D coordinates assigned)
O=C([N-]Cc1cccc([O-])c1)c1cccc(-c2ccc(CN3CC[C@@H](O)C3)o2)c1 (nonaromatic ring conformer: 86.52699481740436 kcal/mol)

>  <smiles>  (22) 
O=C(NCc1cccc(O)c1)c1cccc(-c2ccc(CN3CCC(O)C3)o2)c1

>  <score_type>  (22) 
oracle

>  <origin>  (22) 
adg

>  <m_score__min__energy>  (22) 
-15.789999999999999

>  <m_primary>  (22) 
energy

$$$$
23:0
     RDKit          3D

 57 59  0  0  0  0  0  0  0  0999 V2000
   57.1520   31.4790   43.5930 C   0  0  0  0  0  0  0  0  0  0  0  0
   57.3010   31.9110   44.9410 O   0  0  0  0  0  0  0  0  0  0  0  0
   58.1300   32.9670   45.3540 C   0  0  0  0  0  0  0  0  0  0  0  0
   58.3730   34.0800   44.5230 C   0  0  0  0  0  0  0  0  0  0  0  0
   59.1980   35.1210   44.9540 C   0  0  0  0  0  0  0  0  0  0  0  0
   59.7870   35.0690   46.2160 C   0  0  0  0  0  0  0  0  0  0  0  0
   59.5530   33.9790   47.0530 C   0  0  0  0  0  0  0  0  0  0  0  0
   58.7440   32.9080   46.6260 C   0  0  0  0  0  0  0  0  0  0  0  0
   58.5010   31.7320   47.5490 C   0  0  0  0  0  0  0  0  0  0  0  0
   59.1650   30.5060   47.0680 N   0  0  0  0  0  0  0  0  0  0  0  0
   60.5870   30.4730   46.7970 C   0  0  0  0  0  0  0  0  0  0  0  0
   61.0220   29.7820   45.8340 O   0  0  0  0  0  0  0  0  0  0  0  0
   61.5840   31.2070   47.6460 C   0  0  0  0  0  0  0  0  0  0  0  0
   61.9970   32.4280   46.9600 N   0  0  0  0  0  0  0  0  0  0  0  0
   62.7360   33.5250   48.0870 S   0  0  0  0  0  0  0  0  0  0  0  0
   61.6830   34.4490   48.6290 O   0  0  0  0  0  0  0  0  0  0  0  0
   63.7850   34.3370   47.3770 O   0  0  0  0  0  0  0  0  0  0  0  0
   63.4600   32.6310   49.4280 C   0  0  0  0  0  0  0  0  0  0  0  0
   64.8470   32.4170   49.4400 C   0  0  0  0  0  0  0  0  0  0  0  0
   65.4450   31.7140   50.4880 C   0  0  0  0  0  0  0  0  0  0  0  0
   64.6630   31.2130   51.5280 C   0  0  0  0  0  0  0  0  0  0  0  0
   63.2780   31.4020   51.5200 C   0  0  0  0  0  0  0  0  0  0  0  0
   62.6610   32.1080   50.4670 C   0  0  0  0  0  0  0  0  0  0  0  0
   61.2700   32.3000   50.4240 O   0  0  0  0  0  0  0  0  0  0  0  0
   60.3050   31.2960   50.7220 C   0  0  0  0  0  0  0  0  0  0  0  0
   58.3650   29.3390   46.7700 C   0  0  0  0  0  0  0  0  0  0  0  0
   57.4290   29.3720   45.7250 C   0  0  0  0  0  0  0  0  0  0  0  0
   56.6560   28.2450   45.4290 C   0  0  0  0  0  0  0  0  0  0  0  0
   56.8010   27.0620   46.1750 C   0  0  0  0  0  0  0  0  0  0  0  0
   55.9840   25.8670   45.8560 C   0  0  0  0  0  0  0  0  0  0  0  0
   54.5600   25.9310   45.8960 N   0  0  0  0  0  0  0  0  0  0  0  0
   56.5410   24.7800   45.5470 O   0  0  0  0  0  0  0  0  0  0  0  0
   57.7330   27.0340   47.2270 C   0  0  0  0  0  0  0  0  0  0  0  0
   58.5060   28.1600   47.5220 C   0  0  0  0  0  0  0  0  0  0  0  0
   56.7934   30.4392   43.5787 H   0  0  0  0  0  0  0  0  0  0  0  0
   56.4247   32.1248   43.0793 H   0  0  0  0  0  0  0  0  0  0  0  0
   58.1228   31.5391   43.0793 H   0  0  0  0  0  0  0  0  0  0  0  0
   57.9088   34.1286   43.5269 H   0  0  0  0  0  0  0  0  0  0  0  0
   59.3832   35.9832   44.2965 H   0  0  0  0  0  0  0  0  0  0  0  0
   60.4378   35.8896   46.5523 H   0  0  0  0  0  0  0  0  0  0  0  0
   60.0042   33.9551   48.0559 H   0  0  0  0  0  0  0  0  0  0  0  0
   58.8902   31.9782   48.5480 H   0  0  0  0  0  0  0  0  0  0  0  0
   57.4179   31.5422   47.5798 H   0  0  0  0  0  0  0  0  0  0  0  0
   61.1246   31.4656   48.6114 H   0  0  0  0  0  0  0  0  0  0  0  0
   62.4618   30.5672   47.8193 H   0  0  0  0  0  0  0  0  0  0  0  0
   65.4670   32.8055   48.6186 H   0  0  0  0  0  0  0  0  0  0  0  0
   66.5335   31.5554   50.4930 H   0  0  0  0  0  0  0  0  0  0  0  0
   65.1373   30.6675   52.3571 H   0  0  0  0  0  0  0  0  0  0  0  0
   62.6661   30.9977   52.3398 H   0  0  0  0  0  0  0  0  0  0  0  0
   60.2069   31.1940   51.8129 H   0  0  0  0  0  0  0  0  0  0  0  0
   59.3338   31.5816   50.2917 H   0  0  0  0  0  0  0  0  0  0  0  0
   60.6289   30.3369   50.2917 H   0  0  0  0  0  0  0  0  0  0  0  0
   57.3024   30.2913   45.1343 H   0  0  0  0  0  0  0  0  0  0  0  0
   55.9280   28.2843   44.6053 H   0  0  0  0  0  0  0  0  0  0  0  0
   54.0690   26.7190   46.3750 H   0  0  0  0  0  0  0  0  0  0  0  0
   57.8548   26.1176   47.8232 H   0  0  0  0  0  0  0  0  0  0  0  0
   59.2304   28.1234   48.3490 H   0  0  0  0  0  0  0  0  0  0  0  0
  1  2  1  0
  2  3  1  0
  3  4  2  0
  4  5  1  0
  5  6  2  0
  6  7  1  0
  7  8  2  0
  8  9  1  0
  9 10  1  0
 10 11  1  0
 11 12  2  0
 11 13  1  0
 13 14  1  0
 14 15  1  0
 15 16  2  0
 15 17  2  0
 15 18  1  0
 18 19  2  0
 19 20  1  0
 20 21  2  0
 21 22  1  0
 22 23  2  0
 23 24  1  0
 24 25  1  0
 10 26  1  0
 26 27  2  0
 27 28  1  0
 28 29  2  0
 29 30  1  0
 30 31  1  0
 30 32  2  0
 29 33  1  0
 33 34  2  0
  8  3  1  0
 23 18  1  0
 34 26  1  0
  1 35  1  0
  1 36  1  0
  1 37  1  0
  4 38  1  0
  5 39  1  0
  6 40  1  0
  7 41  1  0
  9 42  1  0
  9 43  1  0
 13 44  1  0
 13 45  1  0
 19 46  1  0
 20 47  1  0
 21 48  1  0
 22 49  1  0
 25 50  1  0
 25 51  1  0
 25 52  1  0
 27 53  1  0
 28 54  1  0
 31 55  1  0
 33 56  1  0
 34 57  1  0
M  CHG  2  14  -1  31  -1
M  END
>  <UniqueID>  (23) 
22

>  <SMILES>  (23) 
COc1ccccc1CN(C(=O)C[N-]S(=O)(=O)c1ccccc1OC)c1ccc(C([NH-])=O)cc1

>  <Energy>  (23) 
62.27859169447323

>  <Genealogy>  (23) 
COc1ccccc1CN(C(=O)C[N-]S(=O)(=O)c1ccccc1OC)c1ccc(C([NH-])=O)cc1 (protonated)
COc1ccccc1CN(C(=O)C[N-]S(=O)(=O)c1ccccc1OC)c1ccc(C([NH-])=O)cc1 (3D coordinates assigned)
COc1ccccc1CN(C(=O)C[N-]S(=O)(=O)c1ccccc1OC)c1ccc(C([NH-])=O)cc1 (optimized conformer: 62.27859169447323 kcal/mol)

>  <smiles>  (23) 
COc1ccccc1CN(C(=O)CNS(=O)(=O)c1ccccc1OC)c1ccc(C(N)=O)cc1

>  <score_type>  (23) 
oracle

>  <origin>  (23) 
adg

>  <m_score__min__energy>  (23) 
-11.57

>  <m_primary>  (23) 
energy

$$$$
24:0
     RDKit          3D

 66 70  0  0  0  0  0  0  0  0999 V2000
   67.9430   33.7910   50.5380 C   0  0  0  0  0  0  0  0  0  0  0  0
   67.1020   32.8680   49.8550 O   0  0  0  0  0  0  0  0  0  0  0  0
   66.4010   31.8200   50.4730 C   0  0  0  0  0  0  0  0  0  0  0  0
   67.0670   30.7250   51.0590 C   0  0  0  0  0  0  0  0  0  0  0  0
   66.3410   29.6830   51.6430 C   0  0  0  0  0  0  0  0  0  0  0  0
   64.9450   29.7150   51.6380 C   0  0  0  0  0  0  0  0  0  0  0  0
   64.2750   30.7990   51.0710 C   0  0  0  0  0  0  0  0  0  0  0  0
   64.9920   31.8570   50.4900 C   0  0  0  0  0  0  0  0  0  0  0  0
   64.2780   32.9630   49.9130 N   0  0  0  0  0  0  0  0  0  0  0  0
   64.1630   33.0810   48.4540 C   0  0  0  0  0  0  0  0  0  0  0  0
   62.6880   33.1980   48.0550 C   0  0  0  0  0  0  0  0  0  0  0  0
   61.9550   34.1320   48.9310 N   0  0  0  0  0  0  0  0  0  0  0  0
   60.5120   34.1810   48.8920 C   0  0  0  0  0  0  0  0  0  0  0  0
   59.8700   34.5990   49.8950 O   0  0  0  0  0  0  0  0  0  0  0  0
   59.7470   33.6800   47.7320 C   0  0  0  0  0  0  0  0  0  0  0  0
   59.9260   34.2730   46.4720 C   0  0  0  0  0  0  0  0  0  0  0  0
   59.1960   33.8220   45.3700 C   0  0  0  0  0  0  0  0  0  0  0  0
   58.2710   32.7750   45.5120 C   0  0  0  0  0  0  0  0  0  0  0  0
   57.4730   32.3050   44.3280 C   0  0  0  0  0  0  0  0  0  0  0  0
   56.3100   31.5410   44.7830 N   0  0  0  0  0  0  0  0  0  0  0  0
   56.2840   29.9890   44.0010 S   0  0  0  0  0  0  0  0  0  0  0  0
   56.6240   30.1520   42.5450 O   0  0  0  0  0  0  0  0  0  0  0  0
   54.9160   29.3700   44.1100 O   0  0  0  0  0  0  0  0  0  0  0  0
   57.4640   28.9290   44.7660 C   0  0  0  0  0  0  0  0  0  0  0  0
   57.9200   27.7820   44.1030 C   0  0  0  0  0  0  0  0  0  0  0  0
   58.8580   26.9410   44.7130 C   0  0  0  0  0  0  0  0  0  0  0  0
   59.3510   27.2420   45.9900 C   0  0  0  0  0  0  0  0  0  0  0  0
   60.2900   26.4030   46.6130 C   0  0  0  0  0  0  0  0  0  0  0  0
   60.7760   26.7160   47.8860 C   0  0  0  0  0  0  0  0  0  0  0  0
   60.3290   27.8630   48.5480 C   0  0  0  0  0  0  0  0  0  0  0  0
   59.3950   28.7080   47.9380 C   0  0  0  0  0  0  0  0  0  0  0  0
   58.9000   28.4050   46.6590 C   0  0  0  0  0  0  0  0  0  0  0  0
   57.9620   29.2430   46.0380 C   0  0  0  0  0  0  0  0  0  0  0  0
   58.1230   32.1540   46.7610 C   0  0  0  0  0  0  0  0  0  0  0  0
   58.8580   32.6020   47.8640 C   0  0  0  0  0  0  0  0  0  0  0  0
   62.6960   34.8700   49.9680 C   0  0  0  0  0  0  0  0  0  0  0  0
   63.5480   33.8940   50.7870 C   0  0  0  0  0  0  0  0  0  0  0  0
   67.8245   33.6609   51.6238 H   0  0  0  0  0  0  0  0  0  0  0  0
   68.9911   33.6078   50.2590 H   0  0  0  0  0  0  0  0  0  0  0  0
   67.6634   34.8176   50.2590 H   0  0  0  0  0  0  0  0  0  0  0  0
   68.1664   30.6900   51.0568 H   0  0  0  0  0  0  0  0  0  0  0  0
   66.8697   28.8372   52.1068 H   0  0  0  0  0  0  0  0  0  0  0  0
   64.3740   28.8857   52.0810 H   0  0  0  0  0  0  0  0  0  0  0  0
   63.1753   30.8252   51.0791 H   0  0  0  0  0  0  0  0  0  0  0  0
   64.7043   33.9772   48.1167 H   0  0  0  0  0  0  0  0  0  0  0  0
   64.5958   32.1861   47.9830 H   0  0  0  0  0  0  0  0  0  0  0  0
   62.6274   33.5606   47.0183 H   0  0  0  0  0  0  0  0  0  0  0  0
   62.2275   32.2040   48.1542 H   0  0  0  0  0  0  0  0  0  0  0  0
   60.6448   35.0970   46.3521 H   0  0  0  0  0  0  0  0  0  0  0  0
   59.3464   34.2894   44.3857 H   0  0  0  0  0  0  0  0  0  0  0  0
   57.1333   33.1758   43.7481 H   0  0  0  0  0  0  0  0  0  0  0  0
   58.1047   31.6621   43.6974 H   0  0  0  0  0  0  0  0  0  0  0  0
   55.4500   32.0500   44.4700 H   0  0  0  0  0  0  0  0  0  0  0  0
   57.5394   27.5415   43.0993 H   0  0  0  0  0  0  0  0  0  0  0  0
   59.2095   26.0405   44.1882 H   0  0  0  0  0  0  0  0  0  0  0  0
   60.6437   25.4976   46.0980 H   0  0  0  0  0  0  0  0  0  0  0  0
   61.5130   26.0571   48.3684 H   0  0  0  0  0  0  0  0  0  0  0  0
   60.7123   28.1021   49.5510 H   0  0  0  0  0  0  0  0  0  0  0  0
   59.0479   29.6112   48.4612 H   0  0  0  0  0  0  0  0  0  0  0  0
   57.6154   30.1516   46.5521 H   0  0  0  0  0  0  0  0  0  0  0  0
   57.4257   31.3107   46.8738 H   0  0  0  0  0  0  0  0  0  0  0  0
   58.7386   32.1071   48.8391 H   0  0  0  0  0  0  0  0  0  0  0  0
   63.3500   35.6144   49.4903 H   0  0  0  0  0  0  0  0  0  0  0  0
   61.9827   35.3782   50.6336 H   0  0  0  0  0  0  0  0  0  0  0  0
   64.2717   34.4655   51.3867 H   0  0  0  0  0  0  0  0  0  0  0  0
   62.8805   33.3102   51.4378 H   0  0  0  0  0  0  0  0  0  0  0  0
  1  2  1  0
  2  3  1  0
  3  4  2  0
  4  5  1  0
  5  6  2  0
  6  7  1  0
  7  8  2  0
  8  9  1  0
  9 10  1  0
 10 11  1  0
 11 12  1  0
 12 13  1  0
 13 14  2  0
 13 15  1  0
 15 16  2  0
 16 17  1  0
 17 18  2  0
 18 19  1  0
 19 20  1  0
 20 21  1  0
 21 22  2  0
 21 23  2  0
 21 24  1  0
 24 25  2  0
 25 26  1  0
 26 27  2  0
 27 28  1  0
 28 29  2  0
 29 30  1  0
 30 31  2  0
 31 32  1  0
 32 33  2  0
 18 34  1  0
 34 35  2  0
 12 36  1  0
 36 37  1  0
  8  3  1  0
 37  9  1  0
 35 15  1  0
 33 24  1  0
 32 27  1  0
  1 38  1  0
  1 39  1  0
  1 40  1  0
  4 41  1  0
  5 42  1  0
  6 43  1  0
  7 44  1  0
 10 45  1  0
 10 46  1  0
 11 47  1  0
 11 48  1  0
 16 49  1  0
 17 50  1  0
 19 51  1  0
 19 52  1  0
 20 53  1  0
 25 54  1  0
 26 55  1  0
 28 56  1  0
 29 57  1  0
 30 58  1  0
 31 59  1  0
 33 60  1  0
 34 61  1  0
 35 62  1  0
 36 63  1  0
 36 64  1  0
 37 65  1  0
 37 66  1  0
M  END
>  <UniqueID>  (24) 
23

>  <SMILES>  (24) 
COc1ccccc1N1CCN(C(=O)c2ccc(CNS(=O)(=O)c3ccc4ccccc4c3)cc2)CC1

>  <Energy>  (24) 
83.85171029734403

>  <Genealogy>  (24) 
COc1ccccc1N1CCN(C(=O)c2ccc(CNS(=O)(=O)c3ccc4ccccc4c3)cc2)CC1 (3D coordinates assigned)
COc1ccccc1N1CCN(C(=O)c2ccc(CNS(=O)(=O)c3ccc4ccccc4c3)cc2)CC1 (nonaromatic ring conformer: 83.85171029734403 kcal/mol)

>  <smiles>  (24) 
COc1ccccc1N1CCN(C(=O)c2ccc(CNS(=O)(=O)c3ccc4ccccc4c3)cc2)CC1

>  <score_type>  (24) 
oracle

>  <origin>  (24) 
adg

>  <m_score__min__energy>  (24) 
-10.98

>  <m_primary>  (24) 
energy

$$$$
25:0
     RDKit          3D

 38 39  0  0  0  0  0  0  0  0999 V2000
   62.7230   34.1030   50.6020 C   0  0  0  0  0  0  0  0  0  0  0  0
   62.4320   33.8580   49.1430 C   0  0  0  0  0  0  0  0  0  0  0  0
   63.5030   33.8430   48.2350 C   0  0  0  0  0  0  0  0  0  0  0  0
   63.2770   33.6320   46.8760 C   0  0  0  0  0  0  0  0  0  0  0  0
   61.9840   33.4170   46.4060 C   0  0  0  0  0  0  0  0  0  0  0  0
   60.8970   33.4130   47.2890 C   0  0  0  0  0  0  0  0  0  0  0  0
   59.5900   33.1510   46.7600 N   0  0  0  0  0  0  0  0  0  0  0  0
   58.9410   34.0450   45.8410 C   0  0  0  0  0  0  0  0  0  0  0  0
   59.4920   35.1400   45.5460 O   0  0  0  0  0  0  0  0  0  0  0  0
   57.6270   33.6830   45.2570 C   0  0  0  0  0  0  0  0  0  0  0  0
   57.0350   34.5210   44.5260 O   0  0  0  0  0  0  0  0  0  0  0  0
   56.9860   32.4200   45.4870 N   0  0  0  0  0  0  0  0  0  0  0  0
   56.6350   31.4290   44.4770 C   0  0  0  0  0  0  0  0  0  0  0  0
   57.3000   30.1220   44.8120 C   0  0  0  0  0  0  0  0  0  0  0  0
   58.7020   30.0510   44.8960 C   0  0  0  0  0  0  0  0  0  0  0  0
   59.3310   28.8350   45.1770 C   0  0  0  0  0  0  0  0  0  0  0  0
   58.5700   27.6790   45.3670 C   0  0  0  0  0  0  0  0  0  0  0  0
   57.1770   27.7350   45.2690 C   0  0  0  0  0  0  0  0  0  0  0  0
   56.5390   28.9490   44.9860 C   0  0  0  0  0  0  0  0  0  0  0  0
   55.1530   28.9810   44.8800 O   0  0  0  0  0  0  0  0  0  0  0  0
   61.1050   33.6890   48.6650 C   0  0  0  0  0  0  0  0  0  0  0  0
   59.9320   33.7950   49.6140 C   0  0  0  0  0  0  0  0  0  0  0  0
   62.0261   33.5162   51.2185 H   0  0  0  0  0  0  0  0  0  0  0  0
   63.7561   33.7987   50.8260 H   0  0  0  0  0  0  0  0  0  0  0  0
   62.5992   35.1728   50.8260 H   0  0  0  0  0  0  0  0  0  0  0  0
   64.5291   33.9991   48.5994 H   0  0  0  0  0  0  0  0  0  0  0  0
   64.1226   33.6353   46.1725 H   0  0  0  0  0  0  0  0  0  0  0  0
   61.8150   33.2489   45.3321 H   0  0  0  0  0  0  0  0  0  0  0  0
   59.0260   32.3940   47.2090 H   0  0  0  0  0  0  0  0  0  0  0  0
   55.5437   31.2924   44.4597 H   0  0  0  0  0  0  0  0  0  0  0  0
   56.9746   31.7731   43.4889 H   0  0  0  0  0  0  0  0  0  0  0  0
   59.3064   30.9567   44.7398 H   0  0  0  0  0  0  0  0  0  0  0  0
   60.4277   28.7881   45.2487 H   0  0  0  0  0  0  0  0  0  0  0  0
   59.0673   26.7244   45.5938 H   0  0  0  0  0  0  0  0  0  0  0  0
   56.5799   26.8227   45.4146 H   0  0  0  0  0  0  0  0  0  0  0  0
   60.2957   33.7621   50.6516 H   0  0  0  0  0  0  0  0  0  0  0  0
   59.4044   34.7445   49.4403 H   0  0  0  0  0  0  0  0  0  0  0  0
   59.2428   32.9555   49.4403 H   0  0  0  0  0  0  0  0  0  0  0  0
  1  2  1  0
  2  3  2  0
  3  4  1  0
  4  5  2  0
  5  6  1  0
  6  7  1  0
  7  8  1  0
  8  9  2  0
  8 10  1  0
 10 11  2  0
 10 12  1  0
 12 13  1  0
 13 14  1  0
 14 15  2  0
 15 16  1  0
 16 17  2  0
 17 18  1  0
 18 19  2  0
 19 20  1  0
  6 21  2  0
 21 22  1  0
 21  2  1  0
 19 14  1  0
  1 23  1  0
  1 24  1  0
  1 25  1  0
  3 26  1  0
  4 27  1  0
  5 28  1  0
  7 29  1  0
 13 30  1  0
 13 31  1  0
 15 32  1  0
 16 33  1  0
 17 34  1  0
 18 35  1  0
 22 36  1  0
 22 37  1  0
 22 38  1  0
M  CHG  2  12  -1  20  -1
M  END
>  <UniqueID>  (25) 
24

>  <SMILES>  (25) 
Cc1cccc(NC(=O)C(=O)[N-]Cc2ccccc2[O-])c1C

>  <Energy>  (25) 
45.3549258245338

>  <Genealogy>  (25) 
Cc1cccc(NC(=O)C(=O)[N-]Cc2ccccc2[O-])c1C (protonated)
Cc1cccc(NC(=O)C(=O)[N-]Cc2ccccc2[O-])c1C (3D coordinates assigned)
Cc1cccc(NC(=O)C(=O)[N-]Cc2ccccc2[O-])c1C (optimized conformer: 45.3549258245338 kcal/mol)

>  <smiles>  (25) 
Cc1cccc(NC(=O)C(=O)NCc2ccccc2O)c1C

>  <score_type>  (25) 
oracle

>  <origin>  (25) 
adg

>  <m_score__min__energy>  (25) 
-13.27

>  <m_primary>  (25) 
energy

$$$$
26:0
     RDKit          3D

 52 55  0  0  0  0  0  0  0  0999 V2000
   55.3699   30.8222   43.4009 H   0  0  0  0  0  0  0  0  0  0  0  0
   55.9410   30.2400   44.1390 C   0  0  0  0  0  0  0  0  0  0  0  0
   55.5730   28.9660   44.4290 N   0  0  0  0  0  0  0  0  0  0  0  0
   56.2580   28.2290   45.3460 C   0  0  0  0  0  0  0  0  0  0  0  0
   55.9210   27.0010   45.6150 N   0  0  0  0  0  0  0  0  0  0  0  0
   56.7740   25.8440   45.5820 C   0  0  0  0  0  0  0  0  0  0  0  0
   58.0710   25.8580   46.1310 C   0  0  0  0  0  0  0  0  0  0  0  0
   58.4441   26.7622   46.6342 H   0  0  0  0  0  0  0  0  0  0  0  0
   58.8850   24.7260   46.0380 C   0  0  0  0  0  0  0  0  0  0  0  0
   59.8919   24.7374   46.4807 H   0  0  0  0  0  0  0  0  0  0  0  0
   58.4250   23.5800   45.3850 C   0  0  0  0  0  0  0  0  0  0  0  0
   59.0681   22.6901   45.3182 H   0  0  0  0  0  0  0  0  0  0  0  0
   57.1450   23.5630   44.8150 C   0  0  0  0  0  0  0  0  0  0  0  0
   56.5680   22.1370   43.9600 S   0  0  0  0  0  0  0  0  0  0  0  0
   55.8730   22.5530   42.6940 O   0  0  0  0  0  0  0  0  0  0  0  0
   55.5930   21.3810   44.8190 O   0  0  0  0  0  0  0  0  0  0  0  0
   57.9090   21.1130   43.5800 N   0  0  0  0  0  0  0  0  0  0  0  0
   57.5160   20.2420   43.1590 H   0  0  0  0  0  0  0  0  0  0  0  0
   58.3500   20.8390   44.4860 H   0  0  0  0  0  0  0  0  0  0  0  0
   56.3320   24.7020   44.9020 C   0  0  0  0  0  0  0  0  0  0  0  0
   55.3376   24.6987   44.4318 H   0  0  0  0  0  0  0  0  0  0  0  0
   57.3410   28.7690   45.9640 N   0  0  0  0  0  0  0  0  0  0  0  0
   57.7580   30.0400   45.7050 C   0  0  0  0  0  0  0  0  0  0  0  0
   58.9400   30.5790   46.4250 C   0  0  0  0  0  0  0  0  0  0  0  0
   60.1400   29.8460   46.4440 C   0  0  0  0  0  0  0  0  0  0  0  0
   60.1954   28.8776   45.9252 H   0  0  0  0  0  0  0  0  0  0  0  0
   61.2610   30.3360   47.1150 C   0  0  0  0  0  0  0  0  0  0  0  0
   62.1897   29.7467   47.1284 H   0  0  0  0  0  0  0  0  0  0  0  0
   61.2130   31.5730   47.7720 C   0  0  0  0  0  0  0  0  0  0  0  0
   62.3790   32.0560   48.4550 N   0  0  0  0  0  0  0  0  0  0  0  0
   63.1510   33.1550   47.8600 C   0  0  0  0  0  0  0  0  0  0  0  0
   63.3951   32.8981   46.8186 H   0  0  0  0  0  0  0  0  0  0  0  0
   62.5415   34.0697   47.9037 H   0  0  0  0  0  0  0  0  0  0  0  0
   64.4520   33.4050   48.6300 C   0  0  0  0  0  0  0  0  0  0  0  0
   65.1526   32.5801   48.4335 H   0  0  0  0  0  0  0  0  0  0  0  0
   64.8845   34.3594   48.2952 H   0  0  0  0  0  0  0  0  0  0  0  0
   64.1800   33.4870   50.1360 C   0  0  0  0  0  0  0  0  0  0  0  0
   65.1438   33.5561   50.6616 H   0  0  0  0  0  0  0  0  0  0  0  0
   63.5509   34.3733   50.3057 H   0  0  0  0  0  0  0  0  0  0  0  0
   63.4070   32.2640   50.6860 C   0  0  0  0  0  0  0  0  0  0  0  0
   64.0738   31.7070   51.3607 H   0  0  0  0  0  0  0  0  0  0  0  0
   62.5163   32.6531   51.2011 H   0  0  0  0  0  0  0  0  0  0  0  0
   62.9100   31.3050   49.5970 C   0  0  0  0  0  0  0  0  0  0  0  0
   63.7468   30.6760   49.2591 H   0  0  0  0  0  0  0  0  0  0  0  0
   62.1085   30.6776   50.0141 H   0  0  0  0  0  0  0  0  0  0  0  0
   60.0200   32.3190   47.7560 C   0  0  0  0  0  0  0  0  0  0  0  0
   59.9280   33.5810   48.4480 C   0  0  0  0  0  0  0  0  0  0  0  0
   59.8540   34.5950   49.0020 N   0  0  0  0  0  0  0  0  0  0  0  0
   58.8950   31.8250   47.0820 C   0  0  0  0  0  0  0  0  0  0  0  0
   57.9673   32.4158   47.0656 H   0  0  0  0  0  0  0  0  0  0  0  0
   57.0410   30.8110   44.7750 C   0  0  0  0  0  0  0  0  0  0  0  0
   57.3423   31.8454   44.5533 H   0  0  0  0  0  0  0  0  0  0  0  0
  1  2  1  0
  2  3  1  0
  3  4  1  0
  4  5  2  0
  5  6  1  0
  6  7  2  0
  7  8  1  0
  7  9  1  0
  9 10  1  0
  9 11  2  0
 11 12  1  0
 11 13  1  0
 13 14  1  0
 14 15  2  0
 14 16  2  0
 14 17  1  0
 17 18  1  0
 17 19  1  0
 13 20  2  0
 20 21  1  0
  4 22  1  0
 22 23  2  0
 23 24  1  0
 24 25  2  0
 25 26  1  0
 25 27  1  0
 27 28  1  0
 27 29  2  0
 29 30  1  0
 30 31  1  0
 31 32  1  0
 31 33  1  0
 31 34  1  0
 34 35  1  0
 34 36  1  0
 34 37  1  0
 37 38  1  0
 37 39  1  0
 37 40  1  0
 40 41  1  0
 40 42  1  0
 40 43  1  0
 43 44  1  0
 43 45  1  0
 29 46  1  0
 46 47  1  0
 47 48  3  0
 46 49  2  0
 49 50  1  0
 23 51  1  0
 51 52  1  0
 51  2  2  0
 20  6  1  0
 49 24  1  0
 43 30  1  0
M  CHG  1   3  -1
M  END
>  <UniqueID>  (26) 
25

>  <SMILES>  (26) 
N#Cc1cc(-c2cc[n-]/c(=N\c3cccc(S(N)(=O)=O)c3)n2)ccc1N1CCCCC1

>  <Energy>  (26) 
71.12379303566695

>  <Genealogy>  (26) 
N#Cc1cc(-c2cc[n-]c(=Nc3cccc(S(N)(=O)=O)c3)n2)ccc1N1CCCCC1 (protonated)
N#Cc1cc(-c2cc[n-]/c(=N\c3cccc(S(N)(=O)=O)c3)n2)ccc1N1CCCCC1 (cis-trans isomerization)
N#Cc1cc(-c2cc[n-]/c(=N\c3cccc(S(N)(=O)=O)c3)n2)ccc1N1CCCCC1 (3D coordinates assigned)
N#Cc1cc(-c2cc[n-]/c(=N\c3cccc(S(N)(=O)=O)c3)n2)ccc1N1CCCCC1 (nonaromatic ring conformer: 71.12379303566695 kcal/mol)

>  <smiles>  (26) 
N#Cc1cc(-c2cc[nH]c(=Nc3cccc(S(N)(=O)=O)c3)n2)ccc1N1CCCCC1

>  <score_type>  (26) 
oracle

>  <origin>  (26) 
adg

>  <m_score__min__energy>  (26) 
-11.199999999999999

>  <m_primary>  (26) 
energy

$$$$
27:0
     RDKit          3D

 46 49  0  0  0  0  0  0  0  0999 V2000
   58.2698   35.3673   44.9743 H   0  0  0  0  0  0  0  0  0  0  0  0
   58.2740   34.2970   45.2280 C   0  0  0  0  0  0  0  0  0  0  0  0
   57.3010   33.4810   44.7440 N   0  0  0  0  0  0  0  0  0  0  0  0
   57.2490   32.1540   45.0370 C   0  0  0  0  0  0  0  0  0  0  0  0
   56.2910   31.4420   44.5100 N   0  0  0  0  0  0  0  0  0  0  0  0
   56.2290   30.0230   44.2950 C   0  0  0  0  0  0  0  0  0  0  0  0
   55.3160   29.3700   44.8710 O   0  0  0  0  0  0  0  0  0  0  0  0
   57.2970   29.2990   43.5080 C   0  0  0  0  0  0  0  0  0  0  0  0
   57.0016   29.7196   42.5354 H   0  0  0  0  0  0  0  0  0  0  0  0
   57.6520   27.9210   44.0510 C   0  0  0  0  0  0  0  0  0  0  0  0
   57.1285   27.5268   44.9345 H   0  0  0  0  0  0  0  0  0  0  0  0
   57.7000   26.9073   43.6265 H   0  0  0  0  0  0  0  0  0  0  0  0
   58.6360   29.0700   44.2010 C   0  0  0  0  0  0  0  0  0  0  0  0
   58.8239   29.5073   45.1927 H   0  0  0  0  0  0  0  0  0  0  0  0
   59.6897   29.2319   43.9299 H   0  0  0  0  0  0  0  0  0  0  0  0
   58.2550   31.5990   45.8530 C   0  0  0  0  0  0  0  0  0  0  0  0
   58.2347   30.5273   46.1001 H   0  0  0  0  0  0  0  0  0  0  0  0
   59.2850   32.4170   46.3510 C   0  0  0  0  0  0  0  0  0  0  0  0
   60.3010   31.9170   47.1820 O   0  0  0  0  0  0  0  0  0  0  0  0
   60.2360   30.7250   47.9200 C   0  0  0  0  0  0  0  0  0  0  0  0
   59.5380   29.6030   47.4390 C   0  0  0  0  0  0  0  0  0  0  0  0
   59.0680   29.6392   46.4451 H   0  0  0  0  0  0  0  0  0  0  0  0
   59.4350   28.4390   48.2130 C   0  0  0  0  0  0  0  0  0  0  0  0
   58.6860   27.3210   47.7100 N   0  0  0  0  0  0  0  0  0  0  0  0
   57.7080   27.1860   48.0520 H   0  0  0  0  0  0  0  0  0  0  0  0
   59.2450   26.2910   46.8840 C   0  0  0  0  0  0  0  0  0  0  0  0
   60.4900   26.2350   46.6960 O   0  0  0  0  0  0  0  0  0  0  0  0
   58.3650   25.3010   46.3240 N   0  0  0  0  0  0  0  0  0  0  0  0
   57.0780   25.3770   46.1360 C   0  0  0  0  0  0  0  0  0  0  0  0
   56.3730   26.4790   46.4520 N   0  0  0  0  0  0  0  0  0  0  0  0
   55.1330   26.2320   46.1410 O   0  0  0  0  0  0  0  0  0  0  0  0
   55.0040   25.0260   45.6380 C   0  0  0  0  0  0  0  0  0  0  0  0
   53.7150   24.4330   45.1810 C   0  0  0  0  0  0  0  0  0  0  0  0
   53.1091   24.1543   46.0557 H   0  0  0  0  0  0  0  0  0  0  0  0
   53.1670   25.1695   44.5750 H   0  0  0  0  0  0  0  0  0  0  0  0
   53.9177   23.5376   44.5750 H   0  0  0  0  0  0  0  0  0  0  0  0
   56.2370   24.4100   45.6070 C   0  0  0  0  0  0  0  0  0  0  0  0
   56.4908   23.4007   45.2506 H   0  0  0  0  0  0  0  0  0  0  0  0
   60.1050   28.3740   49.4460 C   0  0  0  0  0  0  0  0  0  0  0  0
   60.0513   27.4568   50.0509 H   0  0  0  0  0  0  0  0  0  0  0  0
   60.8390   29.4690   49.9070 C   0  0  0  0  0  0  0  0  0  0  0  0
   61.3661   29.4082   50.8706 H   0  0  0  0  0  0  0  0  0  0  0  0
   60.9070   30.6430   49.1490 C   0  0  0  0  0  0  0  0  0  0  0  0
   61.8180   32.0130   49.7610 Cl  0  0  0  0  0  0  0  0  0  0  0  0
   59.2780   33.7790   46.0460 C   0  0  0  0  0  0  0  0  0  0  0  0
   60.0597   34.4400   46.4484 H   0  0  0  0  0  0  0  0  0  0  0  0
  1  2  1  0
  2  3  1  0
  3  4  1  0
  4  5  2  0
  5  6  1  0
  6  7  2  0
  6  8  1  0
  8  9  1  0
  8 10  1  0
 10 11  1  0
 10 12  1  0
 10 13  1  0
 13 14  1  0
 13 15  1  0
  4 16  1  0
 16 17  1  0
 16 18  2  0
 18 19  1  0
 19 20  1  0
 20 21  2  0
 21 22  1  0
 21 23  1  0
 23 24  1  0
 24 25  1  0
 24 26  1  0
 26 27  2  0
 26 28  1  0
 28 29  2  3
 29 30  1  0
 30 31  1  0
 31 32  1  0
 32 33  1  0
 33 34  1  0
 33 35  1  0
 33 36  1  0
 32 37  2  0
 37 38  1  0
 23 39  2  0
 39 40  1  0
 39 41  1  0
 41 42  1  0
 41 43  2  0
 43 44  1  0
 18 45  1  0
 45 46  1  0
 45  2  2  0
 13  8  1  0
 43 20  1  0
 37 29  1  0
M  CHG  2   3  -1  30  -1
M  END
>  <UniqueID>  (27) 
26

>  <SMILES>  (27) 
Cc1cc(=NC(=O)Nc2ccc(Cl)c(Oc3cc[n-]/c(=N/C(=O)C4CC4)c3)c2)[n-]o1

>  <Energy>  (27) 
365.8552148520321

>  <Genealogy>  (27) 
Cc1cc(=NC(=O)Nc2ccc(Cl)c(Oc3cc[n-]c(=NC(=O)C4CC4)c3)c2)[n-]o1 (protonated)
Cc1cc(=NC(=O)Nc2ccc(Cl)c(Oc3cc[n-]/c(=N/C(=O)C4CC4)c3)c2)[n-]o1 (cis-trans isomerization)
Cc1cc(=NC(=O)Nc2ccc(Cl)c(Oc3cc[n-]/c(=N/C(=O)C4CC4)c3)c2)[n-]o1 (3D coordinates assigned)
Cc1cc(=NC(=O)Nc2ccc(Cl)c(Oc3cc[n-]/c(=N/C(=O)C4CC4)c3)c2)[n-]o1 (nonaromatic ring conformer: 365.8552148520321 kcal/mol)

>  <smiles>  (27) 
Cc1cc(=NC(=O)Nc2ccc(Cl)c(Oc3cc[nH]c(=NC(=O)C4CC4)c3)c2)[nH]o1

>  <score_type>  (27) 
oracle

>  <origin>  (27) 
adg

>  <m_score__min__energy>  (27) 
-12.52

>  <m_primary>  (27) 
energy

$$$$
28:0
     RDKit          3D

 38 40  0  0  0  0  0  0  0  0999 V2000
   54.5360   29.3960   45.1890 H   0  0  0  0  0  0  0  0  0  0  0  0
   54.7970   29.3350   44.1800 N   0  0  0  0  0  0  0  0  0  0  0  0
   56.3260   30.1180   44.0050 S   0  0  0  0  0  0  0  0  0  0  0  0
   56.7270   30.1230   42.5560 O   0  0  0  0  0  0  0  0  0  0  0  0
   56.2210   31.5410   44.4800 O   0  0  0  0  0  0  0  0  0  0  0  0
   57.5340   29.2600   44.9540 C   0  0  0  0  0  0  0  0  0  0  0  0
   58.8940   29.5730   44.8140 C   0  0  0  0  0  0  0  0  0  0  0  0
   59.2073   30.3493   44.1004 H   0  0  0  0  0  0  0  0  0  0  0  0
   59.8520   28.9020   45.5780 C   0  0  0  0  0  0  0  0  0  0  0  0
   60.9171   29.1510   45.4617 H   0  0  0  0  0  0  0  0  0  0  0  0
   59.4620   27.9110   46.4940 C   0  0  0  0  0  0  0  0  0  0  0  0
   60.4990   27.2110   47.3320 C   0  0  0  0  0  0  0  0  0  0  0  0
   60.1473   26.1962   47.5696 H   0  0  0  0  0  0  0  0  0  0  0  0
   61.4407   27.1637   46.7654 H   0  0  0  0  0  0  0  0  0  0  0  0
   60.7330   27.9430   48.5770 N   0  0  0  0  0  0  0  0  0  0  0  0
   60.0180   28.9440   48.9970 C   0  0  0  0  0  0  0  0  0  0  0  0
   60.0110   30.1020   48.2870 N   0  0  0  0  0  0  0  0  0  0  0  0
   59.2800   31.1810   48.6830 C   0  0  0  0  0  0  0  0  0  0  0  0
   59.3080   32.4180   47.8620 C   0  0  0  0  0  0  0  0  0  0  0  0
   58.3720   32.5910   46.8240 C   0  0  0  0  0  0  0  0  0  0  0  0
   57.6216   31.8104   46.6303 H   0  0  0  0  0  0  0  0  0  0  0  0
   58.3890   33.7480   46.0370 C   0  0  0  0  0  0  0  0  0  0  0  0
   57.6493   33.8756   45.2329 H   0  0  0  0  0  0  0  0  0  0  0  0
   59.3420   34.7400   46.2700 C   0  0  0  0  0  0  0  0  0  0  0  0
   59.3513   35.6498   45.6518 H   0  0  0  0  0  0  0  0  0  0  0  0
   60.2840   34.5780   47.2880 C   0  0  0  0  0  0  0  0  0  0  0  0
   61.0366   35.3597   47.4685 H   0  0  0  0  0  0  0  0  0  0  0  0
   60.2730   33.4240   48.0790 C   0  0  0  0  0  0  0  0  0  0  0  0
   61.0217   33.3003   48.8753 H   0  0  0  0  0  0  0  0  0  0  0  0
   58.5040   31.0840   49.8500 C   0  0  0  0  0  0  0  0  0  0  0  0
   57.8937   31.9336   50.1902 H   0  0  0  0  0  0  0  0  0  0  0  0
   58.5230   29.8880   50.5690 C   0  0  0  0  0  0  0  0  0  0  0  0
   57.8380   29.7700   51.6190 O   0  0  0  0  0  0  0  0  0  0  0  0
   59.2760   28.8470   50.1340 N   0  0  0  0  0  0  0  0  0  0  0  0
   58.0990   27.6080   46.6390 C   0  0  0  0  0  0  0  0  0  0  0  0
   57.7833   26.8375   47.3578 H   0  0  0  0  0  0  0  0  0  0  0  0
   57.1410   28.2800   45.8750 C   0  0  0  0  0  0  0  0  0  0  0  0
   56.0748   28.0387   45.9971 H   0  0  0  0  0  0  0  0  0  0  0  0
  1  2  1  0
  2  3  1  0
  3  4  2  0
  3  5  2  0
  3  6  1  0
  6  7  2  0
  7  8  1  0
  7  9  1  0
  9 10  1  0
  9 11  2  0
 11 12  1  0
 12 13  1  0
 12 14  1  0
 12 15  1  0
 15 16  2  0
 16 17  1  0
 17 18  1  0
 18 19  1  0
 19 20  2  0
 20 21  1  0
 20 22  1  0
 22 23  1  0
 22 24  2  0
 24 25  1  0
 24 26  1  0
 26 27  1  0
 26 28  2  0
 28 29  1  0
 18 30  2  0
 30 31  1  0
 30 32  1  0
 32 33  2  0
 32 34  1  0
 11 35  1  0
 35 36  1  0
 35 37  2  0
 37 38  1  0
 37  6  1  0
 34 16  1  0
 28 19  1  0
M  CHG  3   2  -1  17  -1  34  -1
M  END
>  <UniqueID>  (28) 
27

>  <SMILES>  (28) 
[NH-]S(=O)(=O)c1ccc(C/N=c2/[n-]c(-c3ccccc3)cc(=O)[n-]2)cc1

>  <Energy>  (28) 
44.70369522773451

>  <Genealogy>  (28) 
[NH-]S(=O)(=O)c1ccc(CN=c2[n-]c(-c3ccccc3)cc(=O)[n-]2)cc1 (protonated)
[NH-]S(=O)(=O)c1ccc(C/N=c2/[n-]c(-c3ccccc3)cc(=O)[n-]2)cc1 (cis-trans isomerization)
[NH-]S(=O)(=O)c1ccc(C/N=c2/[n-]c(-c3ccccc3)cc(=O)[n-]2)cc1 (3D coordinates assigned)
[NH-]S(=O)(=O)c1ccc(C/N=c2/[n-]c(-c3ccccc3)cc(=O)[n-]2)cc1 (optimized conformer: 44.70369522773451 kcal/mol)

>  <smiles>  (28) 
NS(=O)(=O)c1ccc(CN=c2[nH]c(-c3ccccc3)cc(=O)[nH]2)cc1

>  <score_type>  (28) 
oracle

>  <origin>  (28) 
adg

>  <m_score__min__energy>  (28) 
-12.35

>  <m_primary>  (28) 
energy

$$$$
29:0
     RDKit          3D

 24 25  0  0  0  0  0  0  0  0999 V2000
   60.2200   28.3230   44.8450 O   0  0  0  0  0  0  0  0  0  0  0  0
   59.3370   28.5290   45.7210 C   0  0  0  0  0  0  0  0  0  0  0  0
   59.2240   29.8100   46.3640 N   0  0  0  0  0  0  0  0  0  0  0  0
   58.6590   30.8890   45.9010 C   0  0  0  0  0  0  0  0  0  0  0  0
   57.4780   30.8470   45.2470 N   0  0  0  0  0  0  0  0  0  0  0  0
   57.0700   32.0810   44.8510 C   0  0  0  0  0  0  0  0  0  0  0  0
   57.9380   33.1110   45.1940 C   0  0  0  0  0  0  0  0  0  0  0  0
   57.7500   34.4980   44.8990 N   0  0  0  0  0  0  0  0  0  0  0  0
   56.6040   34.9560   44.7160 O   0  0  0  0  0  0  0  0  0  0  0  0
   58.8360   35.3390   44.8160 O   0  0  0  0  0  0  0  0  0  0  0  0
   59.2560   32.4680   46.0190 S   0  0  0  0  0  0  0  0  0  0  0  0
   58.4050   27.4360   46.0910 C   0  0  0  0  0  0  0  0  0  0  0  0
   58.8890   26.2450   46.6660 C   0  0  0  0  0  0  0  0  0  0  0  0
   58.0100   25.2170   47.0130 C   0  0  0  0  0  0  0  0  0  0  0  0
   56.6330   25.3600   46.7920 C   0  0  0  0  0  0  0  0  0  0  0  0
   55.7520   24.3370   47.1360 O   0  0  0  0  0  0  0  0  0  0  0  0
   56.1430   26.5380   46.2200 C   0  0  0  0  0  0  0  0  0  0  0  0
   54.7790   26.6890   45.9970 O   0  0  0  0  0  0  0  0  0  0  0  0
   57.0210   27.5690   45.8720 C   0  0  0  0  0  0  0  0  0  0  0  0
   56.1307   32.2508   44.3043 H   0  0  0  0  0  0  0  0  0  0  0  0
   59.9678   26.1236   46.8431 H   0  0  0  0  0  0  0  0  0  0  0  0
   58.3996   24.2912   47.4616 H   0  0  0  0  0  0  0  0  0  0  0  0
   54.7490   24.4760   47.1310 H   0  0  0  0  0  0  0  0  0  0  0  0
   56.6265   28.4925   45.4230 H   0  0  0  0  0  0  0  0  0  0  0  0
  1  2  2  0
  2  3  1  0
  3  4  2  3
  4  5  1  0
  5  6  1  0
  6  7  2  0
  7  8  1  0
  8  9  2  0
  8 10  1  0
  7 11  1  0
  2 12  1  0
 12 13  2  0
 13 14  1  0
 14 15  2  0
 15 16  1  0
 15 17  1  0
 17 18  1  0
 17 19  2  0
 11  4  1  0
 19 12  1  0
  6 20  1  0
 13 21  1  0
 14 22  1  0
 16 23  1  0
 19 24  1  0
M  CHG  4   5  -1   8   1  10  -1  18  -1
M  END
>  <UniqueID>  (29) 
28

>  <SMILES>  (29) 
O=C(N=c1[n-]cc([N+](=O)[O-])s1)c1ccc(O)c([O-])c1

>  <Energy>  (29) 
59.83179133975764

>  <Genealogy>  (29) 
O=C(N=c1[n-]cc([N+](=O)[O-])s1)c1ccc(O)c([O-])c1 (protonated)
O=C(N=c1[n-]cc([N+](=O)[O-])s1)c1ccc(O)c([O-])c1 (3D coordinates assigned)
O=C(N=c1[n-]cc([N+](=O)[O-])s1)c1ccc(O)c([O-])c1 (optimized conformer: 59.83179133975764 kcal/mol)

>  <smiles>  (29) 
O=C(N=c1[nH]cc([N+](=O)[O-])s1)c1ccc(O)c(O)c1

>  <score_type>  (29) 
oracle

>  <origin>  (29) 
adg

>  <m_score__min__energy>  (29) 
-11.83

>  <m_primary>  (29) 
energy

$$$$
30:0
     RDKit          3D

 51 54  0  0  0  0  0  0  0  0999 V2000
   60.4570   27.5420   48.4740 C   0  0  0  0  0  0  0  0  0  0  0  0
   60.7870   26.3850   47.7170 O   0  0  0  0  0  0  0  0  0  0  0  0
   60.1350   26.0480   46.5240 C   0  0  0  0  0  0  0  0  0  0  0  0
   60.3350   24.9220   45.9910 O   0  0  0  0  0  0  0  0  0  0  0  0
   59.2050   27.0140   45.8980 C   0  0  0  0  0  0  0  0  0  0  0  0
   59.6400   27.8730   44.8730 C   0  0  0  0  0  0  0  0  0  0  0  0
   58.7530   28.7790   44.2820 C   0  0  0  0  0  0  0  0  0  0  0  0
   57.4160   28.8290   44.6960 C   0  0  0  0  0  0  0  0  0  0  0  0
   56.2740   29.9330   43.9390 S   0  0  0  0  0  0  0  0  0  0  0  0
   56.7100   30.1850   42.5240 O   0  0  0  0  0  0  0  0  0  0  0  0
   54.8900   29.3500   43.9110 O   0  0  0  0  0  0  0  0  0  0  0  0
   56.2530   31.4400   44.8010 N   0  0  0  0  0  0  0  0  0  0  0  0
   57.4070   32.1430   45.2820 C   0  0  0  0  0  0  0  0  0  0  0  0
   57.3800   33.5410   45.2880 C   0  0  0  0  0  0  0  0  0  0  0  0
   58.4740   34.2730   45.7560 C   0  0  0  0  0  0  0  0  0  0  0  0
   59.6140   33.6080   46.2320 C   0  0  0  0  0  0  0  0  0  0  0  0
   60.7070   34.3310   46.7130 C   0  0  0  0  0  0  0  0  0  0  0  0
   61.8230   33.6500   47.1990 C   0  0  0  0  0  0  0  0  0  0  0  0
   61.8670   32.2830   47.2080 N   0  0  0  0  0  0  0  0  0  0  0  0
   63.0440   31.6180   47.7970 C   0  0  0  0  0  0  0  0  0  0  0  0
   63.5170   32.3820   49.0070 C   0  0  0  0  0  0  0  0  0  0  0  0
   62.6570   32.5650   50.0990 C   0  0  0  0  0  0  0  0  0  0  0  0
   63.1250   33.2220   51.2380 C   0  0  0  0  0  0  0  0  0  0  0  0
   64.4410   33.6820   51.2810 C   0  0  0  0  0  0  0  0  0  0  0  0
   65.2740   33.4800   50.1790 C   0  0  0  0  0  0  0  0  0  0  0  0
   64.8050   32.8360   49.0750 N   0  0  0  0  0  0  0  0  0  0  0  0
   60.8080   31.5490   46.7330 C   0  0  0  0  0  0  0  0  0  0  0  0
   60.8560   30.2860   46.7490 O   0  0  0  0  0  0  0  0  0  0  0  0
   59.6580   32.1980   46.2310 C   0  0  0  0  0  0  0  0  0  0  0  0
   58.5510   31.4740   45.7480 C   0  0  0  0  0  0  0  0  0  0  0  0
   56.9760   27.9770   45.7170 C   0  0  0  0  0  0  0  0  0  0  0  0
   57.8620   27.0800   46.3160 C   0  0  0  0  0  0  0  0  0  0  0  0
   60.5234   27.3093   49.5471 H   0  0  0  0  0  0  0  0  0  0  0  0
   61.1598   28.3523   48.2304 H   0  0  0  0  0  0  0  0  0  0  0  0
   59.4324   27.8597   48.2304 H   0  0  0  0  0  0  0  0  0  0  0  0
   60.6855   27.8322   44.5335 H   0  0  0  0  0  0  0  0  0  0  0  0
   59.1069   29.4546   43.4893 H   0  0  0  0  0  0  0  0  0  0  0  0
   56.4882   34.0698   44.9205 H   0  0  0  0  0  0  0  0  0  0  0  0
   58.4415   35.3725   45.7513 H   0  0  0  0  0  0  0  0  0  0  0  0
   60.6882   35.4308   46.7088 H   0  0  0  0  0  0  0  0  0  0  0  0
   62.6816   34.2216   47.5812 H   0  0  0  0  0  0  0  0  0  0  0  0
   62.7726   30.5947   48.0957 H   0  0  0  0  0  0  0  0  0  0  0  0
   63.8519   31.5875   47.0511 H   0  0  0  0  0  0  0  0  0  0  0  0
   61.6223   32.1940   50.0585 H   0  0  0  0  0  0  0  0  0  0  0  0
   62.4581   33.3765   52.0990 H   0  0  0  0  0  0  0  0  0  0  0  0
   64.8192   34.1993   52.1751 H   0  0  0  0  0  0  0  0  0  0  0  0
   66.3124   33.8423   50.2028 H   0  0  0  0  0  0  0  0  0  0  0  0
   65.4540   32.6940   48.2710 H   0  0  0  0  0  0  0  0  0  0  0  0
   58.5823   30.3745   45.7355 H   0  0  0  0  0  0  0  0  0  0  0  0
   55.9277   28.0149   46.0482 H   0  0  0  0  0  0  0  0  0  0  0  0
   57.5082   26.4193   47.1212 H   0  0  0  0  0  0  0  0  0  0  0  0
  1  2  1  0
  2  3  1  0
  3  4  2  0
  3  5  1  0
  5  6  2  0
  6  7  1  0
  7  8  2  0
  8  9  1  0
  9 10  2  0
  9 11  2  0
  9 12  1  0
 12 13  1  0
 13 14  2  0
 14 15  1  0
 15 16  2  0
 16 17  1  0
 17 18  2  0
 18 19  1  0
 19 20  1  0
 20 21  1  0
 21 22  2  0
 22 23  1  0
 23 24  2  0
 24 25  1  0
 25 26  2  0
 19 27  1  0
 27 28  2  0
 27 29  1  0
 29 30  2  0
  8 31  1  0
 31 32  2  0
 32  5  1  0
 30 13  1  0
 29 16  1  0
 26 21  1  0
  1 33  1  0
  1 34  1  0
  1 35  1  0
  6 36  1  0
  7 37  1  0
 14 38  1  0
 15 39  1  0
 17 40  1  0
 18 41  1  0
 20 42  1  0
 20 43  1  0
 22 44  1  0
 23 45  1  0
 24 46  1  0
 25 47  1  0
 26 48  1  0
 30 49  1  0
 31 50  1  0
 32 51  1  0
M  CHG  2  12  -1  26   1
M  END
>  <UniqueID>  (30) 
29

>  <SMILES>  (30) 
COC(=O)c1ccc(S(=O)(=O)[N-]c2ccc3ccn(Cc4cccc[nH+]4)c(=O)c3c2)cc1

>  <Energy>  (30) 
63.216905091163625

>  <Genealogy>  (30) 
COC(=O)c1ccc(S(=O)(=O)[N-]c2ccc3ccn(Cc4cccc[nH+]4)c(=O)c3c2)cc1 (protonated)
COC(=O)c1ccc(S(=O)(=O)[N-]c2ccc3ccn(Cc4cccc[nH+]4)c(=O)c3c2)cc1 (3D coordinates assigned)
COC(=O)c1ccc(S(=O)(=O)[N-]c2ccc3ccn(Cc4cccc[nH+]4)c(=O)c3c2)cc1 (optimized conformer: 63.216905091163625 kcal/mol)

>  <smiles>  (30) 
COC(=O)c1ccc(S(=O)(=O)Nc2ccc3ccn(Cc4ccccn4)c(=O)c3c2)cc1

>  <score_type>  (30) 
oracle

>  <origin>  (30) 
adg

>  <m_score__min__energy>  (30) 
-9.6400000000000006

>  <m_primary>  (30) 
energy

$$$$
31:0
     RDKit          3D

 55 58  0  0  0  0  0  0  0  0999 V2000
   64.4910   33.3620   48.5260 N   0  0  0  0  0  0  0  0  0  0  0  0
   64.8030   32.8620   49.8310 C   0  0  0  0  0  0  0  0  0  0  0  0
   66.0540   32.2690   50.0620 C   0  0  0  0  0  0  0  0  0  0  0  0
   66.3810   31.7770   51.3280 C   0  0  0  0  0  0  0  0  0  0  0  0
   65.4650   31.8790   52.3750 C   0  0  0  0  0  0  0  0  0  0  0  0
   64.2170   32.4680   52.1590 C   0  0  0  0  0  0  0  0  0  0  0  0
   63.8650   32.9440   50.8810 C   0  0  0  0  0  0  0  0  0  0  0  0
   62.5790   33.5390   50.6450 N   0  0  0  0  0  0  0  0  0  0  0  0
   61.8450   33.5040   49.4100 C   0  0  0  0  0  0  0  0  0  0  0  0
   61.6290   34.5880   48.8060 O   0  0  0  0  0  0  0  0  0  0  0  0
   61.3810   32.2310   48.8100 C   0  0  0  0  0  0  0  0  0  0  0  0
   60.5660   31.3510   49.5390 C   0  0  0  0  0  0  0  0  0  0  0  0
   60.0750   30.1880   48.9460 C   0  0  0  0  0  0  0  0  0  0  0  0
   60.4090   29.8600   47.6200 C   0  0  0  0  0  0  0  0  0  0  0  0
   59.8240   28.6510   46.9790 C   0  0  0  0  0  0  0  0  0  0  0  0
   60.3160   27.3690   47.2860 C   0  0  0  0  0  0  0  0  0  0  0  0
   59.8260   26.2450   46.6200 C   0  0  0  0  0  0  0  0  0  0  0  0
   58.8590   26.3860   45.6220 C   0  0  0  0  0  0  0  0  0  0  0  0
   58.3540   27.6510   45.2930 C   0  0  0  0  0  0  0  0  0  0  0  0
   57.4120   27.7710   44.2060 N   0  0  0  0  0  0  0  0  0  0  0  0
   57.1820   28.9950   43.4330 C   0  0  0  0  0  0  0  0  0  0  0  0
   56.4930   30.0590   44.2430 C   0  0  0  0  0  0  0  0  0  0  0  0
   55.6320   29.7120   45.0940 O   0  0  0  0  0  0  0  0  0  0  0  0
   56.7860   31.4470   44.0310 N   0  0  0  0  0  0  0  0  0  0  0  0
   57.4310   32.3390   44.9530 C   0  0  0  0  0  0  0  0  0  0  0  0
   57.7850   31.9440   46.2580 C   0  0  0  0  0  0  0  0  0  0  0  0
   58.4780   32.8230   47.0970 C   0  0  0  0  0  0  0  0  0  0  0  0
   58.8230   34.0980   46.6440 C   0  0  0  0  0  0  0  0  0  0  0  0
   58.4870   34.4920   45.3470 C   0  0  0  0  0  0  0  0  0  0  0  0
   57.8010   33.6150   44.5040 C   0  0  0  0  0  0  0  0  0  0  0  0
   58.8170   28.7760   46.0020 C   0  0  0  0  0  0  0  0  0  0  0  0
   61.2690   30.7170   46.9090 C   0  0  0  0  0  0  0  0  0  0  0  0
   61.7500   31.8900   47.4990 C   0  0  0  0  0  0  0  0  0  0  0  0
   63.6920   34.0190   48.3830 H   0  0  0  0  0  0  0  0  0  0  0  0
   65.0430   33.0800   47.6860 H   0  0  0  0  0  0  0  0  0  0  0  0
   66.7817   32.1911   49.2408 H   0  0  0  0  0  0  0  0  0  0  0  0
   67.3615   31.3088   51.4993 H   0  0  0  0  0  0  0  0  0  0  0  0
   65.7258   31.4950   53.3723 H   0  0  0  0  0  0  0  0  0  0  0  0
   63.5047   32.5607   52.9921 H   0  0  0  0  0  0  0  0  0  0  0  0
   60.3129   31.5800   50.5847 H   0  0  0  0  0  0  0  0  0  0  0  0
   59.4187   29.5194   49.5224 H   0  0  0  0  0  0  0  0  0  0  0  0
   61.0924   27.2520   48.0564 H   0  0  0  0  0  0  0  0  0  0  0  0
   60.2023   25.2450   46.8817 H   0  0  0  0  0  0  0  0  0  0  0  0
   58.4908   25.4965   45.0898 H   0  0  0  0  0  0  0  0  0  0  0  0
   56.8370   26.9370   43.9540 H   0  0  0  0  0  0  0  0  0  0  0  0
   58.1518   29.3841   43.0893 H   0  0  0  0  0  0  0  0  0  0  0  0
   56.5288   28.7407   42.5853 H   0  0  0  0  0  0  0  0  0  0  0  0
   57.5154   30.9404   46.6187 H   0  0  0  0  0  0  0  0  0  0  0  0
   58.7516   32.5093   48.1152 H   0  0  0  0  0  0  0  0  0  0  0  0
   59.3591   34.7917   47.3084 H   0  0  0  0  0  0  0  0  0  0  0  0
   58.7631   35.4947   44.9888 H   0  0  0  0  0  0  0  0  0  0  0  0
   57.5489   33.9275   43.4799 H   0  0  0  0  0  0  0  0  0  0  0  0
   58.3865   29.7658   45.7901 H   0  0  0  0  0  0  0  0  0  0  0  0
   61.5654   30.4622   45.8808 H   0  0  0  0  0  0  0  0  0  0  0  0
   62.4224   32.5504   46.9318 H   0  0  0  0  0  0  0  0  0  0  0  0
  1  2  1  0
  2  3  2  0
  3  4  1  0
  4  5  2  0
  5  6  1  0
  6  7  2  0
  7  8  1  0
  8  9  1  0
  9 10  2  0
  9 11  1  0
 11 12  2  0
 12 13  1  0
 13 14  2  0
 14 15  1  0
 15 16  2  0
 16 17  1  0
 17 18  2  0
 18 19  1  0
 19 20  1  0
 20 21  1  0
 21 22  1  0
 22 23  2  0
 22 24  1  0
 24 25  1  0
 25 26  2  0
 26 27  1  0
 27 28  2  0
 28 29  1  0
 29 30  2  0
 19 31  2  0
 14 32  1  0
 32 33  2  0
  7  2  1  0
 33 11  1  0
 31 15  1  0
 30 25  1  0
  1 34  1  0
  1 35  1  0
  3 36  1  0
  4 37  1  0
  5 38  1  0
  6 39  1  0
 12 40  1  0
 13 41  1  0
 16 42  1  0
 17 43  1  0
 18 44  1  0
 20 45  1  0
 21 46  1  0
 21 47  1  0
 26 48  1  0
 27 49  1  0
 28 50  1  0
 29 51  1  0
 30 52  1  0
 31 53  1  0
 32 54  1  0
 33 55  1  0
M  CHG  2   8  -1  24  -1
M  END
>  <UniqueID>  (31) 
30

>  <SMILES>  (31) 
Nc1ccccc1[N-]C(=O)c1ccc(-c2cccc(NCC(=O)[N-]c3ccccc3)c2)cc1

>  <Energy>  (31) 
71.64578427487504

>  <Genealogy>  (31) 
Nc1ccccc1[N-]C(=O)c1ccc(-c2cccc(NCC(=O)[N-]c3ccccc3)c2)cc1 (protonated)
Nc1ccccc1[N-]C(=O)c1ccc(-c2cccc(NCC(=O)[N-]c3ccccc3)c2)cc1 (3D coordinates assigned)
Nc1ccccc1[N-]C(=O)c1ccc(-c2cccc(NCC(=O)[N-]c3ccccc3)c2)cc1 (optimized conformer: 71.64578427487504 kcal/mol)

>  <smiles>  (31) 
Nc1ccccc1NC(=O)c1ccc(-c2cccc(NCC(=O)Nc3ccccc3)c2)cc1

>  <score_type>  (31) 
oracle

>  <origin>  (31) 
adg

>  <m_score__min__energy>  (31) 
-11.460000000000001

>  <m_primary>  (31) 
energy

$$$$
32:0
     RDKit          3D

 54 57  0  0  0  0  0  0  0  0999 V2000
   54.6010   28.8048   52.1464 H   0  0  0  0  0  0  0  0  0  0  0  0
   55.3010   29.4530   52.6940 C   0  0  0  0  0  0  0  0  0  0  0  0
   56.2880   30.1060   52.0250 N   0  0  0  0  0  0  0  0  0  0  0  0
   57.1640   30.9130   52.6800 C   0  0  0  0  0  0  0  0  0  0  0  0
   58.0880   31.5260   51.9970 N   0  0  0  0  0  0  0  0  0  0  0  0
   58.5210   31.2270   50.6610 C   0  0  0  0  0  0  0  0  0  0  0  0
   59.0190   29.9950   50.3900 N   0  0  0  0  0  0  0  0  0  0  0  0
   59.4480   29.6800   49.1370 C   0  0  0  0  0  0  0  0  0  0  0  0
   59.9060   28.4940   48.8560 N   0  0  0  0  0  0  0  0  0  0  0  0
   59.4210   27.5870   47.8500 C   0  0  0  0  0  0  0  0  0  0  0  0
   60.2180   26.5570   47.3120 C   0  0  0  0  0  0  0  0  0  0  0  0
   61.2581   26.4370   47.6492 H   0  0  0  0  0  0  0  0  0  0  0  0
   59.6940   25.6880   46.3530 C   0  0  0  0  0  0  0  0  0  0  0  0
   60.3128   24.8688   45.9580 H   0  0  0  0  0  0  0  0  0  0  0  0
   58.3850   25.8570   45.8940 C   0  0  0  0  0  0  0  0  0  0  0  0
   57.9671   25.1544   45.1580 H   0  0  0  0  0  0  0  0  0  0  0  0
   57.6020   26.9200   46.3690 C   0  0  0  0  0  0  0  0  0  0  0  0
   56.2240   27.0960   45.8710 C   0  0  0  0  0  0  0  0  0  0  0  0
   55.9270   28.1490   45.2470 O   0  0  0  0  0  0  0  0  0  0  0  0
   55.2040   26.1110   46.0930 N   0  0  0  0  0  0  0  0  0  0  0  0
   55.2660   24.7350   45.6160 C   0  0  0  0  0  0  0  0  0  0  0  0
   55.2969   24.0498   46.4760 H   0  0  0  0  0  0  0  0  0  0  0  0
   54.3767   24.5180   45.0060 H   0  0  0  0  0  0  0  0  0  0  0  0
   56.1712   24.5988   45.0060 H   0  0  0  0  0  0  0  0  0  0  0  0
   58.1240   27.7760   47.3510 C   0  0  0  0  0  0  0  0  0  0  0  0
   57.5092   28.6041   47.7335 H   0  0  0  0  0  0  0  0  0  0  0  0
   59.3540   30.6060   48.1490 N   0  0  0  0  0  0  0  0  0  0  0  0
   58.8600   31.8470   48.4070 C   0  0  0  0  0  0  0  0  0  0  0  0
   58.7560   32.8250   47.3530 N   0  0  0  0  0  0  0  0  0  0  0  0
   58.3340   32.3960   46.0100 C   0  0  0  0  0  0  0  0  0  0  0  0
   59.1779   31.8919   45.5163 H   0  0  0  0  0  0  0  0  0  0  0  0
   57.4768   31.7161   46.1234 H   0  0  0  0  0  0  0  0  0  0  0  0
   57.8870   33.5860   45.1400 C   0  0  1  0  0  0  0  0  0  0  0  0
   57.7115   33.2225   44.1167 H   0  0  0  0  0  0  0  0  0  0  0  0
   56.6360   34.1530   45.6520 N   0  0  0  0  0  0  0  0  0  0  0  0
   56.7010   35.1960   45.6070 H   0  0  0  0  0  0  0  0  0  0  0  0
   56.5510   33.9160   46.6680 H   0  0  0  0  0  0  0  0  0  0  0  0
   58.9910   34.6660   45.0900 C   0  0  0  0  0  0  0  0  0  0  0  0
   59.7666   34.3331   44.3846 H   0  0  0  0  0  0  0  0  0  0  0  0
   58.5022   35.6011   44.7791 H   0  0  0  0  0  0  0  0  0  0  0  0
   59.6690   34.9530   46.4580 C   0  0  2  0  0  0  0  0  0  0  0  0
   59.5785   36.0336   46.6427 H   0  0  0  0  0  0  0  0  0  0  0  0
   61.0880   34.5800   46.4020 N   0  0  0  0  0  0  0  0  0  0  0  0
   61.2180   33.8180   45.6950 H   0  0  0  0  0  0  0  0  0  0  0  0
   61.3750   34.2000   47.3350 H   0  0  0  0  0  0  0  0  0  0  0  0
   58.9660   34.2530   47.6410 C   0  0  0  0  0  0  0  0  0  0  0  0
   59.5906   34.3514   48.5411 H   0  0  0  0  0  0  0  0  0  0  0  0
   57.9869   34.7283   47.8007 H   0  0  0  0  0  0  0  0  0  0  0  0
   58.4470   32.1490   49.6660 N   0  0  0  0  0  0  0  0  0  0  0  0
   57.0530   31.0680   54.0300 N   0  0  0  0  0  0  0  0  0  0  0  0
   56.0820   30.4330   54.7330 C   0  0  0  0  0  0  0  0  0  0  0  0
   56.0103   30.5720   55.8218 H   0  0  0  0  0  0  0  0  0  0  0  0
   55.1760   29.6050   54.0750 C   0  0  0  0  0  0  0  0  0  0  0  0
   54.3820   29.0841   54.6301 H   0  0  0  0  0  0  0  0  0  0  0  0
  1  2  1  0
  2  3  2  0
  3  4  1  0
  4  5  2  3
  5  6  1  0
  6  7  2  0
  7  8  1  0
  8  9  2  0
  9 10  1  0
 10 11  2  0
 11 12  1  0
 11 13  1  0
 13 14  1  0
 13 15  2  0
 15 16  1  0
 15 17  1  0
 17 18  1  0
 18 19  2  0
 18 20  1  0
 20 21  1  0
 21 22  1  0
 21 23  1  0
 21 24  1  0
 17 25  2  0
 25 26  1  0
  8 27  1  0
 27 28  2  0
 28 29  1  0
 29 30  1  0
 30 31  1  0
 30 32  1  0
 30 33  1  0
 33 34  1  6
 33 35  1  0
 35 36  1  0
 35 37  1  0
 33 38  1  0
 38 39  1  0
 38 40  1  0
 38 41  1  0
 41 42  1  1
 41 43  1  0
 43 44  1  0
 43 45  1  0
 41 46  1  0
 46 47  1  0
 46 48  1  0
 28 49  1  0
  4 50  1  0
 50 51  1  0
 51 52  1  0
 51 53  2  0
 53 54  1  0
 53  2  1  0
 49  6  1  0
 25 10  1  0
 46 29  1  0
M  CHG  3  20  -1  49  -1  50  -1
M  END
>  <UniqueID>  (32) 
31

>  <SMILES>  (32) 
C[N-]C(=O)c1cccc(/N=c2\nc(N=c3nccc[n-]3)[n-]c(N3C[C@@H](N)C[C@H](N)C3)n2)c1

>  <Energy>  (32) 
74.54222552294753

>  <Genealogy>  (32) 
C[N-]C(=O)c1cccc(N=c2nc(N=c3nccc[n-]3)[n-]c(N3CC(N)CC(N)C3)n2)c1 (protonated)
C[N-]C(=O)c1cccc(N=c2nc(N=c3nccc[n-]3)[n-]c(N3C[C@@H](N)C[C@H](N)C3)n2)c1 (chirality)
C[N-]C(=O)c1cccc(/N=c2\nc(N=c3nccc[n-]3)[n-]c(N3C[C@@H](N)C[C@H](N)C3)n2)c1 (cis-trans isomerization)
C[N-]C(=O)c1cccc(/N=c2\nc(N=c3nccc[n-]3)[n-]c(N3C[C@@H](N)C[C@H](N)C3)n2)c1 (3D coordinates assigned)
C[N-]C(=O)c1cccc(/N=c2\nc(N=c3nccc[n-]3)[n-]c(N3C[C@@H](N)C[C@H](N)C3)n2)c1 (nonaromatic ring conformer: 74.54222552294753 kcal/mol)

>  <smiles>  (32) 
CNC(=O)c1cccc(N=c2nc(N=c3nccc[nH]3)[nH]c(N3CC(N)CC(N)C3)n2)c1

>  <score_type>  (32) 
oracle

>  <origin>  (32) 
adg

>  <m_score__min__energy>  (32) 
-12.49

>  <m_primary>  (32) 
energy

$$$$
33:0
     RDKit          3D

 52 55  0  0  0  0  0  0  0  0999 V2000
   58.6260   20.9680   49.4380 H   0  0  0  0  0  0  0  0  0  0  0  0
   57.5930   20.8160   49.4880 N   0  0  0  0  0  0  0  0  0  0  0  0
   57.0220   20.7020   47.8590 S   0  0  0  0  0  0  0  0  0  0  0  0
   58.1120   20.1140   47.0060 O   0  0  0  0  0  0  0  0  0  0  0  0
   55.8160   19.8060   47.8130 O   0  0  0  0  0  0  0  0  0  0  0  0
   56.5880   22.3010   47.2660 C   0  0  0  0  0  0  0  0  0  0  0  0
   55.8130   22.4430   46.1090 C   0  0  0  0  0  0  0  0  0  0  0  0
   55.4741   21.5499   45.5635 H   0  0  0  0  0  0  0  0  0  0  0  0
   55.4680   23.7160   45.6440 C   0  0  0  0  0  0  0  0  0  0  0  0
   54.8510   23.8200   44.7393 H   0  0  0  0  0  0  0  0  0  0  0  0
   55.9070   24.8650   46.3290 C   0  0  0  0  0  0  0  0  0  0  0  0
   55.5450   26.1890   45.9030 N   0  0  0  0  0  0  0  0  0  0  0  0
   56.3190   27.2330   45.8620 C   0  0  0  0  0  0  0  0  0  0  0  0
   55.8770   28.3600   45.2480 N   0  0  0  0  0  0  0  0  0  0  0  0
   56.6500   29.4750   45.2160 C   0  0  0  0  0  0  0  0  0  0  0  0
   56.2050   30.5430   44.6240 N   0  0  0  0  0  0  0  0  0  0  0  0
   56.9470   31.3440   43.6480 C   0  0  0  0  0  0  0  0  0  0  0  0
   56.9060   30.8453   42.6684 H   0  0  0  0  0  0  0  0  0  0  0  0
   56.4875   32.3419   43.5932 H   0  0  0  0  0  0  0  0  0  0  0  0
   58.4130   31.5050   44.0670 C   0  0  0  0  0  0  0  0  0  0  0  0
   58.7722   30.5485   44.4744 H   0  0  0  0  0  0  0  0  0  0  0  0
   58.9880   31.8021   43.1776 H   0  0  0  0  0  0  0  0  0  0  0  0
   58.5910   32.5740   45.1110 C   0  0  0  0  0  0  0  0  0  0  0  0
   58.1640   32.3520   46.4310 C   0  0  0  0  0  0  0  0  0  0  0  0
   57.7113   31.3877   46.7053 H   0  0  0  0  0  0  0  0  0  0  0  0
   58.3120   33.3510   47.3970 C   0  0  0  0  0  0  0  0  0  0  0  0
   57.9948   33.1636   48.4335 H   0  0  0  0  0  0  0  0  0  0  0  0
   58.8620   34.5870   47.0490 C   0  0  0  0  0  0  0  0  0  0  0  0
   58.9661   35.3761   47.8083 H   0  0  0  0  0  0  0  0  0  0  0  0
   59.2800   34.8210   45.7360 C   0  0  0  0  0  0  0  0  0  0  0  0
   59.7106   35.7953   45.4615 H   0  0  0  0  0  0  0  0  0  0  0  0
   59.1510   33.8170   44.7710 C   0  0  0  0  0  0  0  0  0  0  0  0
   59.4896   34.0013   43.7408 H   0  0  0  0  0  0  0  0  0  0  0  0
   57.8750   29.4580   45.8070 N   0  0  0  0  0  0  0  0  0  0  0  0
   58.3290   28.3360   46.4230 C   0  0  0  0  0  0  0  0  0  0  0  0
   59.4870   28.3080   47.0170 N   0  0  0  0  0  0  0  0  0  0  0  0
   60.2090   29.4240   47.5650 C   0  0  0  0  0  0  0  0  0  0  0  0
   60.1240   29.7790   48.9260 C   0  0  0  0  0  0  0  0  0  0  0  0
   59.5038   29.1822   49.6110 H   0  0  0  0  0  0  0  0  0  0  0  0
   60.8260   30.8880   49.4080 C   0  0  0  0  0  0  0  0  0  0  0  0
   60.7722   31.1503   50.4749 H   0  0  0  0  0  0  0  0  0  0  0  0
   61.5950   31.6630   48.5380 C   0  0  0  0  0  0  0  0  0  0  0  0
   62.1528   32.5303   48.9210 H   0  0  0  0  0  0  0  0  0  0  0  0
   61.6560   31.3370   47.1810 C   0  0  0  0  0  0  0  0  0  0  0  0
   62.2537   31.9541   46.4940 H   0  0  0  0  0  0  0  0  0  0  0  0
   60.9580   30.2270   46.6950 C   0  0  0  0  0  0  0  0  0  0  0  0
   60.9973   29.9829   45.6232 H   0  0  0  0  0  0  0  0  0  0  0  0
   57.5410   27.2310   46.4590 N   0  0  0  0  0  0  0  0  0  0  0  0
   56.6450   24.7140   47.5090 C   0  0  0  0  0  0  0  0  0  0  0  0
   56.9535   25.6040   48.0771 H   0  0  0  0  0  0  0  0  0  0  0  0
   56.9930   23.4420   47.9710 C   0  0  0  0  0  0  0  0  0  0  0  0
   57.5867   23.3362   48.8910 H   0  0  0  0  0  0  0  0  0  0  0  0
  1  2  1  0
  2  3  1  0
  3  4  2  0
  3  5  2  0
  3  6  1  0
  6  7  2  0
  7  8  1  0
  7  9  1  0
  9 10  1  0
  9 11  2  0
 11 12  1  0
 12 13  2  3
 13 14  1  0
 14 15  1  0
 15 16  2  3
 16 17  1  0
 17 18  1  0
 17 19  1  0
 17 20  1  0
 20 21  1  0
 20 22  1  0
 20 23  1  0
 23 24  2  0
 24 25  1  0
 24 26  1  0
 26 27  1  0
 26 28  2  0
 28 29  1  0
 28 30  1  0
 30 31  1  0
 30 32  2  0
 32 33  1  0
 15 34  1  0
 34 35  1  0
 35 36  2  0
 36 37  1  0
 37 38  2  0
 38 39  1  0
 38 40  1  0
 40 41  1  0
 40 42  2  0
 42 43  1  0
 42 44  1  0
 44 45  1  0
 44 46  2  0
 46 47  1  0
 35 48  1  0
 11 49  1  0
 49 50  1  0
 49 51  2  0
 51 52  1  0
 51  6  1  0
 48 13  1  0
 32 23  1  0
 46 37  1  0
M  CHG  4   2  -1  14  -1  34  -1  48  -1
M  END
>  <UniqueID>  (33) 
32

>  <SMILES>  (33) 
[NH-]S(=O)(=O)c1ccc(N=c2[n-]c(=NCCc3ccccc3)[n-]/c(=N\c3ccccc3)[n-]2)cc1

>  <Energy>  (33) 
62.32777503903389

>  <Genealogy>  (33) 
[NH-]S(=O)(=O)c1ccc(N=c2[n-]c(=NCCc3ccccc3)[n-]c(=Nc3ccccc3)[n-]2)cc1 (protonated)
[NH-]S(=O)(=O)c1ccc(N=c2[n-]c(=NCCc3ccccc3)[n-]/c(=N\c3ccccc3)[n-]2)cc1 (cis-trans isomerization)
[NH-]S(=O)(=O)c1ccc(N=c2[n-]c(=NCCc3ccccc3)[n-]/c(=N\c3ccccc3)[n-]2)cc1 (3D coordinates assigned)
[NH-]S(=O)(=O)c1ccc(N=c2[n-]c(=NCCc3ccccc3)[n-]/c(=N\c3ccccc3)[n-]2)cc1 (optimized conformer: 62.32777503903389 kcal/mol)

>  <smiles>  (33) 
NS(=O)(=O)c1ccc(N=c2[nH]c(=NCCc3ccccc3)[nH]c(=Nc3ccccc3)[nH]2)cc1

>  <score_type>  (33) 
oracle

>  <origin>  (33) 
adg

>  <m_score__min__energy>  (33) 
-14.470000000000001

>  <m_primary>  (33) 
energy

$$$$
34:0
     RDKit          3D

 51 52  0  0  0  0  0  0  0  0999 V2000
   59.9690   28.9480   48.9360 C   0  0  0  0  0  0  0  0  0  0  0  0
   60.2400   29.8890   49.6390 C   0  0  0  0  0  0  0  0  0  0  0  0
   60.5740   31.0400   50.4960 C   0  0  0  0  0  0  0  0  0  0  0  0
   60.3340   32.3300   49.8030 N   0  0  1  0  0  0  0  0  0  0  0  0
   58.8860   32.6230   49.7440 C   0  0  0  0  0  0  0  0  0  0  0  0
   61.0410   33.4370   50.4970 C   0  0  0  0  0  0  0  0  0  0  0  0
   61.9920   34.2030   49.5500 C   0  0  0  0  0  0  0  0  0  0  0  0
   62.5980   33.3170   48.5410 N   0  0  0  0  0  0  0  0  0  0  0  0
   62.3570   33.8020   47.1760 C   0  0  0  0  0  0  0  0  0  0  0  0
   61.0220   33.3120   46.6820 C   0  0  0  0  0  0  0  0  0  0  0  0
   60.0580   34.2160   46.2100 C   0  0  0  0  0  0  0  0  0  0  0  0
   58.8060   33.7580   45.7900 C   0  0  0  0  0  0  0  0  0  0  0  0
   58.4950   32.3900   45.8460 C   0  0  0  0  0  0  0  0  0  0  0  0
   57.2120   31.8800   45.4550 N   0  0  0  0  0  0  0  0  0  0  0  0
   56.9520   30.5150   44.4160 S   0  0  0  0  0  0  0  0  0  0  0  0
   57.2900   30.8950   43.0000 O   0  0  0  0  0  0  0  0  0  0  0  0
   55.5040   30.1210   44.4710 O   0  0  0  0  0  0  0  0  0  0  0  0
   57.9310   29.1560   44.9590 C   0  0  0  0  0  0  0  0  0  0  0  0
   57.3960   28.1820   45.8110 C   0  0  0  0  0  0  0  0  0  0  0  0
   58.1880   27.1110   46.2370 C   0  0  0  0  0  0  0  0  0  0  0  0
   59.5260   27.0110   45.8250 C   0  0  0  0  0  0  0  0  0  0  0  0
   60.3750   25.8570   46.2590 C   0  0  0  0  0  0  0  0  0  0  0  0
   60.0540   27.9800   44.9570 C   0  0  0  0  0  0  0  0  0  0  0  0
   59.2600   29.0470   44.5310 C   0  0  0  0  0  0  0  0  0  0  0  0
   59.4570   31.4920   46.3180 C   0  0  0  0  0  0  0  0  0  0  0  0
   60.7140   31.9450   46.7270 C   0  0  0  0  0  0  0  0  0  0  0  0
   59.7217   28.0893   48.2945 H   0  0  0  0  0  0  0  0  0  0  0  0
   59.9521   31.0015   51.4025 H   0  0  0  0  0  0  0  0  0  0  0  0
   61.6431   30.9804   50.7477 H   0  0  0  0  0  0  0  0  0  0  0  0
   60.6830   32.2640   48.8140 H   0  0  0  0  0  0  0  0  0  0  0  0
   58.4863   32.7039   50.7656 H   0  0  0  0  0  0  0  0  0  0  0  0
   58.7253   33.5719   49.2112 H   0  0  0  0  0  0  0  0  0  0  0  0
   58.3691   31.8113   49.2112 H   0  0  0  0  0  0  0  0  0  0  0  0
   60.2946   34.1402   50.8951 H   0  0  0  0  0  0  0  0  0  0  0  0
   61.6468   32.9990   51.3040 H   0  0  0  0  0  0  0  0  0  0  0  0
   61.4220   34.9902   49.0349 H   0  0  0  0  0  0  0  0  0  0  0  0
   62.8032   34.6314   50.1569 H   0  0  0  0  0  0  0  0  0  0  0  0
   62.2150   32.3480   48.6400 H   0  0  0  0  0  0  0  0  0  0  0  0
   62.3645   34.9020   47.1739 H   0  0  0  0  0  0  0  0  0  0  0  0
   63.1483   33.4215   46.5134 H   0  0  0  0  0  0  0  0  0  0  0  0
   60.2889   35.2908   46.1703 H   0  0  0  0  0  0  0  0  0  0  0  0
   58.0601   34.4734   45.4134 H   0  0  0  0  0  0  0  0  0  0  0  0
   56.3510   28.2594   46.1458 H   0  0  0  0  0  0  0  0  0  0  0  0
   57.7602   26.3431   46.8983 H   0  0  0  0  0  0  0  0  0  0  0  0
   60.4048   25.8165   47.3579 H   0  0  0  0  0  0  0  0  0  0  0  0
   59.9486   24.9210   45.8690 H   0  0  0  0  0  0  0  0  0  0  0  0
   61.3955   25.9855   45.8690 H   0  0  0  0  0  0  0  0  0  0  0  0
   61.0952   27.8986   44.6118 H   0  0  0  0  0  0  0  0  0  0  0  0
   59.6809   29.8062   43.8554 H   0  0  0  0  0  0  0  0  0  0  0  0
   59.2221   30.4185   46.3679 H   0  0  0  0  0  0  0  0  0  0  0  0
   61.4651   31.2259   47.0858 H   0  0  0  0  0  0  0  0  0  0  0  0
  1  2  3  0
  2  3  1  0
  3  4  1  0
  4  5  1  0
  4  6  1  0
  6  7  1  0
  7  8  1  0
  8  9  1  0
  9 10  1  0
 10 11  2  0
 11 12  1  0
 12 13  2  0
 13 14  1  0
 14 15  1  0
 15 16  2  0
 15 17  2  0
 15 18  1  0
 18 19  2  0
 19 20  1  0
 20 21  2  0
 21 22  1  0
 21 23  1  0
 23 24  2  0
 13 25  1  0
 25 26  2  0
 26 10  1  0
 24 18  1  0
  1 27  1  0
  3 28  1  0
  3 29  1  0
  4 30  1  6
  5 31  1  0
  5 32  1  0
  5 33  1  0
  6 34  1  0
  6 35  1  0
  7 36  1  0
  7 37  1  0
  8 38  1  0
  9 39  1  0
  9 40  1  0
 11 41  1  0
 12 42  1  0
 19 43  1  0
 20 44  1  0
 22 45  1  0
 22 46  1  0
 22 47  1  0
 23 48  1  0
 24 49  1  0
 25 50  1  0
 26 51  1  0
M  CHG  2   4   1  14  -1
M  END
>  <UniqueID>  (34) 
33

>  <SMILES>  (34) 
C#CC[N@@H+](C)CCNCc1ccc([N-]S(=O)(=O)c2ccc(C)cc2)cc1

>  <Energy>  (34) 
53.86574215196562

>  <Genealogy>  (34) 
C#CC[NH+](C)CCNCc1ccc([N-]S(=O)(=O)c2ccc(C)cc2)cc1 (protonated)
C#CC[N@@H+](C)CCNCc1ccc([N-]S(=O)(=O)c2ccc(C)cc2)cc1 (chirality)
C#CC[N@@H+](C)CCNCc1ccc([N-]S(=O)(=O)c2ccc(C)cc2)cc1 (3D coordinates assigned)
C#CC[N@@H+](C)CCNCc1ccc([N-]S(=O)(=O)c2ccc(C)cc2)cc1 (optimized conformer: 53.86574215196562 kcal/mol)

>  <smiles>  (34) 
C#CCN(C)CCNCc1ccc(NS(=O)(=O)c2ccc(C)cc2)cc1

>  <score_type>  (34) 
oracle

>  <origin>  (34) 
adg

>  <m_score__min__energy>  (34) 
-8.4499999999999993

>  <m_primary>  (34) 
energy

$$$$
35:0
     RDKit          3D

 39 41  0  0  0  0  0  0  0  0999 V2000
   59.9360   34.9590   47.5890 C   0  0  0  0  0  0  0  0  0  0  0  0
   59.4910   34.8230   46.2440 O   0  0  0  0  0  0  0  0  0  0  0  0
   58.7900   33.7130   45.7500 C   0  0  0  0  0  0  0  0  0  0  0  0
   58.0790   33.7500   44.5390 C   0  0  0  0  0  0  0  0  0  0  0  0
   57.3980   32.6190   44.0880 C   0  0  0  0  0  0  0  0  0  0  0  0
   57.4070   31.4250   44.8310 C   0  0  0  0  0  0  0  0  0  0  0  0
   56.6910   30.2220   44.3260 C   0  0  0  0  0  0  0  0  0  0  0  0
   55.4530   30.1060   44.5320 O   0  0  0  0  0  0  0  0  0  0  0  0
   57.3910   29.1250   43.5690 C   0  0  0  0  0  0  0  0  0  0  0  0
   58.3590   28.4450   44.4310 N   0  0  0  0  0  0  0  0  0  0  0  0
   59.6970   28.6670   44.4930 C   0  0  0  0  0  0  0  0  0  0  0  0
   60.3070   27.8940   45.4250 N   0  0  0  0  0  0  0  0  0  0  0  0
   59.3120   27.1670   45.9600 C   0  0  0  0  0  0  0  0  0  0  0  0
   59.3900   26.2060   46.9660 C   0  0  0  0  0  0  0  0  0  0  0  0
   58.1950   25.5730   47.3560 C   0  0  0  0  0  0  0  0  0  0  0  0
   56.9690   25.9090   46.7360 C   0  0  0  0  0  0  0  0  0  0  0  0
   56.9260   26.8840   45.7210 C   0  0  0  0  0  0  0  0  0  0  0  0
   58.1280   27.4960   45.3610 C   0  0  0  0  0  0  0  0  0  0  0  0
   58.1180   31.3830   46.0530 C   0  0  0  0  0  0  0  0  0  0  0  0
   58.1140   30.1990   46.8110 O   0  0  0  0  0  0  0  0  0  0  0  0
   58.9060   29.9730   47.9720 C   0  0  0  0  0  0  0  0  0  0  0  0
   58.8060   32.5320   46.4950 C   0  0  0  0  0  0  0  0  0  0  0  0
   59.1133   34.7076   48.2746 H   0  0  0  0  0  0  0  0  0  0  0  0
   60.7818   34.2783   47.7660 H   0  0  0  0  0  0  0  0  0  0  0  0
   60.2568   35.9962   47.7660 H   0  0  0  0  0  0  0  0  0  0  0  0
   58.0591   34.6748   43.9437 H   0  0  0  0  0  0  0  0  0  0  0  0
   56.8460   32.6618   43.1375 H   0  0  0  0  0  0  0  0  0  0  0  0
   56.6462   28.3966   43.2159 H   0  0  0  0  0  0  0  0  0  0  0  0
   57.9242   29.5666   42.7142 H   0  0  0  0  0  0  0  0  0  0  0  0
   60.2267   29.3926   43.8583 H   0  0  0  0  0  0  0  0  0  0  0  0
   61.3210   27.8680   45.6670 H   0  0  0  0  0  0  0  0  0  0  0  0
   60.3504   25.9514   47.4381 H   0  0  0  0  0  0  0  0  0  0  0  0
   58.2147   24.8111   48.1491 H   0  0  0  0  0  0  0  0  0  0  0  0
   56.0426   25.4051   47.0489 H   0  0  0  0  0  0  0  0  0  0  0  0
   55.9796   27.1537   45.2295 H   0  0  0  0  0  0  0  0  0  0  0  0
   58.2966   30.1469   48.8711 H   0  0  0  0  0  0  0  0  0  0  0  0
   59.2703   28.9351   47.9710 H   0  0  0  0  0  0  0  0  0  0  0  0
   59.7632   30.6624   47.9710 H   0  0  0  0  0  0  0  0  0  0  0  0
   59.3644   32.4973   47.4421 H   0  0  0  0  0  0  0  0  0  0  0  0
  1  2  1  0
  2  3  1  0
  3  4  2  0
  4  5  1  0
  5  6  2  0
  6  7  1  0
  7  8  2  0
  7  9  1  0
  9 10  1  0
 10 11  1  0
 11 12  2  0
 12 13  1  0
 13 14  2  0
 14 15  1  0
 15 16  2  0
 16 17  1  0
 17 18  2  0
  6 19  1  0
 19 20  1  0
 20 21  1  0
 19 22  2  0
 22  3  1  0
 18 10  1  0
 18 13  1  0
  1 23  1  0
  1 24  1  0
  1 25  1  0
  4 26  1  0
  5 27  1  0
  9 28  1  0
  9 29  1  0
 11 30  1  0
 12 31  1  0
 14 32  1  0
 15 33  1  0
 16 34  1  0
 17 35  1  0
 21 36  1  0
 21 37  1  0
 21 38  1  0
 22 39  1  0
M  CHG  1  12   1
M  END
>  <UniqueID>  (35) 
34

>  <SMILES>  (35) 
COc1ccc(C(=O)Cn2c[nH+]c3ccccc32)c(OC)c1

>  <Energy>  (35) 
81.90562228961565

>  <Genealogy>  (35) 
COc1ccc(C(=O)Cn2c[nH+]c3ccccc32)c(OC)c1 (protonated)
COc1ccc(C(=O)Cn2c[nH+]c3ccccc32)c(OC)c1 (3D coordinates assigned)
COc1ccc(C(=O)Cn2c[nH+]c3ccccc32)c(OC)c1 (optimized conformer: 81.90562228961565 kcal/mol)

>  <smiles>  (35) 
COc1ccc(C(=O)Cn2cnc3ccccc32)c(OC)c1

>  <score_type>  (35) 
oracle

>  <origin>  (35) 
adg

>  <m_score__min__energy>  (35) 
-5.6500000000000004

>  <m_primary>  (35) 
energy

$$$$
36:0
     RDKit          3D

 35 37  0  0  0  0  0  0  0  0999 V2000
   56.5840   19.1730   43.4920 H   0  0  0  0  0  0  0  0  0  0  0  0
   55.9360   19.9860   43.3880 N   0  0  0  0  0  0  0  0  0  0  0  0
   56.3020   21.1870   43.6970 C   0  0  0  0  0  0  0  0  0  0  0  0
   55.8380   22.2520   42.9910 N   0  0  0  0  0  0  0  0  0  0  0  0
   56.2060   23.5220   43.3010 C   0  0  0  0  0  0  0  0  0  0  0  0
   55.8208   24.3692   42.7146 H   0  0  0  0  0  0  0  0  0  0  0  0
   57.0830   23.7460   44.3770 C   0  0  0  0  0  0  0  0  0  0  0  0
   57.5320   25.1100   44.7470 C   0  0  0  0  0  0  0  0  0  0  0  0
   57.7810   26.0520   43.7350 C   0  0  0  0  0  0  0  0  0  0  0  0
   57.6434   25.7687   42.6810 H   0  0  0  0  0  0  0  0  0  0  0  0
   58.2020   27.3460   44.0550 C   0  0  0  0  0  0  0  0  0  0  0  0
   58.3933   28.0744   43.2532 H   0  0  0  0  0  0  0  0  0  0  0  0
   58.3810   27.7180   45.3940 C   0  0  0  0  0  0  0  0  0  0  0  0
   58.8310   29.0840   45.7290 C   0  0  0  0  0  0  0  0  0  0  0  0
   60.0520   29.2370   46.4070 C   0  0  0  0  0  0  0  0  0  0  0  0
   60.6549   28.3502   46.6521 H   0  0  0  0  0  0  0  0  0  0  0  0
   60.5060   30.5050   46.7720 C   0  0  0  0  0  0  0  0  0  0  0  0
   61.4630   30.6140   47.3033 H   0  0  0  0  0  0  0  0  0  0  0  0
   59.7480   31.6340   46.4640 C   0  0  0  0  0  0  0  0  0  0  0  0
   60.1030   32.6317   46.7615 H   0  0  0  0  0  0  0  0  0  0  0  0
   58.5380   31.5000   45.7780 C   0  0  0  0  0  0  0  0  0  0  0  0
   57.9454   32.3950   45.5375 H   0  0  0  0  0  0  0  0  0  0  0  0
   58.0720   30.2320   45.3930 C   0  0  0  0  0  0  0  0  0  0  0  0
   56.5600   30.1280   44.4750 S   0  0  0  0  0  0  0  0  0  0  0  0
   56.8460   29.7650   43.0450 O   0  0  0  0  0  0  0  0  0  0  0  0
   55.8570   31.4570   44.4940 O   0  0  0  0  0  0  0  0  0  0  0  0
   55.5270   28.9350   45.1790 N   0  0  0  0  0  0  0  0  0  0  0  0
   54.5690   29.3470   45.2210 H   0  0  0  0  0  0  0  0  0  0  0  0
   58.1680   26.7740   46.4070 C   0  0  0  0  0  0  0  0  0  0  0  0
   58.3340   27.0538   47.4578 H   0  0  0  0  0  0  0  0  0  0  0  0
   57.7460   25.4790   46.0920 C   0  0  0  0  0  0  0  0  0  0  0  0
   57.5990   24.5790   47.0970 F   0  0  0  0  0  0  0  0  0  0  0  0
   57.5560   22.6730   45.0680 N   0  0  0  0  0  0  0  0  0  0  0  0
   57.1850   21.4040   44.7580 C   0  0  0  0  0  0  0  0  0  0  0  0
   57.5761   20.5544   45.3370 H   0  0  0  0  0  0  0  0  0  0  0  0
  1  2  1  0
  2  3  2  0
  3  4  1  0
  4  5  1  0
  5  6  1  0
  5  7  2  0
  7  8  1  0
  8  9  2  0
  9 10  1  0
  9 11  1  0
 11 12  1  0
 11 13  2  0
 13 14  1  0
 14 15  2  0
 15 16  1  0
 15 17  1  0
 17 18  1  0
 17 19  2  0
 19 20  1  0
 19 21  1  0
 21 22  1  0
 21 23  2  0
 23 24  1  0
 24 25  2  0
 24 26  2  0
 24 27  1  0
 27 28  1  0
 13 29  1  0
 29 30  1  0
 29 31  2  0
 31 32  1  0
  7 33  1  0
 33 34  2  0
 34 35  1  0
 34  3  1  0
 31  8  1  0
 23 14  1  0
M  CHG  2   4  -1  27  -1
M  END
>  <UniqueID>  (36) 
35

>  <SMILES>  (36) 
[H]/N=c1/cnc(-c2ccc(-c3ccccc3S([NH-])(=O)=O)cc2F)c[n-]1

>  <Energy>  (36) 
53.20322982929575

>  <Genealogy>  (36) 
N=c1cnc(-c2ccc(-c3ccccc3S([NH-])(=O)=O)cc2F)c[n-]1 (protonated)
[H]/N=c1/cnc(-c2ccc(-c3ccccc3S([NH-])(=O)=O)cc2F)c[n-]1 (cis-trans isomerization)
[H]/N=c1/cnc(-c2ccc(-c3ccccc3S([NH-])(=O)=O)cc2F)c[n-]1 (3D coordinates assigned)
[H]/N=c1/cnc(-c2ccc(-c3ccccc3S([NH-])(=O)=O)cc2F)c[n-]1 (optimized conformer: 53.20322982929575 kcal/mol)

>  <smiles>  (36) 
N=c1cnc(-c2ccc(-c3ccccc3S(N)(=O)=O)cc2F)c[nH]1

>  <score_type>  (36) 
oracle

>  <origin>  (36) 
adg

>  <m_score__min__energy>  (36) 
-12.77

>  <m_primary>  (36) 
energy

$$$$
37:0
     RDKit          3D

 25 26  0  0  0  0  0  0  0  0999 V2000
   59.8700   30.9640   46.3530 O   0  0  0  0  0  0  0  0  0  0  0  0
   59.2110   32.0350   46.4840 C   0  0  0  0  0  0  0  0  0  0  0  0
   59.1070   32.6720   47.8020 C   0  0  0  0  0  0  0  0  0  0  0  0
   59.3540   34.1480   47.8130 C   0  0  0  0  0  0  0  0  0  0  0  0
   58.7850   34.8680   46.6270 C   0  0  0  0  0  0  0  0  0  0  0  0
   59.6450   34.6310   45.4160 C   0  0  0  0  0  0  0  0  0  0  0  0
   58.8600   33.7090   44.5090 C   0  0  0  0  0  0  0  0  0  0  0  0
   58.6290   32.4840   45.2400 N   0  0  0  0  0  0  0  0  0  0  0  0
   57.6950   31.6220   44.6260 C   0  0  0  0  0  0  0  0  0  0  0  0
   56.8700   30.8480   44.9060 N   0  0  0  0  0  0  0  0  0  0  0  0
   56.0880   30.1300   44.1240 C   0  0  0  0  0  0  0  0  0  0  0  0
   55.2190   29.3120   44.5870 O   0  0  0  0  0  0  0  0  0  0  0  0
   56.2610   30.3080   42.8270 N   0  0  0  0  0  0  0  0  0  0  0  0
   57.6110   31.5690   42.7200 S   0  0  0  0  0  0  0  0  0  0  0  0
   58.0927   32.4930   48.1883 H   0  0  0  0  0  0  0  0  0  0  0  0
   59.8966   32.2238   48.4229 H   0  0  0  0  0  0  0  0  0  0  0  0
   58.9013   34.5682   48.7232 H   0  0  0  0  0  0  0  0  0  0  0  0
   60.4443   34.2896   47.7797 H   0  0  0  0  0  0  0  0  0  0  0  0
   57.7685   34.4968   46.4295 H   0  0  0  0  0  0  0  0  0  0  0  0
   58.7550   35.9465   46.8413 H   0  0  0  0  0  0  0  0  0  0  0  0
   59.8521   35.5824   44.9043 H   0  0  0  0  0  0  0  0  0  0  0  0
   60.6126   34.1880   45.6943 H   0  0  0  0  0  0  0  0  0  0  0  0
   57.9000   34.1735   44.2393 H   0  0  0  0  0  0  0  0  0  0  0  0
   59.4147   33.5103   43.5801 H   0  0  0  0  0  0  0  0  0  0  0  0
   55.8380   29.9250   41.9600 H   0  0  0  0  0  0  0  0  0  0  0  0
  1  2  2  0
  2  3  1  0
  3  4  1  0
  4  5  1  0
  5  6  1  0
  6  7  1  0
  7  8  1  0
  8  9  1  0
  9 10  2  0
 10 11  1  0
 11 12  2  0
 11 13  1  0
 13 14  1  0
  8  2  1  0
 14  9  1  0
  3 15  1  0
  3 16  1  0
  4 17  1  0
  4 18  1  0
  5 19  1  0
  5 20  1  0
  6 21  1  0
  6 22  1  0
  7 23  1  0
  7 24  1  0
 13 25  1  0
M  END
>  <smiles>  (37) 
O=C1CCCCCN1c1nc(=O)[nH]s1

>  <score_type>  (37) 
oracle

>  <origin>  (37) 
adg

>  <m_score__min__energy>  (37) 
-5.21

>  <m_primary>  (37) 
energy

$$$$
38:0
     RDKit          3D

 33 35  0  0  0  0  0  0  0  0999 V2000
   60.4760   28.9620   44.9130 C   0  0  0  0  0  0  0  0  0  0  0  0
   59.5260   28.0590   45.6510 C   0  0  0  0  0  0  0  0  0  0  0  0
   59.9580   27.3760   46.7990 C   0  0  0  0  0  0  0  0  0  0  0  0
   59.0850   26.5340   47.4910 C   0  0  0  0  0  0  0  0  0  0  0  0
   57.7770   26.3650   47.0440 C   0  0  0  0  0  0  0  0  0  0  0  0
   57.3350   27.0360   45.9010 C   0  0  0  0  0  0  0  0  0  0  0  0
   58.2050   27.8830   45.1890 C   0  0  0  0  0  0  0  0  0  0  0  0
   57.7780   28.5720   44.0040 N   0  0  0  0  0  0  0  0  0  0  0  0
   56.6620   29.8990   43.9590 S   0  0  0  0  0  0  0  0  0  0  0  0
   56.1820   30.1010   42.5510 O   0  0  0  0  0  0  0  0  0  0  0  0
   55.4830   29.5810   44.8330 O   0  0  0  0  0  0  0  0  0  0  0  0
   57.4450   31.3540   44.5690 C   0  0  0  0  0  0  0  0  0  0  0  0
   57.7260   32.4280   43.7120 C   0  0  0  0  0  0  0  0  0  0  0  0
   58.3640   33.5720   44.2000 C   0  0  0  0  0  0  0  0  0  0  0  0
   58.7220   33.6580   45.5570 C   0  0  0  0  0  0  0  0  0  0  0  0
   59.3600   34.7920   46.0900 C   0  0  0  0  0  0  0  0  0  0  0  0
   59.6470   35.7810   45.3620 O   0  0  0  0  0  0  0  0  0  0  0  0
   59.6710   34.8250   47.4140 N   0  0  0  0  0  0  0  0  0  0  0  0
   59.3910   33.8050   48.2270 N   0  0  0  0  0  0  0  0  0  0  0  0
   58.7800   32.6800   47.7720 C   0  0  0  0  0  0  0  0  0  0  0  0
   58.4320   32.5810   46.4220 C   0  0  0  0  0  0  0  0  0  0  0  0
   57.7990   31.4320   45.9230 C   0  0  0  0  0  0  0  0  0  0  0  0
   61.0764   29.5327   45.6368 H   0  0  0  0  0  0  0  0  0  0  0  0
   61.1420   28.3559   44.2813 H   0  0  0  0  0  0  0  0  0  0  0  0
   59.9044   29.6578   44.2813 H   0  0  0  0  0  0  0  0  0  0  0  0
   60.9906   27.5049   47.1556 H   0  0  0  0  0  0  0  0  0  0  0  0
   59.4310   26.0035   48.3904 H   0  0  0  0  0  0  0  0  0  0  0  0
   57.0908   25.7022   47.5916 H   0  0  0  0  0  0  0  0  0  0  0  0
   56.2995   26.9014   45.5550 H   0  0  0  0  0  0  0  0  0  0  0  0
   57.4430   32.3698   42.6506 H   0  0  0  0  0  0  0  0  0  0  0  0
   58.5867   34.4076   43.5202 H   0  0  0  0  0  0  0  0  0  0  0  0
   58.5605   31.8520   48.4621 H   0  0  0  0  0  0  0  0  0  0  0  0
   57.5801   30.5903   46.5964 H   0  0  0  0  0  0  0  0  0  0  0  0
  1  2  1  0
  2  3  2  0
  3  4  1  0
  4  5  2  0
  5  6  1  0
  6  7  2  0
  7  8  1  0
  8  9  1  0
  9 10  2  0
  9 11  2  0
  9 12  1  0
 12 13  2  0
 13 14  1  0
 14 15  2  0
 15 16  1  0
 16 17  2  0
 16 18  1  0
 18 19  1  0
 19 20  2  0
 20 21  1  0
 21 22  2  0
  7  2  1  0
 22 12  1  0
 21 15  1  0
  1 23  1  0
  1 24  1  0
  1 25  1  0
  3 26  1  0
  4 27  1  0
  5 28  1  0
  6 29  1  0
 13 30  1  0
 14 31  1  0
 20 32  1  0
 22 33  1  0
M  CHG  2   8  -1  18  -1
M  END
>  <UniqueID>  (38) 
36

>  <SMILES>  (38) 
Cc1ccccc1[N-]S(=O)(=O)c1ccc2c(=O)[n-]ncc2c1

>  <Energy>  (38) 
44.60167434912083

>  <Genealogy>  (38) 
Cc1ccccc1[N-]S(=O)(=O)c1ccc2c(=O)[n-]ncc2c1 (protonated)
Cc1ccccc1[N-]S(=O)(=O)c1ccc2c(=O)[n-]ncc2c1 (3D coordinates assigned)
Cc1ccccc1[N-]S(=O)(=O)c1ccc2c(=O)[n-]ncc2c1 (optimized conformer: 44.60167434912083 kcal/mol)

>  <smiles>  (38) 
Cc1ccccc1NS(=O)(=O)c1ccc2c(=O)[nH]ncc2c1

>  <score_type>  (38) 
oracle

>  <origin>  (38) 
adg

>  <m_score__min__energy>  (38) 
-10.109999999999999

>  <m_primary>  (38) 
energy

$$$$
39:0
     RDKit          3D

 48 50  0  0  0  0  0  0  0  0999 V2000
   58.6210   30.0950   48.6800 O   0  0  0  0  0  0  0  0  0  0  0  0
   58.9220   30.3150   49.8830 C   0  0  0  0  0  0  0  0  0  0  0  0
   58.1320   29.7860   50.8960 O   0  0  0  0  0  0  0  0  0  0  0  0
   60.1440   31.1130   50.2220 C   0  0  0  0  0  0  0  0  0  0  0  0
   60.3080   32.2390   49.2870 N   0  0  0  0  0  0  0  0  0  0  0  0
   59.2100   33.2130   49.1580 C   0  0  0  0  0  0  0  0  0  0  0  0
   58.7900   33.3980   47.7180 C   0  0  0  0  0  0  0  0  0  0  0  0
   59.2760   34.4920   46.9850 C   0  0  0  0  0  0  0  0  0  0  0  0
   58.9270   34.6540   45.6420 C   0  0  0  0  0  0  0  0  0  0  0  0
   58.0970   33.7210   45.0160 C   0  0  0  0  0  0  0  0  0  0  0  0
   57.6150   32.6140   45.7210 C   0  0  0  0  0  0  0  0  0  0  0  0
   56.7860   31.7040   45.0440 O   0  0  0  0  0  0  0  0  0  0  0  0
   57.2350   30.5580   44.3130 C   0  0  2  0  0  0  0  0  0  0  0  0
   56.0690   29.7040   43.9060 C   0  0  0  0  0  0  0  0  0  0  0  0
   55.9280   29.3600   42.7020 O   0  0  0  0  0  0  0  0  0  0  0  0
   55.1630   29.2540   44.8590 O   0  0  0  0  0  0  0  0  0  0  0  0
   58.1740   29.7440   45.1680 C   0  0  0  0  0  0  0  0  0  0  0  0
   57.7070   28.6280   45.8870 C   0  0  0  0  0  0  0  0  0  0  0  0
   58.5910   27.8600   46.6510 C   0  0  0  0  0  0  0  0  0  0  0  0
   59.9480   28.1890   46.6950 C   0  0  0  0  0  0  0  0  0  0  0  0
   60.4240   29.2860   45.9710 C   0  0  0  0  0  0  0  0  0  0  0  0
   59.5440   30.0580   45.2070 C   0  0  0  0  0  0  0  0  0  0  0  0
   57.9720   32.4520   47.0730 C   0  0  0  0  0  0  0  0  0  0  0  0
   61.5560   32.4480   48.5810 C   0  0  0  0  0  0  0  0  0  0  0  0
   62.1740   31.3940   47.8780 C   0  0  0  0  0  0  0  0  0  0  0  0
   63.3680   31.6070   47.1840 C   0  0  0  0  0  0  0  0  0  0  0  0
   63.9640   32.8690   47.1810 C   0  0  0  0  0  0  0  0  0  0  0  0
   63.3680   33.9220   47.8770 C   0  0  0  0  0  0  0  0  0  0  0  0
   62.1750   33.7150   48.5750 C   0  0  0  0  0  0  0  0  0  0  0  0
   60.0467   31.5049   51.2452 H   0  0  0  0  0  0  0  0  0  0  0  0
   61.0252   30.4591   50.1452 H   0  0  0  0  0  0  0  0  0  0  0  0
   58.3464   32.8548   49.7376 H   0  0  0  0  0  0  0  0  0  0  0  0
   59.5663   34.1821   49.5374 H   0  0  0  0  0  0  0  0  0  0  0  0
   59.9355   35.2261   47.4709 H   0  0  0  0  0  0  0  0  0  0  0  0
   59.3065   35.5178   45.0765 H   0  0  0  0  0  0  0  0  0  0  0  0
   57.8205   33.8583   43.9602 H   0  0  0  0  0  0  0  0  0  0  0  0
   57.7590   30.9029   43.4095 H   0  0  0  0  0  0  0  0  0  0  0  0
   56.6412   28.3586   45.8477 H   0  0  0  0  0  0  0  0  0  0  0  0
   58.2172   26.9950   47.2185 H   0  0  0  0  0  0  0  0  0  0  0  0
   60.6414   27.5853   47.2989 H   0  0  0  0  0  0  0  0  0  0  0  0
   61.4933   29.5423   46.0026 H   0  0  0  0  0  0  0  0  0  0  0  0
   59.9253   30.9156   44.6333 H   0  0  0  0  0  0  0  0  0  0  0  0
   57.6077   31.5768   47.6310 H   0  0  0  0  0  0  0  0  0  0  0  0
   61.7125   30.3955   47.8757 H   0  0  0  0  0  0  0  0  0  0  0  0
   63.8400   30.7769   46.6380 H   0  0  0  0  0  0  0  0  0  0  0  0
   64.9022   33.0336   46.6309 H   0  0  0  0  0  0  0  0  0  0  0  0
   63.8381   34.9165   47.8761 H   0  0  0  0  0  0  0  0  0  0  0  0
   61.7143   34.5487   49.1252 H   0  0  0  0  0  0  0  0  0  0  0  0
  1  2  2  0
  2  3  1  0
  2  4  1  0
  4  5  1  0
  5  6  1  0
  6  7  1  0
  7  8  2  0
  8  9  1  0
  9 10  2  0
 10 11  1  0
 11 12  1  0
 12 13  1  0
 13 14  1  0
 14 15  2  0
 14 16  1  0
 13 17  1  0
 17 18  2  0
 18 19  1  0
 19 20  2  0
 20 21  1  0
 21 22  2  0
 11 23  2  0
  5 24  1  0
 24 25  2  0
 25 26  1  0
 26 27  2  0
 27 28  1  0
 28 29  2  0
 23  7  1  0
 29 24  1  0
 22 17  1  0
  4 30  1  0
  4 31  1  0
  6 32  1  0
  6 33  1  0
  8 34  1  0
  9 35  1  0
 10 36  1  0
 13 37  1  6
 18 38  1  0
 19 39  1  0
 20 40  1  0
 21 41  1  0
 22 42  1  0
 23 43  1  0
 25 44  1  0
 26 45  1  0
 27 46  1  0
 28 47  1  0
 29 48  1  0
M  CHG  2   3  -1  16  -1
M  END
>  <UniqueID>  (39) 
37

>  <SMILES>  (39) 
O=C([O-])CN(Cc1cccc(O[C@H](C(=O)[O-])c2ccccc2)c1)c1ccccc1

>  <Energy>  (39) 
51.908675182070986

>  <Genealogy>  (39) 
O=C([O-])CN(Cc1cccc(OC(C(=O)[O-])c2ccccc2)c1)c1ccccc1 (protonated)
O=C([O-])CN(Cc1cccc(O[C@H](C(=O)[O-])c2ccccc2)c1)c1ccccc1 (chirality)
O=C([O-])CN(Cc1cccc(O[C@H](C(=O)[O-])c2ccccc2)c1)c1ccccc1 (3D coordinates assigned)
O=C([O-])CN(Cc1cccc(O[C@H](C(=O)[O-])c2ccccc2)c1)c1ccccc1 (optimized conformer: 51.908675182070986 kcal/mol)

>  <smiles>  (39) 
O=C(O)CN(Cc1cccc(OC(C(=O)O)c2ccccc2)c1)c1ccccc1

>  <score_type>  (39) 
oracle

>  <origin>  (39) 
adg

>  <m_score__min__energy>  (39) 
-14.17

>  <m_primary>  (39) 
energy

$$$$
40:0
     RDKit          3D

 49 51  0  0  0  0  0  0  0  0999 V2000
   57.8120   32.3370   51.6460 C   0  0  0  0  0  0  0  0  0  0  0  0
   58.3380   31.8570   50.4130 O   0  0  0  0  0  0  0  0  0  0  0  0
   58.6920   32.6760   49.3290 C   0  0  0  0  0  0  0  0  0  0  0  0
   58.1440   32.5020   48.0430 C   0  0  0  0  0  0  0  0  0  0  0  0
   58.5220   33.3480   46.9870 C   0  0  0  0  0  0  0  0  0  0  0  0
   57.8640   33.2130   45.6410 C   0  0  0  0  0  0  0  0  0  0  0  0
   58.4870   32.1210   44.9010 N   0  0  0  0  0  0  0  0  0  0  0  0
   58.0890   30.7650   45.1380 C   0  0  0  0  0  0  0  0  0  0  0  0
   56.8350   30.3160   44.7050 C   0  0  0  0  0  0  0  0  0  0  0  0
   56.4340   29.0010   44.9490 C   0  0  0  0  0  0  0  0  0  0  0  0
   57.2900   28.1180   45.6190 C   0  0  0  0  0  0  0  0  0  0  0  0
   56.7930   26.4560   45.9190 S   0  0  0  0  0  0  0  0  0  0  0  0
   55.0690   26.3520   45.9880 N   0  0  0  0  0  0  0  0  0  0  0  0
   57.2840   25.5720   44.8080 O   0  0  0  0  0  0  0  0  0  0  0  0
   57.3740   25.9890   47.2230 O   0  0  0  0  0  0  0  0  0  0  0  0
   58.5370   28.5710   46.0750 C   0  0  0  0  0  0  0  0  0  0  0  0
   58.9340   29.9010   45.8570 C   0  0  0  0  0  0  0  0  0  0  0  0
   60.1710   30.4170   46.3730 N   0  0  0  0  0  0  0  0  0  0  0  0
   60.5660   30.4820   47.7500 C   0  0  0  0  0  0  0  0  0  0  0  0
   59.9570   29.8070   48.6210 O   0  0  0  0  0  0  0  0  0  0  0  0
   61.6900   31.3630   48.1350 C   0  0  0  0  0  0  0  0  0  0  0  0
   62.4930   31.9120   47.1170 C   0  0  0  0  0  0  0  0  0  0  0  0
   63.5950   32.7090   47.4300 C   0  0  0  0  0  0  0  0  0  0  0  0
   63.9140   32.9690   48.7630 C   0  0  0  0  0  0  0  0  0  0  0  0
   63.1220   32.4450   49.7850 C   0  0  0  0  0  0  0  0  0  0  0  0
   61.9990   31.6630   49.4880 C   0  0  0  0  0  0  0  0  0  0  0  0
   61.2050   31.2390   50.5550 O   0  0  0  0  0  0  0  0  0  0  0  0
   59.4380   34.3840   47.2260 C   0  0  0  0  0  0  0  0  0  0  0  0
   59.9890   34.5540   48.4970 C   0  0  0  0  0  0  0  0  0  0  0  0
   59.6190   33.7050   49.5440 C   0  0  0  0  0  0  0  0  0  0  0  0
   60.1730   33.8890   50.8060 O   0  0  0  0  0  0  0  0  0  0  0  0
   58.3399   31.8552   52.4822 H   0  0  0  0  0  0  0  0  0  0  0  0
   57.9503   33.4267   51.7042 H   0  0  0  0  0  0  0  0  0  0  0  0
   56.7394   32.0999   51.7042 H   0  0  0  0  0  0  0  0  0  0  0  0
   57.4149   31.6980   47.8643 H   0  0  0  0  0  0  0  0  0  0  0  0
   56.7933   33.0000   45.7763 H   0  0  0  0  0  0  0  0  0  0  0  0
   57.9838   34.1511   45.0792 H   0  0  0  0  0  0  0  0  0  0  0  0
   59.4420   32.2920   44.5130 H   0  0  0  0  0  0  0  0  0  0  0  0
   56.1626   31.0028   44.1700 H   0  0  0  0  0  0  0  0  0  0  0  0
   55.4439   28.6579   44.6144 H   0  0  0  0  0  0  0  0  0  0  0  0
   54.7460   27.0760   46.6690 H   0  0  0  0  0  0  0  0  0  0  0  0
   59.2082   27.8805   46.6066 H   0  0  0  0  0  0  0  0  0  0  0  0
   62.2491   31.7105   46.0635 H   0  0  0  0  0  0  0  0  0  0  0  0
   64.2129   33.1327   46.6246 H   0  0  0  0  0  0  0  0  0  0  0  0
   64.7901   33.5873   49.0083 H   0  0  0  0  0  0  0  0  0  0  0  0
   63.3822   32.6481   50.8343 H   0  0  0  0  0  0  0  0  0  0  0  0
   60.3780   31.7320   50.8640 H   0  0  0  0  0  0  0  0  0  0  0  0
   59.7225   35.0639   46.4094 H   0  0  0  0  0  0  0  0  0  0  0  0
   60.7171   35.3590   48.6755 H   0  0  0  0  0  0  0  0  0  0  0  0
  1  2  1  0
  2  3  1  0
  3  4  2  0
  4  5  1  0
  5  6  1  0
  6  7  1  0
  7  8  1  0
  8  9  2  0
  9 10  1  0
 10 11  2  0
 11 12  1  0
 12 13  1  0
 12 14  2  0
 12 15  2  0
 11 16  1  0
 16 17  2  0
 17 18  1  0
 18 19  1  0
 19 20  2  0
 19 21  1  0
 21 22  2  0
 22 23  1  0
 23 24  2  0
 24 25  1  0
 25 26  2  0
 26 27  1  0
  5 28  2  0
 28 29  1  0
 29 30  2  0
 30 31  1  0
 30  3  1  0
 17  8  1  0
 26 21  1  0
  1 32  1  0
  1 33  1  0
  1 34  1  0
  4 35  1  0
  6 36  1  0
  6 37  1  0
  7 38  1  0
  9 39  1  0
 10 40  1  0
 13 41  1  0
 16 42  1  0
 22 43  1  0
 23 44  1  0
 24 45  1  0
 25 46  1  0
 27 47  1  0
 28 48  1  0
 29 49  1  0
M  CHG  3  13  -1  18  -1  31  -1
M  END
>  <UniqueID>  (40) 
38

>  <SMILES>  (40) 
COc1cc(CNc2ccc(S([NH-])(=O)=O)cc2[N-]C(=O)c2ccccc2O)ccc1[O-]

>  <Energy>  (40) 
58.0012677876092

>  <Genealogy>  (40) 
COc1cc(CNc2ccc(S([NH-])(=O)=O)cc2[N-]C(=O)c2ccccc2O)ccc1[O-] (protonated)
COc1cc(CNc2ccc(S([NH-])(=O)=O)cc2[N-]C(=O)c2ccccc2O)ccc1[O-] (3D coordinates assigned)
COc1cc(CNc2ccc(S([NH-])(=O)=O)cc2[N-]C(=O)c2ccccc2O)ccc1[O-] (optimized conformer: 58.0012677876092 kcal/mol)

>  <smiles>  (40) 
COc1cc(CNc2ccc(S(N)(=O)=O)cc2NC(=O)c2ccccc2O)ccc1O

>  <score_type>  (40) 
oracle

>  <origin>  (40) 
adg

>  <m_score__min__energy>  (40) 
-13.17

>  <m_primary>  (40) 
energy

$$$$
41:0
     RDKit          3D

 50 52  0  0  0  0  0  0  0  0999 V2000
   61.1300   26.4910   46.3770 C   0  0  0  0  0  0  0  0  0  0  0  0
   59.6750   26.8120   46.2310 C   0  0  0  0  0  0  0  0  0  0  0  0
   58.6470   26.0090   46.6890 C   0  0  0  0  0  0  0  0  0  0  0  0
   57.4770   26.6340   46.3140 C   0  0  0  0  0  0  0  0  0  0  0  0
   56.1200   26.1050   46.5100 C   0  0  0  0  0  0  0  0  0  0  0  0
   55.1430   26.7090   45.9910 O   0  0  0  0  0  0  0  0  0  0  0  0
   55.8870   24.8940   47.2380 N   0  0  0  0  0  0  0  0  0  0  0  0
   56.4250   23.5830   46.8720 C   0  0  0  0  0  0  0  0  0  0  0  0
   56.2170   23.3000   45.3990 C   0  0  0  0  0  0  0  0  0  0  0  0
   54.9720   23.6010   44.8170 C   0  0  0  0  0  0  0  0  0  0  0  0
   54.7610   23.4070   43.4510 C   0  0  0  0  0  0  0  0  0  0  0  0
   55.7820   22.8950   42.6510 C   0  0  0  0  0  0  0  0  0  0  0  0
   57.0120   22.5590   43.2190 C   0  0  0  0  0  0  0  0  0  0  0  0
   57.2350   22.7440   44.5890 C   0  0  0  0  0  0  0  0  0  0  0  0
   58.7960   22.2530   45.2360 Cl  0  0  0  0  0  0  0  0  0  0  0  0
   57.8290   27.7840   45.6260 C   0  0  0  0  0  0  0  0  0  0  0  0
   56.8710   28.7610   45.0070 C   0  0  0  0  0  0  0  0  0  0  0  0
   59.1770   27.8920   45.5800 N   0  0  0  0  0  0  0  0  0  0  0  0
   59.9490   28.9500   44.9120 C   0  0  0  0  0  0  0  0  0  0  0  0
   59.9600   30.2040   45.7440 C   0  0  0  0  0  0  0  0  0  0  0  0
   60.9710   30.4080   46.6960 C   0  0  0  0  0  0  0  0  0  0  0  0
   60.9850   31.5720   47.4710 C   0  0  0  0  0  0  0  0  0  0  0  0
   59.9890   32.5420   47.3050 C   0  0  0  0  0  0  0  0  0  0  0  0
   60.0250   34.0140   48.2710 S   0  0  0  0  0  0  0  0  0  0  0  0
   59.2320   35.2880   47.4150 N   0  0  0  0  0  0  0  0  0  0  0  0
   59.3280   33.7840   49.5820 O   0  0  0  0  0  0  0  0  0  0  0  0
   61.4500   34.4020   48.5470 O   0  0  0  0  0  0  0  0  0  0  0  0
   58.9860   32.3470   46.3490 C   0  0  0  0  0  0  0  0  0  0  0  0
   58.9700   31.1850   45.5720 C   0  0  0  0  0  0  0  0  0  0  0  0
   61.3876   26.4342   47.4449 H   0  0  0  0  0  0  0  0  0  0  0  0
   61.3422   25.5244   45.8967 H   0  0  0  0  0  0  0  0  0  0  0  0
   61.7292   27.2785   45.8967 H   0  0  0  0  0  0  0  0  0  0  0  0
   58.7433   25.0625   47.2411 H   0  0  0  0  0  0  0  0  0  0  0  0
   57.5023   23.5624   47.0931 H   0  0  0  0  0  0  0  0  0  0  0  0
   55.8960   22.8136   47.4536 H   0  0  0  0  0  0  0  0  0  0  0  0
   54.1576   23.9927   45.4441 H   0  0  0  0  0  0  0  0  0  0  0  0
   53.7876   23.6584   43.0047 H   0  0  0  0  0  0  0  0  0  0  0  0
   55.6181   22.7559   41.5722 H   0  0  0  0  0  0  0  0  0  0  0  0
   57.8114   22.1461   42.5862 H   0  0  0  0  0  0  0  0  0  0  0  0
   56.3378   29.3047   45.8008 H   0  0  0  0  0  0  0  0  0  0  0  0
   57.4280   29.4757   44.3834 H   0  0  0  0  0  0  0  0  0  0  0  0
   56.1455   28.2181   44.3834 H   0  0  0  0  0  0  0  0  0  0  0  0
   60.9830   28.6048   44.7648 H   0  0  0  0  0  0  0  0  0  0  0  0
   59.4801   29.1723   43.9421 H   0  0  0  0  0  0  0  0  0  0  0  0
   61.7555   29.6492   46.8331 H   0  0  0  0  0  0  0  0  0  0  0  0
   61.7815   31.7261   48.2138 H   0  0  0  0  0  0  0  0  0  0  0  0
   58.6310   35.7910   48.1060 H   0  0  0  0  0  0  0  0  0  0  0  0
   59.9740   35.9620   47.1170 H   0  0  0  0  0  0  0  0  0  0  0  0
   58.2072   33.1109   46.2083 H   0  0  0  0  0  0  0  0  0  0  0  0
   58.1783   31.0384   44.8225 H   0  0  0  0  0  0  0  0  0  0  0  0
  1  2  1  0
  2  3  2  0
  3  4  1  0
  4  5  1  0
  5  6  2  0
  5  7  1  0
  7  8  1  0
  8  9  1  0
  9 10  2  0
 10 11  1  0
 11 12  2  0
 12 13  1  0
 13 14  2  0
 14 15  1  0
  4 16  2  0
 16 17  1  0
 16 18  1  0
 18 19  1  0
 19 20  1  0
 20 21  2  0
 21 22  1  0
 22 23  2  0
 23 24  1  0
 24 25  1  0
 24 26  2  0
 24 27  2  0
 23 28  1  0
 28 29  2  0
 18  2  1  0
 29 20  1  0
 14  9  1  0
  1 30  1  0
  1 31  1  0
  1 32  1  0
  3 33  1  0
  8 34  1  0
  8 35  1  0
 10 36  1  0
 11 37  1  0
 12 38  1  0
 13 39  1  0
 17 40  1  0
 17 41  1  0
 17 42  1  0
 19 43  1  0
 19 44  1  0
 21 45  1  0
 22 46  1  0
 25 47  1  0
 25 48  1  0
 28 49  1  0
 29 50  1  0
M  CHG  1   7  -1
M  END
>  <UniqueID>  (41) 
39

>  <SMILES>  (41) 
Cc1cc(C(=O)[N-]Cc2ccccc2Cl)c(C)n1Cc1ccc(S(N)(=O)=O)cc1

>  <Energy>  (41) 
76.73038804651256

>  <Genealogy>  (41) 
Cc1cc(C(=O)[N-]Cc2ccccc2Cl)c(C)n1Cc1ccc(S(N)(=O)=O)cc1 (protonated)
Cc1cc(C(=O)[N-]Cc2ccccc2Cl)c(C)n1Cc1ccc(S(N)(=O)=O)cc1 (3D coordinates assigned)
Cc1cc(C(=O)[N-]Cc2ccccc2Cl)c(C)n1Cc1ccc(S(N)(=O)=O)cc1 (optimized conformer: 76.73038804651256 kcal/mol)

>  <smiles>  (41) 
Cc1cc(C(=O)NCc2ccccc2Cl)c(C)n1Cc1ccc(S(N)(=O)=O)cc1

>  <score_type>  (41) 
oracle

>  <origin>  (41) 
adg

>  <m_score__min__energy>  (41) 
-10.59

>  <m_primary>  (41) 
energy

$$$$
42:0
     RDKit          3D

 39 40  0  0  0  0  0  0  0  0999 V2000
   55.5390   28.8650   44.9070 N   0  0  0  0  0  0  0  0  0  0  0  0
   56.6960   30.0450   44.4020 S   0  0  0  0  0  0  0  0  0  0  0  0
   56.9070   29.9330   42.9170 O   0  0  0  0  0  0  0  0  0  0  0  0
   56.1790   31.4220   44.7120 O   0  0  0  0  0  0  0  0  0  0  0  0
   58.2180   29.7770   45.2440 C   0  0  0  0  0  0  0  0  0  0  0  0
   59.3230   29.2600   44.5530 C   0  0  0  0  0  0  0  0  0  0  0  0
   60.5360   29.0620   45.2170 C   0  0  0  0  0  0  0  0  0  0  0  0
   60.6510   29.3730   46.5740 C   0  0  0  0  0  0  0  0  0  0  0  0
   59.5440   29.8740   47.2790 C   0  0  0  0  0  0  0  0  0  0  0  0
   59.6380   30.2280   48.6640 N   0  0  0  0  0  0  0  0  0  0  0  0
   60.8320   30.2350   49.4590 C   0  0  0  0  0  0  0  0  0  0  0  0
   61.2330   29.1510   49.9570 O   0  0  0  0  0  0  0  0  0  0  0  0
   61.6700   31.4700   49.6410 C   0  0  0  0  0  0  0  0  0  0  0  0
   62.7480   31.4890   48.6560 N   0  0  0  0  0  0  0  0  0  0  0  0
   62.9030   32.4630   47.6170 C   0  0  0  0  0  0  0  0  0  0  0  0
   63.7860   32.2740   46.7380 O   0  0  0  0  0  0  0  0  0  0  0  0
   62.1110   33.7440   47.6010 C   0  0  0  0  0  0  0  0  0  0  0  0
   61.3860   33.8870   46.3790 O   0  0  0  0  0  0  0  0  0  0  0  0
   59.9870   33.8540   46.2620 C   0  0  0  0  0  0  0  0  0  0  0  0
   59.4150   34.2360   45.0420 C   0  0  0  0  0  0  0  0  0  0  0  0
   58.0260   34.2260   44.8750 C   0  0  0  0  0  0  0  0  0  0  0  0
   57.1980   33.8310   45.9280 C   0  0  0  0  0  0  0  0  0  0  0  0
   57.7570   33.4460   47.1490 C   0  0  0  0  0  0  0  0  0  0  0  0
   59.1450   33.4540   47.3200 C   0  0  0  0  0  0  0  0  0  0  0  0
   58.3400   30.1000   46.6020 C   0  0  0  0  0  0  0  0  0  0  0  0
   54.6710   29.3840   45.1710 H   0  0  0  0  0  0  0  0  0  0  0  0
   59.2346   29.0097   43.4855 H   0  0  0  0  0  0  0  0  0  0  0  0
   61.4020   28.6605   44.6704 H   0  0  0  0  0  0  0  0  0  0  0  0
   61.6103   29.2253   47.0916 H   0  0  0  0  0  0  0  0  0  0  0  0
   61.0393   32.3615   49.5087 H   0  0  0  0  0  0  0  0  0  0  0  0
   62.1033   31.4678   50.6520 H   0  0  0  0  0  0  0  0  0  0  0  0
   61.4008   33.7374   48.4410 H   0  0  0  0  0  0  0  0  0  0  0  0
   62.8109   34.5877   47.6918 H   0  0  0  0  0  0  0  0  0  0  0  0
   60.0627   34.5462   44.2088 H   0  0  0  0  0  0  0  0  0  0  0  0
   57.5858   34.5295   43.9137 H   0  0  0  0  0  0  0  0  0  0  0  0
   56.1060   33.8230   45.7960 H   0  0  0  0  0  0  0  0  0  0  0  0
   57.1038   33.1358   47.9779 H   0  0  0  0  0  0  0  0  0  0  0  0
   59.5810   33.1475   48.2823 H   0  0  0  0  0  0  0  0  0  0  0  0
   57.4840   30.5340   47.1395 H   0  0  0  0  0  0  0  0  0  0  0  0
  1  2  1  0
  2  3  2  0
  2  4  2  0
  2  5  1  0
  5  6  2  0
  6  7  1  0
  7  8  2  0
  8  9  1  0
  9 10  1  0
 10 11  1  0
 11 12  2  0
 11 13  1  0
 13 14  1  0
 14 15  1  0
 15 16  2  0
 15 17  1  0
 17 18  1  0
 18 19  1  0
 19 20  2  0
 20 21  1  0
 21 22  2  0
 22 23  1  0
 23 24  2  0
  9 25  2  0
 25  5  1  0
 24 19  1  0
  1 26  1  0
  6 27  1  0
  7 28  1  0
  8 29  1  0
 13 30  1  0
 13 31  1  0
 17 32  1  0
 17 33  1  0
 20 34  1  0
 21 35  1  0
 22 36  1  0
 23 37  1  0
 24 38  1  0
 25 39  1  0
M  CHG  3   1  -1  10  -1  14  -1
M  END
>  <UniqueID>  (42) 
40

>  <SMILES>  (42) 
[NH-]S(=O)(=O)c1cccc([N-]C(=O)C[N-]C(=O)COc2ccccc2)c1

>  <Energy>  (42) 
40.46866353431063

>  <Genealogy>  (42) 
[NH-]S(=O)(=O)c1cccc([N-]C(=O)C[N-]C(=O)COc2ccccc2)c1 (protonated)
[NH-]S(=O)(=O)c1cccc([N-]C(=O)C[N-]C(=O)COc2ccccc2)c1 (3D coordinates assigned)
[NH-]S(=O)(=O)c1cccc([N-]C(=O)C[N-]C(=O)COc2ccccc2)c1 (optimized conformer: 40.46866353431063 kcal/mol)

>  <smiles>  (42) 
NS(=O)(=O)c1cccc(NC(=O)CNC(=O)COc2ccccc2)c1

>  <score_type>  (42) 
oracle

>  <origin>  (42) 
adg

>  <m_score__min__energy>  (42) 
-13.199999999999999

>  <m_primary>  (42) 
energy

$$$$
43:0
     RDKit          3D

 48 49  0  0  0  0  0  0  0  0999 V2000
   51.3050   32.2780   51.1680 N   0  0  0  0  0  0  0  0  0  0  0  0
   51.6850   30.6030   51.3690 S   0  0  0  0  0  0  0  0  0  0  0  0
   51.6440   29.9090   50.0370 O   0  0  0  0  0  0  0  0  0  0  0  0
   50.6620   29.9760   52.2750 O   0  0  0  0  0  0  0  0  0  0  0  0
   53.2960   30.4420   52.0650 C   0  0  0  0  0  0  0  0  0  0  0  0
   53.5680   29.4450   53.0130 C   0  0  0  0  0  0  0  0  0  0  0  0
   54.8510   29.3250   53.5570 C   0  0  0  0  0  0  0  0  0  0  0  0
   55.8760   30.1960   53.1560 C   0  0  0  0  0  0  0  0  0  0  0  0
   57.2480   30.0810   53.7660 C   0  0  0  0  0  0  0  0  0  0  0  0
   58.0320   31.3830   53.5810 C   0  0  0  0  0  0  0  0  0  0  0  0
   59.2340   31.1410   52.7910 N   0  0  0  0  0  0  0  0  0  0  0  0
   59.3240   30.1430   51.7680 C   0  0  0  0  0  0  0  0  0  0  0  0
   60.2530   29.2900   51.7890 O   0  0  0  0  0  0  0  0  0  0  0  0
   58.2960   30.1040   50.6810 C   0  0  0  0  0  0  0  0  0  0  0  0
   58.7320   30.9560   49.4800 C   0  0  0  0  0  0  0  0  0  0  0  0
   59.2490   30.1280   48.3380 C   0  0  0  0  0  0  0  0  0  0  0  0
   60.3390   29.5030   48.4420 O   0  0  0  0  0  0  0  0  0  0  0  0
   58.4810   30.0630   47.1290 N   0  0  0  0  0  0  0  0  0  0  0  0
   58.3780   28.9530   46.2230 C   0  0  0  0  0  0  0  0  0  0  0  0
   59.2350   28.9130   45.1150 C   0  0  0  0  0  0  0  0  0  0  0  0
   59.1740   27.8530   44.2070 C   0  0  0  0  0  0  0  0  0  0  0  0
   58.2640   26.8120   44.4050 C   0  0  0  0  0  0  0  0  0  0  0  0
   57.4220   26.8190   45.5270 C   0  0  0  0  0  0  0  0  0  0  0  0
   56.2810   25.5060   45.8030 S   0  0  0  0  0  0  0  0  0  0  0  0
   54.6850   26.1580   45.9390 N   0  0  0  0  0  0  0  0  0  0  0  0
   56.3210   24.5300   44.6600 O   0  0  0  0  0  0  0  0  0  0  0  0
   56.6430   24.7870   47.0720 O   0  0  0  0  0  0  0  0  0  0  0  0
   57.4860   27.8850   46.4360 C   0  0  0  0  0  0  0  0  0  0  0  0
   55.5940   31.2050   52.2210 C   0  0  0  0  0  0  0  0  0  0  0  0
   54.3120   31.3230   51.6760 C   0  0  0  0  0  0  0  0  0  0  0  0
   50.3020   32.3330   50.8810 H   0  0  0  0  0  0  0  0  0  0  0  0
   52.7709   28.7561   53.3293 H   0  0  0  0  0  0  0  0  0  0  0  0
   55.0578   28.5437   54.3032 H   0  0  0  0  0  0  0  0  0  0  0  0
   57.1489   29.8685   54.8407 H   0  0  0  0  0  0  0  0  0  0  0  0
   57.7912   29.2662   53.2649 H   0  0  0  0  0  0  0  0  0  0  0  0
   57.3985   32.1177   53.0624 H   0  0  0  0  0  0  0  0  0  0  0  0
   58.3242   31.7687   54.5689 H   0  0  0  0  0  0  0  0  0  0  0  0
   58.1590   29.0631   50.3527 H   0  0  0  0  0  0  0  0  0  0  0  0
   57.3533   30.5111   51.0755 H   0  0  0  0  0  0  0  0  0  0  0  0
   57.8671   31.5381   49.1292 H   0  0  0  0  0  0  0  0  0  0  0  0
   59.5523   31.6076   49.8156 H   0  0  0  0  0  0  0  0  0  0  0  0
   59.9622   29.7234   44.9588 H   0  0  0  0  0  0  0  0  0  0  0  0
   59.8438   27.8382   43.3346 H   0  0  0  0  0  0  0  0  0  0  0  0
   58.2076   25.9861   43.6806 H   0  0  0  0  0  0  0  0  0  0  0  0
   54.7680   27.0710   46.4420 H   0  0  0  0  0  0  0  0  0  0  0  0
   56.8343   27.8866   47.3221 H   0  0  0  0  0  0  0  0  0  0  0  0
   56.3853   31.9056   51.9160 H   0  0  0  0  0  0  0  0  0  0  0  0
   54.1008   32.1113   50.9385 H   0  0  0  0  0  0  0  0  0  0  0  0
  1  2  1  0
  2  3  2  0
  2  4  2  0
  2  5  1  0
  5  6  2  0
  6  7  1  0
  7  8  2  0
  8  9  1  0
  9 10  1  0
 10 11  1  0
 11 12  1  0
 12 13  2  0
 12 14  1  0
 14 15  1  0
 15 16  1  0
 16 17  2  0
 16 18  1  0
 18 19  1  0
 19 20  2  0
 20 21  1  0
 21 22  2  0
 22 23  1  0
 23 24  1  0
 24 25  1  0
 24 26  2  0
 24 27  2  0
 23 28  2  0
  8 29  1  0
 29 30  2  0
 30  5  1  0
 28 19  1  0
  1 31  1  0
  6 32  1  0
  7 33  1  0
  9 34  1  0
  9 35  1  0
 10 36  1  0
 10 37  1  0
 14 38  1  0
 14 39  1  0
 15 40  1  0
 15 41  1  0
 20 42  1  0
 21 43  1  0
 22 44  1  0
 25 45  1  0
 28 46  1  0
 29 47  1  0
 30 48  1  0
M  CHG  4   1  -1  11  -1  18  -1  25  -1
M  END
>  <UniqueID>  (43) 
41

>  <SMILES>  (43) 
[NH-]S(=O)(=O)c1ccc(CC[N-]C(=O)CCC(=O)[N-]c2cccc(S([NH-])(=O)=O)c2)cc1

>  <Energy>  (43) 
44.02894344746256

>  <Genealogy>  (43) 
[NH-]S(=O)(=O)c1ccc(CC[N-]C(=O)CCC(=O)[N-]c2cccc(S([NH-])(=O)=O)c2)cc1 (protonated)
[NH-]S(=O)(=O)c1ccc(CC[N-]C(=O)CCC(=O)[N-]c2cccc(S([NH-])(=O)=O)c2)cc1 (3D coordinates assigned)
[NH-]S(=O)(=O)c1ccc(CC[N-]C(=O)CCC(=O)[N-]c2cccc(S([NH-])(=O)=O)c2)cc1 (optimized conformer: 44.02894344746256 kcal/mol)

>  <smiles>  (43) 
NS(=O)(=O)c1ccc(CCNC(=O)CCC(=O)Nc2cccc(S(N)(=O)=O)c2)cc1

>  <score_type>  (43) 
oracle

>  <origin>  (43) 
adg

>  <m_score__min__energy>  (43) 
-15.720000000000001

>  <m_primary>  (43) 
energy

$$$$
44:0
     RDKit          3D

 45 47  0  0  0  0  0  0  0  0999 V2000
   53.5310   24.0180   44.9060 C   0  0  0  0  0  0  0  0  0  0  0  0
   54.2610   22.8090   45.0830 O   0  0  0  0  0  0  0  0  0  0  0  0
   55.6510   22.6880   44.9270 C   0  0  0  0  0  0  0  0  0  0  0  0
   56.2240   22.1540   43.7560 C   0  0  0  0  0  0  0  0  0  0  0  0
   57.6100   22.0420   43.6330 C   0  0  0  0  0  0  0  0  0  0  0  0
   58.4400   22.4690   44.6690 C   0  0  0  0  0  0  0  0  0  0  0  0
   57.8890   23.0060   45.8330 C   0  0  0  0  0  0  0  0  0  0  0  0
   56.4950   23.1070   45.9790 C   0  0  0  0  0  0  0  0  0  0  0  0
   55.9150   23.6320   47.2730 C   0  0  0  0  0  0  0  0  0  0  0  0
   56.2890   25.0290   47.4880 N   0  0  0  0  0  0  0  0  0  0  0  0
   56.2530   26.0540   46.4880 C   0  0  0  0  0  0  0  0  0  0  0  0
   55.1530   26.3520   45.9540 O   0  0  0  0  0  0  0  0  0  0  0  0
   57.4650   26.7940   46.0980 C   0  0  0  0  0  0  0  0  0  0  0  0
   58.7270   26.2710   46.4220 C   0  0  0  0  0  0  0  0  0  0  0  0
   59.8850   26.9780   46.0940 C   0  0  0  0  0  0  0  0  0  0  0  0
   59.7920   28.2170   45.4570 C   0  0  0  0  0  0  0  0  0  0  0  0
   58.5400   28.7480   45.1360 C   0  0  0  0  0  0  0  0  0  0  0  0
   57.3650   28.0320   45.4320 C   0  0  0  0  0  0  0  0  0  0  0  0
   56.0670   28.5880   45.1640 N   0  0  0  0  0  0  0  0  0  0  0  0
   55.7770   29.6880   44.2930 C   0  0  0  0  0  0  0  0  0  0  0  0
   54.6900   29.6840   43.6570 O   0  0  0  0  0  0  0  0  0  0  0  0
   56.7270   30.8070   44.0960 C   0  0  0  0  0  0  0  0  0  0  0  0
   57.2170   31.5070   45.2140 C   0  0  0  0  0  0  0  0  0  0  0  0
   58.1220   32.5600   45.0490 C   0  0  0  0  0  0  0  0  0  0  0  0
   58.5390   32.9340   43.7690 C   0  0  0  0  0  0  0  0  0  0  0  0
   58.0450   32.2580   42.6500 C   0  0  0  0  0  0  0  0  0  0  0  0
   57.1390   31.2030   42.8060 C   0  0  0  0  0  0  0  0  0  0  0  0
   56.6390   30.6000   41.6980 F   0  0  0  0  0  0  0  0  0  0  0  0
   53.2763   24.4398   45.8894 H   0  0  0  0  0  0  0  0  0  0  0  0
   54.1451   24.7385   44.3459 H   0  0  0  0  0  0  0  0  0  0  0  0
   52.6074   23.8100   44.3459 H   0  0  0  0  0  0  0  0  0  0  0  0
   55.5744   21.8228   42.9324 H   0  0  0  0  0  0  0  0  0  0  0  0
   58.0478   21.6165   42.7180 H   0  0  0  0  0  0  0  0  0  0  0  0
   59.5319   22.3823   44.5683 H   0  0  0  0  0  0  0  0  0  0  0  0
   58.5498   23.3524   46.6413 H   0  0  0  0  0  0  0  0  0  0  0  0
   54.8184   23.5557   47.2324 H   0  0  0  0  0  0  0  0  0  0  0  0
   56.3135   23.0314   48.1040 H   0  0  0  0  0  0  0  0  0  0  0  0
   58.8034   25.3014   46.9358 H   0  0  0  0  0  0  0  0  0  0  0  0
   60.8722   26.5585   46.3377 H   0  0  0  0  0  0  0  0  0  0  0  0
   60.7059   28.7760   45.2074 H   0  0  0  0  0  0  0  0  0  0  0  0
   58.4723   29.7319   44.6488 H   0  0  0  0  0  0  0  0  0  0  0  0
   56.8860   31.2240   46.2241 H   0  0  0  0  0  0  0  0  0  0  0  0
   58.5068   33.0955   45.9295 H   0  0  0  0  0  0  0  0  0  0  0  0
   59.2551   33.7593   43.6422 H   0  0  0  0  0  0  0  0  0  0  0  0
   58.3697   32.5565   41.6423 H   0  0  0  0  0  0  0  0  0  0  0  0
  1  2  1  0
  2  3  1  0
  3  4  2  0
  4  5  1  0
  5  6  2  0
  6  7  1  0
  7  8  2  0
  8  9  1  0
  9 10  1  0
 10 11  1  0
 11 12  2  0
 11 13  1  0
 13 14  2  0
 14 15  1  0
 15 16  2  0
 16 17  1  0
 17 18  2  0
 18 19  1  0
 19 20  1  0
 20 21  2  0
 20 22  1  0
 22 23  2  0
 23 24  1  0
 24 25  2  0
 25 26  1  0
 26 27  2  0
 27 28  1  0
  8  3  1  0
 18 13  1  0
 27 22  1  0
  1 29  1  0
  1 30  1  0
  1 31  1  0
  4 32  1  0
  5 33  1  0
  6 34  1  0
  7 35  1  0
  9 36  1  0
  9 37  1  0
 14 38  1  0
 15 39  1  0
 16 40  1  0
 17 41  1  0
 23 42  1  0
 24 43  1  0
 25 44  1  0
 26 45  1  0
M  CHG  2  10  -1  19  -1
M  END
>  <UniqueID>  (44) 
42

>  <SMILES>  (44) 
COc1ccccc1C[N-]C(=O)c1ccccc1[N-]C(=O)c1ccccc1F

>  <Energy>  (44) 
57.46997748032885

>  <Genealogy>  (44) 
COc1ccccc1C[N-]C(=O)c1ccccc1[N-]C(=O)c1ccccc1F (protonated)
COc1ccccc1C[N-]C(=O)c1ccccc1[N-]C(=O)c1ccccc1F (3D coordinates assigned)
COc1ccccc1C[N-]C(=O)c1ccccc1[N-]C(=O)c1ccccc1F (optimized conformer: 57.46997748032885 kcal/mol)

>  <smiles>  (44) 
COc1ccccc1CNC(=O)c1ccccc1NC(=O)c1ccccc1F

>  <score_type>  (44) 
oracle

>  <origin>  (44) 
adg

>  <m_score__min__energy>  (44) 
-12.880000000000001

>  <m_primary>  (44) 
energy

$$$$
45:0
     RDKit          3D

 45 48  0  0  0  0  0  0  0  0999 V2000
   62.4160   30.8790   47.0450 O   0  0  0  0  0  0  0  0  0  0  0  0
   61.2310   30.8570   47.4760 C   0  0  0  0  0  0  0  0  0  0  0  0
   60.7200   29.6760   48.1120 N   0  0  0  0  0  0  0  0  0  0  0  0
   59.7130   28.7930   47.5960 C   0  0  0  0  0  0  0  0  0  0  0  0
   59.6660   27.4770   48.0730 C   0  0  0  0  0  0  0  0  0  0  0  0
   58.6890   26.5900   47.6130 C   0  0  0  0  0  0  0  0  0  0  0  0
   57.7380   27.0140   46.6750 C   0  0  0  0  0  0  0  0  0  0  0  0
   56.4970   25.9030   46.1090 S   0  0  0  0  0  0  0  0  0  0  0  0
   56.3520   24.7720   47.0890 O   0  0  0  0  0  0  0  0  0  0  0  0
   55.1860   26.6310   45.9960 O   0  0  0  0  0  0  0  0  0  0  0  0
   56.9640   25.2840   44.5570 N   0  0  0  0  0  0  0  0  0  0  0  0
   57.1270   24.0250   44.2920 C   0  0  0  0  0  0  0  0  0  0  0  0
   56.2900   23.3450   43.4830 N   0  0  0  0  0  0  0  0  0  0  0  0
   56.6620   22.0430   43.3550 C   0  0  0  0  0  0  0  0  0  0  0  0
   57.8000   21.6800   44.0670 C   0  0  0  0  0  0  0  0  0  0  0  0
   58.3620   23.0400   44.8850 S   0  0  0  0  0  0  0  0  0  0  0  0
   57.7610   28.3380   46.2200 C   0  0  0  0  0  0  0  0  0  0  0  0
   58.7380   29.2260   46.6790 C   0  0  0  0  0  0  0  0  0  0  0  0
   60.3850   32.0680   47.3730 C   0  0  0  0  0  0  0  0  0  0  0  0
   60.4430   33.0690   48.3610 C   0  0  0  0  0  0  0  0  0  0  0  0
   59.6340   34.2040   48.2670 C   0  0  0  0  0  0  0  0  0  0  0  0
   58.7650   34.3600   47.1860 C   0  0  0  0  0  0  0  0  0  0  0  0
   58.7110   33.3850   46.1760 C   0  0  0  0  0  0  0  0  0  0  0  0
   57.8080   33.5020   45.0690 N   0  0  0  0  0  0  0  0  0  0  0  0
   57.8100   32.6900   43.8880 C   0  0  0  0  0  0  0  0  0  0  0  0
   58.4460   33.0900   42.8770 O   0  0  0  0  0  0  0  0  0  0  0  0
   57.0290   31.4430   43.8050 C   0  0  0  0  0  0  0  0  0  0  0  0
   56.9680   30.6000   42.7110 C   0  0  0  0  0  0  0  0  0  0  0  0
   56.1160   29.5790   43.0760 C   0  0  0  0  0  0  0  0  0  0  0  0
   55.7070   29.8630   44.3630 C   0  0  0  0  0  0  0  0  0  0  0  0
   56.2660   30.9800   44.7680 O   0  0  0  0  0  0  0  0  0  0  0  0
   59.5040   32.2360   46.2870 C   0  0  0  0  0  0  0  0  0  0  0  0
   60.4039   27.1390   48.8155 H   0  0  0  0  0  0  0  0  0  0  0  0
   58.6663   25.5562   47.9882 H   0  0  0  0  0  0  0  0  0  0  0  0
   56.1029   21.3285   42.7330 H   0  0  0  0  0  0  0  0  0  0  0  0
   58.2541   20.6784   44.0915 H   0  0  0  0  0  0  0  0  0  0  0  0
   57.0060   28.6812   45.4973 H   0  0  0  0  0  0  0  0  0  0  0  0
   58.7445   30.2665   46.3221 H   0  0  0  0  0  0  0  0  0  0  0  0
   61.1299   32.9568   49.2128 H   0  0  0  0  0  0  0  0  0  0  0  0
   59.6820   34.9775   49.0477 H   0  0  0  0  0  0  0  0  0  0  0  0
   58.1204   35.2492   47.1247 H   0  0  0  0  0  0  0  0  0  0  0  0
   57.4900   30.7189   41.7501 H   0  0  0  0  0  0  0  0  0  0  0  0
   55.8218   28.7131   42.4647 H   0  0  0  0  0  0  0  0  0  0  0  0
   55.0174   29.2472   44.9591 H   0  0  0  0  0  0  0  0  0  0  0  0
   59.4379   31.4544   45.5158 H   0  0  0  0  0  0  0  0  0  0  0  0
  1  2  2  0
  2  3  1  0
  3  4  1  0
  4  5  2  0
  5  6  1  0
  6  7  2  0
  7  8  1  0
  8  9  2  0
  8 10  2  0
  8 11  1  0
 11 12  2  3
 12 13  1  0
 13 14  1  0
 14 15  2  0
 15 16  1  0
  7 17  1  0
 17 18  2  0
  2 19  1  0
 19 20  2  0
 20 21  1  0
 21 22  2  0
 22 23  1  0
 23 24  1  0
 24 25  1  0
 25 26  2  0
 25 27  1  0
 27 28  2  0
 28 29  1  0
 29 30  2  0
 30 31  1  0
 23 32  2  0
 18  4  1  0
 32 19  1  0
 16 12  1  0
 31 27  1  0
  5 33  1  0
  6 34  1  0
 14 35  1  0
 15 36  1  0
 17 37  1  0
 18 38  1  0
 20 39  1  0
 21 40  1  0
 22 41  1  0
 28 42  1  0
 29 43  1  0
 30 44  1  0
 32 45  1  0
M  CHG  3   3  -1  13  -1  24  -1
M  END
>  <UniqueID>  (45) 
43

>  <SMILES>  (45) 
O=C([N-]c1ccc(S(=O)(=O)N=c2[n-]ccs2)cc1)c1cccc([N-]C(=O)c2ccco2)c1

>  <Energy>  (45) 
118.8454180513817

>  <Genealogy>  (45) 
O=C([N-]c1ccc(S(=O)(=O)N=c2[n-]ccs2)cc1)c1cccc([N-]C(=O)c2ccco2)c1 (protonated)
O=C([N-]c1ccc(S(=O)(=O)N=c2[n-]ccs2)cc1)c1cccc([N-]C(=O)c2ccco2)c1 (3D coordinates assigned)
O=C([N-]c1ccc(S(=O)(=O)N=c2[n-]ccs2)cc1)c1cccc([N-]C(=O)c2ccco2)c1 (optimized conformer: 118.8454180513817 kcal/mol)

>  <smiles>  (45) 
O=C(Nc1ccc(S(=O)(=O)N=c2[nH]ccs2)cc1)c1cccc(NC(=O)c2ccco2)c1

>  <score_type>  (45) 
oracle

>  <origin>  (45) 
adg

>  <m_score__min__energy>  (45) 
-13.039999999999999

>  <m_primary>  (45) 
energy

$$$$
46:0
     RDKit          3D

 33 34  0  0  0  0  0  0  0  0999 V2000
   60.2820   34.2670   49.1680 C   0  0  0  0  0  0  0  0  0  0  0  0
   59.5490   34.0860   47.8720 C   0  0  0  0  0  0  0  0  0  0  0  0
   59.9490   34.7940   46.7290 C   0  0  0  0  0  0  0  0  0  0  0  0
   59.2900   34.5980   45.5130 C   0  0  0  0  0  0  0  0  0  0  0  0
   58.2320   33.6860   45.4150 C   0  0  0  0  0  0  0  0  0  0  0  0
   57.6020   33.5270   44.1720 O   0  0  0  0  0  0  0  0  0  0  0  0
   57.7910   32.4080   43.3110 C   0  0  0  0  0  0  0  0  0  0  0  0
   57.3500   31.1670   44.0160 C   0  0  0  0  0  0  0  0  0  0  0  0
   56.2210   31.1430   44.5770 O   0  0  0  0  0  0  0  0  0  0  0  0
   58.1680   29.9880   43.9670 N   0  0  0  0  0  0  0  0  0  0  0  0
   57.9280   28.8060   44.7510 C   0  0  0  0  0  0  0  0  0  0  0  0
   59.0140   28.1460   45.3490 C   0  0  0  0  0  0  0  0  0  0  0  0
   58.8040   27.0070   46.1320 C   0  0  0  0  0  0  0  0  0  0  0  0
   57.5090   26.5260   46.3380 C   0  0  0  0  0  0  0  0  0  0  0  0
   56.4190   27.1890   45.7680 C   0  0  0  0  0  0  0  0  0  0  0  0
   55.1300   26.7200   45.9860 O   0  0  0  0  0  0  0  0  0  0  0  0
   56.6240   28.3280   44.9800 C   0  0  0  0  0  0  0  0  0  0  0  0
   57.8410   32.9640   46.5590 C   0  0  0  0  0  0  0  0  0  0  0  0
   58.5000   33.1600   47.7760 C   0  0  0  0  0  0  0  0  0  0  0  0
   59.5912   34.0964   50.0069 H   0  0  0  0  0  0  0  0  0  0  0  0
   61.1115   33.5467   49.2238 H   0  0  0  0  0  0  0  0  0  0  0  0
   60.6809   35.2906   49.2238 H   0  0  0  0  0  0  0  0  0  0  0  0
   60.7849   35.5064   46.7905 H   0  0  0  0  0  0  0  0  0  0  0  0
   59.6050   35.1651   44.6246 H   0  0  0  0  0  0  0  0  0  0  0  0
   57.1955   32.5429   42.3960 H   0  0  0  0  0  0  0  0  0  0  0  0
   58.8544   32.3231   43.0427 H   0  0  0  0  0  0  0  0  0  0  0  0
   58.9350   29.9600   43.2570 H   0  0  0  0  0  0  0  0  0  0  0  0
   60.0351   28.5272   45.2005 H   0  0  0  0  0  0  0  0  0  0  0  0
   59.6608   26.4884   46.5870 H   0  0  0  0  0  0  0  0  0  0  0  0
   57.3472   25.6256   46.9488 H   0  0  0  0  0  0  0  0  0  0  0  0
   55.7630   28.8511   44.5383 H   0  0  0  0  0  0  0  0  0  0  0  0
   57.0132   32.2425   46.4946 H   0  0  0  0  0  0  0  0  0  0  0  0
   58.1944   32.5852   48.6627 H   0  0  0  0  0  0  0  0  0  0  0  0
  1  2  1  0
  2  3  2  0
  3  4  1  0
  4  5  2  0
  5  6  1  0
  6  7  1  0
  7  8  1  0
  8  9  2  0
  8 10  1  0
 10 11  1  0
 11 12  2  0
 12 13  1  0
 13 14  2  0
 14 15  1  0
 15 16  1  0
 15 17  2  0
  5 18  1  0
 18 19  2  0
 19  2  1  0
 17 11  1  0
  1 20  1  0
  1 21  1  0
  1 22  1  0
  3 23  1  0
  4 24  1  0
  7 25  1  0
  7 26  1  0
 10 27  1  0
 12 28  1  0
 13 29  1  0
 14 30  1  0
 17 31  1  0
 18 32  1  0
 19 33  1  0
M  CHG  1  16  -1
M  END
>  <UniqueID>  (46) 
44

>  <SMILES>  (46) 
Cc1ccc(OCC(=O)Nc2cccc([O-])c2)cc1

>  <Energy>  (46) 
34.2861168443826

>  <Genealogy>  (46) 
Cc1ccc(OCC(=O)Nc2cccc([O-])c2)cc1 (protonated)
Cc1ccc(OCC(=O)Nc2cccc([O-])c2)cc1 (3D coordinates assigned)
Cc1ccc(OCC(=O)Nc2cccc([O-])c2)cc1 (optimized conformer: 34.2861168443826 kcal/mol)

>  <smiles>  (46) 
Cc1ccc(OCC(=O)Nc2cccc(O)c2)cc1

>  <score_type>  (46) 
oracle

>  <origin>  (46) 
adg

>  <m_score__min__energy>  (46) 
-11.34

>  <m_primary>  (46) 
energy

$$$$
47:0
     RDKit          3D

 38 41  0  0  0  0  0  0  0  0999 V2000
   56.2730   31.5170   44.5260 O   0  0  0  0  0  0  0  0  0  0  0  0
   57.2410   32.1960   44.9600 C   0  0  0  0  0  0  0  0  0  0  0  0
   57.4090   33.5330   44.5470 C   0  0  0  0  0  0  0  0  0  0  0  0
   58.4840   34.2850   45.0420 C   0  0  0  0  0  0  0  0  0  0  0  0
   59.3500   33.6550   45.9280 C   0  0  0  0  0  0  0  0  0  0  0  0
   60.4240   34.2100   46.5240 N   0  0  0  0  0  0  0  0  0  0  0  0
   60.9150   33.2030   47.2910 C   0  0  0  0  0  0  0  0  0  0  0  0
   62.1230   33.3710   48.1710 C   0  0  0  0  0  0  0  0  0  0  0  0
   63.4070   32.9260   47.4710 C   0  0  0  0  0  0  0  0  0  0  0  0
   64.4800   33.1160   48.3220 F   0  0  0  0  0  0  0  0  0  0  0  0
   63.6120   33.6710   46.3220 F   0  0  0  0  0  0  0  0  0  0  0  0
   63.3350   31.5870   47.1410 F   0  0  0  0  0  0  0  0  0  0  0  0
   60.1390   32.0540   47.1320 C   0  0  0  0  0  0  0  0  0  0  0  0
   60.3300   30.7070   47.7800 C   0  0  0  0  0  0  0  0  0  0  0  0
   59.7840   29.5830   46.9310 C   0  0  0  0  0  0  0  0  0  0  0  0
   60.4160   29.2600   45.7010 C   0  0  0  0  0  0  0  0  0  0  0  0
   59.9140   28.2330   44.8810 C   0  0  0  0  0  0  0  0  0  0  0  0
   58.7760   27.5570   45.3100 C   0  0  0  0  0  0  0  0  0  0  0  0
   58.0710   26.5260   44.7280 C   0  0  0  0  0  0  0  0  0  0  0  0
   57.0260   26.2590   45.6070 C   0  0  0  0  0  0  0  0  0  0  0  0
   57.0780   27.0820   46.6790 N   0  0  0  0  0  0  0  0  0  0  0  0
   58.1500   27.8680   46.4870 C   0  0  0  0  0  0  0  0  0  0  0  0
   58.6190   28.8790   47.3220 C   0  0  0  0  0  0  0  0  0  0  0  0
   59.1500   32.3780   46.2810 N   0  0  0  0  0  0  0  0  0  0  0  0
   58.1290   31.6410   45.8370 N   0  0  0  0  0  0  0  0  0  0  0  0
   56.6991   33.9851   43.8387 H   0  0  0  0  0  0  0  0  0  0  0  0
   58.6359   35.3321   44.7410 H   0  0  0  0  0  0  0  0  0  0  0  0
   62.2176   34.4319   48.4458 H   0  0  0  0  0  0  0  0  0  0  0  0
   61.9852   32.7404   49.0617 H   0  0  0  0  0  0  0  0  0  0  0  0
   61.4054   30.5400   47.9398 H   0  0  0  0  0  0  0  0  0  0  0  0
   59.7794   30.7092   48.7323 H   0  0  0  0  0  0  0  0  0  0  0  0
   61.3089   29.8196   45.3856 H   0  0  0  0  0  0  0  0  0  0  0  0
   60.4051   27.9729   43.9317 H   0  0  0  0  0  0  0  0  0  0  0  0
   58.2876   26.0226   43.7742 H   0  0  0  0  0  0  0  0  0  0  0  0
   56.2613   25.4838   45.4512 H   0  0  0  0  0  0  0  0  0  0  0  0
   56.4180   27.1000   47.4890 H   0  0  0  0  0  0  0  0  0  0  0  0
   58.0988   29.1241   48.2597 H   0  0  0  0  0  0  0  0  0  0  0  0
   57.9990   30.6560   46.1570 H   0  0  0  0  0  0  0  0  0  0  0  0
  1  2  2  0
  2  3  1  0
  3  4  2  0
  4  5  1  0
  5  6  2  0
  6  7  1  0
  7  8  1  0
  8  9  1  0
  9 10  1  0
  9 11  1  0
  9 12  1  0
  7 13  2  0
 13 14  1  0
 14 15  1  0
 15 16  2  0
 16 17  1  0
 17 18  2  0
 18 19  1  0
 19 20  2  0
 20 21  1  0
 21 22  1  0
 22 23  2  0
 13 24  1  0
 24 25  1  0
 25  2  1  0
 24  5  1  0
 23 15  1  0
 22 18  1  0
  3 26  1  0
  4 27  1  0
  8 28  1  0
  8 29  1  0
 14 30  1  0
 14 31  1  0
 16 32  1  0
 17 33  1  0
 19 34  1  0
 20 35  1  0
 21 36  1  0
 23 37  1  0
 25 38  1  0
M  END
>  <UniqueID>  (47) 
45

>  <SMILES>  (47) 
O=c1ccc2nc(CC(F)(F)F)c(Cc3ccc4cc[nH]c4c3)n2[nH]1

>  <Energy>  (47) 
107.81163079361082

>  <Genealogy>  (47) 
O=c1ccc2nc(CC(F)(F)F)c(Cc3ccc4cc[nH]c4c3)n2[nH]1 (3D coordinates assigned)
O=c1ccc2nc(CC(F)(F)F)c(Cc3ccc4cc[nH]c4c3)n2[nH]1 (optimized conformer: 107.81163079361082 kcal/mol)

>  <smiles>  (47) 
O=c1ccc2nc(CC(F)(F)F)c(Cc3ccc4cc[nH]c4c3)n2[nH]1

>  <score_type>  (47) 
oracle

>  <origin>  (47) 
adg

>  <m_score__min__energy>  (47) 
-7.4199999999999999

>  <m_primary>  (47) 
energy

$$$$
48:0
     RDKit          3D

 43 45  0  0  0  0  0  0  0  0999 V2000
   55.9650   30.3740   53.2970 C   0  0  0  0  0  0  0  0  0  0  0  0
   56.9870   31.1680   52.5390 C   0  0  0  0  0  0  0  0  0  0  0  0
   57.5000   32.3570   53.0760 C   0  0  0  0  0  0  0  0  0  0  0  0
   58.4060   33.1280   52.3410 C   0  0  0  0  0  0  0  0  0  0  0  0
   58.7810   32.7450   51.0490 C   0  0  0  0  0  0  0  0  0  0  0  0
   59.6810   33.5860   50.3120 N   0  0  0  0  0  0  0  0  0  0  0  0
   59.6680   33.8220   48.8950 C   0  0  0  0  0  0  0  0  0  0  0  0
   59.6920   35.0070   48.4760 O   0  0  0  0  0  0  0  0  0  0  0  0
   59.6300   32.7490   47.9430 N   0  0  0  0  0  0  0  0  0  0  0  0
   58.9710   32.7820   46.6710 C   0  0  0  0  0  0  0  0  0  0  0  0
   59.4480   33.6530   45.6870 C   0  0  0  0  0  0  0  0  0  0  0  0
   58.8510   33.6830   44.4270 C   0  0  0  0  0  0  0  0  0  0  0  0
   57.7640   32.8520   44.1470 C   0  0  0  0  0  0  0  0  0  0  0  0
   57.2580   31.9850   45.1240 C   0  0  0  0  0  0  0  0  0  0  0  0
   56.1100   31.1880   44.7880 N   0  0  0  0  0  0  0  0  0  0  0  0
   56.0630   29.8480   44.2840 C   0  0  0  0  0  0  0  0  0  0  0  0
   56.4010   29.6410   43.0890 O   0  0  0  0  0  0  0  0  0  0  0  0
   55.6390   28.7570   45.1090 N   0  0  0  0  0  0  0  0  0  0  0  0
   56.4800   27.7070   45.6050 C   0  0  0  0  0  0  0  0  0  0  0  0
   57.8710   27.8780   45.7240 C   0  0  0  0  0  0  0  0  0  0  0  0
   58.6640   26.8520   46.2510 C   0  0  0  0  0  0  0  0  0  0  0  0
   60.3970   27.0750   46.4000 Cl  0  0  0  0  0  0  0  0  0  0  0  0
   58.0720   25.6560   46.6720 C   0  0  0  0  0  0  0  0  0  0  0  0
   56.6880   25.4890   46.5740 C   0  0  0  0  0  0  0  0  0  0  0  0
   55.8920   26.5120   46.0480 C   0  0  0  0  0  0  0  0  0  0  0  0
   54.5150   26.3350   45.9610 O   0  0  0  0  0  0  0  0  0  0  0  0
   57.8520   31.9740   46.4010 C   0  0  0  0  0  0  0  0  0  0  0  0
   58.2960   31.5340   50.5230 C   0  0  0  0  0  0  0  0  0  0  0  0
   57.3880   30.7640   51.2550 C   0  0  0  0  0  0  0  0  0  0  0  0
   56.1291   30.5015   54.3772 H   0  0  0  0  0  0  0  0  0  0  0  0
   54.9572   30.7284   53.0349 H   0  0  0  0  0  0  0  0  0  0  0  0
   56.0592   29.3099   53.0349 H   0  0  0  0  0  0  0  0  0  0  0  0
   57.1888   32.6846   54.0789 H   0  0  0  0  0  0  0  0  0  0  0  0
   58.8272   34.0432   52.7825 H   0  0  0  0  0  0  0  0  0  0  0  0
   60.2970   34.3168   45.9073 H   0  0  0  0  0  0  0  0  0  0  0  0
   59.2368   34.3622   43.6525 H   0  0  0  0  0  0  0  0  0  0  0  0
   57.3007   32.8786   43.1497 H   0  0  0  0  0  0  0  0  0  0  0  0
   58.3371   28.8209   45.4019 H   0  0  0  0  0  0  0  0  0  0  0  0
   58.6960   24.8473   47.0801 H   0  0  0  0  0  0  0  0  0  0  0  0
   56.2234   24.5507   46.9113 H   0  0  0  0  0  0  0  0  0  0  0  0
   57.4386   31.3301   47.1912 H   0  0  0  0  0  0  0  0  0  0  0  0
   58.6322   31.1921   49.5330 H   0  0  0  0  0  0  0  0  0  0  0  0
   56.9850   29.8361   50.8230 H   0  0  0  0  0  0  0  0  0  0  0  0
  1  2  1  0
  2  3  2  0
  3  4  1  0
  4  5  2  0
  5  6  1  0
  6  7  1  0
  7  8  2  0
  7  9  1  0
  9 10  1  0
 10 11  2  0
 11 12  1  0
 12 13  2  0
 13 14  1  0
 14 15  1  0
 15 16  1  0
 16 17  2  0
 16 18  1  0
 18 19  1  0
 19 20  2  0
 20 21  1  0
 21 22  1  0
 21 23  2  0
 23 24  1  0
 24 25  2  0
 25 26  1  0
 14 27  2  0
  5 28  1  0
 28 29  2  0
 29  2  1  0
 27 10  1  0
 25 19  1  0
  1 30  1  0
  1 31  1  0
  1 32  1  0
  3 33  1  0
  4 34  1  0
 11 35  1  0
 12 36  1  0
 13 37  1  0
 20 38  1  0
 23 39  1  0
 24 40  1  0
 27 41  1  0
 28 42  1  0
 29 43  1  0
M  CHG  5   6  -1   9  -1  15  -1  18  -1  26  -1
M  END
>  <UniqueID>  (48) 
46

>  <SMILES>  (48) 
Cc1ccc([N-]C(=O)[N-]c2cccc([N-]C(=O)[N-]c3cc(Cl)ccc3[O-])c2)cc1

>  <Energy>  (48) 
57.35776727834696

>  <Genealogy>  (48) 
Cc1ccc([N-]C(=O)[N-]c2cccc([N-]C(=O)[N-]c3cc(Cl)ccc3[O-])c2)cc1 (protonated)
Cc1ccc([N-]C(=O)[N-]c2cccc([N-]C(=O)[N-]c3cc(Cl)ccc3[O-])c2)cc1 (3D coordinates assigned)
Cc1ccc([N-]C(=O)[N-]c2cccc([N-]C(=O)[N-]c3cc(Cl)ccc3[O-])c2)cc1 (optimized conformer: 57.35776727834696 kcal/mol)

>  <smiles>  (48) 
Cc1ccc(NC(=O)Nc2cccc(NC(=O)Nc3cc(Cl)ccc3O)c2)cc1

>  <score_type>  (48) 
oracle

>  <origin>  (48) 
adg

>  <m_score__min__energy>  (48) 
-18.109999999999999

>  <m_primary>  (48) 
energy

$$$$
49:0
     RDKit          3D

 49 52  0  0  0  0  0  0  0  0999 V2000
   55.1930   29.7410   44.8570 O   0  0  0  0  0  0  0  0  0  0  0  0
   56.2690   29.1260   44.6260 C   0  0  0  0  0  0  0  0  0  0  0  0
   56.5150   27.8820   45.2900 N   0  0  0  0  0  0  0  0  0  0  0  0
   57.6130   27.6000   46.1680 C   0  0  0  0  0  0  0  0  0  0  0  0
   58.1680   26.2970   46.1670 C   0  0  0  0  0  0  0  0  0  0  0  0
   59.2320   25.9720   47.0290 C   0  0  0  0  0  0  0  0  0  0  0  0
   59.7090   26.9650   47.8780 C   0  0  0  0  0  0  0  0  0  0  0  0
   59.1730   28.2110   47.8950 C   0  0  0  0  0  0  0  0  0  0  0  0
   58.1150   28.5720   47.0670 C   0  0  0  0  0  0  0  0  0  0  0  0
   59.8370   28.9820   48.8270 O   0  0  0  0  0  0  0  0  0  0  0  0
   60.8570   28.1740   49.4280 C   0  0  0  0  0  0  0  0  0  0  0  0
   60.7360   26.8910   48.7970 O   0  0  0  0  0  0  0  0  0  0  0  0
   57.2020   29.6430   43.6660 N   0  0  0  0  0  0  0  0  0  0  0  0
   57.1100   31.0010   43.1360 C   0  0  0  0  0  0  0  0  0  0  0  0
   57.7270   31.9650   44.1090 C   0  0  0  0  0  0  0  0  0  0  0  0
   57.8150   31.6340   45.4700 C   0  0  0  0  0  0  0  0  0  0  0  0
   58.4360   32.5060   46.3690 C   0  0  0  0  0  0  0  0  0  0  0  0
   58.9930   33.7090   45.9160 C   0  0  0  0  0  0  0  0  0  0  0  0
   59.7950   34.8010   47.0450 S   0  0  0  0  0  0  0  0  0  0  0  0
   59.9720   36.1380   46.3770 O   0  0  0  0  0  0  0  0  0  0  0  0
   58.9140   35.0010   48.2470 O   0  0  0  0  0  0  0  0  0  0  0  0
   61.3620   34.2090   47.5610 N   0  0  0  0  0  0  0  0  0  0  0  0
   61.8670   33.1110   46.7090 C   0  0  0  0  0  0  0  0  0  0  0  0
   61.6780   31.7220   47.3450 C   0  0  0  0  0  0  0  0  0  0  0  0
   60.5610   31.7180   48.2040 O   0  0  0  0  0  0  0  0  0  0  0  0
   60.8370   32.5060   49.3460 C   0  0  0  0  0  0  0  0  0  0  0  0
   61.4070   33.9030   49.0030 C   0  0  0  0  0  0  0  0  0  0  0  0
   58.9120   34.0380   44.5540 C   0  0  0  0  0  0  0  0  0  0  0  0
   58.2910   33.1670   43.6550 C   0  0  0  0  0  0  0  0  0  0  0  0
   57.7641   25.5326   45.4868 H   0  0  0  0  0  0  0  0  0  0  0  0
   59.6726   24.9641   47.0312 H   0  0  0  0  0  0  0  0  0  0  0  0
   57.6815   29.5821   47.1094 H   0  0  0  0  0  0  0  0  0  0  0  0
   61.8517   28.6046   49.2404 H   0  0  0  0  0  0  0  0  0  0  0  0
   60.7421   28.1093   50.5201 H   0  0  0  0  0  0  0  0  0  0  0  0
   57.8840   28.9830   43.2290 H   0  0  0  0  0  0  0  0  0  0  0  0
   57.6452   31.0565   42.1766 H   0  0  0  0  0  0  0  0  0  0  0  0
   56.0525   31.2626   42.9836 H   0  0  0  0  0  0  0  0  0  0  0  0
   57.3935   30.6842   45.8309 H   0  0  0  0  0  0  0  0  0  0  0  0
   58.4875   32.2465   47.4367 H   0  0  0  0  0  0  0  0  0  0  0  0
   61.3276   33.1343   45.7506 H   0  0  0  0  0  0  0  0  0  0  0  0
   62.9475   33.2679   46.5753 H   0  0  0  0  0  0  0  0  0  0  0  0
   61.5250   30.9779   46.5495 H   0  0  0  0  0  0  0  0  0  0  0  0
   62.5762   31.4744   47.9298 H   0  0  0  0  0  0  0  0  0  0  0  0
   59.9033   32.6393   49.9121 H   0  0  0  0  0  0  0  0  0  0  0  0
   61.6038   31.9758   49.9299 H   0  0  0  0  0  0  0  0  0  0  0  0
   60.8196   34.6621   49.5403 H   0  0  0  0  0  0  0  0  0  0  0  0
   62.4643   33.9089   49.3063 H   0  0  0  0  0  0  0  0  0  0  0  0
   59.3390   34.9852   44.1928 H   0  0  0  0  0  0  0  0  0  0  0  0
   58.2441   33.4247   42.5866 H   0  0  0  0  0  0  0  0  0  0  0  0
  1  2  2  0
  2  3  1  0
  3  4  1  0
  4  5  2  0
  5  6  1  0
  6  7  2  0
  7  8  1  0
  8  9  2  0
  8 10  1  0
 10 11  1  0
 11 12  1  0
  2 13  1  0
 13 14  1  0
 14 15  1  0
 15 16  2  0
 16 17  1  0
 17 18  2  0
 18 19  1  0
 19 20  2  0
 19 21  2  0
 19 22  1  0
 22 23  1  0
 23 24  1  0
 24 25  1  0
 25 26  1  0
 26 27  1  0
 18 28  1  0
 28 29  2  0
  9  4  1  0
 29 15  1  0
 12  7  1  0
 27 22  1  0
  5 30  1  0
  6 31  1  0
  9 32  1  0
 11 33  1  0
 11 34  1  0
 13 35  1  0
 14 36  1  0
 14 37  1  0
 16 38  1  0
 17 39  1  0
 23 40  1  0
 23 41  1  0
 24 42  1  0
 24 43  1  0
 26 44  1  0
 26 45  1  0
 27 46  1  0
 27 47  1  0
 28 48  1  0
 29 49  1  0
M  CHG  1   3  -1
M  END
>  <UniqueID>  (49) 
47

>  <SMILES>  (49) 
O=C([N-]c1ccc2c(c1)OCO2)NCc1ccc(S(=O)(=O)N2CCOCC2)cc1

>  <Energy>  (49) 
89.99024093032313

>  <Genealogy>  (49) 
O=C([N-]c1ccc2c(c1)OCO2)NCc1ccc(S(=O)(=O)N2CCOCC2)cc1 (protonated)
O=C([N-]c1ccc2c(c1)OCO2)NCc1ccc(S(=O)(=O)N2CCOCC2)cc1 (3D coordinates assigned)
O=C([N-]c1ccc2c(c1)OCO2)NCc1ccc(S(=O)(=O)N2CCOCC2)cc1 (nonaromatic ring conformer: 89.99024093032313 kcal/mol)

>  <smiles>  (49) 
O=C(NCc1ccc(S(=O)(=O)N2CCOCC2)cc1)Nc1ccc2c(c1)OCO2

>  <score_type>  (49) 
oracle

>  <origin>  (49) 
adg

>  <m_score__min__energy>  (49) 
-10.800000000000001

>  <m_primary>  (49) 
energy

$$$$
50:0
     RDKit          3D

 53 56  0  0  0  0  0  0  0  0999 V2000
   58.8800   32.6120   51.0960 C   0  0  0  0  0  0  0  0  0  0  0  0
   59.7700   32.6260   49.9840 O   0  0  0  0  0  0  0  0  0  0  0  0
   59.3710   32.5920   48.6400 C   0  0  0  0  0  0  0  0  0  0  0  0
   59.1130   33.7710   47.9180 C   0  0  0  0  0  0  0  0  0  0  0  0
   58.7000   33.7120   46.5860 C   0  0  0  0  0  0  0  0  0  0  0  0
   58.5170   32.4760   45.9550 C   0  0  0  0  0  0  0  0  0  0  0  0
   58.0760   32.4230   44.5430 C   0  0  0  0  0  0  0  0  0  0  0  0
   58.4540   33.3260   43.7490 O   0  0  0  0  0  0  0  0  0  0  0  0
   57.2310   31.3700   44.0540 N   0  0  0  0  0  0  0  0  0  0  0  0
   57.1580   30.9100   42.7890 C   0  0  0  0  0  0  0  0  0  0  0  0
   56.2710   29.8590   42.7590 C   0  0  0  0  0  0  0  0  0  0  0  0
   55.8410   29.7240   44.0650 C   0  0  0  0  0  0  0  0  0  0  0  0
   56.4450   30.6480   44.8360 N   0  0  0  0  0  0  0  0  0  0  0  0
   58.7930   31.2970   46.6650 C   0  0  0  0  0  0  0  0  0  0  0  0
   59.2230   31.3460   47.9980 C   0  0  0  0  0  0  0  0  0  0  0  0
   59.5270   29.8310   48.8590 S   0  0  0  0  0  0  0  0  0  0  0  0
   60.5160   30.0780   49.9640 O   0  0  0  0  0  0  0  0  0  0  0  0
   58.2650   29.3050   49.4820 O   0  0  0  0  0  0  0  0  0  0  0  0
   60.2100   28.6760   47.7610 N   0  0  0  0  0  0  0  0  0  0  0  0
   59.4750   28.0200   46.7240 C   0  0  0  0  0  0  0  0  0  0  0  0
   59.5400   28.3070   45.3730 C   0  0  0  0  0  0  0  0  0  0  0  0
   60.4080   29.3470   44.7350 C   0  0  0  0  0  0  0  0  0  0  0  0
   58.6990   27.4750   44.7130 N   0  0  0  0  0  0  0  0  0  0  0  0
   58.4730   27.4490   43.2670 C   0  0  0  0  0  0  0  0  0  0  0  0
   58.0950   26.6860   45.6010 N   0  0  0  0  0  0  0  0  0  0  0  0
   57.0870   25.7040   45.3080 C   0  0  0  0  0  0  0  0  0  0  0  0
   57.3730   24.6340   44.4450 C   0  0  0  0  0  0  0  0  0  0  0  0
   56.3970   23.6700   44.1730 C   0  0  0  0  0  0  0  0  0  0  0  0
   55.1350   23.7650   44.7650 C   0  0  0  0  0  0  0  0  0  0  0  0
   54.8480   24.8200   45.6350 C   0  0  0  0  0  0  0  0  0  0  0  0
   55.8220   25.7860   45.9090 C   0  0  0  0  0  0  0  0  0  0  0  0
   58.5700   26.9850   46.8260 C   0  0  0  0  0  0  0  0  0  0  0  0
   58.2390   26.3820   47.8810 O   0  0  0  0  0  0  0  0  0  0  0  0
   59.4604   32.6211   52.0303 H   0  0  0  0  0  0  0  0  0  0  0  0
   58.2320   33.5001   51.0582 H   0  0  0  0  0  0  0  0  0  0  0  0
   58.2602   31.7040   51.0582 H   0  0  0  0  0  0  0  0  0  0  0  0
   59.2378   34.7482   48.4073 H   0  0  0  0  0  0  0  0  0  0  0  0
   58.5172   34.6426   46.0287 H   0  0  0  0  0  0  0  0  0  0  0  0
   57.7135   31.3077   41.9269 H   0  0  0  0  0  0  0  0  0  0  0  0
   55.9705   29.2587   41.8876 H   0  0  0  0  0  0  0  0  0  0  0  0
   55.1165   28.9765   44.4204 H   0  0  0  0  0  0  0  0  0  0  0  0
   58.6703   30.3228   46.1691 H   0  0  0  0  0  0  0  0  0  0  0  0
   60.9037   29.9409   45.5170 H   0  0  0  0  0  0  0  0  0  0  0  0
   61.1685   28.8565   44.1096 H   0  0  0  0  0  0  0  0  0  0  0  0
   59.7894   30.0075   44.1096 H   0  0  0  0  0  0  0  0  0  0  0  0
   57.3986   27.3254   43.0660 H   0  0  0  0  0  0  0  0  0  0  0  0
   58.8226   28.3933   42.8242 H   0  0  0  0  0  0  0  0  0  0  0  0
   59.0279   26.6088   42.8242 H   0  0  0  0  0  0  0  0  0  0  0  0
   58.3674   24.5537   43.9816 H   0  0  0  0  0  0  0  0  0  0  0  0
   56.6231   22.8361   43.4922 H   0  0  0  0  0  0  0  0  0  0  0  0
   54.3668   23.0087   44.5460 H   0  0  0  0  0  0  0  0  0  0  0  0
   53.8558   24.8910   46.1046 H   0  0  0  0  0  0  0  0  0  0  0  0
   55.5952   26.6128   46.5981 H   0  0  0  0  0  0  0  0  0  0  0  0
  1  2  1  0
  2  3  1  0
  3  4  2  0
  4  5  1  0
  5  6  2  0
  6  7  1  0
  7  8  2  0
  7  9  1  0
  9 10  1  0
 10 11  2  0
 11 12  1  0
 12 13  2  0
  6 14  1  0
 14 15  2  0
 15 16  1  0
 16 17  2  0
 16 18  2  0
 16 19  1  0
 19 20  1  0
 20 21  2  0
 21 22  1  0
 21 23  1  0
 23 24  1  0
 23 25  1  0
 25 26  1  0
 26 27  2  0
 27 28  1  0
 28 29  2  0
 29 30  1  0
 30 31  2  0
 25 32  1  0
 32 33  2  0
 15  3  1  0
 32 20  1  0
 13  9  1  0
 31 26  1  0
  1 34  1  0
  1 35  1  0
  1 36  1  0
  4 37  1  0
  5 38  1  0
 10 39  1  0
 11 40  1  0
 12 41  1  0
 14 42  1  0
 22 43  1  0
 22 44  1  0
 22 45  1  0
 24 46  1  0
 24 47  1  0
 24 48  1  0
 27 49  1  0
 28 50  1  0
 29 51  1  0
 30 52  1  0
 31 53  1  0
M  CHG  1  19  -1
M  END
>  <UniqueID>  (50) 
48

>  <SMILES>  (50) 
COc1ccc(C(=O)n2cccn2)cc1S(=O)(=O)[N-]c1c(C)n(C)n(-c2ccccc2)c1=O

>  <Energy>  (50) 
137.41034786216142

>  <Genealogy>  (50) 
COc1ccc(C(=O)n2cccn2)cc1S(=O)(=O)[N-]c1c(C)n(C)n(-c2ccccc2)c1=O (protonated)
COc1ccc(C(=O)n2cccn2)cc1S(=O)(=O)[N-]c1c(C)n(C)n(-c2ccccc2)c1=O (3D coordinates assigned)
COc1ccc(C(=O)n2cccn2)cc1S(=O)(=O)[N-]c1c(C)n(C)n(-c2ccccc2)c1=O (optimized conformer: 137.41034786216142 kcal/mol)

>  <smiles>  (50) 
COc1ccc(C(=O)n2cccn2)cc1S(=O)(=O)Nc1c(C)n(C)n(-c2ccccc2)c1=O

>  <score_type>  (50) 
oracle

>  <origin>  (50) 
adg

>  <m_score__min__energy>  (50) 
-10.9

>  <m_primary>  (50) 
energy

$$$$
51:0
     RDKit          3D

 57 62  0  0  0  0  0  0  0  0999 V2000
   54.0370   25.9630   45.6210 N   0  0  0  0  0  0  0  0  0  0  0  0
   55.2190   24.7050   45.5390 S   0  0  0  0  0  0  0  0  0  0  0  0
   54.8440   23.6040   46.4890 O   0  0  0  0  0  0  0  0  0  0  0  0
   55.2700   24.1450   44.1460 O   0  0  0  0  0  0  0  0  0  0  0  0
   56.7920   25.3570   45.9720 C   0  0  0  0  0  0  0  0  0  0  0  0
   57.2440   25.3000   47.2990 C   0  0  0  0  0  0  0  0  0  0  0  0
   58.4890   25.8280   47.6420 C   0  0  0  0  0  0  0  0  0  0  0  0
   59.2990   26.4180   46.6600 C   0  0  0  0  0  0  0  0  0  0  0  0
   60.6220   27.0260   47.0350 C   0  0  0  0  0  0  0  0  0  0  0  0
   60.4620   28.4950   47.2590 C   0  0  0  0  0  0  0  0  0  0  0  0
   61.2920   29.1480   48.1130 N   0  0  0  0  0  0  0  0  0  0  0  0
   61.1380   30.4720   48.3670 C   0  0  0  0  0  0  0  0  0  0  0  0
   61.9190   31.0400   49.1760 O   0  0  0  0  0  0  0  0  0  0  0  0
   60.1050   31.1910   47.7390 C   0  0  0  0  0  0  0  0  0  0  0  0
   59.2570   30.4930   46.8700 C   0  0  0  0  0  0  0  0  0  0  0  0
   59.4500   29.1680   46.6520 N   0  0  0  0  0  0  0  0  0  0  0  0
   58.2120   31.1710   46.1730 N   0  0  0  0  0  0  0  0  0  0  0  0
   58.0050   32.4520   46.2400 C   0  0  0  0  0  0  0  0  0  0  0  0
   57.0430   33.0740   45.2570 C   0  0  0  0  0  0  0  0  0  0  0  0
   57.3340   34.5650   45.0220 C   0  0  0  0  0  0  0  0  0  0  0  0
   58.8400   34.8480   44.9030 C   0  0  0  0  0  0  0  0  0  0  0  0
   59.6190   34.2560   46.0590 C   0  0  0  0  0  0  0  0  0  0  0  0
   60.7940   34.5490   46.2020 O   0  0  0  0  0  0  0  0  0  0  0  0
   58.9010   33.3650   47.0490 C   0  0  2  0  0  0  0  0  0  0  0  0
   59.8180   32.6360   48.0870 C   0  0  1  0  0  0  0  0  0  0  0  0
   59.2030   32.7030   49.4750 C   0  0  0  0  0  0  0  0  0  0  0  0
   59.5040   33.7940   50.3320 C   0  0  0  0  0  0  0  0  0  0  0  0
   58.9410   33.8730   51.6180 C   0  0  0  0  0  0  0  0  0  0  0  0
   58.0840   32.8540   52.0150 C   0  0  0  0  0  0  0  0  0  0  0  0
   57.7800   31.8140   51.2010 C   0  0  0  0  0  0  0  0  0  0  0  0
   58.3120   31.6970   49.9220 C   0  0  0  0  0  0  0  0  0  0  0  0
   56.9050   30.9640   51.8470 O   0  0  0  0  0  0  0  0  0  0  0  0
   56.6410   31.5050   53.1480 C   0  0  0  0  0  0  0  0  0  0  0  0
   57.4170   32.7090   53.2160 O   0  0  0  0  0  0  0  0  0  0  0  0
   58.8330   26.4950   45.3370 C   0  0  0  0  0  0  0  0  0  0  0  0
   57.5880   25.9640   44.9950 C   0  0  0  0  0  0  0  0  0  0  0  0
   54.1010   26.3720   46.5870 H   0  0  0  0  0  0  0  0  0  0  0  0
   54.3470   26.7090   44.9520 H   0  0  0  0  0  0  0  0  0  0  0  0
   56.6138   24.8369   48.0726 H   0  0  0  0  0  0  0  0  0  0  0  0
   58.8363   25.7816   48.6847 H   0  0  0  0  0  0  0  0  0  0  0  0
   60.9916   26.5546   47.9576 H   0  0  0  0  0  0  0  0  0  0  0  0
   61.3408   26.8605   46.2189 H   0  0  0  0  0  0  0  0  0  0  0  0
   57.1239   32.5420   44.2976 H   0  0  0  0  0  0  0  0  0  0  0  0
   56.0301   32.9904   45.6777 H   0  0  0  0  0  0  0  0  0  0  0  0
   56.8391   34.8807   44.0917 H   0  0  0  0  0  0  0  0  0  0  0  0
   56.9512   35.1255   45.8876 H   0  0  0  0  0  0  0  0  0  0  0  0
   59.2107   34.4116   43.9638 H   0  0  0  0  0  0  0  0  0  0  0  0
   58.9841   35.9384   44.9177 H   0  0  0  0  0  0  0  0  0  0  0  0
   58.2964   33.9848   47.7275 H   0  0  0  0  0  0  0  0  0  0  0  0
   60.7795   33.1698   48.0626 H   0  0  0  0  0  0  0  0  0  0  0  0
   60.1848   34.5858   49.9864 H   0  0  0  0  0  0  0  0  0  0  0  0
   59.1716   34.7143   52.2881 H   0  0  0  0  0  0  0  0  0  0  0  0
   58.0484   30.8471   49.2754 H   0  0  0  0  0  0  0  0  0  0  0  0
   55.5702   31.7286   53.2633 H   0  0  0  0  0  0  0  0  0  0  0  0
   56.9043   30.7989   53.9493 H   0  0  0  0  0  0  0  0  0  0  0  0
   59.4526   26.9764   44.5661 H   0  0  0  0  0  0  0  0  0  0  0  0
   57.2325   26.0230   43.9557 H   0  0  0  0  0  0  0  0  0  0  0  0
  1  2  1  0
  2  3  2  0
  2  4  2  0
  2  5  1  0
  5  6  2  0
  6  7  1  0
  7  8  2  0
  8  9  1  0
  9 10  1  0
 10 11  2  0
 11 12  1  0
 12 13  2  0
 12 14  1  0
 14 15  2  0
 15 16  1  0
 15 17  1  0
 17 18  2  0
 18 19  1  0
 19 20  1  0
 20 21  1  0
 21 22  1  0
 22 23  2  0
 22 24  1  0
 24 25  1  0
 25 26  1  0
 26 27  2  0
 27 28  1  0
 28 29  2  0
 29 30  1  0
 30 31  2  0
 30 32  1  0
 32 33  1  0
 33 34  1  0
  8 35  1  0
 35 36  2  0
 36  5  1  0
 16 10  1  0
 24 18  1  0
 31 26  1  0
 25 14  1  0
 34 29  1  0
  1 37  1  0
  1 38  1  0
  6 39  1  0
  7 40  1  0
  9 41  1  0
  9 42  1  0
 19 43  1  0
 19 44  1  0
 20 45  1  0
 20 46  1  0
 21 47  1  0
 21 48  1  0
 24 49  1  1
 25 50  1  1
 27 51  1  0
 28 52  1  0
 31 53  1  0
 33 54  1  0
 33 55  1  0
 35 56  1  0
 36 57  1  0
M  CHG  1  16  -1
M  END
>  <UniqueID>  (51) 
49

>  <SMILES>  (51) 
NS(=O)(=O)c1ccc(Cc2nc(=O)c3c([n-]2)N=C2CCCC(=O)[C@@H]2[C@H]3c2ccc3c(c2)OCO3)cc1

>  <Energy>  (51) 
100.15293293200239

>  <Genealogy>  (51) 
NS(=O)(=O)c1ccc(Cc2nc(=O)c3c([n-]2)N=C2CCCC(=O)C2C3c2ccc3c(c2)OCO3)cc1 (protonated)
NS(=O)(=O)c1ccc(Cc2nc(=O)c3c([n-]2)N=C2CCCC(=O)[C@@H]2[C@H]3c2ccc3c(c2)OCO3)cc1 (chirality)
NS(=O)(=O)c1ccc(Cc2nc(=O)c3c([n-]2)N=C2CCCC(=O)[C@@H]2[C@H]3c2ccc3c(c2)OCO3)cc1 (3D coordinates assigned)
NS(=O)(=O)c1ccc(Cc2nc(=O)c3c([n-]2)N=C2CCCC(=O)[C@@H]2[C@H]3c2ccc3c(c2)OCO3)cc1 (nonaromatic ring conformer: 100.15293293200239 kcal/mol)

>  <smiles>  (51) 
NS(=O)(=O)c1ccc(Cc2nc(=O)c3c([nH]2)N=C2CCCC(=O)C2C3c2ccc3c(c2)OCO3)cc1

>  <score_type>  (51) 
oracle

>  <origin>  (51) 
adg

>  <m_score__min__energy>  (51) 
-10.9

>  <m_primary>  (51) 
energy

$$$$
52:0
     RDKit          3D

 45 47  0  0  0  0  0  0  0  0999 V2000
   57.6970   31.7420   53.4050 N   0  0  0  0  0  0  0  0  0  0  0  0
   57.7610   31.0850   51.8120 S   0  0  0  0  0  0  0  0  0  0  0  0
   57.0770   29.7490   51.8000 O   0  0  0  0  0  0  0  0  0  0  0  0
   57.0480   32.0030   50.8590 O   0  0  0  0  0  0  0  0  0  0  0  0
   59.4400   30.9160   51.3110 C   0  0  0  0  0  0  0  0  0  0  0  0
   60.1830   29.8090   51.7330 C   0  0  0  0  0  0  0  0  0  0  0  0
   61.5150   29.6690   51.3430 C   0  0  0  0  0  0  0  0  0  0  0  0
   62.1140   30.6360   50.5340 C   0  0  0  0  0  0  0  0  0  0  0  0
   61.3780   31.7480   50.0950 C   0  0  0  0  0  0  0  0  0  0  0  0
   61.9530   32.7630   49.2590 N   0  0  0  0  0  0  0  0  0  0  0  0
   62.0500   32.7010   47.5280 S   0  0  0  0  0  0  0  0  0  0  0  0
   63.1530   31.7630   47.1180 O   0  0  0  0  0  0  0  0  0  0  0  0
   62.3710   34.0730   47.0050 O   0  0  0  0  0  0  0  0  0  0  0  0
   60.5040   32.1890   46.8560 C   0  0  0  0  0  0  0  0  0  0  0  0
   60.0520   30.8750   47.0240 C   0  0  0  0  0  0  0  0  0  0  0  0
   58.8210   30.4850   46.4950 C   0  0  0  0  0  0  0  0  0  0  0  0
   58.0410   31.3950   45.7600 C   0  0  0  0  0  0  0  0  0  0  0  0
   56.7650   31.0200   45.2150 N   0  0  0  0  0  0  0  0  0  0  0  0
   56.3510   29.7020   44.8270 C   0  0  0  0  0  0  0  0  0  0  0  0
   55.1240   29.4270   44.8280 O   0  0  0  0  0  0  0  0  0  0  0  0
   57.2890   28.6930   44.4270 N   0  0  0  0  0  0  0  0  0  0  0  0
   57.8110   27.6400   45.2520 C   0  0  0  0  0  0  0  0  0  0  0  0
   59.2020   27.5140   45.3710 C   0  0  0  0  0  0  0  0  0  0  0  0
   59.7580   26.4870   46.1390 C   0  0  0  0  0  0  0  0  0  0  0  0
   58.9280   25.5940   46.8180 C   0  0  0  0  0  0  0  0  0  0  0  0
   57.5400   25.7330   46.7390 C   0  0  0  0  0  0  0  0  0  0  0  0
   56.9730   26.7620   45.9740 C   0  0  0  0  0  0  0  0  0  0  0  0
   55.5890   26.9250   45.9510 O   0  0  0  0  0  0  0  0  0  0  0  0
   58.4860   32.7180   45.6150 C   0  0  0  0  0  0  0  0  0  0  0  0
   57.5220   33.9020   44.7440 Cl  0  0  0  0  0  0  0  0  0  0  0  0
   59.7130   33.1090   46.1590 C   0  0  0  0  0  0  0  0  0  0  0  0
   60.0410   31.8820   50.4910 C   0  0  0  0  0  0  0  0  0  0  0  0
   57.0050   31.1720   53.9420 H   0  0  0  0  0  0  0  0  0  0  0  0
   59.7160   29.0468   52.3740 H   0  0  0  0  0  0  0  0  0  0  0  0
   62.0946   28.7946   51.6738 H   0  0  0  0  0  0  0  0  0  0  0  0
   63.1680   30.5262   50.2390 H   0  0  0  0  0  0  0  0  0  0  0  0
   60.6682   30.1485   47.5740 H   0  0  0  0  0  0  0  0  0  0  0  0
   58.4585   29.4587   46.6541 H   0  0  0  0  0  0  0  0  0  0  0  0
   59.8609   28.2287   44.8561 H   0  0  0  0  0  0  0  0  0  0  0  0
   60.8508   26.3826   46.2082 H   0  0  0  0  0  0  0  0  0  0  0  0
   59.3664   24.7809   47.4152 H   0  0  0  0  0  0  0  0  0  0  0  0
   56.8884   25.0311   47.2801 H   0  0  0  0  0  0  0  0  0  0  0  0
   55.1400   27.6000   45.3420 H   0  0  0  0  0  0  0  0  0  0  0  0
   60.0587   34.1463   46.0384 H   0  0  0  0  0  0  0  0  0  0  0  0
   59.4576   32.7523   50.1559 H   0  0  0  0  0  0  0  0  0  0  0  0
  1  2  1  0
  2  3  2  0
  2  4  2  0
  2  5  1  0
  5  6  2  0
  6  7  1  0
  7  8  2  0
  8  9  1  0
  9 10  1  0
 10 11  1  0
 11 12  2  0
 11 13  2  0
 11 14  1  0
 14 15  2  0
 15 16  1  0
 16 17  2  0
 17 18  1  0
 18 19  1  0
 19 20  2  0
 19 21  1  0
 21 22  1  0
 22 23  2  0
 23 24  1  0
 24 25  2  0
 25 26  1  0
 26 27  2  0
 27 28  1  0
 17 29  1  0
 29 30  1  0
 29 31  2  0
  9 32  2  0
 32  5  1  0
 31 14  1  0
 27 22  1  0
  1 33  1  0
  6 34  1  0
  7 35  1  0
  8 36  1  0
 15 37  1  0
 16 38  1  0
 23 39  1  0
 24 40  1  0
 25 41  1  0
 26 42  1  0
 28 43  1  0
 31 44  1  0
 32 45  1  0
M  CHG  4   1  -1  10  -1  18  -1  21  -1
M  END
>  <UniqueID>  (52) 
50

>  <SMILES>  (52) 
[NH-]S(=O)(=O)c1cccc([N-]S(=O)(=O)c2ccc([N-]C(=O)[N-]c3ccccc3O)c(Cl)c2)c1

>  <Energy>  (52) 
59.366332983010544

>  <Genealogy>  (52) 
[NH-]S(=O)(=O)c1cccc([N-]S(=O)(=O)c2ccc([N-]C(=O)[N-]c3ccccc3O)c(Cl)c2)c1 (protonated)
[NH-]S(=O)(=O)c1cccc([N-]S(=O)(=O)c2ccc([N-]C(=O)[N-]c3ccccc3O)c(Cl)c2)c1 (3D coordinates assigned)
[NH-]S(=O)(=O)c1cccc([N-]S(=O)(=O)c2ccc([N-]C(=O)[N-]c3ccccc3O)c(Cl)c2)c1 (optimized conformer: 59.366332983010544 kcal/mol)

>  <smiles>  (52) 
NS(=O)(=O)c1cccc(NS(=O)(=O)c2ccc(NC(=O)Nc3ccccc3O)c(Cl)c2)c1

>  <score_type>  (52) 
oracle

>  <origin>  (52) 
adg

>  <m_score__min__energy>  (52) 
-14.449999999999999

>  <m_primary>  (52) 
energy

$$$$
53:0
     RDKit          3D

 45 47  0  0  0  0  0  0  0  0999 V2000
   60.9860   30.3030   47.9410 C   0  0  0  0  0  0  0  0  0  0  0  0
   61.8030   31.5630   47.8720 C   0  0  0  0  0  0  0  0  0  0  0  0
   62.9870   31.5610   47.1440 C   0  0  0  0  0  0  0  0  0  0  0  0
   63.7640   32.6950   47.0560 C   0  0  0  0  0  0  0  0  0  0  0  0
   63.3500   33.8410   47.7050 C   0  0  0  0  0  0  0  0  0  0  0  0
   62.1730   33.8300   48.4240 C   0  0  0  0  0  0  0  0  0  0  0  0
   61.3680   32.7040   48.5310 C   0  0  0  0  0  0  0  0  0  0  0  0
   60.1750   32.7190   49.2690 O   0  0  0  0  0  0  0  0  0  0  0  0
   59.3160   33.8230   49.1010 C   0  0  0  0  0  0  0  0  0  0  0  0
   59.0550   34.1180   47.6680 C   0  0  0  0  0  0  0  0  0  0  0  0
   59.2190   35.3330   47.3180 O   0  0  0  0  0  0  0  0  0  0  0  0
   58.6490   33.1430   46.7270 N   0  0  0  0  0  0  0  0  0  0  0  0
   58.4030   33.4680   45.3370 C   0  0  0  0  0  0  0  0  0  0  0  0
   57.0210   33.0520   44.8760 C   0  0  0  0  0  0  0  0  0  0  0  0
   56.9860   31.5800   44.8520 C   0  0  0  0  0  0  0  0  0  0  0  0
   56.1330   30.7370   44.2870 N   0  0  0  0  0  0  0  0  0  0  0  0
   56.5300   29.4980   44.5480 N   0  0  0  0  0  0  0  0  0  0  0  0
   57.6540   29.5170   45.2900 C   0  0  0  0  0  0  0  0  0  0  0  0
   58.4410   28.4020   45.8070 C   0  0  0  0  0  0  0  0  0  0  0  0
   57.8870   27.4000   46.5890 C   0  0  0  0  0  0  0  0  0  0  0  0
   58.6550   26.3570   47.0640 C   0  0  0  0  0  0  0  0  0  0  0  0
   60.0020   26.3140   46.7540 C   0  0  0  0  0  0  0  0  0  0  0  0
   60.5950   27.2920   45.9770 C   0  0  0  0  0  0  0  0  0  0  0  0
   59.7870   28.3190   45.5220 C   0  0  0  0  0  0  0  0  0  0  0  0
   57.9320   30.8180   45.4750 N   0  0  0  0  0  0  0  0  0  0  0  0
   60.8126   30.0356   48.9938 H   0  0  0  0  0  0  0  0  0  0  0  0
   60.0202   30.4643   47.4398 H   0  0  0  0  0  0  0  0  0  0  0  0
   61.5274   29.4871   47.4398 H   0  0  0  0  0  0  0  0  0  0  0  0
   63.3077   30.6420   46.6315 H   0  0  0  0  0  0  0  0  0  0  0  0
   64.6997   32.6876   46.4777 H   0  0  0  0  0  0  0  0  0  0  0  0
   63.9554   34.7577   47.6490 H   0  0  0  0  0  0  0  0  0  0  0  0
   61.8589   34.7525   48.9342 H   0  0  0  0  0  0  0  0  0  0  0  0
   58.3590   33.6061   49.5981 H   0  0  0  0  0  0  0  0  0  0  0  0
   59.8063   34.7028   49.5431 H   0  0  0  0  0  0  0  0  0  0  0  0
   58.5360   32.1580   47.1030 H   0  0  0  0  0  0  0  0  0  0  0  0
   58.5053   34.5554   45.2062 H   0  0  0  0  0  0  0  0  0  0  0  0
   59.1362   32.9152   44.7313 H   0  0  0  0  0  0  0  0  0  0  0  0
   56.2615   33.4343   45.5739 H   0  0  0  0  0  0  0  0  0  0  0  0
   56.8067   33.4606   43.8775 H   0  0  0  0  0  0  0  0  0  0  0  0
   56.0730   28.5990   44.2460 H   0  0  0  0  0  0  0  0  0  0  0  0
   56.8156   27.4374   46.8352 H   0  0  0  0  0  0  0  0  0  0  0  0
   58.2011   25.5686   47.6823 H   0  0  0  0  0  0  0  0  0  0  0  0
   60.6152   25.4835   47.1339 H   0  0  0  0  0  0  0  0  0  0  0  0
   61.6664   27.2551   45.7304 H   0  0  0  0  0  0  0  0  0  0  0  0
   60.2407   29.1071   44.9031 H   0  0  0  0  0  0  0  0  0  0  0  0
  1  2  1  0
  2  3  2  0
  3  4  1  0
  4  5  2  0
  5  6  1  0
  6  7  2  0
  7  8  1  0
  8  9  1  0
  9 10  1  0
 10 11  2  0
 10 12  1  0
 12 13  1  0
 13 14  1  0
 14 15  1  0
 15 16  2  0
 16 17  1  0
 17 18  1  0
 18 19  1  0
 19 20  2  0
 20 21  1  0
 21 22  2  0
 22 23  1  0
 23 24  2  0
 18 25  2  0
  7  2  1  0
 25 15  1  0
 24 19  1  0
  1 26  1  0
  1 27  1  0
  1 28  1  0
  3 29  1  0
  4 30  1  0
  5 31  1  0
  6 32  1  0
  9 33  1  0
  9 34  1  0
 12 35  1  0
 13 36  1  0
 13 37  1  0
 14 38  1  0
 14 39  1  0
 17 40  1  0
 20 41  1  0
 21 42  1  0
 22 43  1  0
 23 44  1  0
 24 45  1  0
M  END
>  <smiles>  (53) 
Cc1ccccc1OCC(=O)NCCc1n[nH]c(-c2ccccc2)n1

>  <score_type>  (53) 
oracle

>  <origin>  (53) 
adg

>  <m_score__min__energy>  (53) 
-7.5599999999999996

>  <m_primary>  (53) 
energy

$$$$
54:0
     RDKit          3D

 45 48  0  0  0  0  0  0  0  0999 V2000
   54.3040   25.9840   45.9680 O   0  0  0  0  0  0  0  0  0  0  0  0
   55.5220   26.3080   46.0120 C   0  0  0  0  0  0  0  0  0  0  0  0
   55.9420   27.6220   45.6300 N   0  0  0  0  0  0  0  0  0  0  0  0
   57.2690   28.1620   45.7380 C   0  0  0  0  0  0  0  0  0  0  0  0
   58.2720   27.4470   46.4210 C   0  0  0  0  0  0  0  0  0  0  0  0
   59.5640   27.9610   46.5290 C   0  0  0  0  0  0  0  0  0  0  0  0
   59.8710   29.1990   45.9700 C   0  0  0  0  0  0  0  0  0  0  0  0
   58.8840   29.9340   45.3130 C   0  0  0  0  0  0  0  0  0  0  0  0
   57.5690   29.4400   45.1980 C   0  0  0  0  0  0  0  0  0  0  0  0
   56.5500   30.2680   44.4920 C   0  0  0  0  0  0  0  0  0  0  0  0
   55.9190   29.7790   43.5150 O   0  0  0  0  0  0  0  0  0  0  0  0
   56.3300   31.6350   44.8660 N   0  0  0  0  0  0  0  0  0  0  0  0
   57.3320   32.6120   45.1820 C   0  0  0  0  0  0  0  0  0  0  0  0
   57.4330   33.0670   46.5030 C   0  0  0  0  0  0  0  0  0  0  0  0
   58.3790   34.0370   46.8480 C   0  0  0  0  0  0  0  0  0  0  0  0
   59.2210   34.5710   45.8700 C   0  0  0  0  0  0  0  0  0  0  0  0
   59.1130   34.1430   44.5450 C   0  0  0  0  0  0  0  0  0  0  0  0
   58.1670   33.1720   44.1970 C   0  0  0  0  0  0  0  0  0  0  0  0
   56.4940   25.3840   46.5070 N   0  0  0  0  0  0  0  0  0  0  0  0
   56.2670   23.9740   46.6280 C   0  0  0  0  0  0  0  0  0  0  0  0
   55.9080   23.4690   47.8830 C   0  0  0  0  0  0  0  0  0  0  0  0
   55.6340   22.1130   48.0530 C   0  0  0  0  0  0  0  0  0  0  0  0
   55.7290   21.2350   46.9730 C   0  0  0  0  0  0  0  0  0  0  0  0
   56.1240   21.7080   45.7130 C   0  0  0  0  0  0  0  0  0  0  0  0
   56.2490   20.8160   44.6350 C   0  0  0  0  0  0  0  0  0  0  0  0
   56.6760   21.2770   43.3890 C   0  0  0  0  0  0  0  0  0  0  0  0
   56.9920   22.6240   43.2100 C   0  0  0  0  0  0  0  0  0  0  0  0
   56.8690   23.5250   44.2710 C   0  0  0  0  0  0  0  0  0  0  0  0
   56.4120   23.0870   45.5310 C   0  0  0  0  0  0  0  0  0  0  0  0
   58.0339   26.4732   46.8739 H   0  0  0  0  0  0  0  0  0  0  0  0
   60.3411   27.3881   47.0561 H   0  0  0  0  0  0  0  0  0  0  0  0
   60.8933   29.5979   46.0466 H   0  0  0  0  0  0  0  0  0  0  0  0
   59.1355   30.9128   44.8786 H   0  0  0  0  0  0  0  0  0  0  0  0
   56.7635   32.6584   47.2742 H   0  0  0  0  0  0  0  0  0  0  0  0
   58.4601   34.3797   47.8901 H   0  0  0  0  0  0  0  0  0  0  0  0
   59.9696   35.3291   46.1435 H   0  0  0  0  0  0  0  0  0  0  0  0
   59.7719   34.5694   43.7743 H   0  0  0  0  0  0  0  0  0  0  0  0
   58.0758   32.8455   43.1505 H   0  0  0  0  0  0  0  0  0  0  0  0
   55.8414   24.1497   48.7445 H   0  0  0  0  0  0  0  0  0  0  0  0
   55.3415   21.7334   49.0431 H   0  0  0  0  0  0  0  0  0  0  0  0
   55.4936   20.1692   47.1099 H   0  0  0  0  0  0  0  0  0  0  0  0
   56.0097   19.7513   44.7734 H   0  0  0  0  0  0  0  0  0  0  0  0
   56.7637   20.5763   42.5456 H   0  0  0  0  0  0  0  0  0  0  0  0
   57.3398   22.9787   42.2285 H   0  0  0  0  0  0  0  0  0  0  0  0
   57.1304   24.5831   44.1223 H   0  0  0  0  0  0  0  0  0  0  0  0
  1  2  2  0
  2  3  1  0
  3  4  1  0
  4  5  2  0
  5  6  1  0
  6  7  2  0
  7  8  1  0
  8  9  2  0
  9 10  1  0
 10 11  2  0
 10 12  1  0
 12 13  1  0
 13 14  2  0
 14 15  1  0
 15 16  2  0
 16 17  1  0
 17 18  2  0
  2 19  1  0
 19 20  1  0
 20 21  2  0
 21 22  1  0
 22 23  2  0
 23 24  1  0
 24 25  2  0
 25 26  1  0
 26 27  2  0
 27 28  1  0
 28 29  2  0
  9  4  1  0
 18 13  1  0
 29 20  1  0
 29 24  1  0
  5 30  1  0
  6 31  1  0
  7 32  1  0
  8 33  1  0
 14 34  1  0
 15 35  1  0
 16 36  1  0
 17 37  1  0
 18 38  1  0
 21 39  1  0
 22 40  1  0
 23 41  1  0
 25 42  1  0
 26 43  1  0
 27 44  1  0
 28 45  1  0
M  CHG  3   3  -1  12  -1  19  -1
M  END
>  <UniqueID>  (54) 
51

>  <SMILES>  (54) 
O=C([N-]c1ccccc1C(=O)[N-]c1ccccc1)[N-]c1cccc2ccccc12

>  <Energy>  (54) 
71.45444474429866

>  <Genealogy>  (54) 
O=C([N-]c1ccccc1C(=O)[N-]c1ccccc1)[N-]c1cccc2ccccc12 (protonated)
O=C([N-]c1ccccc1C(=O)[N-]c1ccccc1)[N-]c1cccc2ccccc12 (3D coordinates assigned)
O=C([N-]c1ccccc1C(=O)[N-]c1ccccc1)[N-]c1cccc2ccccc12 (optimized conformer: 71.45444474429866 kcal/mol)

>  <smiles>  (54) 
O=C(Nc1ccccc1C(=O)Nc1ccccc1)Nc1cccc2ccccc12

>  <score_type>  (54) 
oracle

>  <origin>  (54) 
adg

>  <m_score__min__energy>  (54) 
-14.99

>  <m_primary>  (54) 
energy

$$$$
55:0
     RDKit          3D

 46 48  0  0  1  0  0  0  0  0999 V2000
   59.9140   30.9600   47.3700 O   0  0  0  0  0  0  0  0  0  0  0  0
   60.0980   31.6600   48.3940 C   0  0  0  0  0  0  0  0  0  0  0  0
   60.7350   30.9990   49.5030 N   0  0  0  0  0  0  0  0  0  0  0  0
   61.0890   29.6050   49.3020 C   0  0  0  0  0  0  0  0  0  0  0  0
   59.8400   28.7350   49.3870 C   0  0  0  0  0  0  0  0  0  0  0  0
   59.9000   27.6640   48.4190 N   0  0  0  0  0  0  0  0  0  0  0  0
   59.0580   27.5020   47.4790 C   0  0  0  0  0  0  0  0  0  0  0  0
   58.8940   26.2600   46.8980 C   0  0  0  0  0  0  0  0  0  0  0  0
   57.9900   26.0580   45.8810 C   0  0  0  0  0  0  0  0  0  0  0  0
   57.2370   27.0760   45.4230 N   0  0  0  0  0  0  0  0  0  0  0  0
   57.4010   28.2860   45.9930 C   0  0  0  0  0  0  0  0  0  0  0  0
   56.6930   29.2490   45.5650 N   0  0  0  0  0  0  0  0  0  0  0  0
   57.0360   30.1170   44.4880 C   0  0  0  0  0  0  0  0  0  0  0  0
   58.0730   31.0260   44.6700 C   0  0  0  0  0  0  0  0  0  0  0  0
   58.3940   31.8640   43.6090 C   0  0  0  0  0  0  0  0  0  0  0  0
   57.7020   31.7990   42.4030 C   0  0  0  0  0  0  0  0  0  0  0  0
   58.0160   32.6230   41.3590 F   0  0  0  0  0  0  0  0  0  0  0  0
   56.6680   30.8870   42.2340 C   0  0  0  0  0  0  0  0  0  0  0  0
   56.3380   30.0400   43.2940 C   0  0  0  0  0  0  0  0  0  0  0  0
   58.2900   28.4980   46.9980 N   0  0  0  0  0  0  0  0  0  0  0  0
   59.6980   33.0190   48.4510 N   0  0  0  0  0  0  0  0  0  0  0  0
   59.0750   33.5580   47.2850 C   0  0  0  0  0  0  0  0  0  0  0  0
   59.7820   34.3010   46.3620 C   0  0  0  0  0  0  0  0  0  0  0  0
   59.1490   34.8140   45.2330 C   0  0  0  0  0  0  0  0  0  0  0  0
   57.8010   34.6020   44.9970 C   0  0  0  0  0  0  0  0  0  0  0  0
   57.1090   33.8510   45.9420 C   0  0  0  0  0  0  0  0  0  0  0  0
   57.7210   33.3380   47.0580 C   0  0  0  0  0  0  0  0  0  0  0  0
   60.9180   31.5220   50.3870 H   0  0  0  0  0  0  0  0  0  0  0  0
   61.5502   29.4851   48.3106 H   0  0  0  0  0  0  0  0  0  0  0  0
   61.7996   29.2956   50.0826 H   0  0  0  0  0  0  0  0  0  0  0  0
   59.7664   28.3057   50.3971 H   0  0  0  0  0  0  0  0  0  0  0  0
   58.9587   29.3576   49.1732 H   0  0  0  0  0  0  0  0  0  0  0  0
   59.4992   25.4141   47.2561 H   0  0  0  0  0  0  0  0  0  0  0  0
   57.8814   25.0569   45.4384 H   0  0  0  0  0  0  0  0  0  0  0  0
   56.5520   26.9510   44.6590 H   0  0  0  0  0  0  0  0  0  0  0  0
   58.6209   31.0797   45.6223 H   0  0  0  0  0  0  0  0  0  0  0  0
   59.2102   32.5923   43.7243 H   0  0  0  0  0  0  0  0  0  0  0  0
   56.1190   30.8330   41.2823 H   0  0  0  0  0  0  0  0  0  0  0  0
   55.5225   29.3105   43.1807 H   0  0  0  0  0  0  0  0  0  0  0  0
   58.3750   29.4510   47.4020 H   0  0  0  0  0  0  0  0  0  0  0  0
   59.8650   33.5710   49.3190 H   0  0  0  0  0  0  0  0  0  0  0  0
   60.8542   34.4895   46.5194 H   0  0  0  0  0  0  0  0  0  0  0  0
   59.7341   35.4022   44.5107 H   0  0  0  0  0  0  0  0  0  0  0  0
   57.3012   35.0079   44.1051 H   0  0  0  0  0  0  0  0  0  0  0  0
   56.0361   33.6623   45.7895 H   0  0  0  0  0  0  0  0  0  0  0  0
   57.1357   32.7481   47.7787 H   0  0  0  0  0  0  0  0  0  0  0  0
  1  2  2  0
  2  3  1  0
  3  4  1  0
  4  5  1  0
  5  6  1  0
  6  7  2  0
  7  8  1  0
  8  9  2  0
  9 10  1  0
 10 11  1  0
 11 12  2  0
 12 13  1  0
 13 14  2  0
 14 15  1  0
 15 16  2  0
 16 17  1  0
 16 18  1  0
 18 19  2  0
 11 20  1  0
  2 21  1  0
 21 22  1  0
 22 23  2  0
 23 24  1  0
 24 25  2  0
 25 26  1  0
 26 27  2  0
 20  7  1  0
 27 22  1  0
 19 13  1  0
  3 28  1  0
  4 29  1  0
  4 30  1  0
  5 31  1  0
  5 32  1  0
  8 33  1  0
  9 34  1  0
 10 35  1  0
 14 36  1  0
 15 37  1  0
 18 38  1  0
 19 39  1  0
 20 40  1  0
 21 41  1  0
 23 42  1  0
 24 43  1  0
 25 44  1  0
 26 45  1  0
 27 46  1  0
M  END
>  <smiles>  (55) 
O=C(NCCN=c1cc[nH]c(=Nc2ccc(F)cc2)[nH]1)Nc1ccccc1

>  <score_type>  (55) 
oracle

>  <origin>  (55) 
adg

>  <m_score__min__energy>  (55) 
-7.5899999999999999

>  <m_primary>  (55) 
energy

$$$$
56:0
     RDKit          3D

 43 45  0  0  0  0  0  0  0  0999 V2000
   51.7220   24.0530   44.7670 C   0  0  0  0  0  0  0  0  0  0  0  0
   52.7330   23.0710   44.8040 O   0  0  0  0  0  0  0  0  0  0  0  0
   54.0090   23.6660   44.6630 C   0  0  0  0  0  0  0  0  0  0  0  0
   54.6410   23.9210   46.0340 C   0  0  0  0  0  0  0  0  0  0  0  0
   55.9780   24.5250   45.9020 N   0  0  0  0  0  0  0  0  0  0  0  0
   56.1590   25.8940   45.9250 C   0  0  0  0  0  0  0  0  0  0  0  0
   55.1510   26.6510   46.0000 O   0  0  0  0  0  0  0  0  0  0  0  0
   57.4350   26.4420   45.8750 N   0  0  0  0  0  0  0  0  0  0  0  0
   57.6310   27.9050   45.9820 C   0  0  0  0  0  0  0  0  0  0  0  0
   57.9540   28.5590   44.6290 C   0  0  0  0  0  0  0  0  0  0  0  0
   56.9090   29.9660   44.2550 S   0  0  0  0  0  0  0  0  0  0  0  0
   56.7540   30.0670   42.7630 O   0  0  0  0  0  0  0  0  0  0  0  0
   55.5570   29.7390   44.8680 O   0  0  0  0  0  0  0  0  0  0  0  0
   57.5630   31.4740   44.8940 C   0  0  0  0  0  0  0  0  0  0  0  0
   57.4740   32.6540   44.1410 C   0  0  0  0  0  0  0  0  0  0  0  0
   57.9580   33.8580   44.6590 C   0  0  0  0  0  0  0  0  0  0  0  0
   58.5470   33.8900   45.9260 C   0  0  0  0  0  0  0  0  0  0  0  0
   58.6290   32.7210   46.6860 C   0  0  0  0  0  0  0  0  0  0  0  0
   58.1250   31.5200   46.1800 C   0  0  0  0  0  0  0  0  0  0  0  0
   58.5330   25.6150   45.7810 C   0  0  0  0  0  0  0  0  0  0  0  0
   59.7070   26.0770   45.7750 O   0  0  0  0  0  0  0  0  0  0  0  0
   58.3260   24.2520   45.7010 C   0  0  0  0  0  0  0  0  0  0  0  0
   59.2320   23.2690   45.5890 N   0  0  0  0  0  0  0  0  0  0  0  0
   58.4520   22.1560   45.5830 C   0  0  0  0  0  0  0  0  0  0  0  0
   57.1210   22.4020   45.6940 N   0  0  0  0  0  0  0  0  0  0  0  0
   57.0820   23.7420   45.7620 C   0  0  0  0  0  0  0  0  0  0  0  0
   51.4396   24.3273   45.7941 H   0  0  0  0  0  0  0  0  0  0  0  0
   52.0946   24.9432   44.2390 H   0  0  0  0  0  0  0  0  0  0  0  0
   50.8431   23.6546   44.2390 H   0  0  0  0  0  0  0  0  0  0  0  0
   54.6594   22.9931   44.0850 H   0  0  0  0  0  0  0  0  0  0  0  0
   53.8954   24.6277   44.1413 H   0  0  0  0  0  0  0  0  0  0  0  0
   53.9944   24.6030   46.6056 H   0  0  0  0  0  0  0  0  0  0  0  0
   54.7448   22.9570   46.5536 H   0  0  0  0  0  0  0  0  0  0  0  0
   56.7099   28.3556   46.3801 H   0  0  0  0  0  0  0  0  0  0  0  0
   58.4886   28.0782   46.6488 H   0  0  0  0  0  0  0  0  0  0  0  0
   59.0010   28.8961   44.6451 H   0  0  0  0  0  0  0  0  0  0  0  0
   57.7741   27.8032   43.8503 H   0  0  0  0  0  0  0  0  0  0  0  0
   57.0214   32.6314   43.1387 H   0  0  0  0  0  0  0  0  0  0  0  0
   57.8753   34.7824   44.0685 H   0  0  0  0  0  0  0  0  0  0  0  0
   58.9456   34.8348   46.3242 H   0  0  0  0  0  0  0  0  0  0  0  0
   59.0909   32.7459   47.6840 H   0  0  0  0  0  0  0  0  0  0  0  0
   58.1687   30.6068   46.7916 H   0  0  0  0  0  0  0  0  0  0  0  0
   58.8646   21.1401   45.4955 H   0  0  0  0  0  0  0  0  0  0  0  0
  1  2  1  0
  2  3  1  0
  3  4  1  0
  4  5  1  0
  5  6  1  0
  6  7  2  0
  6  8  1  0
  8  9  1  0
  9 10  1  0
 10 11  1  0
 11 12  2  0
 11 13  2  0
 11 14  1  0
 14 15  2  0
 15 16  1  0
 16 17  2  0
 17 18  1  0
 18 19  2  0
  8 20  1  0
 20 21  2  0
 20 22  1  0
 22 23  1  0
 23 24  2  0
 24 25  1  0
 25 26  1  0
 26  5  1  0
 19 14  1  0
 26 22  2  0
  1 27  1  0
  1 28  1  0
  1 29  1  0
  3 30  1  0
  3 31  1  0
  4 32  1  0
  4 33  1  0
  9 34  1  0
  9 35  1  0
 10 36  1  0
 10 37  1  0
 15 38  1  0
 16 39  1  0
 17 40  1  0
 18 41  1  0
 19 42  1  0
 24 43  1  0
M  CHG  1  25  -1
M  END
>  <UniqueID>  (56) 
52

>  <SMILES>  (56) 
COCCn1c(=O)n(CCS(=O)(=O)c2ccccc2)c(=O)c2nc[n-]c21

>  <Energy>  (56) 
79.62680199805538

>  <Genealogy>  (56) 
COCCn1c(=O)n(CCS(=O)(=O)c2ccccc2)c(=O)c2nc[n-]c21 (protonated)
COCCn1c(=O)n(CCS(=O)(=O)c2ccccc2)c(=O)c2nc[n-]c21 (3D coordinates assigned)
COCCn1c(=O)n(CCS(=O)(=O)c2ccccc2)c(=O)c2nc[n-]c21 (optimized conformer: 79.62680199805538 kcal/mol)

>  <smiles>  (56) 
COCCn1c(=O)n(CCS(=O)(=O)c2ccccc2)c(=O)c2nc[nH]c21

>  <score_type>  (56) 
oracle

>  <origin>  (56) 
adg

>  <m_score__min__energy>  (56) 
-9.7899999999999991

>  <m_primary>  (56) 
energy

$$$$
57:0
     RDKit          3D

 47 49  0  0  0  0  0  0  0  0999 V2000
   57.4400   34.0030   44.9640 C   0  0  0  0  0  0  0  0  0  0  0  0
   58.0830   32.6930   45.3470 C   0  0  0  0  0  0  0  0  0  0  0  0
   59.3490   32.6370   45.9800 C   0  0  0  0  0  0  0  0  0  0  0  0
   60.1530   33.8690   46.3330 C   0  0  0  0  0  0  0  0  0  0  0  0
   61.2480   33.5780   47.3410 C   0  0  0  0  0  0  0  0  0  0  0  0
   62.6010   33.5980   46.9390 C   0  0  0  0  0  0  0  0  0  0  0  0
   62.9430   33.8500   45.6500 F   0  0  0  0  0  0  0  0  0  0  0  0
   63.6190   33.3450   47.8630 C   0  0  0  0  0  0  0  0  0  0  0  0
   63.3080   33.0550   49.1900 C   0  0  0  0  0  0  0  0  0  0  0  0
   61.9760   32.9990   49.5980 C   0  0  0  0  0  0  0  0  0  0  0  0
   60.9430   33.2460   48.6840 C   0  0  0  0  0  0  0  0  0  0  0  0
   59.2880   33.0890   49.2600 Cl  0  0  0  0  0  0  0  0  0  0  0  0
   59.8840   31.4250   46.2870 N   0  0  0  0  0  0  0  0  0  0  0  0
   59.2250   30.2690   46.0330 C   0  0  0  0  0  0  0  0  0  0  0  0
   59.9780   28.7030   46.4570 S   0  0  0  0  0  0  0  0  0  0  0  0
   58.5250   28.1300   47.3960 C   0  0  0  0  0  0  0  0  0  0  0  0
   58.0080   26.8570   46.7910 C   0  0  0  0  0  0  0  0  0  0  0  0
   58.8780   25.7830   46.5480 C   0  0  0  0  0  0  0  0  0  0  0  0
   58.3930   24.5880   46.0100 C   0  0  0  0  0  0  0  0  0  0  0  0
   57.0230   24.4450   45.7160 C   0  0  0  0  0  0  0  0  0  0  0  0
   56.4770   23.2720   45.1770 O   0  0  0  0  0  0  0  0  0  0  0  0
   56.9390   22.5570   43.6910 S   0  0  0  0  0  0  0  0  0  0  0  0
   58.5540   21.8210   43.8360 C   0  0  0  0  0  0  0  0  0  0  0  0
   55.9320   21.5190   43.2800 O   0  0  0  0  0  0  0  0  0  0  0  0
   56.9930   23.6280   42.6370 O   0  0  0  0  0  0  0  0  0  0  0  0
   56.1560   25.5140   45.9750 C   0  0  0  0  0  0  0  0  0  0  0  0
   56.6420   26.7110   46.5110 C   0  0  0  0  0  0  0  0  0  0  0  0
   57.9970   30.3000   45.4630 N   0  0  0  0  0  0  0  0  0  0  0  0
   57.4110   31.4740   45.1200 C   0  0  0  0  0  0  0  0  0  0  0  0
   56.2650   31.4560   44.5970 O   0  0  0  0  0  0  0  0  0  0  0  0
   57.1677   34.5577   45.8740 H   0  0  0  0  0  0  0  0  0  0  0  0
   58.1480   34.5989   44.3694 H   0  0  0  0  0  0  0  0  0  0  0  0
   56.5355   33.8075   44.3694 H   0  0  0  0  0  0  0  0  0  0  0  0
   60.6137   34.2645   45.4158 H   0  0  0  0  0  0  0  0  0  0  0  0
   59.4658   34.5982   46.7868 H   0  0  0  0  0  0  0  0  0  0  0  0
   64.6704   33.3750   47.5411 H   0  0  0  0  0  0  0  0  0  0  0  0
   64.1136   32.8702   49.9158 H   0  0  0  0  0  0  0  0  0  0  0  0
   61.7345   32.7594   50.6441 H   0  0  0  0  0  0  0  0  0  0  0  0
   58.8128   27.9483   48.4420 H   0  0  0  0  0  0  0  0  0  0  0  0
   57.7389   28.8986   47.3600 H   0  0  0  0  0  0  0  0  0  0  0  0
   59.9481   25.8824   46.7824 H   0  0  0  0  0  0  0  0  0  0  0  0
   59.0845   23.7550   45.8152 H   0  0  0  0  0  0  0  0  0  0  0  0
   58.8097   21.7045   44.8995 H   0  0  0  0  0  0  0  0  0  0  0  0
   58.5525   20.8347   43.3490 H   0  0  0  0  0  0  0  0  0  0  0  0
   59.2974   22.4692   43.3490 H   0  0  0  0  0  0  0  0  0  0  0  0
   55.0832   25.4113   45.7549 H   0  0  0  0  0  0  0  0  0  0  0  0
   55.9496   27.5413   46.7137 H   0  0  0  0  0  0  0  0  0  0  0  0
  1  2  1  0
  2  3  2  0
  3  4  1  0
  4  5  1  0
  5  6  2  0
  6  7  1  0
  6  8  1  0
  8  9  2  0
  9 10  1  0
 10 11  2  0
 11 12  1  0
  3 13  1  0
 13 14  1  0
 14 15  1  0
 15 16  1  0
 16 17  1  0
 17 18  2  0
 18 19  1  0
 19 20  2  0
 20 21  1  0
 21 22  1  0
 22 23  1  0
 22 24  2  0
 22 25  2  0
 20 26  1  0
 26 27  2  0
 14 28  2  0
 28 29  1  0
 29 30  2  0
 29  2  1  0
 11  5  1  0
 27 17  1  0
  1 31  1  0
  1 32  1  0
  1 33  1  0
  4 34  1  0
  4 35  1  0
  8 36  1  0
  9 37  1  0
 10 38  1  0
 16 39  1  0
 16 40  1  0
 18 41  1  0
 19 42  1  0
 23 43  1  0
 23 44  1  0
 23 45  1  0
 26 46  1  0
 27 47  1  0
M  CHG  1  13  -1
M  END
>  <UniqueID>  (57) 
53

>  <SMILES>  (57) 
Cc1c(Cc2c(F)cccc2Cl)[n-]c(SCc2ccc(OS(C)(=O)=O)cc2)nc1=O

>  <Energy>  (57) 
45.44802518772593

>  <Genealogy>  (57) 
Cc1c(Cc2c(F)cccc2Cl)[n-]c(SCc2ccc(OS(C)(=O)=O)cc2)nc1=O (protonated)
Cc1c(Cc2c(F)cccc2Cl)[n-]c(SCc2ccc(OS(C)(=O)=O)cc2)nc1=O (3D coordinates assigned)
Cc1c(Cc2c(F)cccc2Cl)[n-]c(SCc2ccc(OS(C)(=O)=O)cc2)nc1=O (optimized conformer: 45.44802518772593 kcal/mol)

>  <smiles>  (57) 
Cc1c(Cc2c(F)cccc2Cl)[nH]c(SCc2ccc(OS(C)(=O)=O)cc2)nc1=O

>  <score_type>  (57) 
oracle

>  <origin>  (57) 
adg

>  <m_score__min__energy>  (57) 
-10.9

>  <m_primary>  (57) 
energy

$$$$
58:0
     RDKit          3D

 42 45  0  0  0  0  0  0  0  0999 V2000
   60.0160   36.3640   45.8730 O   0  0  0  0  0  0  0  0  0  0  0  0
   59.7900   35.2310   46.3790 C   0  0  0  0  0  0  0  0  0  0  0  0
   58.4670   34.6770   46.3380 N   0  0  0  0  0  0  0  0  0  0  0  0
   58.0900   33.4000   45.8020 C   0  0  0  0  0  0  0  0  0  0  0  0
   58.1560   32.2770   46.6360 C   0  0  0  0  0  0  0  0  0  0  0  0
   57.8130   31.0120   46.1490 C   0  0  0  0  0  0  0  0  0  0  0  0
   57.4150   30.8550   44.8150 C   0  0  0  0  0  0  0  0  0  0  0  0
   56.9750   29.2650   44.1990 S   0  0  0  0  0  0  0  0  0  0  0  0
   56.8000   29.3060   42.7060 O   0  0  0  0  0  0  0  0  0  0  0  0
   55.6800   28.8390   44.8320 O   0  0  0  0  0  0  0  0  0  0  0  0
   58.2060   28.1080   44.5940 N   0  0  0  0  0  0  0  0  0  0  0  0
   57.9900   26.9810   45.2030 C   0  0  0  0  0  0  0  0  0  0  0  0
   56.7910   26.3590   45.2820 N   0  0  0  0  0  0  0  0  0  0  0  0
   56.8680   25.1910   45.9740 C   0  0  0  0  0  0  0  0  0  0  0  0
   58.1370   24.8790   46.4520 C   0  0  0  0  0  0  0  0  0  0  0  0
   59.1900   26.1090   45.9870 S   0  0  0  0  0  0  0  0  0  0  0  0
   57.3780   31.9700   43.9680 C   0  0  0  0  0  0  0  0  0  0  0  0
   57.7180   33.2360   44.4550 C   0  0  0  0  0  0  0  0  0  0  0  0
   60.8820   34.4960   47.0610 C   0  0  0  0  0  0  0  0  0  0  0  0
   61.8870   33.8560   46.3140 C   0  0  0  0  0  0  0  0  0  0  0  0
   62.9190   33.1630   46.9530 C   0  0  0  0  0  0  0  0  0  0  0  0
   62.9650   33.0950   48.3510 C   0  0  0  0  0  0  0  0  0  0  0  0
   63.9970   32.4020   49.0020 C   0  0  0  0  0  0  0  0  0  0  0  0
   64.0320   32.3420   50.3970 C   0  0  0  0  0  0  0  0  0  0  0  0
   63.0400   32.9730   51.1530 C   0  0  0  0  0  0  0  0  0  0  0  0
   62.0060   33.6680   50.5170 C   0  0  0  0  0  0  0  0  0  0  0  0
   61.9590   33.7350   49.1160 C   0  0  0  0  0  0  0  0  0  0  0  0
   60.9260   34.4290   48.4670 C   0  0  0  0  0  0  0  0  0  0  0  0
   58.4798   32.3908   47.6811 H   0  0  0  0  0  0  0  0  0  0  0  0
   57.8558   30.1377   46.8151 H   0  0  0  0  0  0  0  0  0  0  0  0
   55.8980   26.7110   44.8730 H   0  0  0  0  0  0  0  0  0  0  0  0
   55.9951   24.5433   46.1428 H   0  0  0  0  0  0  0  0  0  0  0  0
   58.4060   23.9844   47.0328 H   0  0  0  0  0  0  0  0  0  0  0  0
   57.0804   31.8493   42.9159 H   0  0  0  0  0  0  0  0  0  0  0  0
   57.6945   34.1064   43.7828 H   0  0  0  0  0  0  0  0  0  0  0  0
   61.8607   33.9013   45.2152 H   0  0  0  0  0  0  0  0  0  0  0  0
   63.6987   32.6687   46.3550 H   0  0  0  0  0  0  0  0  0  0  0  0
   64.7808   31.9045   48.4119 H   0  0  0  0  0  0  0  0  0  0  0  0
   64.8427   31.7965   50.9022 H   0  0  0  0  0  0  0  0  0  0  0  0
   63.0725   32.9229   52.2514 H   0  0  0  0  0  0  0  0  0  0  0  0
   61.2279   34.1632   51.1164 H   0  0  0  0  0  0  0  0  0  0  0  0
   60.1444   34.9246   49.0615 H   0  0  0  0  0  0  0  0  0  0  0  0
  1  2  2  0
  2  3  1  0
  3  4  1  0
  4  5  2  0
  5  6  1  0
  6  7  2  0
  7  8  1  0
  8  9  2  0
  8 10  2  0
  8 11  1  0
 11 12  2  3
 12 13  1  0
 13 14  1  0
 14 15  2  0
 15 16  1  0
  7 17  1  0
 17 18  2  0
  2 19  1  0
 19 20  2  0
 20 21  1  0
 21 22  2  0
 22 23  1  0
 23 24  2  0
 24 25  1  0
 25 26  2  0
 26 27  1  0
 27 28  2  0
 18  4  1  0
 28 19  1  0
 16 12  1  0
 27 22  1  0
  5 29  1  0
  6 30  1  0
 13 31  1  0
 14 32  1  0
 15 33  1  0
 17 34  1  0
 18 35  1  0
 20 36  1  0
 21 37  1  0
 23 38  1  0
 24 39  1  0
 25 40  1  0
 26 41  1  0
 28 42  1  0
M  CHG  1   3  -1
M  END
>  <UniqueID>  (58) 
54

>  <SMILES>  (58) 
O=C([N-]c1ccc(S(=O)(=O)N=c2[nH]ccs2)cc1)c1ccc2ccccc2c1

>  <Energy>  (58) 
87.43227348741236

>  <Genealogy>  (58) 
O=C([N-]c1ccc(S(=O)(=O)N=c2[nH]ccs2)cc1)c1ccc2ccccc2c1 (protonated)
O=C([N-]c1ccc(S(=O)(=O)N=c2[nH]ccs2)cc1)c1ccc2ccccc2c1 (3D coordinates assigned)
O=C([N-]c1ccc(S(=O)(=O)N=c2[nH]ccs2)cc1)c1ccc2ccccc2c1 (optimized conformer: 87.43227348741236 kcal/mol)

>  <smiles>  (58) 
O=C(Nc1ccc(S(=O)(=O)N=c2[nH]ccs2)cc1)c1ccc2ccccc2c1

>  <score_type>  (58) 
oracle

>  <origin>  (58) 
adg

>  <m_score__min__energy>  (58) 
-10.65

>  <m_primary>  (58) 
energy

$$$$
59:0
     RDKit          3D

 46 48  0  0  0  0  0  0  0  0999 V2000
   61.9030   32.6790   52.6590 C   0  0  0  0  0  0  0  0  0  0  0  0
   61.0250   32.5300   51.5480 O   0  0  0  0  0  0  0  0  0  0  0  0
   59.6370   32.3240   51.6420 C   0  0  0  0  0  0  0  0  0  0  0  0
   58.8170   33.2130   52.3690 C   0  0  0  0  0  0  0  0  0  0  0  0
   57.4410   33.0020   52.4580 C   0  0  0  0  0  0  0  0  0  0  0  0
   56.8610   31.9040   51.8280 C   0  0  0  0  0  0  0  0  0  0  0  0
   57.6550   31.0130   51.1020 C   0  0  0  0  0  0  0  0  0  0  0  0
   59.0480   31.2060   50.9950 C   0  0  0  0  0  0  0  0  0  0  0  0
   59.8570   30.2350   50.2090 C   0  0  0  0  0  0  0  0  0  0  0  0
   59.6770   28.9950   50.3570 O   0  0  0  0  0  0  0  0  0  0  0  0
   60.8590   30.7170   49.2940 N   0  0  0  0  0  0  0  0  0  0  0  0
   60.7340   31.6530   48.3970 C   0  0  0  0  0  0  0  0  0  0  0  0
   61.2310   31.5160   47.1490 N   0  0  0  0  0  0  0  0  0  0  0  0
   61.0080   32.5760   46.3750 N   0  0  0  0  0  0  0  0  0  0  0  0
   60.3340   33.5630   47.0050 C   0  0  0  0  0  0  0  0  0  0  0  0
   59.8690   35.1050   46.2180 S   0  0  0  0  0  0  0  0  0  0  0  0
   58.2250   34.5200   45.6820 C   0  0  0  0  0  0  0  0  0  0  0  0
   57.9830   33.1160   46.1470 C   0  0  0  0  0  0  0  0  0  0  0  0
   57.2390   32.9140   47.1440 O   0  0  0  0  0  0  0  0  0  0  0  0
   58.5980   32.0140   45.4580 N   0  0  0  0  0  0  0  0  0  0  0  0
   58.1650   30.6480   45.5700 C   0  0  0  0  0  0  0  0  0  0  0  0
   58.9150   29.7510   46.3460 C   0  0  0  0  0  0  0  0  0  0  0  0
   58.5150   28.4160   46.4710 C   0  0  0  0  0  0  0  0  0  0  0  0
   57.3700   27.9580   45.8070 C   0  0  0  0  0  0  0  0  0  0  0  0
   56.8520   26.2830   45.9790 S   0  0  0  0  0  0  0  0  0  0  0  0
   55.1260   26.2080   46.0540 N   0  0  0  0  0  0  0  0  0  0  0  0
   57.4130   25.6990   47.2460 O   0  0  0  0  0  0  0  0  0  0  0  0
   57.3400   25.4830   44.8030 O   0  0  0  0  0  0  0  0  0  0  0  0
   56.6440   28.8380   44.9930 C   0  0  0  0  0  0  0  0  0  0  0  0
   57.0390   30.1750   44.8720 C   0  0  0  0  0  0  0  0  0  0  0  0
   59.9780   33.1530   48.5970 S   0  0  0  0  0  0  0  0  0  0  0  0
   61.3313   32.5820   53.5937 H   0  0  0  0  0  0  0  0  0  0  0  0
   62.6783   31.8996   52.6208 H   0  0  0  0  0  0  0  0  0  0  0  0
   62.3777   33.6706   52.6208 H   0  0  0  0  0  0  0  0  0  0  0  0
   59.2678   34.0818   52.8710 H   0  0  0  0  0  0  0  0  0  0  0  0
   56.8133   33.7039   53.0266 H   0  0  0  0  0  0  0  0  0  0  0  0
   55.7761   31.7380   51.9021 H   0  0  0  0  0  0  0  0  0  0  0  0
   57.1874   30.1491   50.6070 H   0  0  0  0  0  0  0  0  0  0  0  0
   57.4521   35.1785   46.1052 H   0  0  0  0  0  0  0  0  0  0  0  0
   58.1844   34.5397   44.5829 H   0  0  0  0  0  0  0  0  0  0  0  0
   59.4290   32.2170   44.8580 H   0  0  0  0  0  0  0  0  0  0  0  0
   59.8233   30.0996   46.8593 H   0  0  0  0  0  0  0  0  0  0  0  0
   59.1018   27.7239   47.0928 H   0  0  0  0  0  0  0  0  0  0  0  0
   54.7930   27.1460   46.3710 H   0  0  0  0  0  0  0  0  0  0  0  0
   55.7602   28.4763   44.4471 H   0  0  0  0  0  0  0  0  0  0  0  0
   56.4665   30.8590   44.2283 H   0  0  0  0  0  0  0  0  0  0  0  0
  1  2  1  0
  2  3  1  0
  3  4  2  0
  4  5  1  0
  5  6  2  0
  6  7  1  0
  7  8  2  0
  8  9  1  0
  9 10  2  0
  9 11  1  0
 11 12  2  3
 12 13  1  0
 13 14  1  0
 14 15  2  0
 15 16  1  0
 16 17  1  0
 17 18  1  0
 18 19  2  0
 18 20  1  0
 20 21  1  0
 21 22  2  0
 22 23  1  0
 23 24  2  0
 24 25  1  0
 25 26  1  0
 25 27  2  0
 25 28  2  0
 24 29  1  0
 29 30  2  0
 15 31  1  0
  8  3  1  0
 31 12  1  0
 30 21  1  0
  1 32  1  0
  1 33  1  0
  1 34  1  0
  4 35  1  0
  5 36  1  0
  6 37  1  0
  7 38  1  0
 17 39  1  0
 17 40  1  0
 20 41  1  0
 22 42  1  0
 23 43  1  0
 26 44  1  0
 29 45  1  0
 30 46  1  0
M  CHG  2  13  -1  26  -1
M  END
>  <UniqueID>  (59) 
55

>  <SMILES>  (59) 
COc1ccccc1C(=O)N=c1[n-]nc(SCC(=O)Nc2ccc(S([NH-])(=O)=O)cc2)s1

>  <Energy>  (59) 
85.97472757469279

>  <Genealogy>  (59) 
COc1ccccc1C(=O)N=c1[n-]nc(SCC(=O)Nc2ccc(S([NH-])(=O)=O)cc2)s1 (protonated)
COc1ccccc1C(=O)N=c1[n-]nc(SCC(=O)Nc2ccc(S([NH-])(=O)=O)cc2)s1 (3D coordinates assigned)
COc1ccccc1C(=O)N=c1[n-]nc(SCC(=O)Nc2ccc(S([NH-])(=O)=O)cc2)s1 (optimized conformer: 85.97472757469279 kcal/mol)

>  <smiles>  (59) 
COc1ccccc1C(=O)N=c1[nH]nc(SCC(=O)Nc2ccc(S(N)(=O)=O)cc2)s1

>  <score_type>  (59) 
oracle

>  <origin>  (59) 
adg

>  <m_score__min__energy>  (59) 
-11.66

>  <m_primary>  (59) 
energy

$$$$
60:0
     RDKit          3D

 53 56  0  0  0  0  0  0  0  0999 V2000
   58.8050   34.4640   52.1530 N   0  0  0  0  0  0  0  0  0  0  0  0
   58.4340   33.1640   51.6660 C   0  0  0  0  0  0  0  0  0  0  0  0
   57.2640   32.5750   52.1510 C   0  0  0  0  0  0  0  0  0  0  0  0
   56.9130   31.3060   51.7060 C   0  0  0  0  0  0  0  0  0  0  0  0
   55.8670   30.7530   52.1400 O   0  0  0  0  0  0  0  0  0  0  0  0
   57.6980   30.6650   50.8050 N   0  0  0  0  0  0  0  0  0  0  0  0
   58.8260   31.2460   50.3130 C   0  0  0  0  0  0  0  0  0  0  0  0
   59.7810   30.3480   49.0670 S   0  0  0  0  0  0  0  0  0  0  0  0
   59.6230   28.7260   49.8890 C   0  0  0  0  0  0  0  0  0  0  0  0
   60.5420   27.7270   49.2640 C   0  0  0  0  0  0  0  0  0  0  0  0
   61.2890   27.0220   49.9950 O   0  0  0  0  0  0  0  0  0  0  0  0
   60.5420   27.5610   47.8400 N   0  0  0  0  0  0  0  0  0  0  0  0
   59.5940   28.1270   46.9250 C   0  0  0  0  0  0  0  0  0  0  0  0
   58.2480   27.7170   46.8950 C   0  0  0  0  0  0  0  0  0  0  0  0
   57.3600   28.2810   45.9750 C   0  0  0  0  0  0  0  0  0  0  0  0
   57.8020   29.2570   45.0720 C   0  0  0  0  0  0  0  0  0  0  0  0
   56.6810   29.9790   43.9210 S   0  0  0  0  0  0  0  0  0  0  0  0
   55.2910   29.9910   44.4950 O   0  0  0  0  0  0  0  0  0  0  0  0
   56.6580   29.1620   42.6590 O   0  0  0  0  0  0  0  0  0  0  0  0
   57.1850   31.5960   43.5280 N   0  0  0  0  0  0  0  0  0  0  0  0
   57.6630   32.4450   44.3890 C   0  0  0  0  0  0  0  0  0  0  0  0
   58.5130   33.4380   44.0000 N   0  0  0  0  0  0  0  0  0  0  0  0
   59.0160   34.3250   44.8990 C   0  0  0  0  0  0  0  0  0  0  0  0
   58.6630   34.2250   46.2450 C   0  0  0  0  0  0  0  0  0  0  0  0
   57.7920   33.2040   46.6290 C   0  0  0  0  0  0  0  0  0  0  0  0
   57.3090   32.3370   45.6980 N   0  0  0  0  0  0  0  0  0  0  0  0
   59.1480   29.6470   45.0840 C   0  0  0  0  0  0  0  0  0  0  0  0
   60.0400   29.0780   45.9980 C   0  0  0  0  0  0  0  0  0  0  0  0
   59.2090   32.4920   50.7500 N   0  0  0  0  0  0  0  0  0  0  0  0
   60.4180   33.0860   50.2460 C   0  0  0  0  0  0  0  0  0  0  0  0
   61.5790   33.1000   51.0360 C   0  0  0  0  0  0  0  0  0  0  0  0
   62.7580   33.6670   50.5400 C   0  0  0  0  0  0  0  0  0  0  0  0
   62.7850   34.2170   49.2540 C   0  0  0  0  0  0  0  0  0  0  0  0
   61.6290   34.2100   48.4660 C   0  0  0  0  0  0  0  0  0  0  0  0
   60.4470   33.6500   48.9610 C   0  0  0  0  0  0  0  0  0  0  0  0
   59.4060   34.5950   52.9960 H   0  0  0  0  0  0  0  0  0  0  0  0
   58.4620   35.3280   51.6750 H   0  0  0  0  0  0  0  0  0  0  0  0
   56.6296   33.1078   52.8747 H   0  0  0  0  0  0  0  0  0  0  0  0
   57.4270   29.7110   50.4750 H   0  0  0  0  0  0  0  0  0  0  0  0
   59.8771   28.8342   50.9538 H   0  0  0  0  0  0  0  0  0  0  0  0
   58.5873   28.3723   49.7786 H   0  0  0  0  0  0  0  0  0  0  0  0
   57.8935   26.9494   47.5986 H   0  0  0  0  0  0  0  0  0  0  0  0
   56.3089   27.9571   45.9597 H   0  0  0  0  0  0  0  0  0  0  0  0
   59.6997   35.1197   44.5660 H   0  0  0  0  0  0  0  0  0  0  0  0
   59.0615   34.9337   46.9859 H   0  0  0  0  0  0  0  0  0  0  0  0
   57.4963   33.1003   47.6834 H   0  0  0  0  0  0  0  0  0  0  0  0
   59.5045   30.4047   44.3707 H   0  0  0  0  0  0  0  0  0  0  0  0
   61.0980   29.3788   45.9892 H   0  0  0  0  0  0  0  0  0  0  0  0
   61.5614   32.6646   52.0460 H   0  0  0  0  0  0  0  0  0  0  0  0
   63.6650   33.6803   51.1622 H   0  0  0  0  0  0  0  0  0  0  0  0
   63.7150   34.6549   48.8624 H   0  0  0  0  0  0  0  0  0  0  0  0
   61.6498   34.6454   47.4561 H   0  0  0  0  0  0  0  0  0  0  0  0
   59.5378   33.6515   48.3418 H   0  0  0  0  0  0  0  0  0  0  0  0
  1  2  1  0
  2  3  2  0
  3  4  1  0
  4  5  2  0
  4  6  1  0
  6  7  2  0
  7  8  1  0
  8  9  1  0
  9 10  1  0
 10 11  2  0
 10 12  1  0
 12 13  1  0
 13 14  2  0
 14 15  1  0
 15 16  2  0
 16 17  1  0
 17 18  2  0
 17 19  2  0
 17 20  1  0
 20 21  2  3
 21 22  1  0
 22 23  2  0
 23 24  1  0
 24 25  2  0
 25 26  1  0
 16 27  1  0
 27 28  2  0
  7 29  1  0
 29 30  1  0
 30 31  2  0
 31 32  1  0
 32 33  2  0
 33 34  1  0
 34 35  2  0
 29  2  1  0
 35 30  1  0
 28 13  1  0
 26 21  1  0
  1 36  1  0
  1 37  1  0
  3 38  1  0
  6 39  1  0
  9 40  1  0
  9 41  1  0
 14 42  1  0
 15 43  1  0
 23 44  1  0
 24 45  1  0
 25 46  1  0
 27 47  1  0
 28 48  1  0
 31 49  1  0
 32 50  1  0
 33 51  1  0
 34 52  1  0
 35 53  1  0
M  CHG  3   6   1  12  -1  26  -1
M  END
>  <UniqueID>  (60) 
56

>  <SMILES>  (60) 
Nc1cc(=O)[nH+]c(SCC(=O)[N-]c2ccc(S(=O)(=O)N=c3nccc[n-]3)cc2)n1-c1ccccc1

>  <Energy>  (60) 
69.87136608017435

>  <Genealogy>  (60) 
Nc1cc(=O)[nH+]c(SCC(=O)[N-]c2ccc(S(=O)(=O)N=c3nccc[n-]3)cc2)n1-c1ccccc1 (protonated)
Nc1cc(=O)[nH+]c(SCC(=O)[N-]c2ccc(S(=O)(=O)N=c3nccc[n-]3)cc2)n1-c1ccccc1 (3D coordinates assigned)
Nc1cc(=O)[nH+]c(SCC(=O)[N-]c2ccc(S(=O)(=O)N=c3nccc[n-]3)cc2)n1-c1ccccc1 (optimized conformer: 69.87136608017435 kcal/mol)

>  <smiles>  (60) 
Nc1cc(=O)nc(SCC(=O)Nc2ccc(S(=O)(=O)N=c3nccc[nH]3)cc2)n1-c1ccccc1

>  <score_type>  (60) 
oracle

>  <origin>  (60) 
adg

>  <m_score__min__energy>  (60) 
-10.369999999999999

>  <m_primary>  (60) 
energy

$$$$
61:0
     RDKit          3D

 53 56  0  0  1  0  0  0  0  0999 V2000
   58.3960   33.5300   52.2110 C   0  0  0  0  0  0  0  0  0  0  0  0
   59.5020   33.9910   51.3910 N   0  0  0  0  0  0  0  0  0  0  0  0
   59.5170   33.5950   50.1450 C   0  0  0  0  0  0  0  0  0  0  0  0
   59.5640   34.4900   49.1290 N   0  0  0  0  0  0  0  0  0  0  0  0
   59.5800   34.0870   47.8290 C   0  0  0  0  0  0  0  0  0  0  0  0
   59.6290   35.0800   46.8130 C   0  0  0  0  0  0  0  0  0  0  0  0
   59.6850   35.8910   45.9720 N   0  0  0  0  0  0  0  0  0  0  0  0
   59.5490   32.7750   47.5110 N   0  0  0  0  0  0  0  0  0  0  0  0
   59.5020   31.8510   48.4820 C   0  0  0  0  0  0  0  0  0  0  0  0
   59.4860   32.2490   49.8160 C   0  0  0  0  0  0  0  0  0  0  0  0
   59.4380   31.1350   50.5540 N   0  0  0  0  0  0  0  0  0  0  0  0
   59.4260   30.0680   49.7160 C   0  0  0  0  0  0  0  0  0  0  0  0
   59.3830   28.8860   50.1510 O   0  0  0  0  0  0  0  0  0  0  0  0
   59.4650   30.5020   48.4390 N   0  0  0  0  0  0  0  0  0  0  0  0
   59.4650   29.6400   47.3080 C   0  0  0  0  0  0  0  0  0  0  0  0
   60.3190   29.9660   46.2610 C   0  0  0  0  0  0  0  0  0  0  0  0
   60.3530   29.1560   45.1370 C   0  0  0  0  0  0  0  0  0  0  0  0
   59.5390   28.0430   45.0800 C   0  0  0  0  0  0  0  0  0  0  0  0
   58.6860   27.7060   46.1120 C   0  0  0  0  0  0  0  0  0  0  0  0
   57.8150   26.5370   46.0810 C   0  0  0  0  0  0  0  0  0  0  0  0
   57.3170   26.0630   47.1580 O   0  0  0  0  0  0  0  0  0  0  0  0
   57.4700   25.8660   44.8880 N   0  0  0  0  0  0  0  0  0  0  0  0
   56.6140   24.7170   44.8550 C   0  0  0  0  0  0  0  0  0  0  0  0
   57.0340   23.5100   44.3350 C   0  0  0  0  0  0  0  0  0  0  0  0
   56.1340   22.4540   44.3460 C   0  0  0  0  0  0  0  0  0  0  0  0
   54.8520   22.5980   44.8600 C   0  0  0  0  0  0  0  0  0  0  0  0
   54.4250   23.8130   45.3850 C   0  0  0  0  0  0  0  0  0  0  0  0
   53.1110   23.9550   45.9100 N   0  0  0  0  0  0  0  0  0  0  0  0
   51.9220   22.6880   45.7300 S   0  0  0  0  0  0  0  0  0  0  0  0
   50.5770   22.9720   46.8300 C   0  0  0  0  0  0  0  0  0  0  0  0
   51.4340   22.7490   44.2950 O   0  0  0  0  0  0  0  0  0  0  0  0
   52.5220   21.3540   46.0130 O   0  0  0  0  0  0  0  0  0  0  0  0
   55.3410   24.8520   45.3630 C   0  0  0  0  0  0  0  0  0  0  0  0
   54.9300   26.0780   45.8860 O   0  0  0  0  0  0  0  0  0  0  0  0
   58.6610   28.5210   47.2250 C   0  0  0  0  0  0  0  0  0  0  0  0
   58.6573   33.6389   53.2739 H   0  0  0  0  0  0  0  0  0  0  0  0
   57.5008   34.1299   51.9901 H   0  0  0  0  0  0  0  0  0  0  0  0
   58.1919   32.4719   51.9901 H   0  0  0  0  0  0  0  0  0  0  0  0
   59.5870   35.5000   49.3790 H   0  0  0  0  0  0  0  0  0  0  0  0
   59.4150   31.1010   51.5990 H   0  0  0  0  0  0  0  0  0  0  0  0
   60.9608   30.8571   46.3238 H   0  0  0  0  0  0  0  0  0  0  0  0
   61.0224   29.3979   44.2983 H   0  0  0  0  0  0  0  0  0  0  0  0
   59.5708   27.4047   44.1847 H   0  0  0  0  0  0  0  0  0  0  0  0
   57.8370   26.1910   43.9680 H   0  0  0  0  0  0  0  0  0  0  0  0
   58.0478   23.3890   43.9257 H   0  0  0  0  0  0  0  0  0  0  0  0
   56.4431   21.4803   43.9382 H   0  0  0  0  0  0  0  0  0  0  0  0
   54.1647   21.7392   44.8518 H   0  0  0  0  0  0  0  0  0  0  0  0
   52.9000   24.8450   46.4030 H   0  0  0  0  0  0  0  0  0  0  0  0
   50.9309   22.8973   47.8688 H   0  0  0  0  0  0  0  0  0  0  0  0
   50.1654   23.9768   46.6542 H   0  0  0  0  0  0  0  0  0  0  0  0
   49.7943   22.2193   46.6542 H   0  0  0  0  0  0  0  0  0  0  0  0
   55.1330   26.3370   46.8360 H   0  0  0  0  0  0  0  0  0  0  0  0
   57.9890   28.2749   48.0604 H   0  0  0  0  0  0  0  0  0  0  0  0
  1  2  1  0
  2  3  2  0
  3  4  1  0
  4  5  1  0
  5  6  1  0
  6  7  3  0
  5  8  2  0
  8  9  1  0
  9 10  2  0
 10 11  1  0
 11 12  1  0
 12 13  2  0
 12 14  1  0
 14 15  1  0
 15 16  2  0
 16 17  1  0
 17 18  2  0
 18 19  1  0
 19 20  1  0
 20 21  2  0
 20 22  1  0
 22 23  1  0
 23 24  2  0
 24 25  1  0
 25 26  2  0
 26 27  1  0
 27 28  1  0
 28 29  1  0
 29 30  1  0
 29 31  2  0
 29 32  2  0
 27 33  2  0
 33 34  1  0
 19 35  2  0
 10  3  1  0
 35 15  1  0
 14  9  1  0
 33 23  1  0
  1 36  1  0
  1 37  1  0
  1 38  1  0
  4 39  1  0
 11 40  1  0
 16 41  1  0
 17 42  1  0
 18 43  1  0
 22 44  1  0
 24 45  1  0
 25 46  1  0
 26 47  1  0
 28 48  1  0
 30 49  1  0
 30 50  1  0
 30 51  1  0
 34 52  1  0
 35 53  1  0
M  END
>  <smiles>  (61) 
CN=c1[nH]c(C#N)nc2c1[nH]c(=O)n2-c1cccc(C(=O)Nc2cccc(NS(C)(=O)=O)c2O)c1

>  <score_type>  (61) 
oracle

>  <origin>  (61) 
adg

>  <m_score__min__energy>  (61) 
-9.3599999999999994

>  <m_primary>  (61) 
energy

$$$$
62:0
     RDKit          3D

 37 39  0  0  0  0  0  0  0  0999 V2000
   62.1383   31.8160   46.4506 H   0  0  0  0  0  0  0  0  0  0  0  0
   61.4580   31.2060   47.0630 C   0  0  0  0  0  0  0  0  0  0  0  0
   61.1390   29.9490   46.6660 N   0  0  0  0  0  0  0  0  0  0  0  0
   60.3150   29.1630   47.4060 C   0  0  0  0  0  0  0  0  0  0  0  0
   59.9830   27.9680   47.0130 N   0  0  0  0  0  0  0  0  0  0  0  0
   58.6680   27.5090   46.6560 C   0  0  0  0  0  0  0  0  0  0  0  0
   57.8320   28.3670   45.9290 C   0  0  0  0  0  0  0  0  0  0  0  0
   58.2001   29.3572   45.6225 H   0  0  0  0  0  0  0  0  0  0  0  0
   56.5330   27.9740   45.5900 C   0  0  0  0  0  0  0  0  0  0  0  0
   55.7420   28.8070   44.8710 F   0  0  0  0  0  0  0  0  0  0  0  0
   56.0510   26.7240   45.9960 C   0  0  0  0  0  0  0  0  0  0  0  0
   54.7610   26.3320   45.6600 O   0  0  0  0  0  0  0  0  0  0  0  0
   56.8680   25.8740   46.7500 C   0  0  0  0  0  0  0  0  0  0  0  0
   56.3980   24.6710   47.1670 F   0  0  0  0  0  0  0  0  0  0  0  0
   58.1670   26.2660   47.0880 C   0  0  0  0  0  0  0  0  0  0  0  0
   58.7999   25.6008   47.6937 H   0  0  0  0  0  0  0  0  0  0  0  0
   59.7960   29.6460   48.5630 N   0  0  0  0  0  0  0  0  0  0  0  0
   60.0810   30.8950   49.0210 C   0  0  0  0  0  0  0  0  0  0  0  0
   59.4830   31.3120   50.3420 C   0  0  0  0  0  0  0  0  0  0  0  0
   60.4860   31.5720   51.2600 F   0  0  0  0  0  0  0  0  0  0  0  0
   58.7290   32.4640   50.1930 F   0  0  0  0  0  0  0  0  0  0  0  0
   58.6900   30.2950   50.8400 F   0  0  0  0  0  0  0  0  0  0  0  0
   60.9260   31.7340   48.2500 C   0  0  0  0  0  0  0  0  0  0  0  0
   61.2780   33.1240   48.6270 C   0  0  0  0  0  0  0  0  0  0  0  0
   62.3470   33.3430   49.2570 O   0  0  0  0  0  0  0  0  0  0  0  0
   60.4650   34.2220   48.1910 N   0  0  0  0  0  0  0  0  0  0  0  0
   59.4810   34.1950   47.1480 C   0  0  0  0  0  0  0  0  0  0  0  0
   59.7720   34.8300   45.9340 C   0  0  0  0  0  0  0  0  0  0  0  0
   60.7323   35.3511   45.8065 H   0  0  0  0  0  0  0  0  0  0  0  0
   58.8500   34.8060   44.8830 C   0  0  0  0  0  0  0  0  0  0  0  0
   59.0806   35.3189   43.9376 H   0  0  0  0  0  0  0  0  0  0  0  0
   57.6360   34.1310   45.0330 C   0  0  0  0  0  0  0  0  0  0  0  0
   56.9080   34.1180   44.2085 H   0  0  0  0  0  0  0  0  0  0  0  0
   57.3470   33.4720   46.2320 C   0  0  0  0  0  0  0  0  0  0  0  0
   56.3942   32.9345   46.3471 H   0  0  0  0  0  0  0  0  0  0  0  0
   58.2670   33.4950   47.2850 C   0  0  0  0  0  0  0  0  0  0  0  0
   58.0418   32.9651   48.2223 H   0  0  0  0  0  0  0  0  0  0  0  0
  1  2  1  0
  2  3  1  0
  3  4  1  0
  4  5  2  0
  5  6  1  0
  6  7  2  0
  7  8  1  0
  7  9  1  0
  9 10  1  0
  9 11  2  0
 11 12  1  0
 11 13  1  0
 13 14  1  0
 13 15  2  0
 15 16  1  0
  4 17  1  0
 17 18  2  0
 18 19  1  0
 19 20  1  0
 19 21  1  0
 19 22  1  0
 18 23  1  0
 23 24  1  0
 24 25  2  0
 24 26  1  0
 26 27  1  0
 27 28  2  0
 28 29  1  0
 28 30  1  0
 30 31  1  0
 30 32  2  0
 32 33  1  0
 32 34  1  0
 34 35  1  0
 34 36  2  0
 36 37  1  0
 23  2  2  0
 36 27  1  0
 15  6  1  0
M  CHG  3   3  -1  12  -1  26  -1
M  END
>  <UniqueID>  (62) 
57

>  <SMILES>  (62) 
O=C([N-]c1ccccc1)c1c[n-]/c(=N\c2cc(F)c([O-])c(F)c2)nc1C(F)(F)F

>  <Energy>  (62) 
56.91162292835096

>  <Genealogy>  (62) 
O=C([N-]c1ccccc1)c1c[n-]c(=Nc2cc(F)c([O-])c(F)c2)nc1C(F)(F)F (protonated)
O=C([N-]c1ccccc1)c1c[n-]/c(=N\c2cc(F)c([O-])c(F)c2)nc1C(F)(F)F (cis-trans isomerization)
O=C([N-]c1ccccc1)c1c[n-]/c(=N\c2cc(F)c([O-])c(F)c2)nc1C(F)(F)F (3D coordinates assigned)
O=C([N-]c1ccccc1)c1c[n-]/c(=N\c2cc(F)c([O-])c(F)c2)nc1C(F)(F)F (optimized conformer: 56.91162292835096 kcal/mol)

>  <smiles>  (62) 
O=C(Nc1ccccc1)c1c[nH]c(=Nc2cc(F)c(O)c(F)c2)nc1C(F)(F)F

>  <score_type>  (62) 
oracle

>  <origin>  (62) 
adg

>  <m_score__min__energy>  (62) 
-12.789999999999999

>  <m_primary>  (62) 
energy

$$$$
63:0
     RDKit          3D

 53 56  0  0  0  0  0  0  0  0999 V2000
   51.9670   28.5120   53.4470 O   0  0  0  0  0  0  0  0  0  0  0  0
   52.8000   29.4560   53.4420 C   0  0  0  0  0  0  0  0  0  0  0  0
   52.3260   30.8560   53.1460 C   0  0  0  0  0  0  0  0  0  0  0  0
   51.8110   30.9900   51.7440 C   0  0  0  0  0  0  0  0  0  0  0  0
   52.1470   29.9260   50.4780 S   0  0  0  0  0  0  0  0  0  0  0  0
   51.2780   30.8370   49.3670 C   0  0  0  0  0  0  0  0  0  0  0  0
   51.1400   30.5330   48.1540 O   0  0  0  0  0  0  0  0  0  0  0  0
   50.7390   31.9470   49.9130 N   0  0  0  0  0  0  0  0  0  0  0  0
   51.0420   32.0360   51.2350 C   0  0  0  0  0  0  0  0  0  0  0  0
   50.6200   33.1120   52.0060 O   0  0  0  0  0  0  0  0  0  0  0  0
   54.1570   29.1830   53.8170 N   0  0  0  0  0  0  0  0  0  0  0  0
   55.3030   29.7320   53.1610 C   0  0  0  0  0  0  0  0  0  0  0  0
   56.4790   28.9820   53.0310 C   0  0  0  0  0  0  0  0  0  0  0  0
   57.5710   29.5010   52.3310 C   0  0  0  0  0  0  0  0  0  0  0  0
   57.4990   30.7820   51.7590 C   0  0  0  0  0  0  0  0  0  0  0  0
   58.6000   31.2940   50.9170 C   0  0  0  0  0  0  0  0  0  0  0  0
   58.4530   32.3930   50.3190 O   0  0  0  0  0  0  0  0  0  0  0  0
   59.8480   30.5980   50.7780 N   0  0  0  0  0  0  0  0  0  0  0  0
   60.0780   29.2790   50.2500 C   0  0  0  0  0  0  0  0  0  0  0  0
   60.8450   28.3860   51.0050 C   0  0  0  0  0  0  0  0  0  0  0  0
   61.1410   27.1140   50.5110 C   0  0  0  0  0  0  0  0  0  0  0  0
   60.6800   26.7250   49.2520 C   0  0  0  0  0  0  0  0  0  0  0  0
   59.9190   27.6070   48.4630 C   0  0  0  0  0  0  0  0  0  0  0  0
   59.3900   27.1520   47.1450 C   0  0  0  0  0  0  0  0  0  0  0  0
   59.9420   26.1810   46.5640 O   0  0  0  0  0  0  0  0  0  0  0  0
   58.2150   27.7160   46.5430 N   0  0  0  0  0  0  0  0  0  0  0  0
   58.1110   28.9920   45.9000 C   0  0  0  0  0  0  0  0  0  0  0  0
   57.1050   29.2590   44.9580 C   0  0  0  0  0  0  0  0  0  0  0  0
   57.0510   30.5020   44.3220 C   0  0  0  0  0  0  0  0  0  0  0  0
   58.0060   31.4930   44.6090 C   0  0  0  0  0  0  0  0  0  0  0  0
   57.9250   32.8480   43.9520 C   0  0  0  0  0  0  0  0  0  0  0  0
   57.6090   32.7220   42.6090 F   0  0  0  0  0  0  0  0  0  0  0  0
   56.9470   33.5980   44.5770 F   0  0  0  0  0  0  0  0  0  0  0  0
   59.1370   33.5110   44.0510 F   0  0  0  0  0  0  0  0  0  0  0  0
   58.9810   31.2360   45.5880 C   0  0  0  0  0  0  0  0  0  0  0  0
   59.0300   29.9940   46.2280 C   0  0  0  0  0  0  0  0  0  0  0  0
   59.6260   28.8850   48.9760 C   0  0  0  0  0  0  0  0  0  0  0  0
   56.3460   31.5600   51.9590 C   0  0  0  0  0  0  0  0  0  0  0  0
   55.2560   31.0380   52.6620 C   0  0  0  0  0  0  0  0  0  0  0  0
   51.5184   31.1132   53.8471 H   0  0  0  0  0  0  0  0  0  0  0  0
   53.1831   31.5361   53.2596 H   0  0  0  0  0  0  0  0  0  0  0  0
   56.5429   27.9806   53.4818 H   0  0  0  0  0  0  0  0  0  0  0  0
   58.4897   28.9049   52.2275 H   0  0  0  0  0  0  0  0  0  0  0  0
   61.2177   28.6878   51.9950 H   0  0  0  0  0  0  0  0  0  0  0  0
   61.7392   26.4164   51.1156 H   0  0  0  0  0  0  0  0  0  0  0  0
   60.9140   25.7192   48.8732 H   0  0  0  0  0  0  0  0  0  0  0  0
   56.3575   28.4879   44.7200 H   0  0  0  0  0  0  0  0  0  0  0  0
   56.2550   30.7068   43.5910 H   0  0  0  0  0  0  0  0  0  0  0  0
   59.7097   32.0165   45.8522 H   0  0  0  0  0  0  0  0  0  0  0  0
   59.7960   29.8037   46.9942 H   0  0  0  0  0  0  0  0  0  0  0  0
   59.0339   29.5876   48.3712 H   0  0  0  0  0  0  0  0  0  0  0  0
   56.3008   32.5843   51.5607 H   0  0  0  0  0  0  0  0  0  0  0  0
   54.3599   31.6554   52.8230 H   0  0  0  0  0  0  0  0  0  0  0  0
  1  2  2  0
  2  3  1  0
  3  4  1  0
  4  5  1  0
  5  6  1  0
  6  7  2  0
  6  8  1  0
  8  9  1  0
  9 10  1  0
  2 11  1  0
 11 12  1  0
 12 13  2  0
 13 14  1  0
 14 15  2  0
 15 16  1  0
 16 17  2  0
 16 18  1  0
 18 19  1  0
 19 20  2  0
 20 21  1  0
 21 22  2  0
 22 23  1  0
 23 24  1  0
 24 25  2  0
 24 26  1  0
 26 27  1  0
 27 28  2  0
 28 29  1  0
 29 30  2  0
 30 31  1  0
 31 32  1  0
 31 33  1  0
 31 34  1  0
 30 35  1  0
 35 36  2  0
 23 37  2  0
 15 38  1  0
 38 39  2  0
  9  4  2  0
 39 12  1  0
 37 19  1  0
 36 27  1  0
  3 40  1  0
  3 41  1  0
 13 42  1  0
 14 43  1  0
 20 44  1  0
 21 45  1  0
 22 46  1  0
 28 47  1  0
 29 48  1  0
 35 49  1  0
 36 50  1  0
 37 51  1  0
 38 52  1  0
 39 53  1  0
M  CHG  5   8  -1  10  -1  11  -1  18  -1  26  -1
M  END
>  <UniqueID>  (63) 
58

>  <SMILES>  (63) 
O=C(Cc1sc(=O)[n-]c1[O-])[N-]c1ccc(C(=O)[N-]c2cccc(C(=O)[N-]c3ccc(C(F)(F)F)cc3)c2)cc1

>  <Energy>  (63) 
103.10134957334401

>  <Genealogy>  (63) 
O=C(Cc1sc(=O)[n-]c1[O-])[N-]c1ccc(C(=O)[N-]c2cccc(C(=O)[N-]c3ccc(C(F)(F)F)cc3)c2)cc1 (protonated)
O=C(Cc1sc(=O)[n-]c1[O-])[N-]c1ccc(C(=O)[N-]c2cccc(C(=O)[N-]c3ccc(C(F)(F)F)cc3)c2)cc1 (3D coordinates assigned)
O=C(Cc1sc(=O)[n-]c1[O-])[N-]c1ccc(C(=O)[N-]c2cccc(C(=O)[N-]c3ccc(C(F)(F)F)cc3)c2)cc1 (optimized conformer: 103.10134957334401 kcal/mol)

>  <smiles>  (63) 
O=C(Cc1sc(=O)[nH]c1O)Nc1ccc(C(=O)Nc2cccc(C(=O)Nc3ccc(C(F)(F)F)cc3)c2)cc1

>  <score_type>  (63) 
oracle

>  <origin>  (63) 
adg

>  <m_score__min__energy>  (63) 
-20.969999999999999

>  <m_primary>  (63) 
energy

$$$$
64:0
     RDKit          3D

 54 56  0  0  0  0  0  0  0  0999 V2000
   66.5700   32.9650   50.1340 C   0  0  0  0  0  0  0  0  0  0  0  0
   65.2800   33.4660   49.8000 O   0  0  0  0  0  0  0  0  0  0  0  0
   64.0800   32.7710   50.0130 C   0  0  0  0  0  0  0  0  0  0  0  0
   62.8210   33.3560   49.7910 C   0  0  0  0  0  0  0  0  0  0  0  0
   61.6540   32.6210   50.0130 C   0  0  0  0  0  0  0  0  0  0  0  0
   61.7250   31.2860   50.4460 C   0  0  0  0  0  0  0  0  0  0  0  0
   60.5360   30.5250   50.7110 N   0  0  0  0  0  0  0  0  0  0  0  0
   60.0090   29.4690   49.9000 C   0  0  0  0  0  0  0  0  0  0  0  0
   58.7590   29.3590   49.7840 O   0  0  0  0  0  0  0  0  0  0  0  0
   60.8790   28.5060   49.2830 N   0  0  0  0  0  0  0  0  0  0  0  0
   60.3870   27.4330   48.4230 C   0  0  0  0  0  0  0  0  0  0  0  0
   59.4280   27.9890   47.4070 C   0  0  0  0  0  0  0  0  0  0  0  0
   59.7030   29.2100   46.7720 C   0  0  0  0  0  0  0  0  0  0  0  0
   58.8000   29.7430   45.8470 C   0  0  0  0  0  0  0  0  0  0  0  0
   57.6110   29.0620   45.5490 C   0  0  0  0  0  0  0  0  0  0  0  0
   56.4820   29.7070   44.3580 S   0  0  0  0  0  0  0  0  0  0  0  0
   57.0200   29.4260   42.9830 O   0  0  0  0  0  0  0  0  0  0  0  0
   55.1460   29.0290   44.4880 O   0  0  0  0  0  0  0  0  0  0  0  0
   56.2960   31.4280   44.5490 N   0  0  0  0  0  0  0  0  0  0  0  0
   57.4760   32.1520   44.0690 C   0  0  0  0  0  0  0  0  0  0  0  0
   58.0670   33.0060   45.1570 C   0  0  0  0  0  0  0  0  0  0  0  0
   58.9350   34.0600   44.8390 C   0  0  0  0  0  0  0  0  0  0  0  0
   59.4780   34.8490   45.8570 C   0  0  0  0  0  0  0  0  0  0  0  0
   59.1510   34.5720   47.1860 C   0  0  0  0  0  0  0  0  0  0  0  0
   58.3110   33.5440   47.4810 N   0  0  0  0  0  0  0  0  0  0  0  0
   57.7680   32.7630   46.5080 C   0  0  0  0  0  0  0  0  0  0  0  0
   57.3300   27.8470   46.1890 C   0  0  0  0  0  0  0  0  0  0  0  0
   58.2290   27.3180   47.1200 C   0  0  0  0  0  0  0  0  0  0  0  0
   62.9770   30.7010   50.6990 C   0  0  0  0  0  0  0  0  0  0  0  0
   63.0160   29.3810   51.1730 O   0  0  0  0  0  0  0  0  0  0  0  0
   64.0160   28.8680   52.0490 C   0  0  0  0  0  0  0  0  0  0  0  0
   64.1490   31.4490   50.4690 C   0  0  0  0  0  0  0  0  0  0  0  0
   66.6754   32.9241   51.2282 H   0  0  0  0  0  0  0  0  0  0  0  0
   66.6905   31.9547   49.7160 H   0  0  0  0  0  0  0  0  0  0  0  0
   67.3408   33.6291   49.7160 H   0  0  0  0  0  0  0  0  0  0  0  0
   62.7546   34.3967   49.4411 H   0  0  0  0  0  0  0  0  0  0  0  0
   60.6730   33.0903   49.8478 H   0  0  0  0  0  0  0  0  0  0  0  0
   61.8840   28.4760   49.5680 H   0  0  0  0  0  0  0  0  0  0  0  0
   61.2358   26.9633   47.9043 H   0  0  0  0  0  0  0  0  0  0  0  0
   59.8672   26.6849   49.0395 H   0  0  0  0  0  0  0  0  0  0  0  0
   60.6330   29.7501   47.0030 H   0  0  0  0  0  0  0  0  0  0  0  0
   59.0230   30.6995   45.3516 H   0  0  0  0  0  0  0  0  0  0  0  0
   58.2306   31.4259   43.7323 H   0  0  0  0  0  0  0  0  0  0  0  0
   57.1709   32.8057   43.2386 H   0  0  0  0  0  0  0  0  0  0  0  0
   59.1886   34.2660   43.7887 H   0  0  0  0  0  0  0  0  0  0  0  0
   60.1563   35.6800   45.6136 H   0  0  0  0  0  0  0  0  0  0  0  0
   59.5733   35.1860   47.9952 H   0  0  0  0  0  0  0  0  0  0  0  0
   57.0926   31.9385   46.7802 H   0  0  0  0  0  0  0  0  0  0  0  0
   56.3993   27.3080   45.9581 H   0  0  0  0  0  0  0  0  0  0  0  0
   57.9956   26.3717   47.6299 H   0  0  0  0  0  0  0  0  0  0  0  0
   63.7060   29.0270   53.0924 H   0  0  0  0  0  0  0  0  0  0  0  0
   64.1470   27.7914   51.8654 H   0  0  0  0  0  0  0  0  0  0  0  0
   64.9669   29.3896   51.8654 H   0  0  0  0  0  0  0  0  0  0  0  0
   65.1312   30.9881   50.6502 H   0  0  0  0  0  0  0  0  0  0  0  0
  1  2  1  0
  2  3  1  0
  3  4  2  0
  4  5  1  0
  5  6  2  0
  6  7  1  0
  7  8  1  0
  8  9  2  0
  8 10  1  0
 10 11  1  0
 11 12  1  0
 12 13  2  0
 13 14  1  0
 14 15  2  0
 15 16  1  0
 16 17  2  0
 16 18  2  0
 16 19  1  0
 19 20  1  0
 20 21  1  0
 21 22  2  0
 22 23  1  0
 23 24  2  0
 24 25  1  0
 25 26  2  0
 15 27  1  0
 27 28  2  0
  6 29  1  0
 29 30  1  0
 30 31  1  0
 29 32  2  0
 32  3  1  0
 28 12  1  0
 26 21  1  0
  1 33  1  0
  1 34  1  0
  1 35  1  0
  4 36  1  0
  5 37  1  0
 10 38  1  0
 11 39  1  0
 11 40  1  0
 13 41  1  0
 14 42  1  0
 20 43  1  0
 20 44  1  0
 22 45  1  0
 23 46  1  0
 24 47  1  0
 26 48  1  0
 27 49  1  0
 28 50  1  0
 31 51  1  0
 31 52  1  0
 31 53  1  0
 32 54  1  0
M  CHG  2   7  -1  19  -1
M  END
>  <UniqueID>  (64) 
59

>  <SMILES>  (64) 
COc1ccc([N-]C(=O)NCc2ccc(S(=O)(=O)[N-]Cc3cccnc3)cc2)c(OC)c1

>  <Energy>  (64) 
56.84490228839822

>  <Genealogy>  (64) 
COc1ccc([N-]C(=O)NCc2ccc(S(=O)(=O)[N-]Cc3cccnc3)cc2)c(OC)c1 (protonated)
COc1ccc([N-]C(=O)NCc2ccc(S(=O)(=O)[N-]Cc3cccnc3)cc2)c(OC)c1 (3D coordinates assigned)
COc1ccc([N-]C(=O)NCc2ccc(S(=O)(=O)[N-]Cc3cccnc3)cc2)c(OC)c1 (optimized conformer: 56.84490228839822 kcal/mol)

>  <smiles>  (64) 
COc1ccc(NC(=O)NCc2ccc(S(=O)(=O)NCc3cccnc3)cc2)c(OC)c1

>  <score_type>  (64) 
oracle

>  <origin>  (64) 
adg

>  <m_score__min__energy>  (64) 
-11.34

>  <m_primary>  (64) 
energy

$$$$
65:0
     RDKit          3D

 44 46  0  0  0  0  0  0  0  0999 V2000
   55.9030   19.6080   44.0930 C   0  0  0  0  0  0  0  0  0  0  0  0
   56.0830   20.8800   43.4780 O   0  0  0  0  0  0  0  0  0  0  0  0
   56.0970   22.0990   44.1730 C   0  0  0  0  0  0  0  0  0  0  0  0
   55.6790   22.2090   45.5120 C   0  0  0  0  0  0  0  0  0  0  0  0
   55.6830   23.4540   46.1510 C   0  0  0  0  0  0  0  0  0  0  0  0
   56.1060   24.6050   45.4650 C   0  0  0  0  0  0  0  0  0  0  0  0
   56.1030   25.9240   46.1330 C   0  0  0  0  0  0  0  0  0  0  0  0
   55.1080   26.6860   46.0000 O   0  0  0  0  0  0  0  0  0  0  0  0
   57.2240   26.3790   46.9010 N   0  0  0  0  0  0  0  0  0  0  0  0
   58.4060   26.9950   46.3630 C   0  0  0  0  0  0  0  0  0  0  0  0
   59.6540   26.5320   46.7970 C   0  0  0  0  0  0  0  0  0  0  0  0
   60.8310   27.0820   46.2870 C   0  0  0  0  0  0  0  0  0  0  0  0
   60.7700   28.0820   45.3150 C   0  0  0  0  0  0  0  0  0  0  0  0
   59.5340   28.5300   44.8490 C   0  0  0  0  0  0  0  0  0  0  0  0
   58.3380   28.0050   45.3760 C   0  0  0  0  0  0  0  0  0  0  0  0
   57.0620   28.3960   44.8420 N   0  0  0  0  0  0  0  0  0  0  0  0
   56.5220   29.7230   44.7590 C   0  0  0  0  0  0  0  0  0  0  0  0
   55.2790   29.8480   44.5990 O   0  0  0  0  0  0  0  0  0  0  0  0
   57.3560   30.9410   44.9240 C   0  0  0  0  0  0  0  0  0  0  0  0
   57.4180   31.8970   43.8950 C   0  0  0  0  0  0  0  0  0  0  0  0
   58.1690   33.0650   44.0540 C   0  0  0  0  0  0  0  0  0  0  0  0
   58.8690   33.3090   45.2480 C   0  0  0  0  0  0  0  0  0  0  0  0
   59.6380   34.5120   45.4190 N   0  0  0  0  0  0  0  0  0  0  0  0
   59.2900   35.5750   44.8620 O   0  0  0  0  0  0  0  0  0  0  0  0
   60.7700   34.5150   46.2010 O   0  0  0  0  0  0  0  0  0  0  0  0
   58.8010   32.3580   46.2790 C   0  0  0  0  0  0  0  0  0  0  0  0
   58.0520   31.1890   46.1180 C   0  0  0  0  0  0  0  0  0  0  0  0
   56.5510   24.4850   44.1390 C   0  0  0  0  0  0  0  0  0  0  0  0
   56.5380   23.2430   43.4990 C   0  0  0  0  0  0  0  0  0  0  0  0
   55.9194   19.7239   45.1867 H   0  0  0  0  0  0  0  0  0  0  0  0
   54.9360   19.1847   43.7836 H   0  0  0  0  0  0  0  0  0  0  0  0
   56.7146   18.9330   43.7836 H   0  0  0  0  0  0  0  0  0  0  0  0
   55.3480   21.3135   46.0583 H   0  0  0  0  0  0  0  0  0  0  0  0
   55.3528   23.5321   47.1974 H   0  0  0  0  0  0  0  0  0  0  0  0
   59.7073   25.7282   47.5460 H   0  0  0  0  0  0  0  0  0  0  0  0
   61.8066   26.7275   46.6510 H   0  0  0  0  0  0  0  0  0  0  0  0
   61.6980   28.5174   44.9160 H   0  0  0  0  0  0  0  0  0  0  0  0
   59.4930   29.2993   44.0638 H   0  0  0  0  0  0  0  0  0  0  0  0
   56.8707   31.7242   42.9566 H   0  0  0  0  0  0  0  0  0  0  0  0
   58.2126   33.8002   43.2369 H   0  0  0  0  0  0  0  0  0  0  0  0
   59.3414   32.5345   47.2207 H   0  0  0  0  0  0  0  0  0  0  0  0
   58.0073   30.4549   46.9360 H   0  0  0  0  0  0  0  0  0  0  0  0
   56.9120   25.3738   43.6008 H   0  0  0  0  0  0  0  0  0  0  0  0
   56.8776   23.1639   42.4557 H   0  0  0  0  0  0  0  0  0  0  0  0
  1  2  1  0
  2  3  1  0
  3  4  2  0
  4  5  1  0
  5  6  2  0
  6  7  1  0
  7  8  2  0
  7  9  1  0
  9 10  1  0
 10 11  2  0
 11 12  1  0
 12 13  2  0
 13 14  1  0
 14 15  2  0
 15 16  1  0
 16 17  1  0
 17 18  2  0
 17 19  1  0
 19 20  2  0
 20 21  1  0
 21 22  2  0
 22 23  1  0
 23 24  2  0
 23 25  1  0
 22 26  1  0
 26 27  2  0
  6 28  1  0
 28 29  2  0
 29  3  1  0
 15 10  1  0
 27 19  1  0
  1 30  1  0
  1 31  1  0
  1 32  1  0
  4 33  1  0
  5 34  1  0
 11 35  1  0
 12 36  1  0
 13 37  1  0
 14 38  1  0
 20 39  1  0
 21 40  1  0
 26 41  1  0
 27 42  1  0
 28 43  1  0
 29 44  1  0
M  CHG  4   9  -1  16  -1  23   1  25  -1
M  END
>  <UniqueID>  (65) 
60

>  <SMILES>  (65) 
COc1ccc(C(=O)[N-]c2ccccc2[N-]C(=O)c2ccc([N+](=O)[O-])cc2)cc1

>  <Energy>  (65) 
60.24209125359895

>  <Genealogy>  (65) 
COc1ccc(C(=O)[N-]c2ccccc2[N-]C(=O)c2ccc([N+](=O)[O-])cc2)cc1 (protonated)
COc1ccc(C(=O)[N-]c2ccccc2[N-]C(=O)c2ccc([N+](=O)[O-])cc2)cc1 (3D coordinates assigned)
COc1ccc(C(=O)[N-]c2ccccc2[N-]C(=O)c2ccc([N+](=O)[O-])cc2)cc1 (optimized conformer: 60.24209125359895 kcal/mol)

>  <smiles>  (65) 
COc1ccc(C(=O)Nc2ccccc2NC(=O)c2ccc([N+](=O)[O-])cc2)cc1

>  <score_type>  (65) 
oracle

>  <origin>  (65) 
adg

>  <m_score__min__energy>  (65) 
-12.09

>  <m_primary>  (65) 
energy

$$$$
66:0
     RDKit          3D

 55 58  0  0  0  0  0  0  0  0999 V2000
   54.5750   26.3420   45.9450 O   0  0  0  0  0  0  0  0  0  0  0  0
   55.4740   25.4620   45.9480 C   0  0  0  0  0  0  0  0  0  0  0  0
   55.1120   24.0990   45.7100 N   0  0  0  0  0  0  0  0  0  0  0  0
   55.8630   23.1940   44.8890 C   0  0  0  0  0  0  0  0  0  0  0  0
   55.7790   23.3310   43.4960 C   0  0  0  0  0  0  0  0  0  0  0  0
   56.5010   22.4770   42.6580 C   0  0  0  0  0  0  0  0  0  0  0  0
   57.3000   21.4700   43.2050 C   0  0  0  0  0  0  0  0  0  0  0  0
   57.3640   21.3030   44.5900 C   0  0  0  0  0  0  0  0  0  0  0  0
   56.6410   22.1520   45.4400 C   0  0  0  0  0  0  0  0  0  0  0  0
   56.6600   21.8170   47.1680 Cl  0  0  0  0  0  0  0  0  0  0  0  0
   56.8480   25.8150   46.1570 N   0  0  0  0  0  0  0  0  0  0  0  0
   57.4050   27.1330   46.1000 C   0  0  0  0  0  0  0  0  0  0  0  0
   56.7790   28.4590   45.2760 S   0  0  0  0  0  0  0  0  0  0  0  0
   58.0040   29.5400   45.7110 C   0  0  0  0  0  0  0  0  0  0  0  0
   58.0750   30.9680   45.3070 C   0  0  0  0  0  0  0  0  0  0  0  0
   57.6360   31.3800   44.0360 C   0  0  0  0  0  0  0  0  0  0  0  0
   57.7170   32.7220   43.6600 C   0  0  0  0  0  0  0  0  0  0  0  0
   58.2330   33.6710   44.5430 C   0  0  0  0  0  0  0  0  0  0  0  0
   58.6830   33.2860   45.8180 C   0  0  0  0  0  0  0  0  0  0  0  0
   59.2330   34.2930   46.7560 C   0  0  0  0  0  0  0  0  0  0  0  0
   59.3480   35.4970   46.3950 O   0  0  0  0  0  0  0  0  0  0  0  0
   59.6440   33.9020   48.0730 N   0  0  0  0  0  0  0  0  0  0  0  0
   60.9530   33.3320   48.3870 C   0  0  0  0  0  0  0  0  0  0  0  0
   62.0190   33.8700   47.3990 C   0  0  0  0  0  0  0  0  0  0  0  0
   63.2900   33.0060   47.2960 C   0  0  0  0  0  0  0  0  0  0  0  0
   64.3550   33.2270   48.4040 C   0  0  0  0  0  0  0  0  0  0  0  0
   63.8410   33.1660   49.8550 C   0  0  0  0  0  0  0  0  0  0  0  0
   62.6730   34.1230   50.1660 C   0  0  0  0  0  0  0  0  0  0  0  0
   61.2640   33.5740   49.8770 C   0  0  0  0  0  0  0  0  0  0  0  0
   58.6020   31.9300   46.1890 C   0  0  0  0  0  0  0  0  0  0  0  0
   58.9210   28.8550   46.5120 C   0  0  0  0  0  0  0  0  0  0  0  0
   58.5820   27.5120   46.7260 C   0  0  0  0  0  0  0  0  0  0  0  0
   59.5550   26.4250   47.6990 Cl  0  0  0  0  0  0  0  0  0  0  0  0
   55.1415   24.1147   43.0607 H   0  0  0  0  0  0  0  0  0  0  0  0
   56.4401   22.5978   41.5664 H   0  0  0  0  0  0  0  0  0  0  0  0
   57.8791   20.8082   42.5443 H   0  0  0  0  0  0  0  0  0  0  0  0
   57.9848   20.5012   45.0163 H   0  0  0  0  0  0  0  0  0  0  0  0
   57.2260   30.6397   43.3333 H   0  0  0  0  0  0  0  0  0  0  0  0
   57.3723   33.0327   42.6627 H   0  0  0  0  0  0  0  0  0  0  0  0
   58.2881   34.7269   44.2397 H   0  0  0  0  0  0  0  0  0  0  0  0
   60.9601   32.2409   48.2473 H   0  0  0  0  0  0  0  0  0  0  0  0
   61.5623   33.9294   46.4000 H   0  0  0  0  0  0  0  0  0  0  0  0
   62.3375   34.8492   47.7860 H   0  0  0  0  0  0  0  0  0  0  0  0
   62.9829   31.9503   47.3301 H   0  0  0  0  0  0  0  0  0  0  0  0
   63.7753   33.3035   46.3547 H   0  0  0  0  0  0  0  0  0  0  0  0
   65.1277   32.4528   48.2876 H   0  0  0  0  0  0  0  0  0  0  0  0
   64.7227   34.2540   48.2620 H   0  0  0  0  0  0  0  0  0  0  0  0
   63.5046   32.1382   50.0563 H   0  0  0  0  0  0  0  0  0  0  0  0
   64.6788   33.4806   50.4946 H   0  0  0  0  0  0  0  0  0  0  0  0
   62.7226   34.3806   51.2343 H   0  0  0  0  0  0  0  0  0  0  0  0
   62.8032   34.9831   49.4928 H   0  0  0  0  0  0  0  0  0  0  0  0
   61.1549   32.6170   50.4083 H   0  0  0  0  0  0  0  0  0  0  0  0
   60.5574   34.3452   50.2175 H   0  0  0  0  0  0  0  0  0  0  0  0
   58.9558   31.6180   47.1827 H   0  0  0  0  0  0  0  0  0  0  0  0
   59.8220   29.3243   46.9339 H   0  0  0  0  0  0  0  0  0  0  0  0
  1  2  2  0
  2  3  1  0
  3  4  1  0
  4  5  2  0
  5  6  1  0
  6  7  2  0
  7  8  1  0
  8  9  2  0
  9 10  1  0
  2 11  1  0
 11 12  1  0
 12 13  1  0
 13 14  1  0
 14 15  1  0
 15 16  2  0
 16 17  1  0
 17 18  2  0
 18 19  1  0
 19 20  1  0
 20 21  2  0
 20 22  1  0
 22 23  1  0
 23 24  1  0
 24 25  1  0
 25 26  1  0
 26 27  1  0
 27 28  1  0
 28 29  1  0
 19 30  2  0
 14 31  2  0
 31 32  1  0
 32 33  1  0
  9  4  1  0
 32 12  2  0
 30 15  1  0
 29 23  1  0
  5 34  1  0
  6 35  1  0
  7 36  1  0
  8 37  1  0
 16 38  1  0
 17 39  1  0
 18 40  1  0
 23 41  1  0
 24 42  1  0
 24 43  1  0
 25 44  1  0
 25 45  1  0
 26 46  1  0
 26 47  1  0
 27 48  1  0
 27 49  1  0
 28 50  1  0
 28 51  1  0
 29 52  1  0
 29 53  1  0
 30 54  1  0
 31 55  1  0
M  CHG  3   3  -1  11  -1  22  -1
M  END
>  <UniqueID>  (66) 
61

>  <SMILES>  (66) 
O=C([N-]c1ccccc1Cl)[N-]c1sc(-c2cccc(C(=O)[N-]C3CCCCCC3)c2)cc1Cl

>  <Energy>  (66) 
101.48401120496146

>  <Genealogy>  (66) 
O=C([N-]c1ccccc1Cl)[N-]c1sc(-c2cccc(C(=O)[N-]C3CCCCCC3)c2)cc1Cl (protonated)
O=C([N-]c1ccccc1Cl)[N-]c1sc(-c2cccc(C(=O)[N-]C3CCCCCC3)c2)cc1Cl (3D coordinates assigned)
O=C([N-]c1ccccc1Cl)[N-]c1sc(-c2cccc(C(=O)[N-]C3CCCCCC3)c2)cc1Cl (nonaromatic ring conformer: 101.48401120496146 kcal/mol)

>  <smiles>  (66) 
O=C(Nc1ccccc1Cl)Nc1sc(-c2cccc(C(=O)NC3CCCCCC3)c2)cc1Cl

>  <score_type>  (66) 
oracle

>  <origin>  (66) 
adg

>  <m_score__min__energy>  (66) 
-13.109999999999999

>  <m_primary>  (66) 
energy

$$$$
67:0
     RDKit          3D

 66 69  0  0  0  0  0  0  0  0999 V2000
   55.1710   29.7880   44.7170 O   0  0  0  0  0  0  0  0  0  0  0  0
   56.1380   28.9950   44.8830 C   0  0  0  0  0  0  0  0  0  0  0  0
   57.4620   29.2960   44.2580 C   0  0  0  0  0  0  0  0  0  0  0  0
   57.9860   30.6070   44.7760 C   0  0  0  0  0  0  0  0  0  0  0  0
   59.0370   30.6310   45.7090 C   0  0  0  0  0  0  0  0  0  0  0  0
   59.4940   31.8480   46.2240 C   0  0  0  0  0  0  0  0  0  0  0  0
   58.8950   33.0480   45.8260 C   0  0  0  0  0  0  0  0  0  0  0  0
   59.5230   34.7090   46.5280 Br  0  0  0  0  0  0  0  0  0  0  0  0
   57.8410   33.0300   44.9080 C   0  0  0  0  0  0  0  0  0  0  0  0
   57.3860   31.8150   44.3850 C   0  0  0  0  0  0  0  0  0  0  0  0
   55.9630   27.7760   45.6130 N   0  0  0  0  0  0  0  0  0  0  0  0
   56.7870   26.5880   45.4150 C   0  0  0  0  0  0  0  0  0  0  0  0
   58.1140   26.7510   46.1050 C   0  0  0  0  0  0  0  0  0  0  0  0
   59.2190   25.9810   45.7140 C   0  0  0  0  0  0  0  0  0  0  0  0
   60.4410   26.1200   46.3750 C   0  0  0  0  0  0  0  0  0  0  0  0
   60.5710   27.0260   47.4300 C   0  0  0  0  0  0  0  0  0  0  0  0
   59.4740   27.8050   47.8400 C   0  0  0  0  0  0  0  0  0  0  0  0
   59.6140   28.7810   48.9490 C   0  0  0  0  0  0  0  0  0  0  0  0
   60.3350   28.4470   50.1090 C   0  0  0  0  0  0  0  0  0  0  0  0
   60.4450   29.3590   51.1600 C   0  0  0  0  0  0  0  0  0  0  0  0
   59.8330   30.6100   51.0720 C   0  0  0  0  0  0  0  0  0  0  0  0
   59.1120   30.9650   49.9210 C   0  0  0  0  0  0  0  0  0  0  0  0
   58.4320   32.3110   49.8240 C   0  0  0  0  0  0  0  0  0  0  0  0
   59.3930   33.4030   49.5710 N   0  0  0  0  0  0  0  0  0  0  0  0
   60.1670   33.7980   50.7690 C   0  0  0  0  0  0  0  0  0  0  0  0
   61.6880   33.6480   50.5730 C   0  0  0  0  0  0  0  0  0  0  0  0
   62.0180   33.3130   49.1730 N   0  0  0  0  0  0  0  0  0  0  0  0
   63.1600   34.1010   48.6780 C   0  0  0  0  0  0  0  0  0  0  0  0
   63.3860   33.7990   47.1820 C   0  0  0  0  0  0  0  0  0  0  0  0
   62.6650   32.6600   46.7420 O   0  0  0  0  0  0  0  0  0  0  0  0
   62.8900   31.5770   47.6230 C   0  0  0  0  0  0  0  0  0  0  0  0
   62.2980   31.8730   49.0170 C   0  0  0  0  0  0  0  0  0  0  0  0
   59.0120   30.0490   48.8620 C   0  0  0  0  0  0  0  0  0  0  0  0
   58.2430   27.6500   47.1740 C   0  0  0  0  0  0  0  0  0  0  0  0
   58.1735   28.4948   44.5069 H   0  0  0  0  0  0  0  0  0  0  0  0
   57.3412   29.3600   43.1665 H   0  0  0  0  0  0  0  0  0  0  0  0
   59.5017   29.6889   46.0352 H   0  0  0  0  0  0  0  0  0  0  0  0
   60.3260   31.8619   46.9434 H   0  0  0  0  0  0  0  0  0  0  0  0
   57.3684   33.9731   44.5963 H   0  0  0  0  0  0  0  0  0  0  0  0
   56.5548   31.8058   43.6645 H   0  0  0  0  0  0  0  0  0  0  0  0
   56.2670   25.7125   45.8310 H   0  0  0  0  0  0  0  0  0  0  0  0
   56.9591   26.4479   44.3376 H   0  0  0  0  0  0  0  0  0  0  0  0
   59.1227   25.2654   44.8841 H   0  0  0  0  0  0  0  0  0  0  0  0
   61.3045   25.5138   46.0637 H   0  0  0  0  0  0  0  0  0  0  0  0
   61.5380   27.1310   47.9438 H   0  0  0  0  0  0  0  0  0  0  0  0
   60.8155   27.4607   50.1888 H   0  0  0  0  0  0  0  0  0  0  0  0
   61.0162   29.0906   52.0609 H   0  0  0  0  0  0  0  0  0  0  0  0
   59.9158   31.3206   51.9076 H   0  0  0  0  0  0  0  0  0  0  0  0
   57.7038   32.2817   49.0001 H   0  0  0  0  0  0  0  0  0  0  0  0
   57.9386   32.5109   50.7866 H   0  0  0  0  0  0  0  0  0  0  0  0
   58.8690   34.2270   49.1930 H   0  0  0  0  0  0  0  0  0  0  0  0
   60.0600   33.1050   48.8200 H   0  0  0  0  0  0  0  0  0  0  0  0
   59.9444   34.8502   51.0001 H   0  0  0  0  0  0  0  0  0  0  0  0
   59.8711   33.1286   51.5902 H   0  0  0  0  0  0  0  0  0  0  0  0
   62.1789   34.5955   50.8400 H   0  0  0  0  0  0  0  0  0  0  0  0
   62.0424   32.8308   51.2184 H   0  0  0  0  0  0  0  0  0  0  0  0
   62.9491   35.1728   48.8075 H   0  0  0  0  0  0  0  0  0  0  0  0
   64.0631   33.8328   49.2458 H   0  0  0  0  0  0  0  0  0  0  0  0
   63.0622   34.6702   46.5936 H   0  0  0  0  0  0  0  0  0  0  0  0
   64.4570   33.5909   47.0416 H   0  0  0  0  0  0  0  0  0  0  0  0
   62.4140   30.6739   47.2133 H   0  0  0  0  0  0  0  0  0  0  0  0
   63.9746   31.4250   47.7254 H   0  0  0  0  0  0  0  0  0  0  0  0
   61.3617   31.3085   49.1383 H   0  0  0  0  0  0  0  0  0  0  0  0
   63.0292   31.5714   49.7815 H   0  0  0  0  0  0  0  0  0  0  0  0
   58.4565   30.3261   47.9539 H   0  0  0  0  0  0  0  0  0  0  0  0
   57.3726   28.2407   47.4957 H   0  0  0  0  0  0  0  0  0  0  0  0
  1  2  2  0
  2  3  1  0
  3  4  1  0
  4  5  2  0
  5  6  1  0
  6  7  2  0
  7  8  1  0
  7  9  1  0
  9 10  2  0
  2 11  1  0
 11 12  1  0
 12 13  1  0
 13 14  2  0
 14 15  1  0
 15 16  2  0
 16 17  1  0
 17 18  1  0
 18 19  2  0
 19 20  1  0
 20 21  2  0
 21 22  1  0
 22 23  1  0
 23 24  1  0
 24 25  1  0
 25 26  1  0
 26 27  1  0
 27 28  1  0
 28 29  1  0
 29 30  1  0
 30 31  1  0
 31 32  1  0
 22 33  2  0
 17 34  2  0
 10  4  1  0
 34 13  1  0
 33 18  1  0
 32 27  1  0
  3 35  1  0
  3 36  1  0
  5 37  1  0
  6 38  1  0
  9 39  1  0
 10 40  1  0
 12 41  1  0
 12 42  1  0
 14 43  1  0
 15 44  1  0
 16 45  1  0
 19 46  1  0
 20 47  1  0
 21 48  1  0
 23 49  1  0
 23 50  1  0
 24 51  1  0
 24 52  1  0
 25 53  1  0
 25 54  1  0
 26 55  1  0
 26 56  1  0
 28 57  1  0
 28 58  1  0
 29 59  1  0
 29 60  1  0
 31 61  1  0
 31 62  1  0
 32 63  1  0
 32 64  1  0
 33 65  1  0
 34 66  1  0
M  CHG  2  11  -1  24   1
M  END
>  <UniqueID>  (67) 
62

>  <SMILES>  (67) 
O=C(Cc1ccc(Br)cc1)[N-]Cc1cccc(-c2cccc(C[NH2+]CCN3CCOCC3)c2)c1

>  <Energy>  (67) 
79.41314912127208

>  <Genealogy>  (67) 
O=C(Cc1ccc(Br)cc1)[N-]Cc1cccc(-c2cccc(C[NH2+]CCN3CCOCC3)c2)c1 (protonated)
O=C(Cc1ccc(Br)cc1)[N-]Cc1cccc(-c2cccc(C[NH2+]CCN3CCOCC3)c2)c1 (3D coordinates assigned)
O=C(Cc1ccc(Br)cc1)[N-]Cc1cccc(-c2cccc(C[NH2+]CCN3CCOCC3)c2)c1 (nonaromatic ring conformer: 79.41314912127208 kcal/mol)

>  <smiles>  (67) 
O=C(Cc1ccc(Br)cc1)NCc1cccc(-c2cccc(CNCCN3CCOCC3)c2)c1

>  <score_type>  (67) 
oracle

>  <origin>  (67) 
adg

>  <m_score__min__energy>  (67) 
-11.470000000000001

>  <m_primary>  (67) 
energy

$$$$
68:0
     RDKit          3D

 33 34  0  0  0  0  0  0  0  0999 V2000
   55.5290   28.8270   45.1180 N   0  0  0  0  0  0  0  0  0  0  0  0
   56.8100   29.8410   44.5530 S   0  0  0  0  0  0  0  0  0  0  0  0
   57.1820   29.4510   43.1510 O   0  0  0  0  0  0  0  0  0  0  0  0
   56.3420   31.2690   44.5670 O   0  0  0  0  0  0  0  0  0  0  0  0
   58.2110   29.6580   45.6040 C   0  0  0  0  0  0  0  0  0  0  0  0
   58.4150   28.4690   46.3180 C   0  0  0  0  0  0  0  0  0  0  0  0
   59.5280   28.3340   47.1520 C   0  0  0  0  0  0  0  0  0  0  0  0
   60.4430   29.3830   47.2750 C   0  0  0  0  0  0  0  0  0  0  0  0
   60.2530   30.5720   46.5540 C   0  0  0  0  0  0  0  0  0  0  0  0
   61.1650   31.6690   46.6860 N   0  0  0  0  0  0  0  0  0  0  0  0
   61.8670   32.0260   47.8840 C   0  0  0  0  0  0  0  0  0  0  0  0
   63.1240   31.9630   47.8900 O   0  0  0  0  0  0  0  0  0  0  0  0
   61.1470   32.3770   49.1560 C   0  0  0  0  0  0  0  0  0  0  0  0
   60.6710   34.1420   49.1800 S   0  0  0  0  0  0  0  0  0  0  0  0
   59.5690   34.0240   47.7610 C   0  0  0  0  0  0  0  0  0  0  0  0
   59.9140   34.6690   46.5700 C   0  0  0  0  0  0  0  0  0  0  0  0
   59.0560   34.5890   45.4720 C   0  0  0  0  0  0  0  0  0  0  0  0
   57.8690   33.8650   45.5730 C   0  0  0  0  0  0  0  0  0  0  0  0
   57.5590   33.2230   46.7740 C   0  0  0  0  0  0  0  0  0  0  0  0
   58.4090   33.3040   47.8370 N   0  0  0  0  0  0  0  0  0  0  0  0
   58.0860   32.6360   48.9960 O   0  0  0  0  0  0  0  0  0  0  0  0
   59.1230   30.7140   45.7400 C   0  0  0  0  0  0  0  0  0  0  0  0
   54.6360   29.3460   44.9580 H   0  0  0  0  0  0  0  0  0  0  0  0
   57.6976   27.6407   46.2216 H   0  0  0  0  0  0  0  0  0  0  0  0
   59.6841   27.4005   47.7126 H   0  0  0  0  0  0  0  0  0  0  0  0
   61.3140   29.2766   47.9383 H   0  0  0  0  0  0  0  0  0  0  0  0
   60.2402   31.7596   49.2373 H   0  0  0  0  0  0  0  0  0  0  0  0
   61.8227   32.1866   50.0029 H   0  0  0  0  0  0  0  0  0  0  0  0
   60.8544   35.2352   46.4986 H   0  0  0  0  0  0  0  0  0  0  0  0
   59.3155   35.0953   44.5306 H   0  0  0  0  0  0  0  0  0  0  0  0
   57.1833   33.8000   44.7153 H   0  0  0  0  0  0  0  0  0  0  0  0
   56.6247   32.6493   46.8627 H   0  0  0  0  0  0  0  0  0  0  0  0
   58.9498   31.6590   45.2043 H   0  0  0  0  0  0  0  0  0  0  0  0
  1  2  1  0
  2  3  2  0
  2  4  2  0
  2  5  1  0
  5  6  2  0
  6  7  1  0
  7  8  2  0
  8  9  1  0
  9 10  1  0
 10 11  1  0
 11 12  2  0
 11 13  1  0
 13 14  1  0
 14 15  1  0
 15 16  2  0
 16 17  1  0
 17 18  2  0
 18 19  1  0
 19 20  2  0
 20 21  1  0
  9 22  2  0
 22  5  1  0
 20 15  1  0
  1 23  1  0
  6 24  1  0
  7 25  1  0
  8 26  1  0
 13 27  1  0
 13 28  1  0
 16 29  1  0
 17 30  1  0
 18 31  1  0
 19 32  1  0
 22 33  1  0
M  CHG  4   1  -1  10  -1  20   1  21  -1
M  END
>  <UniqueID>  (68) 
63

>  <SMILES>  (68) 
[NH-]S(=O)(=O)c1cccc([N-]C(=O)CSc2cccc[n+]2[O-])c1

>  <Energy>  (68) 
34.85430248285586

>  <Genealogy>  (68) 
[NH-]S(=O)(=O)c1cccc([N-]C(=O)CSc2cccc[n+]2[O-])c1 (protonated)
[NH-]S(=O)(=O)c1cccc([N-]C(=O)CSc2cccc[n+]2[O-])c1 (3D coordinates assigned)
[NH-]S(=O)(=O)c1cccc([N-]C(=O)CSc2cccc[n+]2[O-])c1 (optimized conformer: 34.85430248285586 kcal/mol)

>  <smiles>  (68) 
NS(=O)(=O)c1cccc(NC(=O)CSc2cccc[n+]2[O-])c1

>  <score_type>  (68) 
oracle

>  <origin>  (68) 
adg

>  <m_score__min__energy>  (68) 
-11.800000000000001

>  <m_primary>  (68) 
energy

$$$$
69:0
     RDKit          3D

 60 62  0  0  0  0  0  0  0  0999 V2000
   57.4754   21.7439   42.0687 H   0  0  0  0  0  0  0  0  0  0  0  0
   56.9980   22.0600   43.0080 C   0  0  0  0  0  0  0  0  0  0  0  0
   57.4570   21.5570   44.2320 C   0  0  0  0  0  0  0  0  0  0  0  0
   58.2945   20.8441   44.2520 H   0  0  0  0  0  0  0  0  0  0  0  0
   56.8540   21.9580   45.4300 C   0  0  0  0  0  0  0  0  0  0  0  0
   57.2194   21.5613   46.3887 H   0  0  0  0  0  0  0  0  0  0  0  0
   55.7810   22.8680   45.4090 C   0  0  0  0  0  0  0  0  0  0  0  0
   55.1430   23.3270   46.6920 C   0  0  0  0  0  0  0  0  0  0  0  0
   55.2660   22.5474   47.4582 H   0  0  0  0  0  0  0  0  0  0  0  0
   54.0736   23.5136   46.5144 H   0  0  0  0  0  0  0  0  0  0  0  0
   55.7710   24.5600   47.1540 N   0  0  0  0  0  0  0  0  0  0  0  0
   55.8850   25.7500   46.3570 C   0  0  0  0  0  0  0  0  0  0  0  0
   54.8410   26.3360   45.9560 O   0  0  0  0  0  0  0  0  0  0  0  0
   57.2200   26.3140   46.0220 C   0  0  0  0  0  0  0  0  0  0  0  0
   57.3970   26.9910   44.8130 C   0  0  0  0  0  0  0  0  0  0  0  0
   56.5520   27.0913   44.1160 H   0  0  0  0  0  0  0  0  0  0  0  0
   58.5990   27.5250   44.4910 N   0  0  0  0  0  0  0  0  0  0  0  0
   58.6720   28.0130   43.5720 H   0  0  0  0  0  0  0  0  0  0  0  0
   59.6700   27.4250   45.3330 C   0  0  0  0  0  0  0  0  0  0  0  0
   60.8260   27.9360   45.0040 N   0  0  0  0  0  0  0  0  0  0  0  0
   61.2760   29.3040   45.2510 C   0  0  0  0  0  0  0  0  0  0  0  0
   60.9301   29.9544   44.4341 H   0  0  0  0  0  0  0  0  0  0  0  0
   62.3748   29.3194   45.3002 H   0  0  0  0  0  0  0  0  0  0  0  0
   60.7060   29.8110   46.5790 C   0  0  0  0  0  0  0  0  0  0  0  0
   61.5046   30.3156   47.1427 H   0  0  0  0  0  0  0  0  0  0  0  0
   60.3176   28.9497   47.1422 H   0  0  0  0  0  0  0  0  0  0  0  0
   59.5750   30.7820   46.3530 C   0  0  0  0  0  0  0  0  0  0  0  0
   59.6710   32.0940   46.8260 C   0  0  0  0  0  0  0  0  0  0  0  0
   60.5531   32.3999   47.4076 H   0  0  0  0  0  0  0  0  0  0  0  0
   58.6520   33.0260   46.5660 C   0  0  0  0  0  0  0  0  0  0  0  0
   58.7210   34.3490   47.0390 O   0  0  0  0  0  0  0  0  0  0  0  0
   59.6450   35.3290   46.5720 C   0  0  0  0  0  0  0  0  0  0  0  0
   60.1157   35.8282   47.4317 H   0  0  0  0  0  0  0  0  0  0  0  0
   60.4196   34.8413   45.9619 H   0  0  0  0  0  0  0  0  0  0  0  0
   59.1126   36.0736   45.9619 H   0  0  0  0  0  0  0  0  0  0  0  0
   57.5230   32.6410   45.8260 C   0  0  0  0  0  0  0  0  0  0  0  0
   56.5370   33.6200   45.6070 O   0  0  0  0  0  0  0  0  0  0  0  0
   56.7060   34.8070   44.8190 C   0  0  0  0  0  0  0  0  0  0  0  0
   56.8295   35.6743   45.4843 H   0  0  0  0  0  0  0  0  0  0  0  0
   57.5982   34.7018   44.1843 H   0  0  0  0  0  0  0  0  0  0  0  0
   55.8199   34.9550   44.1843 H   0  0  0  0  0  0  0  0  0  0  0  0
   57.4250   31.3170   45.3280 C   0  0  0  0  0  0  0  0  0  0  0  0
   56.3140   30.9440   44.5520 O   0  0  0  0  0  0  0  0  0  0  0  0
   56.3700   30.0970   43.4090 C   0  0  0  0  0  0  0  0  0  0  0  0
   56.4393   29.0481   43.7330 H   0  0  0  0  0  0  0  0  0  0  0  0
   55.4608   30.2350   42.8055 H   0  0  0  0  0  0  0  0  0  0  0  0
   57.2531   30.3535   42.8055 H   0  0  0  0  0  0  0  0  0  0  0  0
   58.4600   30.4020   45.6000 C   0  0  0  0  0  0  0  0  0  0  0  0
   58.3904   29.3740   45.2147 H   0  0  0  0  0  0  0  0  0  0  0  0
   59.5330   26.7770   46.5380 N   0  0  0  0  0  0  0  0  0  0  0  0
   60.7060   26.6100   47.4210 C   0  0  0  0  0  0  0  0  0  0  0  0
   60.3835   26.6559   48.4717 H   0  0  0  0  0  0  0  0  0  0  0  0
   61.1772   25.6357   47.2243 H   0  0  0  0  0  0  0  0  0  0  0  0
   61.4304   27.4141   47.2243 H   0  0  0  0  0  0  0  0  0  0  0  0
   58.3320   26.1980   46.8760 C   0  0  0  0  0  0  0  0  0  0  0  0
   58.2270   25.5470   47.9540 O   0  0  0  0  0  0  0  0  0  0  0  0
   55.3290   23.3710   44.1750 C   0  0  0  0  0  0  0  0  0  0  0  0
   54.4958   24.0887   44.1481 H   0  0  0  0  0  0  0  0  0  0  0  0
   55.9350   22.9620   42.9820 C   0  0  0  0  0  0  0  0  0  0  0  0
   55.5716   23.3534   42.0203 H   0  0  0  0  0  0  0  0  0  0  0  0
  1  2  1  0
  2  3  2  0
  3  4  1  0
  3  5  1  0
  5  6  1  0
  5  7  2  0
  7  8  1  0
  8  9  1  0
  8 10  1  0
  8 11  1  0
 11 12  1  0
 12 13  2  0
 12 14  1  0
 14 15  2  0
 15 16  1  0
 15 17  1  0
 17 18  1  0
 17 19  1  0
 19 20  2  0
 20 21  1  0
 21 22  1  0
 21 23  1  0
 21 24  1  0
 24 25  1  0
 24 26  1  0
 24 27  1  0
 27 28  2  0
 28 29  1  0
 28 30  1  0
 30 31  1  0
 31 32  1  0
 32 33  1  0
 32 34  1  0
 32 35  1  0
 30 36  2  0
 36 37  1  0
 37 38  1  0
 38 39  1  0
 38 40  1  0
 38 41  1  0
 36 42  1  0
 42 43  1  0
 43 44  1  0
 44 45  1  0
 44 46  1  0
 44 47  1  0
 42 48  2  0
 48 49  1  0
 19 50  1  0
 50 51  1  0
 51 52  1  0
 51 53  1  0
 51 54  1  0
 50 55  1  0
 55 56  2  0
  7 57  1  0
 57 58  1  0
 57 59  2  0
 59 60  1  0
 59  2  1  0
 55 14  1  0
 48 27  1  0
M  CHG  1  11  -1
M  END
>  <UniqueID>  (69) 
64

>  <SMILES>  (69) 
COc1cc(CC/N=c2\[nH]cc(C(=O)[N-]Cc3ccccc3)c(=O)n2C)cc(OC)c1OC

>  <Energy>  (69) 
66.56586080077456

>  <Genealogy>  (69) 
COc1cc(CCN=c2[nH]cc(C(=O)[N-]Cc3ccccc3)c(=O)n2C)cc(OC)c1OC (protonated)
COc1cc(CC/N=c2\[nH]cc(C(=O)[N-]Cc3ccccc3)c(=O)n2C)cc(OC)c1OC (cis-trans isomerization)
COc1cc(CC/N=c2\[nH]cc(C(=O)[N-]Cc3ccccc3)c(=O)n2C)cc(OC)c1OC (3D coordinates assigned)
COc1cc(CC/N=c2\[nH]cc(C(=O)[N-]Cc3ccccc3)c(=O)n2C)cc(OC)c1OC (optimized conformer: 66.56586080077456 kcal/mol)

>  <smiles>  (69) 
COc1cc(CCN=c2[nH]cc(C(=O)NCc3ccccc3)c(=O)n2C)cc(OC)c1OC

>  <score_type>  (69) 
oracle

>  <origin>  (69) 
adg

>  <m_score__min__energy>  (69) 
-9.1799999999999997

>  <m_primary>  (69) 
energy

$$$$
70:0
     RDKit          3D

 35 37  0  0  0  0  0  0  0  0999 V2000
   60.5688   32.3219   47.0253 H   0  0  0  0  0  0  0  0  0  0  0  0
   59.6650   32.6260   46.4770 C   0  0  0  0  0  0  0  0  0  0  0  0
   58.7410   31.7300   46.0400 N   0  0  0  0  0  0  0  0  0  0  0  0
   57.7170   32.3440   45.4060 C   0  0  0  0  0  0  0  0  0  0  0  0
   56.7180   31.7240   44.8540 N   0  0  0  0  0  0  0  0  0  0  0  0
   56.5710   30.3010   44.7370 C   0  0  0  0  0  0  0  0  0  0  0  0
   55.4140   29.8290   44.5740 O   0  0  0  0  0  0  0  0  0  0  0  0
   57.7080   29.4240   44.8410 N   0  0  0  0  0  0  0  0  0  0  0  0
   58.6530   29.8390   44.9910 H   0  0  0  0  0  0  0  0  0  0  0  0
   57.6410   27.9970   44.6770 C   0  0  0  0  0  0  0  0  0  0  0  0
   57.8670   27.3900   43.4310 C   0  0  0  0  0  0  0  0  0  0  0  0
   58.1202   28.0102   42.5585 H   0  0  0  0  0  0  0  0  0  0  0  0
   57.7720   26.0010   43.2930 C   0  0  0  0  0  0  0  0  0  0  0  0
   57.9618   25.5377   42.3136 H   0  0  0  0  0  0  0  0  0  0  0  0
   57.4360   25.1890   44.3940 C   0  0  0  0  0  0  0  0  0  0  0  0
   57.3370   23.7550   44.2510 N   0  0  0  0  0  0  0  0  0  0  0  0
   56.6480   23.0820   43.1510 C   0  0  0  0  0  0  0  0  0  0  0  0
   55.6166   23.4572   43.0769 H   0  0  0  0  0  0  0  0  0  0  0  0
   57.1729   23.2818   42.2052 H   0  0  0  0  0  0  0  0  0  0  0  0
   56.6280   21.5620   43.4270 C   0  0  0  0  0  0  0  0  0  0  0  0
   55.6935   21.2977   43.9436 H   0  0  0  0  0  0  0  0  0  0  0  0
   56.6918   21.0204   42.4717 H   0  0  0  0  0  0  0  0  0  0  0  0
   57.8210   21.1740   44.3060 C   0  0  0  0  0  0  0  0  0  0  0  0
   57.5564   20.3413   44.9743 H   0  0  0  0  0  0  0  0  0  0  0  0
   58.6831   20.8346   43.7130 H   0  0  0  0  0  0  0  0  0  0  0  0
   58.1790   22.6240   45.2330 S   0  0  0  0  0  0  0  0  0  0  0  0
   59.6540   22.9100   45.2670 O   0  0  0  0  0  0  0  0  0  0  0  0
   57.5950   22.5560   46.6160 O   0  0  0  0  0  0  0  0  0  0  0  0
   57.1820   25.8110   45.6320 C   0  0  0  0  0  0  0  0  0  0  0  0
   56.9065   25.1974   46.5024 H   0  0  0  0  0  0  0  0  0  0  0  0
   57.2760   27.1980   45.7670 C   0  0  0  0  0  0  0  0  0  0  0  0
   57.0613   27.6668   46.7387 H   0  0  0  0  0  0  0  0  0  0  0  0
   57.9250   34.0070   45.3400 S   0  0  0  0  0  0  0  0  0  0  0  0
   59.3840   33.9560   46.1800 C   0  0  0  0  0  0  0  0  0  0  0  0
   60.0062   34.8229   46.4472 H   0  0  0  0  0  0  0  0  0  0  0  0
  1  2  1  0
  2  3  1  0
  3  4  1  0
  4  5  2  0
  5  6  1  0
  6  7  2  0
  6  8  1  0
  8  9  1  0
  8 10  1  0
 10 11  2  0
 11 12  1  0
 11 13  1  0
 13 14  1  0
 13 15  2  0
 15 16  1  0
 16 17  1  0
 17 18  1  0
 17 19  1  0
 17 20  1  0
 20 21  1  0
 20 22  1  0
 20 23  1  0
 23 24  1  0
 23 25  1  0
 23 26  1  0
 26 27  2  0
 26 28  2  0
 15 29  1  0
 29 30  1  0
 29 31  2  0
 31 32  1  0
  4 33  1  0
 33 34  1  0
 34 35  1  0
 34  2  2  0
 31 10  1  0
 26 16  1  0
M  CHG  1   3  -1
M  END
>  <UniqueID>  (70) 
65

>  <SMILES>  (70) 
O=C(/N=c1\[n-]ccs1)Nc1ccc(N2CCCS2(=O)=O)cc1

>  <Energy>  (70) 
81.94488081389262

>  <Genealogy>  (70) 
O=C(N=c1[n-]ccs1)Nc1ccc(N2CCCS2(=O)=O)cc1 (protonated)
O=C(/N=c1\[n-]ccs1)Nc1ccc(N2CCCS2(=O)=O)cc1 (cis-trans isomerization)
O=C(/N=c1\[n-]ccs1)Nc1ccc(N2CCCS2(=O)=O)cc1 (3D coordinates assigned)
O=C(/N=c1\[n-]ccs1)Nc1ccc(N2CCCS2(=O)=O)cc1 (nonaromatic ring conformer: 81.94488081389262 kcal/mol)

>  <smiles>  (70) 
O=C(N=c1[nH]ccs1)Nc1ccc(N2CCCS2(=O)=O)cc1

>  <score_type>  (70) 
oracle

>  <origin>  (70) 
adg

>  <m_score__min__energy>  (70) 
-8.8800000000000008

>  <m_primary>  (70) 
energy

$$$$
71:0
     RDKit          3D

 27 28  0  0  0  0  0  0  0  0999 V2000
   56.8730   20.0470   43.3890 H   0  0  0  0  0  0  0  0  0  0  0  0
   56.2520   20.8480   43.3540 O   0  0  0  0  0  0  0  0  0  0  0  0
   56.6470   22.0970   43.8260 C   0  0  0  0  0  0  0  0  0  0  0  0
   57.1640   22.2150   45.1190 C   0  0  0  0  0  0  0  0  0  0  0  0
   57.2558   21.3229   45.7560 H   0  0  0  0  0  0  0  0  0  0  0  0
   57.5650   23.4630   45.6060 C   0  0  0  0  0  0  0  0  0  0  0  0
   57.9615   23.5473   46.6286 H   0  0  0  0  0  0  0  0  0  0  0  0
   57.4660   24.6100   44.8010 C   0  0  0  0  0  0  0  0  0  0  0  0
   57.8960   25.9130   45.3680 C   0  0  0  0  0  0  0  0  0  0  0  0
   58.9439   26.0208   45.6847 H   0  0  0  0  0  0  0  0  0  0  0  0
   57.0780   26.9670   45.5160 C   0  0  0  0  0  0  0  0  0  0  0  0
   56.0606   26.7901   45.8951 H   0  0  0  0  0  0  0  0  0  0  0  0
   57.4790   28.3610   45.1930 C   0  0  0  0  0  0  0  0  0  0  0  0
   58.8340   28.7540   45.1600 C   0  0  0  0  0  0  0  0  0  0  0  0
   59.6214   28.0213   45.3906 H   0  0  0  0  0  0  0  0  0  0  0  0
   59.1820   30.0690   44.8360 C   0  0  0  0  0  0  0  0  0  0  0  0
   60.2405   30.3677   44.8201 H   0  0  0  0  0  0  0  0  0  0  0  0
   58.1920   31.0030   44.5330 C   0  0  0  0  0  0  0  0  0  0  0  0
   58.4695   32.0378   44.2839 H   0  0  0  0  0  0  0  0  0  0  0  0
   56.8480   30.6240   44.5460 C   0  0  0  0  0  0  0  0  0  0  0  0
   56.0688   31.3609   44.3014 H   0  0  0  0  0  0  0  0  0  0  0  0
   56.4880   29.3100   44.8690 C   0  0  0  0  0  0  0  0  0  0  0  0
   55.1420   28.9630   44.8780 O   0  0  0  0  0  0  0  0  0  0  0  0
   56.9290   24.4860   43.5030 C   0  0  0  0  0  0  0  0  0  0  0  0
   56.8249   25.3773   42.8668 H   0  0  0  0  0  0  0  0  0  0  0  0
   56.5280   23.2360   43.0200 C   0  0  0  0  0  0  0  0  0  0  0  0
   56.1176   23.1473   42.0033 H   0  0  0  0  0  0  0  0  0  0  0  0
  1  2  1  0
  2  3  1  0
  3  4  2  0
  4  5  1  0
  4  6  1  0
  6  7  1  0
  6  8  2  0
  8  9  1  0
  9 10  1  0
  9 11  2  0
 11 12  1  0
 11 13  1  0
 13 14  2  0
 14 15  1  0
 14 16  1  0
 16 17  1  0
 16 18  2  0
 18 19  1  0
 18 20  1  0
 20 21  1  0
 20 22  2  0
 22 23  1  0
  8 24  1  0
 24 25  1  0
 24 26  2  0
 26 27  1  0
 26  3  1  0
 22 13  1  0
M  CHG  1  23  -1
M  END
>  <UniqueID>  (71) 
66

>  <SMILES>  (71) 
[O-]c1ccccc1/C=C/c1ccc(O)cc1

>  <Energy>  (71) 
33.49118557417746

>  <Genealogy>  (71) 
[O-]c1ccccc1C=Cc1ccc(O)cc1 (protonated)
[O-]c1ccccc1/C=C/c1ccc(O)cc1 (cis-trans isomerization)
[O-]c1ccccc1/C=C/c1ccc(O)cc1 (3D coordinates assigned)
[O-]c1ccccc1/C=C/c1ccc(O)cc1 (optimized conformer: 33.49118557417746 kcal/mol)

>  <smiles>  (71) 
Oc1ccc(C=Cc2ccccc2O)cc1

>  <score_type>  (71) 
oracle

>  <origin>  (71) 
adg

>  <m_score__min__energy>  (71) 
-10.18

>  <m_primary>  (71) 
energy

$$$$
72:0
     RDKit          3D

 33 34  0  0  0  0  0  0  0  0999 V2000
   55.5080   29.0730   45.1350 O   0  0  0  0  0  0  0  0  0  0  0  0
   56.7630   28.9810   45.2060 C   0  0  0  0  0  0  0  0  0  0  0  0
   57.6040   30.1750   44.8340 C   0  0  0  0  0  0  0  0  0  0  0  0
   57.0270   30.9120   43.6170 C   0  0  0  0  0  0  0  0  0  0  0  0
   57.4830   32.3040   43.5560 N   0  0  0  0  0  0  0  0  0  0  0  0
   57.9580   33.0570   44.6890 C   0  0  0  0  0  0  0  0  0  0  0  0
   57.3310   32.9820   45.9470 C   0  0  0  0  0  0  0  0  0  0  0  0
   57.8430   33.6980   47.0330 C   0  0  0  0  0  0  0  0  0  0  0  0
   58.9750   34.5000   46.8750 C   0  0  0  0  0  0  0  0  0  0  0  0
   59.5940   34.5940   45.6260 C   0  0  0  0  0  0  0  0  0  0  0  0
   59.0850   33.8820   44.5370 C   0  0  0  0  0  0  0  0  0  0  0  0
   57.3740   27.6690   45.5140 C   0  0  0  0  0  0  0  0  0  0  0  0
   58.7680   27.5260   45.3940 C   0  0  0  0  0  0  0  0  0  0  0  0
   59.3890   26.3220   45.7350 C   0  0  0  0  0  0  0  0  0  0  0  0
   58.6280   25.2460   46.1890 C   0  0  0  0  0  0  0  0  0  0  0  0
   57.2400   25.3650   46.2890 C   0  0  0  0  0  0  0  0  0  0  0  0
   56.6040   26.5660   45.9410 C   0  0  0  0  0  0  0  0  0  0  0  0
   55.2130   26.6500   45.9990 O   0  0  0  0  0  0  0  0  0  0  0  0
   57.6390   30.8676   45.6879 H   0  0  0  0  0  0  0  0  0  0  0  0
   58.6128   29.8200   44.5763 H   0  0  0  0  0  0  0  0  0  0  0  0
   57.3467   30.3923   42.7017 H   0  0  0  0  0  0  0  0  0  0  0  0
   55.9308   30.9153   43.7079 H   0  0  0  0  0  0  0  0  0  0  0  0
   57.5440   32.7420   42.6090 H   0  0  0  0  0  0  0  0  0  0  0  0
   56.4347   32.3576   46.0760 H   0  0  0  0  0  0  0  0  0  0  0  0
   57.3525   33.6294   48.0152 H   0  0  0  0  0  0  0  0  0  0  0  0
   59.3790   35.0573   47.7330 H   0  0  0  0  0  0  0  0  0  0  0  0
   60.4831   35.2293   45.4999 H   0  0  0  0  0  0  0  0  0  0  0  0
   59.5701   33.9680   43.5535 H   0  0  0  0  0  0  0  0  0  0  0  0
   59.3738   28.3685   45.0289 H   0  0  0  0  0  0  0  0  0  0  0  0
   60.4808   26.2229   45.6451 H   0  0  0  0  0  0  0  0  0  0  0  0
   59.1207   24.3031   46.4685 H   0  0  0  0  0  0  0  0  0  0  0  0
   56.6421   24.5121   46.6427 H   0  0  0  0  0  0  0  0  0  0  0  0
   54.7450   27.4740   46.3610 H   0  0  0  0  0  0  0  0  0  0  0  0
  1  2  2  0
  2  3  1  0
  3  4  1  0
  4  5  1  0
  5  6  1  0
  6  7  2  0
  7  8  1  0
  8  9  2  0
  9 10  1  0
 10 11  2  0
  2 12  1  0
 12 13  2  0
 13 14  1  0
 14 15  2  0
 15 16  1  0
 16 17  2  0
 17 18  1  0
 11  6  1  0
 17 12  1  0
  3 19  1  0
  3 20  1  0
  4 21  1  0
  4 22  1  0
  5 23  1  0
  7 24  1  0
  8 25  1  0
  9 26  1  0
 10 27  1  0
 11 28  1  0
 13 29  1  0
 14 30  1  0
 15 31  1  0
 16 32  1  0
 18 33  1  0
M  END
>  <UniqueID>  (72) 
67

>  <SMILES>  (72) 
O=C(CCNc1ccccc1)c1ccccc1O

>  <Energy>  (72) 
33.09884040555457

>  <Genealogy>  (72) 
O=C(CCNc1ccccc1)c1ccccc1O (3D coordinates assigned)
O=C(CCNc1ccccc1)c1ccccc1O (optimized conformer: 33.09884040555457 kcal/mol)

>  <smiles>  (72) 
O=C(CCNc1ccccc1)c1ccccc1O

>  <score_type>  (72) 
oracle

>  <origin>  (72) 
adg

>  <m_score__min__energy>  (72) 
-8.5999999999999996

>  <m_primary>  (72) 
energy

$$$$
73:0
     RDKit          3D

 25 26  0  0  0  0  0  0  0  0999 V2000
   58.9030   31.9760   47.5680 C   0  0  0  0  0  0  0  0  0  0  0  0
   59.0710   33.1900   46.7080 C   0  0  0  0  0  0  0  0  0  0  0  0
   59.6570   34.3230   47.2050 N   0  0  0  0  0  0  0  0  0  0  0  0
   59.7160   35.3450   46.3560 N   0  0  0  0  0  0  0  0  0  0  0  0
   59.0270   34.8540   44.9310 S   0  0  0  0  0  0  0  0  0  0  0  0
   58.6440   33.2900   45.3730 C   0  0  0  0  0  0  0  0  0  0  0  0
   57.9760   32.2840   44.5170 C   0  0  0  0  0  0  0  0  0  0  0  0
   57.9750   32.4110   43.1180 C   0  0  0  0  0  0  0  0  0  0  0  0
   57.3290   31.4600   42.3240 C   0  0  0  0  0  0  0  0  0  0  0  0
   56.6700   30.3820   42.9180 C   0  0  0  0  0  0  0  0  0  0  0  0
   56.6440   30.2470   44.3110 C   0  0  0  0  0  0  0  0  0  0  0  0
   55.9470   29.1290   44.8770 N   0  0  0  0  0  0  0  0  0  0  0  0
   56.7010   27.7180   45.5480 S   0  0  0  0  0  0  0  0  0  0  0  0
   55.4950   26.5650   45.9980 N   0  0  0  0  0  0  0  0  0  0  0  0
   57.5190   28.1020   46.7490 O   0  0  0  0  0  0  0  0  0  0  0  0
   57.6040   27.1080   44.5140 O   0  0  0  0  0  0  0  0  0  0  0  0
   57.2960   31.2050   45.1080 C   0  0  0  0  0  0  0  0  0  0  0  0
   58.9435   32.2688   48.6275 H   0  0  0  0  0  0  0  0  0  0  0  0
   57.9314   31.5068   47.3542 H   0  0  0  0  0  0  0  0  0  0  0  0
   59.7107   31.2605   47.3542 H   0  0  0  0  0  0  0  0  0  0  0  0
   58.4852   33.2632   42.6454 H   0  0  0  0  0  0  0  0  0  0  0  0
   57.3396   31.5608   41.2287 H   0  0  0  0  0  0  0  0  0  0  0  0
   56.1679   29.6338   42.2871 H   0  0  0  0  0  0  0  0  0  0  0  0
   54.7690   27.0820   46.5420 H   0  0  0  0  0  0  0  0  0  0  0  0
   57.2736   31.1091   46.2036 H   0  0  0  0  0  0  0  0  0  0  0  0
  1  2  1  0
  2  3  1  0
  3  4  2  0
  4  5  1  0
  5  6  1  0
  6  7  1  0
  7  8  2  0
  8  9  1  0
  9 10  2  0
 10 11  1  0
 11 12  1  0
 12 13  1  0
 13 14  1  0
 13 15  2  0
 13 16  2  0
 11 17  2  0
  6  2  2  0
 17  7  1  0
  1 18  1  0
  1 19  1  0
  1 20  1  0
  8 21  1  0
  9 22  1  0
 10 23  1  0
 14 24  1  0
 17 25  1  0
M  CHG  2  12  -1  14  -1
M  END
>  <UniqueID>  (73) 
68

>  <SMILES>  (73) 
Cc1nnsc1-c1cccc([N-]S([NH-])(=O)=O)c1

>  <Energy>  (73) 
66.99666632618492

>  <Genealogy>  (73) 
Cc1nnsc1-c1cccc([N-]S([NH-])(=O)=O)c1 (protonated)
Cc1nnsc1-c1cccc([N-]S([NH-])(=O)=O)c1 (3D coordinates assigned)
Cc1nnsc1-c1cccc([N-]S([NH-])(=O)=O)c1 (optimized conformer: 66.99666632618492 kcal/mol)

>  <smiles>  (73) 
Cc1nnsc1-c1cccc(NS(N)(=O)=O)c1

>  <score_type>  (73) 
oracle

>  <origin>  (73) 
adg

>  <m_score__min__energy>  (73) 
-12.18

>  <m_primary>  (73) 
energy

$$$$
74:0
     RDKit          3D

 43 45  0  0  0  0  0  0  0  0999 V2000
   57.6960   31.6210   54.6750 C   0  0  0  0  0  0  0  0  0  0  0  0
   57.6900   31.2270   53.2330 C   0  0  0  0  0  0  0  0  0  0  0  0
   58.7590   31.2380   52.3630 C   0  0  0  0  0  0  0  0  0  0  0  0
   58.3410   30.7500   51.1770 N   0  0  0  0  0  0  0  0  0  0  0  0
   59.1390   30.6380   49.9870 C   0  0  0  0  0  0  0  0  0  0  0  0
   59.7660   29.5670   49.7600 O   0  0  0  0  0  0  0  0  0  0  0  0
   59.2610   31.7620   49.0300 C   0  0  0  0  0  0  0  0  0  0  0  0
   60.0350   32.8830   49.3620 C   0  0  0  0  0  0  0  0  0  0  0  0
   60.1440   33.9540   48.4720 C   0  0  0  0  0  0  0  0  0  0  0  0
   59.4930   33.9170   47.2340 C   0  0  0  0  0  0  0  0  0  0  0  0
   59.6440   35.3110   46.1700 Cl  0  0  0  0  0  0  0  0  0  0  0  0
   58.7370   32.7840   46.8750 C   0  0  0  0  0  0  0  0  0  0  0  0
   57.8920   32.7050   45.3230 S   0  0  0  0  0  0  0  0  0  0  0  0
   56.9450   33.8680   45.2240 O   0  0  0  0  0  0  0  0  0  0  0  0
   58.8790   32.7940   44.1890 O   0  0  0  0  0  0  0  0  0  0  0  0
   57.0060   31.2050   45.2210 N   0  0  0  0  0  0  0  0  0  0  0  0
   57.9260   30.0660   45.3630 C   0  0  0  0  0  0  0  0  0  0  0  0
   57.1510   28.7380   45.2390 C   0  0  0  0  0  0  0  0  0  0  0  0
   55.7930   28.9400   44.8900 O   0  0  0  0  0  0  0  0  0  0  0  0
   55.7150   29.7170   43.7110 C   0  0  0  0  0  0  0  0  0  0  0  0
   56.2950   31.1290   43.9330 C   0  0  0  0  0  0  0  0  0  0  0  0
   58.6300   31.7120   47.7760 C   0  0  0  0  0  0  0  0  0  0  0  0
   57.0550   30.4350   51.2480 N   0  0  0  0  0  0  0  0  0  0  0  0
   56.6410   30.6990   52.5010 C   0  0  0  0  0  0  0  0  0  0  0  0
   55.2420   30.4840   52.9800 C   0  0  0  0  0  0  0  0  0  0  0  0
   57.6822   30.7173   55.3021 H   0  0  0  0  0  0  0  0  0  0  0  0
   58.6031   32.2041   54.8920 H   0  0  0  0  0  0  0  0  0  0  0  0
   56.8070   32.2315   54.8920 H   0  0  0  0  0  0  0  0  0  0  0  0
   59.7767   31.5847   52.5956 H   0  0  0  0  0  0  0  0  0  0  0  0
   60.5591   32.9192   50.3284 H   0  0  0  0  0  0  0  0  0  0  0  0
   60.7460   34.8328   48.7463 H   0  0  0  0  0  0  0  0  0  0  0  0
   58.6907   30.1157   44.5738 H   0  0  0  0  0  0  0  0  0  0  0  0
   58.4046   30.1118   46.3524 H   0  0  0  0  0  0  0  0  0  0  0  0
   57.6279   28.1210   44.4632 H   0  0  0  0  0  0  0  0  0  0  0  0
   57.1766   28.2400   46.2195 H   0  0  0  0  0  0  0  0  0  0  0  0
   56.2841   29.2168   42.9135 H   0  0  0  0  0  0  0  0  0  0  0  0
   54.6564   29.8161   43.4290 H   0  0  0  0  0  0  0  0  0  0  0  0
   56.9970   31.3628   43.1190 H   0  0  0  0  0  0  0  0  0  0  0  0
   55.4670   31.8530   43.9437 H   0  0  0  0  0  0  0  0  0  0  0  0
   58.0454   30.8231   47.4965 H   0  0  0  0  0  0  0  0  0  0  0  0
   55.2273   30.4817   54.0799 H   0  0  0  0  0  0  0  0  0  0  0  0
   54.5980   31.2937   52.6064 H   0  0  0  0  0  0  0  0  0  0  0  0
   54.8708   29.5183   52.6064 H   0  0  0  0  0  0  0  0  0  0  0  0
  1  2  1  0
  2  3  2  0
  3  4  1  0
  4  5  1  0
  5  6  2  0
  5  7  1  0
  7  8  2  0
  8  9  1  0
  9 10  2  0
 10 11  1  0
 10 12  1  0
 12 13  1  0
 13 14  2  0
 13 15  2  0
 13 16  1  0
 16 17  1  0
 17 18  1  0
 18 19  1  0
 19 20  1  0
 20 21  1  0
 12 22  2  0
  4 23  1  0
 23 24  2  0
 24 25  1  0
 24  2  1  0
 22  7  1  0
 21 16  1  0
  1 26  1  0
  1 27  1  0
  1 28  1  0
  3 29  1  0
  8 30  1  0
  9 31  1  0
 17 32  1  0
 17 33  1  0
 18 34  1  0
 18 35  1  0
 20 36  1  0
 20 37  1  0
 21 38  1  0
 21 39  1  0
 22 40  1  0
 25 41  1  0
 25 42  1  0
 25 43  1  0
M  END
>  <UniqueID>  (74) 
69

>  <SMILES>  (74) 
Cc1cn(C(=O)c2ccc(Cl)c(S(=O)(=O)N3CCOCC3)c2)nc1C

>  <Energy>  (74) 
83.64338108808734

>  <Genealogy>  (74) 
Cc1cn(C(=O)c2ccc(Cl)c(S(=O)(=O)N3CCOCC3)c2)nc1C (3D coordinates assigned)
Cc1cn(C(=O)c2ccc(Cl)c(S(=O)(=O)N3CCOCC3)c2)nc1C (nonaromatic ring conformer: 83.64338108808734 kcal/mol)

>  <smiles>  (74) 
Cc1cn(C(=O)c2ccc(Cl)c(S(=O)(=O)N3CCOCC3)c2)nc1C

>  <score_type>  (74) 
oracle

>  <origin>  (74) 
adg

>  <m_score__min__energy>  (74) 
-9.3599999999999994

>  <m_primary>  (74) 
energy

$$$$
75:0
     RDKit          3D

 40 41  0  0  0  0  0  0  0  0999 V2000
   58.2693   26.0959   47.7960 H   0  0  0  0  0  0  0  0  0  0  0  0
   57.7070   26.4540   46.9210 C   0  0  0  0  0  0  0  0  0  0  0  0
   57.4810   27.7250   46.7840 N   0  0  0  0  0  0  0  0  0  0  0  0
   58.3190   28.5980   45.9620 C   0  0  1  0  0  0  0  0  0  0  0  0
   59.2480   28.0613   45.7193 H   0  0  0  0  0  0  0  0  0  0  0  0
   57.6140   28.9590   44.6770 C   0  0  0  0  0  0  0  0  0  0  0  0
   58.1100   28.5980   43.5740 O   0  0  0  0  0  0  0  0  0  0  0  0
   56.3270   29.6720   44.6810 C   0  0  0  0  0  0  0  0  0  0  0  0
   56.2840   30.9220   44.5320 O   0  0  0  0  0  0  0  0  0  0  0  0
   55.1430   28.9660   44.8530 O   0  0  0  0  0  0  0  0  0  0  0  0
   58.6360   29.8530   46.7210 C   0  0  0  0  0  0  0  0  0  0  0  0
   58.7940   29.8030   47.9730 O   0  0  0  0  0  0  0  0  0  0  0  0
   58.6730   31.1150   46.0370 N   0  0  0  0  0  0  0  0  0  0  0  0
   58.3690   31.1470   45.0380 H   0  0  0  0  0  0  0  0  0  0  0  0
   59.0510   32.3450   46.6760 C   0  0  0  0  0  0  0  0  0  0  0  0
   59.8850   32.3140   47.8070 C   0  0  0  0  0  0  0  0  0  0  0  0
   60.1820   31.3467   48.2384 H   0  0  0  0  0  0  0  0  0  0  0  0
   60.3400   33.4990   48.3880 C   0  0  0  0  0  0  0  0  0  0  0  0
   60.9831   33.4625   49.2797 H   0  0  0  0  0  0  0  0  0  0  0  0
   59.9800   34.7280   47.8390 C   0  0  0  0  0  0  0  0  0  0  0  0
   60.3441   35.6608   48.2943 H   0  0  0  0  0  0  0  0  0  0  0  0
   59.1580   34.7770   46.7120 C   0  0  0  0  0  0  0  0  0  0  0  0
   58.8836   35.7510   46.2808 H   0  0  0  0  0  0  0  0  0  0  0  0
   58.6770   33.5950   46.1220 C   0  0  0  0  0  0  0  0  0  0  0  0
   57.7920   33.6840   44.9890 N   0  0  0  0  0  0  0  0  0  0  0  0
   57.9890   32.9900   43.9700 O   0  0  0  0  0  0  0  0  0  0  0  0
   56.6270   34.4110   45.0790 O   0  0  0  0  0  0  0  0  0  0  0  0
   57.2220   25.4810   45.9220 C   0  0  0  0  0  0  0  0  0  0  0  0
   56.2150   24.5720   46.2780 C   0  0  0  0  0  0  0  0  0  0  0  0
   55.7971   24.5901   47.2954 H   0  0  0  0  0  0  0  0  0  0  0  0
   55.7390   23.6430   45.3480 C   0  0  0  0  0  0  0  0  0  0  0  0
   54.9484   22.9360   45.6398 H   0  0  0  0  0  0  0  0  0  0  0  0
   56.2610   23.6040   44.0440 C   0  0  0  0  0  0  0  0  0  0  0  0
   55.7680   22.6450   43.0900 N   0  0  0  0  0  0  0  0  0  0  0  0
   54.8620   22.9520   42.2890 O   0  0  0  0  0  0  0  0  0  0  0  0
   56.2900   21.3730   43.0440 O   0  0  0  0  0  0  0  0  0  0  0  0
   57.2710   24.5170   43.6900 C   0  0  0  0  0  0  0  0  0  0  0  0
   57.6900   24.4987   42.6731 H   0  0  0  0  0  0  0  0  0  0  0  0
   57.7470   25.4470   44.6180 C   0  0  0  0  0  0  0  0  0  0  0  0
   58.5362   26.1559   44.3270 H   0  0  0  0  0  0  0  0  0  0  0  0
  1  2  1  0
  2  3  2  0
  3  4  1  0
  4  5  1  6
  4  6  1  0
  6  7  2  0
  6  8  1  0
  8  9  2  0
  8 10  1  0
  4 11  1  0
 11 12  2  0
 11 13  1  0
 13 14  1  0
 13 15  1  0
 15 16  2  0
 16 17  1  0
 16 18  1  0
 18 19  1  0
 18 20  2  0
 20 21  1  0
 20 22  1  0
 22 23  1  0
 22 24  2  0
 24 25  1  0
 25 26  2  0
 25 27  1  0
  2 28  1  0
 28 29  2  0
 29 30  1  0
 29 31  1  0
 31 32  1  0
 31 33  2  0
 33 34  1  0
 34 35  2  0
 34 36  1  0
 33 37  1  0
 37 38  1  0
 37 39  2  0
 39 40  1  0
 24 15  1  0
 39 28  1  0
M  CHG  5  10  -1  25   1  27  -1  34   1  36  -1
M  END
>  <UniqueID>  (75) 
70

>  <SMILES>  (75) 
O=C([O-])C(=O)[C@H](/N=C/c1ccc([N+](=O)[O-])cc1)C(=O)Nc1ccccc1[N+](=O)[O-]

>  <Energy>  (75) 
46.05483936377091

>  <Genealogy>  (75) 
O=C([O-])C(=O)C(N=Cc1ccc([N+](=O)[O-])cc1)C(=O)Nc1ccccc1[N+](=O)[O-] (protonated)
O=C([O-])C(=O)[C@H](N=Cc1ccc([N+](=O)[O-])cc1)C(=O)Nc1ccccc1[N+](=O)[O-] (chirality)
O=C([O-])C(=O)[C@H](/N=C/c1ccc([N+](=O)[O-])cc1)C(=O)Nc1ccccc1[N+](=O)[O-] (cis-trans isomerization)
O=C([O-])C(=O)[C@H](/N=C/c1ccc([N+](=O)[O-])cc1)C(=O)Nc1ccccc1[N+](=O)[O-] (3D coordinates assigned)
O=C([O-])C(=O)[C@H](/N=C/c1ccc([N+](=O)[O-])cc1)C(=O)Nc1ccccc1[N+](=O)[O-] (optimized conformer: 46.05483936377091 kcal/mol)

>  <smiles>  (75) 
O=C(O)C(=O)C(N=Cc1ccc([N+](=O)[O-])cc1)C(=O)Nc1ccccc1[N+](=O)[O-]

>  <score_type>  (75) 
oracle

>  <origin>  (75) 
adg

>  <m_score__min__energy>  (75) 
-11.06

>  <m_primary>  (75) 
energy

$$$$
76:0
     RDKit          3D

 28 29  0  0  0  0  0  0  0  0999 V2000
   56.6526   27.0316   47.3203 H   0  0  0  0  0  0  0  0  0  0  0  0
   57.1510   27.3620   46.3970 C   0  0  0  0  0  0  0  0  0  0  0  0
   57.6480   28.7550   46.3540 C   0  0  0  0  0  0  0  0  0  0  0  0
   58.1750   29.2300   47.3960 O   0  0  0  0  0  0  0  0  0  0  0  0
   57.4950   29.6240   45.1620 C   0  0  0  0  0  0  0  0  0  0  0  0
   58.5870   30.3770   44.6930 C   0  0  0  0  0  0  0  0  0  0  0  0
   59.5589   30.3054   45.2032 H   0  0  0  0  0  0  0  0  0  0  0  0
   58.4460   31.2150   43.5840 C   0  0  0  0  0  0  0  0  0  0  0  0
   59.3028   31.8079   43.2313 H   0  0  0  0  0  0  0  0  0  0  0  0
   57.2200   31.3010   42.9230 C   0  0  0  0  0  0  0  0  0  0  0  0
   57.1103   31.9633   42.0516 H   0  0  0  0  0  0  0  0  0  0  0  0
   56.1320   30.5460   43.3680 C   0  0  0  0  0  0  0  0  0  0  0  0
   55.1684   30.6105   42.8413 H   0  0  0  0  0  0  0  0  0  0  0  0
   56.2630   29.7080   44.4810 C   0  0  0  0  0  0  0  0  0  0  0  0
   55.1580   28.9820   44.9150 O   0  0  0  0  0  0  0  0  0  0  0  0
   57.2590   26.4680   45.4000 C   0  0  0  0  0  0  0  0  0  0  0  0
   57.9861   26.6794   44.6021 H   0  0  0  0  0  0  0  0  0  0  0  0
   56.4720   25.2210   45.2970 C   0  0  0  0  0  0  0  0  0  0  0  0
   57.1040   24.0550   44.8400 C   0  0  0  0  0  0  0  0  0  0  0  0
   58.1633   24.0866   44.5453 H   0  0  0  0  0  0  0  0  0  0  0  0
   56.3950   22.8530   44.7570 C   0  0  0  0  0  0  0  0  0  0  0  0
   56.9016   21.9387   44.4142 H   0  0  0  0  0  0  0  0  0  0  0  0
   55.0440   22.8120   45.1090 C   0  0  0  0  0  0  0  0  0  0  0  0
   54.4904   21.8630   45.0539 H   0  0  0  0  0  0  0  0  0  0  0  0
   54.3950   23.9750   45.5310 C   0  0  0  0  0  0  0  0  0  0  0  0
   53.3286   23.9415   45.7988 H   0  0  0  0  0  0  0  0  0  0  0  0
   55.0980   25.1830   45.6140 C   0  0  0  0  0  0  0  0  0  0  0  0
   54.4230   26.3370   45.9980 O   0  0  0  0  0  0  0  0  0  0  0  0
  1  2  1  0
  2  3  1  0
  3  4  2  0
  3  5  1  0
  5  6  2  0
  6  7  1  0
  6  8  1  0
  8  9  1  0
  8 10  2  0
 10 11  1  0
 10 12  1  0
 12 13  1  0
 12 14  2  0
 14 15  1  0
  2 16  2  0
 16 17  1  0
 16 18  1  0
 18 19  2  0
 19 20  1  0
 19 21  1  0
 21 22  1  0
 21 23  2  0
 23 24  1  0
 23 25  1  0
 25 26  1  0
 25 27  2  0
 27 28  1  0
 14  5  1  0
 27 18  1  0
M  CHG  2  15  -1  28  -1
M  END
>  <UniqueID>  (76) 
71

>  <SMILES>  (76) 
O=C(/C=C\c1ccccc1[O-])c1ccccc1[O-]

>  <Energy>  (76) 
41.36426451344101

>  <Genealogy>  (76) 
O=C(C=Cc1ccccc1[O-])c1ccccc1[O-] (protonated)
O=C(/C=C\c1ccccc1[O-])c1ccccc1[O-] (cis-trans isomerization)
O=C(/C=C\c1ccccc1[O-])c1ccccc1[O-] (3D coordinates assigned)
O=C(/C=C\c1ccccc1[O-])c1ccccc1[O-] (optimized conformer: 41.36426451344101 kcal/mol)

>  <smiles>  (76) 
O=C(C=Cc1ccccc1O)c1ccccc1O

>  <score_type>  (76) 
oracle

>  <origin>  (76) 
adg

>  <m_score__min__energy>  (76) 
-13.74

>  <m_primary>  (76) 
energy

$$$$
77:0
     RDKit          3D

 58 60  0  0  1  0  0  0  0  0999 V2000
   63.2350   33.8170   46.6170 C   0  0  0  0  0  0  0  0  0  0  0  0
   63.7010   33.0770   47.8510 C   0  0  0  0  0  0  0  0  0  0  0  0
   62.9270   31.7980   47.9390 C   0  0  0  0  0  0  0  0  0  0  0  0
   61.6660   31.9390   47.0760 C   0  0  0  0  0  0  0  0  0  0  0  0
   61.1540   30.5000   46.9280 C   0  0  0  0  0  0  0  0  0  0  0  0
   60.9750   29.9770   48.3420 C   0  0  0  0  0  0  0  0  0  0  0  0
   59.6930   29.3500   48.4220 N   0  0  0  0  0  0  0  0  0  0  0  0
   59.1330   28.7110   47.4500 C   0  0  0  0  0  0  0  0  0  0  0  0
   59.5520   27.4540   47.1560 N   0  0  0  0  0  0  0  0  0  0  0  0
   58.9650   26.7940   46.1420 C   0  0  0  0  0  0  0  0  0  0  0  0
   57.9580   27.4080   45.4330 C   0  0  0  0  0  0  0  0  0  0  0  0
   57.5650   28.6680   45.7560 C   0  0  0  0  0  0  0  0  0  0  0  0
   56.6230   29.2380   45.0920 N   0  0  0  0  0  0  0  0  0  0  0  0
   56.6540   29.5160   43.6730 C   0  0  0  0  0  0  0  0  0  0  0  0
   57.3970   30.8450   43.5050 C   0  0  0  0  0  0  0  0  0  0  0  0
   56.8050   31.8250   44.4960 C   0  0  0  0  0  0  0  0  0  0  0  0
   57.7320   31.9450   45.6040 N   0  0  0  0  0  0  0  0  0  0  0  0
   58.3390   33.0230   45.9020 C   0  0  0  0  0  0  0  0  0  0  0  0
   58.5950   33.9760   44.9380 C   0  0  0  0  0  0  0  0  0  0  0  0
   59.2570   35.1140   45.3510 C   0  0  0  0  0  0  0  0  0  0  0  0
   59.6450   35.3070   46.6260 N   0  0  0  0  0  0  0  0  0  0  0  0
   59.3890   34.3650   47.5710 C   0  0  0  0  0  0  0  0  0  0  0  0
   59.7670   34.5210   48.8870 C   0  0  0  0  0  0  0  0  0  0  0  0
   59.4950   33.5430   49.8370 C   0  0  0  0  0  0  0  0  0  0  0  0
   59.9690   33.7300   51.5140 Cl  0  0  0  0  0  0  0  0  0  0  0  0
   58.8330   32.3870   49.4690 C   0  0  0  0  0  0  0  0  0  0  0  0
   58.4460   32.2140   48.1520 C   0  0  0  0  0  0  0  0  0  0  0  0
   58.7290   33.2050   47.2180 C   0  0  0  0  0  0  0  0  0  0  0  0
   58.1480   29.3210   46.7630 N   0  0  0  0  0  0  0  0  0  0  0  0
   62.6711   34.7124   46.9175 H   0  0  0  0  0  0  0  0  0  0  0  0
   64.1075   34.1170   46.0180 H   0  0  0  0  0  0  0  0  0  0  0  0
   62.5875   33.1598   46.0180 H   0  0  0  0  0  0  0  0  0  0  0  0
   64.7763   32.8587   47.7724 H   0  0  0  0  0  0  0  0  0  0  0  0
   63.5354   33.6883   48.7504 H   0  0  0  0  0  0  0  0  0  0  0  0
   63.5414   30.9649   47.5669 H   0  0  0  0  0  0  0  0  0  0  0  0
   62.6508   31.5927   48.9838 H   0  0  0  0  0  0  0  0  0  0  0  0
   60.9178   32.5705   47.5774 H   0  0  0  0  0  0  0  0  0  0  0  0
   61.8680   32.4181   46.1066 H   0  0  0  0  0  0  0  0  0  0  0  0
   60.1941   30.4883   46.3909 H   0  0  0  0  0  0  0  0  0  0  0  0
   61.8551   29.8781   46.3521 H   0  0  0  0  0  0  0  0  0  0  0  0
   61.7634   29.2452   48.5720 H   0  0  0  0  0  0  0  0  0  0  0  0
   61.0426   30.8023   49.0661 H   0  0  0  0  0  0  0  0  0  0  0  0
   60.3240   27.0330   47.7290 H   0  0  0  0  0  0  0  0  0  0  0  0
   59.2862   25.7745   45.8821 H   0  0  0  0  0  0  0  0  0  0  0  0
   57.4698   26.8772   44.6024 H   0  0  0  0  0  0  0  0  0  0  0  0
   57.1856   28.7137   43.1403 H   0  0  0  0  0  0  0  0  0  0  0  0
   55.6373   29.5740   43.2572 H   0  0  0  0  0  0  0  0  0  0  0  0
   58.4686   30.7048   43.7098 H   0  0  0  0  0  0  0  0  0  0  0  0
   57.2907   31.2214   42.4769 H   0  0  0  0  0  0  0  0  0  0  0  0
   56.6657   32.8050   44.0162 H   0  0  0  0  0  0  0  0  0  0  0  0
   55.8254   31.4711   44.8497 H   0  0  0  0  0  0  0  0  0  0  0  0
   58.2865   33.8356   43.8915 H   0  0  0  0  0  0  0  0  0  0  0  0
   59.4768   35.8954   44.6086 H   0  0  0  0  0  0  0  0  0  0  0  0
   60.1450   36.1560   46.9610 H   0  0  0  0  0  0  0  0  0  0  0  0
   60.2942   35.4371   49.1917 H   0  0  0  0  0  0  0  0  0  0  0  0
   58.6155   31.6106   50.2173 H   0  0  0  0  0  0  0  0  0  0  0  0
   57.9181   31.2989   47.8456 H   0  0  0  0  0  0  0  0  0  0  0  0
   57.8620   30.3020   47.0350 H   0  0  0  0  0  0  0  0  0  0  0  0
  1  2  1  0
  2  3  1  0
  3  4  1  0
  4  5  1  0
  5  6  1  0
  6  7  1  0
  7  8  2  0
  8  9  1  0
  9 10  1  0
 10 11  2  0
 11 12  1  0
 12 13  2  0
 13 14  1  0
 14 15  1  0
 15 16  1  0
 16 17  1  0
 17 18  2  0
 18 19  1  0
 19 20  2  0
 20 21  1  0
 21 22  1  0
 22 23  2  0
 23 24  1  0
 24 25  1  0
 24 26  2  0
 26 27  1  0
 27 28  2  0
 12 29  1  0
 29  8  1  0
 28 18  1  0
 28 22  1  0
  1 30  1  0
  1 31  1  0
  1 32  1  0
  2 33  1  0
  2 34  1  0
  3 35  1  0
  3 36  1  0
  4 37  1  0
  4 38  1  0
  5 39  1  0
  5 40  1  0
  6 41  1  0
  6 42  1  0
  9 43  1  0
 10 44  1  0
 11 45  1  0
 14 46  1  0
 14 47  1  0
 15 48  1  0
 15 49  1  0
 16 50  1  0
 16 51  1  0
 19 52  1  0
 20 53  1  0
 21 54  1  0
 23 55  1  0
 26 56  1  0
 27 57  1  0
 29 58  1  0
M  END
>  <smiles>  (77) 
CCCCCCN=c1[nH]ccc(=NCCCN=c2cc[nH]c3cc(Cl)ccc23)[nH]1

>  <score_type>  (77) 
oracle

>  <origin>  (77) 
adg

>  <m_score__min__energy>  (77) 
-8.9499999999999993

>  <m_primary>  (77) 
energy

$$$$
78:0
     RDKit          3D

 44 47  0  0  0  0  0  0  0  0999 V2000
   63.3850   33.3690   49.7040 C   0  0  0  0  0  0  0  0  0  0  0  0
   62.0570   33.3330   50.2160 O   0  0  0  0  0  0  0  0  0  0  0  0
   60.9030   33.3050   49.4200 C   0  0  0  0  0  0  0  0  0  0  0  0
   60.6700   34.2390   48.3920 C   0  0  0  0  0  0  0  0  0  0  0  0
   59.5030   34.1690   47.6270 C   0  0  0  0  0  0  0  0  0  0  0  0
   58.5560   33.1610   47.8670 C   0  0  0  0  0  0  0  0  0  0  0  0
   57.2850   33.1090   47.0630 C   0  0  0  0  0  0  0  0  0  0  0  0
   57.5930   33.1100   45.5910 C   0  0  0  0  0  0  0  0  0  0  0  0
   58.4470   33.9820   45.0130 N   0  0  0  0  0  0  0  0  0  0  0  0
   58.5630   33.6380   43.7370 N   0  0  0  0  0  0  0  0  0  0  0  0
   57.7800   32.5590   43.5540 C   0  0  0  0  0  0  0  0  0  0  0  0
   57.6260   31.7790   42.1240 S   0  0  0  0  0  0  0  0  0  0  0  0
   57.1390   32.2200   44.6820 N   0  0  0  0  0  0  0  0  0  0  0  0
   56.3000   31.1070   44.8650 N   0  0  0  0  0  0  0  0  0  0  0  0
   56.7080   29.7640   44.5890 C   0  0  0  0  0  0  0  0  0  0  0  0
   56.5580   29.2850   43.4330 O   0  0  0  0  0  0  0  0  0  0  0  0
   57.3850   28.9650   45.6350 C   0  0  0  0  0  0  0  0  0  0  0  0
   56.7640   27.7840   46.0930 C   0  0  0  0  0  0  0  0  0  0  0  0
   55.5280   27.3920   45.5890 O   0  0  0  0  0  0  0  0  0  0  0  0
   57.3880   26.9760   47.0440 C   0  0  0  0  0  0  0  0  0  0  0  0
   58.6360   27.3210   47.5550 C   0  0  0  0  0  0  0  0  0  0  0  0
   59.2720   28.4940   47.1330 C   0  0  0  0  0  0  0  0  0  0  0  0
   60.5220   28.8420   47.6710 C   0  0  0  0  0  0  0  0  0  0  0  0
   61.1510   30.0250   47.2830 C   0  0  0  0  0  0  0  0  0  0  0  0
   60.5370   30.8740   46.3640 C   0  0  0  0  0  0  0  0  0  0  0  0
   59.2960   30.5410   45.8160 C   0  0  0  0  0  0  0  0  0  0  0  0
   58.6490   29.3380   46.1740 C   0  0  0  0  0  0  0  0  0  0  0  0
   58.7820   32.2380   48.8990 C   0  0  0  0  0  0  0  0  0  0  0  0
   59.9500   32.3090   49.6640 C   0  0  0  0  0  0  0  0  0  0  0  0
   64.0998   33.3884   50.5398 H   0  0  0  0  0  0  0  0  0  0  0  0
   63.5649   32.4754   49.0883 H   0  0  0  0  0  0  0  0  0  0  0  0
   63.5163   34.2710   49.0883 H   0  0  0  0  0  0  0  0  0  0  0  0
   61.4103   35.0273   48.1904 H   0  0  0  0  0  0  0  0  0  0  0  0
   59.3252   34.9081   46.8320 H   0  0  0  0  0  0  0  0  0  0  0  0
   56.7333   32.1919   47.3168 H   0  0  0  0  0  0  0  0  0  0  0  0
   56.6774   33.9947   47.3001 H   0  0  0  0  0  0  0  0  0  0  0  0
   56.8899   26.0593   47.3926 H   0  0  0  0  0  0  0  0  0  0  0  0
   59.1245   26.6687   48.2938 H   0  0  0  0  0  0  0  0  0  0  0  0
   61.0072   28.1784   48.4019 H   0  0  0  0  0  0  0  0  0  0  0  0
   62.1330   30.2882   47.7030 H   0  0  0  0  0  0  0  0  0  0  0  0
   61.0320   31.8109   46.0687 H   0  0  0  0  0  0  0  0  0  0  0  0
   58.8176   31.2232   45.0979 H   0  0  0  0  0  0  0  0  0  0  0  0
   58.0374   31.4555   49.1071 H   0  0  0  0  0  0  0  0  0  0  0  0
   60.1218   31.5752   50.4653 H   0  0  0  0  0  0  0  0  0  0  0  0
  1  2  1  0
  2  3  1  0
  3  4  2  0
  4  5  1  0
  5  6  2  0
  6  7  1  0
  7  8  1  0
  8  9  2  0
  9 10  1  0
 10 11  1  0
 11 12  2  0
 11 13  1  0
 13 14  1  0
 14 15  1  0
 15 16  2  0
 15 17  1  0
 17 18  2  0
 18 19  1  0
 18 20  1  0
 20 21  2  0
 21 22  1  0
 22 23  2  0
 23 24  1  0
 24 25  2  0
 25 26  1  0
 26 27  2  0
  6 28  1  0
 28 29  2  0
 29  3  1  0
 13  8  1  0
 27 17  1  0
 27 22  1  0
  1 30  1  0
  1 31  1  0
  1 32  1  0
  4 33  1  0
  5 34  1  0
  7 35  1  0
  7 36  1  0
 20 37  1  0
 21 38  1  0
 23 39  1  0
 24 40  1  0
 25 41  1  0
 26 42  1  0
 28 43  1  0
 29 44  1  0
M  CHG  3  10  -1  14  -1  19  -1
M  END
>  <UniqueID>  (78) 
72

>  <SMILES>  (78) 
COc1ccc(Cc2n[n-]c(=S)n2[N-]C(=O)c2c([O-])ccc3ccccc23)cc1

>  <Energy>  (78) 
100.22752577351599

>  <Genealogy>  (78) 
COc1ccc(Cc2n[n-]c(=S)n2[N-]C(=O)c2c([O-])ccc3ccccc23)cc1 (protonated)
COc1ccc(Cc2n[n-]c(=S)n2[N-]C(=O)c2c([O-])ccc3ccccc23)cc1 (3D coordinates assigned)
COc1ccc(Cc2n[n-]c(=S)n2[N-]C(=O)c2c([O-])ccc3ccccc23)cc1 (optimized conformer: 100.22752577351599 kcal/mol)

>  <smiles>  (78) 
COc1ccc(Cc2n[nH]c(=S)n2NC(=O)c2c(O)ccc3ccccc23)cc1

>  <score_type>  (78) 
oracle

>  <origin>  (78) 
adg

>  <m_score__min__energy>  (78) 
-14.289999999999999

>  <m_primary>  (78) 
energy

$$$$
79:0
     RDKit          3D

 50 51  0  0  0  0  0  0  0  0999 V2000
   58.2880   33.8540   44.5220 C   0  0  0  0  0  0  0  0  0  0  0  0
   57.3080   32.8450   44.7350 O   0  0  0  0  0  0  0  0  0  0  0  0
   57.4910   31.4870   44.4380 C   0  0  0  0  0  0  0  0  0  0  0  0
   58.6490   30.7810   44.8120 C   0  0  0  0  0  0  0  0  0  0  0  0
   58.7920   29.4310   44.4820 C   0  0  0  0  0  0  0  0  0  0  0  0
   57.7820   28.7590   43.7710 C   0  0  0  0  0  0  0  0  0  0  0  0
   57.9220   27.3270   43.4130 C   0  0  0  0  0  0  0  0  0  0  0  0
   58.4610   27.0110   42.3190 O   0  0  0  0  0  0  0  0  0  0  0  0
   57.4560   26.2960   44.2970 N   0  0  0  0  0  0  0  0  0  0  0  0
   57.4050   24.8960   43.8780 C   0  0  0  0  0  0  0  0  0  0  0  0
   56.7530   24.0090   44.9450 C   0  0  0  0  0  0  0  0  0  0  0  0
   56.2800   24.9450   46.3950 S   0  0  0  0  0  0  0  0  0  0  0  0
   55.3410   26.0420   45.9770 O   0  0  0  0  0  0  0  0  0  0  0  0
   55.5870   24.0340   47.3690 O   0  0  0  0  0  0  0  0  0  0  0  0
   57.6930   25.6150   47.1430 N   0  0  0  0  0  0  0  0  0  0  0  0
   58.0040   27.0100   47.1960 C   0  0  0  0  0  0  0  0  0  0  0  0
   57.2420   27.8250   46.6110 O   0  0  0  0  0  0  0  0  0  0  0  0
   59.1540   27.4890   47.9080 N   0  0  0  0  0  0  0  0  0  0  0  0
   59.2700   28.8740   48.3640 C   0  0  0  0  0  0  0  0  0  0  0  0
   60.4190   29.6080   47.6590 C   0  0  0  0  0  0  0  0  0  0  0  0
   60.2080   31.1010   47.6370 C   0  0  0  0  0  0  0  0  0  0  0  0
   61.2100   31.9560   47.1450 C   0  0  0  0  0  0  0  0  0  0  0  0
   60.9980   33.3360   47.1040 C   0  0  0  0  0  0  0  0  0  0  0  0
   59.7840   33.8740   47.5400 C   0  0  0  0  0  0  0  0  0  0  0  0
   58.7830   33.0320   48.0290 C   0  0  0  0  0  0  0  0  0  0  0  0
   58.9920   31.6500   48.0810 C   0  0  0  0  0  0  0  0  0  0  0  0
   56.6210   29.4640   43.4120 C   0  0  0  0  0  0  0  0  0  0  0  0
   56.4810   30.8160   43.7400 C   0  0  0  0  0  0  0  0  0  0  0  0
   58.6488   34.2254   45.4925 H   0  0  0  0  0  0  0  0  0  0  0  0
   59.1308   33.4326   43.9544 H   0  0  0  0  0  0  0  0  0  0  0  0
   57.8422   34.6841   43.9544 H   0  0  0  0  0  0  0  0  0  0  0  0
   59.4469   31.2952   45.3678 H   0  0  0  0  0  0  0  0  0  0  0  0
   59.7017   28.8896   44.7807 H   0  0  0  0  0  0  0  0  0  0  0  0
   57.2160   26.5430   45.2840 H   0  0  0  0  0  0  0  0  0  0  0  0
   56.8215   24.8230   42.9484 H   0  0  0  0  0  0  0  0  0  0  0  0
   58.4364   24.5460   43.7241 H   0  0  0  0  0  0  0  0  0  0  0  0
   55.8552   23.5394   44.5167 H   0  0  0  0  0  0  0  0  0  0  0  0
   57.4885   23.2516   45.2538 H   0  0  0  0  0  0  0  0  0  0  0  0
   59.9430   26.8370   48.1150 H   0  0  0  0  0  0  0  0  0  0  0  0
   58.3273   29.3996   48.1516 H   0  0  0  0  0  0  0  0  0  0  0  0
   59.4802   28.8637   49.4437 H   0  0  0  0  0  0  0  0  0  0  0  0
   61.3578   29.3900   48.1893 H   0  0  0  0  0  0  0  0  0  0  0  0
   60.4584   29.2556   46.6177 H   0  0  0  0  0  0  0  0  0  0  0  0
   62.1636   31.5369   46.7914 H   0  0  0  0  0  0  0  0  0  0  0  0
   61.7889   34.0013   46.7274 H   0  0  0  0  0  0  0  0  0  0  0  0
   59.6171   34.9604   47.4980 H   0  0  0  0  0  0  0  0  0  0  0  0
   57.8285   33.4563   48.3739 H   0  0  0  0  0  0  0  0  0  0  0  0
   58.2025   30.9904   48.4705 H   0  0  0  0  0  0  0  0  0  0  0  0
   55.8156   28.9482   42.8685 H   0  0  0  0  0  0  0  0  0  0  0  0
   55.5690   31.3567   43.4468 H   0  0  0  0  0  0  0  0  0  0  0  0
  1  2  1  0
  2  3  1  0
  3  4  2  0
  4  5  1  0
  5  6  2  0
  6  7  1  0
  7  8  2  0
  7  9  1  0
  9 10  1  0
 10 11  1  0
 11 12  1  0
 12 13  2  0
 12 14  2  0
 12 15  1  0
 15 16  1  0
 16 17  2  0
 16 18  1  0
 18 19  1  0
 19 20  1  0
 20 21  1  0
 21 22  2  0
 22 23  1  0
 23 24  2  0
 24 25  1  0
 25 26  2  0
  6 27  1  0
 27 28  2  0
 28  3  1  0
 26 21  1  0
  1 29  1  0
  1 30  1  0
  1 31  1  0
  4 32  1  0
  5 33  1  0
  9 34  1  0
 10 35  1  0
 10 36  1  0
 11 37  1  0
 11 38  1  0
 18 39  1  0
 19 40  1  0
 19 41  1  0
 20 42  1  0
 20 43  1  0
 22 44  1  0
 23 45  1  0
 24 46  1  0
 25 47  1  0
 26 48  1  0
 27 49  1  0
 28 50  1  0
M  CHG  1  15  -1
M  END
>  <UniqueID>  (79) 
73

>  <SMILES>  (79) 
COc1ccc(C(=O)NCCS(=O)(=O)[N-]C(=O)NCCc2ccccc2)cc1

>  <Energy>  (79) 
37.917225218420015

>  <Genealogy>  (79) 
COc1ccc(C(=O)NCCS(=O)(=O)[N-]C(=O)NCCc2ccccc2)cc1 (protonated)
COc1ccc(C(=O)NCCS(=O)(=O)[N-]C(=O)NCCc2ccccc2)cc1 (3D coordinates assigned)
COc1ccc(C(=O)NCCS(=O)(=O)[N-]C(=O)NCCc2ccccc2)cc1 (optimized conformer: 37.917225218420015 kcal/mol)

>  <smiles>  (79) 
COc1ccc(C(=O)NCCS(=O)(=O)NC(=O)NCCc2ccccc2)cc1

>  <score_type>  (79) 
oracle

>  <origin>  (79) 
adg

>  <m_score__min__energy>  (79) 
-9.5700000000000003

>  <m_primary>  (79) 
energy

$$$$
80:0
     RDKit          3D

 42 43  0  0  0  0  0  0  0  0999 V2000
   54.7610   26.3400   45.8910 N   0  0  0  0  0  0  0  0  0  0  0  0
   56.1600   25.3550   46.1310 S   0  0  0  0  0  0  0  0  0  0  0  0
   56.1300   24.7850   47.5190 O   0  0  0  0  0  0  0  0  0  0  0  0
   56.1510   24.2240   45.1420 O   0  0  0  0  0  0  0  0  0  0  0  0
   57.6130   26.3210   45.8940 C   0  0  0  0  0  0  0  0  0  0  0  0
   57.8730   26.8740   44.6340 C   0  0  0  0  0  0  0  0  0  0  0  0
   59.0170   27.6460   44.4280 C   0  0  0  0  0  0  0  0  0  0  0  0
   59.9140   27.8620   45.4800 C   0  0  0  0  0  0  0  0  0  0  0  0
   59.6840   27.2920   46.7380 C   0  0  0  0  0  0  0  0  0  0  0  0
   60.6370   27.5310   47.7830 N   0  0  0  0  0  0  0  0  0  0  0  0
   60.3510   27.8340   49.1540 C   0  0  0  0  0  0  0  0  0  0  0  0
   60.6630   27.0330   50.0740 O   0  0  0  0  0  0  0  0  0  0  0  0
   59.6640   29.1190   49.4920 C   0  0  0  0  0  0  0  0  0  0  0  0
   59.7050   30.0170   48.3410 N   0  0  0  0  0  0  0  0  0  0  0  0
   59.2150   31.3640   48.4090 C   0  0  0  0  0  0  0  0  0  0  0  0
   58.3980   31.7010   49.3100 O   0  0  0  0  0  0  0  0  0  0  0  0
   59.7450   32.3990   47.4650 C   0  0  0  0  0  0  0  0  0  0  0  0
   58.9150   32.3990   46.2090 C   0  0  0  0  0  0  0  0  0  0  0  0
   58.9830   33.4810   45.3190 C   0  0  0  0  0  0  0  0  0  0  0  0
   58.2440   33.4640   44.1350 C   0  0  0  0  0  0  0  0  0  0  0  0
   57.4480   32.3620   43.8190 C   0  0  0  0  0  0  0  0  0  0  0  0
   57.4040   31.2480   44.6760 C   0  0  0  0  0  0  0  0  0  0  0  0
   56.5190   30.0650   44.3650 C   0  0  0  0  0  0  0  0  0  0  0  0
   56.5210   29.2010   45.4430 F   0  0  0  0  0  0  0  0  0  0  0  0
   56.9880   29.3960   43.2490 F   0  0  0  0  0  0  0  0  0  0  0  0
   55.2180   30.4680   44.1150 F   0  0  0  0  0  0  0  0  0  0  0  0
   58.1260   31.2840   45.8810 C   0  0  0  0  0  0  0  0  0  0  0  0
   58.5100   26.5410   46.9500 C   0  0  0  0  0  0  0  0  0  0  0  0
   54.7760   27.0820   46.6240 H   0  0  0  0  0  0  0  0  0  0  0  0
   57.1729   26.6992   43.8037 H   0  0  0  0  0  0  0  0  0  0  0  0
   59.2137   28.0848   43.4386 H   0  0  0  0  0  0  0  0  0  0  0  0
   60.8064   28.4842   45.3175 H   0  0  0  0  0  0  0  0  0  0  0  0
   58.6167   28.9144   49.7590 H   0  0  0  0  0  0  0  0  0  0  0  0
   60.1762   29.5931   50.3422 H   0  0  0  0  0  0  0  0  0  0  0  0
   60.2370   29.7120   47.4950 H   0  0  0  0  0  0  0  0  0  0  0  0
   59.6932   33.3900   47.9396 H   0  0  0  0  0  0  0  0  0  0  0  0
   60.7911   32.1684   47.2152 H   0  0  0  0  0  0  0  0  0  0  0  0
   59.6207   34.3457   45.5549 H   0  0  0  0  0  0  0  0  0  0  0  0
   58.2891   34.3223   43.4485 H   0  0  0  0  0  0  0  0  0  0  0  0
   56.8518   32.3649   42.8946 H   0  0  0  0  0  0  0  0  0  0  0  0
   58.0729   30.4312   46.5738 H   0  0  0  0  0  0  0  0  0  0  0  0
   58.2966   26.1263   47.9462 H   0  0  0  0  0  0  0  0  0  0  0  0
  1  2  1  0
  2  3  2  0
  2  4  2  0
  2  5  1  0
  5  6  2  0
  6  7  1  0
  7  8  2  0
  8  9  1  0
  9 10  1  0
 10 11  1  0
 11 12  2  0
 11 13  1  0
 13 14  1  0
 14 15  1  0
 15 16  2  0
 15 17  1  0
 17 18  1  0
 18 19  2  0
 19 20  1  0
 20 21  2  0
 21 22  1  0
 22 23  1  0
 23 24  1  0
 23 25  1  0
 23 26  1  0
 22 27  2  0
  9 28  2  0
 28  5  1  0
 27 18  1  0
  1 29  1  0
  6 30  1  0
  7 31  1  0
  8 32  1  0
 13 33  1  0
 13 34  1  0
 14 35  1  0
 17 36  1  0
 17 37  1  0
 19 38  1  0
 20 39  1  0
 21 40  1  0
 27 41  1  0
 28 42  1  0
M  CHG  2   1  -1  10  -1
M  END
>  <UniqueID>  (80) 
74

>  <SMILES>  (80) 
[NH-]S(=O)(=O)c1cccc([N-]C(=O)CNC(=O)Cc2cccc(C(F)(F)F)c2)c1

>  <Energy>  (80) 
36.50314887495765

>  <Genealogy>  (80) 
[NH-]S(=O)(=O)c1cccc([N-]C(=O)CNC(=O)Cc2cccc(C(F)(F)F)c2)c1 (protonated)
[NH-]S(=O)(=O)c1cccc([N-]C(=O)CNC(=O)Cc2cccc(C(F)(F)F)c2)c1 (3D coordinates assigned)
[NH-]S(=O)(=O)c1cccc([N-]C(=O)CNC(=O)Cc2cccc(C(F)(F)F)c2)c1 (optimized conformer: 36.50314887495765 kcal/mol)

>  <smiles>  (80) 
NS(=O)(=O)c1cccc(NC(=O)CNC(=O)Cc2cccc(C(F)(F)F)c2)c1

>  <score_type>  (80) 
oracle

>  <origin>  (80) 
adg

>  <m_score__min__energy>  (80) 
-12.83

>  <m_primary>  (80) 
energy

$$$$
81:0
     RDKit          3D

 39 41  0  0  0  0  0  0  0  0999 V2000
   59.6380   35.1670   45.6720 C   0  0  0  0  0  0  0  0  0  0  0  0
   58.8310   34.0280   45.1480 C   0  0  0  0  0  0  0  0  0  0  0  0
   57.9580   33.2480   45.8750 C   0  0  0  0  0  0  0  0  0  0  0  0
   57.4970   32.3540   44.9360 C   0  0  0  0  0  0  0  0  0  0  0  0
   56.6730   31.3830   45.1850 N   0  0  0  0  0  0  0  0  0  0  0  0
   56.5920   29.9290   44.2400 S   0  0  0  0  0  0  0  0  0  0  0  0
   55.2010   29.3690   44.3150 O   0  0  0  0  0  0  0  0  0  0  0  0
   56.9110   30.2650   42.8090 O   0  0  0  0  0  0  0  0  0  0  0  0
   57.7250   28.7200   44.8590 C   0  0  0  0  0  0  0  0  0  0  0  0
   59.1030   28.8990   44.6610 C   0  0  0  0  0  0  0  0  0  0  0  0
   60.0180   27.9880   45.1950 C   0  0  0  0  0  0  0  0  0  0  0  0
   59.5660   26.8910   45.9300 C   0  0  0  0  0  0  0  0  0  0  0  0
   58.1970   26.6980   46.1270 C   0  0  0  0  0  0  0  0  0  0  0  0
   57.2680   27.6060   45.5940 C   0  0  0  0  0  0  0  0  0  0  0  0
   55.8620   27.3860   45.7670 N   0  0  0  0  0  0  0  0  0  0  0  0
   55.2640   26.0920   45.8780 C   0  0  0  0  0  0  0  0  0  0  0  0
   54.0320   25.9660   45.6520 O   0  0  0  0  0  0  0  0  0  0  0  0
   56.0340   24.9840   46.3600 N   0  0  0  0  0  0  0  0  0  0  0  0
   56.5450   23.9060   45.5640 C   0  0  0  0  0  0  0  0  0  0  0  0
   56.3270   23.9350   44.1810 C   0  0  0  0  0  0  0  0  0  0  0  0
   56.8110   22.9060   43.3670 C   0  0  0  0  0  0  0  0  0  0  0  0
   57.4990   21.8310   43.9350 C   0  0  0  0  0  0  0  0  0  0  0  0
   57.6890   21.7750   45.3180 C   0  0  0  0  0  0  0  0  0  0  0  0
   57.2070   22.8030   46.1380 C   0  0  0  0  0  0  0  0  0  0  0  0
   57.3400   22.6860   47.4830 F   0  0  0  0  0  0  0  0  0  0  0  0
   58.0560   32.5940   43.7340 N   0  0  0  0  0  0  0  0  0  0  0  0
   58.8530   33.6100   43.9020 O   0  0  0  0  0  0  0  0  0  0  0  0
   59.6257   35.1497   46.7718 H   0  0  0  0  0  0  0  0  0  0  0  0
   60.6747   35.0766   45.3154 H   0  0  0  0  0  0  0  0  0  0  0  0
   59.2090   36.1150   45.3154 H   0  0  0  0  0  0  0  0  0  0  0  0
   57.6951   33.3217   46.9406 H   0  0  0  0  0  0  0  0  0  0  0  0
   59.4647   29.7615   44.0820 H   0  0  0  0  0  0  0  0  0  0  0  0
   61.0964   28.1356   45.0358 H   0  0  0  0  0  0  0  0  0  0  0  0
   60.2884   26.1782   46.3543 H   0  0  0  0  0  0  0  0  0  0  0  0
   57.8444   25.8297   46.7030 H   0  0  0  0  0  0  0  0  0  0  0  0
   55.7719   24.7720   43.7323 H   0  0  0  0  0  0  0  0  0  0  0  0
   56.6500   22.9431   42.2795 H   0  0  0  0  0  0  0  0  0  0  0  0
   57.8913   21.0284   43.2932 H   0  0  0  0  0  0  0  0  0  0  0  0
   58.2189   20.9206   45.7643 H   0  0  0  0  0  0  0  0  0  0  0  0
  1  2  1  0
  2  3  2  0
  3  4  1  0
  4  5  2  3
  5  6  1  0
  6  7  2  0
  6  8  2  0
  6  9  1  0
  9 10  2  0
 10 11  1  0
 11 12  2  0
 12 13  1  0
 13 14  2  0
 14 15  1  0
 15 16  1  0
 16 17  2  0
 16 18  1  0
 18 19  1  0
 19 20  2  0
 20 21  1  0
 21 22  2  0
 22 23  1  0
 23 24  2  0
 24 25  1  0
  4 26  1  0
 26 27  1  0
 27  2  1  0
 14  9  1  0
 24 19  1  0
  1 28  1  0
  1 29  1  0
  1 30  1  0
  3 31  1  0
 10 32  1  0
 11 33  1  0
 12 34  1  0
 13 35  1  0
 20 36  1  0
 21 37  1  0
 22 38  1  0
 23 39  1  0
M  CHG  3  15  -1  18  -1  26  -1
M  END
>  <UniqueID>  (81) 
75

>  <SMILES>  (81) 
Cc1cc(=NS(=O)(=O)c2ccccc2[N-]C(=O)[N-]c2ccccc2F)[n-]o1

>  <Energy>  (81) 
81.53510053364056

>  <Genealogy>  (81) 
Cc1cc(=NS(=O)(=O)c2ccccc2[N-]C(=O)[N-]c2ccccc2F)[n-]o1 (protonated)
Cc1cc(=NS(=O)(=O)c2ccccc2[N-]C(=O)[N-]c2ccccc2F)[n-]o1 (3D coordinates assigned)
Cc1cc(=NS(=O)(=O)c2ccccc2[N-]C(=O)[N-]c2ccccc2F)[n-]o1 (optimized conformer: 81.53510053364056 kcal/mol)

>  <smiles>  (81) 
Cc1cc(=NS(=O)(=O)c2ccccc2NC(=O)Nc2ccccc2F)[nH]o1

>  <score_type>  (81) 
oracle

>  <origin>  (81) 
adg

>  <m_score__min__energy>  (81) 
-14.31

>  <m_primary>  (81) 
energy

$$$$
82:0
     RDKit          3D

 50 52  0  0  0  0  0  0  0  0999 V2000
   57.7730   26.3770   42.6880 C   0  0  0  0  0  0  0  0  0  0  0  0
   58.3130   27.2360   44.1560 S   0  0  0  0  0  0  0  0  0  0  0  0
   57.2960   28.2990   44.4610 O   0  0  0  0  0  0  0  0  0  0  0  0
   59.6200   27.9120   43.8440 O   0  0  0  0  0  0  0  0  0  0  0  0
   58.4880   26.2220   45.5770 N   0  0  0  0  0  0  0  0  0  0  0  0
   57.5940   26.5750   46.6920 C   0  0  0  0  0  0  0  0  0  0  0  0
   58.0970   27.7860   47.4670 C   0  0  0  0  0  0  0  0  0  0  0  0
   59.4880   27.5840   47.8700 N   0  0  0  0  0  0  0  0  0  0  0  0
   59.9750   28.3460   48.9850 C   0  0  0  0  0  0  0  0  0  0  0  0
   60.7210   27.7100   49.9840 C   0  0  0  0  0  0  0  0  0  0  0  0
   61.1690   28.4310   51.0930 C   0  0  0  0  0  0  0  0  0  0  0  0
   60.8730   29.7920   51.2090 C   0  0  0  0  0  0  0  0  0  0  0  0
   60.1250   30.4350   50.2190 C   0  0  0  0  0  0  0  0  0  0  0  0
   59.6590   29.7130   49.1060 C   0  0  0  0  0  0  0  0  0  0  0  0
   58.9130   30.3450   48.0580 N   0  0  0  0  0  0  0  0  0  0  0  0
   59.4100   30.7920   46.7940 C   0  0  0  0  0  0  0  0  0  0  0  0
   59.9870   29.9910   46.0090 O   0  0  0  0  0  0  0  0  0  0  0  0
   59.2770   32.2140   46.4400 C   0  0  0  0  0  0  0  0  0  0  0  0
   59.9670   33.1550   47.2240 C   0  0  0  0  0  0  0  0  0  0  0  0
   59.8870   34.5160   46.9330 C   0  0  0  0  0  0  0  0  0  0  0  0
   59.1250   34.9570   45.8530 C   0  0  0  0  0  0  0  0  0  0  0  0
   58.4520   34.0340   45.0480 C   0  0  0  0  0  0  0  0  0  0  0  0
   58.5270   32.6570   45.3210 C   0  0  0  0  0  0  0  0  0  0  0  0
   57.7590   31.5250   44.1920 S   0  0  0  0  0  0  0  0  0  0  0  0
   58.8550   30.2400   43.8120 N   0  0  0  0  0  0  0  0  0  0  0  0
   56.5010   30.9700   44.7980 O   0  0  0  0  0  0  0  0  0  0  0  0
   57.4020   32.2360   42.9170 O   0  0  0  0  0  0  0  0  0  0  0  0
   60.4620   27.1020   46.8870 C   0  0  0  0  0  0  0  0  0  0  0  0
   59.8820   25.9890   45.9950 C   0  0  0  0  0  0  0  0  0  0  0  0
   57.2080   25.4782   42.9760 H   0  0  0  0  0  0  0  0  0  0  0  0
   57.1287   27.0396   42.0915 H   0  0  0  0  0  0  0  0  0  0  0  0
   58.6494   26.0836   42.0915 H   0  0  0  0  0  0  0  0  0  0  0  0
   56.5959   26.8013   46.2887 H   0  0  0  0  0  0  0  0  0  0  0  0
   57.5601   25.7200   47.3833 H   0  0  0  0  0  0  0  0  0  0  0  0
   58.0294   28.6796   46.8291 H   0  0  0  0  0  0  0  0  0  0  0  0
   57.4780   27.9196   48.3664 H   0  0  0  0  0  0  0  0  0  0  0  0
   60.9552   26.6389   49.8954 H   0  0  0  0  0  0  0  0  0  0  0  0
   61.7552   27.9274   51.8757 H   0  0  0  0  0  0  0  0  0  0  0  0
   61.2297   30.3585   52.0818 H   0  0  0  0  0  0  0  0  0  0  0  0
   59.9004   31.5079   50.3106 H   0  0  0  0  0  0  0  0  0  0  0  0
   60.5755   32.8143   48.0747 H   0  0  0  0  0  0  0  0  0  0  0  0
   60.4266   35.2433   47.5573 H   0  0  0  0  0  0  0  0  0  0  0  0
   59.0531   36.0326   45.6339 H   0  0  0  0  0  0  0  0  0  0  0  0
   57.8580   34.3883   44.1927 H   0  0  0  0  0  0  0  0  0  0  0  0
   58.9860   29.6690   44.6760 H   0  0  0  0  0  0  0  0  0  0  0  0
   58.3740   29.6200   43.1220 H   0  0  0  0  0  0  0  0  0  0  0  0
   60.7687   27.9441   46.2492 H   0  0  0  0  0  0  0  0  0  0  0  0
   61.3190   26.6844   47.4358 H   0  0  0  0  0  0  0  0  0  0  0  0
   60.5052   25.9091   45.0921 H   0  0  0  0  0  0  0  0  0  0  0  0
   59.8849   25.0666   46.5942 H   0  0  0  0  0  0  0  0  0  0  0  0
  1  2  1  0
  2  3  2  0
  2  4  2  0
  2  5  1  0
  5  6  1  0
  6  7  1  0
  7  8  1  0
  8  9  1  0
  9 10  2  0
 10 11  1  0
 11 12  2  0
 12 13  1  0
 13 14  2  0
 14 15  1  0
 15 16  1  0
 16 17  2  0
 16 18  1  0
 18 19  2  0
 19 20  1  0
 20 21  2  0
 21 22  1  0
 22 23  2  0
 23 24  1  0
 24 25  1  0
 24 26  2  0
 24 27  2  0
  8 28  1  0
 28 29  1  0
 29  5  1  0
 14  9  1  0
 23 18  1  0
  1 30  1  0
  1 31  1  0
  1 32  1  0
  6 33  1  0
  6 34  1  0
  7 35  1  0
  7 36  1  0
 10 37  1  0
 11 38  1  0
 12 39  1  0
 13 40  1  0
 19 41  1  0
 20 42  1  0
 21 43  1  0
 22 44  1  0
 25 45  1  0
 25 46  1  0
 28 47  1  0
 28 48  1  0
 29 49  1  0
 29 50  1  0
M  CHG  1  15  -1
M  END
>  <UniqueID>  (82) 
76

>  <SMILES>  (82) 
CS(=O)(=O)N1CCN(c2ccccc2[N-]C(=O)c2ccccc2S(N)(=O)=O)CC1

>  <Energy>  (82) 
64.85169528317468

>  <Genealogy>  (82) 
CS(=O)(=O)N1CCN(c2ccccc2[N-]C(=O)c2ccccc2S(N)(=O)=O)CC1 (protonated)
CS(=O)(=O)N1CCN(c2ccccc2[N-]C(=O)c2ccccc2S(N)(=O)=O)CC1 (3D coordinates assigned)
CS(=O)(=O)N1CCN(c2ccccc2[N-]C(=O)c2ccccc2S(N)(=O)=O)CC1 (nonaromatic ring conformer: 64.85169528317468 kcal/mol)

>  <smiles>  (82) 
CS(=O)(=O)N1CCN(c2ccccc2NC(=O)c2ccccc2S(N)(=O)=O)CC1

>  <score_type>  (82) 
oracle

>  <origin>  (82) 
adg

>  <m_score__min__energy>  (82) 
-9.7799999999999994

>  <m_primary>  (82) 
energy

$$$$
83:0
     RDKit          3D

 35 37  0  0  0  0  0  0  0  0999 V2000
   58.1644   21.3147   43.8771 H   0  0  0  0  0  0  0  0  0  0  0  0
   57.8450   22.3060   44.2310 C   0  0  0  0  0  0  0  0  0  0  0  0
   58.5940   22.9760   45.2020 C   0  0  0  0  0  0  0  0  0  0  0  0
   59.5041   22.5124   45.6105 H   0  0  0  0  0  0  0  0  0  0  0  0
   58.1880   24.2350   45.6550 C   0  0  0  0  0  0  0  0  0  0  0  0
   58.7846   24.7608   46.4150 H   0  0  0  0  0  0  0  0  0  0  0  0
   57.0210   24.8340   45.1450 C   0  0  0  0  0  0  0  0  0  0  0  0
   56.5960   26.1720   45.6280 C   0  0  0  0  0  0  0  0  0  0  0  0
   55.4350   26.3210   46.0930 O   0  0  0  0  0  0  0  0  0  0  0  0
   57.4940   27.2900   45.6540 N   0  0  0  0  0  0  0  0  0  0  0  0
   57.2660   28.4610   45.1330 C   0  0  0  0  0  0  0  0  0  0  0  0
   58.4880   29.5060   44.6460 S   0  0  0  0  0  0  0  0  0  0  0  0
   57.3990   30.6990   44.1630 C   0  0  0  0  0  0  0  0  0  0  0  0
   57.7720   32.0550   43.6560 C   0  0  0  0  0  0  0  0  0  0  0  0
   58.5327   31.9525   42.8681 H   0  0  0  0  0  0  0  0  0  0  0  0
   56.8762   32.5467   43.2488 H   0  0  0  0  0  0  0  0  0  0  0  0
   58.3260   32.8900   44.7770 C   0  0  0  0  0  0  0  0  0  0  0  0
   58.8520   34.1660   44.5160 C   0  0  0  0  0  0  0  0  0  0  0  0
   58.8865   34.5438   43.4835 H   0  0  0  0  0  0  0  0  0  0  0  0
   59.3320   34.9580   45.5640 C   0  0  0  0  0  0  0  0  0  0  0  0
   59.7494   35.9537   45.3535 H   0  0  0  0  0  0  0  0  0  0  0  0
   59.2820   34.4860   46.8780 C   0  0  0  0  0  0  0  0  0  0  0  0
   59.6637   35.1089   47.7004 H   0  0  0  0  0  0  0  0  0  0  0  0
   58.7470   33.2220   47.1490 C   0  0  0  0  0  0  0  0  0  0  0  0
   58.6740   32.6360   48.8010 Cl  0  0  0  0  0  0  0  0  0  0  0  0
   58.2670   32.4270   46.1020 C   0  0  0  0  0  0  0  0  0  0  0  0
   57.8418   31.4356   46.3174 H   0  0  0  0  0  0  0  0  0  0  0  0
   56.1060   30.2570   44.4270 C   0  0  0  0  0  0  0  0  0  0  0  0
   55.2138   30.8657   44.2186 H   0  0  0  0  0  0  0  0  0  0  0  0
   56.0380   29.0100   44.9640 N   0  0  0  0  0  0  0  0  0  0  0  0
   55.1350   28.5670   45.2410 H   0  0  0  0  0  0  0  0  0  0  0  0
   56.2810   24.1540   44.1600 C   0  0  0  0  0  0  0  0  0  0  0  0
   55.3745   24.6156   43.7414 H   0  0  0  0  0  0  0  0  0  0  0  0
   56.6910   22.8950   43.7100 C   0  0  0  0  0  0  0  0  0  0  0  0
   56.1033   22.3676   42.9441 H   0  0  0  0  0  0  0  0  0  0  0  0
  1  2  1  0
  2  3  2  0
  3  4  1  0
  3  5  1  0
  5  6  1  0
  5  7  2  0
  7  8  1  0
  8  9  2  0
  8 10  1  0
 10 11  2  0
 11 12  1  0
 12 13  1  0
 13 14  1  0
 14 15  1  0
 14 16  1  0
 14 17  1  0
 17 18  2  0
 18 19  1  0
 18 20  1  0
 20 21  1  0
 20 22  2  0
 22 23  1  0
 22 24  1  0
 24 25  1  0
 24 26  2  0
 26 27  1  0
 13 28  2  0
 28 29  1  0
 28 30  1  0
 30 31  1  0
  7 32  1  0
 32 33  1  0
 32 34  2  0
 34 35  1  0
 34  2  1  0
 30 11  1  0
 26 17  1  0
M  END
>  <UniqueID>  (83) 
77

>  <SMILES>  (83) 
O=C(/N=c1\[nH]cc(Cc2cccc(Cl)c2)s1)c1ccccc1

>  <Energy>  (83) 
73.84673354474515

>  <Genealogy>  (83) 
O=C(/N=c1\[nH]cc(Cc2cccc(Cl)c2)s1)c1ccccc1 (cis-trans isomerization)
O=C(/N=c1\[nH]cc(Cc2cccc(Cl)c2)s1)c1ccccc1 (3D coordinates assigned)
O=C(/N=c1\[nH]cc(Cc2cccc(Cl)c2)s1)c1ccccc1 (optimized conformer: 73.84673354474515 kcal/mol)

>  <smiles>  (83) 
O=C(N=c1[nH]cc(Cc2cccc(Cl)c2)s1)c1ccccc1

>  <score_type>  (83) 
oracle

>  <origin>  (83) 
adg

>  <m_score__min__energy>  (83) 
-9.0600000000000005

>  <m_primary>  (83) 
energy

$$$$
84:0
     RDKit          3D

 61 64  0  0  0  0  0  0  0  0999 V2000
   56.1050   27.7580   45.5720 O   0  0  0  0  0  0  0  0  0  0  0  0
   56.5770   26.7970   46.2370 C   0  0  0  0  0  0  0  0  0  0  0  0
   55.8490   25.5690   46.3540 N   0  0  0  0  0  0  0  0  0  0  0  0
   56.0370   24.3880   45.5590 C   0  0  0  0  0  0  0  0  0  0  0  0
   55.7560   23.1410   46.1320 C   0  0  0  0  0  0  0  0  0  0  0  0
   55.9410   21.9660   45.3960 C   0  0  0  0  0  0  0  0  0  0  0  0
   56.4280   22.0280   44.0880 C   0  0  0  0  0  0  0  0  0  0  0  0
   56.7350   23.2660   43.5170 C   0  0  0  0  0  0  0  0  0  0  0  0
   56.5470   24.4440   44.2480 C   0  0  0  0  0  0  0  0  0  0  0  0
   57.8060   26.9510   46.9600 N   0  0  0  0  0  0  0  0  0  0  0  0
   58.7080   28.0590   46.7920 C   0  0  0  0  0  0  0  0  0  0  0  0
   58.9970   28.5810   45.5190 C   0  0  0  0  0  0  0  0  0  0  0  0
   59.8920   29.6450   45.3810 C   0  0  0  0  0  0  0  0  0  0  0  0
   60.5160   30.1890   46.5050 C   0  0  0  0  0  0  0  0  0  0  0  0
   60.2540   29.6650   47.7810 C   0  0  0  0  0  0  0  0  0  0  0  0
   60.9200   30.2470   49.0020 C   0  0  0  0  0  0  0  0  0  0  0  0
   60.2790   31.5220   49.3810 N   0  0  0  0  0  0  0  0  0  0  0  0
   58.8290   31.5430   49.0440 C   0  0  0  0  0  0  0  0  0  0  0  0
   58.5230   32.3530   47.7780 C   0  0  0  0  0  0  0  0  0  0  0  0
   58.9610   33.8230   47.9500 C   0  0  0  0  0  0  0  0  0  0  0  0
   59.1570   34.4590   46.6000 C   0  0  0  0  0  0  0  0  0  0  0  0
   60.1300   35.2390   46.4020 O   0  0  0  0  0  0  0  0  0  0  0  0
   58.2670   34.1280   45.5290 N   0  0  0  0  0  0  0  0  0  0  0  0
   58.7140   33.6110   44.2410 C   0  0  0  0  0  0  0  0  0  0  0  0
   57.9180   32.3910   43.8640 C   0  0  0  0  0  0  0  0  0  0  0  0
   57.7540   32.0500   42.5100 C   0  0  0  0  0  0  0  0  0  0  0  0
   56.9940   30.9320   42.1530 C   0  0  0  0  0  0  0  0  0  0  0  0
   56.3910   30.1490   43.1420 C   0  0  0  0  0  0  0  0  0  0  0  0
   56.5460   30.4840   44.4900 C   0  0  0  0  0  0  0  0  0  0  0  0
   57.3050   31.6020   44.8530 C   0  0  0  0  0  0  0  0  0  0  0  0
   60.2200   33.9600   48.8410 C   0  0  0  0  0  0  0  0  0  0  0  0
   61.0480   32.6680   48.8370 C   0  0  0  0  0  0  0  0  0  0  0  0
   59.3570   28.5930   47.9140 C   0  0  0  0  0  0  0  0  0  0  0  0
   55.3876   23.0855   47.1670 H   0  0  0  0  0  0  0  0  0  0  0  0
   55.7027   20.9917   45.8477 H   0  0  0  0  0  0  0  0  0  0  0  0
   56.5696   21.1038   43.5085 H   0  0  0  0  0  0  0  0  0  0  0  0
   57.1256   23.3144   42.4898 H   0  0  0  0  0  0  0  0  0  0  0  0
   56.7981   25.4156   43.7976 H   0  0  0  0  0  0  0  0  0  0  0  0
   58.0100   26.2570   47.7140 H   0  0  0  0  0  0  0  0  0  0  0  0
   58.5166   28.1501   44.6282 H   0  0  0  0  0  0  0  0  0  0  0  0
   60.1057   30.0555   44.3831 H   0  0  0  0  0  0  0  0  0  0  0  0
   61.2150   31.0306   46.3907 H   0  0  0  0  0  0  0  0  0  0  0  0
   60.8323   29.5354   49.8363 H   0  0  0  0  0  0  0  0  0  0  0  0
   61.9797   30.4348   48.7744 H   0  0  0  0  0  0  0  0  0  0  0  0
   58.4894   30.5082   48.8894 H   0  0  0  0  0  0  0  0  0  0  0  0
   58.3023   32.0256   49.8805 H   0  0  0  0  0  0  0  0  0  0  0  0
   59.0645   31.9123   46.9280 H   0  0  0  0  0  0  0  0  0  0  0  0
   57.4385   32.3268   47.5956 H   0  0  0  0  0  0  0  0  0  0  0  0
   58.1585   34.3601   48.4768 H   0  0  0  0  0  0  0  0  0  0  0  0
   58.5775   34.3854   43.4718 H   0  0  0  0  0  0  0  0  0  0  0  0
   59.7767   33.3366   44.3146 H   0  0  0  0  0  0  0  0  0  0  0  0
   58.2251   32.6648   41.7289 H   0  0  0  0  0  0  0  0  0  0  0  0
   56.8703   30.6680   41.0923 H   0  0  0  0  0  0  0  0  0  0  0  0
   55.7945   29.2691   42.8591 H   0  0  0  0  0  0  0  0  0  0  0  0
   56.0704   29.8676   45.2670 H   0  0  0  0  0  0  0  0  0  0  0  0
   57.4223   31.8642   45.9148 H   0  0  0  0  0  0  0  0  0  0  0  0
   60.8405   34.7847   48.4604 H   0  0  0  0  0  0  0  0  0  0  0  0
   59.8956   34.1617   49.8725 H   0  0  0  0  0  0  0  0  0  0  0  0
   61.3461   32.4388   47.8033 H   0  0  0  0  0  0  0  0  0  0  0  0
   61.9297   32.8237   49.4761 H   0  0  0  0  0  0  0  0  0  0  0  0
   59.1614   28.1676   48.9094 H   0  0  0  0  0  0  0  0  0  0  0  0
  1  2  2  0
  2  3  1  0
  3  4  1  0
  4  5  2  0
  5  6  1  0
  6  7  2  0
  7  8  1  0
  8  9  2  0
  2 10  1  0
 10 11  1  0
 11 12  2  0
 12 13  1  0
 13 14  2  0
 14 15  1  0
 15 16  1  0
 16 17  1  0
 17 18  1  0
 18 19  1  0
 19 20  1  0
 20 21  1  0
 21 22  2  0
 21 23  1  0
 23 24  1  0
 24 25  1  0
 25 26  2  0
 26 27  1  0
 27 28  2  0
 28 29  1  0
 29 30  2  0
 20 31  1  0
 31 32  1  0
 15 33  2  0
  9  4  1  0
 33 11  1  0
 32 17  1  0
 30 25  1  0
  5 34  1  0
  6 35  1  0
  7 36  1  0
  8 37  1  0
  9 38  1  0
 10 39  1  0
 12 40  1  0
 13 41  1  0
 14 42  1  0
 16 43  1  0
 16 44  1  0
 18 45  1  0
 18 46  1  0
 19 47  1  0
 19 48  1  0
 20 49  1  0
 24 50  1  0
 24 51  1  0
 26 52  1  0
 27 53  1  0
 28 54  1  0
 29 55  1  0
 30 56  1  0
 31 57  1  0
 31 58  1  0
 32 59  1  0
 32 60  1  0
 33 61  1  0
M  CHG  2   3  -1  23  -1
M  END
>  <UniqueID>  (84) 
78

>  <SMILES>  (84) 
O=C([N-]c1ccccc1)Nc1cccc(CN2CCC(C(=O)[N-]Cc3ccccc3)CC2)c1

>  <Energy>  (84) 
75.90735502182974

>  <Genealogy>  (84) 
O=C([N-]c1ccccc1)Nc1cccc(CN2CCC(C(=O)[N-]Cc3ccccc3)CC2)c1 (protonated)
O=C([N-]c1ccccc1)Nc1cccc(CN2CCC(C(=O)[N-]Cc3ccccc3)CC2)c1 (3D coordinates assigned)
O=C([N-]c1ccccc1)Nc1cccc(CN2CCC(C(=O)[N-]Cc3ccccc3)CC2)c1 (nonaromatic ring conformer: 75.90735502182974 kcal/mol)

>  <smiles>  (84) 
O=C(Nc1ccccc1)Nc1cccc(CN2CCC(C(=O)NCc3ccccc3)CC2)c1

>  <score_type>  (84) 
oracle

>  <origin>  (84) 
adg

>  <m_score__min__energy>  (84) 
-12.890000000000001

>  <m_primary>  (84) 
energy

$$$$
85:0
     RDKit          3D

 53 56  0  0  0  0  0  0  0  0999 V2000
   57.4210   31.7960   45.2940 C   0  0  0  0  0  0  0  0  0  0  0  0
   58.2320   33.0170   45.6080 C   0  0  0  0  0  0  0  0  0  0  0  0
   58.5410   33.9370   44.5950 C   0  0  0  0  0  0  0  0  0  0  0  0
   59.2590   35.0980   44.8960 C   0  0  0  0  0  0  0  0  0  0  0  0
   59.6550   35.3580   46.2090 C   0  0  0  0  0  0  0  0  0  0  0  0
   59.3190   34.4640   47.2360 C   0  0  0  0  0  0  0  0  0  0  0  0
   59.7110   34.7050   48.5890 N   0  0  0  0  0  0  0  0  0  0  0  0
   60.7260   33.6350   49.4980 S   0  0  0  0  0  0  0  0  0  0  0  0
   62.1640   33.9730   49.2240 O   0  0  0  0  0  0  0  0  0  0  0  0
   60.4630   33.8390   50.9630 O   0  0  0  0  0  0  0  0  0  0  0  0
   60.4110   31.9500   49.1020 C   0  0  0  0  0  0  0  0  0  0  0  0
   59.2850   31.3050   49.6260 C   0  0  0  0  0  0  0  0  0  0  0  0
   59.0080   29.9790   49.2820 C   0  0  0  0  0  0  0  0  0  0  0  0
   59.8490   29.2790   48.3970 C   0  0  0  0  0  0  0  0  0  0  0  0
   59.5520   27.8710   48.0390 C   0  0  0  0  0  0  0  0  0  0  0  0
   60.2810   26.9520   48.4990 O   0  0  0  0  0  0  0  0  0  0  0  0
   58.4200   27.5450   47.2120 N   0  0  0  0  0  0  0  0  0  0  0  0
   58.2870   26.3170   46.4680 C   0  0  0  0  0  0  0  0  0  0  0  0
   59.4910   25.1490   46.2830 S   0  0  0  0  0  0  0  0  0  0  0  0
   58.5590   24.0710   45.4030 C   0  0  0  0  0  0  0  0  0  0  0  0
   57.2940   24.6180   45.2000 C   0  0  0  0  0  0  0  0  0  0  0  0
   57.1270   25.8790   45.8150 C   0  0  0  0  0  0  0  0  0  0  0  0
   55.8720   26.6540   45.7480 C   0  0  0  0  0  0  0  0  0  0  0  0
   54.6110   26.0020   45.9060 N   0  0  0  0  0  0  0  0  0  0  0  0
   55.9020   27.8950   45.5280 O   0  0  0  0  0  0  0  0  0  0  0  0
   56.2280   23.8660   44.4420 C   0  0  0  0  0  0  0  0  0  0  0  0
   56.8280   22.7570   43.5600 C   0  0  0  0  0  0  0  0  0  0  0  0
   57.8560   21.9210   44.3410 C   0  0  0  0  0  0  0  0  0  0  0  0
   59.0410   22.7860   44.7970 C   0  0  0  0  0  0  0  0  0  0  0  0
   60.9830   29.9310   47.8810 C   0  0  0  0  0  0  0  0  0  0  0  0
   61.2580   31.2570   48.2290 C   0  0  0  0  0  0  0  0  0  0  0  0
   58.6220   33.2890   46.9290 C   0  0  0  0  0  0  0  0  0  0  0  0
   57.1024   31.3164   46.2313 H   0  0  0  0  0  0  0  0  0  0  0  0
   56.5346   32.0847   44.7102 H   0  0  0  0  0  0  0  0  0  0  0  0
   58.0309   31.0909   44.7102 H   0  0  0  0  0  0  0  0  0  0  0  0
   58.2175   33.7443   43.5614 H   0  0  0  0  0  0  0  0  0  0  0  0
   59.5127   35.8088   44.0958 H   0  0  0  0  0  0  0  0  0  0  0  0
   60.2318   36.2660   46.4387 H   0  0  0  0  0  0  0  0  0  0  0  0
   58.6149   31.8441   50.3118 H   0  0  0  0  0  0  0  0  0  0  0  0
   58.1253   29.4784   49.7065 H   0  0  0  0  0  0  0  0  0  0  0  0
   57.6380   28.2310   47.1830 H   0  0  0  0  0  0  0  0  0  0  0  0
   53.7620   26.3430   45.4010 H   0  0  0  0  0  0  0  0  0  0  0  0
   55.5329   23.4106   45.1628 H   0  0  0  0  0  0  0  0  0  0  0  0
   55.7071   24.5795   43.7866 H   0  0  0  0  0  0  0  0  0  0  0  0
   56.0190   22.0977   43.2124 H   0  0  0  0  0  0  0  0  0  0  0  0
   57.3379   23.2279   42.7066 H   0  0  0  0  0  0  0  0  0  0  0  0
   57.3676   21.4858   45.2254 H   0  0  0  0  0  0  0  0  0  0  0  0
   58.2362   21.1283   43.6798 H   0  0  0  0  0  0  0  0  0  0  0  0
   59.6259   22.2312   45.5454 H   0  0  0  0  0  0  0  0  0  0  0  0
   59.6645   23.0205   43.9216 H   0  0  0  0  0  0  0  0  0  0  0  0
   61.6585   29.3941   47.1988 H   0  0  0  0  0  0  0  0  0  0  0  0
   62.1449   31.7585   47.8145 H   0  0  0  0  0  0  0  0  0  0  0  0
   58.3783   32.5739   47.7286 H   0  0  0  0  0  0  0  0  0  0  0  0
  1  2  1  0
  2  3  2  0
  3  4  1  0
  4  5  2  0
  5  6  1  0
  6  7  1  0
  7  8  1  0
  8  9  2  0
  8 10  2  0
  8 11  1  0
 11 12  2  0
 12 13  1  0
 13 14  2  0
 14 15  1  0
 15 16  2  0
 15 17  1  0
 17 18  1  0
 18 19  1  0
 19 20  1  0
 20 21  2  0
 21 22  1  0
 22 23  1  0
 23 24  1  0
 23 25  2  0
 21 26  1  0
 26 27  1  0
 27 28  1  0
 28 29  1  0
 14 30  1  0
 30 31  2  0
  6 32  2  0
 32  2  1  0
 31 11  1  0
 22 18  2  0
 29 20  1  0
  1 33  1  0
  1 34  1  0
  1 35  1  0
  3 36  1  0
  4 37  1  0
  5 38  1  0
 12 39  1  0
 13 40  1  0
 17 41  1  0
 24 42  1  0
 26 43  1  0
 26 44  1  0
 27 45  1  0
 27 46  1  0
 28 47  1  0
 28 48  1  0
 29 49  1  0
 29 50  1  0
 30 51  1  0
 31 52  1  0
 32 53  1  0
M  CHG  2   7  -1  24  -1
M  END
>  <UniqueID>  (85) 
79

>  <SMILES>  (85) 
Cc1cccc([N-]S(=O)(=O)c2ccc(C(=O)Nc3sc4c(c3C([NH-])=O)CCCC4)cc2)c1

>  <Energy>  (85) 
97.61837859646928

>  <Genealogy>  (85) 
Cc1cccc([N-]S(=O)(=O)c2ccc(C(=O)Nc3sc4c(c3C([NH-])=O)CCCC4)cc2)c1 (protonated)
Cc1cccc([N-]S(=O)(=O)c2ccc(C(=O)Nc3sc4c(c3C([NH-])=O)CCCC4)cc2)c1 (3D coordinates assigned)
Cc1cccc([N-]S(=O)(=O)c2ccc(C(=O)Nc3sc4c(c3C([NH-])=O)CCCC4)cc2)c1 (nonaromatic ring conformer: 97.61837859646928 kcal/mol)

>  <smiles>  (85) 
Cc1cccc(NS(=O)(=O)c2ccc(C(=O)Nc3sc4c(c3C(N)=O)CCCC4)cc2)c1

>  <score_type>  (85) 
oracle

>  <origin>  (85) 
adg

>  <m_score__min__energy>  (85) 
-13.66

>  <m_primary>  (85) 
energy

$$$$
86:0
     RDKit          3D

 41 44  0  0  0  0  0  0  0  0999 V2000
   58.5650   32.4520   48.2120 O   0  0  0  0  0  0  0  0  0  0  0  0
   59.6510   32.4120   47.5730 C   0  0  0  0  0  0  0  0  0  0  0  0
   60.4740   33.6580   47.4460 C   0  0  0  0  0  0  0  0  0  0  0  0
   61.6650   33.5640   48.3030 N   0  0  0  0  0  0  0  0  0  0  0  0
   61.6510   34.1880   49.5230 C   0  0  0  0  0  0  0  0  0  0  0  0
   62.7700   34.1460   50.3570 C   0  0  0  0  0  0  0  0  0  0  0  0
   63.9140   33.4730   49.9370 C   0  0  0  0  0  0  0  0  0  0  0  0
   63.9300   32.8510   48.6900 C   0  0  0  0  0  0  0  0  0  0  0  0
   62.7940   32.9090   47.8740 C   0  0  0  0  0  0  0  0  0  0  0  0
   62.8270   32.3520   46.7430 O   0  0  0  0  0  0  0  0  0  0  0  0
   60.0960   31.1900   46.9620 N   0  0  0  0  0  0  0  0  0  0  0  0
   59.2590   30.0390   46.7580 C   0  0  0  0  0  0  0  0  0  0  0  0
   58.1900   30.0590   45.8460 C   0  0  0  0  0  0  0  0  0  0  0  0
   57.4080   28.9180   45.6460 C   0  0  0  0  0  0  0  0  0  0  0  0
   57.6890   27.7300   46.3420 C   0  0  0  0  0  0  0  0  0  0  0  0
   56.8650   26.5200   46.1290 C   0  0  0  0  0  0  0  0  0  0  0  0
   57.3940   25.2680   46.0550 N   0  0  0  0  0  0  0  0  0  0  0  0
   56.3120   24.5020   45.8590 C   0  0  0  0  0  0  0  0  0  0  0  0
   56.2620   23.1170   45.7050 C   0  0  0  0  0  0  0  0  0  0  0  0
   55.0010   22.5280   45.5050 C   0  0  0  0  0  0  0  0  0  0  0  0
   53.8360   23.3290   45.4630 C   0  0  0  0  0  0  0  0  0  0  0  0
   53.9260   24.7250   45.6230 C   0  0  0  0  0  0  0  0  0  0  0  0
   55.1910   25.2720   45.8190 C   0  0  0  0  0  0  0  0  0  0  0  0
   55.5110   26.5620   45.9870 N   0  0  0  0  0  0  0  0  0  0  0  0
   58.7730   27.7060   47.2370 C   0  0  0  0  0  0  0  0  0  0  0  0
   59.5540   28.8480   47.4350 C   0  0  0  0  0  0  0  0  0  0  0  0
   60.7876   33.7822   46.3990 H   0  0  0  0  0  0  0  0  0  0  0  0
   59.8707   34.5226   47.7600 H   0  0  0  0  0  0  0  0  0  0  0  0
   60.7492   34.7273   49.8485 H   0  0  0  0  0  0  0  0  0  0  0  0
   62.7478   34.6412   51.3390 H   0  0  0  0  0  0  0  0  0  0  0  0
   64.8010   33.4324   50.5863 H   0  0  0  0  0  0  0  0  0  0  0  0
   64.8297   32.3178   48.3490 H   0  0  0  0  0  0  0  0  0  0  0  0
   61.1070   31.1120   46.7110 H   0  0  0  0  0  0  0  0  0  0  0  0
   57.9672   30.9790   45.2857 H   0  0  0  0  0  0  0  0  0  0  0  0
   56.5663   28.9502   44.9385 H   0  0  0  0  0  0  0  0  0  0  0  0
   57.1766   22.5069   45.7388 H   0  0  0  0  0  0  0  0  0  0  0  0
   54.9201   21.4381   45.3805 H   0  0  0  0  0  0  0  0  0  0  0  0
   52.8543   22.8588   45.3045 H   0  0  0  0  0  0  0  0  0  0  0  0
   53.0287   25.3607   45.5942 H   0  0  0  0  0  0  0  0  0  0  0  0
   59.0081   26.7818   47.7853 H   0  0  0  0  0  0  0  0  0  0  0  0
   60.4074   28.8116   48.1281 H   0  0  0  0  0  0  0  0  0  0  0  0
  1  2  2  0
  2  3  1  0
  3  4  1  0
  4  5  1  0
  5  6  2  0
  6  7  1  0
  7  8  2  0
  8  9  1  0
  9 10  2  0
  2 11  1  0
 11 12  1  0
 12 13  2  0
 13 14  1  0
 14 15  2  0
 15 16  1  0
 16 17  2  0
 17 18  1  0
 18 19  2  0
 19 20  1  0
 20 21  2  0
 21 22  1  0
 22 23  2  0
 23 24  1  0
 15 25  1  0
 25 26  2  0
  9  4  1  0
 26 12  1  0
 24 16  1  0
 23 18  1  0
  3 27  1  0
  3 28  1  0
  5 29  1  0
  6 30  1  0
  7 31  1  0
  8 32  1  0
 11 33  1  0
 13 34  1  0
 14 35  1  0
 19 36  1  0
 20 37  1  0
 21 38  1  0
 22 39  1  0
 25 40  1  0
 26 41  1  0
M  CHG  1  24  -1
M  END
>  <UniqueID>  (86) 
80

>  <SMILES>  (86) 
O=C(Cn1ccccc1=O)Nc1ccc(-c2nc3ccccc3[n-]2)cc1

>  <Energy>  (86) 
85.52963823756397

>  <Genealogy>  (86) 
O=C(Cn1ccccc1=O)Nc1ccc(-c2nc3ccccc3[n-]2)cc1 (protonated)
O=C(Cn1ccccc1=O)Nc1ccc(-c2nc3ccccc3[n-]2)cc1 (3D coordinates assigned)
O=C(Cn1ccccc1=O)Nc1ccc(-c2nc3ccccc3[n-]2)cc1 (optimized conformer: 85.52963823756397 kcal/mol)

>  <smiles>  (86) 
O=C(Cn1ccccc1=O)Nc1ccc(-c2nc3ccccc3[nH]2)cc1

>  <score_type>  (86) 
oracle

>  <origin>  (86) 
adg

>  <m_score__min__energy>  (86) 
-9.3100000000000005

>  <m_primary>  (86) 
energy

$$$$
87:0
     RDKit          3D

 31 33  0  0  0  0  0  0  0  0999 V2000
   58.2170   32.1460   42.1910 O   0  0  0  0  0  0  0  0  0  0  0  0
   57.7950   32.1400   43.3800 C   0  0  0  0  0  0  0  0  0  0  0  0
   57.6960   33.3700   44.1130 N   0  0  0  0  0  0  0  0  0  0  0  0
   58.3530   33.6840   45.3490 C   0  0  0  0  0  0  0  0  0  0  0  0
   59.2720   34.7420   45.3700 C   0  0  0  0  0  0  0  0  0  0  0  0
   59.9500   35.0680   46.5490 C   0  0  0  0  0  0  0  0  0  0  0  0
   59.7250   34.3300   47.7130 C   0  0  0  0  0  0  0  0  0  0  0  0
   58.8290   33.2550   47.6980 C   0  0  0  0  0  0  0  0  0  0  0  0
   58.5690   32.3110   49.1520 Cl  0  0  0  0  0  0  0  0  0  0  0  0
   58.1490   32.9270   46.5180 C   0  0  0  0  0  0  0  0  0  0  0  0
   57.4520   30.8550   44.0350 C   0  0  0  0  0  0  0  0  0  0  0  0
   56.1140   30.4280   44.1070 C   0  0  0  0  0  0  0  0  0  0  0  0
   55.7820   29.2200   44.7240 C   0  0  0  0  0  0  0  0  0  0  0  0
   56.7830   28.4090   45.2840 C   0  0  0  0  0  0  0  0  0  0  0  0
   56.4660   27.1860   45.9110 C   0  0  0  0  0  0  0  0  0  0  0  0
   55.1470   26.7480   45.9890 O   0  0  0  0  0  0  0  0  0  0  0  0
   57.4850   26.3980   46.4620 C   0  0  0  0  0  0  0  0  0  0  0  0
   57.1770   25.1920   47.0790 O   0  0  0  0  0  0  0  0  0  0  0  0
   58.8160   26.8190   46.3930 C   0  0  0  0  0  0  0  0  0  0  0  0
   59.1400   28.0280   45.7750 C   0  0  0  0  0  0  0  0  0  0  0  0
   58.1340   28.8310   45.2170 C   0  0  0  0  0  0  0  0  0  0  0  0
   58.4570   30.0470   44.5960 C   0  0  0  0  0  0  0  0  0  0  0  0
   59.4612   35.3197   44.4532 H   0  0  0  0  0  0  0  0  0  0  0  0
   60.6615   35.9069   46.5594 H   0  0  0  0  0  0  0  0  0  0  0  0
   60.2521   34.5937   48.6418 H   0  0  0  0  0  0  0  0  0  0  0  0
   57.4533   32.0750   46.5049 H   0  0  0  0  0  0  0  0  0  0  0  0
   55.3198   31.0527   43.6723 H   0  0  0  0  0  0  0  0  0  0  0  0
   54.7302   28.9016   44.7718 H   0  0  0  0  0  0  0  0  0  0  0  0
   59.6112   26.1953   46.8273 H   0  0  0  0  0  0  0  0  0  0  0  0
   60.1898   28.3529   45.7253 H   0  0  0  0  0  0  0  0  0  0  0  0
   59.5069   30.3716   44.5475 H   0  0  0  0  0  0  0  0  0  0  0  0
  1  2  2  0
  2  3  1  0
  3  4  1  0
  4  5  2  0
  5  6  1  0
  6  7  2  0
  7  8  1  0
  8  9  1  0
  8 10  2  0
  2 11  1  0
 11 12  2  0
 12 13  1  0
 13 14  2  0
 14 15  1  0
 15 16  1  0
 15 17  2  0
 17 18  1  0
 17 19  1  0
 19 20  2  0
 20 21  1  0
 21 22  2  0
 10  4  1  0
 22 11  1  0
 21 14  1  0
  5 23  1  0
  6 24  1  0
  7 25  1  0
 10 26  1  0
 12 27  1  0
 13 28  1  0
 19 29  1  0
 20 30  1  0
 22 31  1  0
M  CHG  3   3  -1  16  -1  18  -1
M  END
>  <UniqueID>  (87) 
81

>  <SMILES>  (87) 
O=C([N-]c1cccc(Cl)c1)c1ccc2c([O-])c([O-])ccc2c1

>  <Energy>  (87) 
42.701093913328556

>  <Genealogy>  (87) 
O=C([N-]c1cccc(Cl)c1)c1ccc2c([O-])c([O-])ccc2c1 (protonated)
O=C([N-]c1cccc(Cl)c1)c1ccc2c([O-])c([O-])ccc2c1 (3D coordinates assigned)
O=C([N-]c1cccc(Cl)c1)c1ccc2c([O-])c([O-])ccc2c1 (optimized conformer: 42.701093913328556 kcal/mol)

>  <smiles>  (87) 
O=C(Nc1cccc(Cl)c1)c1ccc2c(O)c(O)ccc2c1

>  <score_type>  (87) 
oracle

>  <origin>  (87) 
adg

>  <m_score__min__energy>  (87) 
-15.289999999999999

>  <m_primary>  (87) 
energy

$$$$
88:0
     RDKit          3D

 32 33  0  0  0  0  0  0  0  0999 V2000
   57.4310   31.5840   43.1570 C   0  0  0  0  0  0  0  0  0  0  0  0
   57.0860   30.3890   44.4300 S   0  0  0  0  0  0  0  0  0  0  0  0
   57.5010   30.9680   45.7530 O   0  0  0  0  0  0  0  0  0  0  0  0
   55.6150   30.0810   44.4780 O   0  0  0  0  0  0  0  0  0  0  0  0
   57.9900   28.9330   44.1470 N   0  0  0  0  0  0  0  0  0  0  0  0
   57.8760   27.7370   44.9370 C   0  0  0  0  0  0  0  0  0  0  0  0
   56.6580   27.4530   45.5720 C   0  0  0  0  0  0  0  0  0  0  0  0
   56.5080   26.3010   46.3490 C   0  0  0  0  0  0  0  0  0  0  0  0
   57.5800   25.4090   46.5100 C   0  0  0  0  0  0  0  0  0  0  0  0
   57.4310   24.1840   47.3310 C   0  0  0  0  0  0  0  0  0  0  0  0
   57.0700   24.2870   48.5340 O   0  0  0  0  0  0  0  0  0  0  0  0
   57.7360   22.8800   46.8160 N   0  0  0  0  0  0  0  0  0  0  0  0
   57.4590   22.4080   45.4900 C   0  0  0  0  0  0  0  0  0  0  0  0
   58.4580   21.8540   44.6730 C   0  0  0  0  0  0  0  0  0  0  0  0
   58.1440   21.4240   43.3820 C   0  0  0  0  0  0  0  0  0  0  0  0
   56.8370   21.5680   42.9130 C   0  0  0  0  0  0  0  0  0  0  0  0
   55.8860   22.1290   43.7070 N   0  0  0  0  0  0  0  0  0  0  0  0
   56.1690   22.5530   44.9680 C   0  0  0  0  0  0  0  0  0  0  0  0
   58.7930   25.6770   45.8560 C   0  0  0  0  0  0  0  0  0  0  0  0
   58.9420   26.8290   45.0800 C   0  0  0  0  0  0  0  0  0  0  0  0
   57.7078   32.5429   43.6195 H   0  0  0  0  0  0  0  0  0  0  0  0
   58.2621   31.2247   42.5323 H   0  0  0  0  0  0  0  0  0  0  0  0
   56.5363   31.7230   42.5323 H   0  0  0  0  0  0  0  0  0  0  0  0
   58.5970   28.9190   43.2960 H   0  0  0  0  0  0  0  0  0  0  0  0
   55.8108   28.1452   45.4571 H   0  0  0  0  0  0  0  0  0  0  0  0
   55.5446   26.0921   46.8371 H   0  0  0  0  0  0  0  0  0  0  0  0
   59.4871   21.7589   45.0497 H   0  0  0  0  0  0  0  0  0  0  0  0
   58.9183   20.9766   42.7414 H   0  0  0  0  0  0  0  0  0  0  0  0
   56.5761   21.2273   41.9001 H   0  0  0  0  0  0  0  0  0  0  0  0
   55.3794   23.0124   45.5808 H   0  0  0  0  0  0  0  0  0  0  0  0
   59.6332   24.9740   45.9554 H   0  0  0  0  0  0  0  0  0  0  0  0
   59.8997   27.0281   44.5769 H   0  0  0  0  0  0  0  0  0  0  0  0
  1  2  1  0
  2  3  2  0
  2  4  2  0
  2  5  1  0
  5  6  1  0
  6  7  2  0
  7  8  1  0
  8  9  2  0
  9 10  1  0
 10 11  2  0
 10 12  1  0
 12 13  1  0
 13 14  2  0
 14 15  1  0
 15 16  2  0
 16 17  1  0
 17 18  2  0
  9 19  1  0
 19 20  2  0
 20  6  1  0
 18 13  1  0
  1 21  1  0
  1 22  1  0
  1 23  1  0
  5 24  1  0
  7 25  1  0
  8 26  1  0
 14 27  1  0
 15 28  1  0
 16 29  1  0
 18 30  1  0
 19 31  1  0
 20 32  1  0
M  CHG  1  12  -1
M  END
>  <UniqueID>  (88) 
82

>  <SMILES>  (88) 
CS(=O)(=O)Nc1ccc(C(=O)[N-]c2cccnc2)cc1

>  <Energy>  (88) 
39.05266022258087

>  <Genealogy>  (88) 
CS(=O)(=O)Nc1ccc(C(=O)[N-]c2cccnc2)cc1 (protonated)
CS(=O)(=O)Nc1ccc(C(=O)[N-]c2cccnc2)cc1 (3D coordinates assigned)
CS(=O)(=O)Nc1ccc(C(=O)[N-]c2cccnc2)cc1 (optimized conformer: 39.05266022258087 kcal/mol)

>  <smiles>  (88) 
CS(=O)(=O)Nc1ccc(C(=O)Nc2cccnc2)cc1

>  <score_type>  (88) 
oracle

>  <origin>  (88) 
adg

>  <m_score__min__energy>  (88) 
-8.3300000000000001

>  <m_primary>  (88) 
energy

$$$$
89:0
     RDKit          3D

 44 46  0  0  0  0  0  0  0  0999 V2000
   64.6890   33.0900   49.1590 C   0  0  0  0  0  0  0  0  0  0  0  0
   63.3490   33.5040   48.6260 C   0  0  0  0  0  0  0  0  0  0  0  0
   62.3140   33.8460   49.5090 C   0  0  0  0  0  0  0  0  0  0  0  0
   61.0540   34.1970   49.0140 C   0  0  0  0  0  0  0  0  0  0  0  0
   60.8090   34.1980   47.6320 C   0  0  0  0  0  0  0  0  0  0  0  0
   59.4600   34.5890   47.0900 C   0  0  0  0  0  0  0  0  0  0  0  0
   59.0970   33.7320   45.9420 N   0  0  0  0  0  0  0  0  0  0  0  0
   57.8140   34.1560   45.3510 C   0  0  0  0  0  0  0  0  0  0  0  0
   57.6040   33.4670   44.0760 N   0  0  0  0  0  0  0  0  0  0  0  0
   57.6890   32.0390   44.2320 C   0  0  0  0  0  0  0  0  0  0  0  0
   57.1270   31.0910   43.0090 S   0  0  0  0  0  0  0  0  0  0  0  0
   58.5090   31.4740   45.2820 N   0  0  0  0  0  0  0  0  0  0  0  0
   58.6500   30.0520   45.4390 C   0  0  0  0  0  0  0  0  0  0  0  0
   59.9250   29.4700   45.4450 C   0  0  0  0  0  0  0  0  0  0  0  0
   60.0680   28.0900   45.6140 C   0  0  0  0  0  0  0  0  0  0  0  0
   58.9370   27.2750   45.7720 C   0  0  0  0  0  0  0  0  0  0  0  0
   59.0920   25.7990   45.9930 C   0  0  0  0  0  0  0  0  0  0  0  0
   57.6620   27.8620   45.7940 C   0  0  0  0  0  0  0  0  0  0  0  0
   57.5200   29.2430   45.6250 C   0  0  0  0  0  0  0  0  0  0  0  0
   58.9900   32.3280   46.3730 C   0  0  0  0  0  0  0  0  0  0  0  0
   61.8420   33.8390   46.7510 C   0  0  0  0  0  0  0  0  0  0  0  0
   63.1010   33.4870   47.2450 C   0  0  0  0  0  0  0  0  0  0  0  0
   64.6645   33.0976   50.2587 H   0  0  0  0  0  0  0  0  0  0  0  0
   64.9274   32.0763   48.8045 H   0  0  0  0  0  0  0  0  0  0  0  0
   65.4576   33.7926   48.8045 H   0  0  0  0  0  0  0  0  0  0  0  0
   62.4940   33.8381   50.5941 H   0  0  0  0  0  0  0  0  0  0  0  0
   60.2502   34.4739   49.7119 H   0  0  0  0  0  0  0  0  0  0  0  0
   58.7045   34.4740   47.8812 H   0  0  0  0  0  0  0  0  0  0  0  0
   59.5004   35.6359   46.7546 H   0  0  0  0  0  0  0  0  0  0  0  0
   56.9940   33.9064   46.0405 H   0  0  0  0  0  0  0  0  0  0  0  0
   57.8348   35.2421   45.1780 H   0  0  0  0  0  0  0  0  0  0  0  0
   58.3340   33.7730   43.3930 H   0  0  0  0  0  0  0  0  0  0  0  0
   56.6580   33.7240   43.7070 H   0  0  0  0  0  0  0  0  0  0  0  0
   60.8163   30.1016   45.3162 H   0  0  0  0  0  0  0  0  0  0  0  0
   61.0720   27.6408   45.6232 H   0  0  0  0  0  0  0  0  0  0  0  0
   59.1139   25.5902   47.0728 H   0  0  0  0  0  0  0  0  0  0  0  0
   58.2446   25.2686   45.5341 H   0  0  0  0  0  0  0  0  0  0  0  0
   60.0311   25.4562   45.5341 H   0  0  0  0  0  0  0  0  0  0  0  0
   56.7717   27.2337   45.9446 H   0  0  0  0  0  0  0  0  0  0  0  0
   56.5178   29.6963   45.6380 H   0  0  0  0  0  0  0  0  0  0  0  0
   58.2861   32.2640   47.2159 H   0  0  0  0  0  0  0  0  0  0  0  0
   59.9886   31.9789   46.6745 H   0  0  0  0  0  0  0  0  0  0  0  0
   61.6592   33.8348   45.6663 H   0  0  0  0  0  0  0  0  0  0  0  0
   63.9008   33.1954   46.5484 H   0  0  0  0  0  0  0  0  0  0  0  0
  1  2  1  0
  2  3  2  0
  3  4  1  0
  4  5  2  0
  5  6  1  0
  6  7  1  0
  7  8  1  0
  8  9  1  0
  9 10  1  0
 10 11  2  0
 10 12  1  0
 12 13  1  0
 13 14  2  0
 14 15  1  0
 15 16  2  0
 16 17  1  0
 16 18  1  0
 18 19  2  0
 12 20  1  0
  5 21  1  0
 21 22  2  0
 22  2  1  0
 20  7  1  0
 19 13  1  0
  1 23  1  0
  1 24  1  0
  1 25  1  0
  3 26  1  0
  4 27  1  0
  6 28  1  0
  6 29  1  0
  8 30  1  0
  8 31  1  0
  9 32  1  0
  9 33  1  0
 14 34  1  0
 15 35  1  0
 17 36  1  0
 17 37  1  0
 17 38  1  0
 18 39  1  0
 19 40  1  0
 20 41  1  0
 20 42  1  0
 21 43  1  0
 22 44  1  0
M  CHG  1   9   1
M  END
>  <UniqueID>  (89) 
83

>  <SMILES>  (89) 
Cc1ccc(CN2C[NH2+]C(=S)N(c3ccc(C)cc3)C2)cc1

>  <Energy>  (89) 
54.48998832771426

>  <Genealogy>  (89) 
Cc1ccc(CN2C[NH2+]C(=S)N(c3ccc(C)cc3)C2)cc1 (protonated)
Cc1ccc(CN2C[NH2+]C(=S)N(c3ccc(C)cc3)C2)cc1 (3D coordinates assigned)
Cc1ccc(CN2C[NH2+]C(=S)N(c3ccc(C)cc3)C2)cc1 (nonaromatic ring conformer: 54.48998832771426 kcal/mol)

>  <smiles>  (89) 
Cc1ccc(CN2CNC(=S)N(c3ccc(C)cc3)C2)cc1

>  <score_type>  (89) 
oracle

>  <origin>  (89) 
adg

>  <m_score__min__energy>  (89) 
-6.3700000000000001

>  <m_primary>  (89) 
energy

$$$$
90:0
     RDKit          3D

 28 30  0  0  0  0  0  0  0  0999 V2000
   58.8790   29.8280   47.6450 C   0  0  0  0  0  0  0  0  0  0  0  0
   58.4040   29.0760   46.4820 N   0  0  0  0  0  0  0  0  0  0  0  0
   57.8640   29.7690   45.3480 C   0  0  0  0  0  0  0  0  0  0  0  0
   58.5280   30.9020   44.8410 C   0  0  0  0  0  0  0  0  0  0  0  0
   57.9990   31.6100   43.7600 C   0  0  0  0  0  0  0  0  0  0  0  0
   56.7970   31.2030   43.1820 C   0  0  0  0  0  0  0  0  0  0  0  0
   56.1270   30.0830   43.6800 C   0  0  0  0  0  0  0  0  0  0  0  0
   56.6610   29.3470   44.7470 C   0  0  0  0  0  0  0  0  0  0  0  0
   55.8950   28.2450   45.2500 N   0  0  0  0  0  0  0  0  0  0  0  0
   56.3540   27.0710   45.9290 C   0  0  0  0  0  0  0  0  0  0  0  0
   55.4920   26.2640   46.3680 O   0  0  0  0  0  0  0  0  0  0  0  0
   57.7870   26.7260   46.0580 C   0  0  0  0  0  0  0  0  0  0  0  0
   58.1800   25.3810   45.9780 C   0  0  0  0  0  0  0  0  0  0  0  0
   59.5170   25.0270   46.1480 C   0  0  0  0  0  0  0  0  0  0  0  0
   60.4570   26.0190   46.4130 C   0  0  0  0  0  0  0  0  0  0  0  0
   60.0690   27.3190   46.5070 N   0  0  0  0  0  0  0  0  0  0  0  0
   58.7660   27.6970   46.3360 C   0  0  0  0  0  0  0  0  0  0  0  0
   58.5580   29.3198   48.5663 H   0  0  0  0  0  0  0  0  0  0  0  0
   59.9773   29.8849   47.6212 H   0  0  0  0  0  0  0  0  0  0  0  0
   58.4586   30.8442   47.6212 H   0  0  0  0  0  0  0  0  0  0  0  0
   59.4714   31.2323   45.3002 H   0  0  0  0  0  0  0  0  0  0  0  0
   58.5302   32.4883   43.3645 H   0  0  0  0  0  0  0  0  0  0  0  0
   56.3766   31.7637   42.3342 H   0  0  0  0  0  0  0  0  0  0  0  0
   55.1712   29.7756   43.2306 H   0  0  0  0  0  0  0  0  0  0  0  0
   57.4287   24.6023   45.7801 H   0  0  0  0  0  0  0  0  0  0  0  0
   59.8266   23.9741   46.0735 H   0  0  0  0  0  0  0  0  0  0  0  0
   61.5154   25.7509   46.5466 H   0  0  0  0  0  0  0  0  0  0  0  0
   60.7980   28.0400   46.7060 H   0  0  0  0  0  0  0  0  0  0  0  0
  1  2  1  0
  2  3  1  0
  3  4  2  0
  4  5  1  0
  5  6  2  0
  6  7  1  0
  7  8  2  0
  8  9  1  0
  9 10  1  0
 10 11  2  0
 10 12  1  0
 12 13  2  0
 13 14  1  0
 14 15  2  0
 15 16  1  0
 16 17  2  0
 17  2  1  0
  8  3  1  0
 17 12  1  0
  1 18  1  0
  1 19  1  0
  1 20  1  0
  4 21  1  0
  5 22  1  0
  6 23  1  0
  7 24  1  0
 13 25  1  0
 14 26  1  0
 15 27  1  0
 16 28  1  0
M  CHG  2   9  -1  16   1
M  END
>  <UniqueID>  (90) 
84

>  <SMILES>  (90) 
CN1c2ccccc2[N-]C(=O)c2ccc[nH+]c21

>  <Energy>  (90) 
50.43505933746956

>  <Genealogy>  (90) 
CN1c2ccccc2[N-]C(=O)c2ccc[nH+]c21 (protonated)
CN1c2ccccc2[N-]C(=O)c2ccc[nH+]c21 (3D coordinates assigned)
CN1c2ccccc2[N-]C(=O)c2ccc[nH+]c21 (nonaromatic ring conformer: 50.43505933746956 kcal/mol)

>  <smiles>  (90) 
CN1c2ccccc2NC(=O)c2cccnc21

>  <score_type>  (90) 
oracle

>  <origin>  (90) 
adg

>  <m_score__min__energy>  (90) 
-7.1900000000000004

>  <m_primary>  (90) 
energy

$$$$
91:0
     RDKit          3D

 43 46  0  0  0  0  0  0  0  0999 V2000
   60.7300   30.8410   49.3580 C   0  0  0  0  0  0  0  0  0  0  0  0
   60.2690   31.1510   48.0470 O   0  0  0  0  0  0  0  0  0  0  0  0
   59.8590   32.4260   47.6240 C   0  0  0  0  0  0  0  0  0  0  0  0
   60.3200   33.5980   48.2590 C   0  0  0  0  0  0  0  0  0  0  0  0
   59.8580   34.8520   47.8550 C   0  0  0  0  0  0  0  0  0  0  0  0
   58.9300   34.9550   46.8190 C   0  0  0  0  0  0  0  0  0  0  0  0
   58.4700   33.8050   46.1750 C   0  0  0  0  0  0  0  0  0  0  0  0
   58.9410   32.5380   46.5550 C   0  0  0  0  0  0  0  0  0  0  0  0
   58.4410   31.3430   45.8400 C   0  0  0  0  0  0  0  0  0  0  0  0
   57.2720   31.3630   45.3660 O   0  0  0  0  0  0  0  0  0  0  0  0
   59.2720   30.1800   45.6820 N   0  0  0  0  0  0  0  0  0  0  0  0
   58.8550   28.9770   45.0140 C   0  0  0  0  0  0  0  0  0  0  0  0
   58.1840   29.0170   43.7800 C   0  0  0  0  0  0  0  0  0  0  0  0
   57.8160   27.8300   43.1390 C   0  0  0  0  0  0  0  0  0  0  0  0
   58.1270   26.5960   43.7160 C   0  0  0  0  0  0  0  0  0  0  0  0
   58.8210   26.5460   44.9290 C   0  0  0  0  0  0  0  0  0  0  0  0
   59.2440   24.9640   45.6590 S   0  0  0  0  0  0  0  0  0  0  0  0
   57.6380   24.2570   45.2850 C   0  0  0  0  0  0  0  0  0  0  0  0
   57.5290   22.9810   44.6940 C   0  0  0  0  0  0  0  0  0  0  0  0
   56.2590   22.4380   44.3930 C   0  0  0  0  0  0  0  0  0  0  0  0
   55.0860   23.1610   44.6820 C   0  0  0  0  0  0  0  0  0  0  0  0
   55.2270   24.4150   45.2690 C   0  0  0  0  0  0  0  0  0  0  0  0
   54.2550   25.2680   45.6320 N   0  0  0  0  0  0  0  0  0  0  0  0
   54.8480   26.3390   46.1550 N   0  0  0  0  0  0  0  0  0  0  0  0
   56.1910   26.1670   46.1250 C   0  0  0  0  0  0  0  0  0  0  0  0
   56.4530   24.9400   45.5600 C   0  0  0  0  0  0  0  0  0  0  0  0
   59.1840   27.7330   45.5740 C   0  0  0  0  0  0  0  0  0  0  0  0
   60.0563   31.2940   50.1002 H   0  0  0  0  0  0  0  0  0  0  0  0
   60.7437   29.7494   49.4933 H   0  0  0  0  0  0  0  0  0  0  0  0
   61.7461   31.2400   49.4933 H   0  0  0  0  0  0  0  0  0  0  0  0
   61.0493   33.5234   49.0791 H   0  0  0  0  0  0  0  0  0  0  0  0
   60.2265   35.7601   48.3545 H   0  0  0  0  0  0  0  0  0  0  0  0
   58.5601   35.9435   46.5090 H   0  0  0  0  0  0  0  0  0  0  0  0
   57.7327   33.8921   45.3634 H   0  0  0  0  0  0  0  0  0  0  0  0
   60.2170   30.1760   46.1260 H   0  0  0  0  0  0  0  0  0  0  0  0
   57.9473   29.9860   43.3164 H   0  0  0  0  0  0  0  0  0  0  0  0
   57.2807   27.8678   42.1788 H   0  0  0  0  0  0  0  0  0  0  0  0
   57.8258   25.6637   43.2160 H   0  0  0  0  0  0  0  0  0  0  0  0
   58.4378   22.4048   44.4659 H   0  0  0  0  0  0  0  0  0  0  0  0
   56.1867   21.4431   43.9295 H   0  0  0  0  0  0  0  0  0  0  0  0
   54.0924   22.7490   44.4518 H   0  0  0  0  0  0  0  0  0  0  0  0
   56.9419   26.8837   46.4891 H   0  0  0  0  0  0  0  0  0  0  0  0
   59.7314   27.6910   46.5272 H   0  0  0  0  0  0  0  0  0  0  0  0
  1  2  1  0
  2  3  1  0
  3  4  2  0
  4  5  1  0
  5  6  2  0
  6  7  1  0
  7  8  2  0
  8  9  1  0
  9 10  2  0
  9 11  1  0
 11 12  1  0
 12 13  2  0
 13 14  1  0
 14 15  2  0
 15 16  1  0
 16 17  1  0
 17 18  1  0
 18 19  2  0
 19 20  1  0
 20 21  2  0
 21 22  1  0
 22 23  1  0
 23 24  1  0
 24 25  2  0
 25 26  1  0
 16 27  2  0
  8  3  1  0
 27 12  1  0
 26 18  1  0
 26 22  2  0
  1 28  1  0
  1 29  1  0
  1 30  1  0
  4 31  1  0
  5 32  1  0
  6 33  1  0
  7 34  1  0
 11 35  1  0
 13 36  1  0
 14 37  1  0
 15 38  1  0
 19 39  1  0
 20 40  1  0
 21 41  1  0
 25 42  1  0
 27 43  1  0
M  CHG  1  23  -1
M  END
>  <UniqueID>  (91) 
85

>  <SMILES>  (91) 
COc1ccccc1C(=O)Nc1cccc(Sc2cccc3[n-]ncc23)c1

>  <Energy>  (91) 
88.83124272479574

>  <Genealogy>  (91) 
COc1ccccc1C(=O)Nc1cccc(Sc2cccc3[n-]ncc23)c1 (protonated)
COc1ccccc1C(=O)Nc1cccc(Sc2cccc3[n-]ncc23)c1 (3D coordinates assigned)
COc1ccccc1C(=O)Nc1cccc(Sc2cccc3[n-]ncc23)c1 (optimized conformer: 88.83124272479574 kcal/mol)

>  <smiles>  (91) 
COc1ccccc1C(=O)Nc1cccc(Sc2cccc3[nH]ncc23)c1

>  <score_type>  (91) 
oracle

>  <origin>  (91) 
adg

>  <m_score__min__energy>  (91) 
-10.74

>  <m_primary>  (91) 
energy

$$$$
92:0
     RDKit          3D

 67 70  0  0  0  0  0  0  0  0999 V2000
   59.1220   34.4850   45.2880 C   0  0  0  0  0  0  0  0  0  0  0  0
   58.3980   33.4530   46.1480 C   0  0  0  0  0  0  0  0  0  0  0  0
   58.9010   33.4890   47.5960 C   0  0  0  0  0  0  0  0  0  0  0  0
   60.2360   34.2400   47.6940 C   0  0  0  0  0  0  0  0  0  0  0  0
   61.1160   33.6600   48.7740 C   0  0  0  0  0  0  0  0  0  0  0  0
   61.2160   34.2150   50.0020 N   0  0  0  0  0  0  0  0  0  0  0  0
   62.1200   33.4500   50.6420 C   0  0  0  0  0  0  0  0  0  0  0  0
   62.5920   33.7090   52.3110 Cl  0  0  0  0  0  0  0  0  0  0  0  0
   62.5600   32.4450   49.8060 C   0  0  0  0  0  0  0  0  0  0  0  0
   63.5560   31.4120   50.1400 C   0  0  0  0  0  0  0  0  0  0  0  0
   63.2010   30.3840   50.7760 O   0  0  0  0  0  0  0  0  0  0  0  0
   64.9150   31.5660   49.7290 N   0  0  0  0  0  0  0  0  0  0  0  0
   66.0700   32.4820   50.6400 S   0  0  0  0  0  0  0  0  0  0  0  0
   65.4180   33.7320   51.1590 O   0  0  0  0  0  0  0  0  0  0  0  0
   67.2110   32.8700   49.7380 O   0  0  0  0  0  0  0  0  0  0  0  0
   66.7050   31.5180   52.0060 C   0  0  0  0  0  0  0  0  0  0  0  0
   66.5730   30.0460   51.7250 C   0  0  0  0  0  0  0  0  0  0  0  0
   67.5230   29.3890   50.9240 C   0  0  0  0  0  0  0  0  0  0  0  0
   67.4220   28.0120   50.6980 C   0  0  0  0  0  0  0  0  0  0  0  0
   66.3730   27.2830   51.2650 C   0  0  0  0  0  0  0  0  0  0  0  0
   65.4230   27.9290   52.0600 C   0  0  0  0  0  0  0  0  0  0  0  0
   65.5200   29.3060   52.2920 C   0  0  0  0  0  0  0  0  0  0  0  0
   61.9330   32.5880   48.6170 N   0  0  0  0  0  0  0  0  0  0  0  0
   62.1590   31.8090   47.3920 C   0  0  0  0  0  0  0  0  0  0  0  0
   61.1980   30.6490   47.2630 C   0  0  0  0  0  0  0  0  0  0  0  0
   60.4130   30.2090   48.3460 C   0  0  0  0  0  0  0  0  0  0  0  0
   59.4720   29.1920   48.1730 C   0  0  0  0  0  0  0  0  0  0  0  0
   59.2990   28.5970   46.9170 C   0  0  0  0  0  0  0  0  0  0  0  0
   58.3150   27.5090   46.7450 C   0  0  0  0  0  0  0  0  0  0  0  0
   58.5490   26.2870   47.3970 C   0  0  0  0  0  0  0  0  0  0  0  0
   57.6420   25.2330   47.2720 C   0  0  0  0  0  0  0  0  0  0  0  0
   56.4940   25.3880   46.4910 C   0  0  0  0  0  0  0  0  0  0  0  0
   56.2520   26.5950   45.8290 C   0  0  0  0  0  0  0  0  0  0  0  0
   57.1600   27.6620   45.9370 C   0  0  0  0  0  0  0  0  0  0  0  0
   56.8390   29.1520   45.0380 S   0  0  0  0  0  0  0  0  0  0  0  0
   55.1430   29.3020   44.7340 N   0  0  0  0  0  0  0  0  0  0  0  0
   57.5890   29.1260   43.7360 O   0  0  0  0  0  0  0  0  0  0  0  0
   57.2820   30.3450   45.8360 O   0  0  0  0  0  0  0  0  0  0  0  0
   60.0620   29.0450   45.8290 C   0  0  0  0  0  0  0  0  0  0  0  0
   60.9990   30.0660   46.0010 C   0  0  0  0  0  0  0  0  0  0  0  0
   59.6316   35.2114   45.9381 H   0  0  0  0  0  0  0  0  0  0  0  0
   59.8634   33.9779   44.6530 H   0  0  0  0  0  0  0  0  0  0  0  0
   58.3929   35.0096   44.6530 H   0  0  0  0  0  0  0  0  0  0  0  0
   57.3196   33.6695   46.1370 H   0  0  0  0  0  0  0  0  0  0  0  0
   58.5964   32.4532   45.7344 H   0  0  0  0  0  0  0  0  0  0  0  0
   58.1547   33.9978   48.2239 H   0  0  0  0  0  0  0  0  0  0  0  0
   59.0532   32.4556   47.9408 H   0  0  0  0  0  0  0  0  0  0  0  0
   60.7590   34.1677   46.7290 H   0  0  0  0  0  0  0  0  0  0  0  0
   60.0250   35.2898   47.9460 H   0  0  0  0  0  0  0  0  0  0  0  0
   67.7666   31.7628   52.1580 H   0  0  0  0  0  0  0  0  0  0  0  0
   66.1246   31.7590   52.9088 H   0  0  0  0  0  0  0  0  0  0  0  0
   68.3486   29.9594   50.4734 H   0  0  0  0  0  0  0  0  0  0  0  0
   68.1697   27.5021   50.0728 H   0  0  0  0  0  0  0  0  0  0  0  0
   66.2954   26.2006   51.0853 H   0  0  0  0  0  0  0  0  0  0  0  0
   64.5971   27.3543   52.5046 H   0  0  0  0  0  0  0  0  0  0  0  0
   64.7706   29.8107   52.9195 H   0  0  0  0  0  0  0  0  0  0  0  0
   62.0320   32.4716   46.5232 H   0  0  0  0  0  0  0  0  0  0  0  0
   63.1781   31.3976   47.4386 H   0  0  0  0  0  0  0  0  0  0  0  0
   60.5421   30.6702   49.3363 H   0  0  0  0  0  0  0  0  0  0  0  0
   58.8643   28.8569   49.0264 H   0  0  0  0  0  0  0  0  0  0  0  0
   59.4532   26.1596   48.0104 H   0  0  0  0  0  0  0  0  0  0  0  0
   57.8313   24.2804   47.7885 H   0  0  0  0  0  0  0  0  0  0  0  0
   55.7785   24.5578   46.3968 H   0  0  0  0  0  0  0  0  0  0  0  0
   55.3440   26.7105   45.2189 H   0  0  0  0  0  0  0  0  0  0  0  0
   54.6710   29.3460   45.6680 H   0  0  0  0  0  0  0  0  0  0  0  0
   59.9220   28.5907   44.8370 H   0  0  0  0  0  0  0  0  0  0  0  0
   61.5867   30.4169   45.1399 H   0  0  0  0  0  0  0  0  0  0  0  0
  1  2  1  0
  2  3  1  0
  3  4  1  0
  4  5  1  0
  5  6  2  0
  6  7  1  0
  7  8  1  0
  7  9  2  0
  9 10  1  0
 10 11  2  0
 10 12  1  0
 12 13  1  0
 13 14  2  0
 13 15  2  0
 13 16  1  0
 16 17  1  0
 17 18  2  0
 18 19  1  0
 19 20  2  0
 20 21  1  0
 21 22  2  0
  9 23  1  0
 23 24  1  0
 24 25  1  0
 25 26  2  0
 26 27  1  0
 27 28  2  0
 28 29  1  0
 29 30  2  0
 30 31  1  0
 31 32  2  0
 32 33  1  0
 33 34  2  0
 34 35  1  0
 35 36  1  0
 35 37  2  0
 35 38  2  0
 28 39  1  0
 39 40  2  0
 23  5  1  0
 40 25  1  0
 22 17  1  0
 34 29  1  0
  1 41  1  0
  1 42  1  0
  1 43  1  0
  2 44  1  0
  2 45  1  0
  3 46  1  0
  3 47  1  0
  4 48  1  0
  4 49  1  0
 16 50  1  0
 16 51  1  0
 18 52  1  0
 19 53  1  0
 20 54  1  0
 21 55  1  0
 22 56  1  0
 24 57  1  0
 24 58  1  0
 26 59  1  0
 27 60  1  0
 30 61  1  0
 31 62  1  0
 32 63  1  0
 33 64  1  0
 36 65  1  0
 39 66  1  0
 40 67  1  0
M  CHG  2  12  -1  36  -1
M  END
>  <UniqueID>  (92) 
86

>  <SMILES>  (92) 
CCCCc1nc(Cl)c(C(=O)[N-]S(=O)(=O)Cc2ccccc2)n1Cc1ccc(-c2ccccc2S([NH-])(=O)=O)cc1

>  <Energy>  (92) 
97.41109603233608

>  <Genealogy>  (92) 
CCCCc1nc(Cl)c(C(=O)[N-]S(=O)(=O)Cc2ccccc2)n1Cc1ccc(-c2ccccc2S([NH-])(=O)=O)cc1 (protonated)
CCCCc1nc(Cl)c(C(=O)[N-]S(=O)(=O)Cc2ccccc2)n1Cc1ccc(-c2ccccc2S([NH-])(=O)=O)cc1 (3D coordinates assigned)
CCCCc1nc(Cl)c(C(=O)[N-]S(=O)(=O)Cc2ccccc2)n1Cc1ccc(-c2ccccc2S([NH-])(=O)=O)cc1 (optimized conformer: 97.41109603233608 kcal/mol)

>  <smiles>  (92) 
CCCCc1nc(Cl)c(C(=O)NS(=O)(=O)Cc2ccccc2)n1Cc1ccc(-c2ccccc2S(N)(=O)=O)cc1

>  <score_type>  (92) 
oracle

>  <origin>  (92) 
adg

>  <m_score__min__energy>  (92) 
-13.35

>  <m_primary>  (92) 
energy

$$$$
