0:0
     RDKit          3D

 41 45  0  0  0  0  0  0  0  0999 V2000
   59.5700   28.0290   47.1110 H   0  0  0  0  0  0  0  0  0  0  0  0
   59.4230   27.0290   47.0810 O   0  0  0  0  0  0  0  0  0  0  0  0
   58.1990   26.4810   46.7060 C   0  0  0  0  0  0  0  0  0  0  0  0
   57.5610   25.5450   47.4280 N   0  0  0  0  0  0  0  0  0  0  0  0
   56.4100   25.3710   46.7450 C   0  0  0  0  0  0  0  0  0  0  0  0
   55.5190   24.5620   47.1140 O   0  0  0  0  0  0  0  0  0  0  0  0
   56.2840   26.1390   45.6410 N   0  0  0  0  0  0  0  0  0  0  0  0
   57.4370   26.8280   45.6070 C   0  0  0  0  0  0  0  0  0  0  0  0
   57.7430   27.8330   44.5760 C   0  0  0  0  0  0  0  0  0  0  0  0
   58.2176   27.4955   43.6428 H   0  0  0  0  0  0  0  0  0  0  0  0
   57.4730   29.1380   44.7160 C   0  0  0  0  0  0  0  0  0  0  0  0
   56.4800   29.9060   44.0980 C   0  0  0  0  0  0  0  0  0  0  0  0
   55.7626   29.5307   43.3534 H   0  0  0  0  0  0  0  0  0  0  0  0
   56.5340   31.1820   44.5540 N   0  0  0  0  0  0  0  0  0  0  0  0
   57.5200   31.2290   45.4360 N   0  0  0  0  0  0  0  0  0  0  0  0
   57.9480   32.2920   46.1540 C   0  0  0  0  0  0  0  0  0  0  0  0
   57.3800   33.4540   46.0240 N   0  0  0  0  0  0  0  0  0  0  0  0
   57.9780   34.5570   45.2780 C   0  0  0  0  0  0  0  0  0  0  0  0
   57.0475   35.0858   45.0239 H   0  0  0  0  0  0  0  0  0  0  0  0
   59.3400   34.9770   45.8000 C   0  0  0  0  0  0  0  0  0  0  0  0
   59.6481   36.0317   45.7479 H   0  0  0  0  0  0  0  0  0  0  0  0
   59.8753   34.8684   46.7548 H   0  0  0  0  0  0  0  0  0  0  0  0
   59.2310   34.1510   44.5250 C   0  0  0  0  0  0  0  0  0  0  0  0
   59.4606   34.6088   43.5515 H   0  0  0  0  0  0  0  0  0  0  0  0
   59.6552   33.1978   44.1764 H   0  0  0  0  0  0  0  0  0  0  0  0
   58.9900   32.1070   47.0140 N   0  0  0  0  0  0  0  0  0  0  0  0
   59.5770   30.8760   47.1520 C   0  0  0  0  0  0  0  0  0  0  0  0
   60.5870   30.6990   47.9520 N   0  0  0  0  0  0  0  0  0  0  0  0
   61.7380   31.5510   48.0890 C   0  0  0  0  0  0  0  0  0  0  0  0
   62.6430   31.4200   49.1600 C   0  0  0  0  0  0  0  0  0  0  0  0
   62.4690   30.6591   49.9351 H   0  0  0  0  0  0  0  0  0  0  0  0
   63.7630   32.2550   49.2410 C   0  0  0  0  0  0  0  0  0  0  0  0
   64.6280   32.1290   50.2790 F   0  0  0  0  0  0  0  0  0  0  0  0
   64.0010   33.2070   48.2470 C   0  0  0  0  0  0  0  0  0  0  0  0
   64.8778   33.8676   48.3166 H   0  0  0  0  0  0  0  0  0  0  0  0
   63.1250   33.3200   47.1640 C   0  0  0  0  0  0  0  0  0  0  0  0
   63.3640   34.2340   46.1910 F   0  0  0  0  0  0  0  0  0  0  0  0
   62.0040   32.4880   47.0810 C   0  0  0  0  0  0  0  0  0  0  0  0
   61.3262   32.5695   46.2185 H   0  0  0  0  0  0  0  0  0  0  0  0
   59.1280   29.8230   46.4080 N   0  0  0  0  0  0  0  0  0  0  0  0
   58.0940   30.0310   45.5590 C   0  0  0  0  0  0  0  0  0  0  0  0
  1  2  1  0
  2  3  1  0
  3  4  1  0
  4  5  1  0
  5  6  2  0
  5  7  1  0
  7  8  1  0
  8  9  1  0
  9 10  1  0
  9 11  2  0
 11 12  1  0
 12 13  1  0
 12 14  2  0
 14 15  1  0
 15 16  1  0
 16 17  2  3
 17 18  1  0
 18 19  1  0
 18 20  1  0
 20 21  1  0
 20 22  1  0
 20 23  1  0
 23 24  1  0
 23 25  1  0
 16 26  1  0
 26 27  1  0
 27 28  2  0
 28 29  1  0
 29 30  2  0
 30 31  1  0
 30 32  1  0
 32 33  1  0
 32 34  2  0
 34 35  1  0
 34 36  1  0
 36 37  1  0
 36 38  2  0
 38 39  1  0
 27 40  1  0
 40 41  2  0
  8  3  2  0
 41 11  1  0
 41 15  1  0
 23 18  1  0
 38 29  1  0
M  CHG  3   4  -1   7  -1  26  -1
M  END
>  <UniqueID>  (1) 
1

>  <SMILES>  (1) 
O=c1[n-]c(O)c(/C=c2\cnn3c(=NC4CC4)[n-]/c(=N\c4cc(F)cc(F)c4)nc23)[n-]1

>  <Energy>  (1) 
390.34710855484997

>  <Genealogy>  (1) 
O=c1[n-]c(O)c(C=c2cnn3c(=NC4CC4)[n-]c(=Nc4cc(F)cc(F)c4)nc23)[n-]1 (protonated)
O=c1[n-]c(O)c(/C=c2\cnn3c(=NC4CC4)[n-]/c(=N\c4cc(F)cc(F)c4)nc23)[n-]1 (cis-trans isomerization)
O=c1[n-]c(O)c(/C=c2\cnn3c(=NC4CC4)[n-]/c(=N\c4cc(F)cc(F)c4)nc23)[n-]1 (3D coordinates assigned)
O=c1[n-]c(O)c(/C=c2\cnn3c(=NC4CC4)[n-]/c(=N\c4cc(F)cc(F)c4)nc23)[n-]1 (nonaromatic ring conformer: 390.34710855484997 kcal/mol)

>  <smiles>  (1) 
O=c1[nH]c(O)c(C=c2cnn3c(=NC4CC4)[nH]c(=Nc4cc(F)cc(F)c4)nc23)[nH]1

>  <score_type>  (1) 
oracle

>  <origin>  (1) 
adg

>  <m_score__min__energy>  (1) 
-14.779999999999999

>  <m_primary>  (1) 
energy

$$$$
1:0
     RDKit          3D

 28 30  0  0  0  0  0  0  0  0999 V2000
   58.9619   26.2141   45.3332 H   0  0  0  0  0  0  0  0  0  0  0  0
   58.1860   26.9890   45.2460 C   0  0  0  0  0  0  0  0  0  0  0  0
   58.3560   28.4760   44.4690 S   0  0  0  0  0  0  0  0  0  0  0  0
   56.7800   28.9470   44.8040 C   0  0  0  0  0  0  0  0  0  0  0  0
   56.2870   30.0990   44.4540 N   0  0  0  0  0  0  0  0  0  0  0  0
   57.0390   31.2330   44.0030 C   0  0  0  0  0  0  0  0  0  0  0  0
   57.1020   31.4600   42.7650 O   0  0  0  0  0  0  0  0  0  0  0  0
   57.6760   32.1810   44.9500 C   0  0  0  0  0  0  0  0  0  0  0  0
   57.8460   33.5370   44.6060 C   0  0  0  0  0  0  0  0  0  0  0  0
   57.4963   33.9008   43.6286 H   0  0  0  0  0  0  0  0  0  0  0  0
   58.4570   34.4240   45.5000 C   0  0  0  0  0  0  0  0  0  0  0  0
   58.5799   35.4826   45.2276 H   0  0  0  0  0  0  0  0  0  0  0  0
   58.9100   33.9640   46.7370 C   0  0  0  0  0  0  0  0  0  0  0  0
   58.7310   32.6230   47.0960 C   0  0  0  0  0  0  0  0  0  0  0  0
   58.1350   31.7300   46.2010 C   0  0  0  0  0  0  0  0  0  0  0  0
   58.0244   30.6706   46.4759 H   0  0  0  0  0  0  0  0  0  0  0  0
   59.1550   32.1950   48.3580 O   0  0  0  0  0  0  0  0  0  0  0  0
   59.5050   33.1350   49.3780 C   0  0  0  0  0  0  0  0  0  0  0  0
   58.5892   33.4975   49.8679 H   0  0  0  0  0  0  0  0  0  0  0  0
   60.1542   32.6399   50.1151 H   0  0  0  0  0  0  0  0  0  0  0  0
   60.2580   34.3250   48.7660 C   0  0  0  0  0  0  0  0  0  0  0  0
   60.3514   35.1216   49.5188 H   0  0  0  0  0  0  0  0  0  0  0  0
   61.2560   33.9911   48.4457 H   0  0  0  0  0  0  0  0  0  0  0  0
   59.5490   34.8290   47.6310 O   0  0  0  0  0  0  0  0  0  0  0  0
   56.1190   28.0010   45.5140 N   0  0  0  0  0  0  0  0  0  0  0  0
   55.1430   28.0870   45.8730 H   0  0  0  0  0  0  0  0  0  0  0  0
   56.8960   26.9120   45.7570 C   0  0  0  0  0  0  0  0  0  0  0  0
   56.5314   26.0371   46.3153 H   0  0  0  0  0  0  0  0  0  0  0  0
  1  2  1  0
  2  3  1  0
  3  4  1  0
  4  5  2  0
  5  6  1  0
  6  7  2  0
  6  8  1  0
  8  9  2  0
  9 10  1  0
  9 11  1  0
 11 12  1  0
 11 13  2  0
 13 14  1  0
 14 15  2  0
 15 16  1  0
 14 17  1  0
 17 18  1  0
 18 19  1  0
 18 20  1  0
 18 21  1  0
 21 22  1  0
 21 23  1  0
 21 24  1  0
  4 25  1  0
 25 26  1  0
 25 27  1  0
 27 28  1  0
 27  2  2  0
 15  8  1  0
 24 13  1  0
M  END
>  <UniqueID>  (2) 
2

>  <SMILES>  (2) 
O=C(/N=c1\[nH]ccs1)c1ccc2c(c1)OCCO2

>  <Energy>  (2) 
69.15888611782113

>  <Genealogy>  (2) 
O=C(/N=c1\[nH]ccs1)c1ccc2c(c1)OCCO2 (cis-trans isomerization)
O=C(/N=c1\[nH]ccs1)c1ccc2c(c1)OCCO2 (3D coordinates assigned)
O=C(/N=c1\[nH]ccs1)c1ccc2c(c1)OCCO2 (nonaromatic ring conformer: 69.15888611782113 kcal/mol)

>  <smiles>  (2) 
O=C(N=c1[nH]ccs1)c1ccc2c(c1)OCCO2

>  <score_type>  (2) 
oracle

>  <origin>  (2) 
adg

>  <m_score__min__energy>  (2) 
-6.54

>  <m_primary>  (2) 
energy

$$$$
2:0
     RDKit          3D

 53 55  0  0  0  0  0  0  0  0999 V2000
   55.1230   29.7150   43.6790 C   0  0  0  0  0  0  0  0  0  0  0  0
   55.6290   29.1950   44.9040 O   0  0  0  0  0  0  0  0  0  0  0  0
   56.9120   28.6490   45.0700 C   0  0  0  0  0  0  0  0  0  0  0  0
   57.1150   27.4470   45.7790 C   0  0  0  0  0  0  0  0  0  0  0  0
   58.4000   26.9180   45.9220 C   0  0  0  0  0  0  0  0  0  0  0  0
   59.4950   27.5780   45.3670 C   0  0  0  0  0  0  0  0  0  0  0  0
   59.3110   28.7700   44.6660 C   0  0  0  0  0  0  0  0  0  0  0  0
   58.0260   29.3190   44.5140 C   0  0  0  0  0  0  0  0  0  0  0  0
   57.8760   30.6200   43.7640 C   0  0  0  0  0  0  0  0  0  0  0  0
   57.4020   31.6740   44.6600 N   0  0  0  0  0  0  0  0  0  0  0  0
   58.2390   32.4740   45.5050 C   0  0  0  0  0  0  0  0  0  0  0  0
   58.7730   33.5090   45.0280 O   0  0  0  0  0  0  0  0  0  0  0  0
   58.5120   32.1060   46.9060 C   0  0  0  0  0  0  0  0  0  0  0  0
   58.4630   33.0840   47.9100 C   0  0  0  0  0  0  0  0  0  0  0  0
   58.7250   32.7430   49.2400 C   0  0  0  0  0  0  0  0  0  0  0  0
   59.0300   31.4170   49.5830 C   0  0  0  0  0  0  0  0  0  0  0  0
   59.3070   31.0560   51.0160 C   0  0  0  0  0  0  0  0  0  0  0  0
   58.0870   30.5740   51.6620 N   0  0  0  0  0  0  0  0  0  0  0  0
   56.9710   31.4380   51.9360 C   0  0  0  0  0  0  0  0  0  0  0  0
   57.0740   32.6770   51.7210 O   0  0  0  0  0  0  0  0  0  0  0  0
   55.7020   30.9010   52.4820 C   0  0  0  0  0  0  0  0  0  0  0  0
   55.7040   30.1930   53.6980 C   0  0  0  0  0  0  0  0  0  0  0  0
   54.5130   29.6920   54.2270 C   0  0  0  0  0  0  0  0  0  0  0  0
   53.3060   29.8950   53.5550 C   0  0  0  0  0  0  0  0  0  0  0  0
   53.2840   30.6010   52.3470 C   0  0  0  0  0  0  0  0  0  0  0  0
   51.7570   30.8860   51.5190 S   0  0  0  0  0  0  0  0  0  0  0  0
   51.5280   32.5850   51.2990 N   0  0  0  0  0  0  0  0  0  0  0  0
   50.6230   30.3310   52.3350 O   0  0  0  0  0  0  0  0  0  0  0  0
   51.7650   30.2030   50.1800 O   0  0  0  0  0  0  0  0  0  0  0  0
   54.4780   31.1110   51.8180 C   0  0  0  0  0  0  0  0  0  0  0  0
   59.0490   30.4330   48.5820 C   0  0  0  0  0  0  0  0  0  0  0  0
   58.7900   30.7770   47.2520 C   0  0  0  0  0  0  0  0  0  0  0  0
   54.3704   30.4884   43.8920 H   0  0  0  0  0  0  0  0  0  0  0  0
   55.9475   30.1555   43.0993 H   0  0  0  0  0  0  0  0  0  0  0  0
   54.6601   28.9028   43.0993 H   0  0  0  0  0  0  0  0  0  0  0  0
   56.2558   26.9225   46.2224 H   0  0  0  0  0  0  0  0  0  0  0  0
   58.5480   25.9781   46.4740 H   0  0  0  0  0  0  0  0  0  0  0  0
   60.5054   27.1585   45.4819 H   0  0  0  0  0  0  0  0  0  0  0  0
   60.1791   29.2847   44.2284 H   0  0  0  0  0  0  0  0  0  0  0  0
   58.8506   30.9114   43.3455 H   0  0  0  0  0  0  0  0  0  0  0  0
   57.1428   30.4829   42.9555 H   0  0  0  0  0  0  0  0  0  0  0  0
   58.2173   34.1241   47.6496 H   0  0  0  0  0  0  0  0  0  0  0  0
   58.6920   33.5171   50.0208 H   0  0  0  0  0  0  0  0  0  0  0  0
   60.0721   30.2664   51.0501 H   0  0  0  0  0  0  0  0  0  0  0  0
   59.6647   31.9500   51.5479 H   0  0  0  0  0  0  0  0  0  0  0  0
   58.0680   29.5790   51.9790 H   0  0  0  0  0  0  0  0  0  0  0  0
   56.6503   30.0332   54.2355 H   0  0  0  0  0  0  0  0  0  0  0  0
   54.5256   29.1358   55.1759 H   0  0  0  0  0  0  0  0  0  0  0  0
   52.3702   29.4990   53.9762 H   0  0  0  0  0  0  0  0  0  0  0  0
   51.0470   32.7120   50.3800 H   0  0  0  0  0  0  0  0  0  0  0  0
   54.4586   31.6798   50.8767 H   0  0  0  0  0  0  0  0  0  0  0  0
   59.2684   29.3877   48.8450 H   0  0  0  0  0  0  0  0  0  0  0  0
   58.8045   30.0004   46.4731 H   0  0  0  0  0  0  0  0  0  0  0  0
  1  2  1  0
  2  3  1  0
  3  4  2  0
  4  5  1  0
  5  6  2  0
  6  7  1  0
  7  8  2  0
  8  9  1  0
  9 10  1  0
 10 11  1  0
 11 12  2  0
 11 13  1  0
 13 14  2  0
 14 15  1  0
 15 16  2  0
 16 17  1  0
 17 18  1  0
 18 19  1  0
 19 20  2  0
 19 21  1  0
 21 22  2  0
 22 23  1  0
 23 24  2  0
 24 25  1  0
 25 26  1  0
 26 27  1  0
 26 28  2  0
 26 29  2  0
 25 30  2  0
 16 31  1  0
 31 32  2  0
  8  3  1  0
 32 13  1  0
 30 21  1  0
  1 33  1  0
  1 34  1  0
  1 35  1  0
  4 36  1  0
  5 37  1  0
  6 38  1  0
  7 39  1  0
  9 40  1  0
  9 41  1  0
 14 42  1  0
 15 43  1  0
 17 44  1  0
 17 45  1  0
 18 46  1  0
 22 47  1  0
 23 48  1  0
 24 49  1  0
 27 50  1  0
 30 51  1  0
 31 52  1  0
 32 53  1  0
M  CHG  2  10  -1  27  -1
M  END
>  <UniqueID>  (3) 
3

>  <SMILES>  (3) 
COc1ccccc1C[N-]C(=O)c1ccc(CNC(=O)c2cccc(S([NH-])(=O)=O)c2)cc1

>  <Energy>  (3) 
56.274292808228196

>  <Genealogy>  (3) 
COc1ccccc1C[N-]C(=O)c1ccc(CNC(=O)c2cccc(S([NH-])(=O)=O)c2)cc1 (protonated)
COc1ccccc1C[N-]C(=O)c1ccc(CNC(=O)c2cccc(S([NH-])(=O)=O)c2)cc1 (3D coordinates assigned)
COc1ccccc1C[N-]C(=O)c1ccc(CNC(=O)c2cccc(S([NH-])(=O)=O)c2)cc1 (optimized conformer: 56.274292808228196 kcal/mol)

>  <smiles>  (3) 
COc1ccccc1CNC(=O)c1ccc(CNC(=O)c2cccc(S(N)(=O)=O)c2)cc1

>  <score_type>  (3) 
oracle

>  <origin>  (3) 
adg

>  <m_score__min__energy>  (3) 
-13.02

>  <m_primary>  (3) 
energy

$$$$
3:0
     RDKit          3D

 46 49  0  0  0  0  0  0  0  0999 V2000
   50.5250   23.6500   43.9770 C   0  0  0  0  0  0  0  0  0  0  0  0
   51.7640   22.9720   44.3290 N   0  0  0  0  0  0  0  0  0  0  0  0
   52.8450   23.6330   44.9950 C   0  0  0  0  0  0  0  0  0  0  0  0
   52.7790   24.8690   45.2370 O   0  0  0  0  0  0  0  0  0  0  0  0
   54.0300   22.9140   45.3490 N   0  0  0  0  0  0  0  0  0  0  0  0
   55.3680   23.3160   45.0250 C   0  0  0  0  0  0  0  0  0  0  0  0
   55.8050   24.5840   45.4270 C   0  0  0  0  0  0  0  0  0  0  0  0
   57.1160   25.0170   45.1560 C   0  0  0  0  0  0  0  0  0  0  0  0
   57.5700   26.3650   45.5780 C   0  0  0  0  0  0  0  0  0  0  0  0
   58.5700   26.5060   46.5590 C   0  0  0  0  0  0  0  0  0  0  0  0
   58.9980   27.7740   46.9620 C   0  0  0  0  0  0  0  0  0  0  0  0
   58.4370   28.9200   46.3910 C   0  0  0  0  0  0  0  0  0  0  0  0
   58.8460   30.1210   46.7790 O   0  0  0  0  0  0  0  0  0  0  0  0
   58.3490   31.2440   46.2650 C   0  0  0  0  0  0  0  0  0  0  0  0
   58.8280   32.5230   46.7240 N   0  0  0  0  0  0  0  0  0  0  0  0
   59.1770   32.6950   48.1400 C   0  0  0  0  0  0  0  0  0  0  0  0
   60.1590   33.8580   48.3080 C   0  0  0  0  0  0  0  0  0  0  0  0
   59.6750   35.0200   47.6660 O   0  0  0  0  0  0  0  0  0  0  0  0
   59.6380   34.8060   46.2690 C   0  0  0  0  0  0  0  0  0  0  0  0
   58.6130   33.7260   45.9090 C   0  0  0  0  0  0  0  0  0  0  0  0
   57.3870   31.1740   45.3040 N   0  0  0  0  0  0  0  0  0  0  0  0
   56.9210   29.9780   44.8620 C   0  0  0  0  0  0  0  0  0  0  0  0
   56.0280   29.9500   43.9730 O   0  0  0  0  0  0  0  0  0  0  0  0
   57.4400   28.7950   45.4050 C   0  0  0  0  0  0  0  0  0  0  0  0
   57.0080   27.5190   45.0020 C   0  0  0  0  0  0  0  0  0  0  0  0
   57.9930   24.1490   44.4820 C   0  0  0  0  0  0  0  0  0  0  0  0
   57.5730   22.8720   44.1050 C   0  0  0  0  0  0  0  0  0  0  0  0
   56.2720   22.4440   44.3880 C   0  0  0  0  0  0  0  0  0  0  0  0
   55.9060   21.1410   44.0660 O   0  0  0  0  0  0  0  0  0  0  0  0
   49.9929   23.9412   44.8946 H   0  0  0  0  0  0  0  0  0  0  0  0
   50.7540   24.5485   43.3852 H   0  0  0  0  0  0  0  0  0  0  0  0
   49.8917   22.9727   43.3852 H   0  0  0  0  0  0  0  0  0  0  0  0
   55.1135   25.2512   45.9624 H   0  0  0  0  0  0  0  0  0  0  0  0
   59.0186   25.6099   47.0125 H   0  0  0  0  0  0  0  0  0  0  0  0
   59.7787   27.8705   47.7309 H   0  0  0  0  0  0  0  0  0  0  0  0
   58.2637   32.9052   48.7159 H   0  0  0  0  0  0  0  0  0  0  0  0
   59.6496   31.7719   48.5067 H   0  0  0  0  0  0  0  0  0  0  0  0
   60.2909   34.0666   49.3799 H   0  0  0  0  0  0  0  0  0  0  0  0
   61.1196   33.5771   47.8516 H   0  0  0  0  0  0  0  0  0  0  0  0
   59.3624   35.7456   45.7678 H   0  0  0  0  0  0  0  0  0  0  0  0
   60.6323   34.4716   45.9380 H   0  0  0  0  0  0  0  0  0  0  0  0
   57.5997   34.1123   46.0935 H   0  0  0  0  0  0  0  0  0  0  0  0
   58.7302   33.4630   44.8473 H   0  0  0  0  0  0  0  0  0  0  0  0
   56.2273   27.4227   44.2331 H   0  0  0  0  0  0  0  0  0  0  0  0
   59.0167   24.4782   44.2502 H   0  0  0  0  0  0  0  0  0  0  0  0
   58.2690   22.1991   43.5827 H   0  0  0  0  0  0  0  0  0  0  0  0
  1  2  1  0
  2  3  1  0
  3  4  2  0
  3  5  1  0
  5  6  1  0
  6  7  2  0
  7  8  1  0
  8  9  1  0
  9 10  2  0
 10 11  1  0
 11 12  2  0
 12 13  1  0
 13 14  1  0
 14 15  1  0
 15 16  1  0
 16 17  1  0
 17 18  1  0
 18 19  1  0
 19 20  1  0
 14 21  2  0
 21 22  1  0
 22 23  2  0
 22 24  1  0
 24 25  2  0
  8 26  2  0
 26 27  1  0
 27 28  2  0
 28 29  1  0
 28  6  1  0
 25  9  1  0
 24 12  1  0
 20 15  1  0
  1 30  1  0
  1 31  1  0
  1 32  1  0
  7 33  1  0
 10 34  1  0
 11 35  1  0
 16 36  1  0
 16 37  1  0
 17 38  1  0
 17 39  1  0
 19 40  1  0
 19 41  1  0
 20 42  1  0
 20 43  1  0
 25 44  1  0
 26 45  1  0
 27 46  1  0
M  CHG  3   2  -1   5  -1  29  -1
M  END
>  <UniqueID>  (4) 
4

>  <SMILES>  (4) 
C[N-]C(=O)[N-]c1cc(-c2ccc3oc(N4CCOCC4)nc(=O)c3c2)ccc1[O-]

>  <Energy>  (4) 
63.8498930482473

>  <Genealogy>  (4) 
C[N-]C(=O)[N-]c1cc(-c2ccc3oc(N4CCOCC4)nc(=O)c3c2)ccc1[O-] (protonated)
C[N-]C(=O)[N-]c1cc(-c2ccc3oc(N4CCOCC4)nc(=O)c3c2)ccc1[O-] (3D coordinates assigned)
C[N-]C(=O)[N-]c1cc(-c2ccc3oc(N4CCOCC4)nc(=O)c3c2)ccc1[O-] (nonaromatic ring conformer: 63.8498930482473 kcal/mol)

>  <smiles>  (4) 
CNC(=O)Nc1cc(-c2ccc3oc(N4CCOCC4)nc(=O)c3c2)ccc1O

>  <score_type>  (4) 
oracle

>  <origin>  (4) 
adg

>  <m_score__min__energy>  (4) 
-13.18

>  <m_primary>  (4) 
energy

$$$$
4:0
     RDKit          3D

 60 63  0  0  0  0  0  0  0  0999 V2000
   68.7510   27.0250   50.0320 C   0  0  0  0  0  0  0  0  0  0  0  0
   67.5200   27.5890   50.6780 C   0  0  0  0  0  0  0  0  0  0  0  0
   66.5750   26.7370   51.2700 C   0  0  0  0  0  0  0  0  0  0  0  0
   65.4490   27.2680   51.9050 C   0  0  0  0  0  0  0  0  0  0  0  0
   65.2630   28.6520   51.9610 C   0  0  0  0  0  0  0  0  0  0  0  0
   66.2040   29.5130   51.3810 C   0  0  0  0  0  0  0  0  0  0  0  0
   65.9750   31.2540   51.4840 S   0  0  0  0  0  0  0  0  0  0  0  0
   65.6080   31.6510   52.8870 O   0  0  0  0  0  0  0  0  0  0  0  0
   67.2570   31.9520   51.1220 O   0  0  0  0  0  0  0  0  0  0  0  0
   64.6880   31.7340   50.3830 C   0  0  0  0  0  0  0  0  0  0  0  0
   64.9030   32.7250   49.4190 C   0  0  0  0  0  0  0  0  0  0  0  0
   63.8720   33.0870   48.5500 C   0  0  0  0  0  0  0  0  0  0  0  0
   62.6260   32.4480   48.6510 C   0  0  0  0  0  0  0  0  0  0  0  0
   61.5190   32.7940   47.7310 C   0  0  0  0  0  0  0  0  0  0  0  0
   61.3830   34.1230   47.2920 C   0  0  0  0  0  0  0  0  0  0  0  0
   60.3850   34.4740   46.3820 C   0  0  0  0  0  0  0  0  0  0  0  0
   59.5090   33.5020   45.8810 C   0  0  0  0  0  0  0  0  0  0  0  0
   58.4460   33.8840   44.8850 C   0  0  0  0  0  0  0  0  0  0  0  0
   57.3460   32.9230   44.9070 N   0  0  0  0  0  0  0  0  0  0  0  0
   57.1990   31.7980   44.0300 C   0  0  0  0  0  0  0  0  0  0  0  0
   58.0020   31.6830   43.0690 O   0  0  0  0  0  0  0  0  0  0  0  0
   56.1680   30.7230   44.2910 C   0  0  0  0  0  0  0  0  0  0  0  0
   56.5890   29.3260   43.8020 C   0  0  0  0  0  0  0  0  0  0  0  0
   57.4370   28.5840   44.8120 C   0  0  0  0  0  0  0  0  0  0  0  0
   58.8090   28.8770   44.9130 C   0  0  0  0  0  0  0  0  0  0  0  0
   59.6120   28.2020   45.8370 C   0  0  0  0  0  0  0  0  0  0  0  0
   59.0560   27.2330   46.6720 C   0  0  0  0  0  0  0  0  0  0  0  0
   57.6910   26.9400   46.5900 C   0  0  0  0  0  0  0  0  0  0  0  0
   56.8790   27.6110   45.6690 C   0  0  0  0  0  0  0  0  0  0  0  0
   55.5230   27.3050   45.6150 O   0  0  0  0  0  0  0  0  0  0  0  0
   59.6260   32.1770   46.3270 C   0  0  0  0  0  0  0  0  0  0  0  0
   60.6100   31.8170   47.2550 C   0  0  0  0  0  0  0  0  0  0  0  0
   60.6340   30.4950   47.7020 O   0  0  0  0  0  0  0  0  0  0  0  0
   62.4510   31.4710   49.5830 N   0  0  0  0  0  0  0  0  0  0  0  0
   63.4400   31.1050   50.4420 C   0  0  0  0  0  0  0  0  0  0  0  0
   67.3380   28.9800   50.7510 C   0  0  0  0  0  0  0  0  0  0  0  0
   69.4578   26.7012   50.8101 H   0  0  0  0  0  0  0  0  0  0  0  0
   68.4748   26.1636   49.4061 H   0  0  0  0  0  0  0  0  0  0  0  0
   69.2230   27.7967   49.4061 H   0  0  0  0  0  0  0  0  0  0  0  0
   66.7211   25.6473   51.2341 H   0  0  0  0  0  0  0  0  0  0  0  0
   64.7078   26.5955   52.3615 H   0  0  0  0  0  0  0  0  0  0  0  0
   64.3756   29.0664   52.4617 H   0  0  0  0  0  0  0  0  0  0  0  0
   65.8834   33.2184   49.3459 H   0  0  0  0  0  0  0  0  0  0  0  0
   64.0347   33.8671   47.7918 H   0  0  0  0  0  0  0  0  0  0  0  0
   62.0705   34.8940   47.6699 H   0  0  0  0  0  0  0  0  0  0  0  0
   60.2855   35.5199   46.0561 H   0  0  0  0  0  0  0  0  0  0  0  0
   58.0581   34.8822   45.1364 H   0  0  0  0  0  0  0  0  0  0  0  0
   58.8905   33.8885   43.8788 H   0  0  0  0  0  0  0  0  0  0  0  0
   55.9879   30.6712   45.3749 H   0  0  0  0  0  0  0  0  0  0  0  0
   55.2656   31.0012   43.7268 H   0  0  0  0  0  0  0  0  0  0  0  0
   55.6828   28.7354   43.6020 H   0  0  0  0  0  0  0  0  0  0  0  0
   57.1957   29.4609   42.8944 H   0  0  0  0  0  0  0  0  0  0  0  0
   59.2533   29.6428   44.2602 H   0  0  0  0  0  0  0  0  0  0  0  0
   60.6847   28.4356   45.9057 H   0  0  0  0  0  0  0  0  0  0  0  0
   59.6909   26.6995   47.3947 H   0  0  0  0  0  0  0  0  0  0  0  0
   57.2537   26.1786   47.2526 H   0  0  0  0  0  0  0  0  0  0  0  0
   58.9358   31.4115   45.9426 H   0  0  0  0  0  0  0  0  0  0  0  0
   61.1370   30.1970   48.5280 H   0  0  0  0  0  0  0  0  0  0  0  0
   63.2582   30.3135   51.1839 H   0  0  0  0  0  0  0  0  0  0  0  0
   68.0882   29.6542   50.3121 H   0  0  0  0  0  0  0  0  0  0  0  0
  1  2  1  0
  2  3  2  0
  3  4  1  0
  4  5  2  0
  5  6  1  0
  6  7  1  0
  7  8  2  0
  7  9  2  0
  7 10  1  0
 10 11  2  0
 11 12  1  0
 12 13  2  0
 13 14  1  0
 14 15  2  0
 15 16  1  0
 16 17  2  0
 17 18  1  0
 18 19  1  0
 19 20  1  0
 20 21  2  0
 20 22  1  0
 22 23  1  0
 23 24  1  0
 24 25  2  0
 25 26  1  0
 26 27  2  0
 27 28  1  0
 28 29  2  0
 29 30  1  0
 17 31  1  0
 31 32  2  0
 32 33  1  0
 13 34  1  0
 34 35  2  0
  6 36  2  0
 36  2  1  0
 35 10  1  0
 32 14  1  0
 29 24  1  0
  1 37  1  0
  1 38  1  0
  1 39  1  0
  3 40  1  0
  4 41  1  0
  5 42  1  0
 11 43  1  0
 12 44  1  0
 15 45  1  0
 16 46  1  0
 18 47  1  0
 18 48  1  0
 22 49  1  0
 22 50  1  0
 23 51  1  0
 23 52  1  0
 25 53  1  0
 26 54  1  0
 27 55  1  0
 28 56  1  0
 31 57  1  0
 33 58  1  0
 35 59  1  0
 36 60  1  0
M  CHG  2  19  -1  30  -1
M  END
>  <UniqueID>  (5) 
5

>  <SMILES>  (5) 
Cc1cccc(S(=O)(=O)c2ccc(-c3ccc(C[N-]C(=O)CCc4ccccc4[O-])cc3O)nc2)c1

>  <Energy>  (5) 
71.16141979051999

>  <Genealogy>  (5) 
Cc1cccc(S(=O)(=O)c2ccc(-c3ccc(C[N-]C(=O)CCc4ccccc4[O-])cc3O)nc2)c1 (protonated)
Cc1cccc(S(=O)(=O)c2ccc(-c3ccc(C[N-]C(=O)CCc4ccccc4[O-])cc3O)nc2)c1 (3D coordinates assigned)
Cc1cccc(S(=O)(=O)c2ccc(-c3ccc(C[N-]C(=O)CCc4ccccc4[O-])cc3O)nc2)c1 (optimized conformer: 71.16141979051999 kcal/mol)

>  <smiles>  (5) 
Cc1cccc(S(=O)(=O)c2ccc(-c3ccc(CNC(=O)CCc4ccccc4O)cc3O)nc2)c1

>  <score_type>  (5) 
oracle

>  <origin>  (5) 
adg

>  <m_score__min__energy>  (5) 
-14.44

>  <m_primary>  (5) 
energy

$$$$
5:0
     RDKit          3D

 49 52  0  0  0  0  0  0  0  0999 V2000
   59.6500   35.3610   46.7630 C   0  0  0  0  0  0  0  0  0  0  0  0
   59.0510   34.1910   46.0390 C   0  0  0  0  0  0  0  0  0  0  0  0
   58.9620   34.2050   44.6390 C   0  0  0  0  0  0  0  0  0  0  0  0
   58.3520   33.1440   43.9620 C   0  0  0  0  0  0  0  0  0  0  0  0
   57.8170   32.0660   44.6780 C   0  0  0  0  0  0  0  0  0  0  0  0
   56.9700   30.7840   43.8200 S   0  0  0  0  0  0  0  0  0  0  0  0
   55.6420   30.5220   44.4740 O   0  0  0  0  0  0  0  0  0  0  0  0
   56.7240   31.1860   42.3930 O   0  0  0  0  0  0  0  0  0  0  0  0
   57.9440   29.3520   43.8450 N   0  0  0  0  0  0  0  0  0  0  0  0
   58.7030   29.0070   45.0080 C   0  0  0  0  0  0  0  0  0  0  0  0
   59.9910   29.5450   45.1500 C   0  0  0  0  0  0  0  0  0  0  0  0
   60.7510   29.2750   46.2880 C   0  0  0  0  0  0  0  0  0  0  0  0
   60.2330   28.4690   47.2970 C   0  0  0  0  0  0  0  0  0  0  0  0
   58.9550   27.9210   47.1710 C   0  0  0  0  0  0  0  0  0  0  0  0
   58.1690   28.1730   46.0270 C   0  0  0  0  0  0  0  0  0  0  0  0
   56.8410   27.5110   45.9050 C   0  0  0  0  0  0  0  0  0  0  0  0
   55.9000   28.0790   45.2880 O   0  0  0  0  0  0  0  0  0  0  0  0
   56.6350   26.2110   46.4830 N   0  0  0  0  0  0  0  0  0  0  0  0
   55.9650   25.2380   45.9390 C   0  0  0  0  0  0  0  0  0  0  0  0
   54.6210   25.1270   45.9780 N   0  0  0  0  0  0  0  0  0  0  0  0
   54.1790   24.0290   45.3040 C   0  0  0  0  0  0  0  0  0  0  0  0
   52.7300   23.7210   45.2030 C   0  0  0  0  0  0  0  0  0  0  0  0
   52.0220   24.0730   44.0370 C   0  0  0  0  0  0  0  0  0  0  0  0
   50.6610   23.7820   43.9130 C   0  0  0  0  0  0  0  0  0  0  0  0
   49.9840   23.1470   44.9550 C   0  0  0  0  0  0  0  0  0  0  0  0
   50.6680   22.8040   46.1240 C   0  0  0  0  0  0  0  0  0  0  0  0
   52.0330   23.0870   46.2500 C   0  0  0  0  0  0  0  0  0  0  0  0
   55.1940   23.2660   44.7170 C   0  0  0  0  0  0  0  0  0  0  0  0
   56.6720   24.0000   45.0600 S   0  0  0  0  0  0  0  0  0  0  0  0
   57.8920   32.0570   46.0770 C   0  0  0  0  0  0  0  0  0  0  0  0
   58.5060   33.1150   46.7550 C   0  0  0  0  0  0  0  0  0  0  0  0
   59.5683   35.2015   47.8483 H   0  0  0  0  0  0  0  0  0  0  0  0
   60.7098   35.4603   46.4857 H   0  0  0  0  0  0  0  0  0  0  0  0
   59.1109   36.2789   46.4857 H   0  0  0  0  0  0  0  0  0  0  0  0
   59.3733   35.0531   44.0719 H   0  0  0  0  0  0  0  0  0  0  0  0
   58.2923   33.1564   42.8637 H   0  0  0  0  0  0  0  0  0  0  0  0
   58.1560   28.8830   42.9360 H   0  0  0  0  0  0  0  0  0  0  0  0
   60.4050   30.1852   44.3571 H   0  0  0  0  0  0  0  0  0  0  0  0
   61.7608   29.6997   46.3879 H   0  0  0  0  0  0  0  0  0  0  0  0
   60.8319   28.2630   48.1963 H   0  0  0  0  0  0  0  0  0  0  0  0
   58.5558   27.2844   47.9743 H   0  0  0  0  0  0  0  0  0  0  0  0
   52.5464   24.5825   43.2152 H   0  0  0  0  0  0  0  0  0  0  0  0
   50.1226   24.0537   42.9930 H   0  0  0  0  0  0  0  0  0  0  0  0
   48.9129   22.9167   44.8561 H   0  0  0  0  0  0  0  0  0  0  0  0
   50.1321   22.3100   46.9479 H   0  0  0  0  0  0  0  0  0  0  0  0
   52.5650   22.8124   47.1728 H   0  0  0  0  0  0  0  0  0  0  0  0
   55.0520   22.3453   44.1321 H   0  0  0  0  0  0  0  0  0  0  0  0
   57.4668   31.2155   46.6437 H   0  0  0  0  0  0  0  0  0  0  0  0
   58.5617   33.1033   47.8535 H   0  0  0  0  0  0  0  0  0  0  0  0
  1  2  1  0
  2  3  2  0
  3  4  1  0
  4  5  2  0
  5  6  1  0
  6  7  2  0
  6  8  2  0
  6  9  1  0
  9 10  1  0
 10 11  2  0
 11 12  1  0
 12 13  2  0
 13 14  1  0
 14 15  2  0
 15 16  1  0
 16 17  2  0
 16 18  1  0
 18 19  2  3
 19 20  1  0
 20 21  1  0
 21 22  1  0
 22 23  2  0
 23 24  1  0
 24 25  2  0
 25 26  1  0
 26 27  2  0
 21 28  2  0
 28 29  1  0
  5 30  1  0
 30 31  2  0
 31  2  1  0
 15 10  1  0
 29 19  1  0
 27 22  1  0
  1 32  1  0
  1 33  1  0
  1 34  1  0
  3 35  1  0
  4 36  1  0
  9 37  1  0
 11 38  1  0
 12 39  1  0
 13 40  1  0
 14 41  1  0
 23 42  1  0
 24 43  1  0
 25 44  1  0
 26 45  1  0
 27 46  1  0
 28 47  1  0
 30 48  1  0
 31 49  1  0
M  CHG  1  20  -1
M  END
>  <UniqueID>  (6) 
6

>  <SMILES>  (6) 
Cc1ccc(S(=O)(=O)Nc2ccccc2C(=O)N=c2[n-]c(-c3ccccc3)cs2)cc1

>  <Energy>  (6) 
94.17960926363443

>  <Genealogy>  (6) 
Cc1ccc(S(=O)(=O)Nc2ccccc2C(=O)N=c2[n-]c(-c3ccccc3)cs2)cc1 (protonated)
Cc1ccc(S(=O)(=O)Nc2ccccc2C(=O)N=c2[n-]c(-c3ccccc3)cs2)cc1 (3D coordinates assigned)
Cc1ccc(S(=O)(=O)Nc2ccccc2C(=O)N=c2[n-]c(-c3ccccc3)cs2)cc1 (optimized conformer: 94.17960926363443 kcal/mol)

>  <smiles>  (6) 
Cc1ccc(S(=O)(=O)Nc2ccccc2C(=O)N=c2[nH]c(-c3ccccc3)cs2)cc1

>  <score_type>  (6) 
oracle

>  <origin>  (6) 
adg

>  <m_score__min__energy>  (6) 
-12.44

>  <m_primary>  (6) 
energy

$$$$
6:0
     RDKit          3D

 42 43  0  0  0  0  0  0  0  0999 V2000
   60.4390   26.4130   46.7340 C   0  0  0  0  0  0  0  0  0  0  0  0
   59.5690   27.3760   45.9830 C   0  0  0  0  0  0  0  0  0  0  0  0
   60.1480   28.4040   45.2210 C   0  0  0  0  0  0  0  0  0  0  0  0
   59.3410   29.2800   44.4930 C   0  0  0  0  0  0  0  0  0  0  0  0
   57.9460   29.1370   44.5120 C   0  0  0  0  0  0  0  0  0  0  0  0
   56.9170   30.2510   43.6150 S   0  0  0  0  0  0  0  0  0  0  0  0
   55.7980   30.7070   44.5080 O   0  0  0  0  0  0  0  0  0  0  0  0
   56.3250   29.5560   42.4190 O   0  0  0  0  0  0  0  0  0  0  0  0
   57.8410   31.6810   43.0500 C   0  0  0  0  0  0  0  0  0  0  0  0
   57.7360   32.8790   44.0030 C   0  0  0  0  0  0  0  0  0  0  0  0
   58.4670   32.6440   45.2940 C   0  0  0  0  0  0  0  0  0  0  0  0
   59.5930   33.1840   45.4700 O   0  0  0  0  0  0  0  0  0  0  0  0
   57.9060   31.7720   46.2900 N   0  0  0  0  0  0  0  0  0  0  0  0
   58.5250   31.4880   47.5550 C   0  0  0  0  0  0  0  0  0  0  0  0
   58.6850   32.4840   48.5360 C   0  0  0  0  0  0  0  0  0  0  0  0
   59.2680   32.1730   49.7680 C   0  0  0  0  0  0  0  0  0  0  0  0
   59.6800   30.8640   50.0400 C   0  0  0  0  0  0  0  0  0  0  0  0
   60.4340   30.4690   51.6200 S   0  0  0  0  0  0  0  0  0  0  0  0
   58.8440   30.2650   52.4840 C   0  0  0  0  0  0  0  0  0  0  0  0
   58.2330   31.4940   52.6450 F   0  0  0  0  0  0  0  0  0  0  0  0
   58.0230   29.4460   51.7330 F   0  0  0  0  0  0  0  0  0  0  0  0
   59.5080   29.8660   49.0760 C   0  0  0  0  0  0  0  0  0  0  0  0
   58.9230   30.1740   47.8440 C   0  0  0  0  0  0  0  0  0  0  0  0
   57.3680   28.0960   45.2480 C   0  0  0  0  0  0  0  0  0  0  0  0
   58.1760   27.2170   45.9770 C   0  0  0  0  0  0  0  0  0  0  0  0
   60.3035   26.5629   47.8153 H   0  0  0  0  0  0  0  0  0  0  0  0
   60.1594   25.3827   46.4688 H   0  0  0  0  0  0  0  0  0  0  0  0
   61.4923   26.5869   46.4688 H   0  0  0  0  0  0  0  0  0  0  0  0
   61.2417   28.5193   45.1978 H   0  0  0  0  0  0  0  0  0  0  0  0
   59.8011   30.0857   43.9021 H   0  0  0  0  0  0  0  0  0  0  0  0
   58.9002   31.3992   42.9569 H   0  0  0  0  0  0  0  0  0  0  0  0
   57.4113   31.9897   42.0856 H   0  0  0  0  0  0  0  0  0  0  0  0
   58.1652   33.7631   43.5089 H   0  0  0  0  0  0  0  0  0  0  0  0
   56.6724   33.0291   44.2401 H   0  0  0  0  0  0  0  0  0  0  0  0
   57.0570   31.2210   46.0320 H   0  0  0  0  0  0  0  0  0  0  0  0
   58.3499   33.5118   48.3326 H   0  0  0  0  0  0  0  0  0  0  0  0
   59.4031   32.9593   50.5253 H   0  0  0  0  0  0  0  0  0  0  0  0
   59.0230   29.8170   53.4726 H   0  0  0  0  0  0  0  0  0  0  0  0
   59.8335   28.8367   49.2872 H   0  0  0  0  0  0  0  0  0  0  0  0
   58.7738   29.3810   47.0965 H   0  0  0  0  0  0  0  0  0  0  0  0
   56.2754   27.9688   45.2531 H   0  0  0  0  0  0  0  0  0  0  0  0
   57.7162   26.3971   46.5483 H   0  0  0  0  0  0  0  0  0  0  0  0
  1  2  1  0
  2  3  2  0
  3  4  1  0
  4  5  2  0
  5  6  1  0
  6  7  2  0
  6  8  2  0
  6  9  1  0
  9 10  1  0
 10 11  1  0
 11 12  2  0
 11 13  1  0
 13 14  1  0
 14 15  2  0
 15 16  1  0
 16 17  2  0
 17 18  1  0
 18 19  1  0
 19 20  1  0
 19 21  1  0
 17 22  1  0
 22 23  2  0
  5 24  1  0
 24 25  2  0
 25  2  1  0
 23 14  1  0
  1 26  1  0
  1 27  1  0
  1 28  1  0
  3 29  1  0
  4 30  1  0
  9 31  1  0
  9 32  1  0
 10 33  1  0
 10 34  1  0
 13 35  1  0
 15 36  1  0
 16 37  1  0
 19 38  1  0
 22 39  1  0
 23 40  1  0
 24 41  1  0
 25 42  1  0
M  END
>  <UniqueID>  (7) 
7

>  <SMILES>  (7) 
Cc1ccc(S(=O)(=O)CCC(=O)Nc2ccc(SC(F)F)cc2)cc1

>  <Energy>  (7) 
33.77533455557545

>  <Genealogy>  (7) 
Cc1ccc(S(=O)(=O)CCC(=O)Nc2ccc(SC(F)F)cc2)cc1 (3D coordinates assigned)
Cc1ccc(S(=O)(=O)CCC(=O)Nc2ccc(SC(F)F)cc2)cc1 (optimized conformer: 33.77533455557545 kcal/mol)

>  <smiles>  (7) 
Cc1ccc(S(=O)(=O)CCC(=O)Nc2ccc(SC(F)F)cc2)cc1

>  <score_type>  (7) 
oracle

>  <origin>  (7) 
adg

>  <m_score__min__energy>  (7) 
-7.9199999999999999

>  <m_primary>  (7) 
energy

$$$$
7:0
     RDKit          3D

 52 54  0  0  0  0  0  0  0  0999 V2000
   58.5000   22.8140   44.9120 C   0  0  0  0  0  0  0  0  0  0  0  0
   57.0150   22.7700   44.5040 C   0  0  0  0  0  0  0  0  0  0  0  0
   56.6930   24.0170   43.6680 C   0  0  0  0  0  0  0  0  0  0  0  0
   56.7180   21.5170   43.6600 C   0  0  0  0  0  0  0  0  0  0  0  0
   56.1710   22.8090   45.6640 O   0  0  0  0  0  0  0  0  0  0  0  0
   56.5200   23.3050   46.9300 C   0  0  0  0  0  0  0  0  0  0  0  0
   57.0230   22.5540   47.8070 O   0  0  0  0  0  0  0  0  0  0  0  0
   56.3510   24.6950   47.2250 N   0  0  0  0  0  0  0  0  0  0  0  0
   57.0050   25.7650   46.5270 C   0  0  0  0  0  0  0  0  0  0  0  0
   58.4010   25.8090   46.3950 C   0  0  0  0  0  0  0  0  0  0  0  0
   59.0160   26.8650   45.7190 C   0  0  0  0  0  0  0  0  0  0  0  0
   58.2460   27.8950   45.1640 C   0  0  0  0  0  0  0  0  0  0  0  0
   58.9100   29.0790   44.5040 C   0  0  0  0  0  0  0  0  0  0  0  0
   57.8980   30.1570   44.0970 C   0  0  0  0  0  0  0  0  0  0  0  0
   57.4230   30.8950   45.2710 N   0  0  0  0  0  0  0  0  0  0  0  0
   57.9910   32.1500   45.6800 C   0  0  0  0  0  0  0  0  0  0  0  0
   57.8250   33.2800   44.8630 C   0  0  0  0  0  0  0  0  0  0  0  0
   58.3280   34.5210   45.2480 C   0  0  0  0  0  0  0  0  0  0  0  0
   59.0000   34.6600   46.4580 C   0  0  0  0  0  0  0  0  0  0  0  0
   59.1840   33.5540   47.3020 C   0  0  0  0  0  0  0  0  0  0  0  0
   59.8610   33.6910   48.5300 C   0  0  0  0  0  0  0  0  0  0  0  0
   60.3460   34.9320   48.9470 O   0  0  0  0  0  0  0  0  0  0  0  0
   60.0600   32.5790   49.3500 C   0  0  0  0  0  0  0  0  0  0  0  0
   59.5830   31.3280   48.9650 C   0  0  0  0  0  0  0  0  0  0  0  0
   58.8960   31.1770   47.7620 C   0  0  0  0  0  0  0  0  0  0  0  0
   58.6800   32.2810   46.9130 C   0  0  0  0  0  0  0  0  0  0  0  0
   56.8480   27.8210   45.2510 C   0  0  0  0  0  0  0  0  0  0  0  0
   56.2320   26.7630   45.9260 C   0  0  0  0  0  0  0  0  0  0  0  0
   54.8470   26.7150   46.0140 O   0  0  0  0  0  0  0  0  0  0  0  0
   58.5789   22.8163   46.0092 H   0  0  0  0  0  0  0  0  0  0  0  0
   59.0173   21.9308   44.5091 H   0  0  0  0  0  0  0  0  0  0  0  0
   58.9641   23.7263   44.5091 H   0  0  0  0  0  0  0  0  0  0  0  0
   56.4749   24.8615   44.3383 H   0  0  0  0  0  0  0  0  0  0  0  0
   57.5563   24.2660   43.0334 H   0  0  0  0  0  0  0  0  0  0  0  0
   55.8171   23.8169   43.0334 H   0  0  0  0  0  0  0  0  0  0  0  0
   56.5161   20.6654   44.3264 H   0  0  0  0  0  0  0  0  0  0  0  0
   55.8389   21.7023   43.0253 H   0  0  0  0  0  0  0  0  0  0  0  0
   57.5868   21.2880   43.0253 H   0  0  0  0  0  0  0  0  0  0  0  0
   59.0158   25.0057   46.8272 H   0  0  0  0  0  0  0  0  0  0  0  0
   60.1115   26.8880   45.6219 H   0  0  0  0  0  0  0  0  0  0  0  0
   59.6320   29.5184   45.2080 H   0  0  0  0  0  0  0  0  0  0  0  0
   59.4087   28.7215   43.5910 H   0  0  0  0  0  0  0  0  0  0  0  0
   58.3795   30.8590   43.4003 H   0  0  0  0  0  0  0  0  0  0  0  0
   57.0377   29.6691   43.6155 H   0  0  0  0  0  0  0  0  0  0  0  0
   56.6700   30.4530   45.8530 H   0  0  0  0  0  0  0  0  0  0  0  0
   57.2907   33.1841   43.9063 H   0  0  0  0  0  0  0  0  0  0  0  0
   58.1932   35.3941   44.5927 H   0  0  0  0  0  0  0  0  0  0  0  0
   59.3902   35.6445   46.7556 H   0  0  0  0  0  0  0  0  0  0  0  0
   60.5957   32.6910   50.3042 H   0  0  0  0  0  0  0  0  0  0  0  0
   59.7494   30.4553   49.6136 H   0  0  0  0  0  0  0  0  0  0  0  0
   58.5182   30.1855   47.4719 H   0  0  0  0  0  0  0  0  0  0  0  0
   56.2307   28.6025   44.7839 H   0  0  0  0  0  0  0  0  0  0  0  0
  1  2  1  0
  2  3  1  0
  2  4  1  0
  2  5  1  0
  5  6  1  0
  6  7  2  0
  6  8  1  0
  8  9  1  0
  9 10  2  0
 10 11  1  0
 11 12  2  0
 12 13  1  0
 13 14  1  0
 14 15  1  0
 15 16  1  0
 16 17  2  0
 17 18  1  0
 18 19  2  0
 19 20  1  0
 20 21  2  0
 21 22  1  0
 21 23  1  0
 23 24  2  0
 24 25  1  0
 25 26  2  0
 12 27  1  0
 27 28  2  0
 28 29  1  0
 28  9  1  0
 26 16  1  0
 26 20  1  0
  1 30  1  0
  1 31  1  0
  1 32  1  0
  3 33  1  0
  3 34  1  0
  3 35  1  0
  4 36  1  0
  4 37  1  0
  4 38  1  0
 10 39  1  0
 11 40  1  0
 13 41  1  0
 13 42  1  0
 14 43  1  0
 14 44  1  0
 15 45  1  0
 17 46  1  0
 18 47  1  0
 19 48  1  0
 23 49  1  0
 24 50  1  0
 25 51  1  0
 27 52  1  0
M  CHG  3   8  -1  22  -1  29  -1
M  END
>  <UniqueID>  (8) 
8

>  <SMILES>  (8) 
CC(C)(C)OC(=O)[N-]c1ccc(CCNc2cccc3c([O-])cccc23)cc1[O-]

>  <Energy>  (8) 
53.545640380050266

>  <Genealogy>  (8) 
CC(C)(C)OC(=O)[N-]c1ccc(CCNc2cccc3c([O-])cccc23)cc1[O-] (protonated)
CC(C)(C)OC(=O)[N-]c1ccc(CCNc2cccc3c([O-])cccc23)cc1[O-] (3D coordinates assigned)
CC(C)(C)OC(=O)[N-]c1ccc(CCNc2cccc3c([O-])cccc23)cc1[O-] (optimized conformer: 53.545640380050266 kcal/mol)

>  <smiles>  (8) 
CC(C)(C)OC(=O)Nc1ccc(CCNc2cccc3c(O)cccc23)cc1O

>  <score_type>  (8) 
oracle

>  <origin>  (8) 
adg

>  <m_score__min__energy>  (8) 
-14.99

>  <m_primary>  (8) 
energy

$$$$
8:0
     RDKit          3D

 70 73  0  0  0  0  0  0  0  0999 V2000
   59.8930   33.7660   52.3750 C   0  0  0  0  0  0  0  0  0  0  0  0
   60.3560   33.6880   51.0300 O   0  0  0  0  0  0  0  0  0  0  0  0
   59.9800   32.6870   50.1190 C   0  0  0  0  0  0  0  0  0  0  0  0
   59.2070   32.9660   48.9770 C   0  0  0  0  0  0  0  0  0  0  0  0
   58.8540   31.9480   48.0880 C   0  0  0  0  0  0  0  0  0  0  0  0
   58.1350   32.2530   47.0160 O   0  0  0  0  0  0  0  0  0  0  0  0
   57.7820   31.3580   46.1040 C   0  0  0  0  0  0  0  0  0  0  0  0
   57.0970   31.7410   45.1190 O   0  0  0  0  0  0  0  0  0  0  0  0
   58.1710   30.0070   46.2290 C   0  0  0  0  0  0  0  0  0  0  0  0
   57.7970   29.0170   45.1340 C   0  0  0  0  0  0  0  0  0  0  0  0
   56.3320   28.6520   45.1510 C   0  0  0  0  0  0  0  0  0  0  0  0
   55.4710   29.4620   44.7110 O   0  0  0  0  0  0  0  0  0  0  0  0
   55.8930   27.3760   45.6290 N   0  0  0  0  0  0  0  0  0  0  0  0
   56.7840   26.3560   46.1710 C   0  0  0  0  0  0  0  0  0  0  0  0
   57.7610   25.9030   45.0860 C   0  0  0  0  0  0  0  0  0  0  0  0
   57.3910   24.5400   44.5650 C   0  0  0  0  0  0  0  0  0  0  0  0
   56.4200   24.4020   43.5590 C   0  0  0  0  0  0  0  0  0  0  0  0
   56.0760   23.1330   43.0790 C   0  0  0  0  0  0  0  0  0  0  0  0
   56.6900   21.9910   43.6060 C   0  0  0  0  0  0  0  0  0  0  0  0
   56.3430   20.7330   43.1170 O   0  0  0  0  0  0  0  0  0  0  0  0
   57.6470   22.1220   44.6250 C   0  0  0  0  0  0  0  0  0  0  0  0
   57.9950   23.3890   45.1020 C   0  0  0  0  0  0  0  0  0  0  0  0
   58.8890   29.6180   47.3910 C   0  0  0  0  0  0  0  0  0  0  0  0
   59.2660   28.1700   47.6430 C   0  0  0  0  0  0  0  0  0  0  0  0
   59.2590   30.6180   48.3280 C   0  0  0  0  0  0  0  0  0  0  0  0
   60.0270   30.3440   49.4810 C   0  0  0  0  0  0  0  0  0  0  0  0
   60.3870   31.3710   50.3730 C   0  0  0  0  0  0  0  0  0  0  0  0
   61.1670   31.1250   51.5160 O   0  0  0  0  0  0  0  0  0  0  0  0
   62.2670   30.2150   51.5800 C   0  0  0  0  0  0  0  0  0  0  0  0
   63.5320   30.9700   51.8360 C   0  0  0  0  0  0  0  0  0  0  0  0
   63.6870   31.5860   52.9240 O   0  0  0  0  0  0  0  0  0  0  0  0
   64.5850   30.9400   50.8640 N   0  0  0  0  0  0  0  0  0  0  0  0
   65.0440   32.1180   50.1370 C   0  0  0  0  0  0  0  0  0  0  0  0
   63.9700   32.5950   49.1960 C   0  0  0  0  0  0  0  0  0  0  0  0
   63.7050   31.8870   48.0140 C   0  0  0  0  0  0  0  0  0  0  0  0
   62.7440   32.3540   47.1100 C   0  0  0  0  0  0  0  0  0  0  0  0
   62.0350   33.5370   47.3800 C   0  0  0  0  0  0  0  0  0  0  0  0
   61.0490   34.0730   46.3830 C   0  0  0  0  0  0  0  0  0  0  0  0
   62.3130   34.2550   48.5530 C   0  0  0  0  0  0  0  0  0  0  0  0
   63.2710   33.7850   49.4580 C   0  0  0  0  0  0  0  0  0  0  0  0
   60.7394   33.6234   53.0630 H   0  0  0  0  0  0  0  0  0  0  0  0
   59.4403   34.7531   52.5503 H   0  0  0  0  0  0  0  0  0  0  0  0
   59.1419   32.9817   52.5503 H   0  0  0  0  0  0  0  0  0  0  0  0
   58.8770   33.9971   48.7821 H   0  0  0  0  0  0  0  0  0  0  0  0
   58.0363   29.4651   44.1583 H   0  0  0  0  0  0  0  0  0  0  0  0
   58.3702   28.0950   45.3111 H   0  0  0  0  0  0  0  0  0  0  0  0
   57.3462   26.7736   47.0193 H   0  0  0  0  0  0  0  0  0  0  0  0
   56.1905   25.4950   46.5122 H   0  0  0  0  0  0  0  0  0  0  0  0
   57.7373   26.6245   44.2560 H   0  0  0  0  0  0  0  0  0  0  0  0
   58.7700   25.8509   45.5211 H   0  0  0  0  0  0  0  0  0  0  0  0
   55.9279   25.2953   43.1467 H   0  0  0  0  0  0  0  0  0  0  0  0
   55.3210   23.0330   42.2853 H   0  0  0  0  0  0  0  0  0  0  0  0
   56.9160   19.9180   43.2990 H   0  0  0  0  0  0  0  0  0  0  0  0
   58.1238   21.2259   45.0488 H   0  0  0  0  0  0  0  0  0  0  0  0
   58.7447   23.4863   45.9011 H   0  0  0  0  0  0  0  0  0  0  0  0
   59.3137   27.9868   48.7266 H   0  0  0  0  0  0  0  0  0  0  0  0
   58.5096   27.5105   47.1926 H   0  0  0  0  0  0  0  0  0  0  0  0
   60.2480   27.9630   47.1926 H   0  0  0  0  0  0  0  0  0  0  0  0
   60.3487   29.3120   49.6849 H   0  0  0  0  0  0  0  0  0  0  0  0
   62.0993   29.4956   52.3951 H   0  0  0  0  0  0  0  0  0  0  0  0
   62.3509   29.6775   50.6240 H   0  0  0  0  0  0  0  0  0  0  0  0
   65.2819   32.9181   50.8534 H   0  0  0  0  0  0  0  0  0  0  0  0
   65.9414   31.8566   49.5570 H   0  0  0  0  0  0  0  0  0  0  0  0
   64.2555   30.9598   47.7966 H   0  0  0  0  0  0  0  0  0  0  0  0
   62.5430   31.7933   46.1852 H   0  0  0  0  0  0  0  0  0  0  0  0
   60.2030   34.5329   46.9148 H   0  0  0  0  0  0  0  0  0  0  0  0
   61.5397   34.8285   45.7518 H   0  0  0  0  0  0  0  0  0  0  0  0
   60.6818   33.2504   45.7518 H   0  0  0  0  0  0  0  0  0  0  0  0
   61.7754   35.1916   48.7620 H   0  0  0  0  0  0  0  0  0  0  0  0
   63.4778   34.3499   50.3789 H   0  0  0  0  0  0  0  0  0  0  0  0
  1  2  1  0
  2  3  1  0
  3  4  2  0
  4  5  1  0
  5  6  1  0
  6  7  1  0
  7  8  2  0
  7  9  1  0
  9 10  1  0
 10 11  1  0
 11 12  2  0
 11 13  1  0
 13 14  1  0
 14 15  1  0
 15 16  1  0
 16 17  2  0
 17 18  1  0
 18 19  2  0
 19 20  1  0
 19 21  1  0
 21 22  2  0
  9 23  2  0
 23 24  1  0
 23 25  1  0
 25 26  1  0
 26 27  2  0
 27 28  1  0
 28 29  1  0
 29 30  1  0
 30 31  2  0
 30 32  1  0
 32 33  1  0
 33 34  1  0
 34 35  2  0
 35 36  1  0
 36 37  2  0
 37 38  1  0
 37 39  1  0
 39 40  2  0
 27  3  1  0
 40 34  1  0
 25  5  2  0
 22 16  1  0
  1 41  1  0
  1 42  1  0
  1 43  1  0
  4 44  1  0
 10 45  1  0
 10 46  1  0
 14 47  1  0
 14 48  1  0
 15 49  1  0
 15 50  1  0
 17 51  1  0
 18 52  1  0
 20 53  1  0
 21 54  1  0
 22 55  1  0
 24 56  1  0
 24 57  1  0
 24 58  1  0
 26 59  1  0
 29 60  1  0
 29 61  1  0
 33 62  1  0
 33 63  1  0
 35 64  1  0
 36 65  1  0
 38 66  1  0
 38 67  1  0
 38 68  1  0
 39 69  1  0
 40 70  1  0
M  CHG  2  13  -1  32  -1
M  END
>  <UniqueID>  (9) 
9

>  <SMILES>  (9) 
COc1cc2oc(=O)c(CC(=O)[N-]CCc3ccc(O)cc3)c(C)c2cc1OCC(=O)[N-]Cc1ccc(C)cc1

>  <Energy>  (9) 
74.57813428627169

>  <Genealogy>  (9) 
COc1cc2oc(=O)c(CC(=O)[N-]CCc3ccc(O)cc3)c(C)c2cc1OCC(=O)[N-]Cc1ccc(C)cc1 (protonated)
COc1cc2oc(=O)c(CC(=O)[N-]CCc3ccc(O)cc3)c(C)c2cc1OCC(=O)[N-]Cc1ccc(C)cc1 (3D coordinates assigned)
COc1cc2oc(=O)c(CC(=O)[N-]CCc3ccc(O)cc3)c(C)c2cc1OCC(=O)[N-]Cc1ccc(C)cc1 (optimized conformer: 74.57813428627169 kcal/mol)

>  <smiles>  (9) 
COc1cc2oc(=O)c(CC(=O)NCCc3ccc(O)cc3)c(C)c2cc1OCC(=O)NCc1ccc(C)cc1

>  <score_type>  (9) 
oracle

>  <origin>  (9) 
adg

>  <m_score__min__energy>  (9) 
-12.83

>  <m_primary>  (9) 
energy

$$$$
9:0
     RDKit          3D

 58 61  0  0  0  0  0  0  0  0999 V2000
   56.9820   31.6370   51.3290 N   0  0  0  0  0  0  0  0  0  0  0  0
   58.6750   31.8500   51.0640 S   0  0  0  0  0  0  0  0  0  0  0  0
   59.3920   31.8660   52.3830 O   0  0  0  0  0  0  0  0  0  0  0  0
   58.9090   33.1620   50.3700 O   0  0  0  0  0  0  0  0  0  0  0  0
   59.2860   30.5250   50.0780 C   0  0  0  0  0  0  0  0  0  0  0  0
   59.1580   30.5560   48.6820 C   0  0  0  0  0  0  0  0  0  0  0  0
   59.6380   29.4950   47.9090 C   0  0  0  0  0  0  0  0  0  0  0  0
   60.2220   28.3800   48.5230 C   0  0  0  0  0  0  0  0  0  0  0  0
   60.7290   27.3160   47.7030 N   0  0  0  0  0  0  0  0  0  0  0  0
   60.0730   26.2810   47.3310 N   0  0  0  0  0  0  0  0  0  0  0  0
   58.7120   26.2690   46.8720 C   0  0  0  0  0  0  0  0  0  0  0  0
   57.8790   25.1580   47.0820 C   0  0  0  0  0  0  0  0  0  0  0  0
   56.5490   25.1860   46.6600 C   0  0  0  0  0  0  0  0  0  0  0  0
   56.0270   26.3290   46.0490 C   0  0  0  0  0  0  0  0  0  0  0  0
   54.6990   26.3360   45.6360 O   0  0  0  0  0  0  0  0  0  0  0  0
   56.8420   27.4620   45.8620 C   0  0  0  0  0  0  0  0  0  0  0  0
   56.2830   28.7110   45.2290 C   0  0  0  0  0  0  0  0  0  0  0  0
   56.7980   28.8630   43.8500 N   0  0  0  0  0  0  0  0  0  0  0  0
   58.2660   28.6960   43.7890 C   0  0  0  0  0  0  0  0  0  0  0  0
   58.9950   29.8320   44.5280 C   0  0  0  0  0  0  0  0  0  0  0  0
   58.3030   31.1090   44.3220 N   0  0  0  0  0  0  0  0  0  0  0  0
   58.5060   32.2000   45.2410 C   0  0  0  0  0  0  0  0  0  0  0  0
   57.5140   33.1790   45.4110 C   0  0  0  0  0  0  0  0  0  0  0  0
   57.7110   34.2350   46.3020 C   0  0  0  0  0  0  0  0  0  0  0  0
   58.8910   34.3200   47.0430 C   0  0  0  0  0  0  0  0  0  0  0  0
   59.8830   33.3300   46.9150 C   0  0  0  0  0  0  0  0  0  0  0  0
   61.1780   33.4350   47.6790 C   0  0  0  0  0  0  0  0  0  0  0  0
   62.1450   33.9880   46.8600 F   0  0  0  0  0  0  0  0  0  0  0  0
   61.5980   32.1840   48.0920 F   0  0  0  0  0  0  0  0  0  0  0  0
   61.0290   34.2320   48.8010 F   0  0  0  0  0  0  0  0  0  0  0  0
   59.6880   32.2830   45.9970 C   0  0  0  0  0  0  0  0  0  0  0  0
   57.3980   31.2370   43.1770 C   0  0  0  0  0  0  0  0  0  0  0  0
   56.3360   30.1210   43.2050 C   0  0  0  0  0  0  0  0  0  0  0  0
   58.1810   27.4250   46.2880 C   0  0  0  0  0  0  0  0  0  0  0  0
   60.3770   28.3630   49.9200 C   0  0  0  0  0  0  0  0  0  0  0  0
   59.8990   29.4250   50.6930 C   0  0  0  0  0  0  0  0  0  0  0  0
   56.4930   31.9950   50.4780 H   0  0  0  0  0  0  0  0  0  0  0  0
   58.6787   31.4174   48.1940 H   0  0  0  0  0  0  0  0  0  0  0  0
   59.5566   29.5360   46.8128 H   0  0  0  0  0  0  0  0  0  0  0  0
   58.2765   24.2620   47.5812 H   0  0  0  0  0  0  0  0  0  0  0  0
   55.9087   24.3041   46.8091 H   0  0  0  0  0  0  0  0  0  0  0  0
   55.1854   28.6435   45.2010 H   0  0  0  0  0  0  0  0  0  0  0  0
   56.5921   29.5828   45.8243 H   0  0  0  0  0  0  0  0  0  0  0  0
   58.5360   27.7363   44.2539 H   0  0  0  0  0  0  0  0  0  0  0  0
   58.5720   28.7198   42.7327 H   0  0  0  0  0  0  0  0  0  0  0  0
   59.0218   29.6047   45.6039 H   0  0  0  0  0  0  0  0  0  0  0  0
   60.0176   29.9145   44.1312 H   0  0  0  0  0  0  0  0  0  0  0  0
   56.5767   33.1133   44.8390 H   0  0  0  0  0  0  0  0  0  0  0  0
   56.9331   35.0036   46.4209 H   0  0  0  0  0  0  0  0  0  0  0  0
   59.0462   35.1648   47.7302 H   0  0  0  0  0  0  0  0  0  0  0  0
   60.4698   31.5198   45.8690 H   0  0  0  0  0  0  0  0  0  0  0  0
   56.8970   32.2154   43.2185 H   0  0  0  0  0  0  0  0  0  0  0  0
   57.9821   31.1508   42.2489 H   0  0  0  0  0  0  0  0  0  0  0  0
   55.4595   30.4912   43.7571 H   0  0  0  0  0  0  0  0  0  0  0  0
   56.1042   29.8756   42.1581 H   0  0  0  0  0  0  0  0  0  0  0  0
   58.8177   28.3130   46.1612 H   0  0  0  0  0  0  0  0  0  0  0  0
   60.8758   27.5117   50.4062 H   0  0  0  0  0  0  0  0  0  0  0  0
   60.0043   29.3972   51.7876 H   0  0  0  0  0  0  0  0  0  0  0  0
  1  2  1  0
  2  3  2  0
  2  4  2  0
  2  5  1  0
  5  6  2  0
  6  7  1  0
  7  8  2  0
  8  9  1  0
  9 10  2  3
 10 11  1  0
 11 12  2  0
 12 13  1  0
 13 14  2  0
 14 15  1  0
 14 16  1  0
 16 17  1  0
 17 18  1  0
 18 19  1  0
 19 20  1  0
 20 21  1  0
 21 22  1  0
 22 23  2  0
 23 24  1  0
 24 25  2  0
 25 26  1  0
 26 27  1  0
 27 28  1  0
 27 29  1  0
 27 30  1  0
 26 31  2  0
 21 32  1  0
 32 33  1  0
 16 34  2  0
  8 35  1  0
 35 36  2  0
 36  5  1  0
 34 11  1  0
 33 18  1  0
 31 22  1  0
  1 37  1  0
  6 38  1  0
  7 39  1  0
 12 40  1  0
 13 41  1  0
 17 42  1  0
 17 43  1  0
 19 44  1  0
 19 45  1  0
 20 46  1  0
 20 47  1  0
 23 48  1  0
 24 49  1  0
 25 50  1  0
 31 51  1  0
 32 52  1  0
 32 53  1  0
 33 54  1  0
 33 55  1  0
 34 56  1  0
 35 57  1  0
 36 58  1  0
M  CHG  2   1  -1  15  -1
M  END
>  <UniqueID>  (10) 
10

>  <SMILES>  (10) 
[NH-]S(=O)(=O)c1ccc(N=Nc2ccc([O-])c(CN3CCN(c4cccc(C(F)(F)F)c4)CC3)c2)cc1

>  <Energy>  (10) 
86.8598169689704

>  <Genealogy>  (10) 
[NH-]S(=O)(=O)c1ccc(N=Nc2ccc([O-])c(CN3CCN(c4cccc(C(F)(F)F)c4)CC3)c2)cc1 (protonated)
[NH-]S(=O)(=O)c1ccc(N=Nc2ccc([O-])c(CN3CCN(c4cccc(C(F)(F)F)c4)CC3)c2)cc1 (3D coordinates assigned)
[NH-]S(=O)(=O)c1ccc(N=Nc2ccc([O-])c(CN3CCN(c4cccc(C(F)(F)F)c4)CC3)c2)cc1 (nonaromatic ring conformer: 86.8598169689704 kcal/mol)

>  <smiles>  (10) 
NS(=O)(=O)c1ccc(N=Nc2ccc(O)c(CN3CCN(c4cccc(C(F)(F)F)c4)CC3)c2)cc1

>  <score_type>  (10) 
oracle

>  <origin>  (10) 
adg

>  <m_score__min__energy>  (10) 
-13.16

>  <m_primary>  (10) 
energy

$$$$
10:0
     RDKit          3D

 45 49  0  0  0  0  0  0  0  0999 V2000
   52.3790   31.9636   53.7664 H   0  0  0  0  0  0  0  0  0  0  0  0
   52.6320   31.2120   53.0040 C   0  0  0  0  0  0  0  0  0  0  0  0
   51.9350   31.2800   51.7080 C   0  0  0  0  0  0  0  0  0  0  0  0
   52.1750   30.4260   50.6970 N   0  0  0  0  0  0  0  0  0  0  0  0
   51.3930   30.8930   49.7000 C   0  0  0  0  0  0  0  0  0  0  0  0
   51.3330   30.3390   48.5710 O   0  0  0  0  0  0  0  0  0  0  0  0
   50.6900   32.0050   50.0030 N   0  0  0  0  0  0  0  0  0  0  0  0
   51.0530   32.2440   51.2730 C   0  0  0  0  0  0  0  0  0  0  0  0
   50.6240   33.3510   51.9960 O   0  0  0  0  0  0  0  0  0  0  0  0
   53.5550   30.2910   53.3110 C   0  0  0  0  0  0  0  0  0  0  0  0
   53.4500   29.1770   54.1530 C   0  0  0  0  0  0  0  0  0  0  0  0
   52.5605   28.8999   54.7379 H   0  0  0  0  0  0  0  0  0  0  0  0
   54.6200   28.4960   54.1310 N   0  0  0  0  0  0  0  0  0  0  0  0
   54.8380   27.6160   54.6510 H   0  0  0  0  0  0  0  0  0  0  0  0
   55.4440   29.1280   53.3120 N   0  0  0  0  0  0  0  0  0  0  0  0
   56.7140   28.8050   52.9680 C   0  0  0  0  0  0  0  0  0  0  0  0
   57.2900   27.7540   53.4690 N   0  0  0  0  0  0  0  0  0  0  0  0
   58.2520   27.8110   54.5660 C   0  0  0  0  0  0  0  0  0  0  0  0
   58.1183   26.7835   54.9352 H   0  0  0  0  0  0  0  0  0  0  0  0
   59.4500   28.6970   54.2800 C   0  0  0  0  0  0  0  0  0  0  0  0
   60.4359   28.4405   54.6949 H   0  0  0  0  0  0  0  0  0  0  0  0
   59.9338   29.0829   53.3706 H   0  0  0  0  0  0  0  0  0  0  0  0
   58.3400   29.1850   55.2000 C   0  0  0  0  0  0  0  0  0  0  0  0
   58.5234   29.2818   56.2803 H   0  0  0  0  0  0  0  0  0  0  0  0
   57.6884   30.0707   55.2316 H   0  0  0  0  0  0  0  0  0  0  0  0
   57.3630   29.6160   52.0830 N   0  0  0  0  0  0  0  0  0  0  0  0
   56.7470   30.7240   51.5650 C   0  0  0  0  0  0  0  0  0  0  0  0
   57.3900   31.4590   50.7060 N   0  0  0  0  0  0  0  0  0  0  0  0
   58.5550   32.2640   50.9650 C   0  0  0  0  0  0  0  0  0  0  0  0
   58.9150   32.6390   52.2730 C   0  0  0  0  0  0  0  0  0  0  0  0
   58.2851   32.3352   53.1220 H   0  0  0  0  0  0  0  0  0  0  0  0
   60.0680   33.3950   52.4990 C   0  0  0  0  0  0  0  0  0  0  0  0
   60.4030   33.7570   53.7630 F   0  0  0  0  0  0  0  0  0  0  0  0
   60.8810   33.7640   51.4290 C   0  0  0  0  0  0  0  0  0  0  0  0
   61.7834   34.3670   51.6082 H   0  0  0  0  0  0  0  0  0  0  0  0
   60.5530   33.3700   50.1290 C   0  0  0  0  0  0  0  0  0  0  0  0
   61.2049   33.6544   49.2899 H   0  0  0  0  0  0  0  0  0  0  0  0
   59.3910   32.6100   49.8880 C   0  0  0  0  0  0  0  0  0  0  0  0
   59.0310   32.1860   48.5980 O   0  0  0  0  0  0  0  0  0  0  0  0
   58.1640   32.8960   47.7180 C   0  0  0  0  0  0  0  0  0  0  0  0
   57.2065   33.0852   48.2254 H   0  0  0  0  0  0  0  0  0  0  0  0
   57.9370   32.1500   46.5760 F   0  0  0  0  0  0  0  0  0  0  0  0
   58.7610   34.0900   47.3640 F   0  0  0  0  0  0  0  0  0  0  0  0
   55.4590   31.0150   51.9220 N   0  0  0  0  0  0  0  0  0  0  0  0
   54.8350   30.2000   52.8020 C   0  0  0  0  0  0  0  0  0  0  0  0
  1  2  1  0
  2  3  1  0
  3  4  1  0
  4  5  1  0
  5  6  2  0
  5  7  1  0
  7  8  1  0
  8  9  1  0
  2 10  2  0
 10 11  1  0
 11 12  1  0
 11 13  2  0
 13 14  1  0
 13 15  1  0
 15 16  1  0
 16 17  2  3
 17 18  1  0
 18 19  1  0
 18 20  1  0
 20 21  1  0
 20 22  1  0
 20 23  1  0
 23 24  1  0
 23 25  1  0
 16 26  1  0
 26 27  1  0
 27 28  2  0
 28 29  1  0
 29 30  2  0
 30 31  1  0
 30 32  1  0
 32 33  1  0
 32 34  2  0
 34 35  1  0
 34 36  1  0
 36 37  1  0
 36 38  2  0
 38 39  1  0
 39 40  1  0
 40 41  1  0
 40 42  1  0
 40 43  1  0
 27 44  1  0
 44 45  2  0
  8  3  2  0
 45 10  1  0
 45 15  1  0
 23 18  1  0
 38 29  1  0
M  CHG  5   4  -1   7  -1   9  -1  13   1  26  -1
M  END
>  <UniqueID>  (11) 
11

>  <SMILES>  (11) 
O=c1[n-]c([O-])c(/C=c2\c[nH+]n3c(=NC4CC4)[n-]/c(=N/c4cc(F)ccc4OC(F)F)nc23)[n-]1

>  <Energy>  (11) 
395.55933215675816

>  <Genealogy>  (11) 
O=c1[n-]c([O-])c(C=c2c[nH+]n3c(=NC4CC4)[n-]c(=Nc4cc(F)ccc4OC(F)F)nc23)[n-]1 (protonated)
O=c1[n-]c([O-])c(/C=c2\c[nH+]n3c(=NC4CC4)[n-]/c(=N/c4cc(F)ccc4OC(F)F)nc23)[n-]1 (cis-trans isomerization)
O=c1[n-]c([O-])c(/C=c2\c[nH+]n3c(=NC4CC4)[n-]/c(=N/c4cc(F)ccc4OC(F)F)nc23)[n-]1 (3D coordinates assigned)
O=c1[n-]c([O-])c(/C=c2\c[nH+]n3c(=NC4CC4)[n-]/c(=N/c4cc(F)ccc4OC(F)F)nc23)[n-]1 (nonaromatic ring conformer: 395.55933215675816 kcal/mol)

>  <smiles>  (11) 
O=c1[nH]c(O)c(C=c2cnn3c(=NC4CC4)[nH]c(=Nc4cc(F)ccc4OC(F)F)nc23)[nH]1

>  <score_type>  (11) 
oracle

>  <origin>  (11) 
adg

>  <m_score__min__energy>  (11) 
-15.57

>  <m_primary>  (11) 
energy

$$$$
11:0
     RDKit          3D

 44 48  0  0  0  0  0  0  0  0999 V2000
   52.3846   31.6157   53.5360 H   0  0  0  0  0  0  0  0  0  0  0  0
   52.7480   31.0000   52.7000 C   0  0  0  0  0  0  0  0  0  0  0  0
   52.0360   31.0900   51.4150 C   0  0  0  0  0  0  0  0  0  0  0  0
   52.1240   30.1590   50.4500 N   0  0  0  0  0  0  0  0  0  0  0  0
   51.3890   30.6820   49.4450 C   0  0  0  0  0  0  0  0  0  0  0  0
   51.2160   30.0860   48.3500 O   0  0  0  0  0  0  0  0  0  0  0  0
   50.8610   31.8990   49.6990 N   0  0  0  0  0  0  0  0  0  0  0  0
   51.2910   32.1500   50.9470 C   0  0  0  0  0  0  0  0  0  0  0  0
   51.0390   33.3360   51.6250 O   0  0  0  0  0  0  0  0  0  0  0  0
   53.8130   30.2130   52.9140 C   0  0  0  0  0  0  0  0  0  0  0  0
   53.8650   29.1180   53.7780 C   0  0  0  0  0  0  0  0  0  0  0  0
   53.0250   28.7413   54.3801 H   0  0  0  0  0  0  0  0  0  0  0  0
   55.1120   28.5930   53.7580 N   0  0  0  0  0  0  0  0  0  0  0  0
   55.4500   27.7720   54.3100 H   0  0  0  0  0  0  0  0  0  0  0  0
   55.8460   29.3180   52.9300 N   0  0  0  0  0  0  0  0  0  0  0  0
   57.1610   29.1910   52.6300 C   0  0  0  0  0  0  0  0  0  0  0  0
   57.8690   28.2310   53.1480 N   0  0  0  0  0  0  0  0  0  0  0  0
   59.2960   28.3490   53.4290 C   0  0  0  0  0  0  0  0  0  0  0  0
   59.2229   29.0367   54.2844 H   0  0  0  0  0  0  0  0  0  0  0  0
   60.1500   28.2630   52.1790 C   0  0  0  0  0  0  0  0  0  0  0  0
   59.6728   28.1956   51.1902 H   0  0  0  0  0  0  0  0  0  0  0  0
   60.9599   28.8688   51.7465 H   0  0  0  0  0  0  0  0  0  0  0  0
   60.0820   27.0840   53.1390 C   0  0  0  0  0  0  0  0  0  0  0  0
   59.5555   26.1642   52.8446 H   0  0  0  0  0  0  0  0  0  0  0  0
   60.8220   26.4838   53.6887 H   0  0  0  0  0  0  0  0  0  0  0  0
   57.7160   30.1030   51.7800 N   0  0  0  0  0  0  0  0  0  0  0  0
   56.9620   31.1180   51.2580 C   0  0  0  0  0  0  0  0  0  0  0  0
   57.5170   31.9730   50.4530 N   0  0  0  0  0  0  0  0  0  0  0  0
   58.7500   31.7120   49.7150 C   0  0  0  0  0  0  0  0  0  0  0  0
   59.6130   31.8432   50.3843 H   0  0  0  0  0  0  0  0  0  0  0  0
   58.7375   30.6810   49.3319 H   0  0  0  0  0  0  0  0  0  0  0  0
   58.8570   32.6750   48.5630 C   0  0  0  0  0  0  0  0  0  0  0  0
   57.8670   32.6730   47.5650 C   0  0  0  0  0  0  0  0  0  0  0  0
   57.0332   31.9580   47.6248 H   0  0  0  0  0  0  0  0  0  0  0  0
   57.9340   33.5720   46.4980 C   0  0  0  0  0  0  0  0  0  0  0  0
   57.1590   33.5570   45.7175 H   0  0  0  0  0  0  0  0  0  0  0  0
   58.9840   34.4900   46.4210 C   0  0  0  0  0  0  0  0  0  0  0  0
   59.0375   35.1949   45.5782 H   0  0  0  0  0  0  0  0  0  0  0  0
   59.9660   34.5130   47.4140 C   0  0  0  0  0  0  0  0  0  0  0  0
   60.7890   35.2403   47.3524 H   0  0  0  0  0  0  0  0  0  0  0  0
   59.9090   33.6160   48.4870 C   0  0  0  0  0  0  0  0  0  0  0  0
   61.2800   33.7190   49.8270 Br  0  0  0  0  0  0  0  0  0  0  0  0
   55.6390   31.2240   51.5840 N   0  0  0  0  0  0  0  0  0  0  0  0
   55.1020   30.2970   52.4100 C   0  0  0  0  0  0  0  0  0  0  0  0
  1  2  1  0
  2  3  1  0
  3  4  1  0
  4  5  1  0
  5  6  2  0
  5  7  1  0
  7  8  1  0
  8  9  1  0
  2 10  2  0
 10 11  1  0
 11 12  1  0
 11 13  2  0
 13 14  1  0
 13 15  1  0
 15 16  1  0
 16 17  2  0
 17 18  1  0
 18 19  1  0
 18 20  1  0
 20 21  1  0
 20 22  1  0
 20 23  1  0
 23 24  1  0
 23 25  1  0
 16 26  1  0
 26 27  1  0
 27 28  2  3
 28 29  1  0
 29 30  1  0
 29 31  1  0
 29 32  1  0
 32 33  2  0
 33 34  1  0
 33 35  1  0
 35 36  1  0
 35 37  2  0
 37 38  1  0
 37 39  1  0
 39 40  1  0
 39 41  2  0
 41 42  1  0
 27 43  1  0
 43 44  2  0
  8  3  2  0
 44 10  1  0
 44 15  1  0
 23 18  1  0
 41 32  1  0
M  CHG  5   4  -1   7  -1   9  -1  13   1  26  -1
M  END
>  <UniqueID>  (12) 
12

>  <SMILES>  (12) 
O=c1[n-]c([O-])c(/C=c2/c[nH+]n3/c(=N/C4CC4)[n-]c(=NCc4ccccc4Br)nc23)[n-]1

>  <Energy>  (12) 
388.3769265524715

>  <Genealogy>  (12) 
O=c1[n-]c([O-])c(C=c2c[nH+]n3c(=NC4CC4)[n-]c(=NCc4ccccc4Br)nc23)[n-]1 (protonated)
O=c1[n-]c([O-])c(/C=c2/c[nH+]n3/c(=N/C4CC4)[n-]c(=NCc4ccccc4Br)nc23)[n-]1 (cis-trans isomerization)
O=c1[n-]c([O-])c(/C=c2/c[nH+]n3/c(=N/C4CC4)[n-]c(=NCc4ccccc4Br)nc23)[n-]1 (3D coordinates assigned)
O=c1[n-]c([O-])c(/C=c2/c[nH+]n3/c(=N/C4CC4)[n-]c(=NCc4ccccc4Br)nc23)[n-]1 (nonaromatic ring conformer: 388.3769265524715 kcal/mol)

>  <smiles>  (12) 
O=c1[nH]c(O)c(C=c2cnn3c(=NC4CC4)[nH]c(=NCc4ccccc4Br)nc23)[nH]1

>  <score_type>  (12) 
oracle

>  <origin>  (12) 
adg

>  <m_score__min__energy>  (12) 
-17.32

>  <m_primary>  (12) 
energy

$$$$
12:0
     RDKit          3D

 58 62  0  0  0  0  0  0  0  0999 V2000
   57.2940   20.5180   44.8670 N   0  0  0  0  0  0  0  0  0  0  0  0
   56.4380   21.9600   44.4460 S   0  0  0  0  0  0  0  0  0  0  0  0
   55.0750   21.9370   45.0790 O   0  0  0  0  0  0  0  0  0  0  0  0
   56.2740   22.0320   42.9530 O   0  0  0  0  0  0  0  0  0  0  0  0
   57.3360   23.3620   45.0160 C   0  0  0  0  0  0  0  0  0  0  0  0
   58.6760   23.2280   45.4050 C   0  0  0  0  0  0  0  0  0  0  0  0
   59.3800   24.3360   45.8830 C   0  0  0  0  0  0  0  0  0  0  0  0
   58.7550   25.5820   45.9700 C   0  0  0  0  0  0  0  0  0  0  0  0
   57.4160   25.7340   45.5590 C   0  0  0  0  0  0  0  0  0  0  0  0
   56.7240   26.9900   45.6630 N   0  0  0  0  0  0  0  0  0  0  0  0
   57.2600   28.1640   45.8310 C   0  0  0  0  0  0  0  0  0  0  0  0
   58.2250   28.3230   46.7710 N   0  0  0  0  0  0  0  0  0  0  0  0
   58.7880   29.5430   46.9890 C   0  0  0  0  0  0  0  0  0  0  0  0
   59.8210   29.7070   47.9840 N   0  0  0  0  0  0  0  0  0  0  0  0
   60.1440   28.5980   48.8980 C   0  0  0  0  0  0  0  0  0  0  0  0
   60.5770   29.1310   50.2610 C   0  0  0  0  0  0  0  0  0  0  0  0
   61.7100   30.0990   50.1000 C   0  0  0  0  0  0  0  0  0  0  0  0
   62.7080   30.1920   51.0830 C   0  0  0  0  0  0  0  0  0  0  0  0
   63.7460   31.1170   50.9450 C   0  0  0  0  0  0  0  0  0  0  0  0
   63.7870   31.9630   49.8340 C   0  0  0  0  0  0  0  0  0  0  0  0
   62.7870   31.8870   48.8600 C   0  0  0  0  0  0  0  0  0  0  0  0
   61.7460   30.9540   48.9820 C   0  0  0  0  0  0  0  0  0  0  0  0
   60.6490   30.9270   47.9430 C   0  0  0  0  0  0  0  0  0  0  0  0
   58.3710   30.6070   46.2540 N   0  0  0  0  0  0  0  0  0  0  0  0
   57.4010   30.4610   45.3170 C   0  0  0  0  0  0  0  0  0  0  0  0
   57.0170   31.4920   44.6270 N   0  0  0  0  0  0  0  0  0  0  0  0
   56.6380   32.7730   45.2160 C   0  0  0  0  0  0  0  0  0  0  0  0
   57.8350   33.3900   45.8790 C   0  0  0  0  0  0  0  0  0  0  0  0
   58.8040   34.0570   45.1120 C   0  0  0  0  0  0  0  0  0  0  0  0
   59.9010   34.6630   45.7350 C   0  0  0  0  0  0  0  0  0  0  0  0
   60.0300   34.6160   47.1250 C   0  0  0  0  0  0  0  0  0  0  0  0
   59.0610   33.9670   47.8970 C   0  0  0  0  0  0  0  0  0  0  0  0
   57.9630   33.3610   47.2780 C   0  0  0  0  0  0  0  0  0  0  0  0
   56.8440   29.2390   45.1140 N   0  0  0  0  0  0  0  0  0  0  0  0
   56.7080   24.6110   45.1100 C   0  0  0  0  0  0  0  0  0  0  0  0
   58.3130   20.7330   44.7820 H   0  0  0  0  0  0  0  0  0  0  0  0
   57.0720   19.8070   44.1360 H   0  0  0  0  0  0  0  0  0  0  0  0
   59.1737   22.2496   45.3338 H   0  0  0  0  0  0  0  0  0  0  0  0
   60.4301   24.2267   46.1919 H   0  0  0  0  0  0  0  0  0  0  0  0
   59.3101   26.4476   46.3607 H   0  0  0  0  0  0  0  0  0  0  0  0
   59.2544   27.9635   49.0244 H   0  0  0  0  0  0  0  0  0  0  0  0
   60.9710   28.0143   48.4675 H   0  0  0  0  0  0  0  0  0  0  0  0
   59.7276   29.6414   50.7385 H   0  0  0  0  0  0  0  0  0  0  0  0
   60.9088   28.2898   50.8874 H   0  0  0  0  0  0  0  0  0  0  0  0
   62.6726   29.5348   51.9644 H   0  0  0  0  0  0  0  0  0  0  0  0
   64.5319   31.1792   51.7121 H   0  0  0  0  0  0  0  0  0  0  0  0
   64.6062   32.6890   49.7256 H   0  0  0  0  0  0  0  0  0  0  0  0
   62.8164   32.5628   47.9926 H   0  0  0  0  0  0  0  0  0  0  0  0
   59.9947   31.7960   48.1066 H   0  0  0  0  0  0  0  0  0  0  0  0
   61.1392   30.9489   46.9585 H   0  0  0  0  0  0  0  0  0  0  0  0
   56.2684   33.4447   44.4272 H   0  0  0  0  0  0  0  0  0  0  0  0
   55.8455   32.6144   45.9622 H   0  0  0  0  0  0  0  0  0  0  0  0
   58.7005   34.1033   44.0179 H   0  0  0  0  0  0  0  0  0  0  0  0
   60.6622   35.1767   45.1295 H   0  0  0  0  0  0  0  0  0  0  0  0
   60.8945   35.0899   47.6130 H   0  0  0  0  0  0  0  0  0  0  0  0
   59.1626   33.9332   48.9918 H   0  0  0  0  0  0  0  0  0  0  0  0
   57.1971   32.8600   47.8883 H   0  0  0  0  0  0  0  0  0  0  0  0
   55.6493   24.7110   44.8287 H   0  0  0  0  0  0  0  0  0  0  0  0
  1  2  1  0
  2  3  2  0
  2  4  2  0
  2  5  1  0
  5  6  2  0
  6  7  1  0
  7  8  2  0
  8  9  1  0
  9 10  1  0
 10 11  2  3
 11 12  1  0
 12 13  1  0
 13 14  1  0
 14 15  1  0
 15 16  1  0
 16 17  1  0
 17 18  2  0
 18 19  1  0
 19 20  2  0
 20 21  1  0
 21 22  2  0
 22 23  1  0
 13 24  2  0
 24 25  1  0
 25 26  2  3
 26 27  1  0
 27 28  1  0
 28 29  2  0
 29 30  1  0
 30 31  2  0
 31 32  1  0
 32 33  2  0
 25 34  1  0
  9 35  2  0
 35  5  1  0
 34 11  1  0
 23 14  1  0
 33 28  1  0
 22 17  1  0
  1 36  1  0
  1 37  1  0
  6 38  1  0
  7 39  1  0
  8 40  1  0
 15 41  1  0
 15 42  1  0
 16 43  1  0
 16 44  1  0
 18 45  1  0
 19 46  1  0
 20 47  1  0
 21 48  1  0
 23 49  1  0
 23 50  1  0
 27 51  1  0
 27 52  1  0
 29 53  1  0
 30 54  1  0
 31 55  1  0
 32 56  1  0
 33 57  1  0
 35 58  1  0
M  CHG  2  12  -1  34  -1
M  END
>  <UniqueID>  (13) 
13

>  <SMILES>  (13) 
NS(=O)(=O)c1cccc(N=c2[n-]c(N3CCc4ccccc4C3)nc(=NCc3ccccc3)[n-]2)c1

>  <Energy>  (13) 
69.93530886759018

>  <Genealogy>  (13) 
NS(=O)(=O)c1cccc(N=c2[n-]c(N3CCc4ccccc4C3)nc(=NCc3ccccc3)[n-]2)c1 (protonated)
NS(=O)(=O)c1cccc(N=c2[n-]c(N3CCc4ccccc4C3)nc(=NCc3ccccc3)[n-]2)c1 (3D coordinates assigned)
NS(=O)(=O)c1cccc(N=c2[n-]c(N3CCc4ccccc4C3)nc(=NCc3ccccc3)[n-]2)c1 (nonaromatic ring conformer: 69.93530886759018 kcal/mol)

>  <smiles>  (13) 
NS(=O)(=O)c1cccc(N=c2[nH]c(N3CCc4ccccc4C3)nc(=NCc3ccccc3)[nH]2)c1

>  <score_type>  (13) 
oracle

>  <origin>  (13) 
adg

>  <m_score__min__energy>  (13) 
-13.720000000000001

>  <m_primary>  (13) 
energy

$$$$
13:0
     RDKit          3D

 52 55  0  0  0  0  0  0  0  0999 V2000
   56.0020   28.8520   44.9250 O   0  0  0  0  0  0  0  0  0  0  0  0
   57.2240   29.0860   44.7210 C   0  0  0  0  0  0  0  0  0  0  0  0
   58.0560   28.0630   44.1470 N   0  0  0  0  0  0  0  0  0  0  0  0
   57.7810   26.6560   44.2580 C   0  0  0  0  0  0  0  0  0  0  0  0
   57.5220   25.8680   43.1220 C   0  0  0  0  0  0  0  0  0  0  0  0
   57.2330   24.5080   43.2560 C   0  0  0  0  0  0  0  0  0  0  0  0
   57.1900   23.9170   44.5260 C   0  0  0  0  0  0  0  0  0  0  0  0
   56.8060   22.2090   44.7120 S   0  0  0  0  0  0  0  0  0  0  0  0
   58.0200   21.4910   45.2270 O   0  0  0  0  0  0  0  0  0  0  0  0
   56.4120   21.6040   43.3930 O   0  0  0  0  0  0  0  0  0  0  0  0
   55.5040   22.0150   45.8410 N   0  0  0  0  0  0  0  0  0  0  0  0
   54.3400   22.5700   45.7030 C   0  0  0  0  0  0  0  0  0  0  0  0
   54.2240   23.8910   45.3910 N   0  0  0  0  0  0  0  0  0  0  0  0
   53.0060   24.4740   45.2490 C   0  0  0  0  0  0  0  0  0  0  0  0
   51.8490   23.7150   45.4190 C   0  0  0  0  0  0  0  0  0  0  0  0
   51.9830   22.3640   45.7340 C   0  0  0  0  0  0  0  0  0  0  0  0
   53.2190   21.8180   45.8710 N   0  0  0  0  0  0  0  0  0  0  0  0
   57.4250   24.7020   45.6620 C   0  0  0  0  0  0  0  0  0  0  0  0
   57.7130   26.0640   45.5290 C   0  0  0  0  0  0  0  0  0  0  0  0
   57.7740   30.4260   45.0350 C   0  0  0  0  0  0  0  0  0  0  0  0
   58.4380   30.6520   46.2550 C   0  0  0  0  0  0  0  0  0  0  0  0
   58.9730   31.9080   46.5490 C   0  0  0  0  0  0  0  0  0  0  0  0
   58.8570   32.9580   45.6320 C   0  0  0  0  0  0  0  0  0  0  0  0
   59.5560   34.5290   46.0150 S   0  0  0  0  0  0  0  0  0  0  0  0
   59.2740   35.5260   44.9260 O   0  0  0  0  0  0  0  0  0  0  0  0
   58.9490   35.0300   47.2950 O   0  0  0  0  0  0  0  0  0  0  0  0
   61.2700   34.3730   46.2210 N   0  0  0  0  0  0  0  0  0  0  0  0
   61.9190   33.7970   47.3630 C   0  0  0  0  0  0  0  0  0  0  0  0
   63.1030   33.0720   47.1670 C   0  0  0  0  0  0  0  0  0  0  0  0
   63.7670   32.4930   48.2520 C   0  0  0  0  0  0  0  0  0  0  0  0
   63.2510   32.6310   49.5430 C   0  0  0  0  0  0  0  0  0  0  0  0
   62.0710   33.3500   49.7480 C   0  0  0  0  0  0  0  0  0  0  0  0
   61.4050   33.9330   48.6660 C   0  0  0  0  0  0  0  0  0  0  0  0
   58.2020   32.7430   44.4140 C   0  0  0  0  0  0  0  0  0  0  0  0
   57.6670   31.4860   44.1140 C   0  0  0  0  0  0  0  0  0  0  0  0
   58.8490   28.3610   43.5370 H   0  0  0  0  0  0  0  0  0  0  0  0
   57.5472   26.3256   42.1220 H   0  0  0  0  0  0  0  0  0  0  0  0
   57.0384   23.8985   42.3612 H   0  0  0  0  0  0  0  0  0  0  0  0
   52.9323   25.5430   45.0003 H   0  0  0  0  0  0  0  0  0  0  0  0
   50.8544   24.1714   45.3072 H   0  0  0  0  0  0  0  0  0  0  0  0
   51.0877   21.7399   45.8717 H   0  0  0  0  0  0  0  0  0  0  0  0
   57.3829   24.2457   46.6620 H   0  0  0  0  0  0  0  0  0  0  0  0
   57.8874   26.6756   46.4265 H   0  0  0  0  0  0  0  0  0  0  0  0
   58.5364   29.8330   46.9827 H   0  0  0  0  0  0  0  0  0  0  0  0
   59.4884   32.0725   47.5068 H   0  0  0  0  0  0  0  0  0  0  0  0
   63.5121   32.9581   46.1523 H   0  0  0  0  0  0  0  0  0  0  0  0
   64.6968   31.9281   48.0894 H   0  0  0  0  0  0  0  0  0  0  0  0
   63.7731   32.1742   50.3967 H   0  0  0  0  0  0  0  0  0  0  0  0
   61.6644   33.4578   50.7644 H   0  0  0  0  0  0  0  0  0  0  0  0
   60.4770   34.4994   48.8335 H   0  0  0  0  0  0  0  0  0  0  0  0
   58.1076   33.5657   43.6899 H   0  0  0  0  0  0  0  0  0  0  0  0
   57.1590   31.3242   43.1518 H   0  0  0  0  0  0  0  0  0  0  0  0
  1  2  2  0
  2  3  1  0
  3  4  1  0
  4  5  2  0
  5  6  1  0
  6  7  2  0
  7  8  1  0
  8  9  2  0
  8 10  2  0
  8 11  1  0
 11 12  2  3
 12 13  1  0
 13 14  2  0
 14 15  1  0
 15 16  2  0
 16 17  1  0
  7 18  1  0
 18 19  2  0
  2 20  1  0
 20 21  2  0
 21 22  1  0
 22 23  2  0
 23 24  1  0
 24 25  2  0
 24 26  2  0
 24 27  1  0
 27 28  1  0
 28 29  2  0
 29 30  1  0
 30 31  2  0
 31 32  1  0
 32 33  2  0
 23 34  1  0
 34 35  2  0
 19  4  1  0
 35 20  1  0
 17 12  1  0
 33 28  1  0
  3 36  1  0
  5 37  1  0
  6 38  1  0
 14 39  1  0
 15 40  1  0
 16 41  1  0
 18 42  1  0
 19 43  1  0
 21 44  1  0
 22 45  1  0
 29 46  1  0
 30 47  1  0
 31 48  1  0
 32 49  1  0
 33 50  1  0
 34 51  1  0
 35 52  1  0
M  CHG  2  17  -1  27  -1
M  END
>  <UniqueID>  (14) 
14

>  <SMILES>  (14) 
O=C(Nc1ccc(S(=O)(=O)N=c2nccc[n-]2)cc1)c1ccc(S(=O)(=O)[N-]c2ccccc2)cc1

>  <Energy>  (14) 
69.82241830165074

>  <Genealogy>  (14) 
O=C(Nc1ccc(S(=O)(=O)N=c2nccc[n-]2)cc1)c1ccc(S(=O)(=O)[N-]c2ccccc2)cc1 (protonated)
O=C(Nc1ccc(S(=O)(=O)N=c2nccc[n-]2)cc1)c1ccc(S(=O)(=O)[N-]c2ccccc2)cc1 (3D coordinates assigned)
O=C(Nc1ccc(S(=O)(=O)N=c2nccc[n-]2)cc1)c1ccc(S(=O)(=O)[N-]c2ccccc2)cc1 (optimized conformer: 69.82241830165074 kcal/mol)

>  <smiles>  (14) 
O=C(Nc1ccc(S(=O)(=O)N=c2nccc[nH]2)cc1)c1ccc(S(=O)(=O)Nc2ccccc2)cc1

>  <score_type>  (14) 
oracle

>  <origin>  (14) 
adg

>  <m_score__min__energy>  (14) 
-12.369999999999999

>  <m_primary>  (14) 
energy

$$$$
14:0
     RDKit          3D

 49 51  0  0  1  0  0  0  0  0999 V2000
   57.3610   24.8660   44.2910 C   0  0  0  0  0  0  0  0  0  0  0  0
   57.0140   25.5920   45.5800 C   0  0  0  0  0  0  0  0  0  0  0  0
   57.7590   27.2070   45.4930 S   0  0  0  0  0  0  0  0  0  0  0  0
   58.6700   27.2690   44.2790 O   0  0  0  0  0  0  0  0  0  0  0  0
   56.7120   28.2750   45.3580 O   0  0  0  0  0  0  0  0  0  0  0  0
   58.7670   27.4620   46.8990 C   0  0  0  0  0  0  0  0  0  0  0  0
   58.4280   28.3680   47.9010 C   0  0  0  0  0  0  0  0  0  0  0  0
   59.2500   28.5400   49.0110 C   0  0  0  0  0  0  0  0  0  0  0  0
   58.8580   29.4780   50.0330 N   0  0  0  0  0  0  0  0  0  0  0  0
   59.2690   30.8330   49.8510 C   0  0  0  0  0  0  0  0  0  0  0  0
   59.7930   31.3110   48.6710 C   0  0  0  0  0  0  0  0  0  0  0  0
   60.1590   32.6530   48.6540 C   0  0  0  0  0  0  0  0  0  0  0  0
   60.6440   33.1970   47.5900 N   0  0  0  0  0  0  0  0  0  0  0  0
   59.8210   33.5200   46.4790 C   0  0  0  0  0  0  0  0  0  0  0  0
   59.6460   34.7900   45.9860 C   0  0  0  0  0  0  0  0  0  0  0  0
   58.8020   34.9520   44.8890 C   0  0  0  0  0  0  0  0  0  0  0  0
   58.1560   33.8530   44.3110 C   0  0  0  0  0  0  0  0  0  0  0  0
   58.3370   32.5760   44.8120 C   0  0  0  0  0  0  0  0  0  0  0  0
   57.5550   31.1680   44.1310 S   0  0  0  0  0  0  0  0  0  0  0  0
   58.6930   29.8450   44.1570 N   0  0  0  0  0  0  0  0  0  0  0  0
   57.2700   31.4410   42.6590 O   0  0  0  0  0  0  0  0  0  0  0  0
   56.2740   30.8140   44.8060 O   0  0  0  0  0  0  0  0  0  0  0  0
   59.1650   32.4280   45.8850 C   0  0  0  0  0  0  0  0  0  0  0  0
   60.0120   33.4410   49.7250 N   0  0  0  0  0  0  0  0  0  0  0  0
   59.4950   32.9290   50.8540 C   0  0  0  0  0  0  0  0  0  0  0  0
   59.1150   31.6310   50.9490 N   0  0  0  0  0  0  0  0  0  0  0  0
   60.4100   27.7970   49.1030 C   0  0  0  0  0  0  0  0  0  0  0  0
   60.7820   26.8800   48.1200 C   0  0  0  0  0  0  0  0  0  0  0  0
   59.9490   26.7210   47.0170 C   0  0  0  0  0  0  0  0  0  0  0  0
   60.2770   25.8130   46.0050 O   0  0  0  0  0  0  0  0  0  0  0  0
   57.8241   23.8971   44.5292 H   0  0  0  0  0  0  0  0  0  0  0  0
   56.4447   24.7004   43.7054 H   0  0  0  0  0  0  0  0  0  0  0  0
   58.0654   25.4750   43.7054 H   0  0  0  0  0  0  0  0  0  0  0  0
   55.9223   25.6855   45.6775 H   0  0  0  0  0  0  0  0  0  0  0  0
   57.3873   25.0367   46.4531 H   0  0  0  0  0  0  0  0  0  0  0  0
   57.5010   28.9537   47.8143 H   0  0  0  0  0  0  0  0  0  0  0  0
   58.3110   29.1390   50.8340 H   0  0  0  0  0  0  0  0  0  0  0  0
   59.9157   30.6660   47.7885 H   0  0  0  0  0  0  0  0  0  0  0  0
   60.1556   35.6514   46.4424 H   0  0  0  0  0  0  0  0  0  0  0  0
   58.6413   35.9570   44.4717 H   0  0  0  0  0  0  0  0  0  0  0  0
   57.4946   34.0068   43.4456 H   0  0  0  0  0  0  0  0  0  0  0  0
   58.5560   29.3000   45.0270 H   0  0  0  0  0  0  0  0  0  0  0  0
   58.5270   29.2140   43.3420 H   0  0  0  0  0  0  0  0  0  0  0  0
   59.3248   31.4216   46.2992 H   0  0  0  0  0  0  0  0  0  0  0  0
   59.3761   33.5839   51.7298 H   0  0  0  0  0  0  0  0  0  0  0  0
   58.7120   31.2450   51.8400 H   0  0  0  0  0  0  0  0  0  0  0  0
   61.0613   27.9324   49.9790 H   0  0  0  0  0  0  0  0  0  0  0  0
   61.7103   26.2974   48.2144 H   0  0  0  0  0  0  0  0  0  0  0  0
   59.9240   25.9750   45.0500 H   0  0  0  0  0  0  0  0  0  0  0  0
  1  2  1  0
  2  3  1  0
  3  4  2  0
  3  5  2  0
  3  6  1  0
  6  7  2  0
  7  8  1  0
  8  9  1  0
  9 10  1  0
 10 11  2  0
 11 12  1  0
 12 13  2  0
 13 14  1  0
 14 15  2  0
 15 16  1  0
 16 17  2  0
 17 18  1  0
 18 19  1  0
 19 20  1  0
 19 21  2  0
 19 22  2  0
 18 23  2  0
 12 24  1  0
 24 25  2  0
 25 26  1  0
  8 27  2  0
 27 28  1  0
 28 29  2  0
 29 30  1  0
 29  6  1  0
 26 10  1  0
 23 14  1  0
  1 31  1  0
  1 32  1  0
  1 33  1  0
  2 34  1  0
  2 35  1  0
  7 36  1  0
  9 37  1  0
 11 38  1  0
 15 39  1  0
 16 40  1  0
 17 41  1  0
 20 42  1  0
 20 43  1  0
 23 44  1  0
 25 45  1  0
 26 46  1  0
 27 47  1  0
 28 48  1  0
 30 49  1  0
M  END
>  <smiles>  (15) 
CCS(=O)(=O)c1cc(Nc2cc(=Nc3cccc(S(N)(=O)=O)c3)nc[nH]2)ccc1O

>  <score_type>  (15) 
oracle

>  <origin>  (15) 
adg

>  <m_score__min__energy>  (15) 
-9.6199999999999992

>  <m_primary>  (15) 
energy

$$$$
15:0
     RDKit          3D

 49 52  0  0  0  0  0  0  0  0999 V2000
   58.1530   34.2170   45.3210 C   0  0  0  0  0  0  0  0  0  0  0  0
   58.0440   32.9110   44.6710 N   0  0  0  0  0  0  0  0  0  0  0  0
   57.7680   32.7750   43.3490 C   0  0  0  0  0  0  0  0  0  0  0  0
   57.6950   31.4410   42.9900 C   0  0  0  0  0  0  0  0  0  0  0  0
   57.9320   30.7450   44.1490 C   0  0  0  0  0  0  0  0  0  0  0  0
   57.9830   29.3790   44.3500 C   0  0  0  0  0  0  0  0  0  0  0  0
   58.2720   28.9150   45.6390 C   0  0  0  0  0  0  0  0  0  0  0  0
   58.3640   27.4540   45.8680 C   0  0  0  0  0  0  0  0  0  0  0  0
   58.8630   26.7210   44.9700 O   0  0  0  0  0  0  0  0  0  0  0  0
   57.9320   26.8720   47.1080 N   0  0  0  0  0  0  0  0  0  0  0  0
   57.9510   25.4300   47.3450 C   0  0  0  0  0  0  0  0  0  0  0  0
   57.3690   24.6990   46.1630 C   0  0  0  0  0  0  0  0  0  0  0  0
   58.0900   23.6440   45.5790 C   0  0  0  0  0  0  0  0  0  0  0  0
   57.5740   22.9640   44.4720 C   0  0  0  0  0  0  0  0  0  0  0  0
   56.3370   23.3330   43.9370 C   0  0  0  0  0  0  0  0  0  0  0  0
   55.6140   24.3830   44.5100 C   0  0  0  0  0  0  0  0  0  0  0  0
   56.1230   25.0670   45.6180 C   0  0  0  0  0  0  0  0  0  0  0  0
   55.4030   26.0840   46.1540 F   0  0  0  0  0  0  0  0  0  0  0  0
   58.4580   29.8540   46.6920 C   0  0  0  0  0  0  0  0  0  0  0  0
   58.6720   29.4230   47.8600 O   0  0  0  0  0  0  0  0  0  0  0  0
   58.3950   31.2200   46.4580 N   0  0  0  0  0  0  0  0  0  0  0  0
   58.6290   32.1470   47.5860 C   0  0  0  0  0  0  0  0  0  0  0  0
   60.0690   32.6070   47.6760 C   0  0  0  0  0  0  0  0  0  0  0  0
   60.3640   33.7750   48.3990 C   0  0  0  0  0  0  0  0  0  0  0  0
   61.6860   34.2100   48.5350 C   0  0  0  0  0  0  0  0  0  0  0  0
   62.7270   33.4740   47.9650 C   0  0  0  0  0  0  0  0  0  0  0  0
   64.0100   33.8960   48.0980 F   0  0  0  0  0  0  0  0  0  0  0  0
   62.4490   32.2970   47.2660 C   0  0  0  0  0  0  0  0  0  0  0  0
   61.1290   31.8580   47.1270 C   0  0  0  0  0  0  0  0  0  0  0  0
   58.1390   31.6440   45.1670 C   0  0  0  0  0  0  0  0  0  0  0  0
   58.1420   34.0851   46.4130 H   0  0  0  0  0  0  0  0  0  0  0  0
   59.0945   34.6993   45.0194 H   0  0  0  0  0  0  0  0  0  0  0  0
   57.3045   34.8487   45.0194 H   0  0  0  0  0  0  0  0  0  0  0  0
   57.6216   33.6152   42.6543 H   0  0  0  0  0  0  0  0  0  0  0  0
   57.4911   31.0274   41.9913 H   0  0  0  0  0  0  0  0  0  0  0  0
   57.8020   28.6773   43.5224 H   0  0  0  0  0  0  0  0  0  0  0  0
   57.6580   27.4940   47.9010 H   0  0  0  0  0  0  0  0  0  0  0  0
   58.9892   25.1012   47.4999 H   0  0  0  0  0  0  0  0  0  0  0  0
   57.3480   25.2057   48.2372 H   0  0  0  0  0  0  0  0  0  0  0  0
   59.0654   23.3516   45.9950 H   0  0  0  0  0  0  0  0  0  0  0  0
   58.1426   22.1372   44.0214 H   0  0  0  0  0  0  0  0  0  0  0  0
   55.9325   22.7975   43.0655 H   0  0  0  0  0  0  0  0  0  0  0  0
   54.6405   24.6724   44.0874 H   0  0  0  0  0  0  0  0  0  0  0  0
   57.9853   33.0294   47.4556 H   0  0  0  0  0  0  0  0  0  0  0  0
   58.3946   31.6059   48.5146 H   0  0  0  0  0  0  0  0  0  0  0  0
   59.5492   34.3514   48.8614 H   0  0  0  0  0  0  0  0  0  0  0  0
   61.9062   35.1329   49.0916 H   0  0  0  0  0  0  0  0  0  0  0  0
   63.2706   31.7142   46.8239 H   0  0  0  0  0  0  0  0  0  0  0  0
   60.9168   30.9237   46.5866 H   0  0  0  0  0  0  0  0  0  0  0  0
  1  2  1  0
  2  3  1  0
  3  4  2  0
  4  5  1  0
  5  6  1  0
  6  7  2  0
  7  8  1  0
  8  9  2  0
  8 10  1  0
 10 11  1  0
 11 12  1  0
 12 13  2  0
 13 14  1  0
 14 15  2  0
 15 16  1  0
 16 17  2  0
 17 18  1  0
  7 19  1  0
 19 20  2  0
 19 21  1  0
 21 22  1  0
 22 23  1  0
 23 24  2  0
 24 25  1  0
 25 26  2  0
 26 27  1  0
 26 28  1  0
 28 29  2  0
 21 30  1  0
 30  2  1  0
 30  5  2  0
 17 12  1  0
 29 23  1  0
  1 31  1  0
  1 32  1  0
  1 33  1  0
  3 34  1  0
  4 35  1  0
  6 36  1  0
 10 37  1  0
 11 38  1  0
 11 39  1  0
 13 40  1  0
 14 41  1  0
 15 42  1  0
 16 43  1  0
 22 44  1  0
 22 45  1  0
 24 46  1  0
 25 47  1  0
 28 48  1  0
 29 49  1  0
M  END
>  <UniqueID>  (16) 
15

>  <SMILES>  (16) 
Cn1ccc2cc(C(=O)NCc3ccccc3F)c(=O)n(Cc3ccc(F)cc3)c21

>  <Energy>  (16) 
100.6699224087327

>  <Genealogy>  (16) 
Cn1ccc2cc(C(=O)NCc3ccccc3F)c(=O)n(Cc3ccc(F)cc3)c21 (3D coordinates assigned)
Cn1ccc2cc(C(=O)NCc3ccccc3F)c(=O)n(Cc3ccc(F)cc3)c21 (optimized conformer: 100.6699224087327 kcal/mol)

>  <smiles>  (16) 
Cn1ccc2cc(C(=O)NCc3ccccc3F)c(=O)n(Cc3ccc(F)cc3)c21

>  <score_type>  (16) 
oracle

>  <origin>  (16) 
adg

>  <m_score__min__energy>  (16) 
-8.1699999999999999

>  <m_primary>  (16) 
energy

$$$$
16:0
     RDKit          3D

 40 41  0  0  0  0  0  0  0  0999 V2000
   60.2530   28.8910   45.2310 C   0  0  0  0  0  0  0  0  0  0  0  0
   59.8790   29.3590   46.6320 C   0  0  0  0  0  0  0  0  0  0  0  0
   60.0560   30.8410   46.7550 C   0  0  0  0  0  0  0  0  0  0  0  0
   61.1930   31.4470   47.1460 N   0  0  0  0  0  0  0  0  0  0  0  0
   60.9850   32.7560   47.2080 N   0  0  0  0  0  0  0  0  0  0  0  0
   62.0300   33.7110   47.5810 C   0  0  0  0  0  0  0  0  0  0  0  0
   63.2600   33.5180   46.6980 C   0  0  0  0  0  0  0  0  0  0  0  0
   63.7620   32.2220   46.8710 O   0  0  0  0  0  0  0  0  0  0  0  0
   59.6920   33.0150   46.8840 C   0  0  0  0  0  0  0  0  0  0  0  0
   59.0830   34.3840   46.7070 C   0  0  0  0  0  0  0  0  0  0  0  0
   59.2640   34.9170   45.2870 C   0  0  0  0  0  0  0  0  0  0  0  0
   59.0800   31.8010   46.5960 C   0  0  0  0  0  0  0  0  0  0  0  0
   57.7670   31.5700   46.1730 O   0  0  0  0  0  0  0  0  0  0  0  0
   57.4170   31.2300   44.8610 C   0  0  0  0  0  0  0  0  0  0  0  0
   56.6410   30.0860   44.6420 C   0  0  0  0  0  0  0  0  0  0  0  0
   56.2700   29.7220   43.3440 C   0  0  0  0  0  0  0  0  0  0  0  0
   56.6630   30.5080   42.2570 C   0  0  0  0  0  0  0  0  0  0  0  0
   57.4210   31.6640   42.4680 C   0  0  0  0  0  0  0  0  0  0  0  0
   57.7930   32.0290   43.7660 C   0  0  0  0  0  0  0  0  0  0  0  0
   60.9383   28.0335   45.3016 H   0  0  0  0  0  0  0  0  0  0  0  0
   59.3437   28.5901   44.6900 H   0  0  0  0  0  0  0  0  0  0  0  0
   60.7470   29.7115   44.6900 H   0  0  0  0  0  0  0  0  0  0  0  0
   58.8280   29.1023   46.8308 H   0  0  0  0  0  0  0  0  0  0  0  0
   60.5356   28.8608   47.3605 H   0  0  0  0  0  0  0  0  0  0  0  0
   62.0990   30.9750   47.3650 H   0  0  0  0  0  0  0  0  0  0  0  0
   61.6486   34.7349   47.4540 H   0  0  0  0  0  0  0  0  0  0  0  0
   62.3119   33.5427   48.6309 H   0  0  0  0  0  0  0  0  0  0  0  0
   62.9812   33.6653   45.6442 H   0  0  0  0  0  0  0  0  0  0  0  0
   64.0313   34.2499   46.9798 H   0  0  0  0  0  0  0  0  0  0  0  0
   64.7450   32.2910   46.7570 H   0  0  0  0  0  0  0  0  0  0  0  0
   58.0072   34.3244   46.9286 H   0  0  0  0  0  0  0  0  0  0  0  0
   59.5958   35.0731   47.3942 H   0  0  0  0  0  0  0  0  0  0  0  0
   59.6175   35.9578   45.3283 H   0  0  0  0  0  0  0  0  0  0  0  0
   60.0029   34.2997   44.7550 H   0  0  0  0  0  0  0  0  0  0  0  0
   58.3020   34.8773   44.7550 H   0  0  0  0  0  0  0  0  0  0  0  0
   56.3213   29.4701   45.4955 H   0  0  0  0  0  0  0  0  0  0  0  0
   55.6683   28.8162   43.1781 H   0  0  0  0  0  0  0  0  0  0  0  0
   56.3760   30.2172   41.2357 H   0  0  0  0  0  0  0  0  0  0  0  0
   57.7247   32.2862   41.6133 H   0  0  0  0  0  0  0  0  0  0  0  0
   58.3814   32.9436   43.9310 H   0  0  0  0  0  0  0  0  0  0  0  0
  1  2  1  0
  2  3  1  0
  3  4  2  0
  4  5  1  0
  5  6  1  0
  6  7  1  0
  7  8  1  0
  5  9  1  0
  9 10  1  0
 10 11  1  0
  9 12  2  0
 12 13  1  0
 13 14  1  0
 14 15  2  0
 15 16  1  0
 16 17  2  0
 17 18  1  0
 18 19  2  0
 12  3  1  0
 19 14  1  0
  1 20  1  0
  1 21  1  0
  1 22  1  0
  2 23  1  0
  2 24  1  0
  4 25  1  0
  6 26  1  0
  6 27  1  0
  7 28  1  0
  7 29  1  0
  8 30  1  0
 10 31  1  0
 10 32  1  0
 11 33  1  0
 11 34  1  0
 11 35  1  0
 15 36  1  0
 16 37  1  0
 17 38  1  0
 18 39  1  0
 19 40  1  0
M  CHG  1   4   1
M  END
>  <UniqueID>  (17) 
16

>  <SMILES>  (17) 
CCc1[nH+]n(CCO)c(CC)c1Oc1ccccc1

>  <Energy>  (17) 
68.08151145038694

>  <Genealogy>  (17) 
CCc1[nH+]n(CCO)c(CC)c1Oc1ccccc1 (protonated)
CCc1[nH+]n(CCO)c(CC)c1Oc1ccccc1 (3D coordinates assigned)
CCc1[nH+]n(CCO)c(CC)c1Oc1ccccc1 (optimized conformer: 68.08151145038694 kcal/mol)

>  <smiles>  (17) 
CCc1nn(CCO)c(CC)c1Oc1ccccc1

>  <score_type>  (17) 
oracle

>  <origin>  (17) 
adg

>  <m_score__min__energy>  (17) 
-5.5300000000000002

>  <m_primary>  (17) 
energy

$$$$
17:0
     RDKit          3D

 51 54  0  0  0  0  0  0  0  0999 V2000
   55.4650   29.6930   45.0800 O   0  0  0  0  0  0  0  0  0  0  0  0
   56.2340   28.7110   44.9160 C   0  0  0  0  0  0  0  0  0  0  0  0
   57.4010   28.8590   43.9740 C   0  0  0  0  0  0  0  0  0  0  0  0
   57.5400   30.1990   43.4990 O   0  0  0  0  0  0  0  0  0  0  0  0
   57.9100   31.3060   44.2790 C   0  0  0  0  0  0  0  0  0  0  0  0
   57.7720   32.5800   43.7180 C   0  0  0  0  0  0  0  0  0  0  0  0
   58.1050   33.7230   44.4490 C   0  0  0  0  0  0  0  0  0  0  0  0
   58.5880   33.6040   45.7600 C   0  0  0  0  0  0  0  0  0  0  0  0
   58.9240   34.7450   46.5050 C   0  0  0  0  0  0  0  0  0  0  0  0
   59.4060   34.6130   47.8110 C   0  0  0  0  0  0  0  0  0  0  0  0
   59.5550   33.3450   48.3800 C   0  0  0  0  0  0  0  0  0  0  0  0
   59.2230   32.2020   47.6480 C   0  0  0  0  0  0  0  0  0  0  0  0
   58.7380   32.3200   46.3370 C   0  0  0  0  0  0  0  0  0  0  0  0
   58.4010   31.1790   45.5930 C   0  0  0  0  0  0  0  0  0  0  0  0
   55.9420   27.4870   45.6070 N   0  0  0  0  0  0  0  0  0  0  0  0
   56.7520   26.3050   45.6350 C   0  0  0  0  0  0  0  0  0  0  0  0
   58.0020   26.3540   46.2640 C   0  0  0  0  0  0  0  0  0  0  0  0
   58.8120   25.2160   46.3140 C   0  0  0  0  0  0  0  0  0  0  0  0
   58.3830   24.0260   45.7220 C   0  0  0  0  0  0  0  0  0  0  0  0
   57.1430   23.9710   45.0690 C   0  0  0  0  0  0  0  0  0  0  0  0
   56.6080   22.4860   44.2850 S   0  0  0  0  0  0  0  0  0  0  0  0
   55.8660   22.8180   43.0200 O   0  0  0  0  0  0  0  0  0  0  0  0
   57.8250   21.6820   43.9200 O   0  0  0  0  0  0  0  0  0  0  0  0
   55.5970   21.5480   45.3660 N   0  0  0  0  0  0  0  0  0  0  0  0
   56.2460   20.2900   45.7730 C   0  0  0  0  0  0  0  0  0  0  0  0
   57.3870   20.5210   46.7930 C   0  0  0  0  0  0  0  0  0  0  0  0
   57.3230   21.7800   47.4410 O   0  0  0  0  0  0  0  0  0  0  0  0
   55.9920   22.0820   47.7920 C   0  0  0  0  0  0  0  0  0  0  0  0
   55.1500   22.3480   46.5290 C   0  0  0  0  0  0  0  0  0  0  0  0
   56.3380   25.1160   45.0130 C   0  0  0  0  0  0  0  0  0  0  0  0
   58.3222   28.5724   44.5024 H   0  0  0  0  0  0  0  0  0  0  0  0
   57.2208   28.2082   43.1057 H   0  0  0  0  0  0  0  0  0  0  0  0
   57.3968   32.6831   42.6891 H   0  0  0  0  0  0  0  0  0  0  0  0
   57.9881   34.7182   43.9953 H   0  0  0  0  0  0  0  0  0  0  0  0
   58.8080   35.7446   46.0609 H   0  0  0  0  0  0  0  0  0  0  0  0
   59.6686   35.5093   48.3921 H   0  0  0  0  0  0  0  0  0  0  0  0
   59.9349   33.2466   49.4076 H   0  0  0  0  0  0  0  0  0  0  0  0
   59.3423   31.2068   48.1011 H   0  0  0  0  0  0  0  0  0  0  0  0
   58.5209   30.1803   46.0382 H   0  0  0  0  0  0  0  0  0  0  0  0
   58.3483   27.2927   46.7211 H   0  0  0  0  0  0  0  0  0  0  0  0
   59.7879   25.2577   46.8199 H   0  0  0  0  0  0  0  0  0  0  0  0
   59.0191   23.1298   45.7680 H   0  0  0  0  0  0  0  0  0  0  0  0
   55.4905   19.6339   46.2299 H   0  0  0  0  0  0  0  0  0  0  0  0
   56.6853   19.8319   44.8746 H   0  0  0  0  0  0  0  0  0  0  0  0
   57.3339   19.7329   47.5585 H   0  0  0  0  0  0  0  0  0  0  0  0
   58.3321   20.4954   46.2308 H   0  0  0  0  0  0  0  0  0  0  0  0
   55.5609   21.2330   48.3427 H   0  0  0  0  0  0  0  0  0  0  0  0
   55.9851   22.9839   48.4217 H   0  0  0  0  0  0  0  0  0  0  0  0
   54.1011   22.0978   46.7461 H   0  0  0  0  0  0  0  0  0  0  0  0
   55.2689   23.4099   46.2676 H   0  0  0  0  0  0  0  0  0  0  0  0
   55.3768   25.0836   44.4791 H   0  0  0  0  0  0  0  0  0  0  0  0
  1  2  2  0
  2  3  1  0
  3  4  1  0
  4  5  1  0
  5  6  2  0
  6  7  1  0
  7  8  2  0
  8  9  1  0
  9 10  2  0
 10 11  1  0
 11 12  2  0
 12 13  1  0
 13 14  2  0
  2 15  1  0
 15 16  1  0
 16 17  2  0
 17 18  1  0
 18 19  2  0
 19 20  1  0
 20 21  1  0
 21 22  2  0
 21 23  2  0
 21 24  1  0
 24 25  1  0
 25 26  1  0
 26 27  1  0
 27 28  1  0
 28 29  1  0
 20 30  2  0
 14  5  1  0
 30 16  1  0
 13  8  1  0
 29 24  1  0
  3 31  1  0
  3 32  1  0
  6 33  1  0
  7 34  1  0
  9 35  1  0
 10 36  1  0
 11 37  1  0
 12 38  1  0
 14 39  1  0
 17 40  1  0
 18 41  1  0
 19 42  1  0
 25 43  1  0
 25 44  1  0
 26 45  1  0
 26 46  1  0
 28 47  1  0
 28 48  1  0
 29 49  1  0
 29 50  1  0
 30 51  1  0
M  CHG  1  15  -1
M  END
>  <UniqueID>  (18) 
17

>  <SMILES>  (18) 
O=C(COc1ccc2ccccc2c1)[N-]c1cccc(S(=O)(=O)N2CCOCC2)c1

>  <Energy>  (18) 
71.31502662231551

>  <Genealogy>  (18) 
O=C(COc1ccc2ccccc2c1)[N-]c1cccc(S(=O)(=O)N2CCOCC2)c1 (protonated)
O=C(COc1ccc2ccccc2c1)[N-]c1cccc(S(=O)(=O)N2CCOCC2)c1 (3D coordinates assigned)
O=C(COc1ccc2ccccc2c1)[N-]c1cccc(S(=O)(=O)N2CCOCC2)c1 (nonaromatic ring conformer: 71.31502662231551 kcal/mol)

>  <smiles>  (18) 
O=C(COc1ccc2ccccc2c1)Nc1cccc(S(=O)(=O)N2CCOCC2)c1

>  <score_type>  (18) 
oracle

>  <origin>  (18) 
adg

>  <m_score__min__energy>  (18) 
-11.609999999999999

>  <m_primary>  (18) 
energy

$$$$
18:0
     RDKit          3D

 49 51  0  0  0  0  0  0  0  0999 V2000
   55.1500   29.3490   44.8980 N   0  0  0  0  0  0  0  0  0  0  0  0
   56.7990   29.7610   44.5860 S   0  0  0  0  0  0  0  0  0  0  0  0
   57.1010   31.1120   45.1710 O   0  0  0  0  0  0  0  0  0  0  0  0
   57.0160   29.7980   43.0990 O   0  0  0  0  0  0  0  0  0  0  0  0
   57.8560   28.5550   45.3140 C   0  0  0  0  0  0  0  0  0  0  0  0
   59.1040   28.9230   45.8340 C   0  0  0  0  0  0  0  0  0  0  0  0
   59.9380   27.9580   46.4070 C   0  0  0  0  0  0  0  0  0  0  0  0
   59.5400   26.6160   46.4390 C   0  0  0  0  0  0  0  0  0  0  0  0
   58.3080   26.2320   45.8960 C   0  0  0  0  0  0  0  0  0  0  0  0
   57.9430   24.8440   45.9100 N   0  0  0  0  0  0  0  0  0  0  0  0
   58.0630   23.9230   44.8140 C   0  0  0  0  0  0  0  0  0  0  0  0
   57.5420   24.2230   43.7080 O   0  0  0  0  0  0  0  0  0  0  0  0
   58.7970   22.6170   44.9560 C   0  0  0  0  0  0  0  0  0  0  0  0
   57.9100   21.4890   44.6870 N   0  0  0  0  0  0  0  0  0  0  0  0
   56.5960   21.6390   44.1330 C   0  0  0  0  0  0  0  0  0  0  0  0
   56.3540   21.1690   42.9910 O   0  0  0  0  0  0  0  0  0  0  0  0
   55.5130   22.2890   44.8950 C   0  0  0  0  0  0  0  0  0  0  0  0
   54.7400   23.2970   44.2990 C   0  0  0  0  0  0  0  0  0  0  0  0
   53.6460   23.8380   44.9810 C   0  0  0  0  0  0  0  0  0  0  0  0
   53.3210   23.3840   46.2630 C   0  0  0  0  0  0  0  0  0  0  0  0
   54.1120   22.4050   46.8830 C   0  0  0  0  0  0  0  0  0  0  0  0
   53.7370   21.8300   48.5060 S   0  0  0  0  0  0  0  0  0  0  0  0
   53.4690   22.9770   49.4390 O   0  0  0  0  0  0  0  0  0  0  0  0
   52.5030   20.9760   48.4330 O   0  0  0  0  0  0  0  0  0  0  0  0
   55.0500   20.8690   49.1060 N   0  0  0  0  0  0  0  0  0  0  0  0
   55.9800   21.2770   50.1190 C   0  0  0  0  0  0  0  0  0  0  0  0
   55.8200   20.7610   51.4120 C   0  0  0  0  0  0  0  0  0  0  0  0
   56.7160   21.1050   52.4290 C   0  0  0  0  0  0  0  0  0  0  0  0
   57.7770   21.9780   52.1620 C   0  0  0  0  0  0  0  0  0  0  0  0
   57.9250   22.5260   50.8850 C   0  0  0  0  0  0  0  0  0  0  0  0
   57.0280   22.1870   49.8660 C   0  0  0  0  0  0  0  0  0  0  0  0
   57.1470   22.8100   48.6670 F   0  0  0  0  0  0  0  0  0  0  0  0
   55.2130   21.8710   46.2020 C   0  0  0  0  0  0  0  0  0  0  0  0
   57.4470   27.2170   45.3760 C   0  0  0  0  0  0  0  0  0  0  0  0
   55.1520   28.6050   45.6320 H   0  0  0  0  0  0  0  0  0  0  0  0
   59.4283   29.9732   45.7914 H   0  0  0  0  0  0  0  0  0  0  0  0
   60.9081   28.2535   46.8332 H   0  0  0  0  0  0  0  0  0  0  0  0
   60.1980   25.8602   46.8927 H   0  0  0  0  0  0  0  0  0  0  0  0
   59.6341   22.5950   44.2428 H   0  0  0  0  0  0  0  0  0  0  0  0
   59.1690   22.5333   45.9878 H   0  0  0  0  0  0  0  0  0  0  0  0
   54.9952   23.6623   43.2933 H   0  0  0  0  0  0  0  0  0  0  0  0
   53.0388   24.6235   44.5074 H   0  0  0  0  0  0  0  0  0  0  0  0
   52.4446   23.7947   46.7858 H   0  0  0  0  0  0  0  0  0  0  0  0
   54.9834   20.0804   51.6286 H   0  0  0  0  0  0  0  0  0  0  0  0
   56.5869   20.6894   53.4392 H   0  0  0  0  0  0  0  0  0  0  0  0
   58.4937   22.2325   52.9567 H   0  0  0  0  0  0  0  0  0  0  0  0
   58.7488   23.2256   50.6804 H   0  0  0  0  0  0  0  0  0  0  0  0
   55.8473   21.1190   46.6941 H   0  0  0  0  0  0  0  0  0  0  0  0
   56.4468   26.9340   45.0162 H   0  0  0  0  0  0  0  0  0  0  0  0
  1  2  1  0
  2  3  2  0
  2  4  2  0
  2  5  1  0
  5  6  2  0
  6  7  1  0
  7  8  2  0
  8  9  1  0
  9 10  1  0
 10 11  1  0
 11 12  2  0
 11 13  1  0
 13 14  1  0
 14 15  1  0
 15 16  2  0
 15 17  1  0
 17 18  2  0
 18 19  1  0
 19 20  2  0
 20 21  1  0
 21 22  1  0
 22 23  2  0
 22 24  2  0
 22 25  1  0
 25 26  1  0
 26 27  2  0
 27 28  1  0
 28 29  2  0
 29 30  1  0
 30 31  2  0
 31 32  1  0
 21 33  2  0
  9 34  2  0
 34  5  1  0
 33 17  1  0
 31 26  1  0
  1 35  1  0
  6 36  1  0
  7 37  1  0
  8 38  1  0
 13 39  1  0
 13 40  1  0
 18 41  1  0
 19 42  1  0
 20 43  1  0
 27 44  1  0
 28 45  1  0
 29 46  1  0
 30 47  1  0
 33 48  1  0
 34 49  1  0
M  CHG  4   1  -1  10  -1  14  -1  25  -1
M  END
>  <UniqueID>  (19) 
18

>  <SMILES>  (19) 
[NH-]S(=O)(=O)c1cccc([N-]C(=O)C[N-]C(=O)c2cccc(S(=O)(=O)[N-]c3ccccc3F)c2)c1

>  <Energy>  (19) 
63.31409584788979

>  <Genealogy>  (19) 
[NH-]S(=O)(=O)c1cccc([N-]C(=O)C[N-]C(=O)c2cccc(S(=O)(=O)[N-]c3ccccc3F)c2)c1 (protonated)
[NH-]S(=O)(=O)c1cccc([N-]C(=O)C[N-]C(=O)c2cccc(S(=O)(=O)[N-]c3ccccc3F)c2)c1 (3D coordinates assigned)
[NH-]S(=O)(=O)c1cccc([N-]C(=O)C[N-]C(=O)c2cccc(S(=O)(=O)[N-]c3ccccc3F)c2)c1 (optimized conformer: 63.31409584788979 kcal/mol)

>  <smiles>  (19) 
NS(=O)(=O)c1cccc(NC(=O)CNC(=O)c2cccc(S(=O)(=O)Nc3ccccc3F)c2)c1

>  <score_type>  (19) 
oracle

>  <origin>  (19) 
adg

>  <m_score__min__energy>  (19) 
-15.43

>  <m_primary>  (19) 
energy

$$$$
19:0
     RDKit          3D

 44 46  0  0  0  0  0  0  0  0999 V2000
   59.6280   31.4130   47.8520 C   0  0  0  0  0  0  0  0  0  0  0  0
   60.9730   32.0520   47.6300 C   0  0  0  0  0  0  0  0  0  0  0  0
   62.1000   31.2170   47.5340 C   0  0  0  0  0  0  0  0  0  0  0  0
   63.3650   31.7530   47.2850 C   0  0  0  0  0  0  0  0  0  0  0  0
   63.5210   33.1290   47.1290 C   0  0  0  0  0  0  0  0  0  0  0  0
   62.4190   33.9760   47.2430 C   0  0  0  0  0  0  0  0  0  0  0  0
   61.1420   33.4580   47.5210 C   0  0  0  0  0  0  0  0  0  0  0  0
   60.0210   34.4110   47.6870 C   0  0  0  0  0  0  0  0  0  0  0  0
   59.8570   34.9750   48.8000 O   0  0  0  0  0  0  0  0  0  0  0  0
   59.1210   34.7280   46.6150 N   0  0  0  0  0  0  0  0  0  0  0  0
   58.4700   33.7910   45.7460 C   0  0  0  0  0  0  0  0  0  0  0  0
   57.2420   33.1980   46.0820 C   0  0  0  0  0  0  0  0  0  0  0  0
   56.6470   32.2720   45.2210 C   0  0  0  0  0  0  0  0  0  0  0  0
   57.2690   31.9290   44.0110 C   0  0  0  0  0  0  0  0  0  0  0  0
   56.6550   30.9440   43.1000 C   0  0  0  0  0  0  0  0  0  0  0  0
   57.0860   30.8490   41.9210 O   0  0  0  0  0  0  0  0  0  0  0  0
   55.6100   30.0610   43.5260 N   0  0  0  0  0  0  0  0  0  0  0  0
   55.4830   29.5110   44.8710 C   0  0  0  0  0  0  0  0  0  0  0  0
   56.6470   28.6010   45.1480 C   0  0  0  0  0  0  0  0  0  0  0  0
   57.9580   29.0530   44.9260 C   0  0  0  0  0  0  0  0  0  0  0  0
   59.0490   28.2270   45.2080 C   0  0  0  0  0  0  0  0  0  0  0  0
   60.8270   28.8510   44.8920 Br  0  0  0  0  0  0  0  0  0  0  0  0
   58.8400   26.9440   45.7230 C   0  0  0  0  0  0  0  0  0  0  0  0
   57.5410   26.4870   45.9640 C   0  0  0  0  0  0  0  0  0  0  0  0
   57.2850   24.7320   46.6820 Br  0  0  0  0  0  0  0  0  0  0  0  0
   56.4430   27.3140   45.6840 C   0  0  0  0  0  0  0  0  0  0  0  0
   55.1530   26.8570   45.9400 O   0  0  0  0  0  0  0  0  0  0  0  0
   58.4650   32.5670   43.6480 C   0  0  0  0  0  0  0  0  0  0  0  0
   59.0600   33.4930   44.5110 C   0  0  0  0  0  0  0  0  0  0  0  0
   59.4386   31.3230   48.9318 H   0  0  0  0  0  0  0  0  0  0  0  0
   58.8459   32.0358   47.3932 H   0  0  0  0  0  0  0  0  0  0  0  0
   59.6168   30.4133   47.3932 H   0  0  0  0  0  0  0  0  0  0  0  0
   61.9840   30.1300   47.6563 H   0  0  0  0  0  0  0  0  0  0  0  0
   64.2388   31.0889   47.2119 H   0  0  0  0  0  0  0  0  0  0  0  0
   64.5154   33.5479   46.9155 H   0  0  0  0  0  0  0  0  0  0  0  0
   62.5503   35.0605   47.1141 H   0  0  0  0  0  0  0  0  0  0  0  0
   56.7463   33.4637   47.0273 H   0  0  0  0  0  0  0  0  0  0  0  0
   55.6866   31.8099   45.4931 H   0  0  0  0  0  0  0  0  0  0  0  0
   55.4753   30.3311   45.6040 H   0  0  0  0  0  0  0  0  0  0  0  0
   54.5444   28.9428   44.9494 H   0  0  0  0  0  0  0  0  0  0  0  0
   58.1270   30.0642   44.5274 H   0  0  0  0  0  0  0  0  0  0  0  0
   59.6997   26.2927   45.9390 H   0  0  0  0  0  0  0  0  0  0  0  0
   58.9364   32.3379   42.6809 H   0  0  0  0  0  0  0  0  0  0  0  0
   59.9966   33.9901   44.2182 H   0  0  0  0  0  0  0  0  0  0  0  0
  1  2  1  0
  2  3  2  0
  3  4  1  0
  4  5  2  0
  5  6  1  0
  6  7  2  0
  7  8  1  0
  8  9  2  0
  8 10  1  0
 10 11  1  0
 11 12  2  0
 12 13  1  0
 13 14  2  0
 14 15  1  0
 15 16  2  0
 15 17  1  0
 17 18  1  0
 18 19  1  0
 19 20  2  0
 20 21  1  0
 21 22  1  0
 21 23  2  0
 23 24  1  0
 24 25  1  0
 24 26  2  0
 26 27  1  0
 14 28  1  0
 28 29  2  0
  7  2  1  0
 29 11  1  0
 26 19  1  0
  1 30  1  0
  1 31  1  0
  1 32  1  0
  3 33  1  0
  4 34  1  0
  5 35  1  0
  6 36  1  0
 12 37  1  0
 13 38  1  0
 18 39  1  0
 18 40  1  0
 20 41  1  0
 23 42  1  0
 28 43  1  0
 29 44  1  0
M  CHG  3  10  -1  17  -1  27  -1
M  END
>  <UniqueID>  (20) 
19

>  <SMILES>  (20) 
Cc1ccccc1C(=O)[N-]c1ccc(C(=O)[N-]Cc2cc(Br)cc(Br)c2[O-])cc1

>  <Energy>  (20) 
59.8080833415602

>  <Genealogy>  (20) 
Cc1ccccc1C(=O)[N-]c1ccc(C(=O)[N-]Cc2cc(Br)cc(Br)c2[O-])cc1 (protonated)
Cc1ccccc1C(=O)[N-]c1ccc(C(=O)[N-]Cc2cc(Br)cc(Br)c2[O-])cc1 (3D coordinates assigned)
Cc1ccccc1C(=O)[N-]c1ccc(C(=O)[N-]Cc2cc(Br)cc(Br)c2[O-])cc1 (optimized conformer: 59.8080833415602 kcal/mol)

>  <smiles>  (20) 
Cc1ccccc1C(=O)Nc1ccc(C(=O)NCc2cc(Br)cc(Br)c2O)cc1

>  <score_type>  (20) 
oracle

>  <origin>  (20) 
adg

>  <m_score__min__energy>  (20) 
-16.25

>  <m_primary>  (20) 
energy

$$$$
20:0
     RDKit          3D

 50 53  0  0  0  0  0  0  0  0999 V2000
   62.0093   34.9497   50.8238 H   0  0  0  0  0  0  0  0  0  0  0  0
   62.6170   34.3400   50.1390 C   0  0  0  0  0  0  0  0  0  0  0  0
   63.8340   33.8120   50.5770 C   0  0  0  0  0  0  0  0  0  0  0  0
   64.1818   34.0164   51.6004 H   0  0  0  0  0  0  0  0  0  0  0  0
   64.6160   33.0220   49.7190 C   0  0  0  0  0  0  0  0  0  0  0  0
   65.9030   32.4510   50.1790 C   0  0  0  0  0  0  0  0  0  0  0  0
   66.9770   33.0260   49.8550 O   0  0  0  0  0  0  0  0  0  0  0  0
   65.9570   31.2550   50.9810 N   0  0  0  0  0  0  0  0  0  0  0  0
   67.1170   30.3660   50.8710 C   0  0  0  0  0  0  0  0  0  0  0  0
   67.3147   30.1575   49.8092 H   0  0  0  0  0  0  0  0  0  0  0  0
   67.9885   30.8577   51.3278 H   0  0  0  0  0  0  0  0  0  0  0  0
   66.8490   29.0460   51.6040 C   0  0  0  0  0  0  0  0  0  0  0  0
   66.0178   28.5252   51.1061 H   0  0  0  0  0  0  0  0  0  0  0  0
   67.7698   28.4451   51.5716 H   0  0  0  0  0  0  0  0  0  0  0  0
   66.4930   29.2660   53.0290 N   0  0  0  0  0  0  0  0  0  0  0  0
   67.3880   29.4260   53.5510 H   0  0  0  0  0  0  0  0  0  0  0  0
   65.8940   28.0390   53.5860 C   0  0  0  0  0  0  0  0  0  0  0  0
   65.9169   28.0859   54.6848 H   0  0  0  0  0  0  0  0  0  0  0  0
   64.8520   27.9519   53.2444 H   0  0  0  0  0  0  0  0  0  0  0  0
   66.4662   27.1639   53.2444 H   0  0  0  0  0  0  0  0  0  0  0  0
   65.6110   30.4470   53.2700 C   0  0  0  0  0  0  0  0  0  0  0  0
   64.8278   30.1568   53.9858 H   0  0  0  0  0  0  0  0  0  0  0  0
   66.2495   31.2551   53.6564 H   0  0  0  0  0  0  0  0  0  0  0  0
   64.9350   30.9740   51.9970 C   0  0  0  0  0  0  0  0  0  0  0  0
   64.2349   30.2173   51.6134 H   0  0  0  0  0  0  0  0  0  0  0  0
   64.3850   31.8979   52.2293 H   0  0  0  0  0  0  0  0  0  0  0  0
   64.1370   32.7360   48.4290 C   0  0  0  0  0  0  0  0  0  0  0  0
   64.7236   32.0899   47.7593 H   0  0  0  0  0  0  0  0  0  0  0  0
   62.9200   33.2670   47.9910 C   0  0  0  0  0  0  0  0  0  0  0  0
   62.5520   33.0324   46.9813 H   0  0  0  0  0  0  0  0  0  0  0  0
   62.1640   34.1000   48.8360 C   0  0  0  0  0  0  0  0  0  0  0  0
   60.8920   34.6400   48.4380 N   0  0  0  0  0  0  0  0  0  0  0  0
   60.1850   34.2930   47.4030 C   0  0  0  0  0  0  0  0  0  0  0  0
   59.6180   33.0580   47.3740 N   0  0  0  0  0  0  0  0  0  0  0  0
   58.8470   32.6460   46.3290 C   0  0  0  0  0  0  0  0  0  0  0  0
   58.6340   33.5290   45.2510 C   0  0  0  0  0  0  0  0  0  0  0  0
   59.2120   34.8010   45.3020 C   0  0  0  0  0  0  0  0  0  0  0  0
   59.0552   35.5118   44.4772 H   0  0  0  0  0  0  0  0  0  0  0  0
   59.9670   35.1560   46.3720 N   0  0  0  0  0  0  0  0  0  0  0  0
   57.8600   33.1190   44.1650 C   0  0  0  0  0  0  0  0  0  0  0  0
   57.6785   33.8038   43.3235 H   0  0  0  0  0  0  0  0  0  0  0  0
   57.3200   31.8380   44.1550 C   0  0  0  0  0  0  0  0  0  0  0  0
   56.7161   31.5022   43.2992 H   0  0  0  0  0  0  0  0  0  0  0  0
   57.5450   30.9760   45.2340 C   0  0  0  0  0  0  0  0  0  0  0  0
   57.0600   29.8130   45.1900 O   0  0  0  0  0  0  0  0  0  0  0  0
   58.2810   31.3930   46.3190 N   0  0  0  0  0  0  0  0  0  0  0  0
   58.5260   30.4730   47.4440 C   0  0  0  0  0  0  0  0  0  0  0  0
   58.3832   31.0091   48.3938 H   0  0  0  0  0  0  0  0  0  0  0  0
   57.8209   29.6305   47.3889 H   0  0  0  0  0  0  0  0  0  0  0  0
   59.5567   30.0927   47.3889 H   0  0  0  0  0  0  0  0  0  0  0  0
  1  2  1  0
  2  3  2  0
  3  4  1  0
  3  5  1  0
  5  6  1  0
  6  7  2  0
  6  8  1  0
  8  9  1  0
  9 10  1  0
  9 11  1  0
  9 12  1  0
 12 13  1  0
 12 14  1  0
 12 15  1  0
 15 16  1  0
 15 17  1  0
 17 18  1  0
 17 19  1  0
 17 20  1  0
 15 21  1  0
 21 22  1  0
 21 23  1  0
 21 24  1  0
 24 25  1  0
 24 26  1  0
  5 27  2  0
 27 28  1  0
 27 29  1  0
 29 30  1  0
 29 31  2  0
 31 32  1  0
 32 33  2  0
 33 34  1  0
 34 35  2  0
 35 36  1  0
 36 37  2  0
 37 38  1  0
 37 39  1  0
 36 40  1  0
 40 41  1  0
 40 42  2  0
 42 43  1  0
 42 44  1  0
 44 45  2  0
 44 46  1  0
 46 47  1  0
 47 48  1  0
 47 49  1  0
 47 50  1  0
 31  2  1  0
 39 33  1  0
 24  8  1  0
 46 35  1  0
M  CHG  2  15   1  39  -1
M  END
>  <UniqueID>  (21) 
20

>  <SMILES>  (21) 
Cn1c(=O)ccc2c[n-]/c(=N\c3ccc(C(=O)N4CC[NH+](C)CC4)cc3)nc21

>  <Energy>  (21) 
78.43675516604452

>  <Genealogy>  (21) 
Cn1c(=O)ccc2c[n-]c(=Nc3ccc(C(=O)N4CC[NH+](C)CC4)cc3)nc21 (protonated)
Cn1c(=O)ccc2c[n-]/c(=N\c3ccc(C(=O)N4CC[NH+](C)CC4)cc3)nc21 (cis-trans isomerization)
Cn1c(=O)ccc2c[n-]/c(=N\c3ccc(C(=O)N4CC[NH+](C)CC4)cc3)nc21 (3D coordinates assigned)
Cn1c(=O)ccc2c[n-]/c(=N\c3ccc(C(=O)N4CC[NH+](C)CC4)cc3)nc21 (nonaromatic ring conformer: 78.43675516604452 kcal/mol)

>  <smiles>  (21) 
CN1CCN(C(=O)c2ccc(N=c3nc4c(ccc(=O)n4C)c[nH]3)cc2)CC1

>  <score_type>  (21) 
oracle

>  <origin>  (21) 
adg

>  <m_score__min__energy>  (21) 
-8.2799999999999994

>  <m_primary>  (21) 
energy

$$$$
21:0
     RDKit          3D

 68 71  0  0  0  0  0  0  0  0999 V2000
   55.1420   24.8420   47.7270 H   0  0  0  0  0  0  0  0  0  0  0  0
   56.1570   24.8500   47.7110 O   0  0  0  0  0  0  0  0  0  0  0  0
   56.8760   25.8730   47.0900 C   0  0  0  0  0  0  0  0  0  0  0  0
   58.2540   25.9720   47.3150 C   0  0  0  0  0  0  0  0  0  0  0  0
   58.7548   25.2462   47.9726 H   0  0  0  0  0  0  0  0  0  0  0  0
   58.9970   26.9890   46.7080 C   0  0  0  0  0  0  0  0  0  0  0  0
   60.0783   27.0640   46.8956 H   0  0  0  0  0  0  0  0  0  0  0  0
   58.3680   27.9160   45.8590 C   0  0  0  0  0  0  0  0  0  0  0  0
   59.1660   29.0300   45.2270 C   0  0  0  0  0  0  0  0  0  0  0  0
   58.5963   29.9670   45.3137 H   0  0  0  0  0  0  0  0  0  0  0  0
   59.3418   28.7638   44.1743 H   0  0  0  0  0  0  0  0  0  0  0  0
   60.5340   29.2190   45.9000 C   0  0  0  0  0  0  0  0  0  0  0  0
   61.2880   29.4186   45.1243 H   0  0  0  0  0  0  0  0  0  0  0  0
   60.7721   28.2997   46.4552 H   0  0  0  0  0  0  0  0  0  0  0  0
   60.5230   30.3650   46.8750 C   0  0  0  0  0  0  0  0  0  0  0  0
   61.0580   30.2190   48.0080 O   0  0  0  0  0  0  0  0  0  0  0  0
   59.7980   31.5690   46.6050 N   0  0  0  0  0  0  0  0  0  0  0  0
   60.2830   32.7700   46.4540 C   0  0  0  0  0  0  0  0  0  0  0  0
   61.5720   33.1120   47.1100 C   0  0  0  0  0  0  0  0  0  0  0  0
   62.5760   33.3410   46.3820 O   0  0  0  0  0  0  0  0  0  0  0  0
   61.7420   33.0940   48.5450 N   0  0  0  0  0  0  0  0  0  0  0  0
   60.6870   33.5590   49.4540 C   0  0  0  0  0  0  0  0  0  0  0  0
   60.2518   34.4862   49.0529 H   0  0  0  0  0  0  0  0  0  0  0  0
   59.9232   32.7711   49.5304 H   0  0  0  0  0  0  0  0  0  0  0  0
   61.2410   33.8340   50.8600 C   0  0  0  0  0  0  0  0  0  0  0  0
   61.8956   34.7168   50.8141 H   0  0  0  0  0  0  0  0  0  0  0  0
   60.3836   33.9985   51.5292 H   0  0  0  0  0  0  0  0  0  0  0  0
   62.0190   32.6940   51.4000 N   0  0  0  0  0  0  0  0  0  0  0  0
   61.3030   31.8650   52.3950 C   0  0  0  0  0  0  0  0  0  0  0  0
   61.7711   30.8698   52.4169 H   0  0  0  0  0  0  0  0  0  0  0  0
   61.3776   32.3899   53.3588 H   0  0  0  0  0  0  0  0  0  0  0  0
   59.8230   31.6900   52.1040 C   0  0  0  0  0  0  0  0  0  0  0  0
   59.3860   30.7880   51.1160 C   0  0  0  0  0  0  0  0  0  0  0  0
   60.1241   30.2178   50.5328 H   0  0  0  0  0  0  0  0  0  0  0  0
   58.0210   30.6110   50.8700 C   0  0  0  0  0  0  0  0  0  0  0  0
   57.6886   29.8903   50.1084 H   0  0  0  0  0  0  0  0  0  0  0  0
   57.0790   31.3490   51.5910 C   0  0  0  0  0  0  0  0  0  0  0  0
   56.0047   31.1958   51.4111 H   0  0  0  0  0  0  0  0  0  0  0  0
   57.5030   32.2820   52.5410 C   0  0  0  0  0  0  0  0  0  0  0  0
   56.7616   32.8824   53.0885 H   0  0  0  0  0  0  0  0  0  0  0  0
   58.8670   32.4550   52.7980 C   0  0  0  0  0  0  0  0  0  0  0  0
   59.1940   33.1923   53.5459 H   0  0  0  0  0  0  0  0  0  0  0  0
   62.7950   31.9120   50.4090 C   0  0  0  0  0  0  0  0  0  0  0  0
   63.7684   31.6500   50.8493 H   0  0  0  0  0  0  0  0  0  0  0  0
   62.2116   31.0136   50.1588 H   0  0  0  0  0  0  0  0  0  0  0  0
   63.0350   32.6900   49.1120 C   0  0  0  0  0  0  0  0  0  0  0  0
   63.6386   33.5844   49.3258 H   0  0  0  0  0  0  0  0  0  0  0  0
   63.5711   32.0532   48.3929 H   0  0  0  0  0  0  0  0  0  0  0  0
   59.5880   33.8400   45.6160 C   0  0  0  0  0  0  0  0  0  0  0  0
   59.6754   34.8029   46.1407 H   0  0  0  0  0  0  0  0  0  0  0  0
   60.0830   33.8503   44.6337 H   0  0  0  0  0  0  0  0  0  0  0  0
   58.1240   33.5630   45.3690 C   0  0  0  0  0  0  0  0  0  0  0  0
   57.2760   34.2460   46.0110 O   0  0  0  0  0  0  0  0  0  0  0  0
   57.6560   32.5190   44.4170 C   0  0  0  0  0  0  0  0  0  0  0  0
   56.9270   31.3950   44.8590 C   0  0  0  0  0  0  0  0  0  0  0  0
   56.7450   31.2493   45.9340 H   0  0  0  0  0  0  0  0  0  0  0  0
   56.4350   30.4660   43.9390 C   0  0  0  0  0  0  0  0  0  0  0  0
   55.8547   29.6000   44.2902 H   0  0  0  0  0  0  0  0  0  0  0  0
   56.6790   30.6350   42.5710 C   0  0  0  0  0  0  0  0  0  0  0  0
   56.2986   29.8963   41.8501 H   0  0  0  0  0  0  0  0  0  0  0  0
   57.4040   31.7390   42.1200 C   0  0  0  0  0  0  0  0  0  0  0  0
   57.5875   31.8742   41.0439 H   0  0  0  0  0  0  0  0  0  0  0  0
   57.8970   32.6730   43.0360 C   0  0  0  0  0  0  0  0  0  0  0  0
   58.4778   33.5353   42.6766 H   0  0  0  0  0  0  0  0  0  0  0  0
   56.9850   27.8160   45.6340 C   0  0  0  0  0  0  0  0  0  0  0  0
   56.4845   28.5399   44.9741 H   0  0  0  0  0  0  0  0  0  0  0  0
   56.2400   26.8000   46.2450 C   0  0  0  0  0  0  0  0  0  0  0  0
   54.8700   26.7140   46.0050 O   0  0  0  0  0  0  0  0  0  0  0  0
  1  2  1  0
  2  3  1  0
  3  4  2  0
  4  5  1  0
  4  6  1  0
  6  7  1  0
  6  8  2  0
  8  9  1  0
  9 10  1  0
  9 11  1  0
  9 12  1  0
 12 13  1  0
 12 14  1  0
 12 15  1  0
 15 16  2  0
 15 17  1  0
 17 18  2  0
 18 19  1  0
 19 20  2  0
 19 21  1  0
 21 22  1  0
 22 23  1  0
 22 24  1  0
 22 25  1  0
 25 26  1  0
 25 27  1  0
 25 28  1  0
 28 29  1  0
 29 30  1  0
 29 31  1  0
 29 32  1  0
 32 33  2  0
 33 34  1  0
 33 35  1  0
 35 36  1  0
 35 37  2  0
 37 38  1  0
 37 39  1  0
 39 40  1  0
 39 41  2  0
 41 42  1  0
 28 43  1  0
 43 44  1  0
 43 45  1  0
 43 46  1  0
 46 47  1  0
 46 48  1  0
 18 49  1  0
 49 50  1  0
 49 51  1  0
 49 52  1  0
 52 53  2  0
 52 54  1  0
 54 55  2  0
 55 56  1  0
 55 57  1  0
 57 58  1  0
 57 59  2  0
 59 60  1  0
 59 61  1  0
 61 62  1  0
 61 63  2  0
 63 64  1  0
  8 65  1  0
 65 66  1  0
 65 67  2  0
 67 68  1  0
 67  3  1  0
 46 21  1  0
 63 54  1  0
 41 32  1  0
M  CHG  1  68  -1
M  END
>  <UniqueID>  (22) 
21

>  <SMILES>  (22) 
O=C(CCc1ccc(O)c([O-])c1)/N=C(\CC(=O)c1ccccc1)C(=O)N1CCN(Cc2ccccc2)CC1

>  <Energy>  (22) 
89.28565024956758

>  <Genealogy>  (22) 
O=C(CCc1ccc(O)c([O-])c1)N=C(CC(=O)c1ccccc1)C(=O)N1CCN(Cc2ccccc2)CC1 (protonated)
O=C(CCc1ccc(O)c([O-])c1)/N=C(\CC(=O)c1ccccc1)C(=O)N1CCN(Cc2ccccc2)CC1 (cis-trans isomerization)
O=C(CCc1ccc(O)c([O-])c1)/N=C(\CC(=O)c1ccccc1)C(=O)N1CCN(Cc2ccccc2)CC1 (3D coordinates assigned)
O=C(CCc1ccc(O)c([O-])c1)/N=C(\CC(=O)c1ccccc1)C(=O)N1CCN(Cc2ccccc2)CC1 (nonaromatic ring conformer: 89.28565024956758 kcal/mol)

>  <smiles>  (22) 
O=C(CCc1ccc(O)c(O)c1)N=C(CC(=O)c1ccccc1)C(=O)N1CCN(Cc2ccccc2)CC1

>  <score_type>  (22) 
oracle

>  <origin>  (22) 
adg

>  <m_score__min__energy>  (22) 
-13.82

>  <m_primary>  (22) 
energy

$$$$
22:0
     RDKit          3D

 54 57  0  0  0  0  0  0  0  0999 V2000
   56.4710   22.5050   47.1530 H   0  0  0  0  0  0  0  0  0  0  0  0
   57.4030   22.8230   46.8040 N   0  0  0  0  0  0  0  0  0  0  0  0
   57.7080   24.0790   46.7380 C   0  0  0  0  0  0  0  0  0  0  0  0
   58.9370   24.4660   46.3000 N   0  0  0  0  0  0  0  0  0  0  0  0
   59.2780   25.7800   46.2230 C   0  0  0  0  0  0  0  0  0  0  0  0
   60.2765   26.0723   45.8659 H   0  0  0  0  0  0  0  0  0  0  0  0
   58.3480   26.7620   46.6020 C   0  0  0  0  0  0  0  0  0  0  0  0
   58.6680   28.2090   46.5270 C   0  0  0  0  0  0  0  0  0  0  0  0
   58.6020   28.8910   45.2990 C   0  0  0  0  0  0  0  0  0  0  0  0
   58.3310   28.3426   44.3848 H   0  0  0  0  0  0  0  0  0  0  0  0
   58.8770   30.2560   45.2300 C   0  0  0  0  0  0  0  0  0  0  0  0
   58.8253   30.7762   44.2622 H   0  0  0  0  0  0  0  0  0  0  0  0
   59.2180   30.9670   46.3840 C   0  0  0  0  0  0  0  0  0  0  0  0
   59.4180   32.4260   46.3080 C   0  0  0  0  0  0  0  0  0  0  0  0
   58.3660   33.2130   45.8160 C   0  0  0  0  0  0  0  0  0  0  0  0
   57.4386   32.7319   45.4720 H   0  0  0  0  0  0  0  0  0  0  0  0
   58.4880   34.6020   45.7600 C   0  0  0  0  0  0  0  0  0  0  0  0
   57.6568   35.2120   45.3767 H   0  0  0  0  0  0  0  0  0  0  0  0
   59.6640   35.2170   46.1900 C   0  0  0  0  0  0  0  0  0  0  0  0
   59.7570   36.3123   46.1500 H   0  0  0  0  0  0  0  0  0  0  0  0
   60.7230   34.4450   46.6710 C   0  0  0  0  0  0  0  0  0  0  0  0
   61.6489   34.9369   47.0037 H   0  0  0  0  0  0  0  0  0  0  0  0
   60.6170   33.0450   46.7340 C   0  0  0  0  0  0  0  0  0  0  0  0
   61.9850   32.1050   47.3550 S   0  0  0  0  0  0  0  0  0  0  0  0
   63.2770   32.7930   47.0110 O   0  0  0  0  0  0  0  0  0  0  0  0
   61.9960   30.7400   46.7280 O   0  0  0  0  0  0  0  0  0  0  0  0
   61.8820   31.9570   49.0760 N   0  0  0  0  0  0  0  0  0  0  0  0
   61.6690   30.9580   49.2940 H   0  0  0  0  0  0  0  0  0  0  0  0
   61.0610   32.5230   49.3890 H   0  0  0  0  0  0  0  0  0  0  0  0
   59.2630   30.3100   47.6260 C   0  0  0  0  0  0  0  0  0  0  0  0
   59.5680   31.0540   48.7760 O   0  0  0  0  0  0  0  0  0  0  0  0
   58.7880   32.1570   49.2400 C   0  0  0  0  0  0  0  0  0  0  0  0
   59.4145   33.0607   49.2669 H   0  0  0  0  0  0  0  0  0  0  0  0
   57.9394   32.3122   48.5575 H   0  0  0  0  0  0  0  0  0  0  0  0
   58.2650   31.8710   50.6230 C   0  0  0  0  0  0  0  0  0  0  0  0
   58.3810   32.8330   51.6360 C   0  0  0  0  0  0  0  0  0  0  0  0
   58.9116   33.7762   51.4392 H   0  0  0  0  0  0  0  0  0  0  0  0
   57.8240   32.5960   52.8950 C   0  0  0  0  0  0  0  0  0  0  0  0
   57.9292   33.3469   53.6919 H   0  0  0  0  0  0  0  0  0  0  0  0
   57.1340   31.4080   53.1440 C   0  0  0  0  0  0  0  0  0  0  0  0
   56.7006   31.2274   54.1388 H   0  0  0  0  0  0  0  0  0  0  0  0
   56.9890   30.4450   52.1390 C   0  0  0  0  0  0  0  0  0  0  0  0
   56.2580   29.2820   52.4320 O   0  0  0  0  0  0  0  0  0  0  0  0
   54.8780   29.2470   52.7920 C   0  0  0  0  0  0  0  0  0  0  0  0
   54.1090   29.8240   51.7970 F   0  0  0  0  0  0  0  0  0  0  0  0
   54.6790   29.9140   53.9880 F   0  0  0  0  0  0  0  0  0  0  0  0
   54.4880   27.9310   52.9470 F   0  0  0  0  0  0  0  0  0  0  0  0
   57.5680   30.6790   50.8760 C   0  0  0  0  0  0  0  0  0  0  0  0
   57.4733   29.9226   50.0829 H   0  0  0  0  0  0  0  0  0  0  0  0
   59.0100   28.9260   47.6910 C   0  0  0  0  0  0  0  0  0  0  0  0
   59.1530   28.2710   48.8690 F   0  0  0  0  0  0  0  0  0  0  0  0
   57.1220   26.3640   47.0420 N   0  0  0  0  0  0  0  0  0  0  0  0
   56.7810   25.0520   47.1180 C   0  0  0  0  0  0  0  0  0  0  0  0
   55.7832   24.7580   47.4758 H   0  0  0  0  0  0  0  0  0  0  0  0
  1  2  1  0
  2  3  2  0
  3  4  1  0
  4  5  1  0
  5  6  1  0
  5  7  2  0
  7  8  1  0
  8  9  2  0
  9 10  1  0
  9 11  1  0
 11 12  1  0
 11 13  2  0
 13 14  1  0
 14 15  2  0
 15 16  1  0
 15 17  1  0
 17 18  1  0
 17 19  2  0
 19 20  1  0
 19 21  1  0
 21 22  1  0
 21 23  2  0
 23 24  1  0
 24 25  2  0
 24 26  2  0
 24 27  1  0
 27 28  1  0
 27 29  1  0
 13 30  1  0
 30 31  1  0
 31 32  1  0
 32 33  1  0
 32 34  1  0
 32 35  1  0
 35 36  2  0
 36 37  1  0
 36 38  1  0
 38 39  1  0
 38 40  2  0
 40 41  1  0
 40 42  1  0
 42 43  1  0
 43 44  1  0
 44 45  1  0
 44 46  1  0
 44 47  1  0
 42 48  2  0
 48 49  1  0
 30 50  2  0
 50 51  1  0
  7 52  1  0
 52 53  2  0
 53 54  1  0
 53  3  1  0
 50  8  1  0
 23 14  1  0
 48 35  1  0
M  CHG  1   4  -1
M  END
>  <UniqueID>  (23) 
22

>  <SMILES>  (23) 
[H]/N=c1/cnc(-c2ccc(-c3ccccc3S(N)(=O)=O)c(OCc3cccc(OC(F)(F)F)c3)c2F)c[n-]1

>  <Energy>  (23) 
73.36871515785587

>  <Genealogy>  (23) 
N=c1cnc(-c2ccc(-c3ccccc3S(N)(=O)=O)c(OCc3cccc(OC(F)(F)F)c3)c2F)c[n-]1 (protonated)
[H]/N=c1/cnc(-c2ccc(-c3ccccc3S(N)(=O)=O)c(OCc3cccc(OC(F)(F)F)c3)c2F)c[n-]1 (cis-trans isomerization)
[H]/N=c1/cnc(-c2ccc(-c3ccccc3S(N)(=O)=O)c(OCc3cccc(OC(F)(F)F)c3)c2F)c[n-]1 (3D coordinates assigned)
[H]/N=c1/cnc(-c2ccc(-c3ccccc3S(N)(=O)=O)c(OCc3cccc(OC(F)(F)F)c3)c2F)c[n-]1 (optimized conformer: 73.36871515785587 kcal/mol)

>  <smiles>  (23) 
N=c1cnc(-c2ccc(-c3ccccc3S(N)(=O)=O)c(OCc3cccc(OC(F)(F)F)c3)c2F)c[nH]1

>  <score_type>  (23) 
oracle

>  <origin>  (23) 
adg

>  <m_score__min__energy>  (23) 
-10.449999999999999

>  <m_primary>  (23) 
energy

$$$$
23:0
     RDKit          3D

 35 37  0  0  1  0  0  0  0  0999 V2000
   55.9220   25.5880   46.3740 O   0  0  0  0  0  0  0  0  0  0  0  0
   56.6200   26.4450   45.7780 C   0  0  0  0  0  0  0  0  0  0  0  0
   57.8450   26.1120   45.3310 N   0  0  0  0  0  0  0  0  0  0  0  0
   58.5740   27.0470   44.6960 C   0  0  0  0  0  0  0  0  0  0  0  0
   58.0720   28.3190   44.5100 C   0  0  0  0  0  0  0  0  0  0  0  0
   56.8160   28.6370   44.9760 C   0  0  0  0  0  0  0  0  0  0  0  0
   56.2830   29.8030   44.8380 N   0  0  0  0  0  0  0  0  0  0  0  0
   56.9310   30.8300   44.0630 C   0  0  0  0  0  0  0  0  0  0  0  0
   56.8330   30.7240   42.6920 C   0  0  0  0  0  0  0  0  0  0  0  0
   57.4170   31.6560   41.8680 C   0  0  0  0  0  0  0  0  0  0  0  0
   58.0980   32.6880   42.4550 C   0  0  0  0  0  0  0  0  0  0  0  0
   58.1920   32.7890   43.8330 C   0  0  0  0  0  0  0  0  0  0  0  0
   57.6130   31.8620   44.6870 C   0  0  0  0  0  0  0  0  0  0  0  0
   57.6890   31.9000   46.0800 N   0  0  0  0  0  0  0  0  0  0  0  0
   58.4110   32.7990   46.8870 C   0  0  0  0  0  0  0  0  0  0  0  0
   58.9680   32.3160   48.0690 C   0  0  0  0  0  0  0  0  0  0  0  0
   59.7120   33.1280   48.9030 C   0  0  0  0  0  0  0  0  0  0  0  0
   59.9310   34.4480   48.5960 C   0  0  0  0  0  0  0  0  0  0  0  0
   59.3920   34.9530   47.4330 C   0  0  0  0  0  0  0  0  0  0  0  0
   58.6440   34.1200   46.6010 C   0  0  0  0  0  0  0  0  0  0  0  0
   56.0980   27.6760   45.6140 N   0  0  0  0  0  0  0  0  0  0  0  0
   58.1980   25.1430   45.4860 H   0  0  0  0  0  0  0  0  0  0  0  0
   59.5776   26.7960   44.3222 H   0  0  0  0  0  0  0  0  0  0  0  0
   58.6747   29.0781   43.9899 H   0  0  0  0  0  0  0  0  0  0  0  0
   56.2796   29.8816   42.2514 H   0  0  0  0  0  0  0  0  0  0  0  0
   57.3397   31.5753   40.7737 H   0  0  0  0  0  0  0  0  0  0  0  0
   58.5781   33.4491   41.8224 H   0  0  0  0  0  0  0  0  0  0  0  0
   58.7459   33.6350   44.2659 H   0  0  0  0  0  0  0  0  0  0  0  0
   57.1350   31.1590   46.6120 H   0  0  0  0  0  0  0  0  0  0  0  0
   58.8116   31.2627   48.3449 H   0  0  0  0  0  0  0  0  0  0  0  0
   60.1358   32.7101   49.8281 H   0  0  0  0  0  0  0  0  0  0  0  0
   60.5244   35.0890   49.2646 H   0  0  0  0  0  0  0  0  0  0  0  0
   59.5506   36.0072   47.1621 H   0  0  0  0  0  0  0  0  0  0  0  0
   58.2230   34.5406   45.6759 H   0  0  0  0  0  0  0  0  0  0  0  0
   55.1470   27.8730   45.9810 H   0  0  0  0  0  0  0  0  0  0  0  0
  1  2  2  0
  2  3  1  0
  3  4  1  0
  4  5  2  0
  5  6  1  0
  6  7  2  0
  7  8  1  0
  8  9  2  0
  9 10  1  0
 10 11  2  0
 11 12  1  0
 12 13  2  0
 13 14  1  0
 14 15  1  0
 15 16  2  0
 16 17  1  0
 17 18  2  0
 18 19  1  0
 19 20  2  0
  6 21  1  0
 21  2  1  0
 13  8  1  0
 20 15  1  0
  3 22  1  0
  4 23  1  0
  5 24  1  0
  9 25  1  0
 10 26  1  0
 11 27  1  0
 12 28  1  0
 14 29  1  0
 16 30  1  0
 17 31  1  0
 18 32  1  0
 19 33  1  0
 20 34  1  0
 21 35  1  0
M  END
>  <smiles>  (24) 
O=c1[nH]ccc(=Nc2ccccc2Nc2ccccc2)[nH]1

>  <score_type>  (24) 
oracle

>  <origin>  (24) 
adg

>  <m_score__min__energy>  (24) 
-8.3699999999999992

>  <m_primary>  (24) 
energy

$$$$
24:0
     RDKit          3D

 60 62  0  0  0  0  0  0  0  0999 V2000
   58.3020   22.5890   44.9710 C   0  0  0  0  0  0  0  0  0  0  0  0
   58.0890   22.7750   46.3670 O   0  0  0  0  0  0  0  0  0  0  0  0
   56.9280   22.3880   47.0540 C   0  0  0  0  0  0  0  0  0  0  0  0
   56.6180   21.0340   47.2900 C   0  0  0  0  0  0  0  0  0  0  0  0
   55.4620   20.6880   47.9910 C   0  0  0  0  0  0  0  0  0  0  0  0
   54.5940   21.6820   48.4420 C   0  0  0  0  0  0  0  0  0  0  0  0
   54.8760   23.0250   48.1890 C   0  0  0  0  0  0  0  0  0  0  0  0
   56.0580   23.3890   47.5180 C   0  0  0  0  0  0  0  0  0  0  0  0
   56.4190   24.7630   47.3130 N   0  0  0  0  0  0  0  0  0  0  0  0
   56.1090   25.6870   45.8800 S   0  0  0  0  0  0  0  0  0  0  0  0
   54.7600   26.3390   46.0060 O   0  0  0  0  0  0  0  0  0  0  0  0
   56.0980   24.7700   44.6910 O   0  0  0  0  0  0  0  0  0  0  0  0
   57.3690   26.8960   45.6520 C   0  0  0  0  0  0  0  0  0  0  0  0
   58.0430   26.9770   44.4270 C   0  0  0  0  0  0  0  0  0  0  0  0
   59.1020   27.8770   44.2660 C   0  0  0  0  0  0  0  0  0  0  0  0
   59.5010   28.6870   45.3320 C   0  0  0  0  0  0  0  0  0  0  0  0
   58.8370   28.6060   46.5670 C   0  0  0  0  0  0  0  0  0  0  0  0
   59.2640   29.4360   47.7080 C   0  0  0  0  0  0  0  0  0  0  0  0
   58.5670   29.4350   48.7570 O   0  0  0  0  0  0  0  0  0  0  0  0
   60.4660   30.2160   47.6750 N   0  0  0  0  0  0  0  0  0  0  0  0
   61.0940   30.8550   48.8290 C   0  0  0  0  0  0  0  0  0  0  0  0
   60.2940   32.0750   49.2920 C   0  0  0  0  0  0  0  0  0  0  0  0
   60.1140   33.2870   47.9290 S   0  0  0  0  0  0  0  0  0  0  0  0
   58.3780   32.8870   47.4990 C   0  0  0  0  0  0  0  0  0  0  0  0
   58.1730   32.6680   46.0180 C   0  0  0  0  0  0  0  0  0  0  0  0
   57.5030   31.5680   45.5810 N   0  0  0  0  0  0  0  0  0  0  0  0
   57.2860   31.3220   44.2620 C   0  0  0  0  0  0  0  0  0  0  0  0
   56.5190   30.0940   43.8660 C   0  0  0  0  0  0  0  0  0  0  0  0
   57.7700   32.2400   43.3110 C   0  0  0  0  0  0  0  0  0  0  0  0
   57.6180   32.0130   41.8370 C   0  0  0  0  0  0  0  0  0  0  0  0
   58.4090   33.3580   43.7460 N   0  0  0  0  0  0  0  0  0  0  0  0
   58.6120   33.6120   45.0660 C   0  0  0  0  0  0  0  0  0  0  0  0
   59.2550   34.9070   45.4630 C   0  0  0  0  0  0  0  0  0  0  0  0
   57.7540   27.7300   46.7110 C   0  0  0  0  0  0  0  0  0  0  0  0
   59.1224   21.8725   44.8175 H   0  0  0  0  0  0  0  0  0  0  0  0
   57.3833   22.1989   44.5087 H   0  0  0  0  0  0  0  0  0  0  0  0
   58.5648   23.5519   44.5087 H   0  0  0  0  0  0  0  0  0  0  0  0
   57.2903   20.2459   46.9200 H   0  0  0  0  0  0  0  0  0  0  0  0
   55.2351   19.6298   48.1881 H   0  0  0  0  0  0  0  0  0  0  0  0
   53.6856   21.4069   48.9980 H   0  0  0  0  0  0  0  0  0  0  0  0
   54.1706   23.8032   48.5158 H   0  0  0  0  0  0  0  0  0  0  0  0
   57.7391   26.3316   43.5897 H   0  0  0  0  0  0  0  0  0  0  0  0
   59.6212   27.9469   43.2987 H   0  0  0  0  0  0  0  0  0  0  0  0
   60.3373   29.3900   45.2038 H   0  0  0  0  0  0  0  0  0  0  0  0
   61.1506   30.1294   49.6538 H   0  0  0  0  0  0  0  0  0  0  0  0
   62.1000   31.1899   48.5360 H   0  0  0  0  0  0  0  0  0  0  0  0
   59.2958   31.7491   49.6196 H   0  0  0  0  0  0  0  0  0  0  0  0
   60.8307   32.5551   50.1235 H   0  0  0  0  0  0  0  0  0  0  0  0
   58.0868   31.9703   48.0327 H   0  0  0  0  0  0  0  0  0  0  0  0
   57.7590   33.7473   47.7936 H   0  0  0  0  0  0  0  0  0  0  0  0
   56.1867   29.5620   44.7696 H   0  0  0  0  0  0  0  0  0  0  0  0
   55.6423   30.3858   43.2691 H   0  0  0  0  0  0  0  0  0  0  0  0
   57.1659   29.4343   43.2691 H   0  0  0  0  0  0  0  0  0  0  0  0
   57.0135   31.1102   41.6655 H   0  0  0  0  0  0  0  0  0  0  0  0
   57.1182   32.8809   41.3820 H   0  0  0  0  0  0  0  0  0  0  0  0
   58.6108   31.8814   41.3820 H   0  0  0  0  0  0  0  0  0  0  0  0
   59.2901   34.9777   46.5602 H   0  0  0  0  0  0  0  0  0  0  0  0
   60.2777   34.9472   45.0600 H   0  0  0  0  0  0  0  0  0  0  0  0
   58.6689   35.7461   45.0600 H   0  0  0  0  0  0  0  0  0  0  0  0
   57.2016   27.6961   47.6616 H   0  0  0  0  0  0  0  0  0  0  0  0
  1  2  1  0
  2  3  1  0
  3  4  2  0
  4  5  1  0
  5  6  2  0
  6  7  1  0
  7  8  2  0
  8  9  1  0
  9 10  1  0
 10 11  2  0
 10 12  2  0
 10 13  1  0
 13 14  2  0
 14 15  1  0
 15 16  2  0
 16 17  1  0
 17 18  1  0
 18 19  2  0
 18 20  1  0
 20 21  1  0
 21 22  1  0
 22 23  1  0
 23 24  1  0
 24 25  1  0
 25 26  2  0
 26 27  1  0
 27 28  1  0
 27 29  2  0
 29 30  1  0
 29 31  1  0
 31 32  2  0
 32 33  1  0
 17 34  2  0
  8  3  1  0
 34 13  1  0
 32 25  1  0
  1 35  1  0
  1 36  1  0
  1 37  1  0
  4 38  1  0
  5 39  1  0
  6 40  1  0
  7 41  1  0
 14 42  1  0
 15 43  1  0
 16 44  1  0
 21 45  1  0
 21 46  1  0
 22 47  1  0
 22 48  1  0
 24 49  1  0
 24 50  1  0
 28 51  1  0
 28 52  1  0
 28 53  1  0
 30 54  1  0
 30 55  1  0
 30 56  1  0
 33 57  1  0
 33 58  1  0
 33 59  1  0
 34 60  1  0
M  CHG  2   9  -1  20  -1
M  END
>  <UniqueID>  (25) 
23

>  <SMILES>  (25) 
COc1ccccc1[N-]S(=O)(=O)c1cccc(C(=O)[N-]CCSCc2nc(C)c(C)nc2C)c1

>  <Energy>  (25) 
57.450908746478866

>  <Genealogy>  (25) 
COc1ccccc1[N-]S(=O)(=O)c1cccc(C(=O)[N-]CCSCc2nc(C)c(C)nc2C)c1 (protonated)
COc1ccccc1[N-]S(=O)(=O)c1cccc(C(=O)[N-]CCSCc2nc(C)c(C)nc2C)c1 (3D coordinates assigned)
COc1ccccc1[N-]S(=O)(=O)c1cccc(C(=O)[N-]CCSCc2nc(C)c(C)nc2C)c1 (optimized conformer: 57.450908746478866 kcal/mol)

>  <smiles>  (25) 
COc1ccccc1NS(=O)(=O)c1cccc(C(=O)NCCSCc2nc(C)c(C)nc2C)c1

>  <score_type>  (25) 
oracle

>  <origin>  (25) 
adg

>  <m_score__min__energy>  (25) 
-12.960000000000001

>  <m_primary>  (25) 
energy

$$$$
25:0
     RDKit          3D

 41 43  0  0  0  0  0  0  0  0999 V2000
   56.1770   30.0650   43.0250 O   0  0  0  0  0  0  0  0  0  0  0  0
   56.5500   30.0540   44.2280 C   0  0  0  0  0  0  0  0  0  0  0  0
   56.1190   28.9740   45.0700 N   0  0  0  0  0  0  0  0  0  0  0  0
   56.8540   27.9780   45.4750 C   0  0  0  0  0  0  0  0  0  0  0  0
   58.2160   28.0420   45.4250 N   0  0  0  0  0  0  0  0  0  0  0  0
   59.0030   27.0100   45.8290 C   0  0  0  0  0  0  0  0  0  0  0  0
   58.4210   25.8340   46.3060 C   0  0  0  0  0  0  0  0  0  0  0  0
   57.0300   25.7330   46.3590 C   0  0  0  0  0  0  0  0  0  0  0  0
   56.2380   26.8050   45.9400 C   0  0  0  0  0  0  0  0  0  0  0  0
   54.8520   26.7020   45.9890 O   0  0  0  0  0  0  0  0  0  0  0  0
   57.3600   31.1840   44.7430 C   0  0  0  0  0  0  0  0  0  0  0  0
   57.7710   32.2220   43.8880 C   0  0  0  0  0  0  0  0  0  0  0  0
   58.5670   33.2640   44.3720 C   0  0  0  0  0  0  0  0  0  0  0  0
   58.9740   33.2760   45.7130 C   0  0  0  0  0  0  0  0  0  0  0  0
   60.0540   34.5290   46.3170 S   0  0  0  0  0  0  0  0  0  0  0  0
   59.7190   35.8230   45.6320 O   0  0  0  0  0  0  0  0  0  0  0  0
   61.4860   34.1820   46.0120 O   0  0  0  0  0  0  0  0  0  0  0  0
   59.8490   34.7260   48.0350 N   0  0  0  0  0  0  0  0  0  0  0  0
   60.1710   33.4940   48.7610 C   0  0  0  0  0  0  0  0  0  0  0  0
   61.6600   33.3170   48.8970 C   0  0  0  0  0  0  0  0  0  0  0  0
   62.3720   34.0450   49.8660 C   0  0  0  0  0  0  0  0  0  0  0  0
   63.7460   33.8460   50.0250 C   0  0  0  0  0  0  0  0  0  0  0  0
   64.4220   32.9300   49.2150 C   0  0  0  0  0  0  0  0  0  0  0  0
   65.7530   32.7300   49.3800 F   0  0  0  0  0  0  0  0  0  0  0  0
   63.7250   32.2160   48.2360 C   0  0  0  0  0  0  0  0  0  0  0  0
   62.3490   32.4120   48.0720 C   0  0  0  0  0  0  0  0  0  0  0  0
   58.5630   32.2480   46.5690 C   0  0  0  0  0  0  0  0  0  0  0  0
   57.7680   31.2040   46.0870 C   0  0  0  0  0  0  0  0  0  0  0  0
   60.0981   27.1014   45.7801 H   0  0  0  0  0  0  0  0  0  0  0  0
   59.0521   24.9959   46.6366 H   0  0  0  0  0  0  0  0  0  0  0  0
   56.5582   24.8112   46.7299 H   0  0  0  0  0  0  0  0  0  0  0  0
   57.4641   32.2139   42.8317 H   0  0  0  0  0  0  0  0  0  0  0  0
   58.8750   34.0772   43.6983 H   0  0  0  0  0  0  0  0  0  0  0  0
   59.7219   33.5405   49.7641 H   0  0  0  0  0  0  0  0  0  0  0  0
   59.7684   32.6406   48.1957 H   0  0  0  0  0  0  0  0  0  0  0  0
   61.8462   34.7733   50.5009 H   0  0  0  0  0  0  0  0  0  0  0  0
   64.2971   34.4123   50.7903 H   0  0  0  0  0  0  0  0  0  0  0  0
   64.2584   31.4995   47.5940 H   0  0  0  0  0  0  0  0  0  0  0  0
   61.8050   31.8556   47.2945 H   0  0  0  0  0  0  0  0  0  0  0  0
   58.8669   32.2615   47.6261 H   0  0  0  0  0  0  0  0  0  0  0  0
   57.4602   30.3935   46.7641 H   0  0  0  0  0  0  0  0  0  0  0  0
  1  2  2  0
  2  3  1  0
  3  4  2  3
  4  5  1  0
  5  6  1  0
  6  7  2  0
  7  8  1  0
  8  9  2  0
  9 10  1  0
  2 11  1  0
 11 12  2  0
 12 13  1  0
 13 14  2  0
 14 15  1  0
 15 16  2  0
 15 17  2  0
 15 18  1  0
 18 19  1  0
 19 20  1  0
 20 21  2  0
 21 22  1  0
 22 23  2  0
 23 24  1  0
 23 25  1  0
 25 26  2  0
 14 27  1  0
 27 28  2  0
  9  4  1  0
 28 11  1  0
 26 20  1  0
  6 29  1  0
  7 30  1  0
  8 31  1  0
 12 32  1  0
 13 33  1  0
 19 34  1  0
 19 35  1  0
 21 36  1  0
 22 37  1  0
 25 38  1  0
 26 39  1  0
 27 40  1  0
 28 41  1  0
M  CHG  3   5  -1  10  -1  18  -1
M  END
>  <UniqueID>  (26) 
24

>  <SMILES>  (26) 
O=C(N=c1[n-]cccc1[O-])c1ccc(S(=O)(=O)[N-]Cc2ccc(F)cc2)cc1

>  <Energy>  (26) 
48.48492186520194

>  <Genealogy>  (26) 
O=C(N=c1[n-]cccc1[O-])c1ccc(S(=O)(=O)[N-]Cc2ccc(F)cc2)cc1 (protonated)
O=C(N=c1[n-]cccc1[O-])c1ccc(S(=O)(=O)[N-]Cc2ccc(F)cc2)cc1 (3D coordinates assigned)
O=C(N=c1[n-]cccc1[O-])c1ccc(S(=O)(=O)[N-]Cc2ccc(F)cc2)cc1 (optimized conformer: 48.48492186520194 kcal/mol)

>  <smiles>  (26) 
O=C(N=c1[nH]cccc1O)c1ccc(S(=O)(=O)NCc2ccc(F)cc2)cc1

>  <score_type>  (26) 
oracle

>  <origin>  (26) 
adg

>  <m_score__min__energy>  (26) 
-15.210000000000001

>  <m_primary>  (26) 
energy

$$$$
26:0
     RDKit          3D

 49 51  0  0  0  0  0  0  0  0999 V2000
   63.7360   32.9890   47.0630 C   0  0  0  0  0  0  0  0  0  0  0  0
   62.7530   33.8220   46.4550 O   0  0  0  0  0  0  0  0  0  0  0  0
   61.3900   33.8270   46.7970 C   0  0  0  0  0  0  0  0  0  0  0  0
   60.3800   33.5190   45.8630 C   0  0  0  0  0  0  0  0  0  0  0  0
   59.0320   33.5240   46.2480 C   0  0  0  0  0  0  0  0  0  0  0  0
   57.7870   33.0830   45.0830 S   0  0  0  0  0  0  0  0  0  0  0  0
   56.6880   34.1070   45.1470 O   0  0  0  0  0  0  0  0  0  0  0  0
   58.3580   33.0630   43.6920 O   0  0  0  0  0  0  0  0  0  0  0  0
   57.1270   31.5120   45.4390 N   0  0  0  0  0  0  0  0  0  0  0  0
   57.8910   30.3050   45.5890 C   0  0  0  0  0  0  0  0  0  0  0  0
   59.2950   30.2870   45.4910 C   0  0  0  0  0  0  0  0  0  0  0  0
   59.9950   29.0780   45.6110 C   0  0  0  0  0  0  0  0  0  0  0  0
   59.3060   27.8780   45.8160 C   0  0  0  0  0  0  0  0  0  0  0  0
   57.9090   27.8800   45.9060 C   0  0  0  0  0  0  0  0  0  0  0  0
   57.0300   26.3600   46.0720 S   0  0  0  0  0  0  0  0  0  0  0  0
   55.3270   26.6690   45.9960 N   0  0  0  0  0  0  0  0  0  0  0  0
   57.4170   25.4110   44.9650 O   0  0  0  0  0  0  0  0  0  0  0  0
   57.3640   25.7240   47.3950 O   0  0  0  0  0  0  0  0  0  0  0  0
   57.2090   29.0970   45.8030 C   0  0  0  0  0  0  0  0  0  0  0  0
   58.6830   33.8530   47.5630 C   0  0  0  0  0  0  0  0  0  0  0  0
   59.6770   34.1540   48.4990 C   0  0  0  0  0  0  0  0  0  0  0  0
   59.3020   34.4180   49.8520 N   0  0  0  0  0  0  0  0  0  0  0  0
   59.8230   33.3670   51.1250 S   0  0  0  0  0  0  0  0  0  0  0  0
   61.1960   33.7880   51.5710 O   0  0  0  0  0  0  0  0  0  0  0  0
   58.8710   33.4890   52.2810 O   0  0  0  0  0  0  0  0  0  0  0  0
   59.8660   31.6960   50.5630 C   0  0  0  0  0  0  0  0  0  0  0  0
   60.9670   30.8800   50.8640 C   0  0  0  0  0  0  0  0  0  0  0  0
   61.0400   29.5730   50.3640 C   0  0  0  0  0  0  0  0  0  0  0  0
   62.1080   28.7900   50.6580 F   0  0  0  0  0  0  0  0  0  0  0  0
   60.0170   29.0800   49.5520 C   0  0  0  0  0  0  0  0  0  0  0  0
   60.1110   27.8340   49.0230 F   0  0  0  0  0  0  0  0  0  0  0  0
   58.9030   29.8770   49.2710 C   0  0  0  0  0  0  0  0  0  0  0  0
   58.8230   31.1820   49.7730 C   0  0  0  0  0  0  0  0  0  0  0  0
   57.7500   31.9540   49.4510 F   0  0  0  0  0  0  0  0  0  0  0  0
   61.0330   34.1440   48.1170 C   0  0  0  0  0  0  0  0  0  0  0  0
   62.0430   34.4400   49.0380 O   0  0  0  0  0  0  0  0  0  0  0  0
   63.6513   33.0607   48.1574 H   0  0  0  0  0  0  0  0  0  0  0  0
   63.5772   31.9463   46.7505 H   0  0  0  0  0  0  0  0  0  0  0  0
   64.7385   33.3168   46.7505 H   0  0  0  0  0  0  0  0  0  0  0  0
   60.6513   33.2732   44.8257 H   0  0  0  0  0  0  0  0  0  0  0  0
   59.8448   31.2242   45.3198 H   0  0  0  0  0  0  0  0  0  0  0  0
   61.0929   29.0732   45.5435 H   0  0  0  0  0  0  0  0  0  0  0  0
   59.8618   26.9330   45.9065 H   0  0  0  0  0  0  0  0  0  0  0  0
   55.1420   27.0840   45.0510 H   0  0  0  0  0  0  0  0  0  0  0  0
   56.1126   29.1013   45.8914 H   0  0  0  0  0  0  0  0  0  0  0  0
   57.6243   33.8748   47.8607 H   0  0  0  0  0  0  0  0  0  0  0  0
   61.7784   31.2689   51.4968 H   0  0  0  0  0  0  0  0  0  0  0  0
   58.0857   29.4772   48.6528 H   0  0  0  0  0  0  0  0  0  0  0  0
   61.8560   34.5750   50.0240 H   0  0  0  0  0  0  0  0  0  0  0  0
  1  2  1  0
  2  3  1  0
  3  4  2  0
  4  5  1  0
  5  6  1  0
  6  7  2  0
  6  8  2  0
  6  9  1  0
  9 10  1  0
 10 11  2  0
 11 12  1  0
 12 13  2  0
 13 14  1  0
 14 15  1  0
 15 16  1  0
 15 17  2  0
 15 18  2  0
 14 19  2  0
  5 20  2  0
 20 21  1  0
 21 22  1  0
 22 23  1  0
 23 24  2  0
 23 25  2  0
 23 26  1  0
 26 27  2  0
 27 28  1  0
 28 29  1  0
 28 30  2  0
 30 31  1  0
 30 32  1  0
 32 33  2  0
 33 34  1  0
 21 35  2  0
 35 36  1  0
 35  3  1  0
 19 10  1  0
 33 26  1  0
  1 37  1  0
  1 38  1  0
  1 39  1  0
  4 40  1  0
 11 41  1  0
 12 42  1  0
 13 43  1  0
 16 44  1  0
 19 45  1  0
 20 46  1  0
 27 47  1  0
 32 48  1  0
 36 49  1  0
M  CHG  3   9  -1  16  -1  22  -1
M  END
>  <UniqueID>  (27) 
25

>  <SMILES>  (27) 
COc1cc(S(=O)(=O)[N-]c2cccc(S([NH-])(=O)=O)c2)cc([N-]S(=O)(=O)c2cc(F)c(F)cc2F)c1O

>  <Energy>  (27) 
60.36572041993064

>  <Genealogy>  (27) 
COc1cc(S(=O)(=O)[N-]c2cccc(S([NH-])(=O)=O)c2)cc([N-]S(=O)(=O)c2cc(F)c(F)cc2F)c1O (protonated)
COc1cc(S(=O)(=O)[N-]c2cccc(S([NH-])(=O)=O)c2)cc([N-]S(=O)(=O)c2cc(F)c(F)cc2F)c1O (3D coordinates assigned)
COc1cc(S(=O)(=O)[N-]c2cccc(S([NH-])(=O)=O)c2)cc([N-]S(=O)(=O)c2cc(F)c(F)cc2F)c1O (optimized conformer: 60.36572041993064 kcal/mol)

>  <smiles>  (27) 
COc1cc(S(=O)(=O)Nc2cccc(S(N)(=O)=O)c2)cc(NS(=O)(=O)c2cc(F)c(F)cc2F)c1O

>  <score_type>  (27) 
oracle

>  <origin>  (27) 
adg

>  <m_score__min__energy>  (27) 
-13.43

>  <m_primary>  (27) 
energy

$$$$
27:0
     RDKit          3D

 63 66  0  0  0  0  0  0  0  0999 V2000
   66.3520   33.4210   50.5430 C   0  0  0  0  0  0  0  0  0  0  0  0
   65.4500   32.2590   50.1350 C   0  0  0  0  0  0  0  0  0  0  0  0
   64.0270   32.6700   50.1460 N   0  0  0  0  0  0  0  0  0  0  0  0
   63.3420   32.6200   51.3390 C   0  0  0  0  0  0  0  0  0  0  0  0
   63.8980   32.1890   52.3880 O   0  0  0  0  0  0  0  0  0  0  0  0
   62.0200   33.0410   51.4240 C   0  0  0  0  0  0  0  0  0  0  0  0
   61.3560   33.5100   50.2990 C   0  0  0  0  0  0  0  0  0  0  0  0
   59.6530   34.0740   50.5040 S   0  0  0  0  0  0  0  0  0  0  0  0
   58.9040   32.4160   50.3020 C   0  0  0  0  0  0  0  0  0  0  0  0
   58.7470   32.0710   48.8530 C   0  0  0  0  0  0  0  0  0  0  0  0
   58.8420   30.8670   48.4920 O   0  0  0  0  0  0  0  0  0  0  0  0
   58.5600   33.1140   47.8840 N   0  0  0  0  0  0  0  0  0  0  0  0
   58.3730   32.8810   46.4780 C   0  0  0  0  0  0  0  0  0  0  0  0
   58.6460   33.9090   45.5700 C   0  0  0  0  0  0  0  0  0  0  0  0
   58.4520   33.7170   44.2020 C   0  0  0  0  0  0  0  0  0  0  0  0
   57.9610   32.4960   43.7120 C   0  0  0  0  0  0  0  0  0  0  0  0
   57.7710   32.3430   42.2260 C   0  0  0  0  0  0  0  0  0  0  0  0
   57.6860   31.4440   44.6240 C   0  0  0  0  0  0  0  0  0  0  0  0
   57.0290   29.8760   44.1190 S   0  0  0  0  0  0  0  0  0  0  0  0
   55.7600   29.5550   44.8580 O   0  0  0  0  0  0  0  0  0  0  0  0
   56.6990   29.9140   42.6540 O   0  0  0  0  0  0  0  0  0  0  0  0
   58.2260   28.6500   44.4130 N   0  0  0  0  0  0  0  0  0  0  0  0
   59.5450   29.0310   44.9200 C   0  0  0  0  0  0  0  0  0  0  0  0
   57.8550   27.2660   44.3580 C   0  0  0  0  0  0  0  0  0  0  0  0
   57.6190   26.5520   45.5440 C   0  0  0  0  0  0  0  0  0  0  0  0
   57.2950   25.1910   45.4930 C   0  0  0  0  0  0  0  0  0  0  0  0
   57.2100   24.5360   44.2590 C   0  0  0  0  0  0  0  0  0  0  0  0
   57.4450   25.2430   43.0730 C   0  0  0  0  0  0  0  0  0  0  0  0
   57.7640   26.6040   43.1210 C   0  0  0  0  0  0  0  0  0  0  0  0
   57.8750   31.6600   46.0000 C   0  0  0  0  0  0  0  0  0  0  0  0
   62.0180   33.5120   49.0570 C   0  0  0  0  0  0  0  0  0  0  0  0
   61.3610   33.9370   47.8830 C   0  0  0  0  0  0  0  0  0  0  0  0
   62.0200   33.9270   46.6580 C   0  0  0  0  0  0  0  0  0  0  0  0
   63.3370   33.4890   46.5770 C   0  0  0  0  0  0  0  0  0  0  0  0
   64.0100   33.0630   47.7230 C   0  0  0  0  0  0  0  0  0  0  0  0
   63.3730   33.0740   48.9910 C   0  0  0  0  0  0  0  0  0  0  0  0
   66.3987   33.4811   51.6404 H   0  0  0  0  0  0  0  0  0  0  0  0
   67.3631   33.2589   50.1413 H   0  0  0  0  0  0  0  0  0  0  0  0
   65.9442   34.3603   50.1413 H   0  0  0  0  0  0  0  0  0  0  0  0
   65.7225   31.9293   49.1216 H   0  0  0  0  0  0  0  0  0  0  0  0
   65.5857   31.4375   50.8538 H   0  0  0  0  0  0  0  0  0  0  0  0
   61.4960   33.0022   52.3904 H   0  0  0  0  0  0  0  0  0  0  0  0
   59.5519   31.6677   50.7818 H   0  0  0  0  0  0  0  0  0  0  0  0
   57.9089   32.4214   50.7708 H   0  0  0  0  0  0  0  0  0  0  0  0
   58.7090   34.1010   48.2000 H   0  0  0  0  0  0  0  0  0  0  0  0
   59.0168   34.8772   45.9376 H   0  0  0  0  0  0  0  0  0  0  0  0
   58.6861   34.5306   43.4997 H   0  0  0  0  0  0  0  0  0  0  0  0
   56.9277   31.6639   42.0322 H   0  0  0  0  0  0  0  0  0  0  0  0
   57.5600   33.3262   41.7802 H   0  0  0  0  0  0  0  0  0  0  0  0
   58.6866   31.9271   41.7802 H   0  0  0  0  0  0  0  0  0  0  0  0
   59.5303   29.0268   46.0199 H   0  0  0  0  0  0  0  0  0  0  0  0
   60.2973   28.3134   44.5606 H   0  0  0  0  0  0  0  0  0  0  0  0
   59.7988   30.0392   44.5606 H   0  0  0  0  0  0  0  0  0  0  0  0
   57.6889   27.0633   46.5154 H   0  0  0  0  0  0  0  0  0  0  0  0
   57.1070   24.6358   46.4238 H   0  0  0  0  0  0  0  0  0  0  0  0
   56.9586   23.4658   44.2206 H   0  0  0  0  0  0  0  0  0  0  0  0
   57.3787   24.7277   42.1034 H   0  0  0  0  0  0  0  0  0  0  0  0
   57.9442   27.1581   42.1880 H   0  0  0  0  0  0  0  0  0  0  0  0
   57.6286   30.8593   46.7128 H   0  0  0  0  0  0  0  0  0  0  0  0
   60.3171   34.2797   47.9369 H   0  0  0  0  0  0  0  0  0  0  0  0
   61.4979   34.2664   45.7513 H   0  0  0  0  0  0  0  0  0  0  0  0
   63.8512   33.4782   45.6046 H   0  0  0  0  0  0  0  0  0  0  0  0
   65.0498   32.7135   47.6421 H   0  0  0  0  0  0  0  0  0  0  0  0
  1  2  1  0
  2  3  1  0
  3  4  1  0
  4  5  2  0
  4  6  1  0
  6  7  2  0
  7  8  1  0
  8  9  1  0
  9 10  1  0
 10 11  2  0
 10 12  1  0
 12 13  1  0
 13 14  2  0
 14 15  1  0
 15 16  2  0
 16 17  1  0
 16 18  1  0
 18 19  1  0
 19 20  2  0
 19 21  2  0
 19 22  1  0
 22 23  1  0
 22 24  1  0
 24 25  2  0
 25 26  1  0
 26 27  2  0
 27 28  1  0
 28 29  2  0
 18 30  2  0
  7 31  1  0
 31 32  2  0
 32 33  1  0
 33 34  2  0
 34 35  1  0
 35 36  2  0
 36  3  1  0
 30 13  1  0
 36 31  1  0
 29 24  1  0
  1 37  1  0
  1 38  1  0
  1 39  1  0
  2 40  1  0
  2 41  1  0
  6 42  1  0
  9 43  1  0
  9 44  1  0
 12 45  1  0
 14 46  1  0
 15 47  1  0
 17 48  1  0
 17 49  1  0
 17 50  1  0
 23 51  1  0
 23 52  1  0
 23 53  1  0
 25 54  1  0
 26 55  1  0
 27 56  1  0
 28 57  1  0
 29 58  1  0
 30 59  1  0
 32 60  1  0
 33 61  1  0
 34 62  1  0
 35 63  1  0
M  END
>  <UniqueID>  (28) 
26

>  <SMILES>  (28) 
CCn1c(=O)cc(SCC(=O)Nc2ccc(C)c(S(=O)(=O)N(C)c3ccccc3)c2)c2ccccc21

>  <Energy>  (28) 
82.04483133358741

>  <Genealogy>  (28) 
CCn1c(=O)cc(SCC(=O)Nc2ccc(C)c(S(=O)(=O)N(C)c3ccccc3)c2)c2ccccc21 (3D coordinates assigned)
CCn1c(=O)cc(SCC(=O)Nc2ccc(C)c(S(=O)(=O)N(C)c3ccccc3)c2)c2ccccc21 (optimized conformer: 82.04483133358741 kcal/mol)

>  <smiles>  (28) 
CCn1c(=O)cc(SCC(=O)Nc2ccc(C)c(S(=O)(=O)N(C)c3ccccc3)c2)c2ccccc21

>  <score_type>  (28) 
oracle

>  <origin>  (28) 
adg

>  <m_score__min__energy>  (28) 
-10.75

>  <m_primary>  (28) 
energy

$$$$
28:0
     RDKit          3D

 56 59  0  0  0  0  0  0  0  0999 V2000
   58.1500   26.9300   43.7830 C   0  0  0  0  0  0  0  0  0  0  0  0
   58.7720   27.5400   44.9610 N   0  0  0  0  0  0  0  0  0  0  0  0
   58.8240   28.8870   45.1980 C   0  0  0  0  0  0  0  0  0  0  0  0
   58.2160   29.9190   44.2820 C   0  0  0  0  0  0  0  0  0  0  0  0
   56.8590   30.3770   44.7580 C   0  0  0  0  0  0  0  0  0  0  0  0
   55.9190   29.5450   44.8710 O   0  0  0  0  0  0  0  0  0  0  0  0
   56.6530   31.7110   45.2410 N   0  0  0  0  0  0  0  0  0  0  0  0
   57.6660   32.7160   45.3450 C   0  0  0  0  0  0  0  0  0  0  0  0
   57.4720   33.9960   44.8040 C   0  0  0  0  0  0  0  0  0  0  0  0
   58.4760   34.9620   44.9100 C   0  0  0  0  0  0  0  0  0  0  0  0
   59.6740   34.6570   45.5610 C   0  0  0  0  0  0  0  0  0  0  0  0
   59.8660   33.3890   46.1250 C   0  0  0  0  0  0  0  0  0  0  0  0
   61.4070   32.9880   46.8740 S   0  0  0  0  0  0  0  0  0  0  0  0
   62.5420   33.5920   46.0950 O   0  0  0  0  0  0  0  0  0  0  0  0
   61.5770   31.4940   46.8760 O   0  0  0  0  0  0  0  0  0  0  0  0
   61.4390   33.6020   48.5010 N   0  0  0  0  0  0  0  0  0  0  0  0
   60.2220   34.1850   49.0770 C   0  0  0  0  0  0  0  0  0  0  0  0
   59.5010   33.1660   49.9210 C   0  0  0  0  0  0  0  0  0  0  0  0
   59.0970   33.4780   51.2300 C   0  0  0  0  0  0  0  0  0  0  0  0
   58.3910   32.5430   51.9940 C   0  0  0  0  0  0  0  0  0  0  0  0
   58.0900   31.2880   51.4590 C   0  0  0  0  0  0  0  0  0  0  0  0
   58.4960   30.9650   50.1620 C   0  0  0  0  0  0  0  0  0  0  0  0
   59.2000   31.8980   49.3950 C   0  0  0  0  0  0  0  0  0  0  0  0
   62.6560   33.5520   49.2610 C   0  0  0  0  0  0  0  0  0  0  0  0
   62.7570   34.2340   50.4840 C   0  0  0  0  0  0  0  0  0  0  0  0
   63.9370   34.1680   51.2320 C   0  0  0  0  0  0  0  0  0  0  0  0
   65.0210   33.4180   50.7630 C   0  0  0  0  0  0  0  0  0  0  0  0
   64.9260   32.7360   49.5480 C   0  0  0  0  0  0  0  0  0  0  0  0
   63.7480   32.8010   48.7990 C   0  0  0  0  0  0  0  0  0  0  0  0
   58.8500   32.4270   46.0330 C   0  0  0  0  0  0  0  0  0  0  0  0
   59.4490   29.2420   46.3950 C   0  0  0  0  0  0  0  0  0  0  0  0
   59.9630   27.8360   47.1630 S   0  0  0  0  0  0  0  0  0  0  0  0
   59.3670   26.8370   45.9570 C   0  0  0  0  0  0  0  0  0  0  0  0
   59.4570   25.5800   45.9750 O   0  0  0  0  0  0  0  0  0  0  0  0
   57.3990   26.1935   44.1049 H   0  0  0  0  0  0  0  0  0  0  0  0
   57.6631   27.7105   43.1799 H   0  0  0  0  0  0  0  0  0  0  0  0
   58.9209   26.4280   43.1799 H   0  0  0  0  0  0  0  0  0  0  0  0
   58.8869   30.7894   44.2347 H   0  0  0  0  0  0  0  0  0  0  0  0
   58.0877   29.4572   43.2919 H   0  0  0  0  0  0  0  0  0  0  0  0
   56.5275   34.2395   44.2954 H   0  0  0  0  0  0  0  0  0  0  0  0
   58.3231   35.9632   44.4807 H   0  0  0  0  0  0  0  0  0  0  0  0
   60.4686   35.4145   45.6309 H   0  0  0  0  0  0  0  0  0  0  0  0
   60.4944   35.0473   49.7034 H   0  0  0  0  0  0  0  0  0  0  0  0
   59.5587   34.5061   48.2603 H   0  0  0  0  0  0  0  0  0  0  0  0
   59.3373   34.4631   51.6564 H   0  0  0  0  0  0  0  0  0  0  0  0
   58.0727   32.7958   53.0162 H   0  0  0  0  0  0  0  0  0  0  0  0
   57.5329   30.5537   52.0595 H   0  0  0  0  0  0  0  0  0  0  0  0
   58.2614   29.9751   49.7436 H   0  0  0  0  0  0  0  0  0  0  0  0
   59.5198   31.6384   48.3750 H   0  0  0  0  0  0  0  0  0  0  0  0
   61.9050   34.8224   50.8553 H   0  0  0  0  0  0  0  0  0  0  0  0
   64.0127   34.7056   52.1887 H   0  0  0  0  0  0  0  0  0  0  0  0
   65.9487   33.3655   51.3517 H   0  0  0  0  0  0  0  0  0  0  0  0
   65.7792   32.1471   49.1802 H   0  0  0  0  0  0  0  0  0  0  0  0
   63.6763   32.2612   47.8432 H   0  0  0  0  0  0  0  0  0  0  0  0
   58.9840   31.4417   46.5033 H   0  0  0  0  0  0  0  0  0  0  0  0
   59.5826   30.2667   46.7719 H   0  0  0  0  0  0  0  0  0  0  0  0
  1  2  1  0
  2  3  1  0
  3  4  1  0
  4  5  1  0
  5  6  2  0
  5  7  1  0
  7  8  1  0
  8  9  2  0
  9 10  1  0
 10 11  2  0
 11 12  1  0
 12 13  1  0
 13 14  2  0
 13 15  2  0
 13 16  1  0
 16 17  1  0
 17 18  1  0
 18 19  2  0
 19 20  1  0
 20 21  2  0
 21 22  1  0
 22 23  2  0
 16 24  1  0
 24 25  2  0
 25 26  1  0
 26 27  2  0
 27 28  1  0
 28 29  2  0
 12 30  2  0
  3 31  2  0
 31 32  1  0
 32 33  1  0
 33 34  2  0
 33  2  1  0
 30  8  1  0
 23 18  1  0
 29 24  1  0
  1 35  1  0
  1 36  1  0
  1 37  1  0
  4 38  1  0
  4 39  1  0
  9 40  1  0
 10 41  1  0
 11 42  1  0
 17 43  1  0
 17 44  1  0
 19 45  1  0
 20 46  1  0
 21 47  1  0
 22 48  1  0
 23 49  1  0
 25 50  1  0
 26 51  1  0
 27 52  1  0
 28 53  1  0
 29 54  1  0
 30 55  1  0
 31 56  1  0
M  CHG  1   7  -1
M  END
>  <UniqueID>  (29) 
27

>  <SMILES>  (29) 
Cn1c(CC(=O)[N-]c2cccc(S(=O)(=O)N(Cc3ccccc3)c3ccccc3)c2)csc1=O

>  <Energy>  (29) 
97.70028830684589

>  <Genealogy>  (29) 
Cn1c(CC(=O)[N-]c2cccc(S(=O)(=O)N(Cc3ccccc3)c3ccccc3)c2)csc1=O (protonated)
Cn1c(CC(=O)[N-]c2cccc(S(=O)(=O)N(Cc3ccccc3)c3ccccc3)c2)csc1=O (3D coordinates assigned)
Cn1c(CC(=O)[N-]c2cccc(S(=O)(=O)N(Cc3ccccc3)c3ccccc3)c2)csc1=O (optimized conformer: 97.70028830684589 kcal/mol)

>  <smiles>  (29) 
Cn1c(CC(=O)Nc2cccc(S(=O)(=O)N(Cc3ccccc3)c3ccccc3)c2)csc1=O

>  <score_type>  (29) 
oracle

>  <origin>  (29) 
adg

>  <m_score__min__energy>  (29) 
-12.35

>  <m_primary>  (29) 
energy

$$$$
29:0
     RDKit          3D

 54 57  0  0  0  0  0  0  0  0999 V2000
   57.9160   32.0170   43.1930 C   0  0  0  0  0  0  0  0  0  0  0  0
   57.2000   31.4810   44.7300 S   0  0  0  0  0  0  0  0  0  0  0  0
   57.0460   32.6740   45.6280 O   0  0  0  0  0  0  0  0  0  0  0  0
   55.8460   30.8740   44.4960 O   0  0  0  0  0  0  0  0  0  0  0  0
   58.2430   30.3330   45.5040 N   0  0  0  0  0  0  0  0  0  0  0  0
   57.9540   28.9460   45.7310 C   0  0  0  0  0  0  0  0  0  0  0  0
   56.6660   28.4170   45.4870 C   0  0  0  0  0  0  0  0  0  0  0  0
   56.4150   27.0920   45.8270 C   0  0  0  0  0  0  0  0  0  0  0  0
   55.2460   26.4470   45.6720 N   0  0  0  0  0  0  0  0  0  0  0  0
   55.4850   25.2080   46.1550 C   0  0  0  0  0  0  0  0  0  0  0  0
   54.5230   24.2060   46.1600 O   0  0  0  0  0  0  0  0  0  0  0  0
   56.7850   25.0600   46.6310 C   0  0  0  0  0  0  0  0  0  0  0  0
   57.3680   23.7790   47.1990 C   0  0  1  0  0  0  0  0  0  0  0  0
   56.6290   23.3130   48.4750 C   0  0  0  0  0  0  0  0  0  0  0  0
   55.5800   22.2270   48.2120 C   0  0  0  0  0  0  0  0  0  0  0  0
   56.0790   21.0960   47.2790 C   0  0  0  0  0  0  0  0  0  0  0  0
   57.4250   21.3310   46.7340 N   0  0  0  0  0  0  0  0  0  0  0  0
   57.5240   22.6660   46.1350 C   0  0  0  0  0  0  0  0  0  0  0  0
   57.3770   26.2940   46.3970 C   0  0  0  0  0  0  0  0  0  0  0  0
   58.6630   26.7800   46.6410 C   0  0  0  0  0  0  0  0  0  0  0  0
   58.9640   28.1050   46.2800 C   0  0  0  0  0  0  0  0  0  0  0  0
   60.2940   28.5840   46.5230 N   0  0  0  0  0  0  0  0  0  0  0  0
   60.7500   29.1200   47.7680 C   0  0  0  0  0  0  0  0  0  0  0  0
   61.0760   28.3310   48.6930 O   0  0  0  0  0  0  0  0  0  0  0  0
   60.8560   30.5060   47.9420 O   0  0  0  0  0  0  0  0  0  0  0  0
   59.7830   31.3250   48.4000 C   0  0  0  0  0  0  0  0  0  0  0  0
   59.7210   32.6010   47.6070 C   0  0  0  0  0  0  0  0  0  0  0  0
   60.3790   32.6920   46.3710 C   0  0  0  0  0  0  0  0  0  0  0  0
   60.3320   33.8780   45.6320 C   0  0  0  0  0  0  0  0  0  0  0  0
   59.6330   34.9820   46.1240 C   0  0  0  0  0  0  0  0  0  0  0  0
   58.9850   34.9030   47.3600 C   0  0  0  0  0  0  0  0  0  0  0  0
   59.0280   33.7170   48.1010 C   0  0  0  0  0  0  0  0  0  0  0  0
   58.7812   32.6647   43.3977 H   0  0  0  0  0  0  0  0  0  0  0  0
   58.2431   31.1399   42.6153 H   0  0  0  0  0  0  0  0  0  0  0  0
   57.1666   32.5779   42.6153 H   0  0  0  0  0  0  0  0  0  0  0  0
   55.8788   29.0402   45.0377 H   0  0  0  0  0  0  0  0  0  0  0  0
   58.3936   24.0168   47.5178 H   0  0  0  0  0  0  0  0  0  0  0  0
   57.3720   22.9154   49.1820 H   0  0  0  0  0  0  0  0  0  0  0  0
   56.0959   24.1870   48.8775 H   0  0  0  0  0  0  0  0  0  0  0  0
   55.2918   21.7813   49.1755 H   0  0  0  0  0  0  0  0  0  0  0  0
   54.7328   22.7127   47.7057 H   0  0  0  0  0  0  0  0  0  0  0  0
   56.0946   20.1560   47.8501 H   0  0  0  0  0  0  0  0  0  0  0  0
   55.3881   21.0557   46.4240 H   0  0  0  0  0  0  0  0  0  0  0  0
   58.1350   21.2380   47.5000 H   0  0  0  0  0  0  0  0  0  0  0  0
   58.5069   22.7688   45.6519 H   0  0  0  0  0  0  0  0  0  0  0  0
   56.7127   22.7753   45.4003 H   0  0  0  0  0  0  0  0  0  0  0  0
   59.4258   26.1386   47.1066 H   0  0  0  0  0  0  0  0  0  0  0  0
   58.8352   30.7792   48.2829 H   0  0  0  0  0  0  0  0  0  0  0  0
   59.9495   31.5713   49.4591 H   0  0  0  0  0  0  0  0  0  0  0  0
   60.9345   31.8261   45.9816 H   0  0  0  0  0  0  0  0  0  0  0  0
   60.8464   33.9414   44.6617 H   0  0  0  0  0  0  0  0  0  0  0  0
   59.5923   35.9130   45.5395 H   0  0  0  0  0  0  0  0  0  0  0  0
   58.4402   35.7750   47.7509 H   0  0  0  0  0  0  0  0  0  0  0  0
   58.5172   33.6591   49.0735 H   0  0  0  0  0  0  0  0  0  0  0  0
  1  2  1  0
  2  3  2  0
  2  4  2  0
  2  5  1  0
  5  6  1  0
  6  7  2  0
  7  8  1  0
  8  9  1  0
  9 10  1  0
 10 11  1  0
 10 12  2  0
 12 13  1  0
 13 14  1  0
 14 15  1  0
 15 16  1  0
 16 17  1  0
 17 18  1  0
 12 19  1  0
 19 20  1  0
 20 21  2  0
 21 22  1  0
 22 23  1  0
 23 24  2  0
 23 25  1  0
 25 26  1  0
 26 27  1  0
 27 28  2  0
 28 29  1  0
 29 30  2  0
 30 31  1  0
 31 32  2  0
 21  6  1  0
 32 27  1  0
 19  8  2  0
 18 13  1  0
  1 33  1  0
  1 34  1  0
  1 35  1  0
  7 36  1  0
 13 37  1  1
 14 38  1  0
 14 39  1  0
 15 40  1  0
 15 41  1  0
 16 42  1  0
 16 43  1  0
 17 44  1  0
 18 45  1  0
 18 46  1  0
 20 47  1  0
 26 48  1  0
 26 49  1  0
 28 50  1  0
 29 51  1  0
 30 52  1  0
 31 53  1  0
 32 54  1  0
M  CHG  4   5  -1   9  -1  11  -1  22  -1
M  END
>  <UniqueID>  (30) 
28

>  <SMILES>  (30) 
CS(=O)(=O)[N-]c1cc2[n-]c([O-])c([C@H]3CCCNC3)c2cc1[N-]C(=O)OCc1ccccc1

>  <Energy>  (30) 
99.29782225929519

>  <Genealogy>  (30) 
CS(=O)(=O)[N-]c1cc2[n-]c([O-])c(C3CCCNC3)c2cc1[N-]C(=O)OCc1ccccc1 (protonated)
CS(=O)(=O)[N-]c1cc2[n-]c([O-])c([C@H]3CCCNC3)c2cc1[N-]C(=O)OCc1ccccc1 (chirality)
CS(=O)(=O)[N-]c1cc2[n-]c([O-])c([C@H]3CCCNC3)c2cc1[N-]C(=O)OCc1ccccc1 (3D coordinates assigned)
CS(=O)(=O)[N-]c1cc2[n-]c([O-])c([C@H]3CCCNC3)c2cc1[N-]C(=O)OCc1ccccc1 (nonaromatic ring conformer: 99.29782225929519 kcal/mol)

>  <smiles>  (30) 
CS(=O)(=O)Nc1cc2[nH]c(O)c(C3CCCNC3)c2cc1NC(=O)OCc1ccccc1

>  <score_type>  (30) 
oracle

>  <origin>  (30) 
adg

>  <m_score__min__energy>  (30) 
-14.890000000000001

>  <m_primary>  (30) 
energy

$$$$
30:0
     RDKit          3D

 51 54  0  0  0  0  0  0  0  0999 V2000
   60.9673   34.9388   48.3906 H   0  0  0  0  0  0  0  0  0  0  0  0
   60.1390   34.5160   47.8030 C   0  0  0  0  0  0  0  0  0  0  0  0
   59.3040   33.5470   48.3680 C   0  0  0  0  0  0  0  0  0  0  0  0
   59.4788   33.2039   49.3984 H   0  0  0  0  0  0  0  0  0  0  0  0
   58.2470   33.0140   47.6240 C   0  0  0  0  0  0  0  0  0  0  0  0
   57.6015   32.2415   48.0672 H   0  0  0  0  0  0  0  0  0  0  0  0
   58.0050   33.4580   46.3170 C   0  0  0  0  0  0  0  0  0  0  0  0
   56.9150   32.8760   45.5850 N   0  0  0  0  0  0  0  0  0  0  0  0
   57.0150   31.9560   44.4920 C   0  0  0  0  0  0  0  0  0  0  0  0
   57.4260   32.3420   43.3650 O   0  0  0  0  0  0  0  0  0  0  0  0
   56.5430   30.6500   44.6690 O   0  0  0  0  0  0  0  0  0  0  0  0
   57.3480   29.5030   44.7140 C   0  0  0  0  0  0  0  0  0  0  0  0
   57.3710   28.5650   43.6650 C   0  0  0  0  0  0  0  0  0  0  0  0
   56.7300   28.7115   42.7831 H   0  0  0  0  0  0  0  0  0  0  0  0
   58.2060   27.4490   43.7420 C   0  0  0  0  0  0  0  0  0  0  0  0
   58.2228   26.7198   42.9186 H   0  0  0  0  0  0  0  0  0  0  0  0
   59.0210   27.2540   44.8610 C   0  0  0  0  0  0  0  0  0  0  0  0
   59.6847   26.3781   44.9092 H   0  0  0  0  0  0  0  0  0  0  0  0
   58.9960   28.1710   45.9230 C   0  0  0  0  0  0  0  0  0  0  0  0
   59.9080   27.9680   47.1090 C   0  0  0  0  0  0  0  0  0  0  0  0
   60.9250   27.7604   46.7448 H   0  0  0  0  0  0  0  0  0  0  0  0
   59.5196   27.1246   47.6988 H   0  0  0  0  0  0  0  0  0  0  0  0
   59.9460   29.1480   47.9730 N   0  0  0  0  0  0  0  0  0  0  0  0
   60.7920   30.1430   48.0290 C   0  0  0  0  0  0  0  0  0  0  0  0
   61.1380   30.8160   46.9140 N   0  0  0  0  0  0  0  0  0  0  0  0
   60.7890   30.6530   45.9430 H   0  0  0  0  0  0  0  0  0  0  0  0
   62.0420   31.7290   47.2980 C   0  0  0  0  0  0  0  0  0  0  0  0
   62.5361   32.4610   46.6422 H   0  0  0  0  0  0  0  0  0  0  0  0
   62.2470   31.5940   48.6560 C   0  0  0  0  0  0  0  0  0  0  0  0
   63.2290   32.3810   49.4330 C   0  0  0  0  0  0  0  0  0  0  0  0
   62.8070   33.4340   50.2620 C   0  0  0  0  0  0  0  0  0  0  0  0
   61.7391   33.6915   50.3197 H   0  0  0  0  0  0  0  0  0  0  0  0
   63.7390   34.1560   51.0140 C   0  0  0  0  0  0  0  0  0  0  0  0
   63.4035   34.9853   51.6541 H   0  0  0  0  0  0  0  0  0  0  0  0
   65.0970   33.8260   50.9540 C   0  0  0  0  0  0  0  0  0  0  0  0
   66.3670   34.8140   51.9820 Br  0  0  0  0  0  0  0  0  0  0  0  0
   65.5210   32.7660   50.1470 C   0  0  0  0  0  0  0  0  0  0  0  0
   66.5879   32.5015   50.1040 H   0  0  0  0  0  0  0  0  0  0  0  0
   64.5910   32.0410   49.3940 C   0  0  0  0  0  0  0  0  0  0  0  0
   64.9281   31.2011   48.7688 H   0  0  0  0  0  0  0  0  0  0  0  0
   61.4450   30.6080   49.1340 N   0  0  0  0  0  0  0  0  0  0  0  0
   61.3110   30.2180   50.5400 C   0  0  0  0  0  0  0  0  0  0  0  0
   61.6008   31.0616   51.1837 H   0  0  0  0  0  0  0  0  0  0  0  0
   60.2664   29.9417   50.7459 H   0  0  0  0  0  0  0  0  0  0  0  0
   61.9652   29.3580   50.7459 H   0  0  0  0  0  0  0  0  0  0  0  0
   58.1830   29.3150   45.8220 C   0  0  0  0  0  0  0  0  0  0  0  0
   58.2037   30.0696   46.6221 H   0  0  0  0  0  0  0  0  0  0  0  0
   58.8630   34.4180   45.7460 C   0  0  0  0  0  0  0  0  0  0  0  0
   58.7005   34.7525   44.7108 H   0  0  0  0  0  0  0  0  0  0  0  0
   59.9210   34.9470   46.4920 C   0  0  0  0  0  0  0  0  0  0  0  0
   60.5828   35.7039   46.0458 H   0  0  0  0  0  0  0  0  0  0  0  0
  1  2  1  0
  2  3  2  0
  3  4  1  0
  3  5  1  0
  5  6  1  0
  5  7  2  0
  7  8  1  0
  8  9  1  0
  9 10  2  0
  9 11  1  0
 11 12  1  0
 12 13  2  0
 13 14  1  0
 13 15  1  0
 15 16  1  0
 15 17  2  0
 17 18  1  0
 17 19  1  0
 19 20  1  0
 20 21  1  0
 20 22  1  0
 20 23  1  0
 23 24  2  0
 24 25  1  0
 25 26  1  0
 25 27  1  0
 27 28  1  0
 27 29  2  0
 29 30  1  0
 30 31  2  0
 31 32  1  0
 31 33  1  0
 33 34  1  0
 33 35  2  0
 35 36  1  0
 35 37  1  0
 37 38  1  0
 37 39  2  0
 39 40  1  0
 29 41  1  0
 41 42  1  0
 42 43  1  0
 42 44  1  0
 42 45  1  0
 19 46  2  0
 46 47  1  0
  7 48  1  0
 48 49  1  0
 48 50  2  0
 50 51  1  0
 50  2  1  0
 46 12  1  0
 41 24  1  0
 39 30  1  0
M  CHG  1   8  -1
M  END
>  <UniqueID>  (31) 
29

>  <SMILES>  (31) 
Cn1c(-c2ccc(Br)cc2)c[nH]/c1=N/Cc1cccc(OC(=O)[N-]c2ccccc2)c1

>  <Energy>  (31) 
107.71402404348538

>  <Genealogy>  (31) 
Cn1c(-c2ccc(Br)cc2)c[nH]c1=NCc1cccc(OC(=O)[N-]c2ccccc2)c1 (protonated)
Cn1c(-c2ccc(Br)cc2)c[nH]/c1=N/Cc1cccc(OC(=O)[N-]c2ccccc2)c1 (cis-trans isomerization)
Cn1c(-c2ccc(Br)cc2)c[nH]/c1=N/Cc1cccc(OC(=O)[N-]c2ccccc2)c1 (3D coordinates assigned)
Cn1c(-c2ccc(Br)cc2)c[nH]/c1=N/Cc1cccc(OC(=O)[N-]c2ccccc2)c1 (optimized conformer: 107.71402404348538 kcal/mol)

>  <smiles>  (31) 
Cn1c(-c2ccc(Br)cc2)c[nH]c1=NCc1cccc(OC(=O)Nc2ccccc2)c1

>  <score_type>  (31) 
oracle

>  <origin>  (31) 
adg

>  <m_score__min__energy>  (31) 
-11.369999999999999

>  <m_primary>  (31) 
energy

$$$$
31:0
     RDKit          3D

 45 47  0  0  0  0  0  0  0  0999 V2000
   54.4010   26.0480   45.9930 N   0  0  0  0  0  0  0  0  0  0  0  0
   53.9700   24.4370   45.5440 S   0  0  0  0  0  0  0  0  0  0  0  0
   52.7750   24.4710   44.6330 O   0  0  0  0  0  0  0  0  0  0  0  0
   53.6170   23.6470   46.7730 O   0  0  0  0  0  0  0  0  0  0  0  0
   55.3290   23.6770   44.7210 C   0  0  0  0  0  0  0  0  0  0  0  0
   55.1580   23.1060   43.4540 C   0  0  0  0  0  0  0  0  0  0  0  0
   56.2380   22.5080   42.8020 C   0  0  0  0  0  0  0  0  0  0  0  0
   57.4980   22.4850   43.4060 C   0  0  0  0  0  0  0  0  0  0  0  0
   57.6880   23.0740   44.6670 C   0  0  0  0  0  0  0  0  0  0  0  0
   59.0420   23.0480   45.3240 C   0  0  0  0  0  0  0  0  0  0  0  0
   59.1450   24.0730   46.3600 N   0  0  0  0  0  0  0  0  0  0  0  0
   59.1620   25.4930   46.1510 C   0  0  0  0  0  0  0  0  0  0  0  0
   60.2560   26.1060   46.2630 O   0  0  0  0  0  0  0  0  0  0  0  0
   57.9250   26.2720   45.7960 C   0  0  0  0  0  0  0  0  0  0  0  0
   58.2350   27.6850   45.5950 N   0  0  0  0  0  0  0  0  0  0  0  0
   57.2250   28.6560   45.2680 C   0  0  0  0  0  0  0  0  0  0  0  0
   56.0130   28.3070   45.2390 O   0  0  0  0  0  0  0  0  0  0  0  0
   57.5800   30.0680   44.9850 C   0  0  0  0  0  0  0  0  0  0  0  0
   57.2830   30.6610   43.7420 C   0  0  0  0  0  0  0  0  0  0  0  0
   57.6170   31.9970   43.4950 C   0  0  0  0  0  0  0  0  0  0  0  0
   58.2390   32.7560   44.4870 C   0  0  0  0  0  0  0  0  0  0  0  0
   58.5550   32.1730   45.7200 C   0  0  0  0  0  0  0  0  0  0  0  0
   58.2110   30.8430   45.9770 C   0  0  0  0  0  0  0  0  0  0  0  0
   59.2180   32.9400   46.6840 O   0  0  0  0  0  0  0  0  0  0  0  0
   59.8180   34.1920   46.3450 C   0  0  0  0  0  0  0  0  0  0  0  0
   58.9320   34.9550   45.3520 C   0  0  0  0  0  0  0  0  0  0  0  0
   58.5530   34.1010   44.2700 O   0  0  0  0  0  0  0  0  0  0  0  0
   56.5940   23.6600   45.3250 C   0  0  0  0  0  0  0  0  0  0  0  0
   54.7770   26.5130   45.1370 H   0  0  0  0  0  0  0  0  0  0  0  0
   54.1700   23.1287   42.9710 H   0  0  0  0  0  0  0  0  0  0  0  0
   56.0968   22.0537   41.8102 H   0  0  0  0  0  0  0  0  0  0  0  0
   58.3436   22.0042   42.8924 H   0  0  0  0  0  0  0  0  0  0  0  0
   59.2010   22.0596   45.7798 H   0  0  0  0  0  0  0  0  0  0  0  0
   59.8054   23.2484   44.5578 H   0  0  0  0  0  0  0  0  0  0  0  0
   57.4959   25.8627   44.8695 H   0  0  0  0  0  0  0  0  0  0  0  0
   57.2070   26.1856   46.6248 H   0  0  0  0  0  0  0  0  0  0  0  0
   59.2300   27.9830   45.7000 H   0  0  0  0  0  0  0  0  0  0  0  0
   56.7848   30.0692   42.9599 H   0  0  0  0  0  0  0  0  0  0  0  0
   57.3892   32.4492   42.5185 H   0  0  0  0  0  0  0  0  0  0  0  0
   58.4342   30.3996   46.9586 H   0  0  0  0  0  0  0  0  0  0  0  0
   59.9421   34.7938   47.2574 H   0  0  0  0  0  0  0  0  0  0  0  0
   60.7976   34.0055   45.8807 H   0  0  0  0  0  0  0  0  0  0  0  0
   58.0280   35.3087   45.8693 H   0  0  0  0  0  0  0  0  0  0  0  0
   59.4959   35.8109   44.9527 H   0  0  0  0  0  0  0  0  0  0  0  0
   56.7307   24.1082   46.3202 H   0  0  0  0  0  0  0  0  0  0  0  0
  1  2  1  0
  2  3  2  0
  2  4  2  0
  2  5  1  0
  5  6  2  0
  6  7  1  0
  7  8  2  0
  8  9  1  0
  9 10  1  0
 10 11  1  0
 11 12  1  0
 12 13  2  0
 12 14  1  0
 14 15  1  0
 15 16  1  0
 16 17  2  0
 16 18  1  0
 18 19  2  0
 19 20  1  0
 20 21  2  0
 21 22  1  0
 22 23  2  0
 22 24  1  0
 24 25  1  0
 25 26  1  0
 26 27  1  0
  9 28  2  0
 28  5  1  0
 23 18  1  0
 27 21  1  0
  1 29  1  0
  6 30  1  0
  7 31  1  0
  8 32  1  0
 10 33  1  0
 10 34  1  0
 14 35  1  0
 14 36  1  0
 15 37  1  0
 19 38  1  0
 20 39  1  0
 23 40  1  0
 25 41  1  0
 25 42  1  0
 26 43  1  0
 26 44  1  0
 28 45  1  0
M  CHG  2   1  -1  11  -1
M  END
>  <UniqueID>  (32) 
30

>  <SMILES>  (32) 
[NH-]S(=O)(=O)c1cccc(C[N-]C(=O)CNC(=O)c2ccc3c(c2)OCCO3)c1

>  <Energy>  (32) 
45.22166813094155

>  <Genealogy>  (32) 
[NH-]S(=O)(=O)c1cccc(C[N-]C(=O)CNC(=O)c2ccc3c(c2)OCCO3)c1 (protonated)
[NH-]S(=O)(=O)c1cccc(C[N-]C(=O)CNC(=O)c2ccc3c(c2)OCCO3)c1 (3D coordinates assigned)
[NH-]S(=O)(=O)c1cccc(C[N-]C(=O)CNC(=O)c2ccc3c(c2)OCCO3)c1 (nonaromatic ring conformer: 45.22166813094155 kcal/mol)

>  <smiles>  (32) 
NS(=O)(=O)c1cccc(CNC(=O)CNC(=O)c2ccc3c(c2)OCCO3)c1

>  <score_type>  (32) 
oracle

>  <origin>  (32) 
adg

>  <m_score__min__energy>  (32) 
-12.82

>  <m_primary>  (32) 
energy

$$$$
32:0
     RDKit          3D

 42 45  0  0  0  0  0  0  0  0999 V2000
   64.4860   33.2630   47.8420 N   0  0  0  0  0  0  0  0  0  0  0  0
   63.3610   33.5150   47.9460 C   0  0  0  0  0  0  0  0  0  0  0  0
   61.9620   33.8290   48.0770 C   0  0  0  0  0  0  0  0  0  0  0  0
   61.4490   34.2430   49.3120 C   0  0  0  0  0  0  0  0  0  0  0  0
   60.0950   34.5650   49.4350 C   0  0  0  0  0  0  0  0  0  0  0  0
   59.2490   34.4760   48.3250 C   0  0  0  0  0  0  0  0  0  0  0  0
   59.7510   34.0510   47.0840 C   0  0  0  0  0  0  0  0  0  0  0  0
   58.8620   34.0360   45.8700 C   0  0  0  0  0  0  0  0  0  0  0  0
   58.5400   32.6210   45.5090 C   0  0  0  0  0  0  0  0  0  0  0  0
   58.8250   31.5070   46.2920 C   0  0  0  0  0  0  0  0  0  0  0  0
   58.2020   30.3400   45.8400 C   0  0  0  0  0  0  0  0  0  0  0  0
   57.4240   30.5440   44.7090 C   0  0  0  0  0  0  0  0  0  0  0  0
   56.3170   29.3680   44.0260 S   0  0  0  0  0  0  0  0  0  0  0  0
   55.0720   30.0450   43.5270 O   0  0  0  0  0  0  0  0  0  0  0  0
   56.9910   28.6720   42.8790 O   0  0  0  0  0  0  0  0  0  0  0  0
   55.9030   28.2040   45.2440 N   0  0  0  0  0  0  0  0  0  0  0  0
   56.7300   27.0970   45.6340 C   0  0  0  0  0  0  0  0  0  0  0  0
   58.1150   27.2430   45.8370 C   0  0  0  0  0  0  0  0  0  0  0  0
   58.9040   26.1420   46.1800 C   0  0  0  0  0  0  0  0  0  0  0  0
   58.3230   24.8820   46.3430 C   0  0  0  0  0  0  0  0  0  0  0  0
   56.9420   24.7210   46.1690 C   0  0  0  0  0  0  0  0  0  0  0  0
   56.3340   23.4700   46.3320 C   0  0  0  0  0  0  0  0  0  0  0  0
   54.9560   23.3390   46.1470 C   0  0  0  0  0  0  0  0  0  0  0  0
   54.1990   24.4590   45.7980 C   0  0  0  0  0  0  0  0  0  0  0  0
   54.8010   25.6680   45.6400 N   0  0  0  0  0  0  0  0  0  0  0  0
   56.1420   25.8330   45.8150 C   0  0  0  0  0  0  0  0  0  0  0  0
   57.4920   32.1660   44.2740 S   0  0  0  0  0  0  0  0  0  0  0  0
   61.1160   33.7340   46.9650 C   0  0  0  0  0  0  0  0  0  0  0  0
   62.1125   34.3149   50.1864 H   0  0  0  0  0  0  0  0  0  0  0  0
   59.6938   34.8891   50.4066 H   0  0  0  0  0  0  0  0  0  0  0  0
   58.1858   34.7400   48.4243 H   0  0  0  0  0  0  0  0  0  0  0  0
   57.9314   34.5798   46.0896 H   0  0  0  0  0  0  0  0  0  0  0  0
   59.3791   34.5216   45.0293 H   0  0  0  0  0  0  0  0  0  0  0  0
   59.4756   31.5410   47.1783 H   0  0  0  0  0  0  0  0  0  0  0  0
   58.3165   29.3618   46.3298 H   0  0  0  0  0  0  0  0  0  0  0  0
   58.5807   28.2332   45.7246 H   0  0  0  0  0  0  0  0  0  0  0  0
   59.9875   26.2679   46.3223 H   0  0  0  0  0  0  0  0  0  0  0  0
   58.9491   24.0171   46.6077 H   0  0  0  0  0  0  0  0  0  0  0  0
   56.9399   22.5934   46.6049 H   0  0  0  0  0  0  0  0  0  0  0  0
   54.4705   22.3603   46.2753 H   0  0  0  0  0  0  0  0  0  0  0  0
   53.1132   24.3632   45.6505 H   0  0  0  0  0  0  0  0  0  0  0  0
   61.5207   33.4102   45.9948 H   0  0  0  0  0  0  0  0  0  0  0  0
  1  2  3  0
  2  3  1  0
  3  4  2  0
  4  5  1  0
  5  6  2  0
  6  7  1  0
  7  8  1  0
  8  9  1  0
  9 10  2  0
 10 11  1  0
 11 12  2  0
 12 13  1  0
 13 14  2  0
 13 15  2  0
 13 16  1  0
 16 17  1  0
 17 18  2  0
 18 19  1  0
 19 20  2  0
 20 21  1  0
 21 22  2  0
 22 23  1  0
 23 24  2  0
 24 25  1  0
 25 26  2  0
 12 27  1  0
  7 28  2  0
 28  3  1  0
 27  9  1  0
 26 17  1  0
 26 21  1  0
  4 29  1  0
  5 30  1  0
  6 31  1  0
  8 32  1  0
  8 33  1  0
 10 34  1  0
 11 35  1  0
 18 36  1  0
 19 37  1  0
 20 38  1  0
 22 39  1  0
 23 40  1  0
 24 41  1  0
 28 42  1  0
M  CHG  1  16  -1
M  END
>  <UniqueID>  (33) 
31

>  <SMILES>  (33) 
N#Cc1cccc(Cc2ccc(S(=O)(=O)[N-]c3cccc4cccnc34)s2)c1

>  <Energy>  (33) 
75.74269781047069

>  <Genealogy>  (33) 
N#Cc1cccc(Cc2ccc(S(=O)(=O)[N-]c3cccc4cccnc34)s2)c1 (protonated)
N#Cc1cccc(Cc2ccc(S(=O)(=O)[N-]c3cccc4cccnc34)s2)c1 (3D coordinates assigned)
N#Cc1cccc(Cc2ccc(S(=O)(=O)[N-]c3cccc4cccnc34)s2)c1 (optimized conformer: 75.74269781047069 kcal/mol)

>  <smiles>  (33) 
N#Cc1cccc(Cc2ccc(S(=O)(=O)Nc3cccc4cccnc34)s2)c1

>  <score_type>  (33) 
oracle

>  <origin>  (33) 
adg

>  <m_score__min__energy>  (33) 
-11.25

>  <m_primary>  (33) 
energy

$$$$
33:0
     RDKit          3D

 59 62  0  0  0  0  0  0  0  0999 V2000
   56.6180   29.5080   43.0110 C   0  0  0  0  0  0  0  0  0  0  0  0
   56.0120   30.0400   44.2730 C   0  0  0  0  0  0  0  0  0  0  0  0
   55.1530   29.3480   44.8780 O   0  0  0  0  0  0  0  0  0  0  0  0
   56.4070   31.3000   44.8350 N   0  0  0  0  0  0  0  0  0  0  0  0
   57.6750   31.6130   45.4270 C   0  0  0  0  0  0  0  0  0  0  0  0
   58.5310   30.6090   45.9130 C   0  0  0  0  0  0  0  0  0  0  0  0
   59.7760   30.9470   46.4540 C   0  0  0  0  0  0  0  0  0  0  0  0
   60.1840   32.2850   46.5020 C   0  0  0  0  0  0  0  0  0  0  0  0
   61.7680   32.6880   47.1530 S   0  0  0  0  0  0  0  0  0  0  0  0
   62.2950   33.9090   46.4500 O   0  0  0  0  0  0  0  0  0  0  0  0
   62.7360   31.5580   46.9320 O   0  0  0  0  0  0  0  0  0  0  0  0
   61.6180   32.9970   48.8540 N   0  0  0  0  0  0  0  0  0  0  0  0
   60.7170   34.0470   49.3300 C   0  0  0  0  0  0  0  0  0  0  0  0
   59.6400   33.4410   50.1860 C   0  0  0  0  0  0  0  0  0  0  0  0
   58.8700   32.3700   49.7010 C   0  0  0  0  0  0  0  0  0  0  0  0
   57.9140   31.7640   50.5190 C   0  0  0  0  0  0  0  0  0  0  0  0
   57.7250   32.2140   51.8290 C   0  0  0  0  0  0  0  0  0  0  0  0
   58.4950   33.2700   52.3240 C   0  0  0  0  0  0  0  0  0  0  0  0
   59.4530   33.8810   51.5070 C   0  0  0  0  0  0  0  0  0  0  0  0
   62.5190   32.3610   49.7660 C   0  0  0  0  0  0  0  0  0  0  0  0
   62.0130   31.6790   50.8270 N   0  0  0  0  0  0  0  0  0  0  0  0
   62.8270   31.0490   51.7100 C   0  0  0  0  0  0  0  0  0  0  0  0
   62.3330   30.4240   52.6840 O   0  0  0  0  0  0  0  0  0  0  0  0
   64.1720   31.0940   51.5450 N   0  0  0  0  0  0  0  0  0  0  0  0
   64.7370   31.7600   50.5030 C   0  0  0  0  0  0  0  0  0  0  0  0
   66.1690   31.7970   50.3900 N   0  0  0  0  0  0  0  0  0  0  0  0
   66.8600   33.0620   50.1310 C   0  0  0  0  0  0  0  0  0  0  0  0
   67.7030   33.4240   51.3600 C   0  0  0  0  0  0  0  0  0  0  0  0
   68.5700   32.3590   51.7070 O   0  0  0  0  0  0  0  0  0  0  0  0
   67.8160   31.2200   52.0900 C   0  0  0  0  0  0  0  0  0  0  0  0
   66.9820   30.7000   50.9150 C   0  0  0  0  0  0  0  0  0  0  0  0
   63.9100   32.4070   49.5620 C   0  0  0  0  0  0  0  0  0  0  0  0
   64.4610   33.0310   48.3930 N   0  0  0  0  0  0  0  0  0  0  0  0
   59.3490   33.2830   45.9850 C   0  0  0  0  0  0  0  0  0  0  0  0
   58.1040   32.9470   45.4440 C   0  0  0  0  0  0  0  0  0  0  0  0
   57.4231   28.8012   43.2604 H   0  0  0  0  0  0  0  0  0  0  0  0
   55.8455   28.9911   42.4228 H   0  0  0  0  0  0  0  0  0  0  0  0
   57.0305   30.3410   42.4228 H   0  0  0  0  0  0  0  0  0  0  0  0
   58.2208   29.5546   45.8677 H   0  0  0  0  0  0  0  0  0  0  0  0
   60.4368   30.1583   46.8431 H   0  0  0  0  0  0  0  0  0  0  0  0
   61.2874   34.7773   49.9226 H   0  0  0  0  0  0  0  0  0  0  0  0
   60.2564   34.5504   48.4672 H   0  0  0  0  0  0  0  0  0  0  0  0
   59.0209   32.0078   48.6734 H   0  0  0  0  0  0  0  0  0  0  0  0
   57.3087   30.9311   50.1319 H   0  0  0  0  0  0  0  0  0  0  0  0
   56.9697   31.7366   52.4706 H   0  0  0  0  0  0  0  0  0  0  0  0
   58.3480   33.6210   53.3561 H   0  0  0  0  0  0  0  0  0  0  0  0
   60.0616   34.7085   51.9005 H   0  0  0  0  0  0  0  0  0  0  0  0
   67.5137   32.9534   49.2530 H   0  0  0  0  0  0  0  0  0  0  0  0
   66.1250   33.8564   49.9342 H   0  0  0  0  0  0  0  0  0  0  0  0
   68.3026   34.3184   51.1353 H   0  0  0  0  0  0  0  0  0  0  0  0
   67.0274   33.6184   52.2060 H   0  0  0  0  0  0  0  0  0  0  0  0
   68.5029   30.4281   52.4232 H   0  0  0  0  0  0  0  0  0  0  0  0
   67.1361   31.5052   52.9063 H   0  0  0  0  0  0  0  0  0  0  0  0
   67.6497   30.3245   50.1256 H   0  0  0  0  0  0  0  0  0  0  0  0
   66.3300   29.8814   51.2537 H   0  0  0  0  0  0  0  0  0  0  0  0
   63.8570   33.3100   47.5890 H   0  0  0  0  0  0  0  0  0  0  0  0
   65.4900   33.1610   48.2770 H   0  0  0  0  0  0  0  0  0  0  0  0
   59.6731   34.3340   46.0044 H   0  0  0  0  0  0  0  0  0  0  0  0
   57.4576   33.7345   45.0293 H   0  0  0  0  0  0  0  0  0  0  0  0
  1  2  1  0
  2  3  2  0
  2  4  1  0
  4  5  1  0
  5  6  2  0
  6  7  1  0
  7  8  2  0
  8  9  1  0
  9 10  2  0
  9 11  2  0
  9 12  1  0
 12 13  1  0
 13 14  1  0
 14 15  2  0
 15 16  1  0
 16 17  2  0
 17 18  1  0
 18 19  2  0
 12 20  1  0
 20 21  2  0
 21 22  1  0
 22 23  2  0
 22 24  1  0
 24 25  1  0
 25 26  1  0
 26 27  1  0
 27 28  1  0
 28 29  1  0
 29 30  1  0
 30 31  1  0
 25 32  2  0
 32 33  1  0
  8 34  1  0
 34 35  2  0
 35  5  1  0
 19 14  1  0
 32 20  1  0
 31 26  1  0
  1 36  1  0
  1 37  1  0
  1 38  1  0
  6 39  1  0
  7 40  1  0
 13 41  1  0
 13 42  1  0
 15 43  1  0
 16 44  1  0
 17 45  1  0
 18 46  1  0
 19 47  1  0
 27 48  1  0
 27 49  1  0
 28 50  1  0
 28 51  1  0
 30 52  1  0
 30 53  1  0
 31 54  1  0
 31 55  1  0
 33 56  1  0
 33 57  1  0
 34 58  1  0
 35 59  1  0
M  CHG  2   4  -1  24  -1
M  END
>  <UniqueID>  (34) 
32

>  <SMILES>  (34) 
CC(=O)[N-]c1ccc(S(=O)(=O)N(Cc2ccccc2)c2nc(=O)[n-]c(N3CCOCC3)c2N)cc1

>  <Energy>  (34) 
77.31414649499463

>  <Genealogy>  (34) 
CC(=O)[N-]c1ccc(S(=O)(=O)N(Cc2ccccc2)c2nc(=O)[n-]c(N3CCOCC3)c2N)cc1 (protonated)
CC(=O)[N-]c1ccc(S(=O)(=O)N(Cc2ccccc2)c2nc(=O)[n-]c(N3CCOCC3)c2N)cc1 (3D coordinates assigned)
CC(=O)[N-]c1ccc(S(=O)(=O)N(Cc2ccccc2)c2nc(=O)[n-]c(N3CCOCC3)c2N)cc1 (nonaromatic ring conformer: 77.31414649499463 kcal/mol)

>  <smiles>  (34) 
CC(=O)Nc1ccc(S(=O)(=O)N(Cc2ccccc2)c2nc(=O)[nH]c(N3CCOCC3)c2N)cc1

>  <score_type>  (34) 
oracle

>  <origin>  (34) 
adg

>  <m_score__min__energy>  (34) 
-11.08

>  <m_primary>  (34) 
energy

$$$$
34:0
     RDKit          3D

 58 61  0  0  0  0  0  0  0  0999 V2000
   55.3020   25.5310   45.6300 C   0  0  0  0  0  0  0  0  0  0  0  0
   56.0140   26.7310   45.9120 O   0  0  0  0  0  0  0  0  0  0  0  0
   57.4140   26.8370   45.9630 C   0  0  0  0  0  0  0  0  0  0  0  0
   58.1790   26.1740   46.9420 C   0  0  0  0  0  0  0  0  0  0  0  0
   59.5710   26.3100   46.9580 C   0  0  0  0  0  0  0  0  0  0  0  0
   60.2120   27.1070   46.0040 C   0  0  0  0  0  0  0  0  0  0  0  0
   59.4630   27.7710   45.0320 C   0  0  0  0  0  0  0  0  0  0  0  0
   58.0680   27.6370   45.0070 C   0  0  0  0  0  0  0  0  0  0  0  0
   57.3100   28.3420   44.0240 N   0  0  0  0  0  0  0  0  0  0  0  0
   56.6300   29.8880   44.3940 S   0  0  0  0  0  0  0  0  0  0  0  0
   56.3360   30.6280   43.1180 O   0  0  0  0  0  0  0  0  0  0  0  0
   55.3460   29.7020   45.1530 O   0  0  0  0  0  0  0  0  0  0  0  0
   57.7700   30.7880   45.3900 C   0  0  0  0  0  0  0  0  0  0  0  0
   58.1390   32.0940   45.0470 C   0  0  0  0  0  0  0  0  0  0  0  0
   59.1110   32.7660   45.7900 C   0  0  0  0  0  0  0  0  0  0  0  0
   59.7290   32.1390   46.8790 C   0  0  0  0  0  0  0  0  0  0  0  0
   60.7290   32.8550   47.6200 N   0  0  0  0  0  0  0  0  0  0  0  0
   62.1030   32.8790   47.1010 C   0  0  0  0  0  0  0  0  0  0  0  0
   63.0850   33.4520   48.1270 C   0  0  0  0  0  0  0  0  0  0  0  0
   62.5490   34.6030   48.7420 O   0  0  0  0  0  0  0  0  0  0  0  0
   61.4660   34.2200   49.5630 C   0  0  0  0  0  0  0  0  0  0  0  0
   60.2870   33.7200   48.7220 C   0  0  0  0  0  0  0  0  0  0  0  0
   59.3640   30.8220   47.2360 C   0  0  0  0  0  0  0  0  0  0  0  0
   60.0570   30.1360   48.2940 N   0  0  0  0  0  0  0  0  0  0  0  0
   59.4150   29.6670   49.4920 C   0  0  0  0  0  0  0  0  0  0  0  0
   58.3280   30.1860   49.8620 O   0  0  0  0  0  0  0  0  0  0  0  0
   60.0420   28.6180   50.3280 C   0  0  0  0  0  0  0  0  0  0  0  0
   60.1260   28.7610   51.7270 C   0  0  0  0  0  0  0  0  0  0  0  0
   60.7270   27.7670   52.5080 C   0  0  0  0  0  0  0  0  0  0  0  0
   61.2580   26.6210   51.9020 C   0  0  0  0  0  0  0  0  0  0  0  0
   61.8850   25.6050   52.7070 C   0  0  0  0  0  0  0  0  0  0  0  0
   62.3900   24.7890   53.3530 N   0  0  0  0  0  0  0  0  0  0  0  0
   61.1860   26.4730   50.5130 C   0  0  0  0  0  0  0  0  0  0  0  0
   60.5870   27.4660   49.7300 C   0  0  0  0  0  0  0  0  0  0  0  0
   58.3830   30.1580   46.4800 C   0  0  0  0  0  0  0  0  0  0  0  0
   55.0138   25.0452   46.5739 H   0  0  0  0  0  0  0  0  0  0  0  0
   54.3986   25.7686   45.0491 H   0  0  0  0  0  0  0  0  0  0  0  0
   55.9434   24.8520   45.0491 H   0  0  0  0  0  0  0  0  0  0  0  0
   57.6804   25.5474   47.6962 H   0  0  0  0  0  0  0  0  0  0  0  0
   60.1638   25.7882   47.7237 H   0  0  0  0  0  0  0  0  0  0  0  0
   61.3070   27.2104   46.0200 H   0  0  0  0  0  0  0  0  0  0  0  0
   59.9679   28.4004   44.2844 H   0  0  0  0  0  0  0  0  0  0  0  0
   57.6619   32.5919   44.1900 H   0  0  0  0  0  0  0  0  0  0  0  0
   59.3931   33.7940   45.5185 H   0  0  0  0  0  0  0  0  0  0  0  0
   62.4076   31.8521   46.8505 H   0  0  0  0  0  0  0  0  0  0  0  0
   62.1223   33.5238   46.2100 H   0  0  0  0  0  0  0  0  0  0  0  0
   63.2872   32.6925   48.8966 H   0  0  0  0  0  0  0  0  0  0  0  0
   64.0155   33.7285   47.6096 H   0  0  0  0  0  0  0  0  0  0  0  0
   61.7934   33.4150   50.2374 H   0  0  0  0  0  0  0  0  0  0  0  0
   61.1371   35.0971   50.1396 H   0  0  0  0  0  0  0  0  0  0  0  0
   59.6043   33.1503   49.3696 H   0  0  0  0  0  0  0  0  0  0  0  0
   59.7824   34.5954   48.2873 H   0  0  0  0  0  0  0  0  0  0  0  0
   61.0940   30.0360   48.2240 H   0  0  0  0  0  0  0  0  0  0  0  0
   59.7161   29.6607   52.2093 H   0  0  0  0  0  0  0  0  0  0  0  0
   60.7825   27.8860   53.6001 H   0  0  0  0  0  0  0  0  0  0  0  0
   61.6014   25.5736   50.0349 H   0  0  0  0  0  0  0  0  0  0  0  0
   60.5416   27.3454   48.6376 H   0  0  0  0  0  0  0  0  0  0  0  0
   58.0932   29.1312   46.7477 H   0  0  0  0  0  0  0  0  0  0  0  0
  1  2  1  0
  2  3  1  0
  3  4  2  0
  4  5  1  0
  5  6  2  0
  6  7  1  0
  7  8  2  0
  8  9  1  0
  9 10  1  0
 10 11  2  0
 10 12  2  0
 10 13  1  0
 13 14  2  0
 14 15  1  0
 15 16  2  0
 16 17  1  0
 17 18  1  0
 18 19  1  0
 19 20  1  0
 20 21  1  0
 21 22  1  0
 16 23  1  0
 23 24  1  0
 24 25  1  0
 25 26  2  0
 25 27  1  0
 27 28  2  0
 28 29  1  0
 29 30  2  0
 30 31  1  0
 31 32  3  0
 30 33  1  0
 33 34  2  0
 23 35  2  0
  8  3  1  0
 35 13  1  0
 22 17  1  0
 34 27  1  0
  1 36  1  0
  1 37  1  0
  1 38  1  0
  4 39  1  0
  5 40  1  0
  6 41  1  0
  7 42  1  0
 14 43  1  0
 15 44  1  0
 18 45  1  0
 18 46  1  0
 19 47  1  0
 19 48  1  0
 21 49  1  0
 21 50  1  0
 22 51  1  0
 22 52  1  0
 24 53  1  0
 28 54  1  0
 29 55  1  0
 33 56  1  0
 34 57  1  0
 35 58  1  0
M  CHG  1   9  -1
M  END
>  <UniqueID>  (35) 
33

>  <SMILES>  (35) 
COc1ccccc1[N-]S(=O)(=O)c1ccc(N2CCOCC2)c(NC(=O)c2ccc(C#N)cc2)c1

>  <Energy>  (35) 
80.50382437249966

>  <Genealogy>  (35) 
COc1ccccc1[N-]S(=O)(=O)c1ccc(N2CCOCC2)c(NC(=O)c2ccc(C#N)cc2)c1 (protonated)
COc1ccccc1[N-]S(=O)(=O)c1ccc(N2CCOCC2)c(NC(=O)c2ccc(C#N)cc2)c1 (3D coordinates assigned)
COc1ccccc1[N-]S(=O)(=O)c1ccc(N2CCOCC2)c(NC(=O)c2ccc(C#N)cc2)c1 (nonaromatic ring conformer: 80.50382437249966 kcal/mol)

>  <smiles>  (35) 
COc1ccccc1NS(=O)(=O)c1ccc(N2CCOCC2)c(NC(=O)c2ccc(C#N)cc2)c1

>  <score_type>  (35) 
oracle

>  <origin>  (35) 
adg

>  <m_score__min__energy>  (35) 
-10.69

>  <m_primary>  (35) 
energy

$$$$
35:0
     RDKit          3D

 45 48  0  0  0  0  0  0  0  0999 V2000
   56.9760   24.4920   43.3960 C   0  0  0  0  0  0  0  0  0  0  0  0
   56.7730   23.6560   44.6330 C   0  0  0  0  0  0  0  0  0  0  0  0
   57.5360   22.4880   44.8030 C   0  0  0  0  0  0  0  0  0  0  0  0
   57.3710   21.6890   45.9360 C   0  0  0  0  0  0  0  0  0  0  0  0
   56.4410   22.0440   46.9120 C   0  0  0  0  0  0  0  0  0  0  0  0
   55.6810   23.2070   46.7650 C   0  0  0  0  0  0  0  0  0  0  0  0
   55.8480   24.0340   45.6410 C   0  0  0  0  0  0  0  0  0  0  0  0
   54.9930   25.2690   45.5120 C   0  0  0  0  0  0  0  0  0  0  0  0
   55.5320   26.3230   46.3600 N   0  0  0  0  0  0  0  0  0  0  0  0
   56.9350   26.5190   46.5590 C   0  0  0  0  0  0  0  0  0  0  0  0
   57.6670   25.5380   46.8560 O   0  0  0  0  0  0  0  0  0  0  0  0
   57.5090   27.8660   46.3750 C   0  0  0  0  0  0  0  0  0  0  0  0
   58.9590   28.3520   47.1060 S   0  0  0  0  0  0  0  0  0  0  0  0
   58.9110   29.9150   46.5150 C   0  0  0  0  0  0  0  0  0  0  0  0
   59.8300   30.8890   46.7250 N   0  0  0  0  0  0  0  0  0  0  0  0
   59.6450   32.1170   46.1620 C   0  0  0  0  0  0  0  0  0  0  0  0
   58.5130   32.3760   45.3620 C   0  0  0  0  0  0  0  0  0  0  0  0
   57.5740   31.3520   45.1350 C   0  0  0  0  0  0  0  0  0  0  0  0
   57.7820   30.1050   45.7380 C   0  0  0  0  0  0  0  0  0  0  0  0
   56.9800   28.9500   45.6450 C   0  0  0  0  0  0  0  0  0  0  0  0
   55.7820   28.8880   44.8580 N   0  0  0  0  0  0  0  0  0  0  0  0
   58.3910   33.7170   44.6910 C   0  0  0  0  0  0  0  0  0  0  0  0
   58.8240   34.8790   45.6140 C   0  0  0  0  0  0  0  0  0  0  0  0
   59.9210   34.5290   46.6540 C   0  0  0  0  0  0  0  0  0  0  0  0
   60.6490   33.2100   46.3680 C   0  0  0  0  0  0  0  0  0  0  0  0
   57.2263   25.5228   43.6871 H   0  0  0  0  0  0  0  0  0  0  0  0
   57.7977   24.0698   42.7989 H   0  0  0  0  0  0  0  0  0  0  0  0
   56.0522   24.4937   42.7989 H   0  0  0  0  0  0  0  0  0  0  0  0
   58.2702   22.2006   44.0360 H   0  0  0  0  0  0  0  0  0  0  0  0
   57.9756   20.7783   46.0587 H   0  0  0  0  0  0  0  0  0  0  0  0
   56.3054   21.4076   47.7989 H   0  0  0  0  0  0  0  0  0  0  0  0
   54.9450   23.4780   47.5363 H   0  0  0  0  0  0  0  0  0  0  0  0
   54.9910   25.6059   44.4649 H   0  0  0  0  0  0  0  0  0  0  0  0
   53.9641   25.0371   45.8244 H   0  0  0  0  0  0  0  0  0  0  0  0
   56.6951   31.5276   44.4972 H   0  0  0  0  0  0  0  0  0  0  0  0
   55.1470   28.0620   44.9040 H   0  0  0  0  0  0  0  0  0  0  0  0
   55.4680   29.6850   44.2680 H   0  0  0  0  0  0  0  0  0  0  0  0
   59.0275   33.7224   43.7939 H   0  0  0  0  0  0  0  0  0  0  0  0
   57.3321   33.8688   44.4347 H   0  0  0  0  0  0  0  0  0  0  0  0
   59.2051   35.6926   44.9794 H   0  0  0  0  0  0  0  0  0  0  0  0
   57.9314   35.1532   46.1954 H   0  0  0  0  0  0  0  0  0  0  0  0
   60.6637   35.3404   46.6606 H   0  0  0  0  0  0  0  0  0  0  0  0
   59.4159   34.4115   47.6241 H   0  0  0  0  0  0  0  0  0  0  0  0
   61.2625   33.3194   45.4615 H   0  0  0  0  0  0  0  0  0  0  0  0
   61.2954   32.9567   47.2213 H   0  0  0  0  0  0  0  0  0  0  0  0
  1  2  1  0
  2  3  2  0
  3  4  1  0
  4  5  2  0
  5  6  1  0
  6  7  2  0
  7  8  1  0
  8  9  1  0
  9 10  1  0
 10 11  2  0
 10 12  1  0
 12 13  1  0
 13 14  1  0
 14 15  2  0
 15 16  1  0
 16 17  2  0
 17 18  1  0
 18 19  2  0
 19 20  1  0
 20 21  1  0
 17 22  1  0
 22 23  1  0
 23 24  1  0
 24 25  1  0
  7  2  1  0
 20 12  2  0
 19 14  1  0
 25 16  1  0
  1 26  1  0
  1 27  1  0
  1 28  1  0
  3 29  1  0
  4 30  1  0
  5 31  1  0
  6 32  1  0
  8 33  1  0
  8 34  1  0
 18 35  1  0
 21 36  1  0
 21 37  1  0
 22 38  1  0
 22 39  1  0
 23 40  1  0
 23 41  1  0
 24 42  1  0
 24 43  1  0
 25 44  1  0
 25 45  1  0
M  CHG  1   9  -1
M  END
>  <UniqueID>  (36) 
34

>  <SMILES>  (36) 
Cc1ccccc1C[N-]C(=O)c1sc2nc3c(cc2c1N)CCCC3

>  <Energy>  (36) 
85.18795212086174

>  <Genealogy>  (36) 
Cc1ccccc1C[N-]C(=O)c1sc2nc3c(cc2c1N)CCCC3 (protonated)
Cc1ccccc1C[N-]C(=O)c1sc2nc3c(cc2c1N)CCCC3 (3D coordinates assigned)
Cc1ccccc1C[N-]C(=O)c1sc2nc3c(cc2c1N)CCCC3 (nonaromatic ring conformer: 85.18795212086174 kcal/mol)

>  <smiles>  (36) 
Cc1ccccc1CNC(=O)c1sc2nc3c(cc2c1N)CCCC3

>  <score_type>  (36) 
oracle

>  <origin>  (36) 
adg

>  <m_score__min__energy>  (36) 
-10.99

>  <m_primary>  (36) 
energy

$$$$
36:0
     RDKit          3D

 27 29  0  0  0  0  0  0  0  0999 V2000
   59.6500   28.6040   45.1360 O   0  0  0  0  0  0  0  0  0  0  0  0
   58.4700   28.1770   45.2870 C   0  0  0  0  0  0  0  0  0  0  0  0
   57.3750   29.0340   45.0500 C   0  0  0  0  0  0  0  0  0  0  0  0
   57.5850   30.4320   44.6020 C   0  0  0  0  0  0  0  0  0  0  0  0
   57.9410   31.4290   45.5270 C   0  0  0  0  0  0  0  0  0  0  0  0
   58.1390   32.7460   45.1020 C   0  0  0  0  0  0  0  0  0  0  0  0
   57.9840   33.0790   43.7540 C   0  0  0  0  0  0  0  0  0  0  0  0
   57.6310   32.0940   42.8270 C   0  0  0  0  0  0  0  0  0  0  0  0
   57.4330   30.7750   43.2470 C   0  0  0  0  0  0  0  0  0  0  0  0
   56.0720   28.5370   45.2460 C   0  0  0  0  0  0  0  0  0  0  0  0
   54.9630   29.3410   45.0060 O   0  0  0  0  0  0  0  0  0  0  0  0
   55.8820   27.2570   45.6570 N   0  0  0  0  0  0  0  0  0  0  0  0
   56.9170   26.4100   45.8910 C   0  0  0  0  0  0  0  0  0  0  0  0
   56.6640   25.1000   46.3130 C   0  0  0  0  0  0  0  0  0  0  0  0
   57.7250   24.2240   46.5560 C   0  0  0  0  0  0  0  0  0  0  0  0
   57.4700   22.9230   46.9740 O   0  0  0  0  0  0  0  0  0  0  0  0
   59.0440   24.6520   46.3770 C   0  0  0  0  0  0  0  0  0  0  0  0
   59.3080   25.9600   45.9560 C   0  0  0  0  0  0  0  0  0  0  0  0
   58.2470   26.8520   45.7080 C   0  0  0  0  0  0  0  0  0  0  0  0
   58.0642   31.1718   46.5894 H   0  0  0  0  0  0  0  0  0  0  0  0
   58.4174   33.5218   45.8305 H   0  0  0  0  0  0  0  0  0  0  0  0
   58.1397   34.1161   43.4222 H   0  0  0  0  0  0  0  0  0  0  0  0
   57.5088   32.3568   41.7659 H   0  0  0  0  0  0  0  0  0  0  0  0
   57.1571   30.0025   42.5141 H   0  0  0  0  0  0  0  0  0  0  0  0
   55.6276   24.7592   46.4537 H   0  0  0  0  0  0  0  0  0  0  0  0
   59.8764   23.9586   46.5677 H   0  0  0  0  0  0  0  0  0  0  0  0
   60.3475   26.2925   45.8183 H   0  0  0  0  0  0  0  0  0  0  0  0
  1  2  2  0
  2  3  1  0
  3  4  1  0
  4  5  2  0
  5  6  1  0
  6  7  2  0
  7  8  1  0
  8  9  2  0
  3 10  2  0
 10 11  1  0
 10 12  1  0
 12 13  1  0
 13 14  2  0
 14 15  1  0
 15 16  1  0
 15 17  2  0
 17 18  1  0
 18 19  2  0
 19  2  1  0
  9  4  1  0
 19 13  1  0
  5 20  1  0
  6 21  1  0
  7 22  1  0
  8 23  1  0
  9 24  1  0
 14 25  1  0
 17 26  1  0
 18 27  1  0
M  CHG  3  11  -1  12  -1  16  -1
M  END
>  <UniqueID>  (37) 
35

>  <SMILES>  (37) 
O=c1c(-c2ccccc2)c([O-])[n-]c2cc([O-])ccc12

>  <Energy>  (37) 
42.90753969873733

>  <Genealogy>  (37) 
O=c1c(-c2ccccc2)c([O-])[n-]c2cc([O-])ccc12 (protonated)
O=c1c(-c2ccccc2)c([O-])[n-]c2cc([O-])ccc12 (3D coordinates assigned)
O=c1c(-c2ccccc2)c([O-])[n-]c2cc([O-])ccc12 (optimized conformer: 42.90753969873733 kcal/mol)

>  <smiles>  (37) 
O=c1c(-c2ccccc2)c(O)[nH]c2cc(O)ccc12

>  <score_type>  (37) 
oracle

>  <origin>  (37) 
adg

>  <m_score__min__energy>  (37) 
-13.91

>  <m_primary>  (37) 
energy

$$$$
37:0
     RDKit          3D

 60 63  0  0  0  0  0  0  0  0999 V2000
   55.5070   29.7170   42.9970 O   0  0  0  0  0  0  0  0  0  0  0  0
   56.1380   30.0690   44.0290 C   0  0  0  0  0  0  0  0  0  0  0  0
   56.9700   31.3170   44.0070 C   0  0  0  0  0  0  0  0  0  0  0  0
   57.2670   31.7660   45.3690 N   0  0  0  0  0  0  0  0  0  0  0  0
   58.0940   32.9120   45.6490 C   0  0  0  0  0  0  0  0  0  0  0  0
   58.3700   33.8580   44.6480 C   0  0  0  0  0  0  0  0  0  0  0  0
   59.1910   34.9540   44.9180 C   0  0  0  0  0  0  0  0  0  0  0  0
   59.7480   35.1140   46.1850 C   0  0  0  0  0  0  0  0  0  0  0  0
   59.4880   34.1800   47.1880 C   0  0  0  0  0  0  0  0  0  0  0  0
   58.6570   33.0710   46.9310 C   0  0  0  0  0  0  0  0  0  0  0  0
   58.3970   32.0890   47.9030 O   0  0  0  0  0  0  0  0  0  0  0  0
   58.1440   32.3270   49.2880 C   0  0  0  0  0  0  0  0  0  0  0  0
   59.4210   32.1810   50.1300 C   0  0  0  0  0  0  0  0  0  0  0  0
   59.1370   32.0090   51.6290 C   0  0  0  0  0  0  0  0  0  0  0  0
   57.9500   31.1860   51.8530 N   0  0  0  0  0  0  0  0  0  0  0  0
   57.9020   29.8440   51.9460 C   0  0  0  0  0  0  0  0  0  0  0  0
   56.6450   29.3860   52.1230 N   0  0  0  0  0  0  0  0  0  0  0  0
   55.8770   30.4990   52.1330 C   0  0  0  0  0  0  0  0  0  0  0  0
   54.4050   30.4800   52.3080 C   0  0  0  0  0  0  0  0  0  0  0  0
   53.8180   30.1090   53.5350 C   0  0  0  0  0  0  0  0  0  0  0  0
   52.4270   30.0890   53.6760 C   0  0  0  0  0  0  0  0  0  0  0  0
   51.6070   30.4390   52.6010 C   0  0  0  0  0  0  0  0  0  0  0  0
   52.1770   30.8120   51.3820 C   0  0  0  0  0  0  0  0  0  0  0  0
   53.5670   30.8330   51.2340 C   0  0  0  0  0  0  0  0  0  0  0  0
   56.6820   31.6130   51.9640 C   0  0  0  0  0  0  0  0  0  0  0  0
   56.0540   29.2960   45.2270 N   0  0  0  0  0  0  0  0  0  0  0  0
   56.9550   28.2010   45.5530 C   0  0  0  0  0  0  0  0  0  0  0  0
   58.2380   28.7750   46.0790 C   0  0  0  0  0  0  0  0  0  0  0  0
   58.4700   28.8150   47.4630 C   0  0  0  0  0  0  0  0  0  0  0  0
   59.6900   29.2780   47.9620 C   0  0  0  0  0  0  0  0  0  0  0  0
   60.6890   29.7030   47.0810 C   0  0  0  0  0  0  0  0  0  0  0  0
   60.4690   29.6620   45.7020 C   0  0  0  0  0  0  0  0  0  0  0  0
   59.2510   29.1910   45.1990 C   0  0  0  0  0  0  0  0  0  0  0  0
   57.9139   31.1123   43.4805 H   0  0  0  0  0  0  0  0  0  0  0  0
   56.4074   32.1077   43.4891 H   0  0  0  0  0  0  0  0  0  0  0  0
   57.0210   31.1180   46.1500 H   0  0  0  0  0  0  0  0  0  0  0  0
   57.9362   33.7343   43.6447 H   0  0  0  0  0  0  0  0  0  0  0  0
   59.3985   35.6924   44.1295 H   0  0  0  0  0  0  0  0  0  0  0  0
   60.3944   35.9789   46.3949 H   0  0  0  0  0  0  0  0  0  0  0  0
   59.9340   34.3098   48.1851 H   0  0  0  0  0  0  0  0  0  0  0  0
   57.7515   33.3475   49.4089 H   0  0  0  0  0  0  0  0  0  0  0  0
   57.4146   31.5814   49.6374 H   0  0  0  0  0  0  0  0  0  0  0  0
   59.9755   31.2997   49.7753 H   0  0  0  0  0  0  0  0  0  0  0  0
   60.0010   33.1079   50.0101 H   0  0  0  0  0  0  0  0  0  0  0  0
   60.0031   31.5259   52.1048 H   0  0  0  0  0  0  0  0  0  0  0  0
   58.9580   33.0029   52.0650 H   0  0  0  0  0  0  0  0  0  0  0  0
   58.7874   29.1941   51.8847 H   0  0  0  0  0  0  0  0  0  0  0  0
   54.4580   29.8337   54.3863 H   0  0  0  0  0  0  0  0  0  0  0  0
   51.9773   29.7968   54.6364 H   0  0  0  0  0  0  0  0  0  0  0  0
   50.5130   30.4209   52.7145 H   0  0  0  0  0  0  0  0  0  0  0  0
   51.5308   31.0899   50.5363 H   0  0  0  0  0  0  0  0  0  0  0  0
   54.0090   31.1277   50.2708 H   0  0  0  0  0  0  0  0  0  0  0  0
   56.3436   32.6590   51.9273 H   0  0  0  0  0  0  0  0  0  0  0  0
   56.4954   27.5587   46.3186 H   0  0  0  0  0  0  0  0  0  0  0  0
   57.1541   27.5988   44.6543 H   0  0  0  0  0  0  0  0  0  0  0  0
   57.6866   28.4798   48.1586 H   0  0  0  0  0  0  0  0  0  0  0  0
   59.8646   29.3082   49.0476 H   0  0  0  0  0  0  0  0  0  0  0  0
   61.6487   30.0699   47.4739 H   0  0  0  0  0  0  0  0  0  0  0  0
   61.2545   30.0005   45.0104 H   0  0  0  0  0  0  0  0  0  0  0  0
   59.0864   29.1464   44.1123 H   0  0  0  0  0  0  0  0  0  0  0  0
  1  2  2  0
  2  3  1  0
  3  4  1  0
  4  5  1  0
  5  6  2  0
  6  7  1  0
  7  8  2  0
  8  9  1  0
  9 10  2  0
 10 11  1  0
 11 12  1  0
 12 13  1  0
 13 14  1  0
 14 15  1  0
 15 16  1  0
 16 17  2  0
 17 18  1  0
 18 19  1  0
 19 20  2  0
 20 21  1  0
 21 22  2  0
 22 23  1  0
 23 24  2  0
 18 25  2  0
  2 26  1  0
 26 27  1  0
 27 28  1  0
 28 29  2  0
 29 30  1  0
 30 31  2  0
 31 32  1  0
 32 33  2  0
 10  5  1  0
 25 15  1  0
 33 28  1  0
 24 19  1  0
  3 34  1  0
  3 35  1  0
  4 36  1  0
  6 37  1  0
  7 38  1  0
  8 39  1  0
  9 40  1  0
 12 41  1  0
 12 42  1  0
 13 43  1  0
 13 44  1  0
 14 45  1  0
 14 46  1  0
 16 47  1  0
 20 48  1  0
 21 49  1  0
 22 50  1  0
 23 51  1  0
 24 52  1  0
 25 53  1  0
 27 54  1  0
 27 55  1  0
 29 56  1  0
 30 57  1  0
 31 58  1  0
 32 59  1  0
 33 60  1  0
M  CHG  1  26  -1
M  END
>  <UniqueID>  (38) 
36

>  <SMILES>  (38) 
O=C(CNc1ccccc1OCCCn1cnc(-c2ccccc2)c1)[N-]Cc1ccccc1

>  <Energy>  (38) 
85.21611220827045

>  <Genealogy>  (38) 
O=C(CNc1ccccc1OCCCn1cnc(-c2ccccc2)c1)[N-]Cc1ccccc1 (protonated)
O=C(CNc1ccccc1OCCCn1cnc(-c2ccccc2)c1)[N-]Cc1ccccc1 (3D coordinates assigned)
O=C(CNc1ccccc1OCCCn1cnc(-c2ccccc2)c1)[N-]Cc1ccccc1 (optimized conformer: 85.21611220827045 kcal/mol)

>  <smiles>  (38) 
O=C(CNc1ccccc1OCCCn1cnc(-c2ccccc2)c1)NCc1ccccc1

>  <score_type>  (38) 
oracle

>  <origin>  (38) 
adg

>  <m_score__min__energy>  (38) 
-11.640000000000001

>  <m_primary>  (38) 
energy

$$$$
38:0
     RDKit          3D

 60 63  0  0  0  0  0  0  0  0999 V2000
   54.9230   31.6540   51.1810 H   0  0  0  0  0  0  0  0  0  0  0  0
   55.3770   31.2340   52.0210 N   0  0  0  0  0  0  0  0  0  0  0  0
   56.6300   30.5600   51.9200 C   0  0  0  0  0  0  0  0  0  0  0  0
   56.6770   29.3180   52.1270 O   0  0  0  0  0  0  0  0  0  0  0  0
   57.8640   31.3100   51.5880 C   0  0  0  0  0  0  0  0  0  0  0  0
   57.9250   32.7000   51.7770 C   0  0  0  0  0  0  0  0  0  0  0  0
   57.0524   33.2345   52.1805 H   0  0  0  0  0  0  0  0  0  0  0  0
   59.0840   33.4090   51.4570 C   0  0  0  0  0  0  0  0  0  0  0  0
   59.1187   34.4972   51.6137 H   0  0  0  0  0  0  0  0  0  0  0  0
   60.2030   32.7460   50.9380 C   0  0  0  0  0  0  0  0  0  0  0  0
   61.3720   33.5130   50.6000 N   0  0  0  0  0  0  0  0  0  0  0  0
   61.8430   34.0400   51.3700 H   0  0  0  0  0  0  0  0  0  0  0  0
   61.9900   33.5110   49.3010 C   0  0  0  0  0  0  0  0  0  0  0  0
   61.2110   33.7840   48.1670 C   0  0  0  0  0  0  0  0  0  0  0  0
   60.1358   33.9876   48.2788 H   0  0  0  0  0  0  0  0  0  0  0  0
   61.7920   33.7990   46.8960 C   0  0  0  0  0  0  0  0  0  0  0  0
   61.1716   34.0034   46.0110 H   0  0  0  0  0  0  0  0  0  0  0  0
   63.1580   33.5550   46.7480 C   0  0  0  0  0  0  0  0  0  0  0  0
   63.6129   33.5651   45.7465 H   0  0  0  0  0  0  0  0  0  0  0  0
   63.9480   33.2980   47.8710 C   0  0  0  0  0  0  0  0  0  0  0  0
   65.0251   33.1081   47.7536 H   0  0  0  0  0  0  0  0  0  0  0  0
   63.3700   33.2820   49.1450 C   0  0  0  0  0  0  0  0  0  0  0  0
   63.9966   33.0897   50.0284 H   0  0  0  0  0  0  0  0  0  0  0  0
   60.1340   31.3620   50.6830 C   0  0  0  0  0  0  0  0  0  0  0  0
   61.2490   30.6890   50.0670 N   0  0  0  0  0  0  0  0  0  0  0  0
   61.5060   30.6590   48.8140 N   0  0  0  0  0  0  0  0  0  0  0  0
   60.7720   29.9120   47.8320 C   0  0  0  0  0  0  0  0  0  0  0  0
   60.5030   30.4440   46.5600 C   0  0  0  0  0  0  0  0  0  0  0  0
   60.8976   31.4333   46.2850 H   0  0  0  0  0  0  0  0  0  0  0  0
   59.7360   29.7210   45.6430 C   0  0  0  0  0  0  0  0  0  0  0  0
   59.5063   30.1535   44.6580 H   0  0  0  0  0  0  0  0  0  0  0  0
   59.2590   28.4470   45.9750 C   0  0  0  0  0  0  0  0  0  0  0  0
   58.2120   27.5820   44.8570 S   0  0  0  0  0  0  0  0  0  0  0  0
   58.0000   26.1670   45.3200 O   0  0  0  0  0  0  0  0  0  0  0  0
   58.8480   27.5470   43.4960 O   0  0  0  0  0  0  0  0  0  0  0  0
   56.6900   28.3980   44.7520 N   0  0  0  0  0  0  0  0  0  0  0  0
   56.5850   29.7910   44.4530 C   0  0  0  0  0  0  0  0  0  0  0  0
   55.5880   30.4520   44.8490 O   0  0  0  0  0  0  0  0  0  0  0  0
   57.6220   30.4310   43.7010 N   0  0  0  0  0  0  0  0  0  0  0  0
   58.4710   29.8780   43.4440 H   0  0  0  0  0  0  0  0  0  0  0  0
   57.5280   31.8200   43.2570 C   0  0  0  0  0  0  0  0  0  0  0  0
   58.2023   31.9749   42.4019 H   0  0  0  0  0  0  0  0  0  0  0  0
   56.4907   32.0332   42.9595 H   0  0  0  0  0  0  0  0  0  0  0  0
   57.9200   32.7480   44.3740 C   0  0  0  0  0  0  0  0  0  0  0  0
   58.8380   33.7850   44.1350 C   0  0  0  0  0  0  0  0  0  0  0  0
   59.2908   33.8971   43.1388 H   0  0  0  0  0  0  0  0  0  0  0  0
   59.1780   34.6750   45.1590 C   0  0  0  0  0  0  0  0  0  0  0  0
   59.9013   35.4815   44.9682 H   0  0  0  0  0  0  0  0  0  0  0  0
   58.6000   34.5410   46.4240 C   0  0  0  0  0  0  0  0  0  0  0  0
   58.8672   35.2427   47.2279 H   0  0  0  0  0  0  0  0  0  0  0  0
   57.6820   33.5150   46.6680 C   0  0  0  0  0  0  0  0  0  0  0  0
   57.2274   33.4103   47.6642 H   0  0  0  0  0  0  0  0  0  0  0  0
   57.3410   32.6220   45.6480 C   0  0  0  0  0  0  0  0  0  0  0  0
   56.6166   31.8176   45.8435 H   0  0  0  0  0  0  0  0  0  0  0  0
   59.5760   27.8910   47.2220 C   0  0  0  0  0  0  0  0  0  0  0  0
   59.2228   26.8813   47.4786 H   0  0  0  0  0  0  0  0  0  0  0  0
   60.3400   28.6170   48.1400 C   0  0  0  0  0  0  0  0  0  0  0  0
   60.6030   28.1683   49.1093 H   0  0  0  0  0  0  0  0  0  0  0  0
   58.9840   30.6460   51.0610 C   0  0  0  0  0  0  0  0  0  0  0  0
   58.9614   29.5526   50.9425 H   0  0  0  0  0  0  0  0  0  0  0  0
  1  2  1  0
  2  3  1  0
  3  4  2  0
  3  5  1  0
  5  6  2  0
  6  7  1  0
  6  8  1  0
  8  9  1  0
  8 10  2  0
 10 11  1  0
 11 12  1  0
 11 13  1  0
 13 14  2  0
 14 15  1  0
 14 16  1  0
 16 17  1  0
 16 18  2  0
 18 19  1  0
 18 20  1  0
 20 21  1  0
 20 22  2  0
 22 23  1  0
 10 24  1  0
 24 25  1  0
 25 26  2  0
 26 27  1  0
 27 28  2  0
 28 29  1  0
 28 30  1  0
 30 31  1  0
 30 32  2  0
 32 33  1  0
 33 34  2  0
 33 35  2  0
 33 36  1  0
 36 37  1  0
 37 38  2  0
 37 39  1  0
 39 40  1  0
 39 41  1  0
 41 42  1  0
 41 43  1  0
 41 44  1  0
 44 45  2  0
 45 46  1  0
 45 47  1  0
 47 48  1  0
 47 49  2  0
 49 50  1  0
 49 51  1  0
 51 52  1  0
 51 53  2  0
 53 54  1  0
 32 55  1  0
 55 56  1  0
 55 57  2  0
 57 58  1  0
 24 59  2  0
 59 60  1  0
 59  5  1  0
 22 13  1  0
 57 27  1  0
 53 44  1  0
M  CHG  2   2  -1  36  -1
M  END
>  <UniqueID>  (39) 
37

>  <SMILES>  (39) 
[NH-]C(=O)c1ccc(Nc2ccccc2)c(/N=N\c2ccc(S(=O)(=O)[N-]C(=O)NCc3ccccc3)cc2)c1

>  <Energy>  (39) 
82.37358670941516

>  <Genealogy>  (39) 
[NH-]C(=O)c1ccc(Nc2ccccc2)c(N=Nc2ccc(S(=O)(=O)[N-]C(=O)NCc3ccccc3)cc2)c1 (protonated)
[NH-]C(=O)c1ccc(Nc2ccccc2)c(/N=N\c2ccc(S(=O)(=O)[N-]C(=O)NCc3ccccc3)cc2)c1 (cis-trans isomerization)
[NH-]C(=O)c1ccc(Nc2ccccc2)c(/N=N\c2ccc(S(=O)(=O)[N-]C(=O)NCc3ccccc3)cc2)c1 (3D coordinates assigned)
[NH-]C(=O)c1ccc(Nc2ccccc2)c(/N=N\c2ccc(S(=O)(=O)[N-]C(=O)NCc3ccccc3)cc2)c1 (optimized conformer: 82.37358670941516 kcal/mol)

>  <smiles>  (39) 
NC(=O)c1ccc(Nc2ccccc2)c(N=Nc2ccc(S(=O)(=O)NC(=O)NCc3ccccc3)cc2)c1

>  <score_type>  (39) 
oracle

>  <origin>  (39) 
adg

>  <m_score__min__energy>  (39) 
-13.970000000000001

>  <m_primary>  (39) 
energy

$$$$
39:0
     RDKit          3D

 24 25  0  0  0  0  0  0  0  0999 V2000
   57.0290   22.9620   48.0330 O   0  0  0  0  0  0  0  0  0  0  0  0
   57.1860   23.8700   47.1750 C   0  0  0  0  0  0  0  0  0  0  0  0
   56.2340   24.8270   47.0240 N   0  0  0  0  0  0  0  0  0  0  0  0
   56.3740   25.8180   46.1060 C   0  0  0  0  0  0  0  0  0  0  0  0
   55.4760   26.6940   45.9950 O   0  0  0  0  0  0  0  0  0  0  0  0
   57.5140   25.8560   45.2940 C   0  0  0  0  0  0  0  0  0  0  0  0
   57.7470   27.1450   44.0620 S   0  0  0  0  0  0  0  0  0  0  0  0
   58.4620   28.2960   45.2480 C   0  0  0  0  0  0  0  0  0  0  0  0
   59.6490   27.9210   45.8940 C   0  0  0  0  0  0  0  0  0  0  0  0
   60.2120   28.7400   46.8730 C   0  0  0  0  0  0  0  0  0  0  0  0
   59.5950   29.9420   47.2170 C   0  0  0  0  0  0  0  0  0  0  0  0
   58.4190   30.3350   46.5740 C   0  0  0  0  0  0  0  0  0  0  0  0
   57.8450   29.5310   45.5740 C   0  0  0  0  0  0  0  0  0  0  0  0
   56.6490   29.9820   44.9130 N   0  0  0  0  0  0  0  0  0  0  0  0
   56.5570   31.1520   44.4880 O   0  0  0  0  0  0  0  0  0  0  0  0
   55.5290   29.1830   44.8970 O   0  0  0  0  0  0  0  0  0  0  0  0
   58.4850   24.8690   45.4720 C   0  0  0  0  0  0  0  0  0  0  0  0
   58.3060   23.8950   46.4020 N   0  0  0  0  0  0  0  0  0  0  0  0
   60.1399   26.9736   45.6266 H   0  0  0  0  0  0  0  0  0  0  0  0
   61.1434   28.4372   47.3739 H   0  0  0  0  0  0  0  0  0  0  0  0
   60.0351   30.5819   47.9960 H   0  0  0  0  0  0  0  0  0  0  0  0
   57.9370   31.2836   46.8531 H   0  0  0  0  0  0  0  0  0  0  0  0
   59.3974   24.8799   44.8577 H   0  0  0  0  0  0  0  0  0  0  0  0
   59.0390   23.1600   46.5210 H   0  0  0  0  0  0  0  0  0  0  0  0
  1  2  2  0
  2  3  1  0
  3  4  1  0
  4  5  2  0
  4  6  1  0
  6  7  1  0
  7  8  1  0
  8  9  2  0
  9 10  1  0
 10 11  2  0
 11 12  1  0
 12 13  2  0
 13 14  1  0
 14 15  2  0
 14 16  1  0
  6 17  2  0
 17 18  1  0
 18  2  1  0
 13  8  1  0
  9 19  1  0
 10 20  1  0
 11 21  1  0
 12 22  1  0
 17 23  1  0
 18 24  1  0
M  CHG  3   3  -1  14   1  16  -1
M  END
>  <UniqueID>  (40) 
38

>  <SMILES>  (40) 
O=c1[n-]c(=O)c(Sc2ccccc2[N+](=O)[O-])c[nH]1

>  <Energy>  (40) 
26.68457111118621

>  <Genealogy>  (40) 
O=c1[n-]c(=O)c(Sc2ccccc2[N+](=O)[O-])c[nH]1 (protonated)
O=c1[n-]c(=O)c(Sc2ccccc2[N+](=O)[O-])c[nH]1 (3D coordinates assigned)
O=c1[n-]c(=O)c(Sc2ccccc2[N+](=O)[O-])c[nH]1 (optimized conformer: 26.68457111118621 kcal/mol)

>  <smiles>  (40) 
O=c1[nH]cc(Sc2ccccc2[N+](=O)[O-])c(=O)[nH]1

>  <score_type>  (40) 
oracle

>  <origin>  (40) 
adg

>  <m_score__min__energy>  (40) 
-8.9199999999999999

>  <m_primary>  (40) 
energy

$$$$
40:0
     RDKit          3D

 43 45  0  0  0  0  0  0  0  0999 V2000
   56.6590   31.1250   44.0580 C   0  0  0  0  0  0  0  0  0  0  0  0
   56.6370   32.2830   44.8860 O   0  0  0  0  0  0  0  0  0  0  0  0
   57.7250   32.7300   45.6510 C   0  0  0  0  0  0  0  0  0  0  0  0
   58.7880   33.3560   44.9920 C   0  0  0  0  0  0  0  0  0  0  0  0
   59.8950   33.8200   45.7080 C   0  0  0  0  0  0  0  0  0  0  0  0
   59.9560   33.6650   47.1040 C   0  0  0  0  0  0  0  0  0  0  0  0
   61.1310   34.1550   47.8580 C   0  0  0  0  0  0  0  0  0  0  0  0
   60.9700   34.7600   48.9550 O   0  0  0  0  0  0  0  0  0  0  0  0
   62.4210   33.9490   47.3520 O   0  0  0  0  0  0  0  0  0  0  0  0
   62.9820   32.6560   47.1360 C   0  0  0  0  0  0  0  0  0  0  0  0
   62.0330   31.5960   47.5950 C   0  0  0  0  0  0  0  0  0  0  0  0
   61.2220   30.8120   46.8000 C   0  0  0  0  0  0  0  0  0  0  0  0
   60.5950   29.9540   47.6270 N   0  0  0  0  0  0  0  0  0  0  0  0
   59.6480   28.9300   47.2630 C   0  0  0  0  0  0  0  0  0  0  0  0
   58.5620   29.2270   46.4220 C   0  0  0  0  0  0  0  0  0  0  0  0
   57.6430   28.2320   46.0720 C   0  0  0  0  0  0  0  0  0  0  0  0
   57.7940   26.9280   46.5600 C   0  0  0  0  0  0  0  0  0  0  0  0
   56.6440   25.6720   46.1120 S   0  0  0  0  0  0  0  0  0  0  0  0
   55.0560   26.3440   45.9930 N   0  0  0  0  0  0  0  0  0  0  0  0
   57.0190   25.0840   44.7810 O   0  0  0  0  0  0  0  0  0  0  0  0
   56.6540   24.5920   47.1550 O   0  0  0  0  0  0  0  0  0  0  0  0
   58.8760   26.6240   47.3940 C   0  0  0  0  0  0  0  0  0  0  0  0
   59.7960   27.6170   47.7460 C   0  0  0  0  0  0  0  0  0  0  0  0
   61.0140   30.2100   48.8600 N   0  0  0  0  0  0  0  0  0  0  0  0
   61.8930   31.2010   48.8760 N   0  0  0  0  0  0  0  0  0  0  0  0
   58.8880   33.0360   47.7660 C   0  0  0  0  0  0  0  0  0  0  0  0
   57.7810   32.5720   47.0480 C   0  0  0  0  0  0  0  0  0  0  0  0
   56.6761   30.2237   44.6884 H   0  0  0  0  0  0  0  0  0  0  0  0
   55.7610   31.1112   43.4229 H   0  0  0  0  0  0  0  0  0  0  0  0
   57.5569   31.1453   43.4229 H   0  0  0  0  0  0  0  0  0  0  0  0
   58.7525   33.4843   43.9001 H   0  0  0  0  0  0  0  0  0  0  0  0
   60.7239   34.3096   45.1758 H   0  0  0  0  0  0  0  0  0  0  0  0
   63.1838   32.5225   46.0629 H   0  0  0  0  0  0  0  0  0  0  0  0
   63.9175   32.5714   47.7085 H   0  0  0  0  0  0  0  0  0  0  0  0
   61.1100   30.8754   45.7076 H   0  0  0  0  0  0  0  0  0  0  0  0
   58.4336   30.2491   46.0362 H   0  0  0  0  0  0  0  0  0  0  0  0
   56.7982   28.4749   45.4107 H   0  0  0  0  0  0  0  0  0  0  0  0
   55.1610   27.3830   46.0270 H   0  0  0  0  0  0  0  0  0  0  0  0
   59.0034   25.5997   47.7743 H   0  0  0  0  0  0  0  0  0  0  0  0
   60.6412   27.3696   48.4051 H   0  0  0  0  0  0  0  0  0  0  0  0
   60.6880   29.7180   49.7210 H   0  0  0  0  0  0  0  0  0  0  0  0
   58.9228   32.9075   48.8579 H   0  0  0  0  0  0  0  0  0  0  0  0
   56.9509   32.0816   47.5776 H   0  0  0  0  0  0  0  0  0  0  0  0
  1  2  1  0
  2  3  1  0
  3  4  2  0
  4  5  1  0
  5  6  2  0
  6  7  1  0
  7  8  2  0
  7  9  1  0
  9 10  1  0
 10 11  1  0
 11 12  2  0
 12 13  1  0
 13 14  1  0
 14 15  2  0
 15 16  1  0
 16 17  2  0
 17 18  1  0
 18 19  1  0
 18 20  2  0
 18 21  2  0
 17 22  1  0
 22 23  2  0
 13 24  1  0
 24 25  2  0
  6 26  1  0
 26 27  2  0
 27  3  1  0
 25 11  1  0
 23 14  1  0
  1 28  1  0
  1 29  1  0
  1 30  1  0
  4 31  1  0
  5 32  1  0
 10 33  1  0
 10 34  1  0
 12 35  1  0
 15 36  1  0
 16 37  1  0
 19 38  1  0
 22 39  1  0
 23 40  1  0
 24 41  1  0
 26 42  1  0
 27 43  1  0
M  CHG  2  19  -1  24   1
M  END
>  <UniqueID>  (41) 
39

>  <SMILES>  (41) 
COc1ccc(C(=O)OCc2cn(-c3ccc(S([NH-])(=O)=O)cc3)[nH+]n2)cc1

>  <Energy>  (41) 
81.09746584304699

>  <Genealogy>  (41) 
COc1ccc(C(=O)OCc2cn(-c3ccc(S([NH-])(=O)=O)cc3)[nH+]n2)cc1 (protonated)
COc1ccc(C(=O)OCc2cn(-c3ccc(S([NH-])(=O)=O)cc3)[nH+]n2)cc1 (3D coordinates assigned)
COc1ccc(C(=O)OCc2cn(-c3ccc(S([NH-])(=O)=O)cc3)[nH+]n2)cc1 (optimized conformer: 81.09746584304699 kcal/mol)

>  <smiles>  (41) 
COc1ccc(C(=O)OCc2cn(-c3ccc(S(N)(=O)=O)cc3)nn2)cc1

>  <score_type>  (41) 
oracle

>  <origin>  (41) 
adg

>  <m_score__min__energy>  (41) 
-9.6999999999999993

>  <m_primary>  (41) 
energy

$$$$
41:0
     RDKit          3D

 50 53  0  0  0  0  0  0  0  0999 V2000
   52.5364   23.9466   45.2486 H   0  0  0  0  0  0  0  0  0  0  0  0
   53.5920   24.2060   45.4170 C   0  0  0  0  0  0  0  0  0  0  0  0
   54.0140   25.4810   45.6180 N   0  0  0  0  0  0  0  0  0  0  0  0
   55.3540   25.5420   45.8020 C   0  0  0  0  0  0  0  0  0  0  0  0
   56.0200   26.6400   46.0110 N   0  0  0  0  0  0  0  0  0  0  0  0
   57.3290   26.7590   46.5930 C   0  0  0  0  0  0  0  0  0  0  0  0
   57.5960   26.0880   47.6240 O   0  0  0  0  0  0  0  0  0  0  0  0
   58.3860   27.6120   46.0110 C   0  0  0  0  0  0  0  0  0  0  0  0
   59.7230   27.2000   46.1320 C   0  0  0  0  0  0  0  0  0  0  0  0
   59.9589   26.2492   46.6323 H   0  0  0  0  0  0  0  0  0  0  0  0
   60.7550   27.9900   45.6210 C   0  0  0  0  0  0  0  0  0  0  0  0
   61.8002   27.6632   45.7245 H   0  0  0  0  0  0  0  0  0  0  0  0
   60.4610   29.1940   44.9790 C   0  0  0  0  0  0  0  0  0  0  0  0
   61.2752   29.8161   44.5788 H   0  0  0  0  0  0  0  0  0  0  0  0
   59.1350   29.6100   44.8440 C   0  0  0  0  0  0  0  0  0  0  0  0
   58.9105   30.5633   44.3431 H   0  0  0  0  0  0  0  0  0  0  0  0
   58.0870   28.8220   45.3420 C   0  0  0  0  0  0  0  0  0  0  0  0
   56.3860   29.3720   45.0960 S   0  0  0  0  0  0  0  0  0  0  0  0
   56.8710   30.7420   44.0320 C   0  0  0  0  0  0  0  0  0  0  0  0
   56.7400   30.5800   42.6460 C   0  0  0  0  0  0  0  0  0  0  0  0
   56.2656   29.6720   42.2454 H   0  0  0  0  0  0  0  0  0  0  0  0
   57.2060   31.5600   41.7710 C   0  0  0  0  0  0  0  0  0  0  0  0
   57.0963   31.4250   40.6848 H   0  0  0  0  0  0  0  0  0  0  0  0
   57.8110   32.7110   42.2730 C   0  0  0  0  0  0  0  0  0  0  0  0
   58.1928   33.4761   41.5810 H   0  0  0  0  0  0  0  0  0  0  0  0
   57.9340   32.8960   43.6530 C   0  0  0  0  0  0  0  0  0  0  0  0
   58.4351   33.7961   44.0388 H   0  0  0  0  0  0  0  0  0  0  0  0
   57.4220   31.9400   44.5570 C   0  0  0  0  0  0  0  0  0  0  0  0
   57.4880   32.1500   45.9870 N   0  0  0  0  0  0  0  0  0  0  0  0
   57.0300   31.4700   46.6280 H   0  0  0  0  0  0  0  0  0  0  0  0
   58.0550   33.3000   46.6350 C   0  0  0  0  0  0  0  0  0  0  0  0
   58.0900   34.4170   46.0550 O   0  0  0  0  0  0  0  0  0  0  0  0
   58.5240   33.1960   48.0520 C   0  0  0  0  0  0  0  0  0  0  0  0
   59.2245   34.0182   48.2601 H   0  0  0  0  0  0  0  0  0  0  0  0
   57.6489   33.2573   48.7156 H   0  0  0  0  0  0  0  0  0  0  0  0
   59.3690   31.6010   48.3490 S   0  0  0  0  0  0  0  0  0  0  0  0
   60.9880   32.1900   47.8450 C   0  0  0  0  0  0  0  0  0  0  0  0
   62.1330   31.4530   48.1700 C   0  0  0  0  0  0  0  0  0  0  0  0
   62.0402   30.5115   48.7312 H   0  0  0  0  0  0  0  0  0  0  0  0
   63.3950   31.9140   47.7810 C   0  0  0  0  0  0  0  0  0  0  0  0
   64.2939   31.3315   48.0313 H   0  0  0  0  0  0  0  0  0  0  0  0
   63.5150   33.1150   47.0740 C   0  0  0  0  0  0  0  0  0  0  0  0
   64.5083   33.4790   46.7725 H   0  0  0  0  0  0  0  0  0  0  0  0
   62.3700   33.8540   46.7500 C   0  0  0  0  0  0  0  0  0  0  0  0
   62.4645   34.8026   46.2012 H   0  0  0  0  0  0  0  0  0  0  0  0
   61.1080   33.3860   47.1240 C   0  0  0  0  0  0  0  0  0  0  0  0
   60.2076   33.9566   46.8524 H   0  0  0  0  0  0  0  0  0  0  0  0
   56.0720   24.0270   45.7340 S   0  0  0  0  0  0  0  0  0  0  0  0
   54.6050   23.2580   45.4420 C   0  0  0  0  0  0  0  0  0  0  0  0
   54.4430   21.9260   45.2410 F   0  0  0  0  0  0  0  0  0  0  0  0
  1  2  1  0
  2  3  1  0
  3  4  1  0
  4  5  2  0
  5  6  1  0
  6  7  2  0
  6  8  1  0
  8  9  2  0
  9 10  1  0
  9 11  1  0
 11 12  1  0
 11 13  2  0
 13 14  1  0
 13 15  1  0
 15 16  1  0
 15 17  2  0
 17 18  1  0
 18 19  1  0
 19 20  2  0
 20 21  1  0
 20 22  1  0
 22 23  1  0
 22 24  2  0
 24 25  1  0
 24 26  1  0
 26 27  1  0
 26 28  2  0
 28 29  1  0
 29 30  1  0
 29 31  1  0
 31 32  2  0
 31 33  1  0
 33 34  1  0
 33 35  1  0
 33 36  1  0
 36 37  1  0
 37 38  2  0
 38 39  1  0
 38 40  1  0
 40 41  1  0
 40 42  2  0
 42 43  1  0
 42 44  1  0
 44 45  1  0
 44 46  2  0
 46 47  1  0
  4 48  1  0
 48 49  1  0
 49 50  1  0
 49  2  2  0
 17  8  1  0
 28 19  1  0
 46 37  1  0
M  CHG  1   3  -1
M  END
>  <UniqueID>  (42) 
40

>  <SMILES>  (42) 
O=C(CSc1ccccc1)Nc1ccccc1Sc1ccccc1C(=O)/N=c1\[n-]cc(F)s1

>  <Energy>  (42) 
89.95960963789962

>  <Genealogy>  (42) 
O=C(CSc1ccccc1)Nc1ccccc1Sc1ccccc1C(=O)N=c1[n-]cc(F)s1 (protonated)
O=C(CSc1ccccc1)Nc1ccccc1Sc1ccccc1C(=O)/N=c1\[n-]cc(F)s1 (cis-trans isomerization)
O=C(CSc1ccccc1)Nc1ccccc1Sc1ccccc1C(=O)/N=c1\[n-]cc(F)s1 (3D coordinates assigned)
O=C(CSc1ccccc1)Nc1ccccc1Sc1ccccc1C(=O)/N=c1\[n-]cc(F)s1 (optimized conformer: 89.95960963789962 kcal/mol)

>  <smiles>  (42) 
O=C(CSc1ccccc1)Nc1ccccc1Sc1ccccc1C(=O)N=c1[nH]cc(F)s1

>  <score_type>  (42) 
oracle

>  <origin>  (42) 
adg

>  <m_score__min__energy>  (42) 
-11.91

>  <m_primary>  (42) 
energy

$$$$
42:0
     RDKit          3D

 58 61  0  0  1  0  0  0  0  0999 V2000
   64.5000   32.9690   47.9850 N   0  0  0  0  0  0  0  0  0  0  0  0
   62.8460   33.4200   47.9350 S   0  0  0  0  0  0  0  0  0  0  0  0
   62.6500   34.5840   48.8630 O   0  0  0  0  0  0  0  0  0  0  0  0
   62.4940   33.8980   46.5570 O   0  0  0  0  0  0  0  0  0  0  0  0
   61.7750   32.0940   48.3410 C   0  0  0  0  0  0  0  0  0  0  0  0
   61.1310   32.1310   49.5760 C   0  0  0  0  0  0  0  0  0  0  0  0
   60.2720   31.0860   49.9240 C   0  0  0  0  0  0  0  0  0  0  0  0
   60.0820   30.0440   49.0380 C   0  0  0  0  0  0  0  0  0  0  0  0
   60.7280   30.0090   47.8000 C   0  0  0  0  0  0  0  0  0  0  0  0
   60.4910   28.9020   46.9260 N   0  0  0  0  0  0  0  0  0  0  0  0
   59.6030   28.9670   45.9790 C   0  0  0  0  0  0  0  0  0  0  0  0
   59.0430   27.7960   45.5340 C   0  0  0  0  0  0  0  0  0  0  0  0
   58.0750   27.7880   44.5120 C   0  0  0  0  0  0  0  0  0  0  0  0
   57.5350   26.5730   44.0920 N   0  0  0  0  0  0  0  0  0  0  0  0
   57.3520   25.4000   44.8490 C   0  0  0  0  0  0  0  0  0  0  0  0
   57.1010   25.3610   46.2020 C   0  0  0  0  0  0  0  0  0  0  0  0
   56.9290   24.1620   46.8960 C   0  0  0  0  0  0  0  0  0  0  0  0
   57.0060   22.9650   46.2330 C   0  0  0  0  0  0  0  0  0  0  0  0
   57.2530   22.9710   44.8870 C   0  0  0  0  0  0  0  0  0  0  0  0
   57.3550   21.4490   44.0330 S   0  0  0  0  0  0  0  0  0  0  0  0
   57.2330   20.1310   45.1110 N   0  0  0  0  0  0  0  0  0  0  0  0
   56.2600   21.3370   43.0120 O   0  0  0  0  0  0  0  0  0  0  0  0
   58.6620   21.4330   43.2840 O   0  0  0  0  0  0  0  0  0  0  0  0
   57.4220   24.1600   44.2160 C   0  0  0  0  0  0  0  0  0  0  0  0
   57.7670   29.0040   44.0350 N   0  0  0  0  0  0  0  0  0  0  0  0
   58.3260   30.1420   44.4820 C   0  0  0  0  0  0  0  0  0  0  0  0
   57.8230   31.6960   43.7570 S   0  0  0  0  0  0  0  0  0  0  0  0
   56.9450   32.7620   44.9030 C   0  0  0  0  0  0  0  0  0  0  0  0
   57.9470   33.5150   45.7260 C   0  0  0  0  0  0  0  0  0  0  0  0
   58.0470   33.2110   47.0820 C   0  0  0  0  0  0  0  0  0  0  0  0
   58.9760   33.9140   47.8350 C   0  0  0  0  0  0  0  0  0  0  0  0
   59.7840   34.8820   47.2830 C   0  0  0  0  0  0  0  0  0  0  0  0
   59.6900   35.1890   45.9370 C   0  0  0  0  0  0  0  0  0  0  0  0
   58.7610   34.4890   45.1790 C   0  0  0  0  0  0  0  0  0  0  0  0
   59.2500   30.1540   45.4590 N   0  0  0  0  0  0  0  0  0  0  0  0
   61.5720   31.0480   47.4770 C   0  0  0  0  0  0  0  0  0  0  0  0
   64.6560   32.0170   48.3290 H   0  0  0  0  0  0  0  0  0  0  0  0
   64.9680   33.1090   47.0460 H   0  0  0  0  0  0  0  0  0  0  0  0
   61.2966   32.9708   50.2668 H   0  0  0  0  0  0  0  0  0  0  0  0
   59.7524   31.0930   50.8935 H   0  0  0  0  0  0  0  0  0  0  0  0
   59.4055   29.2216   49.3138 H   0  0  0  0  0  0  0  0  0  0  0  0
   59.3571   26.8434   45.9854 H   0  0  0  0  0  0  0  0  0  0  0  0
   57.2190   26.5190   43.0750 H   0  0  0  0  0  0  0  0  0  0  0  0
   57.0335   26.3088   46.7562 H   0  0  0  0  0  0  0  0  0  0  0  0
   56.7311   24.1780   47.9779 H   0  0  0  0  0  0  0  0  0  0  0  0
   56.8716   22.0163   46.7732 H   0  0  0  0  0  0  0  0  0  0  0  0
   58.1550   19.9790   45.5770 H   0  0  0  0  0  0  0  0  0  0  0  0
   56.8810   19.2820   44.6470 H   0  0  0  0  0  0  0  0  0  0  0  0
   57.6207   24.1310   43.1345 H   0  0  0  0  0  0  0  0  0  0  0  0
   56.3189   33.4716   44.3423 H   0  0  0  0  0  0  0  0  0  0  0  0
   56.3016   32.1569   45.5586 H   0  0  0  0  0  0  0  0  0  0  0  0
   57.4107   32.4395   47.5401 H   0  0  0  0  0  0  0  0  0  0  0  0
   59.0700   33.6906   48.9080 H   0  0  0  0  0  0  0  0  0  0  0  0
   60.5090   35.4149   47.9158 H   0  0  0  0  0  0  0  0  0  0  0  0
   60.3291   35.9608   45.4833 H   0  0  0  0  0  0  0  0  0  0  0  0
   58.6697   34.7173   44.1068 H   0  0  0  0  0  0  0  0  0  0  0  0
   59.7030   31.0030   45.8320 H   0  0  0  0  0  0  0  0  0  0  0  0
   62.0930   31.0391   46.5083 H   0  0  0  0  0  0  0  0  0  0  0  0
  1  2  1  0
  2  3  2  0
  2  4  2  0
  2  5  1  0
  5  6  2  0
  6  7  1  0
  7  8  2  0
  8  9  1  0
  9 10  1  0
 10 11  2  0
 11 12  1  0
 12 13  2  0
 13 14  1  0
 14 15  1  0
 15 16  2  0
 16 17  1  0
 17 18  2  0
 18 19  1  0
 19 20  1  0
 20 21  1  0
 20 22  2  0
 20 23  2  0
 19 24  2  0
 13 25  1  0
 25 26  2  0
 26 27  1  0
 27 28  1  0
 28 29  1  0
 29 30  2  0
 30 31  1  0
 31 32  2  0
 32 33  1  0
 33 34  2  0
 26 35  1  0
  9 36  2  0
 36  5  1  0
 35 11  1  0
 24 15  1  0
 34 29  1  0
  1 37  1  0
  1 38  1  0
  6 39  1  0
  7 40  1  0
  8 41  1  0
 12 42  1  0
 14 43  1  0
 16 44  1  0
 17 45  1  0
 18 46  1  0
 21 47  1  0
 21 48  1  0
 24 49  1  0
 28 50  1  0
 28 51  1  0
 30 52  1  0
 31 53  1  0
 32 54  1  0
 33 55  1  0
 34 56  1  0
 35 57  1  0
 36 58  1  0
M  END
>  <smiles>  (43) 
NS(=O)(=O)c1cccc(N=c2cc(Nc3cccc(S(N)(=O)=O)c3)nc(SCc3ccccc3)[nH]2)c1

>  <score_type>  (43) 
oracle

>  <origin>  (43) 
adg

>  <m_score__min__energy>  (43) 
-12.34

>  <m_primary>  (43) 
energy

$$$$
43:0
     RDKit          3D

 31 32  0  0  0  0  0  0  0  0999 V2000
   55.1440   30.6880   44.4940 O   0  0  0  0  0  0  0  0  0  0  0  0
   55.9880   29.7590   44.3850 C   0  0  0  0  0  0  0  0  0  0  0  0
   57.1250   29.8980   43.4180 C   0  0  0  0  0  0  0  0  0  0  0  0
   57.6230   31.3460   43.3510 C   0  0  0  0  0  0  0  0  0  0  0  0
   57.6510   31.9520   44.6800 N   0  0  0  0  0  0  0  0  0  0  0  0
   57.0160   33.0730   45.0650 C   0  0  0  0  0  0  0  0  0  0  0  0
   57.3170   33.3610   46.3410 N   0  0  0  0  0  0  0  0  0  0  0  0
   58.1580   32.3720   46.7060 C   0  0  0  0  0  0  0  0  0  0  0  0
   58.3720   31.5050   45.6950 N   0  0  0  0  0  0  0  0  0  0  0  0
   55.8950   28.5920   45.2080 N   0  0  0  0  0  0  0  0  0  0  0  0
   56.9850   27.6370   45.3710 C   0  0  0  0  0  0  0  0  0  0  0  0
   58.1910   28.3260   45.9450 C   0  0  0  0  0  0  0  0  0  0  0  0
   59.3500   28.5030   45.1700 C   0  0  0  0  0  0  0  0  0  0  0  0
   60.4870   29.0970   45.7270 C   0  0  0  0  0  0  0  0  0  0  0  0
   60.4760   29.5160   47.0600 C   0  0  0  0  0  0  0  0  0  0  0  0
   61.5810   30.0870   47.5990 F   0  0  0  0  0  0  0  0  0  0  0  0
   59.3290   29.3410   47.8390 C   0  0  0  0  0  0  0  0  0  0  0  0
   58.1910   28.7430   47.2870 C   0  0  0  0  0  0  0  0  0  0  0  0
   57.9521   29.2489   43.7413 H   0  0  0  0  0  0  0  0  0  0  0  0
   56.7697   29.6057   42.4188 H   0  0  0  0  0  0  0  0  0  0  0  0
   58.6387   31.3579   42.9287 H   0  0  0  0  0  0  0  0  0  0  0  0
   56.9351   31.9242   42.7166 H   0  0  0  0  0  0  0  0  0  0  0  0
   56.3465   33.6681   44.4265 H   0  0  0  0  0  0  0  0  0  0  0  0
   56.9840   34.1660   46.9140 H   0  0  0  0  0  0  0  0  0  0  0  0
   58.6127   32.2834   47.7037 H   0  0  0  0  0  0  0  0  0  0  0  0
   56.6665   26.8334   46.0513 H   0  0  0  0  0  0  0  0  0  0  0  0
   57.2442   27.2141   44.3892 H   0  0  0  0  0  0  0  0  0  0  0  0
   59.3629   28.1729   44.1208 H   0  0  0  0  0  0  0  0  0  0  0  0
   61.3908   29.2345   45.1152 H   0  0  0  0  0  0  0  0  0  0  0  0
   59.3209   29.6738   48.8874 H   0  0  0  0  0  0  0  0  0  0  0  0
   57.2930   28.5987   47.9057 H   0  0  0  0  0  0  0  0  0  0  0  0
  1  2  2  0
  2  3  1  0
  3  4  1  0
  4  5  1  0
  5  6  1  0
  6  7  2  0
  7  8  1  0
  8  9  2  0
  2 10  1  0
 10 11  1  0
 11 12  1  0
 12 13  2  0
 13 14  1  0
 14 15  2  0
 15 16  1  0
 15 17  1  0
 17 18  2  0
  9  5  1  0
 18 12  1  0
  3 19  1  0
  3 20  1  0
  4 21  1  0
  4 22  1  0
  6 23  1  0
  7 24  1  0
  8 25  1  0
 11 26  1  0
 11 27  1  0
 13 28  1  0
 14 29  1  0
 17 30  1  0
 18 31  1  0
M  CHG  2   7   1  10  -1
M  END
>  <UniqueID>  (44) 
41

>  <SMILES>  (44) 
O=C(CCn1c[nH+]cn1)[N-]Cc1ccc(F)cc1

>  <Energy>  (44) 
56.340657796081786

>  <Genealogy>  (44) 
O=C(CCn1c[nH+]cn1)[N-]Cc1ccc(F)cc1 (protonated)
O=C(CCn1c[nH+]cn1)[N-]Cc1ccc(F)cc1 (3D coordinates assigned)
O=C(CCn1c[nH+]cn1)[N-]Cc1ccc(F)cc1 (optimized conformer: 56.340657796081786 kcal/mol)

>  <smiles>  (44) 
O=C(CCn1cncn1)NCc1ccc(F)cc1

>  <score_type>  (44) 
oracle

>  <origin>  (44) 
adg

>  <m_score__min__energy>  (44) 
-7.5099999999999998

>  <m_primary>  (44) 
energy

$$$$
44:0
     RDKit          3D

 52 54  0  0  0  0  0  0  0  0999 V2000
   62.0460   31.1760   47.1640 C   0  0  0  0  0  0  0  0  0  0  0  0
   61.5810   32.6360   47.1250 C   0  0  0  0  0  0  0  0  0  0  0  0
   62.7440   33.6000   46.8770 C   0  0  0  0  0  0  0  0  0  0  0  0
   60.8600   33.0020   48.3440 N   0  0  0  0  0  0  0  0  0  0  0  0
   59.6450   33.7580   48.4140 C   0  0  0  0  0  0  0  0  0  0  0  0
   59.6300   34.9010   48.9450 O   0  0  0  0  0  0  0  0  0  0  0  0
   58.4950   33.2290   47.8210 O   0  0  0  0  0  0  0  0  0  0  0  0
   58.2890   33.0930   46.4440 C   0  0  0  0  0  0  0  0  0  0  0  0
   59.0380   33.8950   45.5780 C   0  0  0  0  0  0  0  0  0  0  0  0
   58.8880   33.7750   44.1970 C   0  0  0  0  0  0  0  0  0  0  0  0
   58.0000   32.8360   43.6690 C   0  0  0  0  0  0  0  0  0  0  0  0
   57.2480   32.0170   44.5180 C   0  0  0  0  0  0  0  0  0  0  0  0
   56.4030   31.0210   43.9290 N   0  0  0  0  0  0  0  0  0  0  0  0
   55.9200   29.8190   44.5370 C   0  0  0  0  0  0  0  0  0  0  0  0
   54.8300   29.3370   44.1310 O   0  0  0  0  0  0  0  0  0  0  0  0
   56.6100   29.1460   45.6030 N   0  0  0  0  0  0  0  0  0  0  0  0
   57.9890   28.7560   45.7030 C   0  0  0  0  0  0  0  0  0  0  0  0
   58.9750   29.1750   44.7880 C   0  0  0  0  0  0  0  0  0  0  0  0
   60.3100   28.8030   44.9700 C   0  0  0  0  0  0  0  0  0  0  0  0
   60.6890   28.0820   46.1040 C   0  0  0  0  0  0  0  0  0  0  0  0
   59.7300   27.7250   47.0570 C   0  0  0  0  0  0  0  0  0  0  0  0
   60.2570   27.0710   48.6420 S   0  0  0  0  0  0  0  0  0  0  0  0
   60.1910   28.6390   49.5060 C   0  0  0  0  0  0  0  0  0  0  0  0
   61.3550   29.1710   50.0800 C   0  0  0  0  0  0  0  0  0  0  0  0
   61.3430   30.4660   50.6080 C   0  0  0  0  0  0  0  0  0  0  0  0
   60.1700   31.2360   50.5670 C   0  0  0  0  0  0  0  0  0  0  0  0
   60.1760   32.5860   51.0380 N   0  0  0  0  0  0  0  0  0  0  0  0
   58.9990   30.6860   50.0230 C   0  0  0  0  0  0  0  0  0  0  0  0
   59.0130   29.3930   49.4890 C   0  0  0  0  0  0  0  0  0  0  0  0
   58.3820   28.0300   46.8370 C   0  0  0  0  0  0  0  0  0  0  0  0
   57.3940   32.1450   45.9120 C   0  0  0  0  0  0  0  0  0  0  0  0
   62.1492   30.8519   48.2101 H   0  0  0  0  0  0  0  0  0  0  0  0
   61.3055   30.5416   46.6550 H   0  0  0  0  0  0  0  0  0  0  0  0
   63.0170   31.0867   46.6550 H   0  0  0  0  0  0  0  0  0  0  0  0
   60.8866   32.7244   46.2765 H   0  0  0  0  0  0  0  0  0  0  0  0
   63.1519   33.9381   47.8410 H   0  0  0  0  0  0  0  0  0  0  0  0
   63.5311   33.0858   46.3059 H   0  0  0  0  0  0  0  0  0  0  0  0
   62.3847   34.4688   46.3059 H   0  0  0  0  0  0  0  0  0  0  0  0
   59.7504   34.6256   45.9888 H   0  0  0  0  0  0  0  0  0  0  0  0
   59.4699   34.4208   43.5229 H   0  0  0  0  0  0  0  0  0  0  0  0
   57.8910   32.7395   42.5787 H   0  0  0  0  0  0  0  0  0  0  0  0
   58.6929   29.7978   43.9263 H   0  0  0  0  0  0  0  0  0  0  0  0
   61.0639   29.0790   44.2180 H   0  0  0  0  0  0  0  0  0  0  0  0
   61.7412   27.7950   46.2476 H   0  0  0  0  0  0  0  0  0  0  0  0
   62.2760   28.5705   50.1148 H   0  0  0  0  0  0  0  0  0  0  0  0
   62.2565   30.8829   51.0572 H   0  0  0  0  0  0  0  0  0  0  0  0
   60.3040   33.3840   50.3750 H   0  0  0  0  0  0  0  0  0  0  0  0
   60.0580   32.7980   52.0530 H   0  0  0  0  0  0  0  0  0  0  0  0
   58.0685   31.2726   50.0165 H   0  0  0  0  0  0  0  0  0  0  0  0
   58.0958   28.9685   49.0549 H   0  0  0  0  0  0  0  0  0  0  0  0
   57.6232   27.6971   47.5605 H   0  0  0  0  0  0  0  0  0  0  0  0
   56.8081   31.5036   46.5868 H   0  0  0  0  0  0  0  0  0  0  0  0
  1  2  1  0
  2  3  1  0
  2  4  1  0
  4  5  1  0
  5  6  2  0
  5  7  1  0
  7  8  1  0
  8  9  2  0
  9 10  1  0
 10 11  2  0
 11 12  1  0
 12 13  1  0
 13 14  1  0
 14 15  2  0
 14 16  1  0
 16 17  1  0
 17 18  2  0
 18 19  1  0
 19 20  2  0
 20 21  1  0
 21 22  1  0
 22 23  1  0
 23 24  2  0
 24 25  1  0
 25 26  2  0
 26 27  1  0
 26 28  1  0
 28 29  2  0
 21 30  2  0
 12 31  2  0
 31  8  1  0
 30 17  1  0
 29 23  1  0
  1 32  1  0
  1 33  1  0
  1 34  1  0
  2 35  1  0
  3 36  1  0
  3 37  1  0
  3 38  1  0
  9 39  1  0
 10 40  1  0
 11 41  1  0
 18 42  1  0
 19 43  1  0
 20 44  1  0
 24 45  1  0
 25 46  1  0
 27 47  1  0
 27 48  1  0
 28 49  1  0
 29 50  1  0
 30 51  1  0
 31 52  1  0
M  CHG  3   4  -1  13  -1  16  -1
M  END
>  <UniqueID>  (45) 
42

>  <SMILES>  (45) 
CC(C)[N-]C(=O)Oc1cccc([N-]C(=O)[N-]c2cccc(Sc3ccc(N)cc3)c2)c1

>  <Energy>  (45) 
57.33424231698156

>  <Genealogy>  (45) 
CC(C)[N-]C(=O)Oc1cccc([N-]C(=O)[N-]c2cccc(Sc3ccc(N)cc3)c2)c1 (protonated)
CC(C)[N-]C(=O)Oc1cccc([N-]C(=O)[N-]c2cccc(Sc3ccc(N)cc3)c2)c1 (3D coordinates assigned)
CC(C)[N-]C(=O)Oc1cccc([N-]C(=O)[N-]c2cccc(Sc3ccc(N)cc3)c2)c1 (optimized conformer: 57.33424231698156 kcal/mol)

>  <smiles>  (45) 
CC(C)NC(=O)Oc1cccc(NC(=O)Nc2cccc(Sc3ccc(N)cc3)c2)c1

>  <score_type>  (45) 
oracle

>  <origin>  (45) 
adg

>  <m_score__min__energy>  (45) 
-13.59

>  <m_primary>  (45) 
energy

$$$$
45:0
     RDKit          3D

 45 47  0  0  0  0  0  0  0  0999 V2000
   56.2580   31.0130   44.8170 O   0  0  0  0  0  0  0  0  0  0  0  0
   57.4740   31.1610   45.1060 C   0  0  0  0  0  0  0  0  0  0  0  0
   58.3540   30.0360   44.9780 N   0  0  0  0  0  0  0  0  0  0  0  0
   58.2600   28.8030   45.7050 C   0  0  0  0  0  0  0  0  0  0  0  0
   59.3370   28.4050   46.5040 C   0  0  0  0  0  0  0  0  0  0  0  0
   59.2910   27.1960   47.2000 C   0  0  0  0  0  0  0  0  0  0  0  0
   58.1740   26.3650   47.0870 C   0  0  0  0  0  0  0  0  0  0  0  0
   57.0900   26.7330   46.2690 C   0  0  0  0  0  0  0  0  0  0  0  0
   55.9170   25.8390   46.1290 C   0  0  0  0  0  0  0  0  0  0  0  0
   54.7650   26.3320   45.9840 O   0  0  0  0  0  0  0  0  0  0  0  0
   56.0820   24.4180   46.2120 N   0  0  0  0  0  0  0  0  0  0  0  0
   56.4340   23.5450   45.1300 C   0  0  0  0  0  0  0  0  0  0  0  0
   55.6900   23.6160   43.9450 C   0  0  0  0  0  0  0  0  0  0  0  0
   55.9870   22.7720   42.8700 C   0  0  0  0  0  0  0  0  0  0  0  0
   57.0230   21.8420   42.9780 C   0  0  0  0  0  0  0  0  0  0  0  0
   57.7500   21.7400   44.1670 C   0  0  0  0  0  0  0  0  0  0  0  0
   57.4530   22.5780   45.2480 C   0  0  0  0  0  0  0  0  0  0  0  0
   58.1140   22.3940   46.4180 F   0  0  0  0  0  0  0  0  0  0  0  0
   57.1450   27.9570   45.5760 C   0  0  0  0  0  0  0  0  0  0  0  0
   57.9730   32.4970   45.4910 C   0  0  0  0  0  0  0  0  0  0  0  0
   57.6800   33.5000   44.7840 O   0  0  0  0  0  0  0  0  0  0  0  0
   58.7580   32.6640   46.6810 N   0  0  0  0  0  0  0  0  0  0  0  0
   59.2070   33.9740   47.1440 C   0  0  0  0  0  0  0  0  0  0  0  0
   60.6780   33.9440   47.4560 C   0  0  0  0  0  0  0  0  0  0  0  0
   61.6260   33.7950   46.4300 C   0  0  0  0  0  0  0  0  0  0  0  0
   62.9920   33.7910   46.7280 C   0  0  0  0  0  0  0  0  0  0  0  0
   63.4200   33.9350   48.0510 C   0  0  0  0  0  0  0  0  0  0  0  0
   62.4830   34.0560   49.0810 C   0  0  0  0  0  0  0  0  0  0  0  0
   61.1160   34.0590   48.7870 C   0  0  0  0  0  0  0  0  0  0  0  0
   60.2254   29.0486   46.5843 H   0  0  0  0  0  0  0  0  0  0  0  0
   60.1355   26.8972   47.8384 H   0  0  0  0  0  0  0  0  0  0  0  0
   58.1416   25.4157   47.6417 H   0  0  0  0  0  0  0  0  0  0  0  0
   54.8667   24.3404   43.8595 H   0  0  0  0  0  0  0  0  0  0  0  0
   55.4045   22.8408   41.9394 H   0  0  0  0  0  0  0  0  0  0  0  0
   57.2669   21.1894   42.1268 H   0  0  0  0  0  0  0  0  0  0  0  0
   58.5582   20.9988   44.2537 H   0  0  0  0  0  0  0  0  0  0  0  0
   56.3076   28.2541   44.9275 H   0  0  0  0  0  0  0  0  0  0  0  0
   59.0050   31.8270   47.2560 H   0  0  0  0  0  0  0  0  0  0  0  0
   59.0183   34.7204   46.3583 H   0  0  0  0  0  0  0  0  0  0  0  0
   58.6539   34.2385   48.0573 H   0  0  0  0  0  0  0  0  0  0  0  0
   61.2923   33.6810   45.3881 H   0  0  0  0  0  0  0  0  0  0  0  0
   63.7303   33.6745   45.9210 H   0  0  0  0  0  0  0  0  0  0  0  0
   64.4954   33.9531   48.2816 H   0  0  0  0  0  0  0  0  0  0  0  0
   62.8212   34.1489   50.1236 H   0  0  0  0  0  0  0  0  0  0  0  0
   60.3807   34.1517   49.5999 H   0  0  0  0  0  0  0  0  0  0  0  0
  1  2  2  0
  2  3  1  0
  3  4  1  0
  4  5  2  0
  5  6  1  0
  6  7  2  0
  7  8  1  0
  8  9  1  0
  9 10  2  0
  9 11  1  0
 11 12  1  0
 12 13  2  0
 13 14  1  0
 14 15  2  0
 15 16  1  0
 16 17  2  0
 17 18  1  0
  8 19  2  0
  2 20  1  0
 20 21  2  0
 20 22  1  0
 22 23  1  0
 23 24  1  0
 24 25  2  0
 25 26  1  0
 26 27  2  0
 27 28  1  0
 28 29  2  0
 19  4  1  0
 29 24  1  0
 17 12  1  0
  5 30  1  0
  6 31  1  0
  7 32  1  0
 13 33  1  0
 14 34  1  0
 15 35  1  0
 16 36  1  0
 19 37  1  0
 22 38  1  0
 23 39  1  0
 23 40  1  0
 25 41  1  0
 26 42  1  0
 27 43  1  0
 28 44  1  0
 29 45  1  0
M  CHG  2   3  -1  11  -1
M  END
>  <UniqueID>  (46) 
43

>  <SMILES>  (46) 
O=C([N-]c1cccc(C(=O)[N-]c2ccccc2F)c1)C(=O)NCc1ccccc1

>  <Energy>  (46) 
51.6602062143194

>  <Genealogy>  (46) 
O=C([N-]c1cccc(C(=O)[N-]c2ccccc2F)c1)C(=O)NCc1ccccc1 (protonated)
O=C([N-]c1cccc(C(=O)[N-]c2ccccc2F)c1)C(=O)NCc1ccccc1 (3D coordinates assigned)
O=C([N-]c1cccc(C(=O)[N-]c2ccccc2F)c1)C(=O)NCc1ccccc1 (optimized conformer: 51.6602062143194 kcal/mol)

>  <smiles>  (46) 
O=C(NCc1ccccc1)C(=O)Nc1cccc(C(=O)Nc2ccccc2F)c1

>  <score_type>  (46) 
oracle

>  <origin>  (46) 
adg

>  <m_score__min__energy>  (46) 
-11.869999999999999

>  <m_primary>  (46) 
energy

$$$$
46:0
     RDKit          3D

 39 41  0  0  0  0  0  0  0  0999 V2000
   56.9110   29.2070   42.8840 N   0  0  0  0  0  0  0  0  0  0  0  0
   56.6370   29.3730   44.5830 S   0  0  0  0  0  0  0  0  0  0  0  0
   57.2520   30.6590   45.0620 O   0  0  0  0  0  0  0  0  0  0  0  0
   55.1600   29.4170   44.8540 O   0  0  0  0  0  0  0  0  0  0  0  0
   57.3540   28.0080   45.4330 C   0  0  0  0  0  0  0  0  0  0  0  0
   58.7400   27.9400   45.6260 C   0  0  0  0  0  0  0  0  0  0  0  0
   59.3000   26.8580   46.3100 C   0  0  0  0  0  0  0  0  0  0  0  0
   58.4830   25.8310   46.7880 C   0  0  0  0  0  0  0  0  0  0  0  0
   57.1000   25.8640   46.5660 C   0  0  0  0  0  0  0  0  0  0  0  0
   56.2910   24.7990   47.0950 N   0  0  0  0  0  0  0  0  0  0  0  0
   55.2880   24.2160   46.5060 C   0  0  0  0  0  0  0  0  0  0  0  0
   54.4040   24.9190   45.7490 N   0  0  0  0  0  0  0  0  0  0  0  0
   53.3800   24.2850   45.1260 C   0  0  0  0  0  0  0  0  0  0  0  0
   53.2410   22.9420   45.2500 N   0  0  0  0  0  0  0  0  0  0  0  0
   54.1280   22.2280   45.9950 C   0  0  0  0  0  0  0  0  0  0  0  0
   54.0130   20.9400   46.1210 N   0  0  0  0  0  0  0  0  0  0  0  0
   54.9920   19.9600   45.6500 C   0  0  0  0  0  0  0  0  0  0  0  0
   56.2430   20.6480   45.1610 C   0  0  0  0  0  0  0  0  0  0  0  0
   56.3040   21.1210   43.8370 C   0  0  0  0  0  0  0  0  0  0  0  0
   57.4450   21.7770   43.3710 C   0  0  0  0  0  0  0  0  0  0  0  0
   58.5370   21.9710   44.2190 C   0  0  0  0  0  0  0  0  0  0  0  0
   58.4900   21.5090   45.5360 C   0  0  0  0  0  0  0  0  0  0  0  0
   57.3500   20.8510   46.0140 C   0  0  0  0  0  0  0  0  0  0  0  0
   57.3440   20.2940   47.6840 Cl  0  0  0  0  0  0  0  0  0  0  0  0
   55.1480   22.8700   46.6180 N   0  0  0  0  0  0  0  0  0  0  0  0
   56.5360   26.9730   45.9070 C   0  0  0  0  0  0  0  0  0  0  0  0
   57.9380   29.3180   42.7280 H   0  0  0  0  0  0  0  0  0  0  0  0
   56.6720   28.2220   42.6320 H   0  0  0  0  0  0  0  0  0  0  0  0
   59.3883   28.7397   45.2384 H   0  0  0  0  0  0  0  0  0  0  0  0
   60.3871   26.8149   46.4725 H   0  0  0  0  0  0  0  0  0  0  0  0
   58.9280   24.9913   47.3420 H   0  0  0  0  0  0  0  0  0  0  0  0
   52.6631   24.8594   44.5209 H   0  0  0  0  0  0  0  0  0  0  0  0
   55.2520   19.2832   46.4772 H   0  0  0  0  0  0  0  0  0  0  0  0
   54.5517   19.3928   44.8167 H   0  0  0  0  0  0  0  0  0  0  0  0
   55.4464   20.9728   43.1643 H   0  0  0  0  0  0  0  0  0  0  0  0
   57.4836   22.1416   42.3339 H   0  0  0  0  0  0  0  0  0  0  0  0
   59.4349   22.4880   43.8495 H   0  0  0  0  0  0  0  0  0  0  0  0
   59.3526   21.6627   46.2011 H   0  0  0  0  0  0  0  0  0  0  0  0
   55.4468   27.0276   45.7632 H   0  0  0  0  0  0  0  0  0  0  0  0
  1  2  1  0
  2  3  2  0
  2  4  2  0
  2  5  1  0
  5  6  2  0
  6  7  1  0
  7  8  2  0
  8  9  1  0
  9 10  1  0
 10 11  2  3
 11 12  1  0
 12 13  1  0
 13 14  2  0
 14 15  1  0
 15 16  2  3
 16 17  1  0
 17 18  1  0
 18 19  2  0
 19 20  1  0
 20 21  2  0
 21 22  1  0
 22 23  2  0
 23 24  1  0
 15 25  1  0
  9 26  2  0
 26  5  1  0
 25 11  1  0
 23 18  1  0
  1 27  1  0
  1 28  1  0
  6 29  1  0
  7 30  1  0
  8 31  1  0
 13 32  1  0
 17 33  1  0
 17 34  1  0
 19 35  1  0
 20 36  1  0
 21 37  1  0
 22 38  1  0
 26 39  1  0
M  CHG  2  12  -1  25  -1
M  END
>  <UniqueID>  (47) 
44

>  <SMILES>  (47) 
NS(=O)(=O)c1cccc(N=c2[n-]cnc(=NCc3ccccc3Cl)[n-]2)c1

>  <Energy>  (47) 
47.78501362299671

>  <Genealogy>  (47) 
NS(=O)(=O)c1cccc(N=c2[n-]cnc(=NCc3ccccc3Cl)[n-]2)c1 (protonated)
NS(=O)(=O)c1cccc(N=c2[n-]cnc(=NCc3ccccc3Cl)[n-]2)c1 (3D coordinates assigned)
NS(=O)(=O)c1cccc(N=c2[n-]cnc(=NCc3ccccc3Cl)[n-]2)c1 (optimized conformer: 47.78501362299671 kcal/mol)

>  <smiles>  (47) 
NS(=O)(=O)c1cccc(N=c2[nH]cnc(=NCc3ccccc3Cl)[nH]2)c1

>  <score_type>  (47) 
oracle

>  <origin>  (47) 
adg

>  <m_score__min__energy>  (47) 
-12.6

>  <m_primary>  (47) 
energy

$$$$
47:0
     RDKit          3D

 15 15  0  0  0  0  0  0  0  0999 V2000
   57.8200   28.7830   45.5250 C   0  0  0  0  0  0  0  0  0  0  0  0
   57.1990   27.4880   45.9600 C   0  0  0  0  0  0  0  0  0  0  0  0
   55.9000   27.2670   45.6200 N   0  0  0  0  0  0  0  0  0  0  0  0
   55.2550   26.1280   45.9690 C   0  0  0  0  0  0  0  0  0  0  0  0
   54.0540   25.9590   45.6370 O   0  0  0  0  0  0  0  0  0  0  0  0
   55.9030   25.1720   46.6750 N   0  0  0  0  0  0  0  0  0  0  0  0
   57.2000   25.3280   47.0470 C   0  0  0  0  0  0  0  0  0  0  0  0
   57.7590   24.4090   47.7040 O   0  0  0  0  0  0  0  0  0  0  0  0
   57.9030   26.5010   46.7010 C   0  0  0  0  0  0  0  0  0  0  0  0
   59.3230   26.6430   47.1220 C   0  0  0  0  0  0  0  0  0  0  0  0
   60.2580   26.0060   46.5700 O   0  0  0  0  0  0  0  0  0  0  0  0
   58.1017   29.3705   46.4113 H   0  0  0  0  0  0  0  0  0  0  0  0
   58.7166   28.5755   44.9224 H   0  0  0  0  0  0  0  0  0  0  0  0
   57.0969   29.3522   44.9224 H   0  0  0  0  0  0  0  0  0  0  0  0
   59.5648   27.3301   47.9462 H   0  0  0  0  0  0  0  0  0  0  0  0
  1  2  1  0
  2  3  1  0
  3  4  1  0
  4  5  2  0
  4  6  1  0
  6  7  1  0
  7  8  2  0
  7  9  1  0
  9 10  1  0
 10 11  2  0
  9  2  2  0
  1 12  1  0
  1 13  1  0
  1 14  1  0
 10 15  1  0
M  CHG  2   3  -1   6  -1
M  END
>  <UniqueID>  (48) 
45

>  <SMILES>  (48) 
Cc1[n-]c(=O)[n-]c(=O)c1C=O

>  <Energy>  (48) 
18.274437560545046

>  <Genealogy>  (48) 
Cc1[n-]c(=O)[n-]c(=O)c1C=O (protonated)
Cc1[n-]c(=O)[n-]c(=O)c1C=O (3D coordinates assigned)
Cc1[n-]c(=O)[n-]c(=O)c1C=O (optimized conformer: 18.274437560545046 kcal/mol)

>  <smiles>  (48) 
Cc1[nH]c(=O)[nH]c(=O)c1C=O

>  <score_type>  (48) 
oracle

>  <origin>  (48) 
adg

>  <m_score__min__energy>  (48) 
-9.8200000000000003

>  <m_primary>  (48) 
energy

$$$$
48:0
     RDKit          3D

 49 51  0  0  0  0  0  0  0  0999 V2000
   57.3420   21.4790   43.0230 C   0  0  0  0  0  0  0  0  0  0  0  0
   56.4680   22.7160   43.1990 C   0  0  0  0  0  0  0  0  0  0  0  0
   55.5400   22.5880   44.4110 C   0  0  0  0  0  0  0  0  0  0  0  0
   55.3680   23.8810   45.0820 N   0  0  0  0  0  0  0  0  0  0  0  0
   54.2030   24.5100   45.3170 C   0  0  0  0  0  0  0  0  0  0  0  0
   54.4020   25.6780   45.9560 N   0  0  0  0  0  0  0  0  0  0  0  0
   55.7080   25.8070   46.1380 N   0  0  0  0  0  0  0  0  0  0  0  0
   56.2930   24.7220   45.5930 C   0  0  0  0  0  0  0  0  0  0  0  0
   57.7760   24.4580   45.6540 C   0  0  2  0  0  0  0  0  0  0  0  0
   58.0310   23.0080   46.0650 C   0  0  0  0  0  0  0  0  0  0  0  0
   58.4070   25.3340   46.6410 N   0  0  0  0  0  0  0  0  0  0  0  0
   59.4740   26.2560   46.3900 C   0  0  0  0  0  0  0  0  0  0  0  0
   60.6560   25.8170   46.3700 O   0  0  0  0  0  0  0  0  0  0  0  0
   59.2270   27.6460   46.1160 N   0  0  0  0  0  0  0  0  0  0  0  0
   60.3810   28.5230   45.8990 C   0  0  0  0  0  0  0  0  0  0  0  0
   60.0500   29.9590   46.3030 C   0  0  0  0  0  0  0  0  0  0  0  0
   58.7640   30.4070   45.7530 N   0  0  0  0  0  0  0  0  0  0  0  0
   58.5120   31.8220   45.6680 C   0  0  0  0  0  0  0  0  0  0  0  0
   57.8220   32.3630   44.5690 C   0  0  0  0  0  0  0  0  0  0  0  0
   57.5690   33.7360   44.5030 C   0  0  0  0  0  0  0  0  0  0  0  0
   58.0020   34.5790   45.5280 C   0  0  0  0  0  0  0  0  0  0  0  0
   58.6900   34.0500   46.6240 C   0  0  0  0  0  0  0  0  0  0  0  0
   59.1120   34.8690   47.6190 F   0  0  0  0  0  0  0  0  0  0  0  0
   58.9440   32.6760   46.6960 C   0  0  0  0  0  0  0  0  0  0  0  0
   57.7030   29.4620   45.4960 C   0  0  0  0  0  0  0  0  0  0  0  0
   56.5380   29.8660   45.2350 O   0  0  0  0  0  0  0  0  0  0  0  0
   57.9850   27.9910   45.4190 C   0  0  0  0  0  0  0  0  0  0  0  0
   57.6212   21.0838   44.0108 H   0  0  0  0  0  0  0  0  0  0  0  0
   56.7841   20.7122   42.4656 H   0  0  0  0  0  0  0  0  0  0  0  0
   58.2512   21.7487   42.4656 H   0  0  0  0  0  0  0  0  0  0  0  0
   57.1165   23.5935   43.3380 H   0  0  0  0  0  0  0  0  0  0  0  0
   55.8437   22.8248   42.2999 H   0  0  0  0  0  0  0  0  0  0  0  0
   54.5579   22.2240   44.0749 H   0  0  0  0  0  0  0  0  0  0  0  0
   55.9905   21.8813   45.1235 H   0  0  0  0  0  0  0  0  0  0  0  0
   53.2163   24.1210   45.0252 H   0  0  0  0  0  0  0  0  0  0  0  0
   58.2012   24.6506   44.6579 H   0  0  0  0  0  0  0  0  0  0  0  0
   58.0439   22.9348   47.1625 H   0  0  0  0  0  0  0  0  0  0  0  0
   57.2317   22.3673   45.6641 H   0  0  0  0  0  0  0  0  0  0  0  0
   59.0009   22.6784   45.6641 H   0  0  0  0  0  0  0  0  0  0  0  0
   61.2268   28.1634   46.5034 H   0  0  0  0  0  0  0  0  0  0  0  0
   60.6421   28.5069   44.8306 H   0  0  0  0  0  0  0  0  0  0  0  0
   60.0055   30.0170   47.4006 H   0  0  0  0  0  0  0  0  0  0  0  0
   60.8366   30.6135   45.8994 H   0  0  0  0  0  0  0  0  0  0  0  0
   57.4800   31.7032   43.7580 H   0  0  0  0  0  0  0  0  0  0  0  0
   57.0274   34.1533   43.6413 H   0  0  0  0  0  0  0  0  0  0  0  0
   57.8019   35.6593   45.4733 H   0  0  0  0  0  0  0  0  0  0  0  0
   59.4840   32.2631   47.5608 H   0  0  0  0  0  0  0  0  0  0  0  0
   57.1512   27.4423   45.8813 H   0  0  0  0  0  0  0  0  0  0  0  0
   58.0951   27.7153   44.3598 H   0  0  0  0  0  0  0  0  0  0  0  0
  1  2  1  0
  2  3  1  0
  3  4  1  0
  4  5  1  0
  5  6  2  0
  6  7  1  0
  7  8  2  0
  8  9  1  0
  9 10  1  0
  9 11  1  0
 11 12  1  0
 12 13  2  0
 12 14  1  0
 14 15  1  0
 15 16  1  0
 16 17  1  0
 17 18  1  0
 18 19  2  0
 19 20  1  0
 20 21  2  0
 21 22  1  0
 22 23  1  0
 22 24  2  0
 17 25  1  0
 25 26  2  0
 25 27  1  0
  8  4  1  0
 27 14  1  0
 24 18  1  0
  1 28  1  0
  1 29  1  0
  1 30  1  0
  2 31  1  0
  2 32  1  0
  3 33  1  0
  3 34  1  0
  5 35  1  0
  9 36  1  6
 10 37  1  0
 10 38  1  0
 10 39  1  0
 15 40  1  0
 15 41  1  0
 16 42  1  0
 16 43  1  0
 19 44  1  0
 20 45  1  0
 21 46  1  0
 24 47  1  0
 27 48  1  0
 27 49  1  0
M  CHG  1  11  -1
M  END
>  <UniqueID>  (49) 
46

>  <SMILES>  (49) 
CCCn1cnnc1[C@H](C)[N-]C(=O)N1CCN(c2cccc(F)c2)C(=O)C1

>  <Energy>  (49) 
84.65464583828947

>  <Genealogy>  (49) 
CCCn1cnnc1C(C)[N-]C(=O)N1CCN(c2cccc(F)c2)C(=O)C1 (protonated)
CCCn1cnnc1[C@H](C)[N-]C(=O)N1CCN(c2cccc(F)c2)C(=O)C1 (chirality)
CCCn1cnnc1[C@H](C)[N-]C(=O)N1CCN(c2cccc(F)c2)C(=O)C1 (3D coordinates assigned)
CCCn1cnnc1[C@H](C)[N-]C(=O)N1CCN(c2cccc(F)c2)C(=O)C1 (nonaromatic ring conformer: 84.65464583828947 kcal/mol)

>  <smiles>  (49) 
CCCn1cnnc1C(C)NC(=O)N1CCN(c2cccc(F)c2)C(=O)C1

>  <score_type>  (49) 
oracle

>  <origin>  (49) 
adg

>  <m_score__min__energy>  (49) 
-9.6899999999999995

>  <m_primary>  (49) 
energy

$$$$
49:0
     RDKit          3D

 62 66  0  0  0  0  0  0  0  0999 V2000
   58.0060   26.8560   46.3410 O   0  0  0  0  0  0  0  0  0  0  0  0
   58.3210   28.0500   46.5910 C   0  0  0  0  0  0  0  0  0  0  0  0
   57.3980   29.1170   46.3380 N   0  0  0  0  0  0  0  0  0  0  0  0
   57.2970   29.9130   45.1450 C   0  0  0  0  0  0  0  0  0  0  0  0
   57.0540   29.3170   43.8930 C   0  0  0  0  0  0  0  0  0  0  0  0
   56.9790   30.0970   42.7380 C   0  0  0  0  0  0  0  0  0  0  0  0
   57.1620   31.4790   42.8070 C   0  0  0  0  0  0  0  0  0  0  0  0
   57.4340   32.0930   44.0360 C   0  0  0  0  0  0  0  0  0  0  0  0
   57.6370   33.4820   44.1040 C   0  0  0  0  0  0  0  0  0  0  0  0
   57.9100   34.0940   45.3290 C   0  0  0  0  0  0  0  0  0  0  0  0
   57.9830   33.3300   46.4950 C   0  0  0  0  0  0  0  0  0  0  0  0
   57.7830   31.9470   46.4450 C   0  0  0  0  0  0  0  0  0  0  0  0
   57.5080   31.3090   45.2180 C   0  0  0  0  0  0  0  0  0  0  0  0
   59.6310   28.3410   47.2760 C   0  0  2  0  0  0  0  0  0  0  0  0
   59.3790   29.0450   48.6250 C   0  0  0  0  0  0  0  0  0  0  0  0
   60.5990   29.8820   49.0240 C   0  0  0  0  0  0  0  0  0  0  0  0
   60.8270   31.0010   48.0760 N   0  0  1  0  0  0  0  0  0  0  0  0
   62.4680   31.6120   48.2550 S   0  0  0  0  0  0  0  0  0  0  0  0
   63.0350   31.1710   49.5770 O   0  0  0  0  0  0  0  0  0  0  0  0
   63.3430   31.0230   47.1810 O   0  0  0  0  0  0  0  0  0  0  0  0
   62.5770   33.3710   48.1680 N   0  0  0  0  0  0  0  0  0  0  0  0
   62.6740   33.8410   46.7830 C   0  0  0  0  0  0  0  0  0  0  0  0
   61.2840   34.2790   46.3350 C   0  0  0  0  0  0  0  0  0  0  0  0
   60.4780   34.4800   47.6110 C   0  0  0  0  0  0  0  0  0  0  0  0
   61.4500   34.1310   48.7460 C   0  0  1  0  0  0  0  0  0  0  0  0
   60.8870   33.5610   50.0470 C   0  0  0  0  0  0  0  0  0  0  0  0
   59.5190   33.2250   50.0810 C   0  0  0  0  0  0  0  0  0  0  0  0
   58.9300   32.7320   51.2500 C   0  0  0  0  0  0  0  0  0  0  0  0
   59.6980   32.5670   52.4030 C   0  0  0  0  0  0  0  0  0  0  0  0
   61.0560   32.8910   52.3880 C   0  0  0  0  0  0  0  0  0  0  0  0
   61.6500   33.3840   51.2220 C   0  0  0  0  0  0  0  0  0  0  0  0
   60.5110   30.6590   46.6590 C   0  0  0  0  0  0  0  0  0  0  0  0
   60.5910   29.1510   46.3660 C   0  0  0  0  0  0  0  0  0  0  0  0
   56.9221   28.2271   43.8244 H   0  0  0  0  0  0  0  0  0  0  0  0
   56.7746   29.6200   41.7681 H   0  0  0  0  0  0  0  0  0  0  0  0
   57.0924   32.0877   41.8934 H   0  0  0  0  0  0  0  0  0  0  0  0
   57.5806   34.0894   43.1886 H   0  0  0  0  0  0  0  0  0  0  0  0
   58.0680   35.1816   45.3754 H   0  0  0  0  0  0  0  0  0  0  0  0
   58.1987   33.8179   47.4570 H   0  0  0  0  0  0  0  0  0  0  0  0
   57.8406   31.3528   47.3689 H   0  0  0  0  0  0  0  0  0  0  0  0
   60.1350   27.3846   47.4790 H   0  0  0  0  0  0  0  0  0  0  0  0
   58.5021   29.7027   48.5329 H   0  0  0  0  0  0  0  0  0  0  0  0
   59.1992   28.2834   49.3980 H   0  0  0  0  0  0  0  0  0  0  0  0
   60.4353   30.2945   50.0305 H   0  0  0  0  0  0  0  0  0  0  0  0
   61.4846   29.2298   49.0062 H   0  0  0  0  0  0  0  0  0  0  0  0
   60.1830   31.7710   48.3550 H   0  0  0  0  0  0  0  0  0  0  0  0
   63.3698   34.6910   46.7252 H   0  0  0  0  0  0  0  0  0  0  0  0
   63.0493   33.0373   46.1324 H   0  0  0  0  0  0  0  0  0  0  0  0
   61.3436   35.2197   45.7679 H   0  0  0  0  0  0  0  0  0  0  0  0
   60.8178   33.5313   45.6765 H   0  0  0  0  0  0  0  0  0  0  0  0
   60.1409   35.5236   47.6963 H   0  0  0  0  0  0  0  0  0  0  0  0
   59.5720   33.8566   47.6330 H   0  0  0  0  0  0  0  0  0  0  0  0
   61.7978   35.0920   49.1528 H   0  0  0  0  0  0  0  0  0  0  0  0
   58.9062   33.3521   49.1764 H   0  0  0  0  0  0  0  0  0  0  0  0
   57.8607   32.4742   51.2602 H   0  0  0  0  0  0  0  0  0  0  0  0
   59.2340   32.1820   53.3231 H   0  0  0  0  0  0  0  0  0  0  0  0
   61.6610   32.7579   53.2970 H   0  0  0  0  0  0  0  0  0  0  0  0
   62.7207   33.6361   51.2201 H   0  0  0  0  0  0  0  0  0  0  0  0
   59.4910   31.0048   46.4353 H   0  0  0  0  0  0  0  0  0  0  0  0
   61.2636   31.1544   46.0281 H   0  0  0  0  0  0  0  0  0  0  0  0
   60.3184   28.9766   45.3147 H   0  0  0  0  0  0  0  0  0  0  0  0
   61.6194   28.8157   46.5659 H   0  0  0  0  0  0  0  0  0  0  0  0
  1  2  2  0
  2  3  1  0
  3  4  1  0
  4  5  2  0
  5  6  1  0
  6  7  2  0
  7  8  1  0
  8  9  2  0
  9 10  1  0
 10 11  2  0
 11 12  1  0
 12 13  2  0
  2 14  1  0
 14 15  1  0
 15 16  1  0
 16 17  1  0
 17 18  1  0
 18 19  2  0
 18 20  2  0
 18 21  1  0
 21 22  1  0
 22 23  1  0
 23 24  1  0
 24 25  1  0
 25 26  1  0
 26 27  2  0
 27 28  1  0
 28 29  2  0
 29 30  1  0
 30 31  2  0
 17 32  1  0
 32 33  1  0
 13  4  1  0
 33 14  1  0
 13  8  1  0
 25 21  1  0
 31 26  1  0
  5 34  1  0
  6 35  1  0
  7 36  1  0
  9 37  1  0
 10 38  1  0
 11 39  1  0
 12 40  1  0
 14 41  1  1
 15 42  1  0
 15 43  1  0
 16 44  1  0
 16 45  1  0
 17 46  1  1
 22 47  1  0
 22 48  1  0
 23 49  1  0
 23 50  1  0
 24 51  1  0
 24 52  1  0
 25 53  1  1
 27 54  1  0
 28 55  1  0
 29 56  1  0
 30 57  1  0
 31 58  1  0
 32 59  1  0
 32 60  1  0
 33 61  1  0
 33 62  1  0
M  CHG  2   3  -1  17   1
M  END
>  <UniqueID>  (50) 
47

>  <SMILES>  (50) 
O=C([N-]c1cccc2ccccc12)C1CC[NH+](S(=O)(=O)N2CCC[C@H]2c2ccccc2)CC1

>  <Energy>  (50) 
92.3236589594342

>  <Genealogy>  (50) 
O=C([N-]c1cccc2ccccc12)C1CC[NH+](S(=O)(=O)N2CCCC2c2ccccc2)CC1 (protonated)
O=C([N-]c1cccc2ccccc12)C1CC[NH+](S(=O)(=O)N2CCC[C@H]2c2ccccc2)CC1 (chirality)
O=C([N-]c1cccc2ccccc12)C1CC[NH+](S(=O)(=O)N2CCC[C@H]2c2ccccc2)CC1 (3D coordinates assigned)
O=C([N-]c1cccc2ccccc12)C1CC[NH+](S(=O)(=O)N2CCC[C@H]2c2ccccc2)CC1 (nonaromatic ring conformer: 92.3236589594342 kcal/mol)

>  <smiles>  (50) 
O=C(Nc1cccc2ccccc12)C1CCN(S(=O)(=O)N2CCCC2c2ccccc2)CC1

>  <score_type>  (50) 
oracle

>  <origin>  (50) 
adg

>  <m_score__min__energy>  (50) 
-9.1300000000000008

>  <m_primary>  (50) 
energy

$$$$
50:0
     RDKit          3D

 41 43  0  0  0  0  0  0  0  0999 V2000
   58.1470   32.4370   42.7920 C   0  0  0  0  0  0  0  0  0  0  0  0
   58.1900   33.0060   44.1830 C   0  0  0  0  0  0  0  0  0  0  0  0
   59.1250   34.0070   44.5020 C   0  0  0  0  0  0  0  0  0  0  0  0
   59.1560   34.5620   45.7820 C   0  0  0  0  0  0  0  0  0  0  0  0
   58.2610   34.1240   46.7570 C   0  0  0  0  0  0  0  0  0  0  0  0
   57.3240   33.1350   46.4520 C   0  0  0  0  0  0  0  0  0  0  0  0
   57.2670   32.5780   45.1600 C   0  0  0  0  0  0  0  0  0  0  0  0
   56.2800   31.5930   44.8130 N   0  0  0  0  0  0  0  0  0  0  0  0
   56.6190   29.9270   44.4710 S   0  0  0  0  0  0  0  0  0  0  0  0
   55.5550   29.0650   45.0890 O   0  0  0  0  0  0  0  0  0  0  0  0
   56.6230   29.7200   42.9820 O   0  0  0  0  0  0  0  0  0  0  0  0
   58.1780   29.4960   45.1670 C   0  0  0  0  0  0  0  0  0  0  0  0
   59.1330   28.8100   44.4060 C   0  0  0  0  0  0  0  0  0  0  0  0
   60.4070   28.5740   44.9300 C   0  0  0  0  0  0  0  0  0  0  0  0
   60.7360   29.0300   46.2090 C   0  0  0  0  0  0  0  0  0  0  0  0
   59.7820   29.7100   46.9860 C   0  0  0  0  0  0  0  0  0  0  0  0
   60.1350   30.2340   48.3240 C   0  0  0  0  0  0  0  0  0  0  0  0
   59.2640   30.2580   49.2340 O   0  0  0  0  0  0  0  0  0  0  0  0
   61.4700   30.6670   48.6280 N   0  0  0  0  0  0  0  0  0  0  0  0
   62.0840   31.7080   48.1360 C   0  0  0  0  0  0  0  0  0  0  0  0
   61.4780   32.5890   47.2140 C   0  0  0  0  0  0  0  0  0  0  0  0
   62.1940   33.6890   46.7380 C   0  0  0  0  0  0  0  0  0  0  0  0
   63.4630   33.9150   47.1680 N   0  0  0  0  0  0  0  0  0  0  0  0
   64.0680   33.0930   48.0650 C   0  0  0  0  0  0  0  0  0  0  0  0
   63.3880   31.9820   48.5680 C   0  0  0  0  0  0  0  0  0  0  0  0
   58.4960   29.9200   46.4640 C   0  0  0  0  0  0  0  0  0  0  0  0
   58.0642   31.3415   42.8464 H   0  0  0  0  0  0  0  0  0  0  0  0
   57.2771   32.8443   42.2560 H   0  0  0  0  0  0  0  0  0  0  0  0
   59.0683   32.7089   42.2560 H   0  0  0  0  0  0  0  0  0  0  0  0
   59.8361   34.3545   43.7380 H   0  0  0  0  0  0  0  0  0  0  0  0
   59.8883   35.3469   46.0222 H   0  0  0  0  0  0  0  0  0  0  0  0
   58.2931   34.5579   47.7673 H   0  0  0  0  0  0  0  0  0  0  0  0
   56.6248   32.7882   47.2271 H   0  0  0  0  0  0  0  0  0  0  0  0
   58.8802   28.4568   43.3954 H   0  0  0  0  0  0  0  0  0  0  0  0
   61.1527   28.0277   44.3338 H   0  0  0  0  0  0  0  0  0  0  0  0
   61.7456   28.8562   46.6096 H   0  0  0  0  0  0  0  0  0  0  0  0
   60.4478   32.4098   46.8727 H   0  0  0  0  0  0  0  0  0  0  0  0
   61.7298   34.3742   46.0133 H   0  0  0  0  0  0  0  0  0  0  0  0
   65.0958   33.3033   48.3957 H   0  0  0  0  0  0  0  0  0  0  0  0
   63.8753   31.3233   49.3020 H   0  0  0  0  0  0  0  0  0  0  0  0
   57.7326   30.4209   47.0775 H   0  0  0  0  0  0  0  0  0  0  0  0
  1  2  1  0
  2  3  2  0
  3  4  1  0
  4  5  2  0
  5  6  1  0
  6  7  2  0
  7  8  1  0
  8  9  1  0
  9 10  2  0
  9 11  2  0
  9 12  1  0
 12 13  2  0
 13 14  1  0
 14 15  2  0
 15 16  1  0
 16 17  1  0
 17 18  2  0
 17 19  1  0
 19 20  2  3
 20 21  1  0
 21 22  2  0
 22 23  1  0
 23 24  1  0
 24 25  2  0
 16 26  2  0
  7  2  1  0
 26 12  1  0
 25 20  1  0
  1 27  1  0
  1 28  1  0
  1 29  1  0
  3 30  1  0
  4 31  1  0
  5 32  1  0
  6 33  1  0
 13 34  1  0
 14 35  1  0
 15 36  1  0
 21 37  1  0
 22 38  1  0
 24 39  1  0
 25 40  1  0
 26 41  1  0
M  CHG  2   8  -1  23  -1
M  END
>  <UniqueID>  (51) 
48

>  <SMILES>  (51) 
Cc1ccccc1[N-]S(=O)(=O)c1cccc(C(=O)N=c2cc[n-]cc2)c1

>  <Energy>  (51) 
57.24549615360318

>  <Genealogy>  (51) 
Cc1ccccc1[N-]S(=O)(=O)c1cccc(C(=O)N=c2cc[n-]cc2)c1 (protonated)
Cc1ccccc1[N-]S(=O)(=O)c1cccc(C(=O)N=c2cc[n-]cc2)c1 (3D coordinates assigned)
Cc1ccccc1[N-]S(=O)(=O)c1cccc(C(=O)N=c2cc[n-]cc2)c1 (optimized conformer: 57.24549615360318 kcal/mol)

>  <smiles>  (51) 
Cc1ccccc1NS(=O)(=O)c1cccc(C(=O)N=c2cc[nH]cc2)c1

>  <score_type>  (51) 
oracle

>  <origin>  (51) 
adg

>  <m_score__min__energy>  (51) 
-12.140000000000001

>  <m_primary>  (51) 
energy

$$$$
51:0
     RDKit          3D

 47 49  0  0  0  0  0  0  0  0999 V2000
   55.5370   24.0250   44.6610 C   0  0  0  0  0  0  0  0  0  0  0  0
   54.4740   24.5660   45.6110 C   0  0  0  0  0  0  0  0  0  0  0  0
   54.7700   25.9460   45.9810 N   0  0  0  0  0  0  0  0  0  0  0  0
   56.0880   26.4240   46.2680 C   0  0  0  0  0  0  0  0  0  0  0  0
   56.8080   25.8320   47.1180 O   0  0  0  0  0  0  0  0  0  0  0  0
   56.5870   27.5730   45.5720 N   0  0  0  0  0  0  0  0  0  0  0  0
   57.9150   28.1300   45.8210 C   0  0  0  0  0  0  0  0  0  0  0  0
   57.8210   29.3450   46.7450 C   0  0  0  0  0  0  0  0  0  0  0  0
   58.1490   30.5650   46.0070 N   0  0  0  0  0  0  0  0  0  0  0  0
   58.7750   31.6550   46.5150 C   0  0  0  0  0  0  0  0  0  0  0  0
   58.8590   32.6470   45.5470 C   0  0  0  0  0  0  0  0  0  0  0  0
   59.5930   34.2680   45.7440 S   0  0  0  0  0  0  0  0  0  0  0  0
   59.8320   34.0680   47.5390 C   0  0  0  0  0  0  0  0  0  0  0  0
   61.2820   33.7950   47.8240 C   0  0  0  0  0  0  0  0  0  0  0  0
   62.1650   33.5150   46.7670 C   0  0  0  0  0  0  0  0  0  0  0  0
   63.5220   33.2910   47.0230 C   0  0  0  0  0  0  0  0  0  0  0  0
   64.0080   33.3570   48.3310 C   0  0  0  0  0  0  0  0  0  0  0  0
   63.1400   33.6510   49.3860 C   0  0  0  0  0  0  0  0  0  0  0  0
   61.7820   33.8760   49.1380 C   0  0  0  0  0  0  0  0  0  0  0  0
   60.9580   34.1740   50.1740 F   0  0  0  0  0  0  0  0  0  0  0  0
   58.2510   32.1380   44.4200 C   0  0  0  0  0  0  0  0  0  0  0  0
   58.0390   32.7000   43.1610 C   0  0  0  0  0  0  0  0  0  0  0  0
   57.3640   31.9240   42.2030 C   0  0  0  0  0  0  0  0  0  0  0  0
   56.9170   30.6230   42.5220 C   0  0  0  0  0  0  0  0  0  0  0  0
   57.1450   30.0820   43.8000 C   0  0  0  0  0  0  0  0  0  0  0  0
   57.8250   30.8710   44.7330 C   0  0  0  0  0  0  0  0  0  0  0  0
   56.3684   23.6018   45.2438 H   0  0  0  0  0  0  0  0  0  0  0  0
   55.0973   23.2410   44.0269 H   0  0  0  0  0  0  0  0  0  0  0  0
   55.9121   24.8419   44.0269 H   0  0  0  0  0  0  0  0  0  0  0  0
   53.4928   24.5272   45.1153 H   0  0  0  0  0  0  0  0  0  0  0  0
   54.4652   23.9489   46.5216 H   0  0  0  0  0  0  0  0  0  0  0  0
   55.9980   27.9970   44.8200 H   0  0  0  0  0  0  0  0  0  0  0  0
   58.5463   27.3634   46.2940 H   0  0  0  0  0  0  0  0  0  0  0  0
   58.3545   28.4445   44.8629 H   0  0  0  0  0  0  0  0  0  0  0  0
   56.7974   29.4231   47.1403 H   0  0  0  0  0  0  0  0  0  0  0  0
   58.5341   29.2230   47.5736 H   0  0  0  0  0  0  0  0  0  0  0  0
   59.1595   31.7408   47.5420 H   0  0  0  0  0  0  0  0  0  0  0  0
   59.5241   34.9895   48.0548 H   0  0  0  0  0  0  0  0  0  0  0  0
   59.2228   33.2256   47.8984 H   0  0  0  0  0  0  0  0  0  0  0  0
   61.7877   33.4718   45.7346 H   0  0  0  0  0  0  0  0  0  0  0  0
   64.2071   33.0626   46.1933 H   0  0  0  0  0  0  0  0  0  0  0  0
   65.0747   33.1774   48.5307 H   0  0  0  0  0  0  0  0  0  0  0  0
   63.5259   33.7056   50.4146 H   0  0  0  0  0  0  0  0  0  0  0  0
   58.3883   33.7162   42.9259 H   0  0  0  0  0  0  0  0  0  0  0  0
   57.1827   32.3329   41.1980 H   0  0  0  0  0  0  0  0  0  0  0  0
   56.3860   30.0277   41.7646 H   0  0  0  0  0  0  0  0  0  0  0  0
   56.7993   29.0700   44.0576 H   0  0  0  0  0  0  0  0  0  0  0  0
  1  2  1  0
  2  3  1  0
  3  4  1  0
  4  5  2  0
  4  6  1  0
  6  7  1  0
  7  8  1  0
  8  9  1  0
  9 10  1  0
 10 11  2  0
 11 12  1  0
 12 13  1  0
 13 14  1  0
 14 15  2  0
 15 16  1  0
 16 17  2  0
 17 18  1  0
 18 19  2  0
 19 20  1  0
 11 21  1  0
 21 22  2  0
 22 23  1  0
 23 24  2  0
 24 25  1  0
 25 26  2  0
 26  9  1  0
 19 14  1  0
 26 21  1  0
  1 27  1  0
  1 28  1  0
  1 29  1  0
  2 30  1  0
  2 31  1  0
  6 32  1  0
  7 33  1  0
  7 34  1  0
  8 35  1  0
  8 36  1  0
 10 37  1  0
 13 38  1  0
 13 39  1  0
 15 40  1  0
 16 41  1  0
 17 42  1  0
 18 43  1  0
 22 44  1  0
 23 45  1  0
 24 46  1  0
 25 47  1  0
M  CHG  1   3  -1
M  END
>  <UniqueID>  (52) 
49

>  <SMILES>  (52) 
CC[N-]C(=O)NCCn1cc(SCc2ccccc2F)c2ccccc21

>  <Energy>  (52) 
68.38299744746915

>  <Genealogy>  (52) 
CC[N-]C(=O)NCCn1cc(SCc2ccccc2F)c2ccccc21 (protonated)
CC[N-]C(=O)NCCn1cc(SCc2ccccc2F)c2ccccc21 (3D coordinates assigned)
CC[N-]C(=O)NCCn1cc(SCc2ccccc2F)c2ccccc21 (optimized conformer: 68.38299744746915 kcal/mol)

>  <smiles>  (52) 
CCNC(=O)NCCn1cc(SCc2ccccc2F)c2ccccc21

>  <score_type>  (52) 
oracle

>  <origin>  (52) 
adg

>  <m_score__min__energy>  (52) 
-10.720000000000001

>  <m_primary>  (52) 
energy

$$$$
52:0
     RDKit          3D

 44 46  0  0  0  0  0  0  0  0999 V2000
   61.6810   34.2030   49.4370 C   0  0  0  0  0  0  0  0  0  0  0  0
   60.2990   33.8700   49.5070 O   0  0  0  0  0  0  0  0  0  0  0  0
   59.5760   33.2650   48.4680 C   0  0  0  0  0  0  0  0  0  0  0  0
   59.2300   31.9070   48.4870 C   0  0  0  0  0  0  0  0  0  0  0  0
   58.4740   31.3590   47.4500 C   0  0  0  0  0  0  0  0  0  0  0  0
   58.0750   32.1490   46.3610 C   0  0  0  0  0  0  0  0  0  0  0  0
   57.3730   31.5470   45.2640 N   0  0  0  0  0  0  0  0  0  0  0  0
   57.0490   30.1570   45.1510 C   0  0  0  0  0  0  0  0  0  0  0  0
   55.8640   29.8370   44.8690 O   0  0  0  0  0  0  0  0  0  0  0  0
   58.0470   29.0850   45.4130 C   0  0  0  0  0  0  0  0  0  0  0  0
   59.4140   29.4140   45.3720 C   0  0  0  0  0  0  0  0  0  0  0  0
   60.3880   28.4230   45.5010 C   0  0  0  0  0  0  0  0  0  0  0  0
   60.0130   27.0880   45.6350 C   0  0  0  0  0  0  0  0  0  0  0  0
   58.6610   26.7410   45.6640 C   0  0  0  0  0  0  0  0  0  0  0  0
   57.6650   27.7340   45.6010 C   0  0  0  0  0  0  0  0  0  0  0  0
   56.2710   27.3870   45.6280 N   0  0  0  0  0  0  0  0  0  0  0  0
   55.6450   26.1530   46.0130 C   0  0  0  0  0  0  0  0  0  0  0  0
   54.3910   26.0760   45.9430 O   0  0  0  0  0  0  0  0  0  0  0  0
   56.3730   25.0010   46.4710 N   0  0  0  0  0  0  0  0  0  0  0  0
   56.8360   24.0090   45.7690 C   0  0  0  0  0  0  0  0  0  0  0  0
   56.4630   23.8980   44.4230 C   0  0  0  0  0  0  0  0  0  0  0  0
   56.9630   22.8470   43.6530 C   0  0  0  0  0  0  0  0  0  0  0  0
   57.8300   21.9180   44.2280 C   0  0  0  0  0  0  0  0  0  0  0  0
   58.1750   22.0510   45.5740 C   0  0  0  0  0  0  0  0  0  0  0  0
   57.6670   23.0750   46.3130 N   0  0  0  0  0  0  0  0  0  0  0  0
   58.4500   33.5140   46.3100 C   0  0  0  0  0  0  0  0  0  0  0  0
   58.0820   34.3630   45.2010 N   0  0  0  0  0  0  0  0  0  0  0  0
   58.9630   34.9560   44.5440 O   0  0  0  0  0  0  0  0  0  0  0  0
   56.7650   34.5830   44.8730 O   0  0  0  0  0  0  0  0  0  0  0  0
   59.1910   34.0540   47.3800 C   0  0  0  0  0  0  0  0  0  0  0  0
   62.0866   34.3007   50.4548 H   0  0  0  0  0  0  0  0  0  0  0  0
   62.2226   33.4097   48.9010 H   0  0  0  0  0  0  0  0  0  0  0  0
   61.8018   35.1560   48.9010 H   0  0  0  0  0  0  0  0  0  0  0  0
   59.5558   31.2705   49.3229 H   0  0  0  0  0  0  0  0  0  0  0  0
   58.1880   30.2974   47.4865 H   0  0  0  0  0  0  0  0  0  0  0  0
   59.7182   30.4625   45.2370 H   0  0  0  0  0  0  0  0  0  0  0  0
   61.4535   28.6964   45.4969 H   0  0  0  0  0  0  0  0  0  0  0  0
   60.7828   26.3066   45.7180 H   0  0  0  0  0  0  0  0  0  0  0  0
   58.3714   25.6823   45.7367 H   0  0  0  0  0  0  0  0  0  0  0  0
   55.7799   24.6351   43.9757 H   0  0  0  0  0  0  0  0  0  0  0  0
   56.6742   22.7515   42.5959 H   0  0  0  0  0  0  0  0  0  0  0  0
   58.2369   21.0906   43.6281 H   0  0  0  0  0  0  0  0  0  0  0  0
   58.8594   21.3261   46.0389 H   0  0  0  0  0  0  0  0  0  0  0  0
   59.4721   35.1173   47.3588 H   0  0  0  0  0  0  0  0  0  0  0  0
  1  2  1  0
  2  3  1  0
  3  4  2  0
  4  5  1  0
  5  6  2  0
  6  7  1  0
  7  8  1  0
  8  9  2  0
  8 10  1  0
 10 11  2  0
 11 12  1  0
 12 13  2  0
 13 14  1  0
 14 15  2  0
 15 16  1  0
 16 17  1  0
 17 18  2  0
 17 19  1  0
 19 20  2  3
 20 21  1  0
 21 22  2  0
 22 23  1  0
 23 24  2  0
 24 25  1  0
  6 26  1  0
 26 27  1  0
 27 28  2  0
 27 29  1  0
 26 30  2  0
 30  3  1  0
 15 10  1  0
 25 20  1  0
  1 31  1  0
  1 32  1  0
  1 33  1  0
  4 34  1  0
  5 35  1  0
 11 36  1  0
 12 37  1  0
 13 38  1  0
 14 39  1  0
 21 40  1  0
 22 41  1  0
 23 42  1  0
 24 43  1  0
 30 44  1  0
M  CHG  5   7  -1  16  -1  25  -1  27   1  29  -1
M  END
>  <UniqueID>  (53) 
50

>  <SMILES>  (53) 
COc1ccc([N-]C(=O)c2ccccc2[N-]C(=O)N=c2cccc[n-]2)c([N+](=O)[O-])c1

>  <Energy>  (53) 
67.19428200248197

>  <Genealogy>  (53) 
COc1ccc([N-]C(=O)c2ccccc2[N-]C(=O)N=c2cccc[n-]2)c([N+](=O)[O-])c1 (protonated)
COc1ccc([N-]C(=O)c2ccccc2[N-]C(=O)N=c2cccc[n-]2)c([N+](=O)[O-])c1 (3D coordinates assigned)
COc1ccc([N-]C(=O)c2ccccc2[N-]C(=O)N=c2cccc[n-]2)c([N+](=O)[O-])c1 (optimized conformer: 67.19428200248197 kcal/mol)

>  <smiles>  (53) 
COc1ccc(NC(=O)c2ccccc2NC(=O)N=c2cccc[nH]2)c([N+](=O)[O-])c1

>  <score_type>  (53) 
oracle

>  <origin>  (53) 
adg

>  <m_score__min__energy>  (53) 
-12.59

>  <m_primary>  (53) 
energy

$$$$
53:0
     RDKit          3D

 41 42  0  0  0  0  0  0  0  0999 V2000
   61.1360   30.0740   48.3670 C   0  0  0  0  0  0  0  0  0  0  0  0
   60.9530   29.0400   47.4080 O   0  0  0  0  0  0  0  0  0  0  0  0
   59.7600   28.3230   47.2240 C   0  0  0  0  0  0  0  0  0  0  0  0
   59.6600   26.9570   47.5530 C   0  0  0  0  0  0  0  0  0  0  0  0
   58.4850   26.2490   47.2960 C   0  0  0  0  0  0  0  0  0  0  0  0
   57.3910   26.8810   46.6890 C   0  0  0  0  0  0  0  0  0  0  0  0
   56.1540   26.1200   46.4000 C   0  0  0  0  0  0  0  0  0  0  0  0
   55.1320   26.7060   45.9530 O   0  0  0  0  0  0  0  0  0  0  0  0
   56.1030   24.7490   46.6220 O   0  0  0  0  0  0  0  0  0  0  0  0
   57.4870   28.2440   46.3640 C   0  0  0  0  0  0  0  0  0  0  0  0
   58.6410   28.9780   46.6670 C   0  0  0  0  0  0  0  0  0  0  0  0
   58.6700   30.3810   46.3540 N   0  0  0  0  0  0  0  0  0  0  0  0
   57.7090   31.0210   45.4970 C   0  0  0  0  0  0  0  0  0  0  0  0
   56.7990   30.3470   44.9400 O   0  0  0  0  0  0  0  0  0  0  0  0
   57.7940   32.4960   45.2350 C   0  0  0  0  0  0  0  0  0  0  0  0
   58.2080   33.2870   46.4830 C   0  0  0  0  0  0  0  0  0  0  0  0
   59.6450   34.3230   46.2050 S   0  0  0  0  0  0  0  0  0  0  0  0
   59.2940   35.7380   46.5760 O   0  0  0  0  0  0  0  0  0  0  0  0
   60.0020   34.2800   44.7460 O   0  0  0  0  0  0  0  0  0  0  0  0
   61.0420   33.7890   47.1410 C   0  0  0  0  0  0  0  0  0  0  0  0
   60.9620   33.6860   48.5370 C   0  0  0  0  0  0  0  0  0  0  0  0
   62.0740   33.2720   49.2770 C   0  0  0  0  0  0  0  0  0  0  0  0
   63.2680   32.9450   48.6260 C   0  0  0  0  0  0  0  0  0  0  0  0
   64.6490   32.3880   49.5520 Cl  0  0  0  0  0  0  0  0  0  0  0  0
   63.3570   33.0610   47.2350 C   0  0  0  0  0  0  0  0  0  0  0  0
   62.2530   33.4950   46.4950 C   0  0  0  0  0  0  0  0  0  0  0  0
   61.0613   29.6519   49.3801 H   0  0  0  0  0  0  0  0  0  0  0  0
   62.1285   30.5284   48.2314 H   0  0  0  0  0  0  0  0  0  0  0  0
   60.3597   30.8415   48.2314 H   0  0  0  0  0  0  0  0  0  0  0  0
   60.5154   26.4438   48.0165 H   0  0  0  0  0  0  0  0  0  0  0  0
   58.4169   25.1864   47.5721 H   0  0  0  0  0  0  0  0  0  0  0  0
   56.6435   28.7425   45.8641 H   0  0  0  0  0  0  0  0  0  0  0  0
   59.5290   30.9180   46.6090 H   0  0  0  0  0  0  0  0  0  0  0  0
   58.5361   32.6722   44.4424 H   0  0  0  0  0  0  0  0  0  0  0  0
   56.7942   32.8421   44.9339 H   0  0  0  0  0  0  0  0  0  0  0  0
   57.3671   33.9271   46.7882 H   0  0  0  0  0  0  0  0  0  0  0  0
   58.4713   32.5587   47.2641 H   0  0  0  0  0  0  0  0  0  0  0  0
   60.0215   33.9317   49.0518 H   0  0  0  0  0  0  0  0  0  0  0  0
   62.0096   33.2034   50.3730 H   0  0  0  0  0  0  0  0  0  0  0  0
   64.2973   32.8103   46.7223 H   0  0  0  0  0  0  0  0  0  0  0  0
   62.3336   33.6064   45.4036 H   0  0  0  0  0  0  0  0  0  0  0  0
  1  2  1  0
  2  3  1  0
  3  4  2  0
  4  5  1  0
  5  6  2  0
  6  7  1  0
  7  8  2  0
  7  9  1  0
  6 10  1  0
 10 11  2  0
 11 12  1  0
 12 13  1  0
 13 14  2  0
 13 15  1  0
 15 16  1  0
 16 17  1  0
 17 18  2  0
 17 19  2  0
 17 20  1  0
 20 21  2  0
 21 22  1  0
 22 23  2  0
 23 24  1  0
 23 25  1  0
 25 26  2  0
 11  3  1  0
 26 20  1  0
  1 27  1  0
  1 28  1  0
  1 29  1  0
  4 30  1  0
  5 31  1  0
 10 32  1  0
 12 33  1  0
 15 34  1  0
 15 35  1  0
 16 36  1  0
 16 37  1  0
 21 38  1  0
 22 39  1  0
 25 40  1  0
 26 41  1  0
M  CHG  1   9  -1
M  END
>  <UniqueID>  (54) 
51

>  <SMILES>  (54) 
COc1ccc(C(=O)[O-])cc1NC(=O)CCS(=O)(=O)c1ccc(Cl)cc1

>  <Energy>  (54) 
36.9205708885295

>  <Genealogy>  (54) 
COc1ccc(C(=O)[O-])cc1NC(=O)CCS(=O)(=O)c1ccc(Cl)cc1 (protonated)
COc1ccc(C(=O)[O-])cc1NC(=O)CCS(=O)(=O)c1ccc(Cl)cc1 (3D coordinates assigned)
COc1ccc(C(=O)[O-])cc1NC(=O)CCS(=O)(=O)c1ccc(Cl)cc1 (optimized conformer: 36.9205708885295 kcal/mol)

>  <smiles>  (54) 
COc1ccc(C(=O)O)cc1NC(=O)CCS(=O)(=O)c1ccc(Cl)cc1

>  <score_type>  (54) 
oracle

>  <origin>  (54) 
adg

>  <m_score__min__energy>  (54) 
-12.4

>  <m_primary>  (54) 
energy

$$$$
54:0
     RDKit          3D

 51 54  0  0  0  0  0  0  0  0999 V2000
   57.5210   28.4490   43.0110 O   0  0  0  0  0  0  0  0  0  0  0  0
   56.6380   29.1590   43.5740 C   0  0  0  0  0  0  0  0  0  0  0  0
   56.2320   30.4620   42.9540 C   0  0  0  0  0  0  0  0  0  0  0  0
   57.0460   31.5710   43.5670 C   0  0  0  0  0  0  0  0  0  0  0  0
   57.9700   32.2910   42.7870 C   0  0  0  0  0  0  0  0  0  0  0  0
   58.7980   33.2550   43.3720 C   0  0  0  0  0  0  0  0  0  0  0  0
   58.7260   33.5030   44.7510 C   0  0  0  0  0  0  0  0  0  0  0  0
   59.5570   34.4610   45.3520 C   0  0  0  0  0  0  0  0  0  0  0  0
   59.4670   34.6990   46.7300 C   0  0  0  0  0  0  0  0  0  0  0  0
   58.5610   33.9800   47.5150 C   0  0  0  0  0  0  0  0  0  0  0  0
   57.7320   33.0200   46.9300 C   0  0  0  0  0  0  0  0  0  0  0  0
   57.8060   32.7760   45.5460 C   0  0  0  0  0  0  0  0  0  0  0  0
   56.9730   31.8150   44.9480 C   0  0  0  0  0  0  0  0  0  0  0  0
   56.1050   28.7750   44.8490 N   0  0  0  0  0  0  0  0  0  0  0  0
   56.7940   27.8430   45.6950 C   0  0  0  0  0  0  0  0  0  0  0  0
   58.1490   28.0620   45.9920 C   0  0  0  0  0  0  0  0  0  0  0  0
   58.8740   27.1340   46.7560 C   0  0  0  0  0  0  0  0  0  0  0  0
   60.6000   27.3830   47.0480 S   0  0  0  0  0  0  0  0  0  0  0  0
   61.1520   26.1720   47.7510 O   0  0  0  0  0  0  0  0  0  0  0  0
   61.3120   27.5100   45.7290 O   0  0  0  0  0  0  0  0  0  0  0  0
   60.9180   28.8180   48.0170 N   0  0  0  0  0  0  0  0  0  0  0  0
   61.1570   30.0170   47.1880 C   0  0  0  0  0  0  0  0  0  0  0  0
   59.8460   30.7210   46.7400 C   0  0  0  0  0  0  0  0  0  0  0  0
   58.6880   30.2460   47.4030 O   0  0  0  0  0  0  0  0  0  0  0  0
   58.9350   30.1750   48.7880 C   0  0  0  0  0  0  0  0  0  0  0  0
   59.9180   29.0260   49.0890 C   0  0  0  0  0  0  0  0  0  0  0  0
   58.2230   26.0020   47.2650 C   0  0  0  0  0  0  0  0  0  0  0  0
   56.8620   25.7970   47.0010 C   0  0  0  0  0  0  0  0  0  0  0  0
   56.1450   26.7130   46.2170 C   0  0  0  0  0  0  0  0  0  0  0  0
   54.7910   26.5020   45.9750 O   0  0  0  0  0  0  0  0  0  0  0  0
   56.4137   30.4270   41.8697 H   0  0  0  0  0  0  0  0  0  0  0  0
   55.1621   30.6424   43.1349 H   0  0  0  0  0  0  0  0  0  0  0  0
   58.0418   32.0939   41.7072 H   0  0  0  0  0  0  0  0  0  0  0  0
   59.5072   33.8199   42.7492 H   0  0  0  0  0  0  0  0  0  0  0  0
   60.2783   35.0245   44.7419 H   0  0  0  0  0  0  0  0  0  0  0  0
   60.1135   35.4566   47.1970 H   0  0  0  0  0  0  0  0  0  0  0  0
   58.5007   34.1708   48.5966 H   0  0  0  0  0  0  0  0  0  0  0  0
   57.0214   32.4548   47.5510 H   0  0  0  0  0  0  0  0  0  0  0  0
   56.2592   31.2503   45.5657 H   0  0  0  0  0  0  0  0  0  0  0  0
   55.4380   29.4360   45.3110 H   0  0  0  0  0  0  0  0  0  0  0  0
   58.6474   28.9702   45.6221 H   0  0  0  0  0  0  0  0  0  0  0  0
   61.7563   30.7317   47.7711 H   0  0  0  0  0  0  0  0  0  0  0  0
   61.6791   29.6871   46.2778 H   0  0  0  0  0  0  0  0  0  0  0  0
   59.9441   31.7979   46.9415 H   0  0  0  0  0  0  0  0  0  0  0  0
   59.7148   30.5038   45.6697 H   0  0  0  0  0  0  0  0  0  0  0  0
   59.3700   31.1258   49.1299 H   0  0  0  0  0  0  0  0  0  0  0  0
   57.9878   29.9878   49.3150 H   0  0  0  0  0  0  0  0  0  0  0  0
   60.4502   29.2570   50.0235 H   0  0  0  0  0  0  0  0  0  0  0  0
   59.3264   28.1020   49.1680 H   0  0  0  0  0  0  0  0  0  0  0  0
   58.7808   25.2739   47.8722 H   0  0  0  0  0  0  0  0  0  0  0  0
   56.3528   24.9124   47.4111 H   0  0  0  0  0  0  0  0  0  0  0  0
  1  2  2  0
  2  3  1  0
  3  4  1  0
  4  5  2  0
  5  6  1  0
  6  7  2  0
  7  8  1  0
  8  9  2  0
  9 10  1  0
 10 11  2  0
 11 12  1  0
 12 13  2  0
  2 14  1  0
 14 15  1  0
 15 16  2  0
 16 17  1  0
 17 18  1  0
 18 19  2  0
 18 20  2  0
 18 21  1  0
 21 22  1  0
 22 23  1  0
 23 24  1  0
 24 25  1  0
 25 26  1  0
 17 27  2  0
 27 28  1  0
 28 29  2  0
 29 30  1  0
 13  4  1  0
 29 15  1  0
 12  7  1  0
 26 21  1  0
  3 31  1  0
  3 32  1  0
  5 33  1  0
  6 34  1  0
  8 35  1  0
  9 36  1  0
 10 37  1  0
 11 38  1  0
 13 39  1  0
 14 40  1  0
 16 41  1  0
 22 42  1  0
 22 43  1  0
 23 44  1  0
 23 45  1  0
 25 46  1  0
 25 47  1  0
 26 48  1  0
 26 49  1  0
 27 50  1  0
 28 51  1  0
M  CHG  1  30  -1
M  END
>  <UniqueID>  (55) 
52

>  <SMILES>  (55) 
O=C(Cc1ccc2ccccc2c1)Nc1cc(S(=O)(=O)N2CCOCC2)ccc1[O-]

>  <Energy>  (55) 
69.59965304408426

>  <Genealogy>  (55) 
O=C(Cc1ccc2ccccc2c1)Nc1cc(S(=O)(=O)N2CCOCC2)ccc1[O-] (protonated)
O=C(Cc1ccc2ccccc2c1)Nc1cc(S(=O)(=O)N2CCOCC2)ccc1[O-] (3D coordinates assigned)
O=C(Cc1ccc2ccccc2c1)Nc1cc(S(=O)(=O)N2CCOCC2)ccc1[O-] (nonaromatic ring conformer: 69.59965304408426 kcal/mol)

>  <smiles>  (55) 
O=C(Cc1ccc2ccccc2c1)Nc1cc(S(=O)(=O)N2CCOCC2)ccc1O

>  <score_type>  (55) 
oracle

>  <origin>  (55) 
adg

>  <m_score__min__energy>  (55) 
-12.93

>  <m_primary>  (55) 
energy

$$$$
55:0
     RDKit          3D

 62 65  0  0  0  0  0  0  0  0999 V2000
   56.6590   34.4700   44.9260 C   0  0  0  0  0  0  0  0  0  0  0  0
   57.4910   33.2460   45.1520 C   0  0  0  0  0  0  0  0  0  0  0  0
   57.0120   32.0510   45.4070 O   0  0  0  0  0  0  0  0  0  0  0  0
   58.0430   31.2460   45.5770 C   0  0  0  0  0  0  0  0  0  0  0  0
   57.9200   29.8200   45.9540 C   0  0  0  0  0  0  0  0  0  0  0  0
   58.6260   29.3130   47.0630 C   0  0  0  0  0  0  0  0  0  0  0  0
   58.5320   27.9590   47.4010 C   0  0  0  0  0  0  0  0  0  0  0  0
   57.7370   27.0960   46.6380 C   0  0  0  0  0  0  0  0  0  0  0  0
   57.0430   27.5860   45.5280 C   0  0  0  0  0  0  0  0  0  0  0  0
   57.1310   28.9420   45.1860 C   0  0  0  0  0  0  0  0  0  0  0  0
   59.2280   31.8840   45.4320 N   0  0  0  0  0  0  0  0  0  0  0  0
   58.8710   33.1610   45.1690 C   0  0  0  0  0  0  0  0  0  0  0  0
   59.8420   34.3050   45.0940 C   0  0  0  0  0  0  0  0  0  0  0  0
   60.7650   34.3630   46.3190 C   0  0  0  0  0  0  0  0  0  0  0  0
   60.0600   34.8010   47.4860 O   0  0  0  0  0  0  0  0  0  0  0  0
   59.6560   33.9740   48.5490 C   0  0  0  0  0  0  0  0  0  0  0  0
   60.2600   34.1590   49.8000 C   0  0  0  0  0  0  0  0  0  0  0  0
   59.8340   33.4250   50.9120 C   0  0  0  0  0  0  0  0  0  0  0  0
   58.7960   32.4840   50.7820 C   0  0  0  0  0  0  0  0  0  0  0  0
   58.3110   31.7060   51.9850 C   0  0  0  0  0  0  0  0  0  0  0  0
   59.0280   30.4170   52.1290 N   0  0  1  0  0  0  0  0  0  0  0  0
   58.0950   29.3640   52.4730 C   0  0  0  0  0  0  0  0  0  0  0  0
   56.9680   29.3380   51.9950 O   0  0  0  0  0  0  0  0  0  0  0  0
   59.7620   30.0580   50.8900 C   0  0  0  0  0  0  0  0  0  0  0  0
   61.2910   30.2740   51.0050 C   0  0  0  0  0  0  0  0  0  0  0  0
   61.8790   30.9250   49.7740 C   0  0  0  0  0  0  0  0  0  0  0  0
   62.9810   31.7930   49.8870 C   0  0  0  0  0  0  0  0  0  0  0  0
   63.5180   32.4050   48.7480 C   0  0  0  0  0  0  0  0  0  0  0  0
   62.9720   32.1450   47.4860 C   0  0  0  0  0  0  0  0  0  0  0  0
   61.8730   31.2860   47.3620 C   0  0  0  0  0  0  0  0  0  0  0  0
   61.3240   30.6830   48.5030 C   0  0  0  0  0  0  0  0  0  0  0  0
   58.2210   32.2630   49.5200 C   0  0  0  0  0  0  0  0  0  0  0  0
   58.6570   32.9870   48.4070 C   0  0  0  0  0  0  0  0  0  0  0  0
   56.3672   34.8992   45.8959 H   0  0  0  0  0  0  0  0  0  0  0  0
   57.2420   35.2099   44.3580 H   0  0  0  0  0  0  0  0  0  0  0  0
   55.7564   34.2001   44.3580 H   0  0  0  0  0  0  0  0  0  0  0  0
   59.2541   29.9853   47.6659 H   0  0  0  0  0  0  0  0  0  0  0  0
   59.0847   27.5711   48.2694 H   0  0  0  0  0  0  0  0  0  0  0  0
   57.6584   26.0335   46.9115 H   0  0  0  0  0  0  0  0  0  0  0  0
   56.4266   26.9058   44.9218 H   0  0  0  0  0  0  0  0  0  0  0  0
   56.5808   29.3228   44.3129 H   0  0  0  0  0  0  0  0  0  0  0  0
   60.4589   34.1875   44.1909 H   0  0  0  0  0  0  0  0  0  0  0  0
   59.2618   35.2391   45.0637 H   0  0  0  0  0  0  0  0  0  0  0  0
   61.1759   33.3597   46.5050 H   0  0  0  0  0  0  0  0  0  0  0  0
   61.5702   35.0831   46.1112 H   0  0  0  0  0  0  0  0  0  0  0  0
   61.0765   34.8881   49.9085 H   0  0  0  0  0  0  0  0  0  0  0  0
   60.3115   33.5838   51.8901 H   0  0  0  0  0  0  0  0  0  0  0  0
   58.4764   32.3090   52.8900 H   0  0  0  0  0  0  0  0  0  0  0  0
   57.2415   31.4900   51.8455 H   0  0  0  0  0  0  0  0  0  0  0  0
   59.7090   30.4870   52.9160 H   0  0  0  0  0  0  0  0  0  0  0  0
   58.4037   28.5752   53.1747 H   0  0  0  0  0  0  0  0  0  0  0  0
   59.5742   28.9974   50.6668 H   0  0  0  0  0  0  0  0  0  0  0  0
   59.3969   30.7185   50.0897 H   0  0  0  0  0  0  0  0  0  0  0  0
   61.4917   30.9176   51.8742 H   0  0  0  0  0  0  0  0  0  0  0  0
   61.7603   29.2854   51.1161 H   0  0  0  0  0  0  0  0  0  0  0  0
   63.4225   31.9915   50.8748 H   0  0  0  0  0  0  0  0  0  0  0  0
   64.3715   33.0921   48.8454 H   0  0  0  0  0  0  0  0  0  0  0  0
   63.4061   32.6154   46.5914 H   0  0  0  0  0  0  0  0  0  0  0  0
   61.4408   31.0844   46.3707 H   0  0  0  0  0  0  0  0  0  0  0  0
   60.4543   30.0168   48.4042 H   0  0  0  0  0  0  0  0  0  0  0  0
   57.4223   31.5152   49.4068 H   0  0  0  0  0  0  0  0  0  0  0  0
   58.2204   32.7871   47.4174 H   0  0  0  0  0  0  0  0  0  0  0  0
  1  2  1  0
  2  3  1  0
  3  4  1  0
  4  5  1  0
  5  6  2  0
  6  7  1  0
  7  8  2  0
  8  9  1  0
  9 10  2  0
  4 11  2  0
 11 12  1  0
 12 13  1  0
 13 14  1  0
 14 15  1  0
 15 16  1  0
 16 17  2  0
 17 18  1  0
 18 19  2  0
 19 20  1  0
 20 21  1  0
 21 22  1  0
 22 23  2  0
 21 24  1  0
 24 25  1  0
 25 26  1  0
 26 27  2  0
 27 28  1  0
 28 29  2  0
 29 30  1  0
 30 31  2  0
 19 32  1  0
 32 33  2  0
 12  2  2  0
 33 16  1  0
 10  5  1  0
 31 26  1  0
  1 34  1  0
  1 35  1  0
  1 36  1  0
  6 37  1  0
  7 38  1  0
  8 39  1  0
  9 40  1  0
 10 41  1  0
 13 42  1  0
 13 43  1  0
 14 44  1  0
 14 45  1  0
 17 46  1  0
 18 47  1  0
 20 48  1  0
 20 49  1  0
 21 50  1  1
 22 51  1  0
 24 52  1  0
 24 53  1  0
 25 54  1  0
 25 55  1  0
 27 56  1  0
 28 57  1  0
 29 58  1  0
 30 59  1  0
 31 60  1  0
 32 61  1  0
 33 62  1  0
M  CHG  1  21   1
M  END
>  <UniqueID>  (56) 
53

>  <SMILES>  (56) 
Cc1oc(-c2ccccc2)nc1CCOc1ccc(C[N@@H+](C=O)CCc2ccccc2)cc1

>  <Energy>  (56) 
90.7127500955332

>  <Genealogy>  (56) 
Cc1oc(-c2ccccc2)nc1CCOc1ccc(C[NH+](C=O)CCc2ccccc2)cc1 (protonated)
Cc1oc(-c2ccccc2)nc1CCOc1ccc(C[N@@H+](C=O)CCc2ccccc2)cc1 (chirality)
Cc1oc(-c2ccccc2)nc1CCOc1ccc(C[N@@H+](C=O)CCc2ccccc2)cc1 (3D coordinates assigned)
Cc1oc(-c2ccccc2)nc1CCOc1ccc(C[N@@H+](C=O)CCc2ccccc2)cc1 (optimized conformer: 90.7127500955332 kcal/mol)

>  <smiles>  (56) 
Cc1oc(-c2ccccc2)nc1CCOc1ccc(CN(C=O)CCc2ccccc2)cc1

>  <score_type>  (56) 
oracle

>  <origin>  (56) 
adg

>  <m_score__min__energy>  (56) 
-7.5700000000000003

>  <m_primary>  (56) 
energy

$$$$
56:0
     RDKit          3D

 53 56  0  0  0  0  0  0  0  0999 V2000
   58.5850   28.9490   46.9500 O   0  0  0  0  0  0  0  0  0  0  0  0
   57.8340   28.8920   45.9400 C   0  0  0  0  0  0  0  0  0  0  0  0
   57.0660   30.0500   45.5790 N   0  0  0  0  0  0  0  0  0  0  0  0
   57.2720   30.8430   44.4010 C   0  0  0  0  0  0  0  0  0  0  0  0
   56.7710   30.4210   43.1550 C   0  0  0  0  0  0  0  0  0  0  0  0
   57.0110   31.1750   42.0060 C   0  0  0  0  0  0  0  0  0  0  0  0
   57.7620   32.3480   42.0820 C   0  0  0  0  0  0  0  0  0  0  0  0
   58.2780   32.7690   43.3080 C   0  0  0  0  0  0  0  0  0  0  0  0
   58.0440   32.0220   44.4740 C   0  0  0  0  0  0  0  0  0  0  0  0
   58.5530   32.4980   45.7310 N   0  0  0  0  0  0  0  0  0  0  0  0
   58.0050   33.7200   46.3310 C   0  0  0  0  0  0  0  0  0  0  0  0
   58.9830   34.2830   47.3640 C   0  0  0  0  0  0  0  0  0  0  0  0
   60.3010   34.1610   46.8730 O   0  0  0  0  0  0  0  0  0  0  0  0
   60.7210   32.8050   46.9130 C   0  0  0  0  0  0  0  0  0  0  0  0
   59.6640   31.8010   46.3890 C   0  0  0  0  0  0  0  0  0  0  0  0
   57.7250   27.6270   45.1810 C   0  0  0  0  0  0  0  0  0  0  0  0
   57.2570   26.4610   45.8060 C   0  0  0  0  0  0  0  0  0  0  0  0
   57.0950   25.2830   45.0750 C   0  0  0  0  0  0  0  0  0  0  0  0
   57.3900   25.2520   43.7020 C   0  0  0  0  0  0  0  0  0  0  0  0
   57.1630   24.0720   42.9170 N   0  0  0  0  0  0  0  0  0  0  0  0
   56.8130   22.5280   43.6320 S   0  0  0  0  0  0  0  0  0  0  0  0
   58.0810   21.9390   44.1850 O   0  0  0  0  0  0  0  0  0  0  0  0
   56.2630   21.6040   42.5820 O   0  0  0  0  0  0  0  0  0  0  0  0
   55.6050   22.7250   44.9030 C   0  0  0  0  0  0  0  0  0  0  0  0
   54.3950   23.3840   44.6380 C   0  0  0  0  0  0  0  0  0  0  0  0
   53.4150   23.4850   45.6320 C   0  0  0  0  0  0  0  0  0  0  0  0
   53.6420   22.9350   46.8950 C   0  0  0  0  0  0  0  0  0  0  0  0
   54.8480   22.2840   47.1680 C   0  0  0  0  0  0  0  0  0  0  0  0
   55.8280   22.1760   46.1760 C   0  0  0  0  0  0  0  0  0  0  0  0
   56.9870   21.5250   46.4530 F   0  0  0  0  0  0  0  0  0  0  0  0
   57.9090   26.4030   43.0890 C   0  0  0  0  0  0  0  0  0  0  0  0
   58.0770   27.5820   43.8210 C   0  0  0  0  0  0  0  0  0  0  0  0
   56.1869   29.4914   43.0869 H   0  0  0  0  0  0  0  0  0  0  0  0
   56.6071   30.8437   41.0379 H   0  0  0  0  0  0  0  0  0  0  0  0
   57.9476   32.9415   41.1747 H   0  0  0  0  0  0  0  0  0  0  0  0
   58.8725   33.6929   43.3617 H   0  0  0  0  0  0  0  0  0  0  0  0
   57.8375   34.4688   45.5428 H   0  0  0  0  0  0  0  0  0  0  0  0
   57.0536   33.4812   46.8288 H   0  0  0  0  0  0  0  0  0  0  0  0
   58.7553   35.3437   47.5459 H   0  0  0  0  0  0  0  0  0  0  0  0
   58.8872   33.7231   48.3060 H   0  0  0  0  0  0  0  0  0  0  0  0
   61.6272   32.7055   46.2975 H   0  0  0  0  0  0  0  0  0  0  0  0
   60.8971   32.5580   47.9703 H   0  0  0  0  0  0  0  0  0  0  0  0
   60.1406   31.1223   45.6663 H   0  0  0  0  0  0  0  0  0  0  0  0
   59.2644   31.2366   47.2444 H   0  0  0  0  0  0  0  0  0  0  0  0
   57.0162   26.4754   46.8792 H   0  0  0  0  0  0  0  0  0  0  0  0
   56.7341   24.3733   45.5772 H   0  0  0  0  0  0  0  0  0  0  0  0
   57.0120   24.1670   41.8880 H   0  0  0  0  0  0  0  0  0  0  0  0
   54.2160   23.8229   43.6454 H   0  0  0  0  0  0  0  0  0  0  0  0
   52.4657   23.9978   45.4181 H   0  0  0  0  0  0  0  0  0  0  0  0
   52.8711   23.0142   47.6757 H   0  0  0  0  0  0  0  0  0  0  0  0
   55.0269   21.8556   48.1652 H   0  0  0  0  0  0  0  0  0  0  0  0
   58.1856   26.3771   42.0247 H   0  0  0  0  0  0  0  0  0  0  0  0
   58.4862   28.4778   43.3309 H   0  0  0  0  0  0  0  0  0  0  0  0
  1  2  2  0
  2  3  1  0
  3  4  1  0
  4  5  2  0
  5  6  1  0
  6  7  2  0
  7  8  1  0
  8  9  2  0
  9 10  1  0
 10 11  1  0
 11 12  1  0
 12 13  1  0
 13 14  1  0
 14 15  1  0
  2 16  1  0
 16 17  2  0
 17 18  1  0
 18 19  2  0
 19 20  1  0
 20 21  1  0
 21 22  2  0
 21 23  2  0
 21 24  1  0
 24 25  2  0
 25 26  1  0
 26 27  2  0
 27 28  1  0
 28 29  2  0
 29 30  1  0
 19 31  1  0
 31 32  2  0
  9  4  1  0
 15 10  1  0
 32 16  1  0
 29 24  1  0
  5 33  1  0
  6 34  1  0
  7 35  1  0
  8 36  1  0
 11 37  1  0
 11 38  1  0
 12 39  1  0
 12 40  1  0
 14 41  1  0
 14 42  1  0
 15 43  1  0
 15 44  1  0
 17 45  1  0
 18 46  1  0
 20 47  1  0
 25 48  1  0
 26 49  1  0
 27 50  1  0
 28 51  1  0
 31 52  1  0
 32 53  1  0
M  CHG  1   3  -1
M  END
>  <UniqueID>  (57) 
54

>  <SMILES>  (57) 
O=C([N-]c1ccccc1N1CCOCC1)c1ccc(NS(=O)(=O)c2ccccc2F)cc1

>  <Energy>  (57) 
76.3318122208047

>  <Genealogy>  (57) 
O=C([N-]c1ccccc1N1CCOCC1)c1ccc(NS(=O)(=O)c2ccccc2F)cc1 (protonated)
O=C([N-]c1ccccc1N1CCOCC1)c1ccc(NS(=O)(=O)c2ccccc2F)cc1 (3D coordinates assigned)
O=C([N-]c1ccccc1N1CCOCC1)c1ccc(NS(=O)(=O)c2ccccc2F)cc1 (nonaromatic ring conformer: 76.3318122208047 kcal/mol)

>  <smiles>  (57) 
O=C(Nc1ccccc1N1CCOCC1)c1ccc(NS(=O)(=O)c2ccccc2F)cc1

>  <score_type>  (57) 
oracle

>  <origin>  (57) 
adg

>  <m_score__min__energy>  (57) 
-11.039999999999999

>  <m_primary>  (57) 
energy

$$$$
57:0
     RDKit          3D

 56 58  0  0  0  0  0  0  0  0999 V2000
   58.1320   23.2580   44.5400 C   0  0  0  0  0  0  0  0  0  0  0  0
   56.7400   23.7170   44.8950 C   0  0  0  0  0  0  0  0  0  0  0  0
   55.6910   22.7810   44.8470 C   0  0  0  0  0  0  0  0  0  0  0  0
   54.3890   23.1520   45.1830 C   0  0  0  0  0  0  0  0  0  0  0  0
   54.1150   24.4590   45.5770 C   0  0  0  0  0  0  0  0  0  0  0  0
   55.1400   25.4080   45.6340 C   0  0  0  0  0  0  0  0  0  0  0  0
   54.8340   26.7040   46.0420 O   0  0  0  0  0  0  0  0  0  0  0  0
   56.4630   25.0570   45.2870 C   0  0  0  0  0  0  0  0  0  0  0  0
   57.5370   26.1320   45.3040 C   0  0  0  0  0  0  0  0  0  0  0  0
   58.6750   25.8010   46.2810 C   0  0  0  0  0  0  0  0  0  0  0  0
   59.0510   26.9840   47.1160 C   0  0  0  0  0  0  0  0  0  0  0  0
   60.1060   26.9550   47.8060 O   0  0  0  0  0  0  0  0  0  0  0  0
   58.1850   28.1220   47.1600 N   0  0  0  0  0  0  0  0  0  0  0  0
   58.5960   29.4710   46.7760 C   0  0  1  0  0  0  0  0  0  0  0  0
   60.1260   29.5270   46.6020 C   0  0  0  0  0  0  0  0  0  0  0  0
   60.7370   30.6890   47.3270 C   0  0  0  0  0  0  0  0  0  0  0  0
   61.9600   30.9530   47.1630 O   0  0  0  0  0  0  0  0  0  0  0  0
   59.9530   31.4500   48.2020 O   0  0  0  0  0  0  0  0  0  0  0  0
   59.9480   32.8760   48.2080 C   0  0  0  0  0  0  0  0  0  0  0  0
   59.1450   33.3970   47.0470 C   0  0  0  0  0  0  0  0  0  0  0  0
   57.7710   33.1210   46.9430 C   0  0  0  0  0  0  0  0  0  0  0  0
   57.0390   33.5910   45.8450 C   0  0  0  0  0  0  0  0  0  0  0  0
   57.6750   34.3340   44.8450 C   0  0  0  0  0  0  0  0  0  0  0  0
   59.0440   34.6060   44.9390 C   0  0  0  0  0  0  0  0  0  0  0  0
   59.7780   34.1370   46.0340 C   0  0  0  0  0  0  0  0  0  0  0  0
   57.8830   29.8650   45.5000 C   0  0  0  0  0  0  0  0  0  0  0  0
   58.4900   30.7580   44.5990 C   0  0  0  0  0  0  0  0  0  0  0  0
   57.8470   31.1040   43.4060 C   0  0  0  0  0  0  0  0  0  0  0  0
   56.5940   30.5630   43.1030 C   0  0  0  0  0  0  0  0  0  0  0  0
   55.9850   29.6710   43.9890 C   0  0  0  0  0  0  0  0  0  0  0  0
   56.6240   29.3230   45.1830 C   0  0  0  0  0  0  0  0  0  0  0  0
   58.7023   23.0700   45.4616 H   0  0  0  0  0  0  0  0  0  0  0  0
   58.0733   22.3317   43.9497 H   0  0  0  0  0  0  0  0  0  0  0  0
   58.6358   24.0376   43.9497 H   0  0  0  0  0  0  0  0  0  0  0  0
   55.8997   21.7452   44.5412 H   0  0  0  0  0  0  0  0  0  0  0  0
   53.5775   22.4108   45.1366 H   0  0  0  0  0  0  0  0  0  0  0  0
   53.0874   24.7462   45.8446 H   0  0  0  0  0  0  0  0  0  0  0  0
   57.9564   26.2295   44.2918 H   0  0  0  0  0  0  0  0  0  0  0  0
   57.0695   27.0707   45.6362 H   0  0  0  0  0  0  0  0  0  0  0  0
   58.3494   24.9860   46.9441 H   0  0  0  0  0  0  0  0  0  0  0  0
   59.5556   25.5036   45.6926 H   0  0  0  0  0  0  0  0  0  0  0  0
   58.3215   30.1852   47.5663 H   0  0  0  0  0  0  0  0  0  0  0  0
   60.5614   28.5962   46.9944 H   0  0  0  0  0  0  0  0  0  0  0  0
   60.3395   29.6482   45.5297 H   0  0  0  0  0  0  0  0  0  0  0  0
   59.5025   33.2340   49.1479 H   0  0  0  0  0  0  0  0  0  0  0  0
   60.9826   33.2392   48.1210 H   0  0  0  0  0  0  0  0  0  0  0  0
   57.2688   32.5341   47.7262 H   0  0  0  0  0  0  0  0  0  0  0  0
   55.9630   33.3756   45.7691 H   0  0  0  0  0  0  0  0  0  0  0  0
   57.0986   34.7045   43.9845 H   0  0  0  0  0  0  0  0  0  0  0  0
   59.5438   35.1890   44.1514 H   0  0  0  0  0  0  0  0  0  0  0  0
   60.8553   34.3485   46.1021 H   0  0  0  0  0  0  0  0  0  0  0  0
   59.4755   31.1866   44.8337 H   0  0  0  0  0  0  0  0  0  0  0  0
   58.3278   31.8026   42.7054 H   0  0  0  0  0  0  0  0  0  0  0  0
   56.0875   30.8398   42.1666 H   0  0  0  0  0  0  0  0  0  0  0  0
   55.0015   29.2418   43.7470 H   0  0  0  0  0  0  0  0  0  0  0  0
   56.1397   28.6216   45.8783 H   0  0  0  0  0  0  0  0  0  0  0  0
  1  2  1  0
  2  3  2  0
  3  4  1  0
  4  5  2  0
  5  6  1  0
  6  7  1  0
  6  8  2  0
  8  9  1  0
  9 10  1  0
 10 11  1  0
 11 12  2  0
 11 13  1  0
 13 14  1  0
 14 15  1  0
 15 16  1  0
 16 17  2  0
 16 18  1  0
 18 19  1  0
 19 20  1  0
 20 21  2  0
 21 22  1  0
 22 23  2  0
 23 24  1  0
 24 25  2  0
 14 26  1  0
 26 27  2  0
 27 28  1  0
 28 29  2  0
 29 30  1  0
 30 31  2  0
  8  2  1  0
 25 20  1  0
 31 26  1  0
  1 32  1  0
  1 33  1  0
  1 34  1  0
  3 35  1  0
  4 36  1  0
  5 37  1  0
  9 38  1  0
  9 39  1  0
 10 40  1  0
 10 41  1  0
 14 42  1  1
 15 43  1  0
 15 44  1  0
 19 45  1  0
 19 46  1  0
 21 47  1  0
 22 48  1  0
 23 49  1  0
 24 50  1  0
 25 51  1  0
 27 52  1  0
 28 53  1  0
 29 54  1  0
 30 55  1  0
 31 56  1  0
M  CHG  2   7  -1  13  -1
M  END
>  <UniqueID>  (58) 
55

>  <SMILES>  (58) 
Cc1cccc([O-])c1CCC(=O)[N-][C@@H](CC(=O)OCc1ccccc1)c1ccccc1

>  <Energy>  (58) 
50.53984520470656

>  <Genealogy>  (58) 
Cc1cccc([O-])c1CCC(=O)[N-]C(CC(=O)OCc1ccccc1)c1ccccc1 (protonated)
Cc1cccc([O-])c1CCC(=O)[N-][C@@H](CC(=O)OCc1ccccc1)c1ccccc1 (chirality)
Cc1cccc([O-])c1CCC(=O)[N-][C@@H](CC(=O)OCc1ccccc1)c1ccccc1 (3D coordinates assigned)
Cc1cccc([O-])c1CCC(=O)[N-][C@@H](CC(=O)OCc1ccccc1)c1ccccc1 (optimized conformer: 50.53984520470656 kcal/mol)

>  <smiles>  (58) 
Cc1cccc(O)c1CCC(=O)NC(CC(=O)OCc1ccccc1)c1ccccc1

>  <score_type>  (58) 
oracle

>  <origin>  (58) 
adg

>  <m_score__min__energy>  (58) 
-14.41

>  <m_primary>  (58) 
energy

$$$$
58:0
     RDKit          3D

 40 40  0  0  0  0  0  0  0  0999 V2000
   59.5240   33.3680   48.4290 C   0  0  0  0  0  0  0  0  0  0  0  0
   58.9320   32.3390   47.6440 O   0  0  0  0  0  0  0  0  0  0  0  0
   58.5580   32.4830   46.3000 C   0  0  0  0  0  0  0  0  0  0  0  0
   58.9430   33.5910   45.5270 C   0  0  0  0  0  0  0  0  0  0  0  0
   58.5590   33.6840   44.1880 C   0  0  0  0  0  0  0  0  0  0  0  0
   57.7840   32.6700   43.5930 C   0  0  0  0  0  0  0  0  0  0  0  0
   57.4150   32.7210   42.2390 O   0  0  0  0  0  0  0  0  0  0  0  0
   58.2580   32.3440   41.1560 C   0  0  0  0  0  0  0  0  0  0  0  0
   57.3740   31.5690   44.3730 C   0  0  0  0  0  0  0  0  0  0  0  0
   56.5840   30.4390   43.7610 C   0  0  0  0  0  0  0  0  0  0  0  0
   56.6140   29.2580   44.6770 C   0  0  0  0  0  0  0  0  0  0  0  0
   55.5560   28.8780   45.2470 O   0  0  0  0  0  0  0  0  0  0  0  0
   57.8620   28.6210   44.9640 N   0  0  0  0  0  0  0  0  0  0  0  0
   58.2420   28.1580   46.2930 C   0  0  0  0  0  0  0  0  0  0  0  0
   57.6870   26.7550   46.5480 C   0  0  0  0  0  0  0  0  0  0  0  0
   57.0360   26.2420   45.3400 N   0  0  0  0  0  0  0  0  0  0  0  0
   55.7160   25.2020   45.7800 S   0  0  0  0  0  0  0  0  0  0  0  0
   55.6490   23.8290   44.6520 C   0  0  0  0  0  0  0  0  0  0  0  0
   55.9250   24.6850   47.1760 O   0  0  0  0  0  0  0  0  0  0  0  0
   54.4170   25.9560   45.7140 O   0  0  0  0  0  0  0  0  0  0  0  0
   57.7780   31.4810   45.7160 C   0  0  0  0  0  0  0  0  0  0  0  0
   59.3913   33.1373   49.4963 H   0  0  0  0  0  0  0  0  0  0  0  0
   60.5976   33.4331   48.1987 H   0  0  0  0  0  0  0  0  0  0  0  0
   59.0406   34.3289   48.1987 H   0  0  0  0  0  0  0  0  0  0  0  0
   59.5500   34.3893   45.9790 H   0  0  0  0  0  0  0  0  0  0  0  0
   58.8645   34.5570   43.5926 H   0  0  0  0  0  0  0  0  0  0  0  0
   59.1956   31.9247   41.5499 H   0  0  0  0  0  0  0  0  0  0  0  0
   57.7483   31.5881   40.5405 H   0  0  0  0  0  0  0  0  0  0  0  0
   58.4816   33.2279   40.5405 H   0  0  0  0  0  0  0  0  0  0  0  0
   55.5427   30.7594   43.6095 H   0  0  0  0  0  0  0  0  0  0  0  0
   57.0271   30.1637   42.7925 H   0  0  0  0  0  0  0  0  0  0  0  0
   59.3391   28.1329   46.3681 H   0  0  0  0  0  0  0  0  0  0  0  0
   57.8274   28.8475   47.0431 H   0  0  0  0  0  0  0  0  0  0  0  0
   58.5115   26.0836   46.8296 H   0  0  0  0  0  0  0  0  0  0  0  0
   56.9480   26.8033   47.3614 H   0  0  0  0  0  0  0  0  0  0  0  0
   56.6280   27.0530   44.8190 H   0  0  0  0  0  0  0  0  0  0  0  0
   55.6031   22.8888   45.2211 H   0  0  0  0  0  0  0  0  0  0  0  0
   54.7541   23.9182   44.0185 H   0  0  0  0  0  0  0  0  0  0  0  0
   56.5483   23.8307   44.0185 H   0  0  0  0  0  0  0  0  0  0  0  0
   57.4758   30.6104   46.3167 H   0  0  0  0  0  0  0  0  0  0  0  0
  1  2  1  0
  2  3  1  0
  3  4  2  0
  4  5  1  0
  5  6  2  0
  6  7  1  0
  7  8  1  0
  6  9  1  0
  9 10  1  0
 10 11  1  0
 11 12  2  0
 11 13  1  0
 13 14  1  0
 14 15  1  0
 15 16  1  0
 16 17  1  0
 17 18  1  0
 17 19  2  0
 17 20  2  0
  9 21  2  0
 21  3  1  0
  1 22  1  0
  1 23  1  0
  1 24  1  0
  4 25  1  0
  5 26  1  0
  8 27  1  0
  8 28  1  0
  8 29  1  0
 10 30  1  0
 10 31  1  0
 14 32  1  0
 14 33  1  0
 15 34  1  0
 15 35  1  0
 16 36  1  0
 18 37  1  0
 18 38  1  0
 18 39  1  0
 21 40  1  0
M  CHG  1  13  -1
M  END
>  <UniqueID>  (59) 
56

>  <SMILES>  (59) 
COc1ccc(OC)c(CC(=O)[N-]CCNS(C)(=O)=O)c1

>  <Energy>  (59) 
20.42139553154001

>  <Genealogy>  (59) 
COc1ccc(OC)c(CC(=O)[N-]CCNS(C)(=O)=O)c1 (protonated)
COc1ccc(OC)c(CC(=O)[N-]CCNS(C)(=O)=O)c1 (3D coordinates assigned)
COc1ccc(OC)c(CC(=O)[N-]CCNS(C)(=O)=O)c1 (optimized conformer: 20.42139553154001 kcal/mol)

>  <smiles>  (59) 
COc1ccc(OC)c(CC(=O)NCCNS(C)(=O)=O)c1

>  <score_type>  (59) 
oracle

>  <origin>  (59) 
adg

>  <m_score__min__energy>  (59) 
-8.6699999999999999

>  <m_primary>  (59) 
energy

$$$$
59:0
     RDKit          3D

 47 50  0  0  0  0  0  0  0  0999 V2000
   58.8412   34.9996   44.0247 H   0  0  0  0  0  0  0  0  0  0  0  0
   58.7930   34.6200   45.0560 C   0  0  0  0  0  0  0  0  0  0  0  0
   57.8190   33.6840   45.4110 C   0  0  0  0  0  0  0  0  0  0  0  0
   57.0943   33.3347   44.6608 H   0  0  0  0  0  0  0  0  0  0  0  0
   57.7630   33.1900   46.7180 C   0  0  0  0  0  0  0  0  0  0  0  0
   56.9847   32.4645   46.9971 H   0  0  0  0  0  0  0  0  0  0  0  0
   58.7010   33.6190   47.6790 C   0  0  0  0  0  0  0  0  0  0  0  0
   57.3960   30.1000   52.2490 N   0  0  0  0  0  0  0  0  0  0  0  0
   57.8870   30.3540   51.0720 C   0  0  0  0  0  0  0  0  0  0  0  0
   58.9210   30.9250   48.6280 N   0  0  0  0  0  0  0  0  0  0  0  0
   58.7980   29.6290   49.0190 C   0  0  0  0  0  0  0  0  0  0  0  0
   59.2260   28.5280   48.1210 C   0  0  0  0  0  0  0  0  0  0  0  0
   60.3440   27.7340   48.4450 C   0  0  0  0  0  0  0  0  0  0  0  0
   60.9032   27.9297   49.3718 H   0  0  0  0  0  0  0  0  0  0  0  0
   60.7470   26.6990   47.5960 C   0  0  0  0  0  0  0  0  0  0  0  0
   61.6216   26.0851   47.8569 H   0  0  0  0  0  0  0  0  0  0  0  0
   60.0430   26.4420   46.4180 C   0  0  0  0  0  0  0  0  0  0  0  0
   60.3613   25.6256   45.7531 H   0  0  0  0  0  0  0  0  0  0  0  0
   58.9340   27.2230   46.0850 C   0  0  0  0  0  0  0  0  0  0  0  0
   58.3809   27.0220   45.1557 H   0  0  0  0  0  0  0  0  0  0  0  0
   58.5250   28.2590   46.9290 C   0  0  0  0  0  0  0  0  0  0  0  0
   57.6496   28.8687   46.6607 H   0  0  0  0  0  0  0  0  0  0  0  0
   58.2800   29.3520   50.2440 N   0  0  0  0  0  0  0  0  0  0  0  0
   58.5400   31.9350   49.4510 C   0  0  0  0  0  0  0  0  0  0  0  0
   58.6570   33.1660   49.0420 N   0  0  0  0  0  0  0  0  0  0  0  0
   56.0990   30.5730   52.7380 C   0  0  0  0  0  0  0  0  0  0  0  0
   55.9826   31.6344   52.4738 H   0  0  0  0  0  0  0  0  0  0  0  0
   56.0702   30.4362   53.8291 H   0  0  0  0  0  0  0  0  0  0  0  0
   54.9410   29.7750   52.1210 C   0  0  0  0  0  0  0  0  0  0  0  0
   54.7712   28.8696   52.7222 H   0  0  0  0  0  0  0  0  0  0  0  0
   55.2145   29.5149   51.0878 H   0  0  0  0  0  0  0  0  0  0  0  0
   53.6700   30.5820   52.0830 C   0  0  0  0  0  0  0  0  0  0  0  0
   53.2540   31.1920   50.8870 C   0  0  0  0  0  0  0  0  0  0  0  0
   53.8432   31.0552   49.9682 H   0  0  0  0  0  0  0  0  0  0  0  0
   52.0940   31.9720   50.8610 C   0  0  0  0  0  0  0  0  0  0  0  0
   51.7690   32.4411   49.9206 H   0  0  0  0  0  0  0  0  0  0  0  0
   51.3460   32.1570   52.0280 C   0  0  0  0  0  0  0  0  0  0  0  0
   50.1950   32.9340   51.9990 O   0  0  0  0  0  0  0  0  0  0  0  0
   51.7600   31.5610   53.2240 C   0  0  0  0  0  0  0  0  0  0  0  0
   51.1730   31.7081   54.1426 H   0  0  0  0  0  0  0  0  0  0  0  0
   52.9180   30.7790   53.2540 C   0  0  0  0  0  0  0  0  0  0  0  0
   53.2421   30.3159   54.1977 H   0  0  0  0  0  0  0  0  0  0  0  0
   58.0130   31.6430   50.6690 N   0  0  0  0  0  0  0  0  0  0  0  0
   59.6530   34.5830   47.3200 C   0  0  0  0  0  0  0  0  0  0  0  0
   60.3633   34.9560   48.0725 H   0  0  0  0  0  0  0  0  0  0  0  0
   59.7060   35.0740   46.0110 C   0  0  0  0  0  0  0  0  0  0  0  0
   60.4671   35.8181   45.7335 H   0  0  0  0  0  0  0  0  0  0  0  0
  1  2  1  0
  2  3  2  0
  3  4  1  0
  3  5  1  0
  5  6  1  0
  5  7  2  0
  7  8  1  0
  8  9  2  0
  9 10  1  0
 10 11  2  0
 11 12  1  0
 12 13  2  0
 13 14  1  0
 13 15  1  0
 15 16  1  0
 15 17  2  0
 17 18  1  0
 17 19  1  0
 19 20  1  0
 19 21  2  0
 21 22  1  0
 11 23  1  0
 23 24  1  0
 24 25  2  0
 25 26  1  0
 26 27  1  0
 26 28  1  0
 26 29  1  0
 29 30  1  0
 29 31  1  0
 29 32  1  0
 32 33  2  0
 33 34  1  0
 33 35  1  0
 35 36  1  0
 35 37  2  0
 37 38  1  0
 37 39  1  0
 39 40  1  0
 39 41  2  0
 41 42  1  0
 24 43  1  0
  7 44  1  0
 44 45  1  0
 44 46  2  0
 46 47  1  0
 46  2  1  0
 43  9  1  0
 21 12  1  0
 41 32  1  0
M  CHG  3  23  -1  38  -1  43  -1
M  END
>  <UniqueID>  (60) 
57

>  <SMILES>  (60) 
[O-]c1ccc(CC/N=c2\[n-]c(-c3ccccc3)n/c(=N/c3ccccc3)[n-]2)cc1

>  <Energy>  (60) 
56.55050070807632

>  <Genealogy>  (60) 
[O-]c1ccc(CCN=c2[n-]c(-c3ccccc3)nc(=Nc3ccccc3)[n-]2)cc1 (protonated)
[O-]c1ccc(CC/N=c2\[n-]c(-c3ccccc3)n/c(=N/c3ccccc3)[n-]2)cc1 (cis-trans isomerization)
[O-]c1ccc(CC/N=c2\[n-]c(-c3ccccc3)n/c(=N/c3ccccc3)[n-]2)cc1 (3D coordinates assigned)
[O-]c1ccc(CC/N=c2\[n-]c(-c3ccccc3)n/c(=N/c3ccccc3)[n-]2)cc1 (optimized conformer: 56.55050070807632 kcal/mol)

>  <smiles>  (60) 
Oc1ccc(CCN=c2[nH]c(-c3ccccc3)nc(=Nc3ccccc3)[nH]2)cc1

>  <score_type>  (60) 
oracle

>  <origin>  (60) 
adg

>  <m_score__min__energy>  (60) 
-15.050000000000001

>  <m_primary>  (60) 
energy

$$$$
60:0
     RDKit          3D

 55 57  0  0  0  0  0  0  0  0999 V2000
   58.1370   31.9860   41.8670 C   0  0  0  0  0  0  0  0  0  0  0  0
   57.6320   33.0250   42.6980 O   0  0  0  0  0  0  0  0  0  0  0  0
   57.9550   33.1840   44.0540 C   0  0  0  0  0  0  0  0  0  0  0  0
   58.8640   34.1660   44.4950 C   0  0  0  0  0  0  0  0  0  0  0  0
   59.1570   34.2940   45.8530 C   0  0  0  0  0  0  0  0  0  0  0  0
   58.5420   33.4600   46.7850 C   0  0  0  0  0  0  0  0  0  0  0  0
   57.6360   32.4860   46.3630 C   0  0  0  0  0  0  0  0  0  0  0  0
   57.3510   32.3280   44.9930 C   0  0  0  0  0  0  0  0  0  0  0  0
   56.4040   31.3550   44.5260 N   0  0  0  0  0  0  0  0  0  0  0  0
   56.5570   29.9310   44.5480 C   0  0  0  0  0  0  0  0  0  0  0  0
   56.2760   29.2650   45.5820 O   0  0  0  0  0  0  0  0  0  0  0  0
   57.1550   29.2380   43.3650 C   0  0  0  0  0  0  0  0  0  0  0  0
   57.7950   27.9070   43.7800 C   0  0  0  0  0  0  0  0  0  0  0  0
   59.3130   28.0200   43.9730 C   0  0  0  0  0  0  0  0  0  0  0  0
   59.6820   28.1680   45.4210 C   0  0  0  0  0  0  0  0  0  0  0  0
   60.6130   27.4630   45.8920 O   0  0  0  0  0  0  0  0  0  0  0  0
   59.0390   29.1690   46.2250 N   0  0  0  0  0  0  0  0  0  0  0  0
   59.3830   29.4510   47.5910 C   0  0  0  0  0  0  0  0  0  0  0  0
   59.2970   28.4640   48.5880 C   0  0  0  0  0  0  0  0  0  0  0  0
   59.6400   28.7660   49.9080 C   0  0  0  0  0  0  0  0  0  0  0  0
   60.0590   30.0540   50.2480 C   0  0  0  0  0  0  0  0  0  0  0  0
   60.1160   31.0600   49.2710 C   0  0  0  0  0  0  0  0  0  0  0  0
   60.6010   32.4380   49.6290 C   0  0  0  0  0  0  0  0  0  0  0  0
   61.8370   32.7790   48.8370 C   0  0  0  0  0  0  0  0  0  0  0  0
   61.7160   33.3860   47.5730 C   0  0  0  0  0  0  0  0  0  0  0  0
   62.8570   33.7330   46.8440 C   0  0  0  0  0  0  0  0  0  0  0  0
   64.1270   33.4890   47.3710 C   0  0  0  0  0  0  0  0  0  0  0  0
   64.2600   32.8980   48.6320 C   0  0  0  0  0  0  0  0  0  0  0  0
   63.1220   32.5440   49.3660 C   0  0  0  0  0  0  0  0  0  0  0  0
   63.2740   31.9760   50.5910 F   0  0  0  0  0  0  0  0  0  0  0  0
   59.7710   30.7520   47.9460 C   0  0  0  0  0  0  0  0  0  0  0  0
   58.5319   31.1736   42.4948 H   0  0  0  0  0  0  0  0  0  0  0  0
   57.3270   31.5980   41.2319 H   0  0  0  0  0  0  0  0  0  0  0  0
   58.9425   32.3832   41.2319 H   0  0  0  0  0  0  0  0  0  0  0  0
   59.3446   34.8345   43.7656 H   0  0  0  0  0  0  0  0  0  0  0  0
   59.8758   35.0557   46.1893 H   0  0  0  0  0  0  0  0  0  0  0  0
   58.7712   33.5697   47.8553 H   0  0  0  0  0  0  0  0  0  0  0  0
   57.1426   31.8392   47.1034 H   0  0  0  0  0  0  0  0  0  0  0  0
   56.3657   29.0432   42.6240 H   0  0  0  0  0  0  0  0  0  0  0  0
   57.9335   29.8845   42.9338 H   0  0  0  0  0  0  0  0  0  0  0  0
   57.3425   27.5781   44.7271 H   0  0  0  0  0  0  0  0  0  0  0  0
   57.6137   27.1827   42.9722 H   0  0  0  0  0  0  0  0  0  0  0  0
   59.7910   27.1128   43.5748 H   0  0  0  0  0  0  0  0  0  0  0  0
   59.6596   28.9169   43.4387 H   0  0  0  0  0  0  0  0  0  0  0  0
   58.3740   29.8230   45.7490 H   0  0  0  0  0  0  0  0  0  0  0  0
   58.9584   27.4502   48.3279 H   0  0  0  0  0  0  0  0  0  0  0  0
   59.5799   27.9868   50.6821 H   0  0  0  0  0  0  0  0  0  0  0  0
   60.3455   30.2810   51.2855 H   0  0  0  0  0  0  0  0  0  0  0  0
   59.8119   33.1705   49.4036 H   0  0  0  0  0  0  0  0  0  0  0  0
   60.8443   32.4646   50.7014 H   0  0  0  0  0  0  0  0  0  0  0  0
   60.7182   33.5884   47.1566 H   0  0  0  0  0  0  0  0  0  0  0  0
   62.7543   34.1993   45.8530 H   0  0  0  0  0  0  0  0  0  0  0  0
   65.0232   33.7616   46.7943 H   0  0  0  0  0  0  0  0  0  0  0  0
   65.2612   32.7111   49.0476 H   0  0  0  0  0  0  0  0  0  0  0  0
   59.8051   31.5386   47.1778 H   0  0  0  0  0  0  0  0  0  0  0  0
  1  2  1  0
  2  3  1  0
  3  4  2  0
  4  5  1  0
  5  6  2  0
  6  7  1  0
  7  8  2  0
  8  9  1  0
  9 10  1  0
 10 11  2  0
 10 12  1  0
 12 13  1  0
 13 14  1  0
 14 15  1  0
 15 16  2  0
 15 17  1  0
 17 18  1  0
 18 19  2  0
 19 20  1  0
 20 21  2  0
 21 22  1  0
 22 23  1  0
 23 24  1  0
 24 25  2  0
 25 26  1  0
 26 27  2  0
 27 28  1  0
 28 29  2  0
 29 30  1  0
 22 31  2  0
  8  3  1  0
 31 18  1  0
 29 24  1  0
  1 32  1  0
  1 33  1  0
  1 34  1  0
  4 35  1  0
  5 36  1  0
  6 37  1  0
  7 38  1  0
 12 39  1  0
 12 40  1  0
 13 41  1  0
 13 42  1  0
 14 43  1  0
 14 44  1  0
 17 45  1  0
 19 46  1  0
 20 47  1  0
 21 48  1  0
 23 49  1  0
 23 50  1  0
 25 51  1  0
 26 52  1  0
 27 53  1  0
 28 54  1  0
 31 55  1  0
M  CHG  1   9  -1
M  END
>  <UniqueID>  (61) 
58

>  <SMILES>  (61) 
COc1ccccc1[N-]C(=O)CCCC(=O)Nc1cccc(Cc2ccccc2F)c1

>  <Energy>  (61) 
56.20358689608941

>  <Genealogy>  (61) 
COc1ccccc1[N-]C(=O)CCCC(=O)Nc1cccc(Cc2ccccc2F)c1 (protonated)
COc1ccccc1[N-]C(=O)CCCC(=O)Nc1cccc(Cc2ccccc2F)c1 (3D coordinates assigned)
COc1ccccc1[N-]C(=O)CCCC(=O)Nc1cccc(Cc2ccccc2F)c1 (optimized conformer: 56.20358689608941 kcal/mol)

>  <smiles>  (61) 
COc1ccccc1NC(=O)CCCC(=O)Nc1cccc(Cc2ccccc2F)c1

>  <score_type>  (61) 
oracle

>  <origin>  (61) 
adg

>  <m_score__min__energy>  (61) 
-12.109999999999999

>  <m_primary>  (61) 
energy

$$$$
61:0
     RDKit          3D

 60 63  0  0  0  0  0  0  0  0999 V2000
   62.0940   32.4690   47.0920 C   0  0  0  0  0  0  0  0  0  0  0  0
   60.8510   31.8440   47.6470 C   0  0  0  0  0  0  0  0  0  0  0  0
   60.0140   30.9480   46.9980 C   0  0  0  0  0  0  0  0  0  0  0  0
   60.1200   30.4450   45.6610 N   0  0  0  0  0  0  0  0  0  0  0  0
   60.4120   29.0840   45.3060 C   0  0  0  0  0  0  0  0  0  0  0  0
   61.2500   28.8800   44.3920 O   0  0  0  0  0  0  0  0  0  0  0  0
   59.8290   27.9250   46.0400 C   0  0  0  0  0  0  0  0  0  0  0  0
   60.4800   27.4500   47.1960 C   0  0  0  0  0  0  0  0  0  0  0  0
   59.9680   26.3700   47.9160 C   0  0  0  0  0  0  0  0  0  0  0  0
   58.8160   25.7230   47.4800 C   0  0  0  0  0  0  0  0  0  0  0  0
   58.1800   26.1450   46.3150 C   0  0  0  0  0  0  0  0  0  0  0  0
   58.6700   27.2380   45.5860 C   0  0  0  0  0  0  0  0  0  0  0  0
   57.7830   27.6670   44.0720 S   0  0  0  0  0  0  0  0  0  0  0  0
   56.6470   28.8890   44.8150 C   0  0  0  0  0  0  0  0  0  0  0  0
   56.6760   30.2220   44.1270 C   0  0  0  0  0  0  0  0  0  0  0  0
   55.5960   30.8290   43.8930 O   0  0  0  0  0  0  0  0  0  0  0  0
   57.9270   30.8480   43.8140 N   0  0  0  0  0  0  0  0  0  0  0  0
   58.0250   32.2830   43.5520 C   0  0  0  0  0  0  0  0  0  0  0  0
   58.3220   33.0250   44.8280 C   0  0  0  0  0  0  0  0  0  0  0  0
   59.3330   34.0010   44.8700 C   0  0  0  0  0  0  0  0  0  0  0  0
   59.5550   34.7330   46.0410 C   0  0  0  0  0  0  0  0  0  0  0  0
   58.7720   34.5000   47.1730 C   0  0  0  0  0  0  0  0  0  0  0  0
   57.7700   33.5270   47.1430 C   0  0  0  0  0  0  0  0  0  0  0  0
   57.5440   32.7910   45.9740 C   0  0  0  0  0  0  0  0  0  0  0  0
   59.0930   30.5670   47.9450 C   0  0  0  0  0  0  0  0  0  0  0  0
   58.1710   29.7230   47.7800 O   0  0  0  0  0  0  0  0  0  0  0  0
   59.3270   31.2350   49.0930 N   0  0  0  0  0  0  0  0  0  0  0  0
   58.5560   31.1250   50.3030 C   0  0  0  0  0  0  0  0  0  0  0  0
   57.8700   32.2380   50.8140 C   0  0  0  0  0  0  0  0  0  0  0  0
   57.1260   32.1250   51.9920 C   0  0  0  0  0  0  0  0  0  0  0  0
   57.0680   30.9030   52.6690 C   0  0  0  0  0  0  0  0  0  0  0  0
   57.7550   29.7930   52.1690 C   0  0  0  0  0  0  0  0  0  0  0  0
   58.5000   29.9030   50.9920 C   0  0  0  0  0  0  0  0  0  0  0  0
   60.3850   32.0250   48.9090 N   0  0  0  0  0  0  0  0  0  0  0  0
   60.9650   32.9190   49.9160 C   0  0  0  0  0  0  0  0  0  0  0  0
   62.7416   32.7946   47.9194 H   0  0  0  0  0  0  0  0  0  0  0  0
   62.6301   31.7333   46.4745 H   0  0  0  0  0  0  0  0  0  0  0  0
   61.8232   33.3381   46.4745 H   0  0  0  0  0  0  0  0  0  0  0  0
   61.4055   27.9378   47.5358 H   0  0  0  0  0  0  0  0  0  0  0  0
   60.4762   26.0294   48.8302 H   0  0  0  0  0  0  0  0  0  0  0  0
   58.4078   24.8788   48.0550 H   0  0  0  0  0  0  0  0  0  0  0  0
   57.2829   25.6147   45.9627 H   0  0  0  0  0  0  0  0  0  0  0  0
   55.6229   28.4910   44.7619 H   0  0  0  0  0  0  0  0  0  0  0  0
   56.9758   29.0507   45.8522 H   0  0  0  0  0  0  0  0  0  0  0  0
   58.8040   30.2850   43.8480 H   0  0  0  0  0  0  0  0  0  0  0  0
   58.8332   32.4660   42.8286 H   0  0  0  0  0  0  0  0  0  0  0  0
   57.0679   32.6397   43.1436 H   0  0  0  0  0  0  0  0  0  0  0  0
   59.9510   34.1894   43.9797 H   0  0  0  0  0  0  0  0  0  0  0  0
   60.3486   35.4942   46.0700 H   0  0  0  0  0  0  0  0  0  0  0  0
   58.9442   35.0832   48.0896 H   0  0  0  0  0  0  0  0  0  0  0  0
   57.1587   33.3393   48.0380 H   0  0  0  0  0  0  0  0  0  0  0  0
   56.7538   32.0261   45.9526 H   0  0  0  0  0  0  0  0  0  0  0  0
   57.9180   33.2018   50.2860 H   0  0  0  0  0  0  0  0  0  0  0  0
   56.5857   32.9981   52.3867 H   0  0  0  0  0  0  0  0  0  0  0  0
   56.4815   30.8151   53.5954 H   0  0  0  0  0  0  0  0  0  0  0  0
   57.7091   28.8322   52.7025 H   0  0  0  0  0  0  0  0  0  0  0  0
   59.0443   29.0294   50.6040 H   0  0  0  0  0  0  0  0  0  0  0  0
   60.7224   32.5450   50.9216 H   0  0  0  0  0  0  0  0  0  0  0  0
   62.0574   32.9525   49.7909 H   0  0  0  0  0  0  0  0  0  0  0  0
   60.5504   33.9302   49.7909 H   0  0  0  0  0  0  0  0  0  0  0  0
  1  2  1  0
  2  3  2  0
  3  4  1  0
  4  5  1  0
  5  6  2  0
  5  7  1  0
  7  8  2  0
  8  9  1  0
  9 10  2  0
 10 11  1  0
 11 12  2  0
 12 13  1  0
 13 14  1  0
 14 15  1  0
 15 16  2  0
 15 17  1  0
 17 18  1  0
 18 19  1  0
 19 20  2  0
 20 21  1  0
 21 22  2  0
 22 23  1  0
 23 24  2  0
  3 25  1  0
 25 26  2  0
 25 27  1  0
 27 28  1  0
 28 29  2  0
 29 30  1  0
 30 31  2  0
 31 32  1  0
 32 33  2  0
 27 34  1  0
 34 35  1  0
 34  2  1  0
 12  7  1  0
 24 19  1  0
 33 28  1  0
  1 36  1  0
  1 37  1  0
  1 38  1  0
  8 39  1  0
  9 40  1  0
 10 41  1  0
 11 42  1  0
 14 43  1  0
 14 44  1  0
 17 45  1  0
 18 46  1  0
 18 47  1  0
 20 48  1  0
 21 49  1  0
 22 50  1  0
 23 51  1  0
 24 52  1  0
 29 53  1  0
 30 54  1  0
 31 55  1  0
 32 56  1  0
 33 57  1  0
 35 58  1  0
 35 59  1  0
 35 60  1  0
M  CHG  1   4  -1
M  END
>  <UniqueID>  (62) 
59

>  <SMILES>  (62) 
Cc1c([N-]C(=O)c2ccccc2SCC(=O)NCc2ccccc2)c(=O)n(-c2ccccc2)n1C

>  <Energy>  (62) 
111.29220037598617

>  <Genealogy>  (62) 
Cc1c([N-]C(=O)c2ccccc2SCC(=O)NCc2ccccc2)c(=O)n(-c2ccccc2)n1C (protonated)
Cc1c([N-]C(=O)c2ccccc2SCC(=O)NCc2ccccc2)c(=O)n(-c2ccccc2)n1C (3D coordinates assigned)
Cc1c([N-]C(=O)c2ccccc2SCC(=O)NCc2ccccc2)c(=O)n(-c2ccccc2)n1C (optimized conformer: 111.29220037598617 kcal/mol)

>  <smiles>  (62) 
Cc1c(NC(=O)c2ccccc2SCC(=O)NCc2ccccc2)c(=O)n(-c2ccccc2)n1C

>  <score_type>  (62) 
oracle

>  <origin>  (62) 
adg

>  <m_score__min__energy>  (62) 
-10.83

>  <m_primary>  (62) 
energy

$$$$
62:0
     RDKit          3D

 38 40  0  0  0  0  0  0  0  0999 V2000
   58.7460   35.8872   44.3231 H   0  0  0  0  0  0  0  0  0  0  0  0
   58.8710   34.9640   44.9080 C   0  0  0  0  0  0  0  0  0  0  0  0
   59.6450   34.9740   46.0720 C   0  0  0  0  0  0  0  0  0  0  0  0
   60.1201   35.9076   46.4077 H   0  0  0  0  0  0  0  0  0  0  0  0
   59.8160   33.7990   46.8100 C   0  0  0  0  0  0  0  0  0  0  0  0
   60.4128   33.8142   47.7339 H   0  0  0  0  0  0  0  0  0  0  0  0
   59.2270   32.5960   46.3750 C   0  0  0  0  0  0  0  0  0  0  0  0
   59.3470   31.3750   47.1210 N   0  0  0  0  0  0  0  0  0  0  0  0
   60.2340   30.4380   46.9430 C   0  0  0  0  0  0  0  0  0  0  0  0
   59.8600   29.1840   46.3490 N   0  0  0  0  0  0  0  0  0  0  0  0
   58.6530   28.7850   46.0590 C   0  0  0  0  0  0  0  0  0  0  0  0
   58.2090   27.5640   46.5820 C   0  0  0  0  0  0  0  0  0  0  0  0
   58.8695   26.9687   47.2296 H   0  0  0  0  0  0  0  0  0  0  0  0
   56.9250   27.1040   46.2790 C   0  0  0  0  0  0  0  0  0  0  0  0
   56.5724   26.1491   46.6960 H   0  0  0  0  0  0  0  0  0  0  0  0
   56.1100   27.8320   45.4710 N   0  0  0  0  0  0  0  0  0  0  0  0
   55.1530   27.4740   45.2530 H   0  0  0  0  0  0  0  0  0  0  0  0
   56.5180   29.0120   44.9320 C   0  0  0  0  0  0  0  0  0  0  0  0
   55.8406   29.5769   44.2747 H   0  0  0  0  0  0  0  0  0  0  0  0
   57.7930   29.5100   45.2090 C   0  0  0  0  0  0  0  0  0  0  0  0
   58.1240   30.4614   44.7670 H   0  0  0  0  0  0  0  0  0  0  0  0
   61.5930   30.6410   47.3730 N   0  0  0  0  0  0  0  0  0  0  0  0
   62.2480   29.8280   47.3280 H   0  0  0  0  0  0  0  0  0  0  0  0
   62.0890   31.8600   47.9500 C   0  0  0  0  0  0  0  0  0  0  0  0
   63.0790   32.6270   47.3060 C   0  0  0  0  0  0  0  0  0  0  0  0
   63.4736   32.3054   46.3309 H   0  0  0  0  0  0  0  0  0  0  0  0
   63.5620   33.7960   47.9020 C   0  0  0  0  0  0  0  0  0  0  0  0
   64.3260   34.3986   47.3890 H   0  0  0  0  0  0  0  0  0  0  0  0
   63.0760   34.2000   49.1480 C   0  0  0  0  0  0  0  0  0  0  0  0
   63.4519   35.1238   49.6119 H   0  0  0  0  0  0  0  0  0  0  0  0
   62.1120   33.4300   49.8050 C   0  0  0  0  0  0  0  0  0  0  0  0
   61.7346   33.7446   50.7892 H   0  0  0  0  0  0  0  0  0  0  0  0
   61.6270   32.2600   49.2120 C   0  0  0  0  0  0  0  0  0  0  0  0
   60.8785   31.6498   49.7388 H   0  0  0  0  0  0  0  0  0  0  0  0
   58.4250   32.6060   45.2240 C   0  0  0  0  0  0  0  0  0  0  0  0
   57.9253   31.6815   44.8989 H   0  0  0  0  0  0  0  0  0  0  0  0
   58.2560   33.7820   44.4870 C   0  0  0  0  0  0  0  0  0  0  0  0
   57.6392   33.7768   43.5762 H   0  0  0  0  0  0  0  0  0  0  0  0
  1  2  1  0
  2  3  2  0
  3  4  1  0
  3  5  1  0
  5  6  1  0
  5  7  2  0
  7  8  1  0
  8  9  2  0
  9 10  1  0
 10 11  2  0
 11 12  1  0
 12 13  1  0
 12 14  2  0
 14 15  1  0
 14 16  1  0
 16 17  1  0
 16 18  1  0
 18 19  1  0
 18 20  2  0
 20 21  1  0
  9 22  1  0
 22 23  1  0
 22 24  1  0
 24 25  2  0
 25 26  1  0
 25 27  1  0
 27 28  1  0
 27 29  2  0
 29 30  1  0
 29 31  1  0
 31 32  1  0
 31 33  2  0
 33 34  1  0
  7 35  1  0
 35 36  1  0
 35 37  2  0
 37 38  1  0
 37  2  1  0
 20 11  1  0
 33 24  1  0
M  END
>  <UniqueID>  (63) 
60

>  <SMILES>  (63) 
c1ccc(/N=C(\N=c2cc[nH]cc2)Nc2ccccc2)cc1

>  <Energy>  (63) 
59.08347125041735

>  <Genealogy>  (63) 
c1ccc(/N=C(\N=c2cc[nH]cc2)Nc2ccccc2)cc1 (cis-trans isomerization)
c1ccc(/N=C(\N=c2cc[nH]cc2)Nc2ccccc2)cc1 (3D coordinates assigned)
c1ccc(/N=C(\N=c2cc[nH]cc2)Nc2ccccc2)cc1 (optimized conformer: 59.08347125041735 kcal/mol)

>  <smiles>  (63) 
c1ccc(N=C(N=c2cc[nH]cc2)Nc2ccccc2)cc1

>  <score_type>  (63) 
oracle

>  <origin>  (63) 
adg

>  <m_score__min__energy>  (63) 
-7.0499999999999998

>  <m_primary>  (63) 
energy

$$$$
63:0
     RDKit          3D

 30 31  0  0  0  0  0  0  0  0999 V2000
   54.9515   30.7131   43.8067 H   0  0  0  0  0  0  0  0  0  0  0  0
   55.7660   30.0980   44.2170 C   0  0  0  0  0  0  0  0  0  0  0  0
   55.5410   28.9470   44.9020 N   0  0  0  0  0  0  0  0  0  0  0  0
   56.6980   28.3790   45.3130 C   0  0  0  0  0  0  0  0  0  0  0  0
   56.7720   27.2730   45.9930 N   0  0  0  0  0  0  0  0  0  0  0  0
   55.9550   26.1080   45.8040 C   0  0  0  0  0  0  0  0  0  0  0  0
   54.7080   26.1450   45.9950 O   0  0  0  0  0  0  0  0  0  0  0  0
   56.5840   24.8460   45.3190 C   0  0  0  0  0  0  0  0  0  0  0  0
   56.8891   24.2338   46.1804 H   0  0  0  0  0  0  0  0  0  0  0  0
   55.8596   24.2860   44.7094 H   0  0  0  0  0  0  0  0  0  0  0  0
   57.4673   25.0873   44.7094 H   0  0  0  0  0  0  0  0  0  0  0  0
   58.0440   29.2730   44.8540 S   0  0  0  0  0  0  0  0  0  0  0  0
   57.1080   30.4380   44.0750 C   0  0  0  0  0  0  0  0  0  0  0  0
   57.6350   31.6830   43.4370 C   0  0  0  0  0  0  0  0  0  0  0  0
   58.4550   31.4219   42.7518 H   0  0  0  0  0  0  0  0  0  0  0  0
   56.8237   32.1735   42.8791 H   0  0  0  0  0  0  0  0  0  0  0  0
   58.1480   32.6250   44.4910 C   0  0  0  0  0  0  0  0  0  0  0  0
   58.7560   33.8350   44.1220 C   0  0  0  0  0  0  0  0  0  0  0  0
   58.8273   34.1111   43.0596 H   0  0  0  0  0  0  0  0  0  0  0  0
   59.2710   34.6900   45.1000 C   0  0  0  0  0  0  0  0  0  0  0  0
   59.7410   35.6396   44.8043 H   0  0  0  0  0  0  0  0  0  0  0  0
   59.1920   34.3450   46.4510 C   0  0  0  0  0  0  0  0  0  0  0  0
   59.7180   35.2070   47.4080 O   0  0  0  0  0  0  0  0  0  0  0  0
   58.5880   33.1340   46.8360 C   0  0  0  0  0  0  0  0  0  0  0  0
   58.5240   32.7440   48.2850 C   0  0  0  0  0  0  0  0  0  0  0  0
   58.6704   33.6361   48.9116 H   0  0  0  0  0  0  0  0  0  0  0  0
   57.5411   32.3006   48.5023 H   0  0  0  0  0  0  0  0  0  0  0  0
   59.3136   32.0097   48.5023 H   0  0  0  0  0  0  0  0  0  0  0  0
   58.0800   32.2720   45.8490 C   0  0  0  0  0  0  0  0  0  0  0  0
   57.6258   31.3139   46.1420 H   0  0  0  0  0  0  0  0  0  0  0  0
  1  2  1  0
  2  3  1  0
  3  4  1  0
  4  5  2  0
  5  6  1  0
  6  7  2  0
  6  8  1  0
  8  9  1  0
  8 10  1  0
  8 11  1  0
  4 12  1  0
 12 13  1  0
 13 14  1  0
 14 15  1  0
 14 16  1  0
 14 17  1  0
 17 18  2  0
 18 19  1  0
 18 20  1  0
 20 21  1  0
 20 22  2  0
 22 23  1  0
 22 24  1  0
 24 25  1  0
 25 26  1  0
 25 27  1  0
 25 28  1  0
 24 29  2  0
 29 30  1  0
 13  2  2  0
 29 17  1  0
M  CHG  2   3  -1  23  -1
M  END
>  <UniqueID>  (64) 
61

>  <SMILES>  (64) 
CC(=O)/N=c1\[n-]cc(Cc2ccc([O-])c(C)c2)s1

>  <Energy>  (64) 
58.27270161528362

>  <Genealogy>  (64) 
CC(=O)N=c1[n-]cc(Cc2ccc([O-])c(C)c2)s1 (protonated)
CC(=O)/N=c1\[n-]cc(Cc2ccc([O-])c(C)c2)s1 (cis-trans isomerization)
CC(=O)/N=c1\[n-]cc(Cc2ccc([O-])c(C)c2)s1 (3D coordinates assigned)
CC(=O)/N=c1\[n-]cc(Cc2ccc([O-])c(C)c2)s1 (optimized conformer: 58.27270161528362 kcal/mol)

>  <smiles>  (64) 
CC(=O)N=c1[nH]cc(Cc2ccc(O)c(C)c2)s1

>  <score_type>  (64) 
oracle

>  <origin>  (64) 
adg

>  <m_score__min__energy>  (64) 
-10.630000000000001

>  <m_primary>  (64) 
energy

$$$$
64:0
     RDKit          3D

 57 59  0  0  0  0  0  0  0  0999 V2000
   59.8380   31.3090   48.9080 C   0  0  0  0  0  0  0  0  0  0  0  0
   61.2240   31.3340   48.2430 C   0  0  1  0  0  0  0  0  0  0  0  0
   61.1140   30.9470   46.7470 C   0  0  0  0  0  0  0  0  0  0  0  0
   60.3480   29.6630   46.5400 C   0  0  0  0  0  0  0  0  0  0  0  0
   59.5540   29.4920   45.3970 C   0  0  0  0  0  0  0  0  0  0  0  0
   58.8620   28.2960   45.1900 C   0  0  0  0  0  0  0  0  0  0  0  0
   58.9530   27.2470   46.1220 C   0  0  0  0  0  0  0  0  0  0  0  0
   58.2200   25.9750   45.9010 C   0  0  0  0  0  0  0  0  0  0  0  0
   56.8140   25.9560   45.8800 C   0  0  0  0  0  0  0  0  0  0  0  0
   56.1110   24.7570   45.6660 C   0  0  0  0  0  0  0  0  0  0  0  0
   54.6280   24.7450   45.6360 C   0  0  0  0  0  0  0  0  0  0  0  0
   53.8930   25.9670   45.6510 N   0  0  0  0  0  0  0  0  0  0  0  0
   54.0010   23.6520   45.5990 O   0  0  0  0  0  0  0  0  0  0  0  0
   56.8340   23.5670   45.4770 C   0  0  0  0  0  0  0  0  0  0  0  0
   58.2340   23.5720   45.5050 C   0  0  0  0  0  0  0  0  0  0  0  0
   59.1290   22.0750   45.2590 S   0  0  0  0  0  0  0  0  0  0  0  0
   58.4990   20.8530   46.3050 N   0  0  0  0  0  0  0  0  0  0  0  0
   58.9970   21.6310   43.8290 O   0  0  0  0  0  0  0  0  0  0  0  0
   60.5840   22.2950   45.5630 O   0  0  0  0  0  0  0  0  0  0  0  0
   58.9220   24.7740   45.7090 C   0  0  0  0  0  0  0  0  0  0  0  0
   59.7530   27.4210   47.2650 C   0  0  0  0  0  0  0  0  0  0  0  0
   60.4460   28.6180   47.4710 C   0  0  0  0  0  0  0  0  0  0  0  0
   61.8030   32.6870   48.3810 N   0  0  0  0  0  0  0  0  0  0  0  0
   61.1880   33.4330   49.4910 C   0  0  0  0  0  0  0  0  0  0  0  0
   60.2780   34.5670   48.9720 C   0  0  2  0  0  0  0  0  0  0  0  0
   59.2610   34.8950   49.8890 O   0  0  0  0  0  0  0  0  0  0  0  0
   59.7150   34.2660   47.5950 C   0  0  0  0  0  0  0  0  0  0  0  0
   60.4570   34.5160   46.4230 C   0  0  0  0  0  0  0  0  0  0  0  0
   59.8990   34.2670   45.1660 C   0  0  0  0  0  0  0  0  0  0  0  0
   58.5940   33.7770   45.0620 C   0  0  0  0  0  0  0  0  0  0  0  0
   57.8450   33.5400   46.2160 C   0  0  0  0  0  0  0  0  0  0  0  0
   56.5750   33.0720   46.1140 F   0  0  0  0  0  0  0  0  0  0  0  0
   58.3980   33.7880   47.4760 C   0  0  0  0  0  0  0  0  0  0  0  0
   59.9560   31.3111   50.0017 H   0  0  0  0  0  0  0  0  0  0  0  0
   59.2670   32.1970   48.5991 H   0  0  0  0  0  0  0  0  0  0  0  0
   59.2994   30.4010   48.5991 H   0  0  0  0  0  0  0  0  0  0  0  0
   61.8787   30.6021   48.7388 H   0  0  0  0  0  0  0  0  0  0  0  0
   60.5984   31.7566   46.2096 H   0  0  0  0  0  0  0  0  0  0  0  0
   62.1338   30.7948   46.3639 H   0  0  0  0  0  0  0  0  0  0  0  0
   59.4755   30.3040   44.6591 H   0  0  0  0  0  0  0  0  0  0  0  0
   58.2408   28.1740   44.2904 H   0  0  0  0  0  0  0  0  0  0  0  0
   56.2565   26.8918   46.0331 H   0  0  0  0  0  0  0  0  0  0  0  0
   54.0880   26.7030   46.3660 H   0  0  0  0  0  0  0  0  0  0  0  0
   56.2955   22.6233   45.3056 H   0  0  0  0  0  0  0  0  0  0  0  0
   59.2500   20.1370   46.4260 H   0  0  0  0  0  0  0  0  0  0  0  0
   60.0219   24.7778   45.7190 H   0  0  0  0  0  0  0  0  0  0  0  0
   59.8344   26.6093   48.0029 H   0  0  0  0  0  0  0  0  0  0  0  0
   61.0712   28.7409   48.3677 H   0  0  0  0  0  0  0  0  0  0  0  0
   62.8250   32.6100   48.5990 H   0  0  0  0  0  0  0  0  0  0  0  0
   60.5860   32.7404   50.0975 H   0  0  0  0  0  0  0  0  0  0  0  0
   61.9915   33.8822   50.0932 H   0  0  0  0  0  0  0  0  0  0  0  0
   60.9178   35.4560   48.8702 H   0  0  0  0  0  0  0  0  0  0  0  0
   58.9590   35.8240   49.7100 H   0  0  0  0  0  0  0  0  0  0  0  0
   61.4815   34.9095   46.4981 H   0  0  0  0  0  0  0  0  0  0  0  0
   60.4880   34.4570   44.2566 H   0  0  0  0  0  0  0  0  0  0  0  0
   58.1577   33.5784   44.0720 H   0  0  0  0  0  0  0  0  0  0  0  0
   57.7986   33.6079   48.3806 H   0  0  0  0  0  0  0  0  0  0  0  0
  1  2  1  0
  2  3  1  0
  3  4  1  0
  4  5  2  0
  5  6  1  0
  6  7  2  0
  7  8  1  0
  8  9  2  0
  9 10  1  0
 10 11  1  0
 11 12  1  0
 11 13  2  0
 10 14  2  0
 14 15  1  0
 15 16  1  0
 16 17  1  0
 16 18  2  0
 16 19  2  0
 15 20  2  0
  7 21  1  0
 21 22  2  0
  2 23  1  0
 23 24  1  0
 24 25  1  0
 25 26  1  0
 25 27  1  0
 27 28  2  0
 28 29  1  0
 29 30  2  0
 30 31  1  0
 31 32  1  0
 31 33  2  0
 22  4  1  0
 33 27  1  0
 20  8  1  0
  1 34  1  0
  1 35  1  0
  1 36  1  0
  2 37  1  1
  3 38  1  0
  3 39  1  0
  5 40  1  0
  6 41  1  0
  9 42  1  0
 12 43  1  0
 14 44  1  0
 17 45  1  0
 20 46  1  0
 21 47  1  0
 22 48  1  0
 23 49  1  0
 24 50  1  0
 24 51  1  0
 25 52  1  6
 26 53  1  0
 28 54  1  0
 29 55  1  0
 30 56  1  0
 33 57  1  0
M  CHG  2  12  -1  17  -1
M  END
>  <UniqueID>  (65) 
62

>  <SMILES>  (65) 
C[C@@H](Cc1ccc(-c2cc(C([NH-])=O)cc(S([NH-])(=O)=O)c2)cc1)NC[C@H](O)c1cccc(F)c1

>  <Energy>  (65) 
63.63702923911541

>  <Genealogy>  (65) 
CC(Cc1ccc(-c2cc(C([NH-])=O)cc(S([NH-])(=O)=O)c2)cc1)NCC(O)c1cccc(F)c1 (protonated)
C[C@@H](Cc1ccc(-c2cc(C([NH-])=O)cc(S([NH-])(=O)=O)c2)cc1)NC[C@H](O)c1cccc(F)c1 (chirality)
C[C@@H](Cc1ccc(-c2cc(C([NH-])=O)cc(S([NH-])(=O)=O)c2)cc1)NC[C@H](O)c1cccc(F)c1 (3D coordinates assigned)
C[C@@H](Cc1ccc(-c2cc(C([NH-])=O)cc(S([NH-])(=O)=O)c2)cc1)NC[C@H](O)c1cccc(F)c1 (optimized conformer: 63.63702923911541 kcal/mol)

>  <smiles>  (65) 
CC(Cc1ccc(-c2cc(C(N)=O)cc(S(N)(=O)=O)c2)cc1)NCC(O)c1cccc(F)c1

>  <score_type>  (65) 
oracle

>  <origin>  (65) 
adg

>  <m_score__min__energy>  (65) 
-13.26

>  <m_primary>  (65) 
energy

$$$$
65:0
     RDKit          3D

 31 32  0  0  0  0  0  0  0  0999 V2000
   64.0292   32.5922   49.1381 H   0  0  0  0  0  0  0  0  0  0  0  0
   63.2480   33.0480   48.5120 C   0  0  0  0  0  0  0  0  0  0  0  0
   62.0200   33.4040   49.0760 C   0  0  0  0  0  0  0  0  0  0  0  0
   61.8361   33.2296   50.1464 H   0  0  0  0  0  0  0  0  0  0  0  0
   61.0240   33.9820   48.2810 C   0  0  0  0  0  0  0  0  0  0  0  0
   60.0618   34.2689   48.7302 H   0  0  0  0  0  0  0  0  0  0  0  0
   61.2490   34.1970   46.9110 C   0  0  0  0  0  0  0  0  0  0  0  0
   60.1920   34.8500   46.0630 C   0  0  0  0  0  0  0  0  0  0  0  0
   60.3145   34.5254   45.0192 H   0  0  0  0  0  0  0  0  0  0  0  0
   60.3023   35.9419   46.1375 H   0  0  0  0  0  0  0  0  0  0  0  0
   58.7940   34.4610   46.5500 C   0  0  0  0  0  0  0  0  0  0  0  0
   58.0550   35.1517   46.1177 H   0  0  0  0  0  0  0  0  0  0  0  0
   58.7711   34.5194   47.6482 H   0  0  0  0  0  0  0  0  0  0  0  0
   58.4640   33.0650   46.1340 C   0  0  0  0  0  0  0  0  0  0  0  0
   58.1800   32.0710   47.0060 N   0  0  0  0  0  0  0  0  0  0  0  0
   57.8590   30.9270   46.4060 N   0  0  0  0  0  0  0  0  0  0  0  0
   57.6610   30.0620   46.9540 H   0  0  0  0  0  0  0  0  0  0  0  0
   57.8690   31.0080   45.0520 C   0  0  0  0  0  0  0  0  0  0  0  0
   57.6250   30.0200   44.2410 N   0  0  0  0  0  0  0  0  0  0  0  0
   56.3280   29.5350   43.8640 C   0  0  0  0  0  0  0  0  0  0  0  0
   55.3340   29.3630   44.8750 N   0  0  0  0  0  0  0  0  0  0  0  0
   54.3930   28.9740   44.6450 H   0  0  0  0  0  0  0  0  0  0  0  0
   55.5380   29.6330   45.8620 H   0  0  0  0  0  0  0  0  0  0  0  0
   56.0900   29.1460   42.6470 N   0  0  0  0  0  0  0  0  0  0  0  0
   56.4030   28.2070   42.3140 H   0  0  0  0  0  0  0  0  0  0  0  0
   55.6140   29.7740   41.9620 H   0  0  0  0  0  0  0  0  0  0  0  0
   58.3080   32.5460   44.5350 S   0  0  0  0  0  0  0  0  0  0  0  0
   62.4900   33.8480   46.3540 C   0  0  0  0  0  0  0  0  0  0  0  0
   62.6814   34.0290   45.2860 H   0  0  0  0  0  0  0  0  0  0  0  0
   63.4840   33.2710   47.1520 C   0  0  0  0  0  0  0  0  0  0  0  0
   64.4517   32.9927   46.7092 H   0  0  0  0  0  0  0  0  0  0  0  0
  1  2  1  0
  2  3  2  0
  3  4  1  0
  3  5  1  0
  5  6  1  0
  5  7  2  0
  7  8  1  0
  8  9  1  0
  8 10  1  0
  8 11  1  0
 11 12  1  0
 11 13  1  0
 11 14  1  0
 14 15  2  0
 15 16  1  0
 16 17  1  0
 16 18  1  0
 18 19  2  0
 19 20  1  0
 20 21  1  0
 21 22  1  0
 21 23  1  0
 20 24  2  0
 24 25  1  0
 24 26  1  0
 18 27  1  0
  7 28  1  0
 28 29  1  0
 28 30  2  0
 30 31  1  0
 30  2  1  0
 27 14  1  0
M  CHG  1  24   1
M  END
>  <UniqueID>  (66) 
63

>  <SMILES>  (66) 
NC(=[NH2+])/N=c1\[nH]nc(CCc2ccccc2)s1

>  <Energy>  (66) 
65.44722972504813

>  <Genealogy>  (66) 
NC(=[NH2+])N=c1[nH]nc(CCc2ccccc2)s1 (protonated)
NC(=[NH2+])/N=c1\[nH]nc(CCc2ccccc2)s1 (cis-trans isomerization)
NC(=[NH2+])/N=c1\[nH]nc(CCc2ccccc2)s1 (3D coordinates assigned)
NC(=[NH2+])/N=c1\[nH]nc(CCc2ccccc2)s1 (optimized conformer: 65.44722972504813 kcal/mol)

>  <smiles>  (66) 
N=C(N)N=c1[nH]nc(CCc2ccccc2)s1

>  <score_type>  (66) 
oracle

>  <origin>  (66) 
adg

>  <m_score__min__energy>  (66) 
-6.1799999999999997

>  <m_primary>  (66) 
energy

$$$$
66:0
     RDKit          3D

 48 50  0  0  0  0  0  0  0  0999 V2000
   59.9667   26.5067   48.7883 H   0  0  0  0  0  0  0  0  0  0  0  0
   59.6560   27.4270   48.2720 C   0  0  0  0  0  0  0  0  0  0  0  0
   59.1680   27.3620   46.9640 C   0  0  0  0  0  0  0  0  0  0  0  0
   59.1048   26.3912   46.4506 H   0  0  0  0  0  0  0  0  0  0  0  0
   58.7590   28.5280   46.3040 C   0  0  0  0  0  0  0  0  0  0  0  0
   58.2900   28.4300   44.9520 N   0  0  0  0  0  0  0  0  0  0  0  0
   56.9790   28.7600   44.4760 C   0  0  0  0  0  0  0  0  0  0  0  0
   55.9930   28.5900   45.2410 O   0  0  0  0  0  0  0  0  0  0  0  0
   56.7480   29.3530   43.1120 C   0  0  0  0  0  0  0  0  0  0  0  0
   55.9487   28.7935   42.6041 H   0  0  0  0  0  0  0  0  0  0  0  0
   57.6807   29.2893   42.5324 H   0  0  0  0  0  0  0  0  0  0  0  0
   56.3650   30.7230   43.2240 O   0  0  0  0  0  0  0  0  0  0  0  0
   57.1130   31.7250   43.8710 C   0  0  0  0  0  0  0  0  0  0  0  0
   57.0170   31.9530   45.2600 C   0  0  0  0  0  0  0  0  0  0  0  0
   56.3299   31.3455   45.8674 H   0  0  0  0  0  0  0  0  0  0  0  0
   57.7880   32.9440   45.8680 C   0  0  0  0  0  0  0  0  0  0  0  0
   57.7107   33.1103   46.9526 H   0  0  0  0  0  0  0  0  0  0  0  0
   58.6570   33.7250   45.1050 C   0  0  0  0  0  0  0  0  0  0  0  0
   59.6310   34.9610   45.8780 Cl  0  0  0  0  0  0  0  0  0  0  0  0
   58.7580   33.5150   43.7290 C   0  0  0  0  0  0  0  0  0  0  0  0
   59.4420   34.1343   43.1301 H   0  0  0  0  0  0  0  0  0  0  0  0
   57.9910   32.5170   43.1040 C   0  0  0  0  0  0  0  0  0  0  0  0
   58.1070   32.2940   41.6230 C   0  0  0  0  0  0  0  0  0  0  0  0
   58.6072   31.3325   41.4350 H   0  0  0  0  0  0  0  0  0  0  0  0
   57.1026   32.2786   41.1747 H   0  0  0  0  0  0  0  0  0  0  0  0
   58.6962   33.1076   41.1747 H   0  0  0  0  0  0  0  0  0  0  0  0
   58.8870   29.7680   46.9510 C   0  0  0  0  0  0  0  0  0  0  0  0
   58.6052   30.6918   46.4245 H   0  0  0  0  0  0  0  0  0  0  0  0
   59.3720   29.8340   48.2640 C   0  0  0  0  0  0  0  0  0  0  0  0
   59.5210   31.3990   49.0560 S   0  0  0  0  0  0  0  0  0  0  0  0
   58.1440   31.9000   49.3910 O   0  0  0  0  0  0  0  0  0  0  0  0
   60.3120   31.2830   50.3310 O   0  0  0  0  0  0  0  0  0  0  0  0
   60.2990   32.5330   47.9950 N   0  0  0  0  0  0  0  0  0  0  0  0
   59.6850   33.1450   47.4150 H   0  0  0  0  0  0  0  0  0  0  0  0
   61.5920   32.6510   47.8910 C   0  0  0  0  0  0  0  0  0  0  0  0
   62.4710   32.1790   48.8890 N   0  0  0  0  0  0  0  0  0  0  0  0
   62.1770   31.7350   49.7880 H   0  0  0  0  0  0  0  0  0  0  0  0
   63.8440   32.4690   48.5300 C   0  0  0  0  0  0  0  0  0  0  0  0
   64.4401   31.5446   48.5223 H   0  0  0  0  0  0  0  0  0  0  0  0
   64.3123   33.1541   49.2520 H   0  0  0  0  0  0  0  0  0  0  0  0
   63.7950   33.0850   47.1200 C   0  0  0  0  0  0  0  0  0  0  0  0
   64.2668   32.4049   46.3955 H   0  0  0  0  0  0  0  0  0  0  0  0
   64.3380   34.0413   47.0938 H   0  0  0  0  0  0  0  0  0  0  0  0
   62.3150   33.2900   46.7620 C   0  0  0  0  0  0  0  0  0  0  0  0
   62.0694   32.7980   45.8093 H   0  0  0  0  0  0  0  0  0  0  0  0
   62.0498   34.3492   46.6288 H   0  0  0  0  0  0  0  0  0  0  0  0
   59.7500   28.6580   48.9250 C   0  0  0  0  0  0  0  0  0  0  0  0
   60.1212   28.7042   49.9594 H   0  0  0  0  0  0  0  0  0  0  0  0
  1  2  1  0
  2  3  2  0
  3  4  1  0
  3  5  1  0
  5  6  1  0
  6  7  1  0
  7  8  2  0
  7  9  1  0
  9 10  1  0
  9 11  1  0
  9 12  1  0
 12 13  1  0
 13 14  2  0
 14 15  1  0
 14 16  1  0
 16 17  1  0
 16 18  2  0
 18 19  1  0
 18 20  1  0
 20 21  1  0
 20 22  2  0
 22 23  1  0
 23 24  1  0
 23 25  1  0
 23 26  1  0
  5 27  2  0
 27 28  1  0
 27 29  1  0
 29 30  1  0
 30 31  2  0
 30 32  2  0
 30 33  1  0
 33 34  1  0
 33 35  2  0
 35 36  1  0
 36 37  1  0
 36 38  1  0
 38 39  1  0
 38 40  1  0
 38 41  1  0
 41 42  1  0
 41 43  1  0
 41 44  1  0
 44 45  1  0
 44 46  1  0
 29 47  2  0
 47 48  1  0
 47  2  1  0
 22 13  1  0
 44 35  1  0
M  CHG  2   6  -1  33   1
M  END
>  <UniqueID>  (67) 
64

>  <SMILES>  (67) 
Cc1cc(Cl)ccc1OCC(=O)[N-]c1cccc(S(=O)(=O)/[NH+]=C2\CCCN2)c1

>  <Energy>  (67) 
59.89665670271411

>  <Genealogy>  (67) 
Cc1cc(Cl)ccc1OCC(=O)[N-]c1cccc(S(=O)(=O)[NH+]=C2CCCN2)c1 (protonated)
Cc1cc(Cl)ccc1OCC(=O)[N-]c1cccc(S(=O)(=O)/[NH+]=C2\CCCN2)c1 (cis-trans isomerization)
Cc1cc(Cl)ccc1OCC(=O)[N-]c1cccc(S(=O)(=O)/[NH+]=C2\CCCN2)c1 (3D coordinates assigned)
Cc1cc(Cl)ccc1OCC(=O)[N-]c1cccc(S(=O)(=O)/[NH+]=C2\CCCN2)c1 (nonaromatic ring conformer: 59.89665670271411 kcal/mol)

>  <smiles>  (67) 
Cc1cc(Cl)ccc1OCC(=O)Nc1cccc(S(=O)(=O)N=C2CCCN2)c1

>  <score_type>  (67) 
oracle

>  <origin>  (67) 
adg

>  <m_score__min__energy>  (67) 
-9.1899999999999995

>  <m_primary>  (67) 
energy

$$$$
67:0
     RDKit          3D

 51 53  0  0  0  0  0  0  0  0999 V2000
   58.4890   23.8340   45.6270 C   0  0  0  0  0  0  0  0  0  0  0  0
   58.8920   25.1100   46.1130 O   0  0  0  0  0  0  0  0  0  0  0  0
   58.4700   26.3370   45.5740 C   0  0  0  0  0  0  0  0  0  0  0  0
   58.2140   26.4990   44.1980 C   0  0  0  0  0  0  0  0  0  0  0  0
   57.7660   27.7250   43.7010 C   0  0  0  0  0  0  0  0  0  0  0  0
   57.5510   28.8020   44.5700 C   0  0  0  0  0  0  0  0  0  0  0  0
   57.0150   30.3580   43.9460 S   0  0  0  0  0  0  0  0  0  0  0  0
   56.5280   30.1740   42.2970 N   0  0  0  0  0  0  0  0  0  0  0  0
   58.1400   31.3520   44.0340 O   0  0  0  0  0  0  0  0  0  0  0  0
   55.8570   30.8650   44.7580 O   0  0  0  0  0  0  0  0  0  0  0  0
   57.8060   28.6480   45.9370 C   0  0  0  0  0  0  0  0  0  0  0  0
   58.2900   27.4340   46.4370 C   0  0  0  0  0  0  0  0  0  0  0  0
   58.5570   27.3240   47.8400 N   0  0  0  0  0  0  0  0  0  0  0  0
   59.8570   27.3720   48.4420 C   0  0  0  0  0  0  0  0  0  0  0  0
   60.6370   26.3970   48.2780 O   0  0  0  0  0  0  0  0  0  0  0  0
   60.2760   28.4920   49.3620 C   0  0  0  0  0  0  0  0  0  0  0  0
   60.0120   29.8030   48.7330 N   0  0  0  0  0  0  0  0  0  0  0  0
   59.8620   30.8520   49.7590 C   0  0  0  0  0  0  0  0  0  0  0  0
   59.2870   32.1160   49.1060 C   0  0  0  0  0  0  0  0  0  0  0  0
   59.8460   32.3040   47.7620 N   0  0  0  0  0  0  0  0  0  0  0  0
   59.1190   33.0540   46.7710 C   0  0  0  0  0  0  0  0  0  0  0  0
   57.7330   32.8680   46.6270 C   0  0  0  0  0  0  0  0  0  0  0  0
   57.0150   33.6040   45.6800 C   0  0  0  0  0  0  0  0  0  0  0  0
   57.6730   34.5320   44.8690 C   0  0  0  0  0  0  0  0  0  0  0  0
   59.0500   34.7250   45.0040 C   0  0  0  0  0  0  0  0  0  0  0  0
   59.7740   33.9930   45.9510 C   0  0  0  0  0  0  0  0  0  0  0  0
   61.1150   34.1790   46.0440 F   0  0  0  0  0  0  0  0  0  0  0  0
   61.1220   31.6630   47.4300 C   0  0  0  0  0  0  0  0  0  0  0  0
   61.0780   30.1560   47.7590 C   0  0  0  0  0  0  0  0  0  0  0  0
   58.2786   23.1678   46.4766 H   0  0  0  0  0  0  0  0  0  0  0  0
   57.5821   23.9447   45.0144 H   0  0  0  0  0  0  0  0  0  0  0  0
   59.2950   23.4037   45.0144 H   0  0  0  0  0  0  0  0  0  0  0  0
   58.3680   25.6542   43.5105 H   0  0  0  0  0  0  0  0  0  0  0  0
   57.5814   27.8450   42.6233 H   0  0  0  0  0  0  0  0  0  0  0  0
   55.5960   29.7030   42.3050 H   0  0  0  0  0  0  0  0  0  0  0  0
   57.1990   29.5090   41.8520 H   0  0  0  0  0  0  0  0  0  0  0  0
   57.6246   29.4877   46.6240 H   0  0  0  0  0  0  0  0  0  0  0  0
   59.7087   28.4203   50.3017 H   0  0  0  0  0  0  0  0  0  0  0  0
   61.3539   28.4038   49.5628 H   0  0  0  0  0  0  0  0  0  0  0  0
   59.1791   30.5014   50.5469 H   0  0  0  0  0  0  0  0  0  0  0  0
   60.8426   31.0782   50.2032 H   0  0  0  0  0  0  0  0  0  0  0  0
   58.1937   32.0193   49.0324 H   0  0  0  0  0  0  0  0  0  0  0  0
   59.5517   32.9862   49.7247 H   0  0  0  0  0  0  0  0  0  0  0  0
   57.2103   32.1388   47.2634 H   0  0  0  0  0  0  0  0  0  0  0  0
   55.9307   33.4523   45.5732 H   0  0  0  0  0  0  0  0  0  0  0  0
   57.1069   35.1106   44.1242 H   0  0  0  0  0  0  0  0  0  0  0  0
   59.5666   35.4550   44.3635 H   0  0  0  0  0  0  0  0  0  0  0  0
   61.3223   31.7923   46.3562 H   0  0  0  0  0  0  0  0  0  0  0  0
   61.9186   32.1318   48.0263 H   0  0  0  0  0  0  0  0  0  0  0  0
   60.8993   29.5993   46.8273 H   0  0  0  0  0  0  0  0  0  0  0  0
   62.0422   29.8920   48.2178 H   0  0  0  0  0  0  0  0  0  0  0  0
  1  2  1  0
  2  3  1  0
  3  4  2  0
  4  5  1  0
  5  6  2  0
  6  7  1  0
  7  8  1  0
  7  9  2  0
  7 10  2  0
  6 11  1  0
 11 12  2  0
 12 13  1  0
 13 14  1  0
 14 15  2  0
 14 16  1  0
 16 17  1  0
 17 18  1  0
 18 19  1  0
 19 20  1  0
 20 21  1  0
 21 22  2  0
 22 23  1  0
 23 24  2  0
 24 25  1  0
 25 26  2  0
 26 27  1  0
 20 28  1  0
 28 29  1  0
 12  3  1  0
 29 17  1  0
 26 21  1  0
  1 30  1  0
  1 31  1  0
  1 32  1  0
  4 33  1  0
  5 34  1  0
  8 35  1  0
  8 36  1  0
 11 37  1  0
 16 38  1  0
 16 39  1  0
 18 40  1  0
 18 41  1  0
 19 42  1  0
 19 43  1  0
 22 44  1  0
 23 45  1  0
 24 46  1  0
 25 47  1  0
 28 48  1  0
 28 49  1  0
 29 50  1  0
 29 51  1  0
M  CHG  1  13  -1
M  END
>  <UniqueID>  (68) 
65

>  <SMILES>  (68) 
COc1ccc(S(N)(=O)=O)cc1[N-]C(=O)CN1CCN(c2ccccc2F)CC1

>  <Energy>  (68) 
66.19903259808106

>  <Genealogy>  (68) 
COc1ccc(S(N)(=O)=O)cc1[N-]C(=O)CN1CCN(c2ccccc2F)CC1 (protonated)
COc1ccc(S(N)(=O)=O)cc1[N-]C(=O)CN1CCN(c2ccccc2F)CC1 (3D coordinates assigned)
COc1ccc(S(N)(=O)=O)cc1[N-]C(=O)CN1CCN(c2ccccc2F)CC1 (nonaromatic ring conformer: 66.19903259808106 kcal/mol)

>  <smiles>  (68) 
COc1ccc(S(N)(=O)=O)cc1NC(=O)CN1CCN(c2ccccc2F)CC1

>  <score_type>  (68) 
oracle

>  <origin>  (68) 
adg

>  <m_score__min__energy>  (68) 
-10.65

>  <m_primary>  (68) 
energy

$$$$
68:0
     RDKit          3D

 46 48  0  0  0  0  0  0  0  0999 V2000
   60.4640   27.8040   45.7090 C   0  0  0  0  0  0  0  0  0  0  0  0
   59.0030   27.4400   45.6880 C   0  0  0  0  0  0  0  0  0  0  0  0
   58.6400   26.0840   45.7500 C   0  0  0  0  0  0  0  0  0  0  0  0
   57.2970   25.7030   45.7410 C   0  0  0  0  0  0  0  0  0  0  0  0
   56.2870   26.6750   45.6890 C   0  0  0  0  0  0  0  0  0  0  0  0
   54.8980   26.3210   45.6520 N   0  0  0  0  0  0  0  0  0  0  0  0
   54.3670   24.9930   45.6160 C   0  0  0  0  0  0  0  0  0  0  0  0
   53.1380   24.8330   45.3970 O   0  0  0  0  0  0  0  0  0  0  0  0
   55.1990   23.8700   45.9410 N   0  0  0  0  0  0  0  0  0  0  0  0
   55.9620   23.0660   45.0270 C   0  0  0  0  0  0  0  0  0  0  0  0
   55.7620   23.1720   43.6370 C   0  0  0  0  0  0  0  0  0  0  0  0
   56.4970   22.3820   42.7530 C   0  0  0  0  0  0  0  0  0  0  0  0
   57.4460   21.4860   43.2390 C   0  0  0  0  0  0  0  0  0  0  0  0
   57.6770   21.3880   44.6120 C   0  0  0  0  0  0  0  0  0  0  0  0
   56.9550   22.1820   45.5220 C   0  0  0  0  0  0  0  0  0  0  0  0
   57.2340   22.0630   46.9340 N   0  0  0  0  0  0  0  0  0  0  0  0
   57.3970   23.0730   47.6490 O   0  0  0  0  0  0  0  0  0  0  0  0
   57.4060   20.8220   47.5040 O   0  0  0  0  0  0  0  0  0  0  0  0
   56.6400   28.0260   45.6110 C   0  0  0  0  0  0  0  0  0  0  0  0
   57.9870   28.4260   45.6260 C   0  0  0  0  0  0  0  0  0  0  0  0
   58.3690   30.1530   45.5480 S   0  0  0  0  0  0  0  0  0  0  0  0
   57.0900   30.9320   45.4100 O   0  0  0  0  0  0  0  0  0  0  0  0
   59.2680   30.4160   44.3730 O   0  0  0  0  0  0  0  0  0  0  0  0
   59.1860   30.6490   46.9960 N   0  0  0  0  0  0  0  0  0  0  0  0
   60.2670   31.5890   47.0600 C   0  0  0  0  0  0  0  0  0  0  0  0
   61.4250   31.3400   47.8200 C   0  0  0  0  0  0  0  0  0  0  0  0
   62.4590   32.2800   47.8570 C   0  0  0  0  0  0  0  0  0  0  0  0
   62.3470   33.4740   47.1420 C   0  0  0  0  0  0  0  0  0  0  0  0
   61.2010   33.7300   46.3860 C   0  0  0  0  0  0  0  0  0  0  0  0
   60.1600   32.7920   46.3430 C   0  0  0  0  0  0  0  0  0  0  0  0
   59.0160   33.0480   45.5880 O   0  0  0  0  0  0  0  0  0  0  0  0
   60.8057   27.8891   46.7511 H   0  0  0  0  0  0  0  0  0  0  0  0
   61.0439   27.0229   45.1956 H   0  0  0  0  0  0  0  0  0  0  0  0
   60.6096   28.7659   45.1956 H   0  0  0  0  0  0  0  0  0  0  0  0
   59.4232   25.3137   45.8063 H   0  0  0  0  0  0  0  0  0  0  0  0
   57.0298   24.6365   45.7748 H   0  0  0  0  0  0  0  0  0  0  0  0
   55.0202   23.8835   43.2452 H   0  0  0  0  0  0  0  0  0  0  0  0
   56.3267   22.4669   41.6696 H   0  0  0  0  0  0  0  0  0  0  0  0
   58.0142   20.8548   42.5399 H   0  0  0  0  0  0  0  0  0  0  0  0
   58.4323   20.6818   44.9871 H   0  0  0  0  0  0  0  0  0  0  0  0
   55.8502   28.7880   45.5367 H   0  0  0  0  0  0  0  0  0  0  0  0
   61.5168   30.4020   48.3872 H   0  0  0  0  0  0  0  0  0  0  0  0
   63.3628   32.0786   48.4507 H   0  0  0  0  0  0  0  0  0  0  0  0
   63.1612   34.2129   47.1741 H   0  0  0  0  0  0  0  0  0  0  0  0
   61.1149   34.6707   45.8224 H   0  0  0  0  0  0  0  0  0  0  0  0
   58.4700   32.2990   45.1790 H   0  0  0  0  0  0  0  0  0  0  0  0
  1  2  1  0
  2  3  2  0
  3  4  1  0
  4  5  2  0
  5  6  1  0
  6  7  1  0
  7  8  2  0
  7  9  1  0
  9 10  1  0
 10 11  2  0
 11 12  1  0
 12 13  2  0
 13 14  1  0
 14 15  2  0
 15 16  1  0
 16 17  2  0
 16 18  1  0
  5 19  1  0
 19 20  2  0
 20 21  1  0
 21 22  2  0
 21 23  2  0
 21 24  1  0
 24 25  1  0
 25 26  2  0
 26 27  1  0
 27 28  2  0
 28 29  1  0
 29 30  2  0
 30 31  1  0
 20  2  1  0
 30 25  1  0
 15 10  1  0
  1 32  1  0
  1 33  1  0
  1 34  1  0
  3 35  1  0
  4 36  1  0
 11 37  1  0
 12 38  1  0
 13 39  1  0
 14 40  1  0
 19 41  1  0
 26 42  1  0
 27 43  1  0
 28 44  1  0
 29 45  1  0
 31 46  1  0
M  CHG  5   6  -1   9  -1  16   1  18  -1  24  -1
M  END
>  <UniqueID>  (69) 
66

>  <SMILES>  (69) 
Cc1ccc([N-]C(=O)[N-]c2ccccc2[N+](=O)[O-])cc1S(=O)(=O)[N-]c1ccccc1O

>  <Energy>  (69) 
64.52007388378482

>  <Genealogy>  (69) 
Cc1ccc([N-]C(=O)[N-]c2ccccc2[N+](=O)[O-])cc1S(=O)(=O)[N-]c1ccccc1O (protonated)
Cc1ccc([N-]C(=O)[N-]c2ccccc2[N+](=O)[O-])cc1S(=O)(=O)[N-]c1ccccc1O (3D coordinates assigned)
Cc1ccc([N-]C(=O)[N-]c2ccccc2[N+](=O)[O-])cc1S(=O)(=O)[N-]c1ccccc1O (optimized conformer: 64.52007388378482 kcal/mol)

>  <smiles>  (69) 
Cc1ccc(NC(=O)Nc2ccccc2[N+](=O)[O-])cc1S(=O)(=O)Nc1ccccc1O

>  <score_type>  (69) 
oracle

>  <origin>  (69) 
adg

>  <m_score__min__energy>  (69) 
-14.1

>  <m_primary>  (69) 
energy

$$$$
69:0
     RDKit          3D

 46 48  0  0  0  0  0  0  0  0999 V2000
   60.4900   32.7520   49.4320 N   0  0  0  0  0  0  0  0  0  0  0  0
   59.0210   32.0370   48.8710 S   0  0  0  0  0  0  0  0  0  0  0  0
   57.9120   32.3330   49.8410 O   0  0  0  0  0  0  0  0  0  0  0  0
   59.2000   30.5470   48.7840 O   0  0  0  0  0  0  0  0  0  0  0  0
   58.6090   32.6970   47.2900 C   0  0  0  0  0  0  0  0  0  0  0  0
   59.0340   33.9880   46.9480 C   0  0  0  0  0  0  0  0  0  0  0  0
   58.7010   34.5290   45.7020 C   0  0  0  0  0  0  0  0  0  0  0  0
   57.9570   33.7770   44.7870 C   0  0  0  0  0  0  0  0  0  0  0  0
   57.5610   32.4710   45.1000 C   0  0  0  0  0  0  0  0  0  0  0  0
   56.7990   31.7250   44.1400 N   0  0  0  0  0  0  0  0  0  0  0  0
   56.2980   30.3910   44.3020 C   0  0  0  0  0  0  0  0  0  0  0  0
   55.1570   30.2280   44.8240 O   0  0  0  0  0  0  0  0  0  0  0  0
   57.0750   29.1880   43.8450 C   0  0  0  0  0  0  0  0  0  0  0  0
   58.0680   28.8200   44.8520 N   0  0  0  0  0  0  0  0  0  0  0  0
   57.7870   28.0660   46.0360 C   0  0  0  0  0  0  0  0  0  0  0  0
   57.7170   28.6730   47.1380 O   0  0  0  0  0  0  0  0  0  0  0  0
   57.5660   26.6070   46.0010 C   0  0  0  0  0  0  0  0  0  0  0  0
   58.6650   25.7360   45.9540 C   0  0  0  0  0  0  0  0  0  0  0  0
   58.4820   24.3490   45.9350 C   0  0  0  0  0  0  0  0  0  0  0  0
   59.6400   23.5050   45.9290 N   0  0  0  0  0  0  0  0  0  0  0  0
   59.7160   21.9250   45.2200 S   0  0  0  0  0  0  0  0  0  0  0  0
   60.1580   22.0440   43.7890 O   0  0  0  0  0  0  0  0  0  0  0  0
   60.7060   21.0880   45.9740 O   0  0  0  0  0  0  0  0  0  0  0  0
   58.1390   21.1680   45.3210 C   0  0  0  0  0  0  0  0  0  0  0  0
   57.2080   21.0830   44.2990 C   0  0  0  0  0  0  0  0  0  0  0  0
   56.0200   20.4570   44.6960 C   0  0  0  0  0  0  0  0  0  0  0  0
   56.0170   20.0610   46.0270 C   0  0  0  0  0  0  0  0  0  0  0  0
   57.4920   20.4850   46.7110 S   0  0  0  0  0  0  0  0  0  0  0  0
   57.1780   23.8270   45.9270 C   0  0  0  0  0  0  0  0  0  0  0  0
   56.0780   24.6880   45.9370 C   0  0  0  0  0  0  0  0  0  0  0  0
   56.2660   26.0740   45.9710 C   0  0  0  0  0  0  0  0  0  0  0  0
   55.1540   26.9110   45.9860 O   0  0  0  0  0  0  0  0  0  0  0  0
   57.8640   31.9440   46.3680 C   0  0  0  0  0  0  0  0  0  0  0  0
   61.1310   31.9690   49.6890 H   0  0  0  0  0  0  0  0  0  0  0  0
   59.6304   34.5766   47.6606 H   0  0  0  0  0  0  0  0  0  0  0  0
   59.0247   35.5474   45.4412 H   0  0  0  0  0  0  0  0  0  0  0  0
   57.6814   34.2141   43.8159 H   0  0  0  0  0  0  0  0  0  0  0  0
   56.3843   28.3460   43.6902 H   0  0  0  0  0  0  0  0  0  0  0  0
   57.5893   29.4279   42.9027 H   0  0  0  0  0  0  0  0  0  0  0  0
   59.6842   26.1492   45.9318 H   0  0  0  0  0  0  0  0  0  0  0  0
   57.3833   21.4666   43.2831 H   0  0  0  0  0  0  0  0  0  0  0  0
   55.1695   20.2943   44.0176 H   0  0  0  0  0  0  0  0  0  0  0  0
   55.1892   19.5554   46.5457 H   0  0  0  0  0  0  0  0  0  0  0  0
   57.0227   22.7381   45.9128 H   0  0  0  0  0  0  0  0  0  0  0  0
   55.0590   24.2742   45.9181 H   0  0  0  0  0  0  0  0  0  0  0  0
   57.5156   30.9365   46.6392 H   0  0  0  0  0  0  0  0  0  0  0  0
  1  2  1  0
  2  3  2  0
  2  4  2  0
  2  5  1  0
  5  6  2  0
  6  7  1  0
  7  8  2  0
  8  9  1  0
  9 10  1  0
 10 11  1  0
 11 12  2  0
 11 13  1  0
 13 14  1  0
 14 15  1  0
 15 16  2  0
 15 17  1  0
 17 18  2  0
 18 19  1  0
 19 20  1  0
 20 21  1  0
 21 22  2  0
 21 23  2  0
 21 24  1  0
 24 25  2  0
 25 26  1  0
 26 27  2  0
 27 28  1  0
 19 29  2  0
 29 30  1  0
 30 31  2  0
 31 32  1  0
  9 33  2  0
 33  5  1  0
 31 17  1  0
 28 24  1  0
  1 34  1  0
  6 35  1  0
  7 36  1  0
  8 37  1  0
 13 38  1  0
 13 39  1  0
 18 40  1  0
 25 41  1  0
 26 42  1  0
 27 43  1  0
 29 44  1  0
 30 45  1  0
 33 46  1  0
M  CHG  5   1  -1  10  -1  14  -1  20  -1  32  -1
M  END
>  <UniqueID>  (70) 
67

>  <SMILES>  (70) 
[NH-]S(=O)(=O)c1cccc([N-]C(=O)C[N-]C(=O)c2cc([N-]S(=O)(=O)c3cccs3)ccc2[O-])c1

>  <Energy>  (70) 
83.85110411142068

>  <Genealogy>  (70) 
[NH-]S(=O)(=O)c1cccc([N-]C(=O)C[N-]C(=O)c2cc([N-]S(=O)(=O)c3cccs3)ccc2[O-])c1 (protonated)
[NH-]S(=O)(=O)c1cccc([N-]C(=O)C[N-]C(=O)c2cc([N-]S(=O)(=O)c3cccs3)ccc2[O-])c1 (3D coordinates assigned)
[NH-]S(=O)(=O)c1cccc([N-]C(=O)C[N-]C(=O)c2cc([N-]S(=O)(=O)c3cccs3)ccc2[O-])c1 (optimized conformer: 83.85110411142068 kcal/mol)

>  <smiles>  (70) 
NS(=O)(=O)c1cccc(NC(=O)CNC(=O)c2cc(NS(=O)(=O)c3cccs3)ccc2O)c1

>  <score_type>  (70) 
oracle

>  <origin>  (70) 
adg

>  <m_score__min__energy>  (70) 
-17.09

>  <m_primary>  (70) 
energy

$$$$
70:0
     RDKit          3D

 44 46  0  0  0  0  0  0  0  0999 V2000
   55.5200   28.9990   44.8550 O   0  0  0  0  0  0  0  0  0  0  0  0
   56.5830   29.6520   45.0310 C   0  0  0  0  0  0  0  0  0  0  0  0
   56.5920   31.0540   44.7430 N   0  0  0  0  0  0  0  0  0  0  0  0
   57.7150   31.7590   44.1370 C   0  0  0  0  0  0  0  0  0  0  0  0
   58.2230   32.7990   45.0910 C   0  0  0  0  0  0  0  0  0  0  0  0
   59.0230   33.8550   44.6280 C   0  0  0  0  0  0  0  0  0  0  0  0
   59.4680   34.8430   45.5130 C   0  0  0  0  0  0  0  0  0  0  0  0
   59.1060   34.7890   46.8620 C   0  0  0  0  0  0  0  0  0  0  0  0
   58.2980   33.7490   47.3270 C   0  0  0  0  0  0  0  0  0  0  0  0
   57.8510   32.7590   46.4460 C   0  0  0  0  0  0  0  0  0  0  0  0
   57.7720   28.9590   45.5630 C   0  0  0  0  0  0  0  0  0  0  0  0
   58.3110   29.3450   46.7920 C   0  0  0  0  0  0  0  0  0  0  0  0
   59.4100   28.7130   47.3020 N   0  0  0  0  0  0  0  0  0  0  0  0
   59.9750   29.1790   48.5780 C   0  0  0  0  0  0  0  0  0  0  0  0
   59.5610   30.6290   48.8430 C   0  0  0  0  0  0  0  0  0  0  0  0
   60.6760   31.5740   48.4840 C   0  0  0  0  0  0  0  0  0  0  0  0
   60.8740   32.7510   49.2270 C   0  0  0  0  0  0  0  0  0  0  0  0
   61.9320   33.6110   48.9130 C   0  0  0  0  0  0  0  0  0  0  0  0
   62.8020   33.2980   47.8650 C   0  0  0  0  0  0  0  0  0  0  0  0
   62.6200   32.1220   47.1320 C   0  0  0  0  0  0  0  0  0  0  0  0
   61.5640   31.2590   47.4420 C   0  0  0  0  0  0  0  0  0  0  0  0
   60.0020   27.6980   46.5930 C   0  0  0  0  0  0  0  0  0  0  0  0
   61.0360   27.1260   47.0350 O   0  0  0  0  0  0  0  0  0  0  0  0
   59.4770   27.2960   45.4030 N   0  0  0  0  0  0  0  0  0  0  0  0
   58.3740   27.8940   44.8820 C   0  0  0  0  0  0  0  0  0  0  0  0
   57.8920   27.4750   43.7950 O   0  0  0  0  0  0  0  0  0  0  0  0
   58.5194   31.0433   43.9118 H   0  0  0  0  0  0  0  0  0  0  0  0
   57.3857   32.2436   43.2060 H   0  0  0  0  0  0  0  0  0  0  0  0
   59.3013   33.9061   43.5650 H   0  0  0  0  0  0  0  0  0  0  0  0
   60.1033   35.6630   45.1469 H   0  0  0  0  0  0  0  0  0  0  0  0
   59.4575   35.5655   47.5573 H   0  0  0  0  0  0  0  0  0  0  0  0
   58.0125   33.7085   48.3885 H   0  0  0  0  0  0  0  0  0  0  0  0
   57.2067   31.9470   46.8143 H   0  0  0  0  0  0  0  0  0  0  0  0
   57.8457   30.1670   47.3559 H   0  0  0  0  0  0  0  0  0  0  0  0
   59.6046   28.5408   49.3938 H   0  0  0  0  0  0  0  0  0  0  0  0
   61.0723   29.1235   48.5255 H   0  0  0  0  0  0  0  0  0  0  0  0
   58.6752   30.8684   48.2363 H   0  0  0  0  0  0  0  0  0  0  0  0
   59.3322   30.7418   49.9130 H   0  0  0  0  0  0  0  0  0  0  0  0
   60.1954   32.9964   50.0573 H   0  0  0  0  0  0  0  0  0  0  0  0
   62.0792   34.5348   49.4918 H   0  0  0  0  0  0  0  0  0  0  0  0
   63.6306   33.9777   47.6169 H   0  0  0  0  0  0  0  0  0  0  0  0
   63.3082   31.8749   46.3102 H   0  0  0  0  0  0  0  0  0  0  0  0
   61.4283   30.3305   46.8680 H   0  0  0  0  0  0  0  0  0  0  0  0
   59.9280   26.5100   44.8830 H   0  0  0  0  0  0  0  0  0  0  0  0
  1  2  2  0
  2  3  1  0
  3  4  1  0
  4  5  1  0
  5  6  2  0
  6  7  1  0
  7  8  2  0
  8  9  1  0
  9 10  2  0
  2 11  1  0
 11 12  2  0
 12 13  1  0
 13 14  1  0
 14 15  1  0
 15 16  1  0
 16 17  2  0
 17 18  1  0
 18 19  2  0
 19 20  1  0
 20 21  2  0
 13 22  1  0
 22 23  2  0
 22 24  1  0
 24 25  1  0
 25 26  2  0
 10  5  1  0
 25 11  1  0
 21 16  1  0
  4 27  1  0
  4 28  1  0
  6 29  1  0
  7 30  1  0
  8 31  1  0
  9 32  1  0
 10 33  1  0
 12 34  1  0
 14 35  1  0
 14 36  1  0
 15 37  1  0
 15 38  1  0
 17 39  1  0
 18 40  1  0
 19 41  1  0
 20 42  1  0
 21 43  1  0
 24 44  1  0
M  CHG  1   3  -1
M  END
>  <UniqueID>  (71) 
68

>  <SMILES>  (71) 
O=C([N-]Cc1ccccc1)c1cn(CCc2ccccc2)c(=O)[nH]c1=O

>  <Energy>  (71) 
50.71333737942753

>  <Genealogy>  (71) 
O=C([N-]Cc1ccccc1)c1cn(CCc2ccccc2)c(=O)[nH]c1=O (protonated)
O=C([N-]Cc1ccccc1)c1cn(CCc2ccccc2)c(=O)[nH]c1=O (3D coordinates assigned)
O=C([N-]Cc1ccccc1)c1cn(CCc2ccccc2)c(=O)[nH]c1=O (optimized conformer: 50.71333737942753 kcal/mol)

>  <smiles>  (71) 
O=C(NCc1ccccc1)c1cn(CCc2ccccc2)c(=O)[nH]c1=O

>  <score_type>  (71) 
oracle

>  <origin>  (71) 
adg

>  <m_score__min__energy>  (71) 
-10.24

>  <m_primary>  (71) 
energy

$$$$
71:0
     RDKit          3D

 38 40  0  0  0  0  0  0  0  0999 V2000
   57.0430   33.1140   46.8830 C   0  0  0  0  0  0  0  0  0  0  0  0
   57.2890   32.6830   45.4710 C   0  0  0  0  0  0  0  0  0  0  0  0
   56.5060   31.7310   44.8750 N   0  0  0  0  0  0  0  0  0  0  0  0
   56.8410   31.4330   43.6230 N   0  0  0  0  0  0  0  0  0  0  0  0
   58.1510   32.3650   43.2180 S   0  0  0  0  0  0  0  0  0  0  0  0
   58.3130   33.1910   44.6610 C   0  0  0  0  0  0  0  0  0  0  0  0
   59.3650   34.1720   45.0030 C   0  0  0  0  0  0  0  0  0  0  0  0
   59.2830   35.3490   44.5650 O   0  0  0  0  0  0  0  0  0  0  0  0
   60.4410   33.8410   45.8880 N   0  0  0  0  0  0  0  0  0  0  0  0
   60.3190   33.5310   47.2860 C   0  0  0  0  0  0  0  0  0  0  0  0
   59.9860   34.5430   48.2060 C   0  0  0  0  0  0  0  0  0  0  0  0
   59.8170   34.2470   49.5570 C   0  0  0  0  0  0  0  0  0  0  0  0
   59.9570   32.9370   50.0080 C   0  0  0  0  0  0  0  0  0  0  0  0
   60.2650   31.9160   49.1070 C   0  0  0  0  0  0  0  0  0  0  0  0
   60.4480   32.1920   47.7370 C   0  0  0  0  0  0  0  0  0  0  0  0
   60.7840   31.0750   46.8130 C   0  0  0  0  0  0  0  0  0  0  0  0
   61.8770   30.4580   46.9280 O   0  0  0  0  0  0  0  0  0  0  0  0
   59.8310   30.6540   45.8250 N   0  0  0  0  0  0  0  0  0  0  0  0
   58.9380   29.5350   45.9190 C   0  0  0  0  0  0  0  0  0  0  0  0
   58.1810   29.0890   44.8210 C   0  0  0  0  0  0  0  0  0  0  0  0
   57.3050   28.0080   44.9610 C   0  0  0  0  0  0  0  0  0  0  0  0
   57.1590   27.3640   46.2000 C   0  0  0  0  0  0  0  0  0  0  0  0
   56.2310   26.2200   46.3430 C   0  0  0  0  0  0  0  0  0  0  0  0
   56.6450   25.1080   46.7690 O   0  0  0  0  0  0  0  0  0  0  0  0
   54.8890   26.3540   46.0070 O   0  0  0  0  0  0  0  0  0  0  0  0
   57.8990   27.8290   47.3010 C   0  0  0  0  0  0  0  0  0  0  0  0
   58.7730   28.9110   47.1600 C   0  0  0  0  0  0  0  0  0  0  0  0
   57.4677   32.3698   47.5728 H   0  0  0  0  0  0  0  0  0  0  0  0
   57.5203   34.0897   47.0570 H   0  0  0  0  0  0  0  0  0  0  0  0
   55.9602   33.1992   47.0570 H   0  0  0  0  0  0  0  0  0  0  0  0
   59.8580   35.5776   47.8549 H   0  0  0  0  0  0  0  0  0  0  0  0
   59.5726   35.0495   50.2685 H   0  0  0  0  0  0  0  0  0  0  0  0
   59.8248   32.7064   51.0754 H   0  0  0  0  0  0  0  0  0  0  0  0
   60.3661   30.8829   49.4710 H   0  0  0  0  0  0  0  0  0  0  0  0
   58.2783   29.5926   43.8479 H   0  0  0  0  0  0  0  0  0  0  0  0
   56.7256   27.6594   44.0934 H   0  0  0  0  0  0  0  0  0  0  0  0
   57.7897   27.3385   48.2795 H   0  0  0  0  0  0  0  0  0  0  0  0
   59.3357   29.2747   48.0324 H   0  0  0  0  0  0  0  0  0  0  0  0
  1  2  1  0
  2  3  1  0
  3  4  2  0
  4  5  1  0
  5  6  1  0
  6  7  1  0
  7  8  2  0
  7  9  1  0
  9 10  1  0
 10 11  2  0
 11 12  1  0
 12 13  2  0
 13 14  1  0
 14 15  2  0
 15 16  1  0
 16 17  2  0
 16 18  1  0
 18 19  1  0
 19 20  2  0
 20 21  1  0
 21 22  2  0
 22 23  1  0
 23 24  2  0
 23 25  1  0
 22 26  1  0
 26 27  2  0
  6  2  2  0
 15 10  1  0
 27 19  1  0
  1 28  1  0
  1 29  1  0
  1 30  1  0
 11 31  1  0
 12 32  1  0
 13 33  1  0
 14 34  1  0
 20 35  1  0
 21 36  1  0
 26 37  1  0
 27 38  1  0
M  CHG  3   9  -1  18  -1  25  -1
M  END
>  <UniqueID>  (72) 
69

>  <SMILES>  (72) 
Cc1nnsc1C(=O)[N-]c1ccccc1C(=O)[N-]c1ccc(C(=O)[O-])cc1

>  <Energy>  (72) 
90.57013306406951

>  <Genealogy>  (72) 
Cc1nnsc1C(=O)[N-]c1ccccc1C(=O)[N-]c1ccc(C(=O)[O-])cc1 (protonated)
Cc1nnsc1C(=O)[N-]c1ccccc1C(=O)[N-]c1ccc(C(=O)[O-])cc1 (3D coordinates assigned)
Cc1nnsc1C(=O)[N-]c1ccccc1C(=O)[N-]c1ccc(C(=O)[O-])cc1 (optimized conformer: 90.57013306406951 kcal/mol)

>  <smiles>  (72) 
Cc1nnsc1C(=O)Nc1ccccc1C(=O)Nc1ccc(C(=O)O)cc1

>  <score_type>  (72) 
oracle

>  <origin>  (72) 
adg

>  <m_score__min__energy>  (72) 
-13.380000000000001

>  <m_primary>  (72) 
energy

$$$$
72:0
     RDKit          3D

 46 48  0  0  0  0  0  0  0  0999 V2000
   56.2320   29.6760   43.5860 C   0  0  0  0  0  0  0  0  0  0  0  0
   56.6560   30.1400   44.8630 O   0  0  0  0  0  0  0  0  0  0  0  0
   57.3180   31.3580   45.0860 C   0  0  0  0  0  0  0  0  0  0  0  0
   57.4710   32.3160   44.0710 C   0  0  0  0  0  0  0  0  0  0  0  0
   58.1620   33.4920   44.3370 C   0  0  0  0  0  0  0  0  0  0  0  0
   58.6880   33.7300   45.6170 C   0  0  0  0  0  0  0  0  0  0  0  0
   59.4390   34.8790   45.8870 C   0  0  0  0  0  0  0  0  0  0  0  0
   59.6300   35.7570   45.0000 O   0  0  0  0  0  0  0  0  0  0  0  0
   60.0160   35.0400   47.1350 C   0  0  0  0  0  0  0  0  0  0  0  0
   59.8020   34.0910   48.1460 C   0  0  0  0  0  0  0  0  0  0  0  0
   60.6620   34.2210   49.3880 C   0  0  0  0  0  0  0  0  0  0  0  0
   61.4400   32.6090   49.7310 S   0  0  0  0  0  0  0  0  0  0  0  0
   61.9770   32.3470   48.0360 C   0  0  0  0  0  0  0  0  0  0  0  0
   62.8340   33.5230   47.2870 S   0  0  0  0  0  0  0  0  0  0  0  0
   61.6000   31.1690   47.3100 N   0  0  0  0  0  0  0  0  0  0  0  0
   60.7920   30.1100   47.9130 C   0  0  0  0  0  0  0  0  0  0  0  0
   60.0830   29.3100   46.8520 C   0  0  0  0  0  0  0  0  0  0  0  0
   60.5190   29.3520   45.5170 C   0  0  0  0  0  0  0  0  0  0  0  0
   59.8430   28.6230   44.5320 C   0  0  0  0  0  0  0  0  0  0  0  0
   58.7190   27.8620   44.8710 C   0  0  0  0  0  0  0  0  0  0  0  0
   58.2670   27.8320   46.1950 C   0  0  0  0  0  0  0  0  0  0  0  0
   58.9420   28.5580   47.1830 C   0  0  0  0  0  0  0  0  0  0  0  0
   58.9580   33.0170   47.9210 N   0  0  0  0  0  0  0  0  0  0  0  0
   58.5650   32.1380   49.0410 C   0  0  0  0  0  0  0  0  0  0  0  0
   58.4800   32.7740   46.6430 C   0  0  0  0  0  0  0  0  0  0  0  0
   57.8300   31.6040   46.3260 N   0  0  0  0  0  0  0  0  0  0  0  0
   55.4951   28.8696   43.7150 H   0  0  0  0  0  0  0  0  0  0  0  0
   55.7736   30.5058   43.0280 H   0  0  0  0  0  0  0  0  0  0  0  0
   57.0996   29.2940   43.0280 H   0  0  0  0  0  0  0  0  0  0  0  0
   57.0468   32.1369   43.0720 H   0  0  0  0  0  0  0  0  0  0  0  0
   58.2975   34.2396   43.5415 H   0  0  0  0  0  0  0  0  0  0  0  0
   60.6469   35.9185   47.3355 H   0  0  0  0  0  0  0  0  0  0  0  0
   61.4407   34.9799   49.2213 H   0  0  0  0  0  0  0  0  0  0  0  0
   60.0417   34.5274   50.2432 H   0  0  0  0  0  0  0  0  0  0  0  0
   61.8970   31.0840   46.3080 H   0  0  0  0  0  0  0  0  0  0  0  0
   61.4467   29.4417   48.4916 H   0  0  0  0  0  0  0  0  0  0  0  0
   60.0394   30.5707   48.5698 H   0  0  0  0  0  0  0  0  0  0  0  0
   61.3946   29.9599   45.2451 H   0  0  0  0  0  0  0  0  0  0  0  0
   60.1957   28.6484   43.4904 H   0  0  0  0  0  0  0  0  0  0  0  0
   58.1904   27.2870   44.0964 H   0  0  0  0  0  0  0  0  0  0  0  0
   57.3803   27.2372   46.4595 H   0  0  0  0  0  0  0  0  0  0  0  0
   58.5789   28.5402   48.2212 H   0  0  0  0  0  0  0  0  0  0  0  0
   58.7884   32.6377   49.9951 H   0  0  0  0  0  0  0  0  0  0  0  0
   57.4870   31.9274   48.9810 H   0  0  0  0  0  0  0  0  0  0  0  0
   59.1269   31.1942   48.9810 H   0  0  0  0  0  0  0  0  0  0  0  0
   57.7390   30.8270   47.0140 H   0  0  0  0  0  0  0  0  0  0  0  0
  1  2  1  0
  2  3  1  0
  3  4  2  0
  4  5  1  0
  5  6  2  0
  6  7  1  0
  7  8  2  0
  7  9  1  0
  9 10  2  0
 10 11  1  0
 11 12  1  0
 12 13  1  0
 13 14  2  0
 13 15  1  0
 15 16  1  0
 16 17  1  0
 17 18  2  0
 18 19  1  0
 19 20  2  0
 20 21  1  0
 21 22  2  0
 10 23  1  0
 23 24  1  0
 23 25  1  0
 25 26  2  0
 26  3  1  0
 25  6  1  0
 22 17  1  0
  1 27  1  0
  1 28  1  0
  1 29  1  0
  4 30  1  0
  5 31  1  0
  9 32  1  0
 11 33  1  0
 11 34  1  0
 15 35  1  0
 16 36  1  0
 16 37  1  0
 18 38  1  0
 19 39  1  0
 20 40  1  0
 21 41  1  0
 22 42  1  0
 24 43  1  0
 24 44  1  0
 24 45  1  0
 26 46  1  0
M  CHG  1  26   1
M  END
>  <UniqueID>  (73) 
70

>  <SMILES>  (73) 
COc1ccc2c(=O)cc(CSC(=S)NCc3ccccc3)n(C)c2[nH+]1

>  <Energy>  (73) 
57.50164728414161

>  <Genealogy>  (73) 
COc1ccc2c(=O)cc(CSC(=S)NCc3ccccc3)n(C)c2[nH+]1 (protonated)
COc1ccc2c(=O)cc(CSC(=S)NCc3ccccc3)n(C)c2[nH+]1 (3D coordinates assigned)
COc1ccc2c(=O)cc(CSC(=S)NCc3ccccc3)n(C)c2[nH+]1 (optimized conformer: 57.50164728414161 kcal/mol)

>  <smiles>  (73) 
COc1ccc2c(=O)cc(CSC(=S)NCc3ccccc3)n(C)c2n1

>  <score_type>  (73) 
oracle

>  <origin>  (73) 
adg

>  <m_score__min__energy>  (73) 
-7.1900000000000004

>  <m_primary>  (73) 
energy

$$$$
73:0
     RDKit          3D

 46 48  0  0  1  0  0  0  0  0999 V2000
   58.0970   32.3380   41.4370 C   0  0  0  0  0  0  0  0  0  0  0  0
   57.7950   32.1570   42.8830 C   0  0  0  0  0  0  0  0  0  0  0  0
   57.8830   33.2420   43.7440 C   0  0  0  0  0  0  0  0  0  0  0  0
   57.5940   33.0130   45.0610 C   0  0  0  0  0  0  0  0  0  0  0  0
   57.6270   33.9060   45.9860 N   0  0  0  0  0  0  0  0  0  0  0  0
   58.8840   34.6420   46.1760 C   0  0  0  0  0  0  0  0  0  0  0  0
   59.6340   33.8890   47.2140 C   0  0  0  0  0  0  0  0  0  0  0  0
   60.0430   34.5540   48.3440 C   0  0  0  0  0  0  0  0  0  0  0  0
   60.7380   33.8020   49.2810 C   0  0  0  0  0  0  0  0  0  0  0  0
   60.9850   32.4480   49.0460 C   0  0  0  0  0  0  0  0  0  0  0  0
   60.5710   31.7990   47.9160 C   0  0  0  0  0  0  0  0  0  0  0  0
   60.7860   30.4390   47.6160 N   0  0  0  0  0  0  0  0  0  0  0  0
   59.7800   29.4950   47.2950 C   0  0  0  0  0  0  0  0  0  0  0  0
   58.5610   29.7590   47.2390 O   0  0  0  0  0  0  0  0  0  0  0  0
   60.1390   28.1270   47.0060 N   0  0  0  0  0  0  0  0  0  0  0  0
   59.0680   27.2420   46.6930 C   0  0  0  0  0  0  0  0  0  0  0  0
   58.4270   26.4610   47.6220 C   0  0  0  0  0  0  0  0  0  0  0  0
   57.4010   25.6490   47.1610 C   0  0  0  0  0  0  0  0  0  0  0  0
   57.0200   25.6090   45.8360 C   0  0  0  0  0  0  0  0  0  0  0  0
   55.7270   24.5890   45.2440 Cl  0  0  0  0  0  0  0  0  0  0  0  0
   57.6690   26.4000   44.8970 C   0  0  0  0  0  0  0  0  0  0  0  0
   58.6880   27.2070   45.3490 C   0  0  0  0  0  0  0  0  0  0  0  0
   59.5070   28.2060   44.1560 Cl  0  0  0  0  0  0  0  0  0  0  0  0
   59.8790   32.5530   46.9840 C   0  0  0  0  0  0  0  0  0  0  0  0
   57.2430   31.7630   45.4500 N   0  0  0  0  0  0  0  0  0  0  0  0
   57.1670   30.7290   44.5900 C   0  0  0  0  0  0  0  0  0  0  0  0
   56.8250   29.5390   45.0110 N   0  0  0  0  0  0  0  0  0  0  0  0
   57.4470   30.9370   43.2960 N   0  0  0  0  0  0  0  0  0  0  0  0
   59.0357   32.9006   41.3261 H   0  0  0  0  0  0  0  0  0  0  0  0
   58.2010   31.3532   40.9581 H   0  0  0  0  0  0  0  0  0  0  0  0
   57.2775   32.8940   40.9581 H   0  0  0  0  0  0  0  0  0  0  0  0
   58.1719   34.2403   43.3837 H   0  0  0  0  0  0  0  0  0  0  0  0
   59.4557   34.6746   45.2368 H   0  0  0  0  0  0  0  0  0  0  0  0
   58.7041   35.6840   46.4790 H   0  0  0  0  0  0  0  0  0  0  0  0
   59.8316   35.6225   48.4978 H   0  0  0  0  0  0  0  0  0  0  0  0
   61.0943   34.2729   50.2091 H   0  0  0  0  0  0  0  0  0  0  0  0
   61.5386   31.8766   49.8056 H   0  0  0  0  0  0  0  0  0  0  0  0
   61.7660   30.0690   47.6240 H   0  0  0  0  0  0  0  0  0  0  0  0
   61.1400   27.8360   47.0350 H   0  0  0  0  0  0  0  0  0  0  0  0
   58.7138   26.4782   48.6838 H   0  0  0  0  0  0  0  0  0  0  0  0
   56.8693   25.0106   47.8820 H   0  0  0  0  0  0  0  0  0  0  0  0
   57.3805   26.3822   43.8357 H   0  0  0  0  0  0  0  0  0  0  0  0
   59.5230   32.0832   46.0553 H   0  0  0  0  0  0  0  0  0  0  0  0
   57.0170   31.5600   46.4460 H   0  0  0  0  0  0  0  0  0  0  0  0
   57.1330   29.2340   45.9550 H   0  0  0  0  0  0  0  0  0  0  0  0
   57.3760   30.1080   42.6580 H   0  0  0  0  0  0  0  0  0  0  0  0
  1  2  1  0
  2  3  2  0
  3  4  1  0
  4  5  2  0
  5  6  1  0
  6  7  1  0
  7  8  2  0
  8  9  1  0
  9 10  2  0
 10 11  1  0
 11 12  1  0
 12 13  1  0
 13 14  2  0
 13 15  1  0
 15 16  1  0
 16 17  2  0
 17 18  1  0
 18 19  2  0
 19 20  1  0
 19 21  1  0
 21 22  2  0
 22 23  1  0
 11 24  2  0
  4 25  1  0
 25 26  1  0
 26 27  2  3
 26 28  1  0
 28  2  1  0
 24  7  1  0
 22 16  1  0
  1 29  1  0
  1 30  1  0
  1 31  1  0
  3 32  1  0
  6 33  1  0
  6 34  1  0
  8 35  1  0
  9 36  1  0
 10 37  1  0
 12 38  1  0
 15 39  1  0
 17 40  1  0
 18 41  1  0
 21 42  1  0
 24 43  1  0
 25 44  1  0
 27 45  1  0
 28 46  1  0
M  END
>  <smiles>  (74) 
Cc1cc(=NCc2cccc(NC(=O)Nc3ccc(Cl)cc3Cl)c2)[nH]c(=N)[nH]1

>  <score_type>  (74) 
oracle

>  <origin>  (74) 
adg

>  <m_score__min__energy>  (74) 
-8.75

>  <m_primary>  (74) 
energy

$$$$
74:0
     RDKit          3D

 42 45  0  0  0  0  0  0  0  0999 V2000
   55.5250   29.1300   45.0890 O   0  0  0  0  0  0  0  0  0  0  0  0
   56.7030   28.7950   44.7910 C   0  0  0  0  0  0  0  0  0  0  0  0
   57.5720   29.7700   44.0540 C   0  0  0  0  0  0  0  0  0  0  0  0
   58.6650   30.2130   44.9200 N   0  0  0  0  0  0  0  0  0  0  0  0
   59.7680   29.5150   45.2910 C   0  0  0  0  0  0  0  0  0  0  0  0
   60.0400   28.3610   44.8630 O   0  0  0  0  0  0  0  0  0  0  0  0
   60.5250   30.1640   46.1560 O   0  0  0  0  0  0  0  0  0  0  0  0
   59.9160   31.3060   46.3750 C   0  0  0  0  0  0  0  0  0  0  0  0
   60.2920   32.3530   47.2170 C   0  0  0  0  0  0  0  0  0  0  0  0
   61.4640   32.3100   47.9820 C   0  0  0  0  0  0  0  0  0  0  0  0
   61.7920   33.3870   48.8110 C   0  0  0  0  0  0  0  0  0  0  0  0
   60.9550   34.5050   48.8810 C   0  0  0  0  0  0  0  0  0  0  0  0
   59.7810   34.5590   48.1220 C   0  0  0  0  0  0  0  0  0  0  0  0
   59.4350   33.4870   47.2830 C   0  0  0  0  0  0  0  0  0  0  0  0
   58.2470   33.5250   46.5100 C   0  0  0  0  0  0  0  0  0  0  0  0
   57.9030   32.4480   45.6720 C   0  0  0  0  0  0  0  0  0  0  0  0
   58.7680   31.3540   45.6290 C   0  0  0  0  0  0  0  0  0  0  0  0
   57.1990   27.4860   45.1140 N   0  0  0  0  0  0  0  0  0  0  0  0
   56.4150   26.4630   45.7470 C   0  0  0  0  0  0  0  0  0  0  0  0
   55.1960   26.6590   46.0020 O   0  0  0  0  0  0  0  0  0  0  0  0
   57.0200   25.1970   46.0500 N   0  0  0  0  0  0  0  0  0  0  0  0
   56.3770   24.1730   46.8260 C   0  0  0  0  0  0  0  0  0  0  0  0
   57.0190   23.6770   47.9710 C   0  0  0  0  0  0  0  0  0  0  0  0
   56.4100   22.6910   48.7530 C   0  0  0  0  0  0  0  0  0  0  0  0
   55.1460   22.2070   48.4090 C   0  0  0  0  0  0  0  0  0  0  0  0
   54.4850   22.7140   47.2860 C   0  0  0  0  0  0  0  0  0  0  0  0
   55.0910   23.6990   46.4980 C   0  0  0  0  0  0  0  0  0  0  0  0
   54.4010   24.2210   45.4530 F   0  0  0  0  0  0  0  0  0  0  0  0
   57.9888   29.2840   43.1596 H   0  0  0  0  0  0  0  0  0  0  0  0
   56.9692   30.6405   43.7560 H   0  0  0  0  0  0  0  0  0  0  0  0
   62.1244   31.4318   47.9309 H   0  0  0  0  0  0  0  0  0  0  0  0
   62.7132   33.3547   49.4113 H   0  0  0  0  0  0  0  0  0  0  0  0
   61.2213   35.3471   49.5368 H   0  0  0  0  0  0  0  0  0  0  0  0
   59.1280   35.4422   48.1824 H   0  0  0  0  0  0  0  0  0  0  0  0
   57.5883   34.4042   46.5658 H   0  0  0  0  0  0  0  0  0  0  0  0
   56.9822   32.4680   45.0705 H   0  0  0  0  0  0  0  0  0  0  0  0
   58.1940   27.2650   44.8880 H   0  0  0  0  0  0  0  0  0  0  0  0
   57.9210   24.9620   45.5770 H   0  0  0  0  0  0  0  0  0  0  0  0
   58.0077   24.0665   48.2551 H   0  0  0  0  0  0  0  0  0  0  0  0
   56.9269   22.2961   49.6400 H   0  0  0  0  0  0  0  0  0  0  0  0
   54.6704   21.4269   49.0215 H   0  0  0  0  0  0  0  0  0  0  0  0
   53.4859   22.3376   47.0212 H   0  0  0  0  0  0  0  0  0  0  0  0
  1  2  2  0
  2  3  1  0
  3  4  1  0
  4  5  1  0
  5  6  2  0
  5  7  1  0
  7  8  1  0
  8  9  2  0
  9 10  1  0
 10 11  2  0
 11 12  1  0
 12 13  2  0
 13 14  1  0
 14 15  2  0
 15 16  1  0
 16 17  2  0
  2 18  1  0
 18 19  1  0
 19 20  2  0
 19 21  1  0
 21 22  1  0
 22 23  2  0
 23 24  1  0
 24 25  2  0
 25 26  1  0
 26 27  2  0
 27 28  1  0
 17  4  1  0
 27 22  1  0
 17  8  1  0
 14  9  1  0
  3 29  1  0
  3 30  1  0
 10 31  1  0
 11 32  1  0
 12 33  1  0
 13 34  1  0
 15 35  1  0
 16 36  1  0
 18 37  1  0
 21 38  1  0
 23 39  1  0
 24 40  1  0
 25 41  1  0
 26 42  1  0
M  END
>  <UniqueID>  (75) 
71

>  <SMILES>  (75) 
O=C(Cn1c(=O)oc2c3ccccc3ccc21)NC(=O)Nc1ccccc1F

>  <Energy>  (75) 
93.19777342951825

>  <Genealogy>  (75) 
O=C(Cn1c(=O)oc2c3ccccc3ccc21)NC(=O)Nc1ccccc1F (3D coordinates assigned)
O=C(Cn1c(=O)oc2c3ccccc3ccc21)NC(=O)Nc1ccccc1F (optimized conformer: 93.19777342951825 kcal/mol)

>  <smiles>  (75) 
O=C(Cn1c(=O)oc2c3ccccc3ccc21)NC(=O)Nc1ccccc1F

>  <score_type>  (75) 
oracle

>  <origin>  (75) 
adg

>  <m_score__min__energy>  (75) 
-8.1600000000000001

>  <m_primary>  (75) 
energy

$$$$
75:0
     RDKit          3D

 46 49  0  0  0  0  0  0  0  0999 V2000
   56.2985   31.2951   44.6211 H   0  0  0  0  0  0  0  0  0  0  0  0
   56.8700   30.3890   44.8710 C   0  0  0  0  0  0  0  0  0  0  0  0
   57.4420   30.2630   46.0990 N   0  0  0  0  0  0  0  0  0  0  0  0
   58.1590   29.1590   46.4540 C   0  0  0  0  0  0  0  0  0  0  0  0
   58.6950   29.0570   47.6380 N   0  0  0  0  0  0  0  0  0  0  0  0
   59.9640   29.5860   48.0610 C   0  0  0  0  0  0  0  0  0  0  0  0
   60.8790   29.8410   47.2300 O   0  0  0  0  0  0  0  0  0  0  0  0
   60.1880   29.8670   49.5130 C   0  0  0  0  0  0  0  0  0  0  0  0
   60.2876   28.9148   50.0546 H   0  0  0  0  0  0  0  0  0  0  0  0
   61.1057   30.4636   49.6220 H   0  0  0  0  0  0  0  0  0  0  0  0
   58.7860   30.8090   50.2070 S   0  0  0  0  0  0  0  0  0  0  0  0
   58.9920   32.2190   49.1050 C   0  0  0  0  0  0  0  0  0  0  0  0
   59.5370   33.4350   49.5630 C   0  0  0  0  0  0  0  0  0  0  0  0
   59.9060   33.6260   50.9350 N   0  0  0  0  0  0  0  0  0  0  0  0
   58.9110   34.0710   51.9120 C   0  0  0  0  0  0  0  0  0  0  0  0
   59.0415   35.1460   52.1052 H   0  0  0  0  0  0  0  0  0  0  0  0
   57.9007   33.8908   51.5160 H   0  0  0  0  0  0  0  0  0  0  0  0
   59.0960   33.2910   53.2170 C   0  0  0  0  0  0  0  0  0  0  0  0
   58.4459   33.7249   53.9910 H   0  0  0  0  0  0  0  0  0  0  0  0
   58.8308   32.2386   53.0378 H   0  0  0  0  0  0  0  0  0  0  0  0
   60.4410   33.3500   53.6550 O   0  0  0  0  0  0  0  0  0  0  0  0
   61.2820   32.6950   52.7220 C   0  0  0  0  0  0  0  0  0  0  0  0
   62.3070   32.6639   53.1200 H   0  0  0  0  0  0  0  0  0  0  0  0
   60.9032   31.6750   52.5607 H   0  0  0  0  0  0  0  0  0  0  0  0
   61.2860   33.4350   51.3820 C   0  0  0  0  0  0  0  0  0  0  0  0
   61.7724   34.4141   51.5036 H   0  0  0  0  0  0  0  0  0  0  0  0
   61.8386   32.8456   50.6355 H   0  0  0  0  0  0  0  0  0  0  0  0
   59.7340   34.4480   48.6770 N   0  0  0  0  0  0  0  0  0  0  0  0
   59.4050   34.3200   47.3660 C   0  0  0  0  0  0  0  0  0  0  0  0
   59.6130   35.3790   46.4750 C   0  0  0  0  0  0  0  0  0  0  0  0
   60.0424   36.3258   46.8343 H   0  0  0  0  0  0  0  0  0  0  0  0
   59.2730   35.2300   45.1250 C   0  0  0  0  0  0  0  0  0  0  0  0
   59.4355   36.0614   44.4234 H   0  0  0  0  0  0  0  0  0  0  0  0
   58.7270   34.0260   44.6660 C   0  0  0  0  0  0  0  0  0  0  0  0
   58.4643   33.9130   43.6038 H   0  0  0  0  0  0  0  0  0  0  0  0
   58.5140   32.9650   45.5540 C   0  0  0  0  0  0  0  0  0  0  0  0
   58.0848   32.0201   45.1893 H   0  0  0  0  0  0  0  0  0  0  0  0
   58.8480   33.1070   46.9090 C   0  0  0  0  0  0  0  0  0  0  0  0
   58.6510   32.0890   47.7920 N   0  0  0  0  0  0  0  0  0  0  0  0
   58.2460   31.1840   47.4610 H   0  0  0  0  0  0  0  0  0  0  0  0
   58.3130   28.1100   45.5310 C   0  0  0  0  0  0  0  0  0  0  0  0
   59.2180   26.6570   45.9360 Cl  0  0  0  0  0  0  0  0  0  0  0  0
   57.7320   28.2240   44.2640 C   0  0  0  0  0  0  0  0  0  0  0  0
   57.8457   27.4109   43.5319 H   0  0  0  0  0  0  0  0  0  0  0  0
   57.0080   29.3690   43.9280 C   0  0  0  0  0  0  0  0  0  0  0  0
   56.2750   29.5220   42.3420 Cl  0  0  0  0  0  0  0  0  0  0  0  0
  1  2  1  0
  2  3  1  0
  3  4  1  0
  4  5  2  0
  5  6  1  0
  6  7  2  0
  6  8  1  0
  8  9  1  0
  8 10  1  0
  8 11  1  0
 11 12  1  0
 12 13  1  0
 13 14  1  0
 14 15  1  0
 15 16  1  0
 15 17  1  0
 15 18  1  0
 18 19  1  0
 18 20  1  0
 18 21  1  0
 21 22  1  0
 22 23  1  0
 22 24  1  0
 22 25  1  0
 25 26  1  0
 25 27  1  0
 13 28  2  0
 28 29  1  0
 29 30  2  0
 30 31  1  0
 30 32  1  0
 32 33  1  0
 32 34  2  0
 34 35  1  0
 34 36  1  0
 36 37  1  0
 36 38  2  0
 38 39  1  0
 39 40  1  0
  4 41  1  0
 41 42  1  0
 41 43  2  0
 43 44  1  0
 43 45  1  0
 45 46  1  0
 45  2  2  0
 39 12  2  0
 25 14  1  0
 38 29  1  0
M  CHG  2   3  -1  39   1
M  END
>  <UniqueID>  (76) 
72

>  <SMILES>  (76) 
O=C(CSc1[nH+]c2ccccc2nc1N1CCOCC1)/N=c1\[n-]cc(Cl)cc1Cl

>  <Energy>  (76) 
57.80042274603686

>  <Genealogy>  (76) 
O=C(CSc1[nH+]c2ccccc2nc1N1CCOCC1)N=c1[n-]cc(Cl)cc1Cl (protonated)
O=C(CSc1[nH+]c2ccccc2nc1N1CCOCC1)/N=c1\[n-]cc(Cl)cc1Cl (cis-trans isomerization)
O=C(CSc1[nH+]c2ccccc2nc1N1CCOCC1)/N=c1\[n-]cc(Cl)cc1Cl (3D coordinates assigned)
O=C(CSc1[nH+]c2ccccc2nc1N1CCOCC1)/N=c1\[n-]cc(Cl)cc1Cl (nonaromatic ring conformer: 57.80042274603686 kcal/mol)

>  <smiles>  (76) 
O=C(CSc1nc2ccccc2nc1N1CCOCC1)N=c1[nH]cc(Cl)cc1Cl

>  <score_type>  (76) 
oracle

>  <origin>  (76) 
adg

>  <m_score__min__energy>  (76) 
-8.6799999999999997

>  <m_primary>  (76) 
energy

$$$$
76:0
     RDKit          3D

 22 22  0  0  0  0  0  0  0  0999 V2000
   60.7550   26.5960   46.3130 C   0  0  0  0  0  0  0  0  0  0  0  0
   59.5320   27.2190   46.6930 O   0  0  0  0  0  0  0  0  0  0  0  0
   58.8250   28.1450   45.9060 C   0  0  0  0  0  0  0  0  0  0  0  0
   59.4900   29.1790   45.2180 C   0  0  0  0  0  0  0  0  0  0  0  0
   58.7700   30.0980   44.4580 C   0  0  0  0  0  0  0  0  0  0  0  0
   57.3830   30.0110   44.3830 C   0  0  0  0  0  0  0  0  0  0  0  0
   56.6950   28.9990   45.0600 C   0  0  0  0  0  0  0  0  0  0  0  0
   55.3010   28.9950   44.9710 O   0  0  0  0  0  0  0  0  0  0  0  0
   57.4180   28.0340   45.8090 C   0  0  0  0  0  0  0  0  0  0  0  0
   56.7080   26.9190   46.5450 C   0  0  0  0  0  0  0  0  0  0  0  0
   55.3780   26.7110   45.9820 N   0  0  0  0  0  0  0  0  0  0  0  0
   61.3164   26.3100   47.2147 H   0  0  0  0  0  0  0  0  0  0  0  0
   60.5389   25.6981   45.7154 H   0  0  0  0  0  0  0  0  0  0  0  0
   61.3543   27.2987   45.7154 H   0  0  0  0  0  0  0  0  0  0  0  0
   60.5851   29.2612   45.2814 H   0  0  0  0  0  0  0  0  0  0  0  0
   59.2994   30.8950   43.9154 H   0  0  0  0  0  0  0  0  0  0  0  0
   56.8226   30.7452   43.7856 H   0  0  0  0  0  0  0  0  0  0  0  0
   54.7670   28.2670   44.5180 H   0  0  0  0  0  0  0  0  0  0  0  0
   57.2919   25.9916   46.4503 H   0  0  0  0  0  0  0  0  0  0  0  0
   56.6100   27.1942   47.6055 H   0  0  0  0  0  0  0  0  0  0  0  0
   55.4420   26.8640   44.9490 H   0  0  0  0  0  0  0  0  0  0  0  0
   54.7420   27.4540   46.3530 H   0  0  0  0  0  0  0  0  0  0  0  0
  1  2  1  0
  2  3  1  0
  3  4  2  0
  4  5  1  0
  5  6  2  0
  6  7  1  0
  7  8  1  0
  7  9  2  0
  9 10  1  0
 10 11  1  0
  9  3  1  0
  1 12  1  0
  1 13  1  0
  1 14  1  0
  4 15  1  0
  5 16  1  0
  6 17  1  0
  8 18  1  0
 10 19  1  0
 10 20  1  0
 11 21  1  0
 11 22  1  0
M  END
>  <UniqueID>  (77) 
73

>  <SMILES>  (77) 
COc1cccc(O)c1CN

>  <Energy>  (77) 
20.92790007042354

>  <Genealogy>  (77) 
COc1cccc(O)c1CN (3D coordinates assigned)
COc1cccc(O)c1CN (optimized conformer: 20.92790007042354 kcal/mol)

>  <smiles>  (77) 
COc1cccc(O)c1CN

>  <score_type>  (77) 
oracle

>  <origin>  (77) 
adg

>  <m_score__min__energy>  (77) 
-5.5800000000000001

>  <m_primary>  (77) 
energy

$$$$
77:0
     RDKit          3D

 39 41  0  0  0  0  0  0  0  0999 V2000
   55.2400   29.4030   44.8850 N   0  0  0  0  0  0  0  0  0  0  0  0
   56.4650   28.6630   44.9470 C   0  0  0  0  0  0  0  0  0  0  0  0
   56.4410   27.3570   45.3340 N   0  0  0  0  0  0  0  0  0  0  0  0
   57.5830   26.6190   45.4050 C   0  0  0  0  0  0  0  0  0  0  0  0
   57.5210   25.3810   45.8110 N   0  0  0  0  0  0  0  0  0  0  0  0
   57.4640   24.2050   44.9880 C   0  0  0  0  0  0  0  0  0  0  0  0
   58.3590   23.1580   45.2470 C   0  0  0  0  0  0  0  0  0  0  0  0
   58.3160   21.9830   44.4910 C   0  0  0  0  0  0  0  0  0  0  0  0
   57.3600   21.8360   43.4830 C   0  0  0  0  0  0  0  0  0  0  0  0
   56.4410   22.8590   43.2370 C   0  0  0  0  0  0  0  0  0  0  0  0
   56.4820   24.0360   43.9910 C   0  0  0  0  0  0  0  0  0  0  0  0
   58.7740   27.1940   45.0870 N   0  0  0  0  0  0  0  0  0  0  0  0
   58.8540   28.4880   44.6930 C   0  0  0  0  0  0  0  0  0  0  0  0
   59.9740   28.9610   44.3620 O   0  0  0  0  0  0  0  0  0  0  0  0
   57.6910   29.2750   44.6350 C   0  0  0  0  0  0  0  0  0  0  0  0
   57.7210   30.6530   44.2250 N   0  0  0  0  0  0  0  0  0  0  0  0
   57.5600   31.7950   45.0780 C   0  0  0  0  0  0  0  0  0  0  0  0
   56.4030   32.2670   45.2410 O   0  0  0  0  0  0  0  0  0  0  0  0
   58.7010   32.4020   45.8040 C   0  0  0  0  0  0  0  0  0  0  0  0
   58.9060   33.7930   45.7950 C   0  0  0  0  0  0  0  0  0  0  0  0
   59.9850   34.3550   46.4830 C   0  0  0  0  0  0  0  0  0  0  0  0
   60.8880   33.5390   47.1860 C   0  0  0  0  0  0  0  0  0  0  0  0
   61.9990   34.1140   47.8970 N   0  0  0  0  0  0  0  0  0  0  0  0
   63.1250   34.1940   47.3630 O   0  0  0  0  0  0  0  0  0  0  0  0
   61.8390   34.5890   49.1800 O   0  0  0  0  0  0  0  0  0  0  0  0
   60.6920   32.1470   47.1800 C   0  0  0  0  0  0  0  0  0  0  0  0
   59.6130   31.5850   46.4910 C   0  0  0  0  0  0  0  0  0  0  0  0
   54.3570   28.9750   44.5290 H   0  0  0  0  0  0  0  0  0  0  0  0
   55.2090   30.3990   45.1980 H   0  0  0  0  0  0  0  0  0  0  0  0
   55.5280   26.9130   45.5830 H   0  0  0  0  0  0  0  0  0  0  0  0
   59.1015   23.2618   46.0519 H   0  0  0  0  0  0  0  0  0  0  0  0
   59.0347   21.1743   44.6897 H   0  0  0  0  0  0  0  0  0  0  0  0
   57.3309   20.9146   42.8829 H   0  0  0  0  0  0  0  0  0  0  0  0
   55.6835   22.7384   42.4485 H   0  0  0  0  0  0  0  0  0  0  0  0
   55.7459   24.8321   43.8056 H   0  0  0  0  0  0  0  0  0  0  0  0
   58.2121   34.4436   45.2425 H   0  0  0  0  0  0  0  0  0  0  0  0
   60.1288   35.4455   46.4742 H   0  0  0  0  0  0  0  0  0  0  0  0
   61.3930   31.4948   47.7216 H   0  0  0  0  0  0  0  0  0  0  0  0
   59.4775   30.4934   46.4871 H   0  0  0  0  0  0  0  0  0  0  0  0
  1  2  1  0
  2  3  1  0
  3  4  1  0
  4  5  2  3
  5  6  1  0
  6  7  2  0
  7  8  1  0
  8  9  2  0
  9 10  1  0
 10 11  2  0
  4 12  1  0
 12 13  1  0
 13 14  2  0
 13 15  1  0
 15 16  1  0
 16 17  1  0
 17 18  2  0
 17 19  1  0
 19 20  2  0
 20 21  1  0
 21 22  2  0
 22 23  1  0
 23 24  2  0
 23 25  1  0
 22 26  1  0
 26 27  2  0
 15  2  2  0
 27 19  1  0
 11  6  1  0
  1 28  1  0
  1 29  1  0
  3 30  1  0
  7 31  1  0
  8 32  1  0
  9 33  1  0
 10 34  1  0
 11 35  1  0
 20 36  1  0
 21 37  1  0
 26 38  1  0
 27 39  1  0
M  CHG  4  12  -1  16  -1  23   1  25  -1
M  END
>  <UniqueID>  (78) 
74

>  <SMILES>  (78) 
Nc1[nH]c(=Nc2ccccc2)[n-]c(=O)c1[N-]C(=O)c1ccc([N+](=O)[O-])cc1

>  <Energy>  (78) 
58.85221298538723

>  <Genealogy>  (78) 
Nc1[nH]c(=Nc2ccccc2)[n-]c(=O)c1[N-]C(=O)c1ccc([N+](=O)[O-])cc1 (protonated)
Nc1[nH]c(=Nc2ccccc2)[n-]c(=O)c1[N-]C(=O)c1ccc([N+](=O)[O-])cc1 (3D coordinates assigned)
Nc1[nH]c(=Nc2ccccc2)[n-]c(=O)c1[N-]C(=O)c1ccc([N+](=O)[O-])cc1 (optimized conformer: 58.85221298538723 kcal/mol)

>  <smiles>  (78) 
Nc1[nH]c(=Nc2ccccc2)[nH]c(=O)c1NC(=O)c1ccc([N+](=O)[O-])cc1

>  <score_type>  (78) 
oracle

>  <origin>  (78) 
adg

>  <m_score__min__energy>  (78) 
-10.77

>  <m_primary>  (78) 
energy

$$$$
78:0
     RDKit          3D

 66 71  0  0  0  0  0  0  0  0999 V2000
   52.9973   30.7509   50.0872 H   0  0  0  0  0  0  0  0  0  0  0  0
   53.1450   30.5470   51.1580 C   0  0  0  0  0  0  0  0  0  0  0  0
   54.2130   29.8480   51.6260 N   0  0  0  0  0  0  0  0  0  0  0  0
   54.1780   29.7250   52.9690 C   0  0  0  0  0  0  0  0  0  0  0  0
   55.0940   29.0890   53.6310 N   0  0  0  0  0  0  0  0  0  0  0  0
   56.4690   29.8480   54.3670 S   0  0  0  0  0  0  0  0  0  0  0  0
   56.0130   30.7870   55.4500 O   0  0  0  0  0  0  0  0  0  0  0  0
   57.3700   28.8030   54.9650 O   0  0  0  0  0  0  0  0  0  0  0  0
   57.3570   30.7440   53.1410 C   0  0  0  0  0  0  0  0  0  0  0  0
   56.6800   31.5570   52.2200 C   0  0  0  0  0  0  0  0  0  0  0  0
   55.5838   31.6381   52.2631 H   0  0  0  0  0  0  0  0  0  0  0  0
   57.3930   32.2650   51.2470 C   0  0  0  0  0  0  0  0  0  0  0  0
   56.8539   32.8925   50.5220 H   0  0  0  0  0  0  0  0  0  0  0  0
   58.7920   32.1790   51.1910 C   0  0  0  0  0  0  0  0  0  0  0  0
   59.5040   32.9110   50.1790 N   0  0  0  0  0  0  0  0  0  0  0  0
   60.2470   33.5800   50.4840 H   0  0  0  0  0  0  0  0  0  0  0  0
   59.2030   32.8360   48.7760 C   0  0  0  0  0  0  0  0  0  0  0  0
   58.8980   31.5890   48.1530 C   0  0  0  0  0  0  0  0  0  0  0  0
   58.9320   30.3830   48.9250 N   0  0  0  0  0  0  0  0  0  0  0  0
   60.3660   29.4670   49.2850 S   0  0  0  0  0  0  0  0  0  0  0  0
   60.5620   28.4310   48.2120 O   0  0  0  0  0  0  0  0  0  0  0  0
   60.1730   28.7630   50.6010 O   0  0  0  0  0  0  0  0  0  0  0  0
   61.8090   30.4760   49.3930 C   0  0  0  0  0  0  0  0  0  0  0  0
   62.2110   31.2610   48.3020 C   0  0  0  0  0  0  0  0  0  0  0  0
   61.6538   31.2102   47.3549 H   0  0  0  0  0  0  0  0  0  0  0  0
   63.3170   32.1070   48.4150 C   0  0  0  0  0  0  0  0  0  0  0  0
   63.6197   32.7278   47.5589 H   0  0  0  0  0  0  0  0  0  0  0  0
   64.0440   32.1700   49.6130 C   0  0  0  0  0  0  0  0  0  0  0  0
   65.2070   33.1080   49.7390 C   0  0  0  0  0  0  0  0  0  0  0  0
   65.4236   33.2827   50.8032 H   0  0  0  0  0  0  0  0  0  0  0  0
   66.0892   32.6656   49.2531 H   0  0  0  0  0  0  0  0  0  0  0  0
   64.9615   34.0638   49.2531 H   0  0  0  0  0  0  0  0  0  0  0  0
   63.6370   31.3890   50.7060 C   0  0  0  0  0  0  0  0  0  0  0  0
   64.1911   31.4430   51.6547 H   0  0  0  0  0  0  0  0  0  0  0  0
   62.5290   30.5420   50.5930 C   0  0  0  0  0  0  0  0  0  0  0  0
   62.2218   29.9251   51.4504 H   0  0  0  0  0  0  0  0  0  0  0  0
   58.5850   31.5510   46.7770 C   0  0  0  0  0  0  0  0  0  0  0  0
   58.2676   30.6152   46.2938 H   0  0  0  0  0  0  0  0  0  0  0  0
   58.6900   32.7320   46.0510 C   0  0  0  0  0  0  0  0  0  0  0  0
   58.5520   33.0220   44.7130 C   0  0  0  0  0  0  0  0  0  0  0  0
   58.3170   32.0380   43.6040 C   0  0  0  0  0  0  0  0  0  0  0  0
   57.7243   32.5217   42.8136 H   0  0  0  0  0  0  0  0  0  0  0  0
   59.2919   31.7137   43.2110 H   0  0  0  0  0  0  0  0  0  0  0  0
   57.5760   30.8290   44.1040 C   0  0  0  0  0  0  0  0  0  0  0  0
   58.2860   29.7020   44.5540 C   0  0  0  0  0  0  0  0  0  0  0  0
   59.3852   29.6942   44.5134 H   0  0  0  0  0  0  0  0  0  0  0  0
   57.5990   28.5910   45.0530 C   0  0  0  0  0  0  0  0  0  0  0  0
   58.1588   27.7085   45.3961 H   0  0  0  0  0  0  0  0  0  0  0  0
   56.2020   28.5990   45.1170 C   0  0  0  0  0  0  0  0  0  0  0  0
   55.5210   27.4960   45.6170 O   0  0  0  0  0  0  0  0  0  0  0  0
   55.4900   29.7220   44.6810 C   0  0  0  0  0  0  0  0  0  0  0  0
   54.3913   29.7300   44.7333 H   0  0  0  0  0  0  0  0  0  0  0  0
   56.1730   30.8340   44.1790 C   0  0  0  0  0  0  0  0  0  0  0  0
   55.6096   31.7164   43.8414 H   0  0  0  0  0  0  0  0  0  0  0  0
   58.8410   34.3330   44.5320 N   0  0  0  0  0  0  0  0  0  0  0  0
   59.1290   34.8830   45.7080 N   0  0  0  0  0  0  0  0  0  0  0  0
   59.0420   33.9120   46.6330 C   0  0  0  0  0  0  0  0  0  0  0  0
   59.3010   34.0080   47.9950 C   0  0  0  0  0  0  0  0  0  0  0  0
   59.5748   34.9705   48.4519 H   0  0  0  0  0  0  0  0  0  0  0  0
   59.4670   31.3430   52.1010 C   0  0  0  0  0  0  0  0  0  0  0  0
   60.5617   31.2483   52.0489 H   0  0  0  0  0  0  0  0  0  0  0  0
   58.7530   30.6330   53.0700 C   0  0  0  0  0  0  0  0  0  0  0  0
   59.2880   29.9847   53.7796 H   0  0  0  0  0  0  0  0  0  0  0  0
   52.8220   30.4800   53.6300 S   0  0  0  0  0  0  0  0  0  0  0  0
   52.2520   30.9860   52.1310 C   0  0  0  0  0  0  0  0  0  0  0  0
   51.3332   31.5635   51.9509 H   0  0  0  0  0  0  0  0  0  0  0  0
  1  2  1  0
  2  3  1  0
  3  4  1  0
  4  5  2  0
  5  6  1  0
  6  7  2  0
  6  8  2  0
  6  9  1  0
  9 10  2  0
 10 11  1  0
 10 12  1  0
 12 13  1  0
 12 14  2  0
 14 15  1  0
 15 16  1  0
 15 17  1  0
 17 18  1  0
 18 19  1  0
 19 20  1  0
 20 21  2  0
 20 22  2  0
 20 23  1  0
 23 24  2  0
 24 25  1  0
 24 26  1  0
 26 27  1  0
 26 28  2  0
 28 29  1  0
 29 30  1  0
 29 31  1  0
 29 32  1  0
 28 33  1  0
 33 34  1  0
 33 35  2  0
 35 36  1  0
 18 37  2  0
 37 38  1  0
 37 39  1  0
 39 40  2  0
 40 41  1  0
 41 42  1  0
 41 43  1  0
 41 44  1  0
 44 45  2  0
 45 46  1  0
 45 47  1  0
 47 48  1  0
 47 49  2  0
 49 50  1  0
 49 51  1  0
 51 52  1  0
 51 53  2  0
 53 54  1  0
 40 55  1  0
 55 56  1  0
 56 57  2  0
 57 58  1  0
 58 59  1  0
 14 60  1  0
 60 61  1  0
 60 62  2  0
 62 63  1  0
  4 64  1  0
 64 65  1  0
 65 66  1  0
 65  2  2  0
 62  9  1  0
 58 17  2  0
 35 23  1  0
 57 39  1  0
 53 44  1  0
M  CHG  4   3  -1  19  -1  50  -1  55  -1
M  END
>  <UniqueID>  (79) 
75

>  <SMILES>  (79) 
Cc1ccc(S(=O)(=O)[N-]c2cc3c(Cc4ccc([O-])cc4)[n-]nc3cc2Nc2ccc(S(=O)(=O)/N=c3/[n-]ccs3)cc2)cc1

>  <Energy>  (79) 
158.19894250964356

>  <Genealogy>  (79) 
Cc1ccc(S(=O)(=O)[N-]c2cc3c(Cc4ccc([O-])cc4)[n-]nc3cc2Nc2ccc(S(=O)(=O)N=c3[n-]ccs3)cc2)cc1 (protonated)
Cc1ccc(S(=O)(=O)[N-]c2cc3c(Cc4ccc([O-])cc4)[n-]nc3cc2Nc2ccc(S(=O)(=O)/N=c3/[n-]ccs3)cc2)cc1 (cis-trans isomerization)
Cc1ccc(S(=O)(=O)[N-]c2cc3c(Cc4ccc([O-])cc4)[n-]nc3cc2Nc2ccc(S(=O)(=O)/N=c3/[n-]ccs3)cc2)cc1 (3D coordinates assigned)
Cc1ccc(S(=O)(=O)[N-]c2cc3c(Cc4ccc([O-])cc4)[n-]nc3cc2Nc2ccc(S(=O)(=O)/N=c3/[n-]ccs3)cc2)cc1 (optimized conformer: 158.19894250964356 kcal/mol)

>  <smiles>  (79) 
Cc1ccc(S(=O)(=O)Nc2cc3c(Cc4ccc(O)cc4)[nH]nc3cc2Nc2ccc(S(=O)(=O)N=c3[nH]ccs3)cc2)cc1

>  <score_type>  (79) 
oracle

>  <origin>  (79) 
adg

>  <m_score__min__energy>  (79) 
-17.510000000000002

>  <m_primary>  (79) 
energy

$$$$
79:0
     RDKit          3D

 41 43  0  0  0  0  0  0  0  0999 V2000
   56.6259   23.1937   46.4258 H   0  0  0  0  0  0  0  0  0  0  0  0
   56.2850   24.2200   46.6270 C   0  0  0  0  0  0  0  0  0  0  0  0
   56.5630   24.7550   47.6880 O   0  0  0  0  0  0  0  0  0  0  0  0
   55.4840   24.9520   45.6000 C   0  0  0  0  0  0  0  0  0  0  0  0
   55.9937   24.8920   44.6270 H   0  0  0  0  0  0  0  0  0  0  0  0
   54.4861   24.4958   45.5214 H   0  0  0  0  0  0  0  0  0  0  0  0
   55.3480   26.3520   45.9920 N   0  0  0  0  0  0  0  0  0  0  0  0
   56.2540   27.2600   45.7770 C   0  0  0  0  0  0  0  0  0  0  0  0
   55.9180   28.4630   45.2350 N   0  0  0  0  0  0  0  0  0  0  0  0
   56.8660   29.4060   45.0120 C   0  0  0  0  0  0  0  0  0  0  0  0
   56.5230   30.5460   44.4950 N   0  0  0  0  0  0  0  0  0  0  0  0
   57.4230   31.3930   43.7180 C   0  0  0  0  0  0  0  0  0  0  0  0
   58.3269   30.8240   43.4549 H   0  0  0  0  0  0  0  0  0  0  0  0
   56.9169   31.7207   42.7980 H   0  0  0  0  0  0  0  0  0  0  0  0
   57.8040   32.5860   44.5300 C   0  0  0  0  0  0  0  0  0  0  0  0
   58.8620   33.3260   44.2980 O   0  0  0  0  0  0  0  0  0  0  0  0
   58.9190   34.2700   45.2090 C   0  0  0  0  0  0  0  0  0  0  0  0
   59.6969   35.0454   45.2697 H   0  0  0  0  0  0  0  0  0  0  0  0
   57.8550   34.1420   46.0790 C   0  0  0  0  0  0  0  0  0  0  0  0
   57.6284   34.7820   46.9444 H   0  0  0  0  0  0  0  0  0  0  0  0
   57.1340   33.0510   45.6450 C   0  0  0  0  0  0  0  0  0  0  0  0
   56.2180   32.6375   46.0921 H   0  0  0  0  0  0  0  0  0  0  0  0
   58.1610   29.1440   45.3320 N   0  0  0  0  0  0  0  0  0  0  0  0
   58.5090   27.9450   45.8730 C   0  0  0  0  0  0  0  0  0  0  0  0
   59.7460   27.6900   46.1800 N   0  0  0  0  0  0  0  0  0  0  0  0
   60.3710   28.0740   47.4430 C   0  0  0  0  0  0  0  0  0  0  0  0
   59.8969   27.5244   48.2695 H   0  0  0  0  0  0  0  0  0  0  0  0
   61.4436   27.8319   47.4116 H   0  0  0  0  0  0  0  0  0  0  0  0
   60.1950   29.5490   47.6560 C   0  0  0  0  0  0  0  0  0  0  0  0
   60.9880   30.4680   46.9480 C   0  0  0  0  0  0  0  0  0  0  0  0
   61.7612   30.1048   46.2550 H   0  0  0  0  0  0  0  0  0  0  0  0
   60.7980   31.8420   47.1210 C   0  0  0  0  0  0  0  0  0  0  0  0
   61.4267   32.5571   46.5702 H   0  0  0  0  0  0  0  0  0  0  0  0
   59.8090   32.3090   47.9940 C   0  0  0  0  0  0  0  0  0  0  0  0
   59.6638   33.3905   48.1330 H   0  0  0  0  0  0  0  0  0  0  0  0
   59.0060   31.4010   48.6890 C   0  0  0  0  0  0  0  0  0  0  0  0
   58.2253   31.7687   49.3711 H   0  0  0  0  0  0  0  0  0  0  0  0
   59.1930   30.0260   48.5190 C   0  0  0  0  0  0  0  0  0  0  0  0
   58.5537   29.3147   49.0625 H   0  0  0  0  0  0  0  0  0  0  0  0
   57.5520   27.0040   46.0940 N   0  0  0  0  0  0  0  0  0  0  0  0
   57.8150   26.0810   46.5090 H   0  0  0  0  0  0  0  0  0  0  0  0
  1  2  1  0
  2  3  2  0
  2  4  1  0
  4  5  1  0
  4  6  1  0
  4  7  1  0
  7  8  2  0
  8  9  1  0
  9 10  1  0
 10 11  2  3
 11 12  1  0
 12 13  1  0
 12 14  1  0
 12 15  1  0
 15 16  1  0
 16 17  1  0
 17 18  1  0
 17 19  2  0
 19 20  1  0
 19 21  1  0
 21 22  1  0
 10 23  1  0
 23 24  1  0
 24 25  2  0
 25 26  1  0
 26 27  1  0
 26 28  1  0
 26 29  1  0
 29 30  2  0
 30 31  1  0
 30 32  1  0
 32 33  1  0
 32 34  2  0
 34 35  1  0
 34 36  1  0
 36 37  1  0
 36 38  2  0
 38 39  1  0
 24 40  1  0
 40 41  1  0
 40  8  1  0
 21 15  2  0
 38 29  1  0
M  CHG  2   9  -1  23  -1
M  END
>  <UniqueID>  (80) 
76

>  <SMILES>  (80) 
O=CC/N=c1\[n-]c(=NCc2ccco2)[n-]/c(=N\Cc2ccccc2)[nH]1

>  <Energy>  (80) 
63.33941654016319

>  <Genealogy>  (80) 
O=CCN=c1[n-]c(=NCc2ccco2)[n-]c(=NCc2ccccc2)[nH]1 (protonated)
O=CC/N=c1\[n-]c(=NCc2ccco2)[n-]/c(=N\Cc2ccccc2)[nH]1 (cis-trans isomerization)
O=CC/N=c1\[n-]c(=NCc2ccco2)[n-]/c(=N\Cc2ccccc2)[nH]1 (3D coordinates assigned)
O=CC/N=c1\[n-]c(=NCc2ccco2)[n-]/c(=N\Cc2ccccc2)[nH]1 (optimized conformer: 63.33941654016319 kcal/mol)

>  <smiles>  (80) 
O=CCN=c1[nH]c(=NCc2ccccc2)[nH]c(=NCc2ccco2)[nH]1

>  <score_type>  (80) 
oracle

>  <origin>  (80) 
adg

>  <m_score__min__energy>  (80) 
-10.43

>  <m_primary>  (80) 
energy

$$$$
80:0
     RDKit          3D

 58 62  0  0  0  0  0  0  0  0999 V2000
   53.2722   25.4022   46.1598 H   0  0  0  0  0  0  0  0  0  0  0  0
   54.0740   24.8650   45.6320 C   0  0  0  0  0  0  0  0  0  0  0  0
   55.3910   25.0870   45.8890 N   0  0  0  0  0  0  0  0  0  0  0  0
   56.1870   24.3100   45.1260 C   0  0  0  0  0  0  0  0  0  0  0  0
   57.4820   24.3500   45.2100 N   0  0  0  0  0  0  0  0  0  0  0  0
   58.3620   25.3350   46.3330 S   0  0  0  0  0  0  0  0  0  0  0  0
   57.8100   25.1470   47.7180 O   0  0  0  0  0  0  0  0  0  0  0  0
   59.8050   24.9120   46.3350 O   0  0  0  0  0  0  0  0  0  0  0  0
   58.2620   27.0230   45.8390 C   0  0  0  0  0  0  0  0  0  0  0  0
   58.8000   28.0350   46.6410 C   0  0  0  0  0  0  0  0  0  0  0  0
   59.3161   27.7745   47.5768 H   0  0  0  0  0  0  0  0  0  0  0  0
   58.6860   29.3740   46.2610 C   0  0  0  0  0  0  0  0  0  0  0  0
   59.1020   30.1617   46.9063 H   0  0  0  0  0  0  0  0  0  0  0  0
   58.0420   29.7240   45.0570 C   0  0  0  0  0  0  0  0  0  0  0  0
   57.9010   31.0680   44.6360 C   0  0  0  0  0  0  0  0  0  0  0  0
   58.4920   32.1580   45.3620 N   0  0  0  0  0  0  0  0  0  0  0  0
   59.5830   32.0510   46.1040 N   0  0  0  0  0  0  0  0  0  0  0  0
   59.8630   33.2820   46.5730 C   0  0  0  0  0  0  0  0  0  0  0  0
   60.9780   33.5730   47.4270 N   0  0  0  0  0  0  0  0  0  0  0  0
   60.8490   34.2750   48.6920 C   0  0  0  0  0  0  0  0  0  0  0  0
   60.0907   33.7911   49.3251 H   0  0  0  0  0  0  0  0  0  0  0  0
   60.5287   35.3178   48.5504 H   0  0  0  0  0  0  0  0  0  0  0  0
   62.2230   34.1880   49.3450 C   0  0  0  0  0  0  0  0  0  0  0  0
   62.2484   33.3754   50.0859 H   0  0  0  0  0  0  0  0  0  0  0  0
   62.4850   35.1115   49.8822 H   0  0  0  0  0  0  0  0  0  0  0  0
   63.1910   33.8970   48.1920 C   0  0  1  0  0  0  0  0  0  0  0  0
   63.6231   34.8279   47.7961 H   0  0  0  0  0  0  0  0  0  0  0  0
   64.4650   33.1340   48.6070 C   0  0  0  0  0  0  0  0  0  0  0  0
   65.3459   33.7116   48.2900 H   0  0  0  0  0  0  0  0  0  0  0  0
   64.4467   32.1464   48.1230 H   0  0  0  0  0  0  0  0  0  0  0  0
   64.5270   32.9290   50.0760 N   0  0  0  0  0  0  0  0  0  0  0  0
   63.9840   31.6150   50.4590 C   0  0  0  0  0  0  0  0  0  0  0  0
   63.9518   31.5371   51.5558 H   0  0  0  0  0  0  0  0  0  0  0  0
   62.9672   31.5062   50.0537 H   0  0  0  0  0  0  0  0  0  0  0  0
   64.6273   30.8201   50.0537 H   0  0  0  0  0  0  0  0  0  0  0  0
   65.9070   33.0530   50.5760 C   0  0  0  0  0  0  0  0  0  0  0  0
   65.8999   33.0524   51.6760 H   0  0  0  0  0  0  0  0  0  0  0  0
   66.5062   32.2051   50.2127 H   0  0  0  0  0  0  0  0  0  0  0  0
   66.3454   33.9942   50.2127 H   0  0  0  0  0  0  0  0  0  0  0  0
   62.3480   33.1900   47.1290 C   0  0  0  0  0  0  0  0  0  0  0  0
   62.4697   32.0991   47.2003 H   0  0  0  0  0  0  0  0  0  0  0  0
   62.6453   33.4716   46.1081 H   0  0  0  0  0  0  0  0  0  0  0  0
   58.9400   34.1980   46.1040 C   0  0  0  0  0  0  0  0  0  0  0  0
   58.8976   35.2790   46.3032 H   0  0  0  0  0  0  0  0  0  0  0  0
   58.0850   33.4440   45.3290 C   0  0  0  0  0  0  0  0  0  0  0  0
   57.2151   33.8272   44.7754 H   0  0  0  0  0  0  0  0  0  0  0  0
   57.1800   31.3430   43.4650 C   0  0  0  0  0  0  0  0  0  0  0  0
   57.0394   32.3840   43.1386 H   0  0  0  0  0  0  0  0  0  0  0  0
   56.6420   30.3010   42.7150 C   0  0  0  0  0  0  0  0  0  0  0  0
   56.0841   30.5222   41.7932 H   0  0  0  0  0  0  0  0  0  0  0  0
   56.8020   29.0120   43.1150 N   0  0  0  0  0  0  0  0  0  0  0  0
   56.3840   28.2570   42.5250 H   0  0  0  0  0  0  0  0  0  0  0  0
   57.4780   28.6970   44.2580 C   0  0  0  0  0  0  0  0  0  0  0  0
   57.6000   27.3560   44.6540 C   0  0  0  0  0  0  0  0  0  0  0  0
   57.1711   26.5607   44.0266 H   0  0  0  0  0  0  0  0  0  0  0  0
   55.2880   23.3190   44.0970 S   0  0  0  0  0  0  0  0  0  0  0  0
   53.8130   23.9110   44.6550 C   0  0  0  0  0  0  0  0  0  0  0  0
   52.8176   23.5976   44.3072 H   0  0  0  0  0  0  0  0  0  0  0  0
  1  2  1  0
  2  3  1  0
  3  4  1  0
  4  5  2  0
  5  6  1  0
  6  7  2  0
  6  8  2  0
  6  9  1  0
  9 10  2  0
 10 11  1  0
 10 12  1  0
 12 13  1  0
 12 14  2  0
 14 15  1  0
 15 16  1  0
 16 17  1  0
 17 18  2  0
 18 19  1  0
 19 20  1  0
 20 21  1  0
 20 22  1  0
 20 23  1  0
 23 24  1  0
 23 25  1  0
 23 26  1  0
 26 27  1  6
 26 28  1  0
 28 29  1  0
 28 30  1  0
 28 31  1  0
 31 32  1  0
 32 33  1  0
 32 34  1  0
 32 35  1  0
 31 36  1  0
 36 37  1  0
 36 38  1  0
 36 39  1  0
 26 40  1  0
 40 41  1  0
 40 42  1  0
 18 43  1  0
 43 44  1  0
 43 45  2  0
 45 46  1  0
 15 47  2  0
 47 48  1  0
 47 49  1  0
 49 50  1  0
 49 51  2  0
 51 52  1  0
 51 53  1  0
 53 54  2  0
 54 55  1  0
  4 56  1  0
 56 57  1  0
 57 58  1  0
 57  2  2  0
 54  9  1  0
 53 14  1  0
 45 16  1  0
 40 19  1  0
M  CHG  2   3  -1  51   1
M  END
>  <UniqueID>  (81) 
77

>  <SMILES>  (81) 
CN(C)C[C@@H]1CCN(c2ccn(-c3cc[nH+]c4cc(S(=O)(=O)/N=c5/[n-]ccs5)ccc34)n2)C1

>  <Energy>  (81) 
138.19605451593654

>  <Genealogy>  (81) 
CN(C)CC1CCN(c2ccn(-c3cc[nH+]c4cc(S(=O)(=O)N=c5[n-]ccs5)ccc34)n2)C1 (protonated)
CN(C)C[C@@H]1CCN(c2ccn(-c3cc[nH+]c4cc(S(=O)(=O)N=c5[n-]ccs5)ccc34)n2)C1 (chirality)
CN(C)C[C@@H]1CCN(c2ccn(-c3cc[nH+]c4cc(S(=O)(=O)/N=c5/[n-]ccs5)ccc34)n2)C1 (cis-trans isomerization)
CN(C)C[C@@H]1CCN(c2ccn(-c3cc[nH+]c4cc(S(=O)(=O)/N=c5/[n-]ccs5)ccc34)n2)C1 (3D coordinates assigned)
CN(C)C[C@@H]1CCN(c2ccn(-c3cc[nH+]c4cc(S(=O)(=O)/N=c5/[n-]ccs5)ccc34)n2)C1 (nonaromatic ring conformer: 138.19605451593654 kcal/mol)

>  <smiles>  (81) 
CN(C)CC1CCN(c2ccn(-c3ccnc4cc(S(=O)(=O)N=c5[nH]ccs5)ccc34)n2)C1

>  <score_type>  (81) 
oracle

>  <origin>  (81) 
adg

>  <m_score__min__energy>  (81) 
-10.16

>  <m_primary>  (81) 
energy

$$$$
81:0
     RDKit          3D

 45 48  0  0  0  0  0  0  0  0999 V2000
   55.5430   26.1820   45.9920 O   0  0  0  0  0  0  0  0  0  0  0  0
   56.4680   25.1240   46.5220 S   0  0  0  0  0  0  0  0  0  0  0  0
   55.8130   24.4550   47.6980 O   0  0  0  0  0  0  0  0  0  0  0  0
   57.9620   25.8720   47.0180 N   0  0  0  0  0  0  0  0  0  0  0  0
   58.8650   26.0840   45.8830 C   0  0  0  0  0  0  0  0  0  0  0  0
   58.5280   27.3460   45.1420 C   0  0  0  0  0  0  0  0  0  0  0  0
   57.3950   27.4810   44.4010 N   0  0  0  0  0  0  0  0  0  0  0  0
   57.4170   28.7590   43.9920 C   0  0  0  0  0  0  0  0  0  0  0  0
   56.4730   29.4590   43.2510 C   0  0  0  0  0  0  0  0  0  0  0  0
   56.7280   30.8220   43.0130 C   0  0  0  0  0  0  0  0  0  0  0  0
   57.9030   31.4190   43.5290 C   0  0  0  0  0  0  0  0  0  0  0  0
   58.7940   30.6830   44.2610 N   0  0  0  0  0  0  0  0  0  0  0  0
   58.5340   29.3680   44.4710 C   0  0  0  0  0  0  0  0  0  0  0  0
   59.2520   28.5000   45.2050 N   0  0  0  0  0  0  0  0  0  0  0  0
   60.5200   28.7550   45.8910 C   0  0  0  0  0  0  0  0  0  0  0  0
   60.3180   29.7350   47.0150 C   0  0  0  0  0  0  0  0  0  0  0  0
   61.1180   30.8860   47.0980 C   0  0  0  0  0  0  0  0  0  0  0  0
   60.9440   31.7910   48.1490 C   0  0  0  0  0  0  0  0  0  0  0  0
   59.9700   31.5550   49.1230 C   0  0  0  0  0  0  0  0  0  0  0  0
   59.1680   30.4130   49.0470 C   0  0  0  0  0  0  0  0  0  0  0  0
   58.2240   30.1840   49.9920 F   0  0  0  0  0  0  0  0  0  0  0  0
   59.3400   29.5040   47.9970 C   0  0  0  0  0  0  0  0  0  0  0  0
   56.7790   23.9540   45.2420 C   0  0  0  0  0  0  0  0  0  0  0  0
   56.1900   24.0980   43.9770 C   0  0  0  0  0  0  0  0  0  0  0  0
   56.3980   23.1290   42.9910 C   0  0  0  0  0  0  0  0  0  0  0  0
   57.1980   22.0150   43.2610 C   0  0  0  0  0  0  0  0  0  0  0  0
   57.7990   21.8730   44.5150 C   0  0  0  0  0  0  0  0  0  0  0  0
   57.5940   22.8420   45.5030 C   0  0  0  0  0  0  0  0  0  0  0  0
   59.8977   26.1528   46.2555 H   0  0  0  0  0  0  0  0  0  0  0  0
   58.7550   25.2364   45.1905 H   0  0  0  0  0  0  0  0  0  0  0  0
   56.6540   26.7670   44.2260 H   0  0  0  0  0  0  0  0  0  0  0  0
   55.5660   28.9691   42.8672 H   0  0  0  0  0  0  0  0  0  0  0  0
   56.0160   31.4221   42.4274 H   0  0  0  0  0  0  0  0  0  0  0  0
   58.1015   32.4843   43.3397 H   0  0  0  0  0  0  0  0  0  0  0  0
   60.9083   27.8101   46.2988 H   0  0  0  0  0  0  0  0  0  0  0  0
   61.2370   29.1781   45.1720 H   0  0  0  0  0  0  0  0  0  0  0  0
   61.8849   31.0763   46.3327 H   0  0  0  0  0  0  0  0  0  0  0  0
   61.5746   32.6902   48.2095 H   0  0  0  0  0  0  0  0  0  0  0  0
   59.8346   32.2681   49.9495 H   0  0  0  0  0  0  0  0  0  0  0  0
   58.7075   28.6058   47.9403 H   0  0  0  0  0  0  0  0  0  0  0  0
   55.5630   24.9755   43.7604 H   0  0  0  0  0  0  0  0  0  0  0  0
   55.9315   23.2434   42.0014 H   0  0  0  0  0  0  0  0  0  0  0  0
   57.3547   21.2499   42.4864 H   0  0  0  0  0  0  0  0  0  0  0  0
   58.4333   20.9992   44.7250 H   0  0  0  0  0  0  0  0  0  0  0  0
   58.0730   22.7319   46.4871 H   0  0  0  0  0  0  0  0  0  0  0  0
  1  2  2  0
  2  3  2  0
  2  4  1  0
  4  5  1  0
  5  6  1  0
  6  7  2  0
  7  8  1  0
  8  9  2  0
  9 10  1  0
 10 11  2  0
 11 12  1  0
 12 13  2  0
 13 14  1  0
 14 15  1  0
 15 16  1  0
 16 17  2  0
 17 18  1  0
 18 19  2  0
 19 20  1  0
 20 21  1  0
 20 22  2  0
  2 23  1  0
 23 24  2  0
 24 25  1  0
 25 26  2  0
 26 27  1  0
 27 28  2  0
 14  6  1  0
 22 16  1  0
 28 23  1  0
 13  8  1  0
  5 29  1  0
  5 30  1  0
  7 31  1  0
  9 32  1  0
 10 33  1  0
 11 34  1  0
 15 35  1  0
 15 36  1  0
 17 37  1  0
 18 38  1  0
 19 39  1  0
 22 40  1  0
 24 41  1  0
 25 42  1  0
 26 43  1  0
 27 44  1  0
 28 45  1  0
M  CHG  2   4  -1   7   1
M  END
>  <UniqueID>  (82) 
78

>  <SMILES>  (82) 
O=S(=O)([N-]Cc1[nH+]c2cccnc2n1Cc1cccc(F)c1)c1ccccc1

>  <Energy>  (82) 
83.0101485165502

>  <Genealogy>  (82) 
O=S(=O)([N-]Cc1[nH+]c2cccnc2n1Cc1cccc(F)c1)c1ccccc1 (protonated)
O=S(=O)([N-]Cc1[nH+]c2cccnc2n1Cc1cccc(F)c1)c1ccccc1 (3D coordinates assigned)
O=S(=O)([N-]Cc1[nH+]c2cccnc2n1Cc1cccc(F)c1)c1ccccc1 (optimized conformer: 83.0101485165502 kcal/mol)

>  <smiles>  (82) 
O=S(=O)(NCc1nc2cccnc2n1Cc1cccc(F)c1)c1ccccc1

>  <score_type>  (82) 
oracle

>  <origin>  (82) 
adg

>  <m_score__min__energy>  (82) 
-8.5500000000000007

>  <m_primary>  (82) 
energy

$$$$
82:0
     RDKit          3D

 30 32  0  0  0  0  0  0  0  0999 V2000
   57.6408   32.2603   42.1559 H   0  0  0  0  0  0  0  0  0  0  0  0
   57.4490   31.4770   42.9040 C   0  0  0  0  0  0  0  0  0  0  0  0
   56.5930   30.4150   42.6010 C   0  0  0  0  0  0  0  0  0  0  0  0
   56.1194   30.3575   41.6098 H   0  0  0  0  0  0  0  0  0  0  0  0
   56.3370   29.4250   43.5550 C   0  0  0  0  0  0  0  0  0  0  0  0
   55.6730   28.5837   43.3076 H   0  0  0  0  0  0  0  0  0  0  0  0
   56.9270   29.5020   44.8320 C   0  0  0  0  0  0  0  0  0  0  0  0
   56.7190   28.4900   45.8320 N   0  0  0  0  0  0  0  0  0  0  0  0
   56.5990   27.2110   45.6290 C   0  0  0  0  0  0  0  0  0  0  0  0
   57.5290   26.4500   44.9890 N   0  0  0  0  0  0  0  0  0  0  0  0
   56.9490   25.2380   45.0100 C   0  0  0  0  0  0  0  0  0  0  0  0
   57.4460   24.0450   44.4930 C   0  0  0  0  0  0  0  0  0  0  0  0
   58.4246   24.0065   43.9921 H   0  0  0  0  0  0  0  0  0  0  0  0
   56.6520   22.8860   44.6330 C   0  0  0  0  0  0  0  0  0  0  0  0
   57.2150   21.3500   43.9850 S   0  0  0  0  0  0  0  0  0  0  0  0
   58.5940   21.5160   43.4110 O   0  0  0  0  0  0  0  0  0  0  0  0
   56.2920   20.8890   42.8910 O   0  0  0  0  0  0  0  0  0  0  0  0
   57.2530   20.1660   45.2430 N   0  0  0  0  0  0  0  0  0  0  0  0
   56.9930   19.2520   44.8090 H   0  0  0  0  0  0  0  0  0  0  0  0
   58.2480   20.0810   45.5510 H   0  0  0  0  0  0  0  0  0  0  0  0
   55.3880   22.9650   45.2730 C   0  0  0  0  0  0  0  0  0  0  0  0
   54.7689   22.0611   45.3714 H   0  0  0  0  0  0  0  0  0  0  0  0
   54.9200   24.1910   45.7830 C   0  0  0  0  0  0  0  0  0  0  0  0
   53.9441   24.2647   46.2853 H   0  0  0  0  0  0  0  0  0  0  0  0
   55.7380   25.3060   45.6280 C   0  0  0  0  0  0  0  0  0  0  0  0
   55.5260   26.5370   46.0080 O   0  0  0  0  0  0  0  0  0  0  0  0
   57.8080   30.5540   45.1150 C   0  0  0  0  0  0  0  0  0  0  0  0
   58.3039   30.6028   46.0957 H   0  0  0  0  0  0  0  0  0  0  0  0
   58.0610   31.5430   44.1580 C   0  0  0  0  0  0  0  0  0  0  0  0
   58.7427   32.3736   44.3935 H   0  0  0  0  0  0  0  0  0  0  0  0
  1  2  1  0
  2  3  2  0
  3  4  1  0
  3  5  1  0
  5  6  1  0
  5  7  2  0
  7  8  1  0
  8  9  2  0
  9 10  1  0
 10 11  1  0
 11 12  2  0
 12 13  1  0
 12 14  1  0
 14 15  1  0
 15 16  2  0
 15 17  2  0
 15 18  1  0
 18 19  1  0
 18 20  1  0
 14 21  2  0
 21 22  1  0
 21 23  1  0
 23 24  1  0
 23 25  2  0
 25 26  1  0
  7 27  1  0
 27 28  1  0
 27 29  2  0
 29 30  1  0
 29  2  1  0
 26  9  1  0
 25 11  1  0
M  CHG  1  10  -1
M  END
>  <UniqueID>  (83) 
79

>  <SMILES>  (83) 
NS(=O)(=O)c1ccc2o/c(=N/c3ccccc3)[n-]c2c1

>  <Energy>  (83) 
74.79942007338457

>  <Genealogy>  (83) 
NS(=O)(=O)c1ccc2oc(=Nc3ccccc3)[n-]c2c1 (protonated)
NS(=O)(=O)c1ccc2o/c(=N/c3ccccc3)[n-]c2c1 (cis-trans isomerization)
NS(=O)(=O)c1ccc2o/c(=N/c3ccccc3)[n-]c2c1 (3D coordinates assigned)
NS(=O)(=O)c1ccc2o/c(=N/c3ccccc3)[n-]c2c1 (optimized conformer: 74.79942007338457 kcal/mol)

>  <smiles>  (83) 
NS(=O)(=O)c1ccc2oc(=Nc3ccccc3)[nH]c2c1

>  <score_type>  (83) 
oracle

>  <origin>  (83) 
adg

>  <m_score__min__energy>  (83) 
-9.4600000000000009

>  <m_primary>  (83) 
energy

$$$$
83:0
     RDKit          3D

 41 42  0  0  0  0  0  0  0  0999 V2000
   63.2184   34.1110   47.9012 H   0  0  0  0  0  0  0  0  0  0  0  0
   62.2780   33.5680   48.0770 C   0  0  0  0  0  0  0  0  0  0  0  0
   62.3460   32.1550   48.5060 C   0  0  0  0  0  0  0  0  0  0  0  0
   63.2810   31.8160   49.2790 O   0  0  0  0  0  0  0  0  0  0  0  0
   61.3610   31.1320   48.0810 C   0  0  0  0  0  0  0  0  0  0  0  0
   61.3220   30.6690   46.7540 C   0  0  0  0  0  0  0  0  0  0  0  0
   62.0425   31.0575   46.0192 H   0  0  0  0  0  0  0  0  0  0  0  0
   60.3750   29.7190   46.3610 C   0  0  0  0  0  0  0  0  0  0  0  0
   60.3687   29.3490   45.3251 H   0  0  0  0  0  0  0  0  0  0  0  0
   59.4310   29.2340   47.2820 C   0  0  0  0  0  0  0  0  0  0  0  0
   58.4610   28.2390   46.9110 N   0  0  0  0  0  0  0  0  0  0  0  0
   57.5780   28.5610   46.4550 H   0  0  0  0  0  0  0  0  0  0  0  0
   58.6740   26.8230   47.0220 C   0  0  0  0  0  0  0  0  0  0  0  0
   59.8300   26.3600   47.2240 O   0  0  0  0  0  0  0  0  0  0  0  0
   57.5370   25.8810   46.8000 C   0  0  0  0  0  0  0  0  0  0  0  0
   57.1390   25.5513   47.7710 H   0  0  0  0  0  0  0  0  0  0  0  0
   56.7442   26.3905   46.2327 H   0  0  0  0  0  0  0  0  0  0  0  0
   57.8902   25.0072   46.2327 H   0  0  0  0  0  0  0  0  0  0  0  0
   59.4720   29.6930   48.6070 C   0  0  0  0  0  0  0  0  0  0  0  0
   58.7539   29.3014   49.3425 H   0  0  0  0  0  0  0  0  0  0  0  0
   60.4180   30.6440   49.0000 C   0  0  0  0  0  0  0  0  0  0  0  0
   60.4238   31.0127   50.0364 H   0  0  0  0  0  0  0  0  0  0  0  0
   61.1180   34.2160   47.8930 C   0  0  0  0  0  0  0  0  0  0  0  0
   61.0048   35.2122   48.3456 H   0  0  0  0  0  0  0  0  0  0  0  0
   59.9790   33.6700   47.1160 C   0  0  0  0  0  0  0  0  0  0  0  0
   58.8610   33.1840   47.8140 C   0  0  0  0  0  0  0  0  0  0  0  0
   58.8481   33.2202   48.9133 H   0  0  0  0  0  0  0  0  0  0  0  0
   57.7650   32.6550   47.1270 C   0  0  0  0  0  0  0  0  0  0  0  0
   56.8989   32.2739   47.6879 H   0  0  0  0  0  0  0  0  0  0  0  0
   57.7650   32.6080   45.7240 C   0  0  0  0  0  0  0  0  0  0  0  0
   56.6710   32.0420   44.9880 N   0  0  0  0  0  0  0  0  0  0  0  0
   56.5970   30.7160   44.4470 C   0  0  0  0  0  0  0  0  0  0  0  0
   56.2870   29.7640   45.2100 O   0  0  0  0  0  0  0  0  0  0  0  0
   56.9190   30.4220   43.0140 C   0  0  0  0  0  0  0  0  0  0  0  0
   57.7305   29.6810   42.9651 H   0  0  0  0  0  0  0  0  0  0  0  0
   56.0259   30.0213   42.5123 H   0  0  0  0  0  0  0  0  0  0  0  0
   57.2371   31.3478   42.5123 H   0  0  0  0  0  0  0  0  0  0  0  0
   58.8940   33.0460   45.0250 C   0  0  0  0  0  0  0  0  0  0  0  0
   58.9191   32.9709   43.9279 H   0  0  0  0  0  0  0  0  0  0  0  0
   59.9920   33.5790   45.7090 C   0  0  0  0  0  0  0  0  0  0  0  0
   60.8700   33.9289   45.1462 H   0  0  0  0  0  0  0  0  0  0  0  0
  1  2  1  0
  2  3  1  0
  3  4  2  0
  3  5  1  0
  5  6  2  0
  6  7  1  0
  6  8  1  0
  8  9  1  0
  8 10  2  0
 10 11  1  0
 11 12  1  0
 11 13  1  0
 13 14  2  0
 13 15  1  0
 15 16  1  0
 15 17  1  0
 15 18  1  0
 10 19  1  0
 19 20  1  0
 19 21  2  0
 21 22  1  0
  2 23  2  0
 23 24  1  0
 23 25  1  0
 25 26  2  0
 26 27  1  0
 26 28  1  0
 28 29  1  0
 28 30  2  0
 30 31  1  0
 31 32  1  0
 32 33  2  0
 32 34  1  0
 34 35  1  0
 34 36  1  0
 34 37  1  0
 30 38  1  0
 38 39  1  0
 38 40  2  0
 40 41  1  0
 21  5  1  0
 40 25  1  0
M  CHG  1  31  -1
M  END
>  <UniqueID>  (84) 
80

>  <SMILES>  (84) 
CC(=O)[N-]c1ccc(/C=C/C(=O)c2ccc(NC(C)=O)cc2)cc1

>  <Energy>  (84) 
53.288590798678904

>  <Genealogy>  (84) 
CC(=O)[N-]c1ccc(C=CC(=O)c2ccc(NC(C)=O)cc2)cc1 (protonated)
CC(=O)[N-]c1ccc(/C=C/C(=O)c2ccc(NC(C)=O)cc2)cc1 (cis-trans isomerization)
CC(=O)[N-]c1ccc(/C=C/C(=O)c2ccc(NC(C)=O)cc2)cc1 (3D coordinates assigned)
CC(=O)[N-]c1ccc(/C=C/C(=O)c2ccc(NC(C)=O)cc2)cc1 (optimized conformer: 53.288590798678904 kcal/mol)

>  <smiles>  (84) 
CC(=O)Nc1ccc(C=CC(=O)c2ccc(NC(C)=O)cc2)cc1

>  <score_type>  (84) 
oracle

>  <origin>  (84) 
adg

>  <m_score__min__energy>  (84) 
-10.789999999999999

>  <m_primary>  (84) 
energy

$$$$
84:0
     RDKit          3D

 50 52  0  0  0  0  0  0  0  0999 V2000
   51.0370   22.5090   46.8520 C   0  0  0  0  0  0  0  0  0  0  0  0
   51.8790   22.4530   45.6120 C   0  0  0  0  0  0  0  0  0  0  0  0
   51.3250   22.6210   44.4930 O   0  0  0  0  0  0  0  0  0  0  0  0
   53.2860   22.1680   45.6520 N   0  0  0  0  0  0  0  0  0  0  0  0
   54.3610   23.1180   45.6180 C   0  0  0  0  0  0  0  0  0  0  0  0
   54.9330   23.5460   44.4070 C   0  0  0  0  0  0  0  0  0  0  0  0
   55.9960   24.4550   44.4120 C   0  0  0  0  0  0  0  0  0  0  0  0
   56.5190   24.9230   45.6260 C   0  0  0  0  0  0  0  0  0  0  0  0
   57.8590   26.0640   45.6150 S   0  0  0  0  0  0  0  0  0  0  0  0
   59.1370   25.3070   45.3850 O   0  0  0  0  0  0  0  0  0  0  0  0
   57.9580   26.7910   46.9270 O   0  0  0  0  0  0  0  0  0  0  0  0
   57.6410   27.2180   44.3380 N   0  0  0  0  0  0  0  0  0  0  0  0
   57.7350   28.6440   44.5120 C   0  0  0  0  0  0  0  0  0  0  0  0
   58.8450   29.1770   45.1850 C   0  0  0  0  0  0  0  0  0  0  0  0
   58.9610   30.5550   45.3920 C   0  0  0  0  0  0  0  0  0  0  0  0
   57.9620   31.4210   44.9270 C   0  0  0  0  0  0  0  0  0  0  0  0
   58.0680   33.1520   45.2280 S   0  0  0  0  0  0  0  0  0  0  0  0
   56.6800   33.7290   45.2480 O   0  0  0  0  0  0  0  0  0  0  0  0
   58.8670   33.8350   44.1520 O   0  0  0  0  0  0  0  0  0  0  0  0
   58.8280   33.4330   46.7620 N   0  0  0  0  0  0  0  0  0  0  0  0
   60.2050   33.1600   47.0720 C   0  0  0  0  0  0  0  0  0  0  0  0
   61.2530   33.8560   46.4390 C   0  0  0  0  0  0  0  0  0  0  0  0
   62.5850   33.5650   46.7480 C   0  0  0  0  0  0  0  0  0  0  0  0
   63.5870   34.2340   46.1230 F   0  0  0  0  0  0  0  0  0  0  0  0
   62.8870   32.5800   47.6870 C   0  0  0  0  0  0  0  0  0  0  0  0
   61.8590   31.8810   48.3220 C   0  0  0  0  0  0  0  0  0  0  0  0
   60.5150   32.1650   48.0220 C   0  0  0  0  0  0  0  0  0  0  0  0
   59.4190   31.4010   48.7100 C   0  0  0  0  0  0  0  0  0  0  0  0
   56.8530   30.8980   44.2510 C   0  0  0  0  0  0  0  0  0  0  0  0
   56.7370   29.5200   44.0460 C   0  0  0  0  0  0  0  0  0  0  0  0
   55.9770   24.4640   46.8350 C   0  0  0  0  0  0  0  0  0  0  0  0
   54.9070   23.5650   46.8290 C   0  0  0  0  0  0  0  0  0  0  0  0
   51.6867   22.4658   47.7386 H   0  0  0  0  0  0  0  0  0  0  0  0
   50.4630   23.4473   46.8634 H   0  0  0  0  0  0  0  0  0  0  0  0
   50.3438   21.6550   46.8634 H   0  0  0  0  0  0  0  0  0  0  0  0
   54.5430   23.1644   43.4519 H   0  0  0  0  0  0  0  0  0  0  0  0
   56.4232   24.8040   43.4603 H   0  0  0  0  0  0  0  0  0  0  0  0
   57.3940   26.8370   43.3960 H   0  0  0  0  0  0  0  0  0  0  0  0
   59.6325   28.5034   45.5538 H   0  0  0  0  0  0  0  0  0  0  0  0
   59.8370   30.9596   45.9202 H   0  0  0  0  0  0  0  0  0  0  0  0
   61.0219   34.6339   45.6964 H   0  0  0  0  0  0  0  0  0  0  0  0
   63.9361   32.3534   47.9278 H   0  0  0  0  0  0  0  0  0  0  0  0
   62.1018   31.1035   49.0613 H   0  0  0  0  0  0  0  0  0  0  0  0
   59.5411   31.4861   49.7999 H   0  0  0  0  0  0  0  0  0  0  0  0
   58.4432   31.8156   48.4169 H   0  0  0  0  0  0  0  0  0  0  0  0
   59.4704   30.3420   48.4169 H   0  0  0  0  0  0  0  0  0  0  0  0
   56.0693   31.5746   43.8795 H   0  0  0  0  0  0  0  0  0  0  0  0
   55.8602   29.1179   43.5172 H   0  0  0  0  0  0  0  0  0  0  0  0
   56.3952   24.8125   47.7909 H   0  0  0  0  0  0  0  0  0  0  0  0
   54.4903   23.2057   47.7815 H   0  0  0  0  0  0  0  0  0  0  0  0
  1  2  1  0
  2  3  2  0
  2  4  1  0
  4  5  1  0
  5  6  2  0
  6  7  1  0
  7  8  2  0
  8  9  1  0
  9 10  2  0
  9 11  2  0
  9 12  1  0
 12 13  1  0
 13 14  2  0
 14 15  1  0
 15 16  2  0
 16 17  1  0
 17 18  2  0
 17 19  2  0
 17 20  1  0
 20 21  1  0
 21 22  2  0
 22 23  1  0
 23 24  1  0
 23 25  2  0
 25 26  1  0
 26 27  2  0
 27 28  1  0
 16 29  1  0
 29 30  2  0
  8 31  1  0
 31 32  2  0
 32  5  1  0
 30 13  1  0
 27 21  1  0
  1 33  1  0
  1 34  1  0
  1 35  1  0
  6 36  1  0
  7 37  1  0
 12 38  1  0
 14 39  1  0
 15 40  1  0
 22 41  1  0
 25 42  1  0
 26 43  1  0
 28 44  1  0
 28 45  1  0
 28 46  1  0
 29 47  1  0
 30 48  1  0
 31 49  1  0
 32 50  1  0
M  CHG  2   4  -1  20  -1
M  END
>  <UniqueID>  (85) 
81

>  <SMILES>  (85) 
CC(=O)[N-]c1ccc(S(=O)(=O)Nc2ccc(S(=O)(=O)[N-]c3cc(F)ccc3C)cc2)cc1

>  <Energy>  (85) 
61.41746318256442

>  <Genealogy>  (85) 
CC(=O)[N-]c1ccc(S(=O)(=O)Nc2ccc(S(=O)(=O)[N-]c3cc(F)ccc3C)cc2)cc1 (protonated)
CC(=O)[N-]c1ccc(S(=O)(=O)Nc2ccc(S(=O)(=O)[N-]c3cc(F)ccc3C)cc2)cc1 (3D coordinates assigned)
CC(=O)[N-]c1ccc(S(=O)(=O)Nc2ccc(S(=O)(=O)[N-]c3cc(F)ccc3C)cc2)cc1 (optimized conformer: 61.41746318256442 kcal/mol)

>  <smiles>  (85) 
CC(=O)Nc1ccc(S(=O)(=O)Nc2ccc(S(=O)(=O)Nc3cc(F)ccc3C)cc2)cc1

>  <score_type>  (85) 
oracle

>  <origin>  (85) 
adg

>  <m_score__min__energy>  (85) 
-12.140000000000001

>  <m_primary>  (85) 
energy

$$$$
85:0
     RDKit          3D

 36 38  0  0  0  0  0  0  0  0999 V2000
   59.6210   25.4360   46.4890 O   0  0  0  0  0  0  0  0  0  0  0  0
   58.4390   25.8060   46.2650 C   0  0  0  0  0  0  0  0  0  0  0  0
   58.1940   27.0320   45.6420 C   0  0  0  0  0  0  0  0  0  0  0  0
   56.8680   27.4160   45.4160 C   0  0  0  0  0  0  0  0  0  0  0  0
   56.5830   28.6580   44.7510 N   0  0  0  0  0  0  0  0  0  0  0  0
   57.0220   29.9430   45.2250 C   0  0  0  0  0  0  0  0  0  0  0  0
   56.6910   31.0940   44.4970 C   0  0  0  0  0  0  0  0  0  0  0  0
   57.1260   32.3510   44.9260 C   0  0  0  0  0  0  0  0  0  0  0  0
   57.9120   32.4780   46.0770 C   0  0  0  0  0  0  0  0  0  0  0  0
   58.3360   33.7870   46.4800 N   0  0  0  0  0  0  0  0  0  0  0  0
   59.7930   34.5710   45.9600 S   0  0  0  0  0  0  0  0  0  0  0  0
   59.6340   36.0580   46.1090 O   0  0  0  0  0  0  0  0  0  0  0  0
   60.0660   34.2190   44.5250 O   0  0  0  0  0  0  0  0  0  0  0  0
   61.1520   34.0380   46.9470 C   0  0  0  0  0  0  0  0  0  0  0  0
   62.4110   33.8190   46.3660 C   0  0  0  0  0  0  0  0  0  0  0  0
   63.4870   33.3990   47.1550 C   0  0  0  0  0  0  0  0  0  0  0  0
   63.3130   33.1960   48.5270 C   0  0  0  0  0  0  0  0  0  0  0  0
   62.0640   33.4160   49.1120 C   0  0  0  0  0  0  0  0  0  0  0  0
   60.9850   33.8360   48.3280 C   0  0  0  0  0  0  0  0  0  0  0  0
   59.7790   34.0500   48.9140 F   0  0  0  0  0  0  0  0  0  0  0  0
   58.2680   31.3220   46.7960 C   0  0  0  0  0  0  0  0  0  0  0  0
   57.8310   30.0640   46.3680 C   0  0  0  0  0  0  0  0  0  0  0  0
   55.8600   26.5790   45.7880 N   0  0  0  0  0  0  0  0  0  0  0  0
   56.1180   25.3910   46.3930 C   0  0  0  0  0  0  0  0  0  0  0  0
   55.1670   24.6400   46.7330 O   0  0  0  0  0  0  0  0  0  0  0  0
   57.4010   25.0120   46.6280 N   0  0  0  0  0  0  0  0  0  0  0  0
   59.0267   27.6821   45.3354 H   0  0  0  0  0  0  0  0  0  0  0  0
   55.9500   28.6350   43.9200 H   0  0  0  0  0  0  0  0  0  0  0  0
   56.0854   31.0075   43.5828 H   0  0  0  0  0  0  0  0  0  0  0  0
   56.8481   33.2485   44.3539 H   0  0  0  0  0  0  0  0  0  0  0  0
   62.5519   33.9782   45.2867 H   0  0  0  0  0  0  0  0  0  0  0  0
   64.4715   33.2282   46.6951 H   0  0  0  0  0  0  0  0  0  0  0  0
   64.1594   32.8631   49.1457 H   0  0  0  0  0  0  0  0  0  0  0  0
   61.9287   33.2585   50.1922 H   0  0  0  0  0  0  0  0  0  0  0  0
   58.8921   31.4079   47.6977 H   0  0  0  0  0  0  0  0  0  0  0  0
   58.1223   29.1640   46.9294 H   0  0  0  0  0  0  0  0  0  0  0  0
  1  2  2  0
  2  3  1  0
  3  4  2  0
  4  5  1  0
  5  6  1  0
  6  7  2  0
  7  8  1  0
  8  9  2  0
  9 10  1  0
 10 11  1  0
 11 12  2  0
 11 13  2  0
 11 14  1  0
 14 15  2  0
 15 16  1  0
 16 17  2  0
 17 18  1  0
 18 19  2  0
 19 20  1  0
  9 21  1  0
 21 22  2  0
  4 23  1  0
 23 24  1  0
 24 25  2  0
 24 26  1  0
 26  2  1  0
 22  6  1  0
 19 14  1  0
  3 27  1  0
  5 28  1  0
  7 29  1  0
  8 30  1  0
 15 31  1  0
 16 32  1  0
 17 33  1  0
 18 34  1  0
 21 35  1  0
 22 36  1  0
M  CHG  3  10  -1  23  -1  26  -1
M  END
>  <UniqueID>  (86) 
82

>  <SMILES>  (86) 
O=c1cc(Nc2ccc([N-]S(=O)(=O)c3ccccc3F)cc2)[n-]c(=O)[n-]1

>  <Energy>  (86) 
48.73554768991496

>  <Genealogy>  (86) 
O=c1cc(Nc2ccc([N-]S(=O)(=O)c3ccccc3F)cc2)[n-]c(=O)[n-]1 (protonated)
O=c1cc(Nc2ccc([N-]S(=O)(=O)c3ccccc3F)cc2)[n-]c(=O)[n-]1 (3D coordinates assigned)
O=c1cc(Nc2ccc([N-]S(=O)(=O)c3ccccc3F)cc2)[n-]c(=O)[n-]1 (optimized conformer: 48.73554768991496 kcal/mol)

>  <smiles>  (86) 
O=c1cc(Nc2ccc(NS(=O)(=O)c3ccccc3F)cc2)[nH]c(=O)[nH]1

>  <score_type>  (86) 
oracle

>  <origin>  (86) 
adg

>  <m_score__min__energy>  (86) 
-13.390000000000001

>  <m_primary>  (86) 
energy

$$$$
86:0
     RDKit          3D

 27 28  0  0  0  0  0  0  0  0999 V2000
   58.1150   23.4410   46.0400 C   0  0  0  0  0  0  0  0  0  0  0  0
   58.3430   24.9160   45.9710 C   0  0  0  0  0  0  0  0  0  0  0  0
   59.5420   25.4510   45.8390 O   0  0  0  0  0  0  0  0  0  0  0  0
   59.3980   26.7520   45.8110 C   0  0  0  0  0  0  0  0  0  0  0  0
   60.4020   27.7060   45.6840 C   0  0  0  0  0  0  0  0  0  0  0  0
   60.0310   29.0600   45.6760 C   0  0  0  0  0  0  0  0  0  0  0  0
   58.6650   29.4390   45.7990 C   0  0  0  0  0  0  0  0  0  0  0  0
   58.2440   30.7760   45.7970 O   0  0  0  0  0  0  0  0  0  0  0  0
   57.0980   31.4510   44.7190 S   0  0  0  0  0  0  0  0  0  0  0  0
   57.8340   31.7060   43.1160 C   0  0  0  0  0  0  0  0  0  0  0  0
   56.6510   32.7790   45.2580 O   0  0  0  0  0  0  0  0  0  0  0  0
   55.9040   30.5460   44.5990 O   0  0  0  0  0  0  0  0  0  0  0  0
   57.6780   28.4410   45.9220 C   0  0  0  0  0  0  0  0  0  0  0  0
   58.0770   27.1010   45.9270 C   0  0  0  0  0  0  0  0  0  0  0  0
   57.3660   25.9170   46.0320 C   0  0  0  0  0  0  0  0  0  0  0  0
   55.9050   25.7410   46.1780 C   0  0  0  0  0  0  0  0  0  0  0  0
   55.1260   26.7150   46.0050 O   0  0  0  0  0  0  0  0  0  0  0  0
   55.3680   24.5040   46.5070 O   0  0  0  0  0  0  0  0  0  0  0  0
   58.0664   23.1264   47.0929 H   0  0  0  0  0  0  0  0  0  0  0  0
   57.1678   23.1926   45.5389 H   0  0  0  0  0  0  0  0  0  0  0  0
   58.9430   22.9182   45.5389 H   0  0  0  0  0  0  0  0  0  0  0  0
   61.4569   27.4081   45.5924 H   0  0  0  0  0  0  0  0  0  0  0  0
   60.8041   29.8357   45.5736 H   0  0  0  0  0  0  0  0  0  0  0  0
   58.8668   32.0638   43.2395 H   0  0  0  0  0  0  0  0  0  0  0  0
   57.8388   30.7571   42.5596 H   0  0  0  0  0  0  0  0  0  0  0  0
   57.2507   32.4544   42.5596 H   0  0  0  0  0  0  0  0  0  0  0  0
   56.6154   28.7106   46.0122 H   0  0  0  0  0  0  0  0  0  0  0  0
  1  2  1  0
  2  3  1  0
  3  4  1  0
  4  5  2  0
  5  6  1  0
  6  7  2  0
  7  8  1  0
  8  9  1  0
  9 10  1  0
  9 11  2  0
  9 12  2  0
  7 13  1  0
 13 14  2  0
 14 15  1  0
 15 16  1  0
 16 17  2  0
 16 18  1  0
 15  2  2  0
 14  4  1  0
  1 19  1  0
  1 20  1  0
  1 21  1  0
  5 22  1  0
  6 23  1  0
 10 24  1  0
 10 25  1  0
 10 26  1  0
 13 27  1  0
M  CHG  1  18  -1
M  END
>  <UniqueID>  (87) 
83

>  <SMILES>  (87) 
Cc1oc2ccc(OS(C)(=O)=O)cc2c1C(=O)[O-]

>  <Energy>  (87) 
57.5816526682451

>  <Genealogy>  (87) 
Cc1oc2ccc(OS(C)(=O)=O)cc2c1C(=O)[O-] (protonated)
Cc1oc2ccc(OS(C)(=O)=O)cc2c1C(=O)[O-] (3D coordinates assigned)
Cc1oc2ccc(OS(C)(=O)=O)cc2c1C(=O)[O-] (optimized conformer: 57.5816526682451 kcal/mol)

>  <smiles>  (87) 
Cc1oc2ccc(OS(C)(=O)=O)cc2c1C(=O)O

>  <score_type>  (87) 
oracle

>  <origin>  (87) 
adg

>  <m_score__min__energy>  (87) 
-9.5899999999999999

>  <m_primary>  (87) 
energy

$$$$
87:0
     RDKit          3D

 45 47  0  0  0  0  0  0  0  0999 V2000
   57.9820   32.7930   43.8770 C   0  0  0  0  0  0  0  0  0  0  0  0
   57.9200   31.3540   44.1380 N   0  0  0  0  0  0  0  0  0  0  0  0
   56.9050   30.5110   43.4880 C   0  0  0  0  0  0  0  0  0  0  0  0
   56.6460   29.2650   44.2830 C   0  0  0  0  0  0  0  0  0  0  0  0
   55.5550   29.1430   44.9030 O   0  0  0  0  0  0  0  0  0  0  0  0
   57.6640   28.2580   44.3950 N   0  0  0  0  0  0  0  0  0  0  0  0
   57.4300   26.9330   44.9020 C   0  0  0  0  0  0  0  0  0  0  0  0
   56.8740   26.7220   46.1770 C   0  0  0  0  0  0  0  0  0  0  0  0
   56.6310   25.4250   46.6370 C   0  0  0  0  0  0  0  0  0  0  0  0
   56.9300   24.3260   45.8240 C   0  0  0  0  0  0  0  0  0  0  0  0
   56.6250   22.6990   46.4020 Cl  0  0  0  0  0  0  0  0  0  0  0  0
   57.4620   24.5270   44.5460 C   0  0  0  0  0  0  0  0  0  0  0  0
   57.7050   25.8250   44.0850 C   0  0  0  0  0  0  0  0  0  0  0  0
   58.7900   30.8120   45.1440 C   0  0  0  0  0  0  0  0  0  0  0  0
   59.6430   29.9420   44.8180 O   0  0  0  0  0  0  0  0  0  0  0  0
   58.6120   31.1530   46.5970 C   0  0  0  0  0  0  0  0  0  0  0  0
   59.2610   32.4300   46.9400 N   0  0  0  0  0  0  0  0  0  0  0  0
   58.4760   33.6430   46.9880 C   0  0  0  0  0  0  0  0  0  0  0  0
   57.2210   33.6070   46.8740 O   0  0  0  0  0  0  0  0  0  0  0  0
   59.1570   34.9770   47.0940 C   0  0  0  0  0  0  0  0  0  0  0  0
   60.4080   34.8690   47.7680 O   0  0  0  0  0  0  0  0  0  0  0  0
   61.2240   33.7390   47.6570 C   0  0  0  0  0  0  0  0  0  0  0  0
   62.5800   33.8400   47.9890 C   0  0  0  0  0  0  0  0  0  0  0  0
   63.4160   32.7280   47.8730 C   0  0  0  0  0  0  0  0  0  0  0  0
   62.8970   31.5080   47.4360 C   0  0  0  0  0  0  0  0  0  0  0  0
   61.5390   31.3940   47.1210 C   0  0  0  0  0  0  0  0  0  0  0  0
   60.6810   32.5120   47.2280 C   0  0  0  0  0  0  0  0  0  0  0  0
   58.0055   33.3382   44.8321 H   0  0  0  0  0  0  0  0  0  0  0  0
   58.8909   33.0224   43.3014 H   0  0  0  0  0  0  0  0  0  0  0  0
   57.0962   33.0997   43.3014 H   0  0  0  0  0  0  0  0  0  0  0  0
   55.9685   31.0811   43.3987 H   0  0  0  0  0  0  0  0  0  0  0  0
   57.2774   30.2199   42.4947 H   0  0  0  0  0  0  0  0  0  0  0  0
   58.6440   28.5260   44.1530 H   0  0  0  0  0  0  0  0  0  0  0  0
   56.6290   27.5833   46.8158 H   0  0  0  0  0  0  0  0  0  0  0  0
   56.2045   25.2679   47.6387 H   0  0  0  0  0  0  0  0  0  0  0  0
   57.6894   23.6638   43.9032 H   0  0  0  0  0  0  0  0  0  0  0  0
   58.1143   25.9786   43.0756 H   0  0  0  0  0  0  0  0  0  0  0  0
   57.5368   31.2293   46.8162 H   0  0  0  0  0  0  0  0  0  0  0  0
   59.0808   30.3582   47.1958 H   0  0  0  0  0  0  0  0  0  0  0  0
   59.3284   35.3729   46.0821 H   0  0  0  0  0  0  0  0  0  0  0  0
   58.5089   35.6521   47.6722 H   0  0  0  0  0  0  0  0  0  0  0  0
   62.9881   34.7984   48.3424 H   0  0  0  0  0  0  0  0  0  0  0  0
   64.4832   32.8131   48.1258 H   0  0  0  0  0  0  0  0  0  0  0  0
   63.5578   30.6340   47.3391 H   0  0  0  0  0  0  0  0  0  0  0  0
   61.1356   30.4266   46.7873 H   0  0  0  0  0  0  0  0  0  0  0  0
  1  2  1  0
  2  3  1  0
  3  4  1  0
  4  5  2  0
  4  6  1  0
  6  7  1  0
  7  8  2  0
  8  9  1  0
  9 10  2  0
 10 11  1  0
 10 12  1  0
 12 13  2  0
  2 14  1  0
 14 15  2  0
 14 16  1  0
 16 17  1  0
 17 18  1  0
 18 19  2  0
 18 20  1  0
 20 21  1  0
 21 22  1  0
 22 23  2  0
 23 24  1  0
 24 25  2  0
 25 26  1  0
 26 27  2  0
 13  7  1  0
 27 17  1  0
 27 22  1  0
  1 28  1  0
  1 29  1  0
  1 30  1  0
  3 31  1  0
  3 32  1  0
  6 33  1  0
  8 34  1  0
  9 35  1  0
 12 36  1  0
 13 37  1  0
 16 38  1  0
 16 39  1  0
 20 40  1  0
 20 41  1  0
 23 42  1  0
 24 43  1  0
 25 44  1  0
 26 45  1  0
M  END
>  <UniqueID>  (88) 
84

>  <SMILES>  (88) 
CN(CC(=O)Nc1ccc(Cl)cc1)C(=O)CN1C(=O)COc2ccccc21

>  <Energy>  (88) 
54.38208025312534

>  <Genealogy>  (88) 
CN(CC(=O)Nc1ccc(Cl)cc1)C(=O)CN1C(=O)COc2ccccc21 (3D coordinates assigned)
CN(CC(=O)Nc1ccc(Cl)cc1)C(=O)CN1C(=O)COc2ccccc21 (nonaromatic ring conformer: 54.38208025312534 kcal/mol)

>  <smiles>  (88) 
CN(CC(=O)Nc1ccc(Cl)cc1)C(=O)CN1C(=O)COc2ccccc21

>  <score_type>  (88) 
oracle

>  <origin>  (88) 
adg

>  <m_score__min__energy>  (88) 
-7.5700000000000003

>  <m_primary>  (88) 
energy

$$$$
88:0
     RDKit          3D

 48 51  0  0  1  0  0  0  0  0999 V2000
   59.5240   34.3440   48.4810 C   0  0  0  0  0  0  0  0  0  0  0  0
   59.1890   34.1450   47.0650 N   0  0  0  0  0  0  0  0  0  0  0  0
   59.4870   35.1240   46.2050 C   0  0  0  0  0  0  0  0  0  0  0  0
   59.1760   34.9460   44.8820 C   0  0  0  0  0  0  0  0  0  0  0  0
   58.5660   33.7620   44.4820 C   0  0  0  0  0  0  0  0  0  0  0  0
   58.2590   32.7500   45.3800 C   0  0  0  0  0  0  0  0  0  0  0  0
   57.6270   31.5700   44.8640 C   0  0  0  0  0  0  0  0  0  0  0  0
   57.0240   31.4260   43.6430 C   0  0  0  0  0  0  0  0  0  0  0  0
   56.4310   30.2420   43.2180 C   0  0  0  0  0  0  0  0  0  0  0  0
   56.4480   29.1950   44.0350 N   0  0  0  0  0  0  0  0  0  0  0  0
   57.0340   29.3200   45.2350 C   0  0  0  0  0  0  0  0  0  0  0  0
   57.0290   28.2800   45.9970 N   0  0  0  0  0  0  0  0  0  0  0  0
   58.2600   27.6500   46.3900 C   0  0  0  0  0  0  0  0  0  0  0  0
   59.2500   28.6630   46.8370 C   0  0  0  0  0  0  0  0  0  0  0  0
   59.2310   29.1020   48.1520 C   0  0  0  0  0  0  0  0  0  0  0  0
   60.1540   30.0410   48.5560 C   0  0  0  0  0  0  0  0  0  0  0  0
   61.0740   30.5200   47.6420 C   0  0  0  0  0  0  0  0  0  0  0  0
   62.0630   31.5120   48.0470 C   0  0  0  0  0  0  0  0  0  0  0  0
   62.4010   32.4770   47.1150 C   0  0  0  0  0  0  0  0  0  0  0  0
   63.3370   33.4720   47.4020 C   0  0  0  0  0  0  0  0  0  0  0  0
   63.9000   33.4360   48.6630 C   0  0  0  0  0  0  0  0  0  0  0  0
   63.5740   32.4810   49.6060 C   0  0  0  0  0  0  0  0  0  0  0  0
   62.6510   31.5140   49.2970 C   0  0  0  0  0  0  0  0  0  0  0  0
   61.1020   30.0900   46.3320 C   0  0  0  0  0  0  0  0  0  0  0  0
   60.1840   29.1550   45.9290 C   0  0  0  0  0  0  0  0  0  0  0  0
   57.6140   30.4640   45.6610 N   0  0  0  0  0  0  0  0  0  0  0  0
   58.5950   32.9830   46.6920 C   0  0  0  0  0  0  0  0  0  0  0  0
   58.3690   32.1530   47.5710 O   0  0  0  0  0  0  0  0  0  0  0  0
   58.7480   33.8830   49.1097 H   0  0  0  0  0  0  0  0  0  0  0  0
   60.4962   33.8768   48.6969 H   0  0  0  0  0  0  0  0  0  0  0  0
   59.5788   35.4212   48.6969 H   0  0  0  0  0  0  0  0  0  0  0  0
   59.9700   36.0499   46.5506 H   0  0  0  0  0  0  0  0  0  0  0  0
   59.4061   35.7301   44.1456 H   0  0  0  0  0  0  0  0  0  0  0  0
   58.3189   33.6234   43.4191 H   0  0  0  0  0  0  0  0  0  0  0  0
   57.0078   32.2910   42.9636 H   0  0  0  0  0  0  0  0  0  0  0  0
   55.9583   30.1742   42.2271 H   0  0  0  0  0  0  0  0  0  0  0  0
   56.0090   28.3020   43.7340 H   0  0  0  0  0  0  0  0  0  0  0  0
   58.0603   26.9515   47.2160 H   0  0  0  0  0  0  0  0  0  0  0  0
   58.6727   27.1106   45.5247 H   0  0  0  0  0  0  0  0  0  0  0  0
   58.4898   28.7063   48.8620 H   0  0  0  0  0  0  0  0  0  0  0  0
   60.1591   30.4056   49.5938 H   0  0  0  0  0  0  0  0  0  0  0  0
   61.9212   32.4598   46.1253 H   0  0  0  0  0  0  0  0  0  0  0  0
   63.6109   34.2416   46.6654 H   0  0  0  0  0  0  0  0  0  0  0  0
   64.6422   34.2033   48.9283 H   0  0  0  0  0  0  0  0  0  0  0  0
   64.0507   32.4956   50.5972 H   0  0  0  0  0  0  0  0  0  0  0  0
   62.3816   30.7471   50.0381 H   0  0  0  0  0  0  0  0  0  0  0  0
   61.8450   30.4887   45.6256 H   0  0  0  0  0  0  0  0  0  0  0  0
   60.1852   28.7940   44.8899 H   0  0  0  0  0  0  0  0  0  0  0  0
  1  2  1  0
  2  3  1  0
  3  4  2  0
  4  5  1  0
  5  6  2  0
  6  7  1  0
  7  8  1  0
  8  9  2  0
  9 10  1  0
 10 11  1  0
 11 12  2  0
 12 13  1  0
 13 14  1  0
 14 15  2  0
 15 16  1  0
 16 17  2  0
 17 18  1  0
 18 19  2  0
 19 20  1  0
 20 21  2  0
 21 22  1  0
 22 23  2  0
 17 24  1  0
 24 25  2  0
 11 26  1  0
  6 27  1  0
 27 28  2  0
 27  2  1  0
 26  7  2  0
 25 14  1  0
 23 18  1  0
  1 29  1  0
  1 30  1  0
  1 31  1  0
  3 32  1  0
  4 33  1  0
  5 34  1  0
  8 35  1  0
  9 36  1  0
 10 37  1  0
 13 38  1  0
 13 39  1  0
 15 40  1  0
 16 41  1  0
 19 42  1  0
 20 43  1  0
 21 44  1  0
 22 45  1  0
 23 46  1  0
 24 47  1  0
 25 48  1  0
M  END
>  <smiles>  (89) 
Cn1cccc(-c2cc[nH]c(=NCc3ccc(-c4ccccc4)cc3)n2)c1=O

>  <score_type>  (89) 
oracle

>  <origin>  (89) 
adg

>  <m_score__min__energy>  (89) 
-9.3800000000000008

>  <m_primary>  (89) 
energy

$$$$
89:0
     RDKit          3D

 41 45  0  0  0  0  0  0  0  0999 V2000
   57.7330   32.5110   47.3760 O   0  0  0  0  0  0  0  0  0  0  0  0
   58.9320   32.1450   47.3500 C   0  0  0  0  0  0  0  0  0  0  0  0
   60.0640   32.9010   47.8740 C   0  0  0  0  0  0  0  0  0  0  0  0
   60.1120   34.1080   48.5730 C   0  0  0  0  0  0  0  0  0  0  0  0
   61.3720   34.5710   48.9930 C   0  0  0  0  0  0  0  0  0  0  0  0
   62.5460   33.8230   48.7060 C   0  0  0  0  0  0  0  0  0  0  0  0
   62.4700   32.6060   47.9990 C   0  0  0  0  0  0  0  0  0  0  0  0
   61.2080   32.1690   47.6000 C   0  0  0  0  0  0  0  0  0  0  0  0
   60.8040   30.9470   46.9050 C   0  0  0  0  0  0  0  0  0  0  0  0
   61.5900   30.0840   46.4160 O   0  0  0  0  0  0  0  0  0  0  0  0
   59.3750   30.8960   46.7970 N   0  0  0  0  0  0  0  0  0  0  0  0
   58.6370   30.0900   45.8690 C   0  0  0  0  0  0  0  0  0  0  0  0
   58.4460   28.7730   46.1440 N   0  0  0  0  0  0  0  0  0  0  0  0
   57.7510   27.9540   45.3090 C   0  0  0  0  0  0  0  0  0  0  0  0
   57.5780   26.5270   45.6730 C   0  0  0  0  0  0  0  0  0  0  0  0
   58.6620   25.6290   45.6180 C   0  0  0  0  0  0  0  0  0  0  0  0
   58.4840   24.2850   45.9600 C   0  0  0  0  0  0  0  0  0  0  0  0
   57.2280   23.8230   46.3660 C   0  0  0  0  0  0  0  0  0  0  0  0
   56.1500   24.7100   46.4440 C   0  0  0  0  0  0  0  0  0  0  0  0
   56.3220   26.0550   46.1020 C   0  0  0  0  0  0  0  0  0  0  0  0
   57.2150   28.4600   44.1590 N   0  0  0  0  0  0  0  0  0  0  0  0
   57.3890   29.7700   43.8200 C   0  0  0  0  0  0  0  0  0  0  0  0
   56.8500   30.2710   42.6220 C   0  0  0  0  0  0  0  0  0  0  0  0
   57.0500   31.6070   42.2630 C   0  0  0  0  0  0  0  0  0  0  0  0
   57.7940   32.4500   43.0910 C   0  0  0  0  0  0  0  0  0  0  0  0
   58.3340   31.9670   44.2880 C   0  0  0  0  0  0  0  0  0  0  0  0
   58.1210   30.6280   44.6730 C   0  0  0  0  0  0  0  0  0  0  0  0
   59.1959   34.6777   48.7881 H   0  0  0  0  0  0  0  0  0  0  0  0
   61.4493   35.5181   49.5471 H   0  0  0  0  0  0  0  0  0  0  0  0
   63.5249   34.1981   49.0394 H   0  0  0  0  0  0  0  0  0  0  0  0
   63.3739   32.0223   47.7704 H   0  0  0  0  0  0  0  0  0  0  0  0
   59.6537   25.9870   45.3043 H   0  0  0  0  0  0  0  0  0  0  0  0
   59.3343   23.5890   45.9096 H   0  0  0  0  0  0  0  0  0  0  0  0
   57.0883   22.7628   46.6237 H   0  0  0  0  0  0  0  0  0  0  0  0
   55.1649   24.3492   46.7749 H   0  0  0  0  0  0  0  0  0  0  0  0
   55.4710   26.7489   46.1684 H   0  0  0  0  0  0  0  0  0  0  0  0
   56.6490   27.8440   43.5320 H   0  0  0  0  0  0  0  0  0  0  0  0
   56.2682   29.6085   41.9642 H   0  0  0  0  0  0  0  0  0  0  0  0
   56.6209   31.9947   41.3273 H   0  0  0  0  0  0  0  0  0  0  0  0
   57.9563   33.4986   42.8009 H   0  0  0  0  0  0  0  0  0  0  0  0
   58.9267   32.6345   44.9307 H   0  0  0  0  0  0  0  0  0  0  0  0
  1  2  2  0
  2  3  1  0
  3  4  2  0
  4  5  1  0
  5  6  2  0
  6  7  1  0
  7  8  2  0
  8  9  1  0
  9 10  2  0
  9 11  1  0
 11 12  1  0
 12 13  2  0
 13 14  1  0
 14 15  1  0
 15 16  2  0
 16 17  1  0
 17 18  2  0
 18 19  1  0
 19 20  2  0
 14 21  2  0
 21 22  1  0
 22 23  2  0
 23 24  1  0
 24 25  2  0
 25 26  1  0
 26 27  2  0
 11  2  1  0
 27 12  1  0
  8  3  1  0
 20 15  1  0
 27 22  1  0
  4 28  1  0
  5 29  1  0
  6 30  1  0
  7 31  1  0
 16 32  1  0
 17 33  1  0
 18 34  1  0
 19 35  1  0
 20 36  1  0
 21 37  1  0
 23 38  1  0
 24 39  1  0
 25 40  1  0
 26 41  1  0
M  CHG  1  21   1
M  END
>  <UniqueID>  (90) 
85

>  <SMILES>  (90) 
O=C1c2ccccc2C(=O)N1c1nc(-c2ccccc2)[nH+]c2ccccc12

>  <Energy>  (90) 
94.56698270454078

>  <Genealogy>  (90) 
O=C1c2ccccc2C(=O)N1c1nc(-c2ccccc2)[nH+]c2ccccc12 (protonated)
O=C1c2ccccc2C(=O)N1c1nc(-c2ccccc2)[nH+]c2ccccc12 (3D coordinates assigned)
O=C1c2ccccc2C(=O)N1c1nc(-c2ccccc2)[nH+]c2ccccc12 (nonaromatic ring conformer: 94.56698270454078 kcal/mol)

>  <smiles>  (90) 
O=C1c2ccccc2C(=O)N1c1nc(-c2ccccc2)nc2ccccc12

>  <score_type>  (90) 
oracle

>  <origin>  (90) 
adg

>  <m_score__min__energy>  (90) 
-7.04

>  <m_primary>  (90) 
energy

$$$$
90:0
     RDKit          3D

 26 27  0  0  0  0  0  0  0  0999 V2000
   59.7178   35.8078   47.3884 H   0  0  0  0  0  0  0  0  0  0  0  0
   59.2950   34.9780   46.8030 C   0  0  0  0  0  0  0  0  0  0  0  0
   59.3090   35.0300   45.4060 C   0  0  0  0  0  0  0  0  0  0  0  0
   59.7430   35.9004   44.8922 H   0  0  0  0  0  0  0  0  0  0  0  0
   58.7710   33.9750   44.6620 C   0  0  0  0  0  0  0  0  0  0  0  0
   58.7859   34.0159   43.5629 H   0  0  0  0  0  0  0  0  0  0  0  0
   58.2130   32.8660   45.3120 C   0  0  0  0  0  0  0  0  0  0  0  0
   57.5280   31.5460   44.3690 S   0  0  0  0  0  0  0  0  0  0  0  0
   57.7010   31.8020   42.8970 O   0  0  0  0  0  0  0  0  0  0  0  0
   56.0610   31.4370   44.6770 O   0  0  0  0  0  0  0  0  0  0  0  0
   58.3080   30.0520   44.7800 N   0  0  0  0  0  0  0  0  0  0  0  0
   57.6780   28.9420   45.0270 C   0  0  0  0  0  0  0  0  0  0  0  0
   58.1100   27.6570   44.7480 C   0  0  0  0  0  0  0  0  0  0  0  0
   59.0468   27.3380   44.2678 H   0  0  0  0  0  0  0  0  0  0  0  0
   57.0730   26.8720   45.2220 C   0  0  0  0  0  0  0  0  0  0  0  0
   57.0190   25.3830   45.1980 C   0  0  0  0  0  0  0  0  0  0  0  0
   57.0051   24.9999   46.2291 H   0  0  0  0  0  0  0  0  0  0  0  0
   56.1085   25.0575   44.6736 H   0  0  0  0  0  0  0  0  0  0  0  0
   57.9036   24.9924   44.6736 H   0  0  0  0  0  0  0  0  0  0  0  0
   56.1360   27.6450   45.7270 O   0  0  0  0  0  0  0  0  0  0  0  0
   56.4750   28.8960   45.6210 N   0  0  0  0  0  0  0  0  0  0  0  0
   55.9000   29.7040   45.9500 H   0  0  0  0  0  0  0  0  0  0  0  0
   58.2060   32.8170   46.7140 C   0  0  0  0  0  0  0  0  0  0  0  0
   57.7760   31.9461   47.2305 H   0  0  0  0  0  0  0  0  0  0  0  0
   58.7440   33.8720   47.4560 C   0  0  0  0  0  0  0  0  0  0  0  0
   58.7338   33.8319   48.5552 H   0  0  0  0  0  0  0  0  0  0  0  0
  1  2  1  0
  2  3  2  0
  3  4  1  0
  3  5  1  0
  5  6  1  0
  5  7  2  0
  7  8  1  0
  8  9  2  0
  8 10  2  0
  8 11  1  0
 11 12  2  0
 12 13  1  0
 13 14  1  0
 13 15  2  0
 15 16  1  0
 16 17  1  0
 16 18  1  0
 16 19  1  0
 15 20  1  0
 20 21  1  0
 21 22  1  0
  7 23  1  0
 23 24  1  0
 23 25  2  0
 25 26  1  0
 25  2  1  0
 21 12  1  0
M  END
>  <UniqueID>  (91) 
86

>  <SMILES>  (91) 
Cc1c/c(=N\S(=O)(=O)c2ccccc2)[nH]o1

>  <Energy>  (91) 
60.081059032098764

>  <Genealogy>  (91) 
Cc1c/c(=N\S(=O)(=O)c2ccccc2)[nH]o1 (cis-trans isomerization)
Cc1c/c(=N\S(=O)(=O)c2ccccc2)[nH]o1 (3D coordinates assigned)
Cc1c/c(=N\S(=O)(=O)c2ccccc2)[nH]o1 (optimized conformer: 60.081059032098764 kcal/mol)

>  <smiles>  (91) 
Cc1cc(=NS(=O)(=O)c2ccccc2)[nH]o1

>  <score_type>  (91) 
oracle

>  <origin>  (91) 
adg

>  <m_score__min__energy>  (91) 
-7.6200000000000001

>  <m_primary>  (91) 
energy

$$$$
91:0
     RDKit          3D

 56 60  0  0  0  0  0  0  0  0999 V2000
   56.7551   24.6447   43.4166 H   0  0  0  0  0  0  0  0  0  0  0  0
   56.5370   24.7350   44.4910 C   0  0  0  0  0  0  0  0  0  0  0  0
   55.2270   24.2380   44.9550 C   0  0  0  0  0  0  0  0  0  0  0  0
   54.8160   22.9570   44.9100 N   0  0  0  0  0  0  0  0  0  0  0  0
   53.6200   22.9880   45.5360 C   0  0  0  0  0  0  0  0  0  0  0  0
   52.9070   21.9620   45.6870 O   0  0  0  0  0  0  0  0  0  0  0  0
   53.2530   24.2030   45.9950 N   0  0  0  0  0  0  0  0  0  0  0  0
   54.2860   24.9780   45.6290 C   0  0  0  0  0  0  0  0  0  0  0  0
   54.3680   26.3370   45.9090 O   0  0  0  0  0  0  0  0  0  0  0  0
   57.4870   25.2880   45.2640 C   0  0  0  0  0  0  0  0  0  0  0  0
   58.4810   24.5860   45.9400 C   0  0  0  0  0  0  0  0  0  0  0  0
   58.6156   23.4948   45.9072 H   0  0  0  0  0  0  0  0  0  0  0  0
   59.2570   25.4420   46.6430 N   0  0  0  0  0  0  0  0  0  0  0  0
   58.7810   26.6600   46.4450 N   0  0  0  0  0  0  0  0  0  0  0  0
   59.2120   27.8480   46.9640 C   0  0  0  0  0  0  0  0  0  0  0  0
   60.2400   27.9630   47.7610 N   0  0  0  0  0  0  0  0  0  0  0  0
   60.2690   28.2880   49.1870 C   0  0  0  0  0  0  0  0  0  0  0  0
   61.2566   28.6988   49.4435 H   0  0  0  0  0  0  0  0  0  0  0  0
   60.0755   27.3706   49.7623 H   0  0  0  0  0  0  0  0  0  0  0  0
   59.1880   29.3230   49.5310 C   0  0  0  0  0  0  0  0  0  0  0  0
   58.6779   29.0207   50.4575 H   0  0  0  0  0  0  0  0  0  0  0  0
   58.4658   29.3748   48.7029 H   0  0  0  0  0  0  0  0  0  0  0  0
   59.7960   30.6550   49.7220 N   0  0  0  0  0  0  0  0  0  0  0  0
   61.2640   30.6500   49.4760 C   0  0  0  0  0  0  0  0  0  0  0  0
   61.6164   29.6081   49.4624 H   0  0  0  0  0  0  0  0  0  0  0  0
   61.7413   31.2263   50.2823 H   0  0  0  0  0  0  0  0  0  0  0  0
   61.6360   31.3140   48.1420 C   0  0  0  0  0  0  0  0  0  0  0  0
   61.1534   30.7640   47.3207 H   0  0  0  0  0  0  0  0  0  0  0  0
   62.7305   31.2902   48.0346 H   0  0  0  0  0  0  0  0  0  0  0  0
   61.1920   32.7260   48.1040 N   0  0  0  0  0  0  0  0  0  0  0  0
   61.1500   33.2090   46.7140 C   0  0  0  0  0  0  0  0  0  0  0  0
   61.0547   34.3049   46.7093 H   0  0  0  0  0  0  0  0  0  0  0  0
   62.0767   32.9193   46.1970 H   0  0  0  0  0  0  0  0  0  0  0  0
   60.2872   32.7637   46.1970 H   0  0  0  0  0  0  0  0  0  0  0  0
   59.9030   32.9640   48.7990 C   0  0  0  0  0  0  0  0  0  0  0  0
   59.3222   33.7005   48.2243 H   0  0  0  0  0  0  0  0  0  0  0  0
   60.1296   33.3313   49.8108 H   0  0  0  0  0  0  0  0  0  0  0  0
   59.0710   31.6820   48.9410 C   0  0  0  0  0  0  0  0  0  0  0  0
   58.8534   31.2831   47.9392 H   0  0  0  0  0  0  0  0  0  0  0  0
   58.1398   31.9291   49.4719 H   0  0  0  0  0  0  0  0  0  0  0  0
   58.5240   28.9730   46.6260 N   0  0  0  0  0  0  0  0  0  0  0  0
   57.4250   28.9140   45.8120 C   0  0  0  0  0  0  0  0  0  0  0  0
   56.7750   29.9910   45.4780 N   0  0  0  0  0  0  0  0  0  0  0  0
   57.3200   31.1750   44.8720 C   0  0  0  0  0  0  0  0  0  0  0  0
   57.5520   31.2660   43.4850 C   0  0  0  0  0  0  0  0  0  0  0  0
   57.2893   30.4231   42.8289 H   0  0  0  0  0  0  0  0  0  0  0  0
   58.1150   32.4240   42.9400 C   0  0  0  0  0  0  0  0  0  0  0  0
   58.2796   32.4959   41.8548 H   0  0  0  0  0  0  0  0  0  0  0  0
   58.4690   33.4900   43.7710 C   0  0  0  0  0  0  0  0  0  0  0  0
   58.9031   34.4039   43.3393 H   0  0  0  0  0  0  0  0  0  0  0  0
   58.2710   33.3940   45.1520 C   0  0  0  0  0  0  0  0  0  0  0  0
   58.5580   34.2294   45.8076 H   0  0  0  0  0  0  0  0  0  0  0  0
   57.7090   32.2380   45.7000 C   0  0  0  0  0  0  0  0  0  0  0  0
   57.5707   32.1612   46.7886 H   0  0  0  0  0  0  0  0  0  0  0  0
   57.0220   27.7170   45.3060 N   0  0  0  0  0  0  0  0  0  0  0  0
   57.7230   26.6050   45.6260 C   0  0  0  0  0  0  0  0  0  0  0  0
  1  2  1  0
  2  3  1  0
  3  4  1  0
  4  5  1  0
  5  6  2  0
  5  7  1  0
  7  8  1  0
  8  9  1  0
  2 10  2  0
 10 11  1  0
 11 12  1  0
 11 13  2  0
 13 14  1  0
 14 15  1  0
 15 16  2  3
 16 17  1  0
 17 18  1  0
 17 19  1  0
 17 20  1  0
 20 21  1  0
 20 22  1  0
 20 23  1  0
 23 24  1  0
 24 25  1  0
 24 26  1  0
 24 27  1  0
 27 28  1  0
 27 29  1  0
 27 30  1  0
 30 31  1  0
 31 32  1  0
 31 33  1  0
 31 34  1  0
 30 35  1  0
 35 36  1  0
 35 37  1  0
 35 38  1  0
 38 39  1  0
 38 40  1  0
 15 41  1  0
 41 42  1  0
 42 43  2  3
 43 44  1  0
 44 45  2  0
 45 46  1  0
 45 47  1  0
 47 48  1  0
 47 49  2  0
 49 50  1  0
 49 51  1  0
 51 52  1  0
 51 53  2  0
 53 54  1  0
 42 55  1  0
 55 56  2  0
  8  3  2  0
 56 10  1  0
 56 14  1  0
 38 23  1  0
 53 44  1  0
M  CHG  4   4  -1   7  -1   9  -1  41  -1
M  END
>  <UniqueID>  (92) 
87

>  <SMILES>  (92) 
CN1CCN(CCN=c2[n-]c(=Nc3ccccc3)nc3/c(=C\c4[n-]c(=O)[n-]c4[O-])cnn23)CC1

>  <Energy>  (92) 
155.82880582932347

>  <Genealogy>  (92) 
CN1CCN(CCN=c2[n-]c(=Nc3ccccc3)nc3c(=Cc4[n-]c(=O)[n-]c4[O-])cnn23)CC1 (protonated)
CN1CCN(CCN=c2[n-]c(=Nc3ccccc3)nc3/c(=C\c4[n-]c(=O)[n-]c4[O-])cnn23)CC1 (cis-trans isomerization)
CN1CCN(CCN=c2[n-]c(=Nc3ccccc3)nc3/c(=C\c4[n-]c(=O)[n-]c4[O-])cnn23)CC1 (3D coordinates assigned)
CN1CCN(CCN=c2[n-]c(=Nc3ccccc3)nc3/c(=C\c4[n-]c(=O)[n-]c4[O-])cnn23)CC1 (nonaromatic ring conformer: 155.82880582932347 kcal/mol)

>  <smiles>  (92) 
CN1CCN(CCN=c2[nH]c(=Nc3ccccc3)nc3c(=Cc4[nH]c(=O)[nH]c4O)cnn23)CC1

>  <score_type>  (92) 
oracle

>  <origin>  (92) 
adg

>  <m_score__min__energy>  (92) 
-17.43

>  <m_primary>  (92) 
energy

$$$$
92:0
     RDKit          3D

 24 25  0  0  0  0  0  0  0  0999 V2000
   59.9650   34.9590   46.4700 C   0  0  0  0  0  0  0  0  0  0  0  0
   59.0050   34.3330   45.5170 C   0  0  0  0  0  0  0  0  0  0  0  0
   57.6780   34.5610   45.5220 N   0  0  0  0  0  0  0  0  0  0  0  0
   57.1700   33.8120   44.5560 N   0  0  0  0  0  0  0  0  0  0  0  0
   58.2080   33.1510   44.0070 C   0  0  0  0  0  0  0  0  0  0  0  0
   58.0870   32.2060   42.8570 C   0  0  0  0  0  0  0  0  0  0  0  0
   57.9020   30.8420   43.3450 N   0  0  0  0  0  0  0  0  0  0  0  0
   56.9360   30.5160   44.3580 C   0  0  0  0  0  0  0  0  0  0  0  0
   56.1770   31.4160   44.8130 O   0  0  0  0  0  0  0  0  0  0  0  0
   56.8050   29.1440   44.8820 C   0  0  0  0  0  0  0  0  0  0  0  0
   57.8430   28.2710   45.1740 C   0  0  0  0  0  0  0  0  0  0  0  0
   57.2560   27.1160   45.6410 C   0  0  0  0  0  0  0  0  0  0  0  0
   55.9010   27.3480   45.6100 C   0  0  0  0  0  0  0  0  0  0  0  0
   54.9340   26.4320   46.0040 O   0  0  0  0  0  0  0  0  0  0  0  0
   55.6090   28.5790   45.1530 N   0  0  0  0  0  0  0  0  0  0  0  0
   59.3380   33.4660   44.5920 O   0  0  0  0  0  0  0  0  0  0  0  0
   59.6457   34.7508   47.5019 H   0  0  0  0  0  0  0  0  0  0  0  0
   60.9695   34.5418   46.3057 H   0  0  0  0  0  0  0  0  0  0  0  0
   59.9883   36.0464   46.3057 H   0  0  0  0  0  0  0  0  0  0  0  0
   57.2221   32.4922   42.2405 H   0  0  0  0  0  0  0  0  0  0  0  0
   59.0070   32.2513   42.2557 H   0  0  0  0  0  0  0  0  0  0  0  0
   58.4820   30.0890   42.9140 H   0  0  0  0  0  0  0  0  0  0  0  0
   58.9197   28.4630   45.0561 H   0  0  0  0  0  0  0  0  0  0  0  0
   57.7654   26.1984   45.9704 H   0  0  0  0  0  0  0  0  0  0  0  0
  1  2  1  0
  2  3  2  0
  3  4  1  0
  4  5  2  0
  5  6  1  0
  6  7  1  0
  7  8  1  0
  8  9  2  0
  8 10  1  0
 10 11  2  0
 11 12  1  0
 12 13  2  0
 13 14  1  0
 13 15  1  0
  5 16  1  0
 16  2  1  0
 15 10  1  0
  1 17  1  0
  1 18  1  0
  1 19  1  0
  6 20  1  0
  6 21  1  0
  7 22  1  0
 11 23  1  0
 12 24  1  0
M  CHG  2  14  -1  15  -1
M  END
>  <UniqueID>  (93) 
88

>  <SMILES>  (93) 
Cc1nnc(CNC(=O)c2ccc([O-])[n-]2)o1

>  <Energy>  (93) 
78.81582409160067

>  <Genealogy>  (93) 
Cc1nnc(CNC(=O)c2ccc([O-])[n-]2)o1 (protonated)
Cc1nnc(CNC(=O)c2ccc([O-])[n-]2)o1 (3D coordinates assigned)
Cc1nnc(CNC(=O)c2ccc([O-])[n-]2)o1 (optimized conformer: 78.81582409160067 kcal/mol)

>  <smiles>  (93) 
Cc1nnc(CNC(=O)c2ccc(O)[nH]2)o1

>  <score_type>  (93) 
oracle

>  <origin>  (93) 
adg

>  <m_score__min__energy>  (93) 
-12.19

>  <m_primary>  (93) 
energy

$$$$
93:0
     RDKit          3D

 59 60  0  0  0  0  0  0  0  0999 V2000
   62.9760   33.2990   47.0680 C   0  0  0  0  0  0  0  0  0  0  0  0
   62.4270   33.0050   48.4620 C   0  0  0  0  0  0  0  0  0  0  0  0
   61.4840   31.7920   48.4660 C   0  0  0  0  0  0  0  0  0  0  0  0
   60.4190   31.9340   49.4800 N   0  0  0  0  0  0  0  0  0  0  0  0
   60.3740   33.1120   50.1820 C   0  0  0  0  0  0  0  0  0  0  0  0
   59.3610   33.3650   51.1030 C   0  0  0  0  0  0  0  0  0  0  0  0
   58.3770   32.4100   51.3180 C   0  0  0  0  0  0  0  0  0  0  0  0
   57.4560   32.6340   52.1500 O   0  0  0  0  0  0  0  0  0  0  0  0
   58.4140   31.2070   50.6140 C   0  0  0  0  0  0  0  0  0  0  0  0
   57.4300   30.2490   50.8520 O   0  0  0  0  0  0  0  0  0  0  0  0
   59.4490   30.9670   49.6850 C   0  0  0  0  0  0  0  0  0  0  0  0
   59.4240   29.6910   48.9240 C   0  0  0  0  0  0  0  0  0  0  0  0
   59.3500   28.5850   49.5190 O   0  0  0  0  0  0  0  0  0  0  0  0
   59.4560   29.7290   47.4960 N   0  0  0  0  0  0  0  0  0  0  0  0
   58.2630   29.6870   46.6590 C   0  0  0  0  0  0  0  0  0  0  0  0
   58.1070   31.0020   45.8720 C   0  0  2  0  0  0  0  0  0  0  0  0
   57.7720   32.2100   46.7740 C   0  0  0  0  0  0  0  0  0  0  0  0
   58.5590   33.4570   46.4380 C   0  0  0  0  0  0  0  0  0  0  0  0
   58.5600   33.9670   45.1280 C   0  0  0  0  0  0  0  0  0  0  0  0
   59.2380   35.1540   44.8340 C   0  0  0  0  0  0  0  0  0  0  0  0
   59.9310   35.8340   45.8400 C   0  0  0  0  0  0  0  0  0  0  0  0
   59.9500   35.3250   47.1400 C   0  0  0  0  0  0  0  0  0  0  0  0
   59.2630   34.1440   47.4420 C   0  0  0  0  0  0  0  0  0  0  0  0
   57.1000   30.8630   44.8220 N   0  0  0  0  0  0  0  0  0  0  0  0
   56.5300   29.6120   44.4350 C   0  0  0  0  0  0  0  0  0  0  0  0
   55.4320   29.2600   44.9410 O   0  0  0  0  0  0  0  0  0  0  0  0
   57.1940   28.8020   43.5020 O   0  0  0  0  0  0  0  0  0  0  0  0
   58.0810   27.7120   43.7990 C   0  0  0  0  0  0  0  0  0  0  0  0
   58.1520   26.7340   42.6110 C   0  0  0  0  0  0  0  0  0  0  0  0
   57.5030   26.9750   45.0160 C   0  0  0  0  0  0  0  0  0  0  0  0
   59.4850   28.2370   44.1560 C   0  0  0  0  0  0  0  0  0  0  0  0
   63.9426   33.8166   47.1563 H   0  0  0  0  0  0  0  0  0  0  0  0
   63.1145   32.3543   46.5217 H   0  0  0  0  0  0  0  0  0  0  0  0
   62.2665   33.9379   46.5217 H   0  0  0  0  0  0  0  0  0  0  0  0
   63.2693   32.8021   49.1397 H   0  0  0  0  0  0  0  0  0  0  0  0
   61.8524   33.8828   48.7926 H   0  0  0  0  0  0  0  0  0  0  0  0
   61.0208   31.6967   47.4728 H   0  0  0  0  0  0  0  0  0  0  0  0
   62.0753   30.8975   48.7113 H   0  0  0  0  0  0  0  0  0  0  0  0
   61.1527   33.8706   50.0140 H   0  0  0  0  0  0  0  0  0  0  0  0
   59.3406   34.3154   51.6565 H   0  0  0  0  0  0  0  0  0  0  0  0
   58.3474   28.8496   45.9508 H   0  0  0  0  0  0  0  0  0  0  0  0
   57.3818   29.5525   47.3036 H   0  0  0  0  0  0  0  0  0  0  0  0
   59.0863   31.2047   45.4138 H   0  0  0  0  0  0  0  0  0  0  0  0
   56.7008   32.4363   46.6675 H   0  0  0  0  0  0  0  0  0  0  0  0
   58.0414   31.9275   47.8024 H   0  0  0  0  0  0  0  0  0  0  0  0
   58.0251   33.4300   44.3308 H   0  0  0  0  0  0  0  0  0  0  0  0
   59.2261   35.5536   43.8092 H   0  0  0  0  0  0  0  0  0  0  0  0
   60.4609   36.7695   45.6075 H   0  0  0  0  0  0  0  0  0  0  0  0
   60.5061   35.8534   47.9283 H   0  0  0  0  0  0  0  0  0  0  0  0
   59.2739   33.7516   48.4696 H   0  0  0  0  0  0  0  0  0  0  0  0
   58.2268   25.7035   42.9884 H   0  0  0  0  0  0  0  0  0  0  0  0
   57.2442   26.8350   41.9981 H   0  0  0  0  0  0  0  0  0  0  0  0
   59.0357   26.9651   41.9981 H   0  0  0  0  0  0  0  0  0  0  0  0
   57.8722   27.4457   45.9391 H   0  0  0  0  0  0  0  0  0  0  0  0
   56.4047   27.0299   44.9903 H   0  0  0  0  0  0  0  0  0  0  0  0
   57.8181   25.9214   44.9903 H   0  0  0  0  0  0  0  0  0  0  0  0
   59.5940   28.2778   45.2498 H   0  0  0  0  0  0  0  0  0  0  0  0
   60.2462   27.5628   43.7365 H   0  0  0  0  0  0  0  0  0  0  0  0
   59.6171   29.2453   43.7365 H   0  0  0  0  0  0  0  0  0  0  0  0
  1  2  1  0
  2  3  1  0
  3  4  1  0
  4  5  1  0
  5  6  2  0
  6  7  1  0
  7  8  2  0
  7  9  1  0
  9 10  1  0
  9 11  2  0
 11 12  1  0
 12 13  2  0
 12 14  1  0
 14 15  1  0
 15 16  1  0
 16 17  1  0
 17 18  1  0
 18 19  2  0
 19 20  1  0
 20 21  2  0
 21 22  1  0
 22 23  2  0
 16 24  1  0
 24 25  1  0
 25 26  2  0
 25 27  1  0
 27 28  1  0
 28 29  1  0
 28 30  1  0
 28 31  1  0
 11  4  1  0
 23 18  1  0
  1 32  1  0
  1 33  1  0
  1 34  1  0
  2 35  1  0
  2 36  1  0
  3 37  1  0
  3 38  1  0
  5 39  1  0
  6 40  1  0
 15 41  1  0
 15 42  1  0
 16 43  1  6
 17 44  1  0
 17 45  1  0
 19 46  1  0
 20 47  1  0
 21 48  1  0
 22 49  1  0
 23 50  1  0
 29 51  1  0
 29 52  1  0
 29 53  1  0
 30 54  1  0
 30 55  1  0
 30 56  1  0
 31 57  1  0
 31 58  1  0
 31 59  1  0
M  CHG  3  10  -1  14  -1  24  -1
M  END
>  <UniqueID>  (94) 
89

>  <SMILES>  (94) 
CCCn1ccc(=O)c([O-])c1C(=O)[N-]C[C@H](Cc1ccccc1)[N-]C(=O)OC(C)(C)C

>  <Energy>  (94) 
49.007321774866426

>  <Genealogy>  (94) 
CCCn1ccc(=O)c([O-])c1C(=O)[N-]CC(Cc1ccccc1)[N-]C(=O)OC(C)(C)C (protonated)
CCCn1ccc(=O)c([O-])c1C(=O)[N-]C[C@H](Cc1ccccc1)[N-]C(=O)OC(C)(C)C (chirality)
CCCn1ccc(=O)c([O-])c1C(=O)[N-]C[C@H](Cc1ccccc1)[N-]C(=O)OC(C)(C)C (3D coordinates assigned)
CCCn1ccc(=O)c([O-])c1C(=O)[N-]C[C@H](Cc1ccccc1)[N-]C(=O)OC(C)(C)C (optimized conformer: 49.007321774866426 kcal/mol)

>  <smiles>  (94) 
CCCn1ccc(=O)c(O)c1C(=O)NCC(Cc1ccccc1)NC(=O)OC(C)(C)C

>  <score_type>  (94) 
oracle

>  <origin>  (94) 
adg

>  <m_score__min__energy>  (94) 
-14.31

>  <m_primary>  (94) 
energy

$$$$
94:0
     RDKit          3D

 43 44  0  0  0  0  0  0  0  0999 V2000
   58.7323   31.0686   44.3081 H   0  0  0  0  0  0  0  0  0  0  0  0
   57.7370   31.5300   44.2280 C   0  0  0  0  0  0  0  0  0  0  0  0
   56.6810   30.8350   44.4990 N   0  0  0  0  0  0  0  0  0  0  0  0
   56.6630   29.9650   45.5650 O   0  0  0  0  0  0  0  0  0  0  0  0
   57.6470   28.9460   45.6820 C   0  0  0  0  0  0  0  0  0  0  0  0
   57.1957   28.0611   46.1544 H   0  0  0  0  0  0  0  0  0  0  0  0
   58.0174   28.6958   44.6769 H   0  0  0  0  0  0  0  0  0  0  0  0
   58.8060   29.4170   46.5210 C   0  0  0  0  0  0  0  0  0  0  0  0
   58.7360   29.3510   47.9230 C   0  0  0  0  0  0  0  0  0  0  0  0
   57.8350   28.9487   48.4092 H   0  0  0  0  0  0  0  0  0  0  0  0
   59.8100   29.7960   48.7020 C   0  0  0  0  0  0  0  0  0  0  0  0
   59.7468   29.7531   49.7993 H   0  0  0  0  0  0  0  0  0  0  0  0
   60.9610   30.2940   48.0900 C   0  0  0  0  0  0  0  0  0  0  0  0
   61.8062   30.6370   48.7048 H   0  0  0  0  0  0  0  0  0  0  0  0
   61.0400   30.3570   46.6960 C   0  0  0  0  0  0  0  0  0  0  0  0
   61.9479   30.7498   46.2149 H   0  0  0  0  0  0  0  0  0  0  0  0
   59.9680   29.9220   45.9120 C   0  0  0  0  0  0  0  0  0  0  0  0
   60.0337   29.9749   44.8152 H   0  0  0  0  0  0  0  0  0  0  0  0
   57.6100   32.9590   43.8060 C   0  0  0  0  0  0  0  0  0  0  0  0
   56.6678   33.0936   43.2545 H   0  0  0  0  0  0  0  0  0  0  0  0
   58.4609   33.2219   43.1604 H   0  0  0  0  0  0  0  0  0  0  0  0
   57.6120   33.8560   45.0170 C   0  0  0  0  0  0  0  0  0  0  0  0
   56.6020   34.5910   45.2050 O   0  0  0  0  0  0  0  0  0  0  0  0
   58.7140   33.8610   46.0220 C   0  0  0  0  0  0  0  0  0  0  0  0
   60.0190   34.2050   45.6210 C   0  0  0  0  0  0  0  0  0  0  0  0
   60.2121   34.4738   44.5720 H   0  0  0  0  0  0  0  0  0  0  0  0
   61.0720   34.2090   46.5400 C   0  0  0  0  0  0  0  0  0  0  0  0
   62.0849   34.4831   46.2099 H   0  0  0  0  0  0  0  0  0  0  0  0
   60.8450   33.8660   47.8790 C   0  0  0  0  0  0  0  0  0  0  0  0
   61.9880   33.8280   48.8630 C   0  0  0  0  0  0  0  0  0  0  0  0
   61.9070   32.9115   49.4659 H   0  0  0  0  0  0  0  0  0  0  0  0
   61.9228   34.7269   49.4937 H   0  0  0  0  0  0  0  0  0  0  0  0
   63.3530   33.8400   48.1610 C   0  0  0  0  0  0  0  0  0  0  0  0
   64.1304   34.0693   48.9047 H   0  0  0  0  0  0  0  0  0  0  0  0
   63.3151   34.6018   47.3684 H   0  0  0  0  0  0  0  0  0  0  0  0
   63.6830   32.5020   47.5040 C   0  0  0  0  0  0  0  0  0  0  0  0
   63.8691   31.7473   48.2824 H   0  0  0  0  0  0  0  0  0  0  0  0
   62.8368   32.1822   46.8781 H   0  0  0  0  0  0  0  0  0  0  0  0
   64.5808   32.6124   46.8781 H   0  0  0  0  0  0  0  0  0  0  0  0
   59.5490   33.5240   48.2880 C   0  0  0  0  0  0  0  0  0  0  0  0
   59.3614   33.2520   49.3372 H   0  0  0  0  0  0  0  0  0  0  0  0
   58.4940   33.5260   47.3730 C   0  0  0  0  0  0  0  0  0  0  0  0
   57.4805   33.2633   47.7104 H   0  0  0  0  0  0  0  0  0  0  0  0
  1  2  1  0
  2  3  2  0
  3  4  1  0
  4  5  1  0
  5  6  1  0
  5  7  1  0
  5  8  1  0
  8  9  2  0
  9 10  1  0
  9 11  1  0
 11 12  1  0
 11 13  2  0
 13 14  1  0
 13 15  1  0
 15 16  1  0
 15 17  2  0
 17 18  1  0
  2 19  1  0
 19 20  1  0
 19 21  1  0
 19 22  1  0
 22 23  2  0
 22 24  1  0
 24 25  2  0
 25 26  1  0
 25 27  1  0
 27 28  1  0
 27 29  2  0
 29 30  1  0
 30 31  1  0
 30 32  1  0
 30 33  1  0
 33 34  1  0
 33 35  1  0
 33 36  1  0
 36 37  1  0
 36 38  1  0
 36 39  1  0
 29 40  1  0
 40 41  1  0
 40 42  2  0
 42 43  1  0
 17  8  1  0
 42 24  1  0
M  END
>  <UniqueID>  (95) 
90

>  <SMILES>  (95) 
CCCc1ccc(C(=O)C/C=N/OCc2ccccc2)cc1

>  <Energy>  (95) 
29.312604296903327

>  <Genealogy>  (95) 
CCCc1ccc(C(=O)C/C=N/OCc2ccccc2)cc1 (cis-trans isomerization)
CCCc1ccc(C(=O)C/C=N/OCc2ccccc2)cc1 (3D coordinates assigned)
CCCc1ccc(C(=O)C/C=N/OCc2ccccc2)cc1 (optimized conformer: 29.312604296903327 kcal/mol)

>  <smiles>  (95) 
CCCc1ccc(C(=O)CC=NOCc2ccccc2)cc1

>  <score_type>  (95) 
oracle

>  <origin>  (95) 
adg

>  <m_score__min__energy>  (95) 
-8.2300000000000004

>  <m_primary>  (95) 
energy

$$$$
95:0
     RDKit          3D

 35 37  0  0  0  0  0  0  0  0999 V2000
   54.8210   26.3240   45.6890 F   0  0  0  0  0  0  0  0  0  0  0  0
   55.2580   25.0400   45.6270 C   0  0  0  0  0  0  0  0  0  0  0  0
   54.3300   24.0020   45.7520 C   0  0  0  0  0  0  0  0  0  0  0  0
   54.7480   22.6730   45.6750 C   0  0  0  0  0  0  0  0  0  0  0  0
   56.0950   22.3760   45.4660 C   0  0  0  0  0  0  0  0  0  0  0  0
   57.0360   23.4040   45.3390 C   0  0  0  0  0  0  0  0  0  0  0  0
   58.7170   22.9620   45.0450 Cl  0  0  0  0  0  0  0  0  0  0  0  0
   56.6250   24.7540   45.4350 C   0  0  0  0  0  0  0  0  0  0  0  0
   57.6100   25.8830   45.2750 C   0  0  0  0  0  0  0  0  0  0  0  0
   57.3310   27.1260   46.5790 S   0  0  0  0  0  0  0  0  0  0  0  0
   57.5650   28.5070   45.4660 C   0  0  0  0  0  0  0  0  0  0  0  0
   58.3880   28.4810   44.3990 N   0  0  0  0  0  0  0  0  0  0  0  0
   58.2760   29.6780   43.8480 N   0  0  0  0  0  0  0  0  0  0  0  0
   57.4000   30.3830   44.5840 C   0  0  0  0  0  0  0  0  0  0  0  0
   57.0150   31.8030   44.3220 C   0  0  0  0  0  0  0  0  0  0  0  0
   57.9050   32.7270   45.1030 C   0  0  0  0  0  0  0  0  0  0  0  0
   58.4420   33.8750   44.4950 C   0  0  0  0  0  0  0  0  0  0  0  0
   59.2410   34.7530   45.2330 C   0  0  0  0  0  0  0  0  0  0  0  0
   59.5030   34.4990   46.5820 C   0  0  0  0  0  0  0  0  0  0  0  0
   58.9610   33.3660   47.1980 C   0  0  0  0  0  0  0  0  0  0  0  0
   59.2810   33.0530   48.8950 Cl  0  0  0  0  0  0  0  0  0  0  0  0
   58.1610   32.4840   46.4630 C   0  0  0  0  0  0  0  0  0  0  0  0
   56.9610   29.6660   45.5900 O   0  0  0  0  0  0  0  0  0  0  0  0
   53.2666   24.2337   45.9116 H   0  0  0  0  0  0  0  0  0  0  0  0
   54.0152   21.8592   45.7791 H   0  0  0  0  0  0  0  0  0  0  0  0
   56.4195   21.3270   45.4006 H   0  0  0  0  0  0  0  0  0  0  0  0
   58.6341   25.4899   45.3568 H   0  0  0  0  0  0  0  0  0  0  0  0
   57.4732   26.3506   44.2888 H   0  0  0  0  0  0  0  0  0  0  0  0
   58.7920   29.9970   42.9980 H   0  0  0  0  0  0  0  0  0  0  0  0
   57.1198   32.0170   43.2481 H   0  0  0  0  0  0  0  0  0  0  0  0
   55.9711   31.9581   44.6322 H   0  0  0  0  0  0  0  0  0  0  0  0
   58.2328   34.0830   43.4353 H   0  0  0  0  0  0  0  0  0  0  0  0
   59.6647   35.6462   44.7506 H   0  0  0  0  0  0  0  0  0  0  0  0
   60.1352   35.1897   47.1592 H   0  0  0  0  0  0  0  0  0  0  0  0
   57.7310   31.5973   46.9517 H   0  0  0  0  0  0  0  0  0  0  0  0
  1  2  1  0
  2  3  2  0
  3  4  1  0
  4  5  2  0
  5  6  1  0
  6  7  1  0
  6  8  2  0
  8  9  1  0
  9 10  1  0
 10 11  1  0
 11 12  2  0
 12 13  1  0
 13 14  2  0
 14 15  1  0
 15 16  1  0
 16 17  2  0
 17 18  1  0
 18 19  2  0
 19 20  1  0
 20 21  1  0
 20 22  2  0
 14 23  1  0
  8  2  1  0
 23 11  1  0
 22 16  1  0
  3 24  1  0
  4 25  1  0
  5 26  1  0
  9 27  1  0
  9 28  1  0
 13 29  1  0
 15 30  1  0
 15 31  1  0
 17 32  1  0
 18 33  1  0
 19 34  1  0
 22 35  1  0
M  CHG  1  13   1
M  END
>  <UniqueID>  (96) 
91

>  <SMILES>  (96) 
Fc1cccc(Cl)c1CSc1n[nH+]c(Cc2cccc(Cl)c2)o1

>  <Energy>  (96) 
68.29324654529877

>  <Genealogy>  (96) 
Fc1cccc(Cl)c1CSc1n[nH+]c(Cc2cccc(Cl)c2)o1 (protonated)
Fc1cccc(Cl)c1CSc1n[nH+]c(Cc2cccc(Cl)c2)o1 (3D coordinates assigned)
Fc1cccc(Cl)c1CSc1n[nH+]c(Cc2cccc(Cl)c2)o1 (optimized conformer: 68.29324654529877 kcal/mol)

>  <smiles>  (96) 
Fc1cccc(Cl)c1CSc1nnc(Cc2cccc(Cl)c2)o1

>  <score_type>  (96) 
oracle

>  <origin>  (96) 
adg

>  <m_score__min__energy>  (96) 
-7.1699999999999999

>  <m_primary>  (96) 
energy

$$$$
96:0
     RDKit          3D

 51 53  0  0  0  0  0  0  0  0999 V2000
   62.8640   33.7350   46.8390 C   0  0  0  0  0  0  0  0  0  0  0  0
   61.9310   32.6510   47.3650 C   0  0  0  0  0  0  0  0  0  0  0  0
   60.4800   33.3760   48.2140 S   0  0  0  0  0  0  0  0  0  0  0  0
   59.4430   33.4480   46.7490 C   0  0  0  0  0  0  0  0  0  0  0  0
   59.5760   34.5110   45.8460 C   0  0  0  0  0  0  0  0  0  0  0  0
   58.7500   34.5810   44.7210 C   0  0  0  0  0  0  0  0  0  0  0  0
   57.7790   33.5980   44.5010 C   0  0  0  0  0  0  0  0  0  0  0  0
   57.6310   32.5310   45.4100 C   0  0  0  0  0  0  0  0  0  0  0  0
   56.6710   31.5240   45.2380 O   0  0  0  0  0  0  0  0  0  0  0  0
   56.4470   30.8240   44.0180 C   0  0  0  0  0  0  0  0  0  0  0  0
   56.9450   29.4190   44.1500 C   0  0  0  0  0  0  0  0  0  0  0  0
   57.3750   28.8170   43.1300 O   0  0  0  0  0  0  0  0  0  0  0  0
   56.9510   28.7780   45.4330 N   0  0  0  0  0  0  0  0  0  0  0  0
   57.2650   27.3900   45.6150 C   0  0  0  0  0  0  0  0  0  0  0  0
   58.5270   26.8150   45.6670 C   0  0  0  0  0  0  0  0  0  0  0  0
   59.8310   27.5050   45.4010 C   0  0  0  0  0  0  0  0  0  0  0  0
   58.3820   25.4840   45.8890 N   0  0  0  0  0  0  0  0  0  0  0  0
   59.4690   24.5020   45.9480 C   0  0  0  0  0  0  0  0  0  0  0  0
   57.0850   25.2100   46.0380 N   0  0  0  0  0  0  0  0  0  0  0  0
   56.5250   23.9260   46.3660 C   0  0  0  0  0  0  0  0  0  0  0  0
   56.2500   22.9940   45.3510 C   0  0  0  0  0  0  0  0  0  0  0  0
   55.6980   21.7490   45.6680 C   0  0  0  0  0  0  0  0  0  0  0  0
   55.4100   21.4290   46.9970 C   0  0  0  0  0  0  0  0  0  0  0  0
   55.6680   22.3550   48.0110 C   0  0  0  0  0  0  0  0  0  0  0  0
   56.2200   23.6020   47.6980 C   0  0  0  0  0  0  0  0  0  0  0  0
   56.3900   26.3540   45.8720 C   0  0  0  0  0  0  0  0  0  0  0  0
   55.1390   26.4530   46.0020 O   0  0  0  0  0  0  0  0  0  0  0  0
   58.4670   32.4670   46.5320 C   0  0  0  0  0  0  0  0  0  0  0  0
   63.3220   34.2671   47.6858 H   0  0  0  0  0  0  0  0  0  0  0  0
   63.6525   33.2743   46.2258 H   0  0  0  0  0  0  0  0  0  0  0  0
   62.2910   34.4461   46.2258 H   0  0  0  0  0  0  0  0  0  0  0  0
   61.5827   32.0376   46.5209 H   0  0  0  0  0  0  0  0  0  0  0  0
   62.4860   32.0370   48.0896 H   0  0  0  0  0  0  0  0  0  0  0  0
   60.3312   35.2910   46.0227 H   0  0  0  0  0  0  0  0  0  0  0  0
   58.8634   35.4103   44.0073 H   0  0  0  0  0  0  0  0  0  0  0  0
   57.1289   33.6581   43.6157 H   0  0  0  0  0  0  0  0  0  0  0  0
   55.3700   30.8118   43.7948 H   0  0  0  0  0  0  0  0  0  0  0  0
   56.9850   31.3284   43.2019 H   0  0  0  0  0  0  0  0  0  0  0  0
   56.7920   29.3660   46.2820 H   0  0  0  0  0  0  0  0  0  0  0  0
   60.3126   27.7598   46.3566 H   0  0  0  0  0  0  0  0  0  0  0  0
   60.4887   26.8369   44.8256 H   0  0  0  0  0  0  0  0  0  0  0  0
   59.6486   28.4246   44.8256 H   0  0  0  0  0  0  0  0  0  0  0  0
   59.7099   24.2844   46.9990 H   0  0  0  0  0  0  0  0  0  0  0  0
   59.1543   23.5760   45.4446 H   0  0  0  0  0  0  0  0  0  0  0  0
   60.3584   24.9089   45.4446 H   0  0  0  0  0  0  0  0  0  0  0  0
   56.4699   23.2448   44.3028 H   0  0  0  0  0  0  0  0  0  0  0  0
   55.4903   21.0208   44.8701 H   0  0  0  0  0  0  0  0  0  0  0  0
   54.9799   20.4475   47.2453 H   0  0  0  0  0  0  0  0  0  0  0  0
   55.4369   22.1034   49.0566 H   0  0  0  0  0  0  0  0  0  0  0  0
   56.4158   24.3311   48.4980 H   0  0  0  0  0  0  0  0  0  0  0  0
   58.3562   31.6397   47.2485 H   0  0  0  0  0  0  0  0  0  0  0  0
  1  2  1  0
  2  3  1  0
  3  4  1  0
  4  5  2  0
  5  6  1  0
  6  7  2  0
  7  8  1  0
  8  9  1  0
  9 10  1  0
 10 11  1  0
 11 12  2  0
 11 13  1  0
 13 14  1  0
 14 15  2  0
 15 16  1  0
 15 17  1  0
 17 18  1  0
 17 19  1  0
 19 20  1  0
 20 21  2  0
 21 22  1  0
 22 23  2  0
 23 24  1  0
 24 25  2  0
 19 26  1  0
 26 27  2  0
  8 28  2  0
 28  4  1  0
 26 14  1  0
 25 20  1  0
  1 29  1  0
  1 30  1  0
  1 31  1  0
  2 32  1  0
  2 33  1  0
  5 34  1  0
  6 35  1  0
  7 36  1  0
 10 37  1  0
 10 38  1  0
 13 39  1  0
 16 40  1  0
 16 41  1  0
 16 42  1  0
 18 43  1  0
 18 44  1  0
 18 45  1  0
 21 46  1  0
 22 47  1  0
 23 48  1  0
 24 49  1  0
 25 50  1  0
 28 51  1  0
M  END
>  <UniqueID>  (97) 
92

>  <SMILES>  (97) 
CCSc1cccc(OCC(=O)Nc2c(C)n(C)n(-c3ccccc3)c2=O)c1

>  <Energy>  (97) 
89.12526508193505

>  <Genealogy>  (97) 
CCSc1cccc(OCC(=O)Nc2c(C)n(C)n(-c3ccccc3)c2=O)c1 (3D coordinates assigned)
CCSc1cccc(OCC(=O)Nc2c(C)n(C)n(-c3ccccc3)c2=O)c1 (optimized conformer: 89.12526508193505 kcal/mol)

>  <smiles>  (97) 
CCSc1cccc(OCC(=O)Nc2c(C)n(C)n(-c3ccccc3)c2=O)c1

>  <score_type>  (97) 
oracle

>  <origin>  (97) 
adg

>  <m_score__min__energy>  (97) 
-9.3399999999999999

>  <m_primary>  (97) 
energy

$$$$
97:0
     RDKit          3D

 40 42  0  0  1  0  0  0  0  0999 V2000
   59.5100   26.8300   44.9310 O   0  0  0  0  0  0  0  0  0  0  0  0
   58.3170   27.2460   44.8300 C   0  0  0  0  0  0  0  0  0  0  0  0
   57.3120   26.2510   44.7250 N   0  0  0  0  0  0  0  0  0  0  0  0
   57.6170   24.8440   44.7300 C   0  0  0  0  0  0  0  0  0  0  0  0
   58.4740   24.2810   45.6490 C   0  0  0  0  0  0  0  0  0  0  0  0
   58.7540   22.9210   45.6350 C   0  0  0  0  0  0  0  0  0  0  0  0
   58.1630   22.1210   44.6790 C   0  0  0  0  0  0  0  0  0  0  0  0
   57.2910   22.6810   43.7390 C   0  0  0  0  0  0  0  0  0  0  0  0
   56.6510   21.8130   42.7040 C   0  0  0  0  0  0  0  0  0  0  0  0
   56.2270   20.6070   43.2380 O   0  0  0  0  0  0  0  0  0  0  0  0
   57.0240   24.0530   43.7720 C   0  0  0  0  0  0  0  0  0  0  0  0
   58.0190   28.6520   44.8260 C   0  0  0  0  0  0  0  0  0  0  0  0
   57.0000   29.2140   44.0820 C   0  0  0  0  0  0  0  0  0  0  0  0
   56.7290   30.5750   44.0930 C   0  0  0  0  0  0  0  0  0  0  0  0
   57.4930   31.3960   44.8640 C   0  0  0  0  0  0  0  0  0  0  0  0
   57.2550   32.7980   44.9080 N   0  0  0  0  0  0  0  0  0  0  0  0
   58.0260   33.6090   45.5600 C   0  0  0  0  0  0  0  0  0  0  0  0
   58.8190   34.5310   44.8830 C   0  0  0  0  0  0  0  0  0  0  0  0
   59.6330   35.3840   45.6060 C   0  0  0  0  0  0  0  0  0  0  0  0
   59.6100   35.2710   46.9560 N   0  0  0  0  0  0  0  0  0  0  0  0
   58.8310   34.3690   47.5880 C   0  0  0  0  0  0  0  0  0  0  0  0
   58.0320   33.5290   46.9030 N   0  0  0  0  0  0  0  0  0  0  0  0
   58.5260   30.8760   45.6260 C   0  0  0  0  0  0  0  0  0  0  0  0
   58.7730   29.5150   45.5960 C   0  0  0  0  0  0  0  0  0  0  0  0
   56.3140   26.4930   44.6390 H   0  0  0  0  0  0  0  0  0  0  0  0
   58.9460   24.9210   46.4090 H   0  0  0  0  0  0  0  0  0  0  0  0
   59.4392   22.4865   46.3777 H   0  0  0  0  0  0  0  0  0  0  0  0
   58.3774   21.0424   44.6558 H   0  0  0  0  0  0  0  0  0  0  0  0
   55.7829   22.3413   42.2828 H   0  0  0  0  0  0  0  0  0  0  0  0
   57.3982   21.5996   41.9255 H   0  0  0  0  0  0  0  0  0  0  0  0
   56.9900   19.9740   43.3200 H   0  0  0  0  0  0  0  0  0  0  0  0
   56.3414   24.4995   43.0339 H   0  0  0  0  0  0  0  0  0  0  0  0
   56.3786   28.5567   43.4560 H   0  0  0  0  0  0  0  0  0  0  0  0
   55.9077   30.9847   43.4867 H   0  0  0  0  0  0  0  0  0  0  0  0
   58.7985   34.5807   43.7843 H   0  0  0  0  0  0  0  0  0  0  0  0
   60.2736   36.1247   45.1049 H   0  0  0  0  0  0  0  0  0  0  0  0
   60.2320   35.9250   47.5000 H   0  0  0  0  0  0  0  0  0  0  0  0
   58.8489   34.3186   48.6867 H   0  0  0  0  0  0  0  0  0  0  0  0
   59.1443   31.5388   46.2492 H   0  0  0  0  0  0  0  0  0  0  0  0
   59.5947   29.1083   46.2038 H   0  0  0  0  0  0  0  0  0  0  0  0
  1  2  2  0
  2  3  1  0
  3  4  1  0
  4  5  2  0
  5  6  1  0
  6  7  2  0
  7  8  1  0
  8  9  1  0
  9 10  1  0
  8 11  2  0
  2 12  1  0
 12 13  2  0
 13 14  1  0
 14 15  2  0
 15 16  1  0
 16 17  2  0
 17 18  1  0
 18 19  2  0
 19 20  1  0
 20 21  1  0
 21 22  2  0
 15 23  1  0
 23 24  2  0
 11  4  1  0
 24 12  1  0
 22 17  1  0
  3 25  1  0
  5 26  1  0
  6 27  1  0
  7 28  1  0
  9 29  1  0
  9 30  1  0
 10 31  1  0
 11 32  1  0
 13 33  1  0
 14 34  1  0
 18 35  1  0
 19 36  1  0
 20 37  1  0
 21 38  1  0
 23 39  1  0
 24 40  1  0
M  END
>  <smiles>  (98) 
O=C(Nc1cccc(CO)c1)c1ccc(N=c2cc[nH]cn2)cc1

>  <score_type>  (98) 
oracle

>  <origin>  (98) 
adg

>  <m_score__min__energy>  (98) 
-8.0099999999999998

>  <m_primary>  (98) 
energy

$$$$
98:0
     RDKit          3D

 34 36  0  0  0  0  0  0  0  0999 V2000
   55.4680   29.6770   44.8460 O   0  0  0  0  0  0  0  0  0  0  0  0
   56.6880   29.7700   44.5400 C   0  0  0  0  0  0  0  0  0  0  0  0
   57.4340   28.5210   44.1590 C   0  0  0  0  0  0  0  0  0  0  0  0
   58.0850   27.9190   45.3830 C   0  0  0  0  0  0  0  0  0  0  0  0
   59.3050   28.4620   45.8290 C   0  0  0  0  0  0  0  0  0  0  0  0
   60.0010   27.8780   46.8880 C   0  0  0  0  0  0  0  0  0  0  0  0
   59.5020   26.7320   47.5040 C   0  0  0  0  0  0  0  0  0  0  0  0
   58.3000   26.1710   47.0690 C   0  0  0  0  0  0  0  0  0  0  0  0
   57.5760   26.7560   46.0170 C   0  0  0  0  0  0  0  0  0  0  0  0
   56.3400   26.1550   45.6070 N   0  0  0  0  0  0  0  0  0  0  0  0
   56.3430   25.0160   45.0970 O   0  0  0  0  0  0  0  0  0  0  0  0
   55.1430   26.6980   46.0130 O   0  0  0  0  0  0  0  0  0  0  0  0
   57.3700   31.0820   44.6590 C   0  0  0  0  0  0  0  0  0  0  0  0
   57.7730   31.5690   45.9110 C   0  0  0  0  0  0  0  0  0  0  0  0
   58.3970   32.8160   46.0020 C   0  0  0  0  0  0  0  0  0  0  0  0
   58.8070   33.3430   47.2360 C   0  0  0  0  0  0  0  0  0  0  0  0
   59.4280   34.5950   47.2860 C   0  0  0  0  0  0  0  0  0  0  0  0
   59.6440   35.3220   46.1110 C   0  0  0  0  0  0  0  0  0  0  0  0
   59.2400   34.8000   44.8780 C   0  0  0  0  0  0  0  0  0  0  0  0
   58.6160   33.5480   44.8170 C   0  0  0  0  0  0  0  0  0  0  0  0
   58.2340   33.0540   43.6440 O   0  0  0  0  0  0  0  0  0  0  0  0
   57.6330   31.8730   43.5220 C   0  0  0  0  0  0  0  0  0  0  0  0
   57.2880   31.4830   42.3750 O   0  0  0  0  0  0  0  0  0  0  0  0
   56.7316   27.7945   43.7245 H   0  0  0  0  0  0  0  0  0  0  0  0
   58.2106   28.7728   43.4218 H   0  0  0  0  0  0  0  0  0  0  0  0
   59.7141   29.3568   45.3370 H   0  0  0  0  0  0  0  0  0  0  0  0
   60.9446   28.3227   47.2370 H   0  0  0  0  0  0  0  0  0  0  0  0
   60.0558   26.2689   48.3339 H   0  0  0  0  0  0  0  0  0  0  0  0
   57.9160   25.2619   47.5548 H   0  0  0  0  0  0  0  0  0  0  0  0
   57.5985   30.9715   46.8180 H   0  0  0  0  0  0  0  0  0  0  0  0
   58.6404   32.7728   48.1618 H   0  0  0  0  0  0  0  0  0  0  0  0
   59.7478   35.0096   48.2534 H   0  0  0  0  0  0  0  0  0  0  0  0
   60.1327   36.3064   46.1567 H   0  0  0  0  0  0  0  0  0  0  0  0
   59.4126   35.3735   43.9553 H   0  0  0  0  0  0  0  0  0  0  0  0
  1  2  2  0
  2  3  1  0
  3  4  1  0
  4  5  2  0
  5  6  1  0
  6  7  2  0
  7  8  1  0
  8  9  2  0
  9 10  1  0
 10 11  2  0
 10 12  1  0
  2 13  1  0
 13 14  2  0
 14 15  1  0
 15 16  2  0
 16 17  1  0
 17 18  2  0
 18 19  1  0
 19 20  2  0
 20 21  1  0
 21 22  1  0
 22 23  2  0
  9  4  1  0
 22 13  1  0
 20 15  1  0
  3 24  1  0
  3 25  1  0
  5 26  1  0
  6 27  1  0
  7 28  1  0
  8 29  1  0
 14 30  1  0
 16 31  1  0
 17 32  1  0
 18 33  1  0
 19 34  1  0
M  CHG  2  10   1  12  -1
M  END
>  <UniqueID>  (99) 
93

>  <SMILES>  (99) 
O=C(Cc1ccccc1[N+](=O)[O-])c1cc2ccccc2oc1=O

>  <Energy>  (99) 
50.53409838731955

>  <Genealogy>  (99) 
O=C(Cc1ccccc1[N+](=O)[O-])c1cc2ccccc2oc1=O (3D coordinates assigned)
O=C(Cc1ccccc1[N+](=O)[O-])c1cc2ccccc2oc1=O (optimized conformer: 50.53409838731955 kcal/mol)

>  <smiles>  (99) 
O=C(Cc1ccccc1[N+](=O)[O-])c1cc2ccccc2oc1=O

>  <score_type>  (99) 
oracle

>  <origin>  (99) 
adg

>  <m_score__min__energy>  (99) 
-9.3000000000000007

>  <m_primary>  (99) 
energy

$$$$
