0:0
     RDKit          3D

 39 42  0  0  0  0  0  0  0  0999 V2000
   59.9057   27.4541   46.4624 H   0  0  0  0  0  0  0  0  0  0  0  0
   58.8370   27.2280   46.3330 C   0  0  0  0  0  0  0  0  0  0  0  0
   58.0110   28.1530   45.7810 N   0  0  0  0  0  0  0  0  0  0  0  0
   56.6810   27.9300   45.5920 C   0  0  0  0  0  0  0  0  0  0  0  0
   55.9810   28.8850   45.0410 N   0  0  0  0  0  0  0  0  0  0  0  0
   56.3700   29.8160   44.0210 C   0  0  0  0  0  0  0  0  0  0  0  0
   56.1020   29.5710   42.8130 O   0  0  0  0  0  0  0  0  0  0  0  0
   57.1830   31.0040   44.3700 C   0  0  0  0  0  0  0  0  0  0  0  0
   57.4730   31.9910   43.3880 C   0  0  0  0  0  0  0  0  0  0  0  0
   57.0947   31.8642   42.3629 H   0  0  0  0  0  0  0  0  0  0  0  0
   58.2370   33.1270   43.7100 C   0  0  0  0  0  0  0  0  0  0  0  0
   58.4638   33.8933   42.9541 H   0  0  0  0  0  0  0  0  0  0  0  0
   58.6960   33.2480   45.0180 C   0  0  0  0  0  0  0  0  0  0  0  0
   59.4430   34.2330   45.5370 N   0  0  0  0  0  0  0  0  0  0  0  0
   59.5940   33.8360   46.8280 C   0  0  0  0  0  0  0  0  0  0  0  0
   60.4180   34.6000   47.8120 C   0  0  0  0  0  0  0  0  0  0  0  0
   60.5244   35.6401   47.4702 H   0  0  0  0  0  0  0  0  0  0  0  0
   59.9220   34.5825   48.7937 H   0  0  0  0  0  0  0  0  0  0  0  0
   61.7380   33.9900   47.9270 N   0  0  0  0  0  0  0  0  0  0  0  0
   62.3580   33.7830   49.0770 N   0  0  0  0  0  0  0  0  0  0  0  0
   63.5070   33.1370   48.7990 C   0  0  0  0  0  0  0  0  0  0  0  0
   64.5350   32.7760   49.8250 C   0  0  0  0  0  0  0  0  0  0  0  0
   65.8000   33.0940   49.3630 F   0  0  0  0  0  0  0  0  0  0  0  0
   64.4720   31.4200   50.0820 F   0  0  0  0  0  0  0  0  0  0  0  0
   64.2970   33.4740   50.9970 F   0  0  0  0  0  0  0  0  0  0  0  0
   63.6200   32.9400   47.4340 C   0  0  0  0  0  0  0  0  0  0  0  0
   64.4444   32.4575   46.8885 H   0  0  0  0  0  0  0  0  0  0  0  0
   62.4660   33.4850   46.9120 C   0  0  0  0  0  0  0  0  0  0  0  0
   62.1872   33.5042   45.8481 H   0  0  0  0  0  0  0  0  0  0  0  0
   58.9940   32.6550   47.1300 N   0  0  0  0  0  0  0  0  0  0  0  0
   58.4290   32.3100   45.9650 C   0  0  0  0  0  0  0  0  0  0  0  0
   57.6760   31.1730   45.6870 C   0  0  0  0  0  0  0  0  0  0  0  0
   57.4695   30.4266   46.4682 H   0  0  0  0  0  0  0  0  0  0  0  0
   56.1280   26.6990   46.0350 C   0  0  0  0  0  0  0  0  0  0  0  0
   54.7650   26.4330   45.9920 O   0  0  0  0  0  0  0  0  0  0  0  0
   56.9740   25.7330   46.5870 C   0  0  0  0  0  0  0  0  0  0  0  0
   56.5638   24.7632   46.9051 H   0  0  0  0  0  0  0  0  0  0  0  0
   58.3340   25.9930   46.7360 C   0  0  0  0  0  0  0  0  0  0  0  0
   59.0025   25.2329   47.1664 H   0  0  0  0  0  0  0  0  0  0  0  0
  1  2  1  0
  2  3  1  0
  3  4  1  0
  4  5  2  0
  5  6  1  0
  6  7  2  0
  6  8  1  0
  8  9  2  0
  9 10  1  0
  9 11  1  0
 11 12  1  0
 11 13  2  0
 13 14  1  0
 14 15  1  0
 15 16  1  0
 16 17  1  0
 16 18  1  0
 16 19  1  0
 19 20  1  0
 20 21  2  0
 21 22  1  0
 22 23  1  0
 22 24  1  0
 22 25  1  0
 21 26  1  0
 26 27  1  0
 26 28  2  0
 28 29  1  0
 15 30  2  0
 30 31  1  0
 31 32  2  0
 32 33  1  0
  4 34  1  0
 34 35  1  0
 34 36  2  0
 36 37  1  0
 36 38  1  0
 38 39  1  0
 38  2  2  0
 32  8  1  0
 31 13  1  0
 28 19  1  0
M  CHG  3   3  -1  14  -1  35  -1
M  END
>  <UniqueID>  (1) 
1

>  <SMILES>  (1) 
O=C(/N=c1/[n-]cccc1[O-])c1ccc2[n-]c(Cn3ccc(C(F)(F)F)n3)nc2c1

>  <Energy>  (1) 
118.06690055852643

>  <Genealogy>  (1) 
O=C(N=c1[n-]cccc1[O-])c1ccc2[n-]c(Cn3ccc(C(F)(F)F)n3)nc2c1 (protonated)
O=C(/N=c1/[n-]cccc1[O-])c1ccc2[n-]c(Cn3ccc(C(F)(F)F)n3)nc2c1 (cis-trans isomerization)
O=C(/N=c1/[n-]cccc1[O-])c1ccc2[n-]c(Cn3ccc(C(F)(F)F)n3)nc2c1 (3D coordinates assigned)
O=C(/N=c1/[n-]cccc1[O-])c1ccc2[n-]c(Cn3ccc(C(F)(F)F)n3)nc2c1 (optimized conformer: 118.06690055852643 kcal/mol)

>  <smiles>  (1) 
O=C(N=c1[nH]cccc1O)c1ccc2[nH]c(Cn3ccc(C(F)(F)F)n3)nc2c1

>  <score_type>  (1) 
oracle

>  <origin>  (1) 
adg

>  <m_score__min__energy>  (1) 
-14.630000000000001

>  <m_primary>  (1) 
energy

$$$$
1:0
     RDKit          3D

 60 62  0  0  0  0  0  0  0  0999 V2000
   59.9310   27.6920   48.2760 C   0  0  0  0  0  0  0  0  0  0  0  0
   60.3800   27.0080   46.6560 S   0  0  0  0  0  0  0  0  0  0  0  0
   58.6570   26.7100   46.1280 C   0  0  0  0  0  0  0  0  0  0  0  0
   58.3890   27.3240   44.7470 C   0  0  0  0  0  0  0  0  0  0  0  0
   57.6230   28.6670   44.8200 C   0  0  2  0  0  0  0  0  0  0  0  0
   58.2090   29.5470   45.8340 N   0  0  0  0  0  0  0  0  0  0  0  0
   57.7840   30.9080   46.0250 C   0  0  0  0  0  0  0  0  0  0  0  0
   56.9440   31.4270   45.2400 O   0  0  0  0  0  0  0  0  0  0  0  0
   58.3410   31.7420   47.1430 C   0  0  1  0  0  0  0  0  0  0  0  0
   59.4080   31.0060   47.8200 N   0  0  0  0  0  0  0  0  0  0  0  0
   60.7360   30.8940   47.2990 C   0  0  0  0  0  0  0  0  0  0  0  0
   60.9510   30.1490   46.3110 O   0  0  0  0  0  0  0  0  0  0  0  0
   61.8400   31.6590   47.9270 C   0  0  0  0  0  0  0  0  0  0  0  0
   62.5420   32.5830   47.1250 C   0  0  0  0  0  0  0  0  0  0  0  0
   63.6600   33.2560   47.6200 C   0  0  0  0  0  0  0  0  0  0  0  0
   64.1140   32.9970   48.9110 C   0  0  0  0  0  0  0  0  0  0  0  0
   63.4340   32.0900   49.7230 C   0  0  0  0  0  0  0  0  0  0  0  0
   62.2710   31.4470   49.2660 C   0  0  0  0  0  0  0  0  0  0  0  0
   61.4790   30.2780   50.4000 S   0  0  0  0  0  0  0  0  0  0  0  0
   60.2610   31.4530   51.0320 C   0  0  0  0  0  0  0  0  0  0  0  0
   60.7010   32.5350   51.8100 C   0  0  0  0  0  0  0  0  0  0  0  0
   59.7960   33.4980   52.2650 C   0  0  0  0  0  0  0  0  0  0  0  0
   58.4440   33.3830   51.9530 C   0  0  0  0  0  0  0  0  0  0  0  0
   57.9800   32.2700   51.2450 C   0  0  0  0  0  0  0  0  0  0  0  0
   58.8760   31.2840   50.8050 C   0  0  0  0  0  0  0  0  0  0  0  0
   58.3530   30.0840   50.2230 N   0  0  0  0  0  0  0  0  0  0  0  0
   58.8290   33.0770   46.6190 C   0  0  0  0  0  0  0  0  0  0  0  0
   58.8430   33.3670   45.2420 C   0  0  0  0  0  0  0  0  0  0  0  0
   59.2630   34.6170   44.7860 C   0  0  0  0  0  0  0  0  0  0  0  0
   59.6610   35.5970   45.6990 C   0  0  0  0  0  0  0  0  0  0  0  0
   59.6380   35.3270   47.0680 C   0  0  0  0  0  0  0  0  0  0  0  0
   59.2200   34.0760   47.5280 C   0  0  0  0  0  0  0  0  0  0  0  0
   56.1720   28.4350   45.1440 C   0  0  0  0  0  0  0  0  0  0  0  0
   55.3130   29.3200   44.8930 O   0  0  0  0  0  0  0  0  0  0  0  0
   55.7610   27.2200   45.6750 O   0  0  0  0  0  0  0  0  0  0  0  0
   60.3483   27.0563   49.0708 H   0  0  0  0  0  0  0  0  0  0  0  0
   60.3371   28.7100   48.3695 H   0  0  0  0  0  0  0  0  0  0  0  0
   58.8355   27.7243   48.3695 H   0  0  0  0  0  0  0  0  0  0  0  0
   58.4782   25.6257   46.0800 H   0  0  0  0  0  0  0  0  0  0  0  0
   57.9814   27.1810   46.8572 H   0  0  0  0  0  0  0  0  0  0  0  0
   59.3535   27.4974   44.2474 H   0  0  0  0  0  0  0  0  0  0  0  0
   57.7587   26.6159   44.1890 H   0  0  0  0  0  0  0  0  0  0  0  0
   57.7025   29.1494   43.8346 H   0  0  0  0  0  0  0  0  0  0  0  0
   58.9820   29.1760   46.4250 H   0  0  0  0  0  0  0  0  0  0  0  0
   57.5465   31.9489   47.8750 H   0  0  0  0  0  0  0  0  0  0  0  0
   62.2039   32.7756   46.0961 H   0  0  0  0  0  0  0  0  0  0  0  0
   64.1827   33.9911   46.9904 H   0  0  0  0  0  0  0  0  0  0  0  0
   65.0106   33.5088   49.2907 H   0  0  0  0  0  0  0  0  0  0  0  0
   63.8124   31.8753   50.7333 H   0  0  0  0  0  0  0  0  0  0  0  0
   61.7674   32.6259   52.0639 H   0  0  0  0  0  0  0  0  0  0  0  0
   60.1515   34.3459   52.8689 H   0  0  0  0  0  0  0  0  0  0  0  0
   57.7398   34.1688   52.2639 H   0  0  0  0  0  0  0  0  0  0  0  0
   56.9058   32.1668   51.0317 H   0  0  0  0  0  0  0  0  0  0  0  0
   57.4270   29.7010   50.5050 H   0  0  0  0  0  0  0  0  0  0  0  0
   58.8300   29.6370   49.4070 H   0  0  0  0  0  0  0  0  0  0  0  0
   58.5204   32.6026   44.5198 H   0  0  0  0  0  0  0  0  0  0  0  0
   59.2808   34.8311   43.7072 H   0  0  0  0  0  0  0  0  0  0  0  0
   59.9926   36.5819   45.3385 H   0  0  0  0  0  0  0  0  0  0  0  0
   59.9494   36.1002   47.7857 H   0  0  0  0  0  0  0  0  0  0  0  0
   59.1966   33.8710   48.6085 H   0  0  0  0  0  0  0  0  0  0  0  0
  1  2  1  0
  2  3  1  0
  3  4  1  0
  4  5  1  0
  5  6  1  0
  6  7  1  0
  7  8  2  0
  7  9  1  0
  9 10  1  0
 10 11  1  0
 11 12  2  0
 11 13  1  0
 13 14  2  0
 14 15  1  0
 15 16  2  0
 16 17  1  0
 17 18  2  0
 18 19  1  0
 19 20  1  0
 20 21  2  0
 21 22  1  0
 22 23  2  0
 23 24  1  0
 24 25  2  0
 25 26  1  0
  9 27  1  0
 27 28  2  0
 28 29  1  0
 29 30  2  0
 30 31  1  0
 31 32  2  0
  5 33  1  0
 33 34  2  0
 33 35  1  0
 18 13  1  0
 25 20  1  0
 32 27  1  0
  1 36  1  0
  1 37  1  0
  1 38  1  0
  3 39  1  0
  3 40  1  0
  4 41  1  0
  4 42  1  0
  5 43  1  6
  6 44  1  0
  9 45  1  1
 14 46  1  0
 15 47  1  0
 16 48  1  0
 17 49  1  0
 21 50  1  0
 22 51  1  0
 23 52  1  0
 24 53  1  0
 26 54  1  0
 26 55  1  0
 28 56  1  0
 29 57  1  0
 30 58  1  0
 31 59  1  0
 32 60  1  0
M  CHG  2  10  -1  35  -1
M  END
>  <UniqueID>  (2) 
2

>  <SMILES>  (2) 
CSCC[C@H](NC(=O)[C@@H]([N-]C(=O)c1ccccc1Sc1ccccc1N)c1ccccc1)C(=O)[O-]

>  <Energy>  (2) 
54.39571849296934

>  <Genealogy>  (2) 
CSCCC(NC(=O)C([N-]C(=O)c1ccccc1Sc1ccccc1N)c1ccccc1)C(=O)[O-] (protonated)
CSCC[C@H](NC(=O)[C@@H]([N-]C(=O)c1ccccc1Sc1ccccc1N)c1ccccc1)C(=O)[O-] (chirality)
CSCC[C@H](NC(=O)[C@@H]([N-]C(=O)c1ccccc1Sc1ccccc1N)c1ccccc1)C(=O)[O-] (3D coordinates assigned)
CSCC[C@H](NC(=O)[C@@H]([N-]C(=O)c1ccccc1Sc1ccccc1N)c1ccccc1)C(=O)[O-] (optimized conformer: 54.39571849296934 kcal/mol)

>  <smiles>  (2) 
CSCCC(NC(=O)C(NC(=O)c1ccccc1Sc1ccccc1N)c1ccccc1)C(=O)O

>  <score_type>  (2) 
oracle

>  <origin>  (2) 
adg

>  <m_score__min__energy>  (2) 
-13.460000000000001

>  <m_primary>  (2) 
energy

$$$$
2:0
     RDKit          3D

 25 26  0  0  0  0  0  0  0  0999 V2000
   54.7680   26.7210   47.1300 H   0  0  0  0  0  0  0  0  0  0  0  0
   55.3770   26.3520   46.3660 N   0  0  0  0  0  0  0  0  0  0  0  0
   56.3400   27.0510   45.8540 C   0  0  0  0  0  0  0  0  0  0  0  0
   57.6120   26.5850   45.9240 N   0  0  0  0  0  0  0  0  0  0  0  0
   58.6490   27.2850   45.4030 C   0  0  0  0  0  0  0  0  0  0  0  0
   59.8160   26.8180   45.4940 O   0  0  0  0  0  0  0  0  0  0  0  0
   58.4190   28.5180   44.7730 C   0  0  0  0  0  0  0  0  0  0  0  0
   59.5130   29.2780   44.2360 N   0  0  0  0  0  0  0  0  0  0  0  0
   59.3710   30.0150   43.5120 H   0  0  0  0  0  0  0  0  0  0  0  0
   60.4890   29.1300   44.5780 H   0  0  0  0  0  0  0  0  0  0  0  0
   57.0910   28.9820   44.6990 C   0  0  0  0  0  0  0  0  0  0  0  0
   56.6770   30.5330   43.8830 S   0  0  0  0  0  0  0  0  0  0  0  0
   57.5820   31.5130   45.0810 C   0  0  0  0  0  0  0  0  0  0  0  0
   57.9310   30.9590   46.3200 C   0  0  0  0  0  0  0  0  0  0  0  0
   57.6516   29.9216   46.5559 H   0  0  0  0  0  0  0  0  0  0  0  0
   58.6340   31.7230   47.2570 C   0  0  0  0  0  0  0  0  0  0  0  0
   58.9037   31.2874   48.2304 H   0  0  0  0  0  0  0  0  0  0  0  0
   58.9940   33.0400   46.9570 C   0  0  0  0  0  0  0  0  0  0  0  0
   59.5449   33.6411   47.6954 H   0  0  0  0  0  0  0  0  0  0  0  0
   58.6540   33.5940   45.7180 C   0  0  0  0  0  0  0  0  0  0  0  0
   58.9403   34.6293   45.4810 H   0  0  0  0  0  0  0  0  0  0  0  0
   57.9500   32.8310   44.7810 C   0  0  0  0  0  0  0  0  0  0  0  0
   57.6847   33.2666   43.8064 H   0  0  0  0  0  0  0  0  0  0  0  0
   56.0850   28.2440   45.2470 N   0  0  0  0  0  0  0  0  0  0  0  0
   55.1050   28.6020   45.1910 H   0  0  0  0  0  0  0  0  0  0  0  0
  1  2  1  0
  2  3  2  0
  3  4  1  0
  4  5  1  0
  5  6  2  0
  5  7  1  0
  7  8  1  0
  8  9  1  0
  8 10  1  0
  7 11  2  0
 11 12  1  0
 12 13  1  0
 13 14  2  0
 14 15  1  0
 14 16  1  0
 16 17  1  0
 16 18  2  0
 18 19  1  0
 18 20  1  0
 20 21  1  0
 20 22  2  0
 22 23  1  0
 11 24  1  0
 24 25  1  0
 24  3  1  0
 22 13  1  0
M  CHG  1   4  -1
M  END
>  <UniqueID>  (3) 
3

>  <SMILES>  (3) 
[H]/N=c1/[n-]c(=O)c(N)c(Sc2ccccc2)[nH]1

>  <Energy>  (3) 
23.06777746718168

>  <Genealogy>  (3) 
N=c1[n-]c(=O)c(N)c(Sc2ccccc2)[nH]1 (protonated)
[H]/N=c1/[n-]c(=O)c(N)c(Sc2ccccc2)[nH]1 (cis-trans isomerization)
[H]/N=c1/[n-]c(=O)c(N)c(Sc2ccccc2)[nH]1 (3D coordinates assigned)
[H]/N=c1/[n-]c(=O)c(N)c(Sc2ccccc2)[nH]1 (optimized conformer: 23.06777746718168 kcal/mol)

>  <smiles>  (3) 
N=c1[nH]c(Sc2ccccc2)c(N)c(=O)[nH]1

>  <score_type>  (3) 
oracle

>  <origin>  (3) 
adg

>  <m_score__min__energy>  (3) 
-8.1400000000000006

>  <m_primary>  (3) 
energy

$$$$
3:0
     RDKit          3D

 42 43  0  0  0  0  0  0  0  0999 V2000
   60.9070   29.3420   45.5170 C   0  0  0  0  0  0  0  0  0  0  0  0
   59.8760   29.1520   46.4810 O   0  0  0  0  0  0  0  0  0  0  0  0
   58.8650   28.1830   46.3830 C   0  0  0  0  0  0  0  0  0  0  0  0
   58.8980   26.9900   47.1320 C   0  0  0  0  0  0  0  0  0  0  0  0
   57.8790   26.0450   47.0030 C   0  0  0  0  0  0  0  0  0  0  0  0
   56.8210   26.2670   46.1150 C   0  0  0  0  0  0  0  0  0  0  0  0
   55.5390   25.0720   45.9400 S   0  0  0  0  0  0  0  0  0  0  0  0
   54.0210   25.8760   45.7650 N   0  0  0  0  0  0  0  0  0  0  0  0
   55.4960   24.1840   47.1520 O   0  0  0  0  0  0  0  0  0  0  0  0
   55.8010   24.2210   44.7280 O   0  0  0  0  0  0  0  0  0  0  0  0
   56.7770   27.4530   45.3720 C   0  0  0  0  0  0  0  0  0  0  0  0
   57.7860   28.4230   45.5150 C   0  0  0  0  0  0  0  0  0  0  0  0
   57.7750   29.6370   44.7470 N   0  0  0  0  0  0  0  0  0  0  0  0
   57.6000   30.9650   45.2530 C   0  0  0  0  0  0  0  0  0  0  0  0
   56.7570   31.7430   44.7300 O   0  0  0  0  0  0  0  0  0  0  0  0
   58.3640   31.3840   46.3910 N   0  0  0  0  0  0  0  0  0  0  0  0
   58.1760   32.6740   47.0570 C   0  0  0  0  0  0  0  0  0  0  0  0
   59.4790   33.5110   47.0480 C   0  0  0  0  0  0  0  0  0  0  0  0
   60.6360   32.8290   47.8180 C   0  0  0  0  0  0  0  0  0  0  0  0
   60.2320   31.5990   48.3620 O   0  0  0  0  0  0  0  0  0  0  0  0
   59.2660   34.9840   47.4290 C   0  0  0  0  0  0  0  0  0  0  0  0
   59.6720   35.4070   46.0220 C   0  0  0  0  0  0  0  0  0  0  0  0
   59.8720   33.9500   45.6260 C   0  0  0  0  0  0  0  0  0  0  0  0
   61.8628   29.5181   46.0322 H   0  0  0  0  0  0  0  0  0  0  0  0
   60.9900   28.4440   44.8871 H   0  0  0  0  0  0  0  0  0  0  0  0
   60.6645   30.2106   44.8871 H   0  0  0  0  0  0  0  0  0  0  0  0
   59.7328   26.8021   47.8233 H   0  0  0  0  0  0  0  0  0  0  0  0
   57.9079   25.1226   47.6016 H   0  0  0  0  0  0  0  0  0  0  0  0
   54.0590   26.7330   46.3610 H   0  0  0  0  0  0  0  0  0  0  0  0
   55.9473   27.6276   44.6712 H   0  0  0  0  0  0  0  0  0  0  0  0
   59.0680   30.7200   46.7830 H   0  0  0  0  0  0  0  0  0  0  0  0
   57.3870   33.2347   46.5344 H   0  0  0  0  0  0  0  0  0  0  0  0
   57.8937   32.4851   48.1032 H   0  0  0  0  0  0  0  0  0  0  0  0
   61.4741   32.6570   47.1266 H   0  0  0  0  0  0  0  0  0  0  0  0
   60.9410   33.4898   48.6428 H   0  0  0  0  0  0  0  0  0  0  0  0
   60.1960   30.9610   47.6030 H   0  0  0  0  0  0  0  0  0  0  0  0
   58.2274   35.2344   47.6910 H   0  0  0  0  0  0  0  0  0  0  0  0
   59.7733   35.4109   48.3067 H   0  0  0  0  0  0  0  0  0  0  0  0
   58.8750   35.9172   45.4612 H   0  0  0  0  0  0  0  0  0  0  0  0
   60.4841   36.1347   45.8772 H   0  0  0  0  0  0  0  0  0  0  0  0
   59.1852   33.5993   44.8416 H   0  0  0  0  0  0  0  0  0  0  0  0
   60.8228   33.6184   45.1833 H   0  0  0  0  0  0  0  0  0  0  0  0
  1  2  1  0
  2  3  1  0
  3  4  2  0
  4  5  1  0
  5  6  2  0
  6  7  1  0
  7  8  1  0
  7  9  2  0
  7 10  2  0
  6 11  1  0
 11 12  2  0
 12 13  1  0
 13 14  1  0
 14 15  2  0
 14 16  1  0
 16 17  1  0
 17 18  1  0
 18 19  1  0
 19 20  1  0
 18 21  1  0
 21 22  1  0
 22 23  1  0
 12  3  1  0
 23 18  1  0
  1 24  1  0
  1 25  1  0
  1 26  1  0
  4 27  1  0
  5 28  1  0
  8 29  1  0
 11 30  1  0
 16 31  1  0
 17 32  1  0
 17 33  1  0
 19 34  1  0
 19 35  1  0
 20 36  1  0
 21 37  1  0
 21 38  1  0
 22 39  1  0
 22 40  1  0
 23 41  1  0
 23 42  1  0
M  CHG  2   8  -1  13  -1
M  END
>  <UniqueID>  (4) 
4

>  <SMILES>  (4) 
COc1ccc(S([NH-])(=O)=O)cc1[N-]C(=O)NCC1(CO)CCC1

>  <Energy>  (4) 
101.49407866683774

>  <Genealogy>  (4) 
COc1ccc(S([NH-])(=O)=O)cc1[N-]C(=O)NCC1(CO)CCC1 (protonated)
COc1ccc(S([NH-])(=O)=O)cc1[N-]C(=O)NCC1(CO)CCC1 (3D coordinates assigned)
COc1ccc(S([NH-])(=O)=O)cc1[N-]C(=O)NCC1(CO)CCC1 (nonaromatic ring conformer: 101.49407866683774 kcal/mol)

>  <smiles>  (4) 
COc1ccc(S(N)(=O)=O)cc1NC(=O)NCC1(CO)CCC1

>  <score_type>  (4) 
oracle

>  <origin>  (4) 
adg

>  <m_score__min__energy>  (4) 
-12.01

>  <m_primary>  (4) 
energy

$$$$
4:0
     RDKit          3D

 37 39  0  0  0  0  0  0  0  0999 V2000
   64.9350   31.8210   50.1410 C   0  0  0  0  0  0  0  0  0  0  0  0
   64.8510   33.0440   49.4160 O   0  0  0  0  0  0  0  0  0  0  0  0
   63.7540   33.4260   48.6280 C   0  0  0  0  0  0  0  0  0  0  0  0
   63.8000   33.4060   47.2210 C   0  0  0  0  0  0  0  0  0  0  0  0
   62.6880   33.7950   46.4710 C   0  0  0  0  0  0  0  0  0  0  0  0
   61.5120   34.2240   47.1090 C   0  0  0  0  0  0  0  0  0  0  0  0
   60.3200   34.6190   46.3260 C   0  0  0  0  0  0  0  0  0  0  0  0
   60.0370   35.8420   46.2150 O   0  0  0  0  0  0  0  0  0  0  0  0
   59.4490   33.6310   45.6610 C   0  0  0  0  0  0  0  0  0  0  0  0
   59.2110   32.4060   46.1750 N   0  0  0  0  0  0  0  0  0  0  0  0
   58.3480   31.8390   45.3030 C   0  0  0  0  0  0  0  0  0  0  0  0
   57.8010   30.4700   45.4630 C   0  0  0  0  0  0  0  0  0  0  0  0
   58.3990   29.5390   46.3330 C   0  0  0  0  0  0  0  0  0  0  0  0
   57.8700   28.2520   46.4710 C   0  0  0  0  0  0  0  0  0  0  0  0
   56.7310   27.8660   45.7430 C   0  0  0  0  0  0  0  0  0  0  0  0
   56.1690   26.5050   45.8850 C   0  0  0  0  0  0  0  0  0  0  0  0
   56.9270   25.5020   45.9430 O   0  0  0  0  0  0  0  0  0  0  0  0
   54.7930   26.3160   45.9590 O   0  0  0  0  0  0  0  0  0  0  0  0
   56.1330   28.7940   44.8740 C   0  0  0  0  0  0  0  0  0  0  0  0
   56.6620   30.0810   44.7360 C   0  0  0  0  0  0  0  0  0  0  0  0
   58.0730   32.7360   44.2870 C   0  0  0  0  0  0  0  0  0  0  0  0
   58.7640   33.8620   44.5220 N   0  0  0  0  0  0  0  0  0  0  0  0
   61.4610   34.2260   48.5120 C   0  0  0  0  0  0  0  0  0  0  0  0
   62.5740   33.8360   49.2660 C   0  0  0  0  0  0  0  0  0  0  0  0
   62.4740   33.8670   51.0210 Cl  0  0  0  0  0  0  0  0  0  0  0  0
   64.9204   32.0328   51.2203 H   0  0  0  0  0  0  0  0  0  0  0  0
   64.0787   31.1812   49.8813 H   0  0  0  0  0  0  0  0  0  0  0  0
   65.8707   31.3043   49.8813 H   0  0  0  0  0  0  0  0  0  0  0  0
   64.7180   33.0818   46.7090 H   0  0  0  0  0  0  0  0  0  0  0  0
   62.7332   33.7653   45.3723 H   0  0  0  0  0  0  0  0  0  0  0  0
   59.2906   29.8265   46.9096 H   0  0  0  0  0  0  0  0  0  0  0  0
   58.3490   27.5357   47.1548 H   0  0  0  0  0  0  0  0  0  0  0  0
   55.2415   28.5058   44.2976 H   0  0  0  0  0  0  0  0  0  0  0  0
   56.1823   30.7964   44.0518 H   0  0  0  0  0  0  0  0  0  0  0  0
   57.4030   32.5572   43.4331 H   0  0  0  0  0  0  0  0  0  0  0  0
   58.7380   34.7360   43.9530 H   0  0  0  0  0  0  0  0  0  0  0  0
   60.5380   34.5369   49.0234 H   0  0  0  0  0  0  0  0  0  0  0  0
  1  2  1  0
  2  3  1  0
  3  4  2  0
  4  5  1  0
  5  6  2  0
  6  7  1  0
  7  8  2  0
  7  9  1  0
  9 10  2  0
 10 11  1  0
 11 12  1  0
 12 13  2  0
 13 14  1  0
 14 15  2  0
 15 16  1  0
 16 17  2  0
 16 18  1  0
 15 19  1  0
 19 20  2  0
 11 21  2  0
 21 22  1  0
  6 23  1  0
 23 24  2  0
 24 25  1  0
 24  3  1  0
 22  9  1  0
 20 12  1  0
  1 26  1  0
  1 27  1  0
  1 28  1  0
  4 29  1  0
  5 30  1  0
 13 31  1  0
 14 32  1  0
 19 33  1  0
 20 34  1  0
 21 35  1  0
 22 36  1  0
 23 37  1  0
M  CHG  1  18  -1
M  END
>  <UniqueID>  (5) 
5

>  <SMILES>  (5) 
COc1ccc(C(=O)c2nc(-c3ccc(C(=O)[O-])cc3)c[nH]2)cc1Cl

>  <Energy>  (5) 
74.30042763941171

>  <Genealogy>  (5) 
COc1ccc(C(=O)c2nc(-c3ccc(C(=O)[O-])cc3)c[nH]2)cc1Cl (protonated)
COc1ccc(C(=O)c2nc(-c3ccc(C(=O)[O-])cc3)c[nH]2)cc1Cl (3D coordinates assigned)
COc1ccc(C(=O)c2nc(-c3ccc(C(=O)[O-])cc3)c[nH]2)cc1Cl (optimized conformer: 74.30042763941171 kcal/mol)

>  <smiles>  (5) 
COc1ccc(C(=O)c2nc(-c3ccc(C(=O)O)cc3)c[nH]2)cc1Cl

>  <score_type>  (5) 
oracle

>  <origin>  (5) 
adg

>  <m_score__min__energy>  (5) 
-9.7100000000000009

>  <m_primary>  (5) 
energy

$$$$
5:0
     RDKit          3D

 48 51  0  0  0  0  0  0  0  0999 V2000
   58.6190   33.3980   43.6760 N   0  0  0  0  0  0  0  0  0  0  0  0
   59.0060   34.2390   44.7660 C   0  0  0  0  0  0  0  0  0  0  0  0
   59.2770   35.4490   44.5420 O   0  0  0  0  0  0  0  0  0  0  0  0
   59.0420   33.7240   46.1540 C   0  0  0  0  0  0  0  0  0  0  0  0
   60.0340   34.2080   47.0250 C   0  0  0  0  0  0  0  0  0  0  0  0
   60.0870   33.7740   48.3510 C   0  0  0  0  0  0  0  0  0  0  0  0
   59.1490   32.8560   48.8240 C   0  0  0  0  0  0  0  0  0  0  0  0
   58.1690   32.3500   47.9680 C   0  0  0  0  0  0  0  0  0  0  0  0
   58.1220   32.7510   46.6180 C   0  0  0  0  0  0  0  0  0  0  0  0
   57.1410   32.2090   45.7140 N   0  0  0  0  0  0  0  0  0  0  0  0
   57.2190   30.9760   44.9820 C   0  0  0  0  0  0  0  0  0  0  0  0
   57.0050   30.9600   43.7400 O   0  0  0  0  0  0  0  0  0  0  0  0
   57.5370   29.7110   45.6840 C   0  0  0  0  0  0  0  0  0  0  0  0
   58.7170   29.6210   46.4470 C   0  0  0  0  0  0  0  0  0  0  0  0
   59.0300   28.4460   47.1540 C   0  0  0  0  0  0  0  0  0  0  0  0
   60.2190   28.3260   47.9480 N   0  0  0  0  0  0  0  0  0  0  0  0
   60.3410   28.7210   49.6330 S   0  0  0  0  0  0  0  0  0  0  0  0
   60.6020   27.4790   50.4360 O   0  0  0  0  0  0  0  0  0  0  0  0
   59.0560   29.3600   50.0820 O   0  0  0  0  0  0  0  0  0  0  0  0
   61.6780   29.8420   49.8640 C   0  0  0  0  0  0  0  0  0  0  0  0
   61.9170   30.8450   48.9180 C   0  0  0  0  0  0  0  0  0  0  0  0
   62.9890   31.7270   49.0820 C   0  0  0  0  0  0  0  0  0  0  0  0
   63.8430   31.6190   50.1930 C   0  0  0  0  0  0  0  0  0  0  0  0
   64.9530   32.5280   50.3390 N   0  0  0  0  0  0  0  0  0  0  0  0
   65.0460   33.6430   51.0870 C   0  0  0  0  0  0  0  0  0  0  0  0
   66.2680   34.1910   50.9420 N   0  0  0  0  0  0  0  0  0  0  0  0
   66.9090   33.3940   50.1000 N   0  0  0  0  0  0  0  0  0  0  0  0
   66.1220   32.3930   49.7360 N   0  0  0  0  0  0  0  0  0  0  0  0
   63.5970   30.6050   51.1400 C   0  0  0  0  0  0  0  0  0  0  0  0
   62.5230   29.7240   50.9730 C   0  0  0  0  0  0  0  0  0  0  0  0
   58.1600   27.3550   47.0860 C   0  0  0  0  0  0  0  0  0  0  0  0
   56.9950   27.4250   46.3210 C   0  0  0  0  0  0  0  0  0  0  0  0
   56.6800   28.5910   45.6180 C   0  0  0  0  0  0  0  0  0  0  0  0
   55.5280   28.6150   44.8420 O   0  0  0  0  0  0  0  0  0  0  0  0
   58.6560   33.7600   42.6960 H   0  0  0  0  0  0  0  0  0  0  0  0
   58.2210   32.4470   43.8410 H   0  0  0  0  0  0  0  0  0  0  0  0
   60.7743   34.9345   46.6588 H   0  0  0  0  0  0  0  0  0  0  0  0
   60.8691   34.1563   49.0234 H   0  0  0  0  0  0  0  0  0  0  0  0
   59.1816   32.5300   49.8741 H   0  0  0  0  0  0  0  0  0  0  0  0
   57.4278   31.6327   48.3504 H   0  0  0  0  0  0  0  0  0  0  0  0
   59.4025   30.4802   46.4907 H   0  0  0  0  0  0  0  0  0  0  0  0
   61.2587   30.9398   48.0418 H   0  0  0  0  0  0  0  0  0  0  0  0
   63.1660   32.5137   48.3338 H   0  0  0  0  0  0  0  0  0  0  0  0
   64.2437   34.0467   51.7221 H   0  0  0  0  0  0  0  0  0  0  0  0
   64.2539   30.5054   52.0167 H   0  0  0  0  0  0  0  0  0  0  0  0
   62.3420   28.9346   51.7173 H   0  0  0  0  0  0  0  0  0  0  0  0
   58.3951   26.4340   47.6396 H   0  0  0  0  0  0  0  0  0  0  0  0
   56.3207   26.5573   46.2710 H   0  0  0  0  0  0  0  0  0  0  0  0
  1  2  1  0
  2  3  2  0
  2  4  1  0
  4  5  2  0
  5  6  1  0
  6  7  2  0
  7  8  1  0
  8  9  2  0
  9 10  1  0
 10 11  1  0
 11 12  2  0
 11 13  1  0
 13 14  2  0
 14 15  1  0
 15 16  1  0
 16 17  1  0
 17 18  2  0
 17 19  2  0
 17 20  1  0
 20 21  2  0
 21 22  1  0
 22 23  2  0
 23 24  1  0
 24 25  1  0
 25 26  2  0
 26 27  1  0
 27 28  2  0
 23 29  1  0
 29 30  2  0
 15 31  2  0
 31 32  1  0
 32 33  2  0
 33 34  1  0
  9  4  1  0
 33 13  1  0
 30 20  1  0
 28 24  1  0
  1 35  1  0
  1 36  1  0
  5 37  1  0
  6 38  1  0
  7 39  1  0
  8 40  1  0
 14 41  1  0
 21 42  1  0
 22 43  1  0
 25 44  1  0
 29 45  1  0
 30 46  1  0
 31 47  1  0
 32 48  1  0
M  CHG  3  10  -1  16  -1  34  -1
M  END
>  <UniqueID>  (6) 
6

>  <SMILES>  (6) 
NC(=O)c1ccccc1[N-]C(=O)c1cc([N-]S(=O)(=O)c2ccc(-n3cnnn3)cc2)ccc1[O-]

>  <Energy>  (6) 
109.68294973350292

>  <Genealogy>  (6) 
NC(=O)c1ccccc1[N-]C(=O)c1cc([N-]S(=O)(=O)c2ccc(-n3cnnn3)cc2)ccc1[O-] (protonated)
NC(=O)c1ccccc1[N-]C(=O)c1cc([N-]S(=O)(=O)c2ccc(-n3cnnn3)cc2)ccc1[O-] (3D coordinates assigned)
NC(=O)c1ccccc1[N-]C(=O)c1cc([N-]S(=O)(=O)c2ccc(-n3cnnn3)cc2)ccc1[O-] (optimized conformer: 109.68294973350292 kcal/mol)

>  <smiles>  (6) 
NC(=O)c1ccccc1NC(=O)c1cc(NS(=O)(=O)c2ccc(-n3cnnn3)cc2)ccc1O

>  <score_type>  (6) 
oracle

>  <origin>  (6) 
adg

>  <m_score__min__energy>  (6) 
-14.67

>  <m_primary>  (6) 
energy

$$$$
6:0
     RDKit          3D

 72 75  0  0  0  0  0  0  0  0999 V2000
   59.2494   32.4403   49.5008 H   0  0  0  0  0  0  0  0  0  0  0  0
   59.8420   33.2500   49.0500 C   0  0  0  0  0  0  0  0  0  0  0  0
   61.2870   33.3370   49.3560 C   0  0  0  0  0  0  0  0  0  0  0  0
   61.8970   34.4360   49.2510 O   0  0  0  0  0  0  0  0  0  0  0  0
   61.9940   32.1650   49.7850 N   0  0  0  0  0  0  0  0  0  0  0  0
   61.4350   31.3100   50.0180 H   0  0  0  0  0  0  0  0  0  0  0  0
   63.3700   32.1920   50.1870 C   0  0  0  0  0  0  0  0  0  0  0  0
   63.7080   31.7010   51.4580 C   0  0  0  0  0  0  0  0  0  0  0  0
   62.9198   31.3202   52.1242 H   0  0  0  0  0  0  0  0  0  0  0  0
   65.0390   31.6930   51.8820 C   0  0  0  0  0  0  0  0  0  0  0  0
   65.2942   31.3216   52.8855 H   0  0  0  0  0  0  0  0  0  0  0  0
   66.0450   32.1560   51.0330 C   0  0  0  0  0  0  0  0  0  0  0  0
   67.0928   32.1477   51.3677 H   0  0  0  0  0  0  0  0  0  0  0  0
   65.7240   32.6300   49.7590 C   0  0  0  0  0  0  0  0  0  0  0  0
   66.5228   32.9882   49.0930 H   0  0  0  0  0  0  0  0  0  0  0  0
   64.3920   32.6530   49.3220 C   0  0  0  0  0  0  0  0  0  0  0  0
   64.1060   33.1040   47.9910 N   0  0  0  0  0  0  0  0  0  0  0  0
   63.4050   33.8600   47.8260 H   0  0  0  0  0  0  0  0  0  0  0  0
   64.5930   32.7120   47.1570 H   0  0  0  0  0  0  0  0  0  0  0  0
   59.2320   34.1290   48.2390 C   0  0  0  0  0  0  0  0  0  0  0  0
   59.0442   35.1383   48.6340 H   0  0  0  0  0  0  0  0  0  0  0  0
   58.7900   33.8430   46.8460 C   0  0  0  0  0  0  0  0  0  0  0  0
   59.4650   34.4830   45.7920 C   0  0  0  0  0  0  0  0  0  0  0  0
   60.2764   35.1909   46.0166 H   0  0  0  0  0  0  0  0  0  0  0  0
   59.1180   34.2310   44.4650 C   0  0  0  0  0  0  0  0  0  0  0  0
   59.6353   34.7625   43.6526 H   0  0  0  0  0  0  0  0  0  0  0  0
   58.1180   33.3080   44.1650 C   0  0  0  0  0  0  0  0  0  0  0  0
   57.8480   33.1141   43.1164 H   0  0  0  0  0  0  0  0  0  0  0  0
   57.4570   32.6280   45.1910 C   0  0  0  0  0  0  0  0  0  0  0  0
   56.4710   31.6480   44.8480 N   0  0  0  0  0  0  0  0  0  0  0  0
   56.7890   29.9500   44.6540 S   0  0  0  0  0  0  0  0  0  0  0  0
   55.5120   29.1910   44.8860 O   0  0  0  0  0  0  0  0  0  0  0  0
   57.2530   29.6910   43.2500 O   0  0  0  0  0  0  0  0  0  0  0  0
   58.0200   29.3750   45.7740 C   0  0  0  0  0  0  0  0  0  0  0  0
   59.1710   30.1470   45.9950 C   0  0  0  0  0  0  0  0  0  0  0  0
   59.3649   31.0334   45.3731 H   0  0  0  0  0  0  0  0  0  0  0  0
   60.0720   29.7920   47.0040 C   0  0  0  0  0  0  0  0  0  0  0  0
   60.9658   30.4076   47.1834 H   0  0  0  0  0  0  0  0  0  0  0  0
   59.8380   28.6520   47.7880 C   0  0  0  0  0  0  0  0  0  0  0  0
   60.7680   28.2890   48.9120 C   0  0  0  0  0  0  0  0  0  0  0  0
   61.7988   28.2480   48.5303 H   0  0  0  0  0  0  0  0  0  0  0  0
   60.4741   27.3086   49.3150 H   0  0  0  0  0  0  0  0  0  0  0  0
   60.6890   29.2940   49.9930 N   0  0  0  0  0  0  0  0  0  0  0  0
   59.2910   29.7020   50.2360 C   0  0  0  0  0  0  0  0  0  0  0  0
   58.7075   28.8217   50.5436 H   0  0  0  0  0  0  0  0  0  0  0  0
   58.8836   30.1287   49.3076 H   0  0  0  0  0  0  0  0  0  0  0  0
   59.2130   30.7720   51.3450 C   0  0  0  0  0  0  0  0  0  0  0  0
   58.5159   30.4291   52.1237 H   0  0  0  0  0  0  0  0  0  0  0  0
   58.8644   31.7122   50.8928 H   0  0  0  0  0  0  0  0  0  0  0  0
   60.5370   31.0160   51.9590 N   0  0  0  0  0  0  0  0  0  0  0  0
   60.4370   31.9600   53.0930 C   0  0  0  0  0  0  0  0  0  0  0  0
   61.3294   31.8506   53.7267 H   0  0  0  0  0  0  0  0  0  0  0  0
   59.5210   31.7233   53.6542 H   0  0  0  0  0  0  0  0  0  0  0  0
   60.3410   33.4190   52.6170 C   0  0  0  0  0  0  0  0  0  0  0  0
   60.8512   33.5087   51.6466 H   0  0  0  0  0  0  0  0  0  0  0  0
   60.8147   34.0537   53.3804 H   0  0  0  0  0  0  0  0  0  0  0  0
   58.8940   33.8830   52.4560 C   0  0  0  0  0  0  0  0  0  0  0  0
   58.4427   34.0277   53.4487 H   0  0  0  0  0  0  0  0  0  0  0  0
   58.8731   34.8329   51.9017 H   0  0  0  0  0  0  0  0  0  0  0  0
   58.3246   33.1224   51.9017 H   0  0  0  0  0  0  0  0  0  0  0  0
   61.1180   29.7380   52.4120 C   0  0  0  0  0  0  0  0  0  0  0  0
   60.4602   29.2945   53.1739 H   0  0  0  0  0  0  0  0  0  0  0  0
   62.1157   29.9370   52.8305 H   0  0  0  0  0  0  0  0  0  0  0  0
   61.2680   28.7480   51.2380 C   0  0  0  0  0  0  0  0  0  0  0  0
   60.7508   27.8110   51.4920 H   0  0  0  0  0  0  0  0  0  0  0  0
   62.3406   28.5699   51.0711 H   0  0  0  0  0  0  0  0  0  0  0  0
   58.7160   27.8520   47.5250 C   0  0  0  0  0  0  0  0  0  0  0  0
   58.5505   26.9335   48.1072 H   0  0  0  0  0  0  0  0  0  0  0  0
   57.8090   28.2150   46.5290 C   0  0  0  0  0  0  0  0  0  0  0  0
   56.9258   27.5882   46.3364 H   0  0  0  0  0  0  0  0  0  0  0  0
   57.7530   32.9380   46.5300 C   0  0  0  0  0  0  0  0  0  0  0  0
   57.1716   32.4714   47.3388 H   0  0  0  0  0  0  0  0  0  0  0  0
  1  2  1  0
  2  3  1  0
  3  4  2  0
  3  5  1  0
  5  6  1  0
  5  7  1  0
  7  8  2  0
  8  9  1  0
  8 10  1  0
 10 11  1  0
 10 12  2  0
 12 13  1  0
 12 14  1  0
 14 15  1  0
 14 16  2  0
 16 17  1  0
 17 18  1  0
 17 19  1  0
  2 20  2  0
 20 21  1  0
 20 22  1  0
 22 23  2  0
 23 24  1  0
 23 25  1  0
 25 26  1  0
 25 27  2  0
 27 28  1  0
 27 29  1  0
 29 30  1  0
 30 31  1  0
 31 32  2  0
 31 33  2  0
 31 34  1  0
 34 35  2  0
 35 36  1  0
 35 37  1  0
 37 38  1  0
 37 39  2  0
 39 40  1  0
 40 41  1  0
 40 42  1  0
 40 43  1  0
 43 44  1  0
 44 45  1  0
 44 46  1  0
 44 47  1  0
 47 48  1  0
 47 49  1  0
 47 50  1  0
 50 51  1  0
 51 52  1  0
 51 53  1  0
 51 54  1  0
 54 55  1  0
 54 56  1  0
 54 57  1  0
 57 58  1  0
 57 59  1  0
 57 60  1  0
 50 61  1  0
 61 62  1  0
 61 63  1  0
 61 64  1  0
 64 65  1  0
 64 66  1  0
 39 67  1  0
 67 68  1  0
 67 69  2  0
 69 70  1  0
 29 71  2  0
 71 72  1  0
 16  7  1  0
 71 22  1  0
 69 34  1  0
 64 43  1  0
M  CHG  1  30  -1
M  END
>  <UniqueID>  (7) 
7

>  <SMILES>  (7) 
CCCN1CCN(Cc2ccc(S(=O)(=O)[N-]c3cccc(/C=C/C(=O)Nc4ccccc4N)c3)cc2)CC1

>  <Energy>  (7) 
91.28477893961255

>  <Genealogy>  (7) 
CCCN1CCN(Cc2ccc(S(=O)(=O)[N-]c3cccc(C=CC(=O)Nc4ccccc4N)c3)cc2)CC1 (protonated)
CCCN1CCN(Cc2ccc(S(=O)(=O)[N-]c3cccc(/C=C/C(=O)Nc4ccccc4N)c3)cc2)CC1 (cis-trans isomerization)
CCCN1CCN(Cc2ccc(S(=O)(=O)[N-]c3cccc(/C=C/C(=O)Nc4ccccc4N)c3)cc2)CC1 (3D coordinates assigned)
CCCN1CCN(Cc2ccc(S(=O)(=O)[N-]c3cccc(/C=C/C(=O)Nc4ccccc4N)c3)cc2)CC1 (nonaromatic ring conformer: 91.28477893961255 kcal/mol)

>  <smiles>  (7) 
CCCN1CCN(Cc2ccc(S(=O)(=O)Nc3cccc(C=CC(=O)Nc4ccccc4N)c3)cc2)CC1

>  <score_type>  (7) 
oracle

>  <origin>  (7) 
adg

>  <m_score__min__energy>  (7) 
-10.84

>  <m_primary>  (7) 
energy

$$$$
7:0
     RDKit          3D

 38 40  0  0  0  0  0  0  0  0999 V2000
   57.3470   33.4560   47.4640 C   0  0  0  0  0  0  0  0  0  0  0  0
   56.6420   33.4650   46.2440 O   0  0  0  0  0  0  0  0  0  0  0  0
   57.3650   34.2140   45.2880 C   0  0  0  0  0  0  0  0  0  0  0  0
   58.4180   33.3280   44.5990 C   0  0  2  0  0  0  0  0  0  0  0  0
   57.7870   32.0450   43.9960 C   0  0  0  0  0  0  0  0  0  0  0  0
   57.5170   31.0420   45.0540 N   0  0  0  0  0  0  0  0  0  0  0  0
   56.5740   29.7210   44.4100 S   0  0  0  0  0  0  0  0  0  0  0  0
   56.5700   29.7060   42.6260 C   0  0  0  0  0  0  0  0  0  0  0  0
   57.1340   28.4160   44.9050 O   0  0  0  0  0  0  0  0  0  0  0  0
   55.1570   29.8490   44.8930 O   0  0  0  0  0  0  0  0  0  0  0  0
   58.7680   30.5300   45.6570 C   0  0  0  0  0  0  0  0  0  0  0  0
   59.6300   31.6760   46.0840 C   0  0  0  0  0  0  0  0  0  0  0  0
   60.6220   31.6350   46.9410 O   0  0  0  0  0  0  0  0  0  0  0  0
   61.1410   32.8440   47.0100 C   0  0  0  0  0  0  0  0  0  0  0  0
   62.2810   33.2170   47.9060 C   0  0  0  0  0  0  0  0  0  0  0  0
   63.5450   32.3990   47.6920 C   0  0  0  0  0  0  0  0  0  0  0  0
   63.4730   33.8300   47.1890 C   0  0  0  0  0  0  0  0  0  0  0  0
   60.4640   33.7150   46.1680 C   0  0  0  0  0  0  0  0  0  0  0  0
   59.4980   32.9380   45.5670 C   0  0  0  0  0  0  0  0  0  0  0  0
   56.6326   33.4651   48.3004 H   0  0  0  0  0  0  0  0  0  0  0  0
   57.9679   32.5499   47.5220 H   0  0  0  0  0  0  0  0  0  0  0  0
   57.9908   34.3460   47.5220 H   0  0  0  0  0  0  0  0  0  0  0  0
   56.6687   34.6048   44.5314 H   0  0  0  0  0  0  0  0  0  0  0  0
   57.8750   35.0453   45.7967 H   0  0  0  0  0  0  0  0  0  0  0  0
   58.8504   33.9222   43.7805 H   0  0  0  0  0  0  0  0  0  0  0  0
   56.8416   32.3078   43.4989 H   0  0  0  0  0  0  0  0  0  0  0  0
   58.4934   31.6119   43.2725 H   0  0  0  0  0  0  0  0  0  0  0  0
   56.3019   28.7009   42.2684 H   0  0  0  0  0  0  0  0  0  0  0  0
   55.8350   30.4354   42.2548 H   0  0  0  0  0  0  0  0  0  0  0  0
   57.5706   29.9724   42.2548 H   0  0  0  0  0  0  0  0  0  0  0  0
   58.5245   29.9100   46.5324 H   0  0  0  0  0  0  0  0  0  0  0  0
   59.3088   29.9255   44.9140 H   0  0  0  0  0  0  0  0  0  0  0  0
   61.6673   33.4928   48.7762 H   0  0  0  0  0  0  0  0  0  0  0  0
   64.1894   32.1486   48.5476 H   0  0  0  0  0  0  0  0  0  0  0  0
   63.7727   31.4246   47.2352 H   0  0  0  0  0  0  0  0  0  0  0  0
   64.0655   34.6159   47.6802 H   0  0  0  0  0  0  0  0  0  0  0  0
   63.6272   34.3211   46.2168 H   0  0  0  0  0  0  0  0  0  0  0  0
   60.6560   34.7872   46.0146 H   0  0  0  0  0  0  0  0  0  0  0  0
  1  2  1  0
  2  3  1  0
  3  4  1  0
  4  5  1  0
  5  6  1  0
  6  7  1  0
  7  8  1  0
  7  9  2  0
  7 10  2  0
  6 11  1  0
 11 12  1  0
 12 13  1  0
 13 14  1  0
 14 15  1  0
 15 16  1  0
 16 17  1  0
 14 18  2  0
 18 19  1  0
 19  4  1  0
 19 12  2  0
 17 15  1  0
  1 20  1  0
  1 21  1  0
  1 22  1  0
  3 23  1  0
  3 24  1  0
  4 25  1  6
  5 26  1  0
  5 27  1  0
  8 28  1  0
  8 29  1  0
  8 30  1  0
 11 31  1  0
 11 32  1  0
 15 33  1  0
 16 34  1  0
 16 35  1  0
 17 36  1  0
 17 37  1  0
 18 38  1  0
M  END
>  <UniqueID>  (8) 
8

>  <SMILES>  (8) 
COC[C@@H]1CN(S(C)(=O)=O)Cc2oc(C3CC3)cc21

>  <Energy>  (8) 
325.0673679682425

>  <Genealogy>  (8) 
COC[C@@H]1CN(S(C)(=O)=O)Cc2oc(C3CC3)cc21 (chirality)
COC[C@@H]1CN(S(C)(=O)=O)Cc2oc(C3CC3)cc21 (3D coordinates assigned)
COC[C@@H]1CN(S(C)(=O)=O)Cc2oc(C3CC3)cc21 (nonaromatic ring conformer: 325.0673679682425 kcal/mol)

>  <smiles>  (8) 
COCC1CN(S(C)(=O)=O)Cc2oc(C3CC3)cc21

>  <score_type>  (8) 
oracle

>  <origin>  (8) 
adg

>  <m_score__min__energy>  (8) 
-7.2699999999999996

>  <m_primary>  (8) 
energy

$$$$
8:0
     RDKit          3D

 47 49  0  0  0  0  0  0  0  0999 V2000
   55.4160   30.0980   45.6140 H   0  0  0  0  0  0  0  0  0  0  0  0
   55.5640   29.1750   45.2210 O   0  0  0  0  0  0  0  0  0  0  0  0
   56.8210   28.5710   45.2220 C   0  0  0  0  0  0  0  0  0  0  0  0
   56.9520   27.2350   45.6230 C   0  0  0  0  0  0  0  0  0  0  0  0
   56.0627   26.6686   45.9366 H   0  0  0  0  0  0  0  0  0  0  0  0
   58.2050   26.6180   45.6270 C   0  0  0  0  0  0  0  0  0  0  0  0
   58.3004   25.5681   45.9410 H   0  0  0  0  0  0  0  0  0  0  0  0
   59.3370   27.3350   45.2320 C   0  0  0  0  0  0  0  0  0  0  0  0
   60.3236   26.8485   45.2355 H   0  0  0  0  0  0  0  0  0  0  0  0
   59.2190   28.6670   44.8330 C   0  0  0  0  0  0  0  0  0  0  0  0
   60.1145   29.2267   44.5252 H   0  0  0  0  0  0  0  0  0  0  0  0
   57.9630   29.2980   44.8220 C   0  0  0  0  0  0  0  0  0  0  0  0
   57.8750   30.7520   44.4310 C   0  0  0  0  0  0  0  0  0  0  0  0
   57.1880   30.8578   43.5784 H   0  0  0  0  0  0  0  0  0  0  0  0
   58.8774   31.1096   44.1530 H   0  0  0  0  0  0  0  0  0  0  0  0
   57.3800   31.5470   45.5500 N   0  0  0  0  0  0  0  0  0  0  0  0
   58.1770   32.4990   46.2640 C   0  0  0  0  0  0  0  0  0  0  0  0
   59.0530   33.1790   45.6640 O   0  0  0  0  0  0  0  0  0  0  0  0
   58.0060   32.6480   47.7420 C   0  0  0  0  0  0  0  0  0  0  0  0
   56.9577   32.4485   48.0090 H   0  0  0  0  0  0  0  0  0  0  0  0
   58.2779   33.6729   48.0347 H   0  0  0  0  0  0  0  0  0  0  0  0
   58.8920   31.6820   48.4610 C   0  0  0  0  0  0  0  0  0  0  0  0
   58.4660   30.9980   49.5570 N   0  0  0  0  0  0  0  0  0  0  0  0
   59.4220   30.1610   50.0180 C   0  0  0  0  0  0  0  0  0  0  0  0
   59.2870   29.3960   51.0610 N   0  0  0  0  0  0  0  0  0  0  0  0
   58.6570   29.7540   52.3020 C   0  0  0  0  0  0  0  0  0  0  0  0
   59.3330   29.8240   53.3660 O   0  0  0  0  0  0  0  0  0  0  0  0
   57.2020   30.0420   52.3360 C   0  0  0  0  0  0  0  0  0  0  0  0
   56.7170   31.3130   51.9830 C   0  0  0  0  0  0  0  0  0  0  0  0
   57.4217   32.1018   51.6809 H   0  0  0  0  0  0  0  0  0  0  0  0
   55.3460   31.5820   52.0130 C   0  0  0  0  0  0  0  0  0  0  0  0
   54.9825   32.5844   51.7427 H   0  0  0  0  0  0  0  0  0  0  0  0
   54.4280   30.5880   52.3840 C   0  0  0  0  0  0  0  0  0  0  0  0
   52.9850   30.9280   52.4130 C   0  0  0  0  0  0  0  0  0  0  0  0
   52.5288   31.1727   53.3836 H   0  0  0  0  0  0  0  0  0  0  0  0
   52.2050   30.9540   51.3230 C   0  0  0  0  0  0  0  0  0  0  0  0
   52.1746   30.0693   50.6700 H   0  0  0  0  0  0  0  0  0  0  0  0
   51.3890   32.1250   50.9710 C   0  0  0  0  0  0  0  0  0  0  0  0
   51.0250   32.3350   49.7820 O   0  0  0  0  0  0  0  0  0  0  0  0
   51.0050   33.0140   51.9660 O   0  0  0  0  0  0  0  0  0  0  0  0
   54.9150   29.3170   52.7470 C   0  0  0  0  0  0  0  0  0  0  0  0
   54.2106   28.5296   53.0532 H   0  0  0  0  0  0  0  0  0  0  0  0
   56.2860   29.0490   52.7210 C   0  0  0  0  0  0  0  0  0  0  0  0
   56.6515   28.0510   53.0047 H   0  0  0  0  0  0  0  0  0  0  0  0
   60.8180   30.2250   49.0910 S   0  0  0  0  0  0  0  0  0  0  0  0
   60.1870   31.3790   48.0410 C   0  0  0  0  0  0  0  0  0  0  0  0
   60.7051   31.8174   47.1753 H   0  0  0  0  0  0  0  0  0  0  0  0
  1  2  1  0
  2  3  1  0
  3  4  2  0
  4  5  1  0
  4  6  1  0
  6  7  1  0
  6  8  2  0
  8  9  1  0
  8 10  1  0
 10 11  1  0
 10 12  2  0
 12 13  1  0
 13 14  1  0
 13 15  1  0
 13 16  1  0
 16 17  1  0
 17 18  2  0
 17 19  1  0
 19 20  1  0
 19 21  1  0
 19 22  1  0
 22 23  1  0
 23 24  1  0
 24 25  2  0
 25 26  1  0
 26 27  2  0
 26 28  1  0
 28 29  2  0
 29 30  1  0
 29 31  1  0
 31 32  1  0
 31 33  2  0
 33 34  1  0
 34 35  1  0
 34 36  2  0
 36 37  1  0
 36 38  1  0
 38 39  2  0
 38 40  1  0
 33 41  1  0
 41 42  1  0
 41 43  2  0
 43 44  1  0
 24 45  1  0
 45 46  1  0
 46 47  1  0
 12  3  1  0
 46 22  2  0
 43 28  1  0
M  CHG  3  16  -1  23  -1  40  -1
M  END
>  <UniqueID>  (9) 
9

>  <SMILES>  (9) 
O=C([O-])/C=C/c1ccc(C(=O)/N=c2\[n-]c(CC(=O)[N-]Cc3ccccc3O)cs2)cc1

>  <Energy>  (9) 
79.18324941790452

>  <Genealogy>  (9) 
O=C([O-])C=Cc1ccc(C(=O)N=c2[n-]c(CC(=O)[N-]Cc3ccccc3O)cs2)cc1 (protonated)
O=C([O-])/C=C/c1ccc(C(=O)/N=c2\[n-]c(CC(=O)[N-]Cc3ccccc3O)cs2)cc1 (cis-trans isomerization)
O=C([O-])/C=C/c1ccc(C(=O)/N=c2\[n-]c(CC(=O)[N-]Cc3ccccc3O)cs2)cc1 (3D coordinates assigned)
O=C([O-])/C=C/c1ccc(C(=O)/N=c2\[n-]c(CC(=O)[N-]Cc3ccccc3O)cs2)cc1 (optimized conformer: 79.18324941790452 kcal/mol)

>  <smiles>  (9) 
O=C(O)C=Cc1ccc(C(=O)N=c2[nH]c(CC(=O)NCc3ccccc3O)cs2)cc1

>  <score_type>  (9) 
oracle

>  <origin>  (9) 
adg

>  <m_score__min__energy>  (9) 
-15.119999999999999

>  <m_primary>  (9) 
energy

$$$$
9:0
     RDKit          3D

 48 50  0  0  1  0  0  0  0  0999 V2000
   60.0410   33.4440   51.3550 C   0  0  0  0  0  0  0  0  0  0  0  0
   60.5800   34.0460   50.2060 O   0  0  0  0  0  0  0  0  0  0  0  0
   59.9800   33.8950   48.9720 C   0  0  0  0  0  0  0  0  0  0  0  0
   58.9470   32.9870   48.8080 C   0  0  0  0  0  0  0  0  0  0  0  0
   58.3120   32.7960   47.6120 C   0  0  0  0  0  0  0  0  0  0  0  0
   58.6680   33.5090   46.4750 C   0  0  0  0  0  0  0  0  0  0  0  0
   57.8480   33.2780   45.3080 C   0  0  0  0  0  0  0  0  0  0  0  0
   57.0160   34.4910   44.8470 C   0  0  0  0  0  0  0  0  0  0  0  0
   57.7420   32.2400   44.5750 C   0  0  0  0  0  0  0  0  0  0  0  0
   57.7970   30.8400   44.8500 C   0  0  0  0  0  0  0  0  0  0  0  0
   59.0860   30.3770   45.2410 C   0  0  0  0  0  0  0  0  0  0  0  0
   59.3060   29.0800   45.6410 C   0  0  0  0  0  0  0  0  0  0  0  0
   58.2270   28.2020   45.6610 C   0  0  0  0  0  0  0  0  0  0  0  0
   58.3660   26.8010   46.0690 C   0  0  0  0  0  0  0  0  0  0  0  0
   59.4340   26.3190   46.5240 O   0  0  0  0  0  0  0  0  0  0  0  0
   57.2640   25.8930   45.9640 N   0  0  0  0  0  0  0  0  0  0  0  0
   57.1700   25.0360   44.9710 C   0  0  0  0  0  0  0  0  0  0  0  0
   57.1230   23.6470   45.0480 C   0  0  0  0  0  0  0  0  0  0  0  0
   57.0210   23.1550   43.7570 C   0  0  0  0  0  0  0  0  0  0  0  0
   56.9590   21.7560   43.3370 C   0  0  0  0  0  0  0  0  0  0  0  0
   57.6410   20.7230   43.9940 N   0  0  0  0  0  0  0  0  0  0  0  0
   56.2590   21.4410   42.3330 O   0  0  0  0  0  0  0  0  0  0  0  0
   57.0140   24.2310   42.9600 N   0  0  0  0  0  0  0  0  0  0  0  0
   57.1000   25.3530   43.6590 N   0  0  0  0  0  0  0  0  0  0  0  0
   56.9590   28.6090   45.2900 C   0  0  0  0  0  0  0  0  0  0  0  0
   55.9150   27.7250   45.3100 F   0  0  0  0  0  0  0  0  0  0  0  0
   56.7870   29.9170   44.8980 C   0  0  0  0  0  0  0  0  0  0  0  0
   59.6840   34.4010   46.6280 C   0  0  0  0  0  0  0  0  0  0  0  0
   60.3410   34.6010   47.8550 C   0  0  0  0  0  0  0  0  0  0  0  0
   60.4662   33.9189   52.2515 H   0  0  0  0  0  0  0  0  0  0  0  0
   58.9482   33.5700   51.3566 H   0  0  0  0  0  0  0  0  0  0  0  0
   60.2865   32.3717   51.3566 H   0  0  0  0  0  0  0  0  0  0  0  0
   58.6237   32.3944   49.6765 H   0  0  0  0  0  0  0  0  0  0  0  0
   57.4983   32.0585   47.5491 H   0  0  0  0  0  0  0  0  0  0  0  0
   56.6427   35.0353   45.7270 H   0  0  0  0  0  0  0  0  0  0  0  0
   57.6465   35.1597   44.2425 H   0  0  0  0  0  0  0  0  0  0  0  0
   56.1651   34.1436   44.2425 H   0  0  0  0  0  0  0  0  0  0  0  0
   57.5736   32.4705   43.5127 H   0  0  0  0  0  0  0  0  0  0  0  0
   59.9324   31.0794   45.2224 H   0  0  0  0  0  0  0  0  0  0  0  0
   60.3107   28.7448   45.9380 H   0  0  0  0  0  0  0  0  0  0  0  0
   57.1602   23.0472   45.9693 H   0  0  0  0  0  0  0  0  0  0  0  0
   58.6970   20.7330   43.9650 H   0  0  0  0  0  0  0  0  0  0  0  0
   57.2150   19.9400   44.5150 H   0  0  0  0  0  0  0  0  0  0  0  0
   56.9510   24.2580   41.9090 H   0  0  0  0  0  0  0  0  0  0  0  0
   57.1110   26.3250   43.3010 H   0  0  0  0  0  0  0  0  0  0  0  0
   55.7771   30.2403   44.6056 H   0  0  0  0  0  0  0  0  0  0  0  0
   60.0046   34.9899   45.7560 H   0  0  0  0  0  0  0  0  0  0  0  0
   61.1573   35.3356   47.9189 H   0  0  0  0  0  0  0  0  0  0  0  0
  1  2  1  0
  2  3  1  0
  3  4  2  0
  4  5  1  0
  5  6  2  0
  6  7  1  0
  7  8  1  0
  7  9  2  0
  9 10  1  0
 10 11  2  0
 11 12  1  0
 12 13  2  0
 13 14  1  0
 14 15  2  0
 14 16  1  0
 16 17  2  0
 17 18  1  0
 18 19  2  0
 19 20  1  0
 20 21  1  0
 20 22  2  0
 19 23  1  0
 23 24  1  0
 13 25  1  0
 25 26  1  0
 25 27  2  0
  6 28  1  0
 28 29  2  0
 29  3  1  0
 27 10  1  0
 24 17  1  0
  1 30  1  0
  1 31  1  0
  1 32  1  0
  4 33  1  0
  5 34  1  0
  8 35  1  0
  8 36  1  0
  8 37  1  0
  9 38  1  0
 11 39  1  0
 12 40  1  0
 18 41  1  0
 21 42  1  0
 21 43  1  0
 23 44  1  0
 24 45  1  0
 27 46  1  0
 28 47  1  0
 29 48  1  0
M  END
>  <smiles>  (10) 
COc1ccc(C(C)=Cc2ccc(C(=O)N=c3cc(C(N)=O)[nH][nH]3)c(F)c2)cc1

>  <score_type>  (10) 
oracle

>  <origin>  (10) 
adg

>  <m_score__min__energy>  (10) 
-10.06

>  <m_primary>  (10) 
energy

$$$$
10:0
     RDKit          3D

 40 41  0  0  0  0  0  0  0  0999 V2000
   58.7490   29.7140   48.3770 C   0  0  0  0  0  0  0  0  0  0  0  0
   58.6330   29.6630   46.8380 C   0  0  2  0  0  0  0  0  0  0  0  0
   58.1130   28.3490   46.4090 C   0  0  0  0  0  0  0  0  0  0  0  0
   57.6920   27.2740   46.0640 C   0  0  0  0  0  0  0  0  0  0  0  0
   57.1940   25.9880   45.6510 C   0  0  0  0  0  0  0  0  0  0  0  0
   58.0960   24.9840   45.2710 C   0  0  0  0  0  0  0  0  0  0  0  0
   57.6220   23.7310   44.8710 C   0  0  0  0  0  0  0  0  0  0  0  0
   56.2480   23.4750   44.8480 C   0  0  0  0  0  0  0  0  0  0  0  0
   55.3440   24.4750   45.2260 C   0  0  0  0  0  0  0  0  0  0  0  0
   55.8130   25.7310   45.6280 C   0  0  0  0  0  0  0  0  0  0  0  0
   54.9020   26.7150   45.9980 O   0  0  0  0  0  0  0  0  0  0  0  0
   60.0260   29.8910   46.1910 C   0  0  0  0  0  0  0  0  0  0  0  0
   60.8030   31.0650   46.7490 C   0  0  0  0  0  0  0  0  0  0  0  0
   60.2800   32.3670   46.6680 C   0  0  0  0  0  0  0  0  0  0  0  0
   60.9930   33.4480   47.1940 C   0  0  0  0  0  0  0  0  0  0  0  0
   62.2350   33.2400   47.8000 C   0  0  0  0  0  0  0  0  0  0  0  0
   62.9410   34.3160   48.3250 O   0  0  0  0  0  0  0  0  0  0  0  0
   62.7670   31.9500   47.8780 C   0  0  0  0  0  0  0  0  0  0  0  0
   62.0560   30.8660   47.3520 C   0  0  0  0  0  0  0  0  0  0  0  0
   57.7570   30.7390   46.3350 N   0  0  0  0  0  0  0  0  0  0  0  0
   57.2820   30.6290   44.6550 S   0  0  0  0  0  0  0  0  0  0  0  0
   57.6020   32.1820   43.8450 C   0  0  0  0  0  0  0  0  0  0  0  0
   55.8310   30.2720   44.4950 O   0  0  0  0  0  0  0  0  0  0  0  0
   58.1150   29.5680   43.9910 O   0  0  0  0  0  0  0  0  0  0  0  0
   57.8304   29.3101   48.8275 H   0  0  0  0  0  0  0  0  0  0  0  0
   59.6111   29.1119   48.6999 H   0  0  0  0  0  0  0  0  0  0  0  0
   58.8882   30.7563   48.6999 H   0  0  0  0  0  0  0  0  0  0  0  0
   59.1778   25.1824   45.2876 H   0  0  0  0  0  0  0  0  0  0  0  0
   58.3318   22.9450   44.5738 H   0  0  0  0  0  0  0  0  0  0  0  0
   55.8772   22.4884   44.5331 H   0  0  0  0  0  0  0  0  0  0  0  0
   54.2628   24.2732   45.2070 H   0  0  0  0  0  0  0  0  0  0  0  0
   60.6259   28.9814   46.3417 H   0  0  0  0  0  0  0  0  0  0  0  0
   59.8406   30.1192   45.1310 H   0  0  0  0  0  0  0  0  0  0  0  0
   59.3047   32.5361   46.1883 H   0  0  0  0  0  0  0  0  0  0  0  0
   60.5759   34.4639   47.1309 H   0  0  0  0  0  0  0  0  0  0  0  0
   63.7455   31.7869   48.3533 H   0  0  0  0  0  0  0  0  0  0  0  0
   62.4803   29.8528   47.4109 H   0  0  0  0  0  0  0  0  0  0  0  0
   57.7631   32.9639   44.6018 H   0  0  0  0  0  0  0  0  0  0  0  0
   58.5000   32.0895   43.2164 H   0  0  0  0  0  0  0  0  0  0  0  0
   56.7406   32.4520   43.2164 H   0  0  0  0  0  0  0  0  0  0  0  0
  1  2  1  0
  2  3  1  1
  3  4  3  0
  4  5  1  0
  5  6  2  0
  6  7  1  0
  7  8  2  0
  8  9  1  0
  9 10  2  0
 10 11  1  0
  2 12  1  0
 12 13  1  0
 13 14  2  0
 14 15  1  0
 15 16  2  0
 16 17  1  0
 16 18  1  0
 18 19  2  0
  2 20  1  0
 20 21  1  0
 21 22  1  0
 21 23  2  0
 21 24  2  0
 10  5  1  0
 19 13  1  0
  1 25  1  0
  1 26  1  0
  1 27  1  0
  6 28  1  0
  7 29  1  0
  8 30  1  0
  9 31  1  0
 12 32  1  0
 12 33  1  0
 14 34  1  0
 15 35  1  0
 18 36  1  0
 19 37  1  0
 22 38  1  0
 22 39  1  0
 22 40  1  0
M  CHG  3  11  -1  17  -1  20  -1
M  END
>  <UniqueID>  (11) 
10

>  <SMILES>  (11) 
C[C@](C#Cc1ccccc1[O-])(Cc1ccc([O-])cc1)[N-]S(C)(=O)=O

>  <Energy>  (11) 
34.20298658613267

>  <Genealogy>  (11) 
CC(C#Cc1ccccc1[O-])(Cc1ccc([O-])cc1)[N-]S(C)(=O)=O (protonated)
C[C@](C#Cc1ccccc1[O-])(Cc1ccc([O-])cc1)[N-]S(C)(=O)=O (chirality)
C[C@](C#Cc1ccccc1[O-])(Cc1ccc([O-])cc1)[N-]S(C)(=O)=O (3D coordinates assigned)
C[C@](C#Cc1ccccc1[O-])(Cc1ccc([O-])cc1)[N-]S(C)(=O)=O (optimized conformer: 34.20298658613267 kcal/mol)

>  <smiles>  (11) 
CC(C#Cc1ccccc1O)(Cc1ccc(O)cc1)NS(C)(=O)=O

>  <score_type>  (11) 
oracle

>  <origin>  (11) 
adg

>  <m_score__min__energy>  (11) 
-13.300000000000001

>  <m_primary>  (11) 
energy

$$$$
11:0
     RDKit          3D

 43 45  0  0  0  0  0  0  0  0999 V2000
   59.8092   25.6219   47.0866 H   0  0  0  0  0  0  0  0  0  0  0  0
   59.7060   26.5760   46.5490 C   0  0  0  0  0  0  0  0  0  0  0  0
   60.6026   27.1403   46.2530 H   0  0  0  0  0  0  0  0  0  0  0  0
   58.4850   27.0520   46.2540 C   0  0  0  0  0  0  0  0  0  0  0  0
   58.1750   28.2480   45.5760 C   0  0  0  0  0  0  0  0  0  0  0  0
   58.9590   29.2650   45.1660 C   0  0  0  0  0  0  0  0  0  0  0  0
   59.6231   29.0743   44.3101 H   0  0  0  0  0  0  0  0  0  0  0  0
   59.0030   30.6130   45.7670 C   0  0  0  0  0  0  0  0  0  0  0  0
   57.9260   31.4850   45.6050 C   0  0  0  0  0  0  0  0  0  0  0  0
   56.8190   31.0720   44.8640 O   0  0  0  0  0  0  0  0  0  0  0  0
   57.9610   32.7370   46.1570 N   0  0  0  0  0  0  0  0  0  0  0  0
   56.8190   33.6460   45.9670 C   0  0  0  0  0  0  0  0  0  0  0  0
   56.4298   33.9558   46.9481 H   0  0  0  0  0  0  0  0  0  0  0  0
   57.1462   34.5335   45.4055 H   0  0  0  0  0  0  0  0  0  0  0  0
   56.0275   33.1280   45.4055 H   0  0  0  0  0  0  0  0  0  0  0  0
   59.0240   33.1130   46.9390 C   0  0  0  0  0  0  0  0  0  0  0  0
   59.0390   34.2640   47.4640 O   0  0  0  0  0  0  0  0  0  0  0  0
   60.0700   32.2510   47.1620 N   0  0  0  0  0  0  0  0  0  0  0  0
   61.2190   32.6830   47.9780 C   0  0  0  0  0  0  0  0  0  0  0  0
   60.9674   32.5884   49.0447 H   0  0  0  0  0  0  0  0  0  0  0  0
   62.0896   32.0508   47.7491 H   0  0  0  0  0  0  0  0  0  0  0  0
   61.4574   33.7322   47.7491 H   0  0  0  0  0  0  0  0  0  0  0  0
   60.0780   31.0170   46.5690 C   0  0  0  0  0  0  0  0  0  0  0  0
   61.0520   30.2310   46.7430 O   0  0  0  0  0  0  0  0  0  0  0  0
   56.8030   28.2410   45.3820 C   0  0  0  0  0  0  0  0  0  0  0  0
   56.2073   29.0054   44.8615 H   0  0  0  0  0  0  0  0  0  0  0  0
   56.3340   27.0910   45.9680 C   0  0  0  0  0  0  0  0  0  0  0  0
   54.9970   26.7130   46.0010 O   0  0  0  0  0  0  0  0  0  0  0  0
   57.3370   26.3680   46.5060 N   0  0  0  0  0  0  0  0  0  0  0  0
   57.1840   25.0560   47.1480 C   0  0  0  0  0  0  0  0  0  0  0  0
   58.1259   24.7864   47.6481 H   0  0  0  0  0  0  0  0  0  0  0  0
   56.3661   25.1138   47.8813 H   0  0  0  0  0  0  0  0  0  0  0  0
   56.8460   24.0000   46.1260 C   0  0  0  0  0  0  0  0  0  0  0  0
   57.1320   24.2030   44.7650 C   0  0  0  0  0  0  0  0  0  0  0  0
   57.6089   25.1393   44.4394 H   0  0  0  0  0  0  0  0  0  0  0  0
   56.8130   23.2200   43.8230 C   0  0  0  0  0  0  0  0  0  0  0  0
   57.0346   23.3874   42.7586 H   0  0  0  0  0  0  0  0  0  0  0  0
   56.2130   22.0250   44.2310 C   0  0  0  0  0  0  0  0  0  0  0  0
   55.8970   21.0500   43.2930 O   0  0  0  0  0  0  0  0  0  0  0  0
   55.9350   21.8110   45.5840 C   0  0  0  0  0  0  0  0  0  0  0  0
   55.4665   20.8692   45.9057 H   0  0  0  0  0  0  0  0  0  0  0  0
   56.2510   22.7910   46.5290 C   0  0  0  0  0  0  0  0  0  0  0  0
   56.0333   22.6159   47.5929 H   0  0  0  0  0  0  0  0  0  0  0  0
  1  2  1  0
  2  3  1  0
  2  4  2  0
  4  5  1  0
  5  6  2  0
  6  7  1  0
  6  8  1  0
  8  9  2  0
  9 10  1  0
  9 11  1  0
 11 12  1  0
 12 13  1  0
 12 14  1  0
 12 15  1  0
 11 16  1  0
 16 17  2  0
 16 18  1  0
 18 19  1  0
 19 20  1  0
 19 21  1  0
 19 22  1  0
 18 23  1  0
 23 24  2  0
  5 25  1  0
 25 26  1  0
 25 27  2  0
 27 28  1  0
 27 29  1  0
 29 30  1  0
 30 31  1  0
 30 32  1  0
 30 33  1  0
 33 34  2  0
 34 35  1  0
 34 36  1  0
 36 37  1  0
 36 38  2  0
 38 39  1  0
 38 40  1  0
 40 41  1  0
 40 42  2  0
 42 43  1  0
 29  4  1  0
 42 33  1  0
 23  8  1  0
M  CHG  3  10  -1  28  -1  39  -1
M  END
>  <UniqueID>  (12) 
11

>  <SMILES>  (12) 
C=c1/c(=C\c2c([O-])n(C)c(=O)n(C)c2=O)cc([O-])n1Cc1ccc([O-])cc1

>  <Energy>  (12) 
94.91662334078308

>  <Genealogy>  (12) 
C=c1c(=Cc2c([O-])n(C)c(=O)n(C)c2=O)cc([O-])n1Cc1ccc([O-])cc1 (protonated)
C=c1/c(=C\c2c([O-])n(C)c(=O)n(C)c2=O)cc([O-])n1Cc1ccc([O-])cc1 (cis-trans isomerization)
C=c1/c(=C\c2c([O-])n(C)c(=O)n(C)c2=O)cc([O-])n1Cc1ccc([O-])cc1 (3D coordinates assigned)
C=c1/c(=C\c2c([O-])n(C)c(=O)n(C)c2=O)cc([O-])n1Cc1ccc([O-])cc1 (optimized conformer: 94.91662334078308 kcal/mol)

>  <smiles>  (12) 
C=c1c(=Cc2c(O)n(C)c(=O)n(C)c2=O)cc(O)n1Cc1ccc(O)cc1

>  <score_type>  (12) 
oracle

>  <origin>  (12) 
adg

>  <m_score__min__energy>  (12) 
-14.539999999999999

>  <m_primary>  (12) 
energy

$$$$
12:0
     RDKit          3D

 55 57  0  0  0  0  0  0  0  0999 V2000
   56.2270   21.8510   41.5420 H   0  0  0  0  0  0  0  0  0  0  0  0
   56.1580   21.7100   42.5750 N   0  0  0  0  0  0  0  0  0  0  0  0
   56.2250   22.6910   43.4190 C   0  0  0  0  0  0  0  0  0  0  0  0
   55.0890   23.1380   44.0140 N   0  0  0  0  0  0  0  0  0  0  0  0
   55.0870   24.1630   44.9110 C   0  0  0  0  0  0  0  0  0  0  0  0
   53.7780   24.5830   45.5140 C   0  0  0  0  0  0  0  0  0  0  0  0
   53.8549   24.5583   46.6110 H   0  0  0  0  0  0  0  0  0  0  0  0
   53.5343   25.6044   45.1864 H   0  0  0  0  0  0  0  0  0  0  0  0
   52.9855   23.8940   45.1864 H   0  0  0  0  0  0  0  0  0  0  0  0
   56.3060   24.8000   45.2470 C   0  0  0  0  0  0  0  0  0  0  0  0
   56.3740   25.9240   46.2530 C   0  0  0  0  0  0  0  0  0  0  0  0
   55.9411   25.5842   47.2054 H   0  0  0  0  0  0  0  0  0  0  0  0
   57.4263   26.2107   46.3959 H   0  0  0  0  0  0  0  0  0  0  0  0
   55.6300   27.0830   45.7740 N   0  0  0  0  0  0  0  0  0  0  0  0
   56.2480   28.2660   45.2590 C   0  0  0  0  0  0  0  0  0  0  0  0
   55.5450   29.2430   44.8820 O   0  0  0  0  0  0  0  0  0  0  0  0
   57.7410   28.3440   45.1740 C   0  0  0  0  0  0  0  0  0  0  0  0
   58.1642   27.3386   45.3154 H   0  0  0  0  0  0  0  0  0  0  0  0
   58.0199   28.7386   44.1858 H   0  0  0  0  0  0  0  0  0  0  0  0
   58.2750   29.2470   46.2160 N   0  0  0  0  0  0  0  0  0  0  0  0
   59.0280   28.7600   47.2660 C   0  0  0  0  0  0  0  0  0  0  0  0
   59.3260   27.2900   47.4310 C   0  0  0  0  0  0  0  0  0  0  0  0
   59.3759   27.0439   48.5020 H   0  0  0  0  0  0  0  0  0  0  0  0
   58.5294   26.6988   46.9557 H   0  0  0  0  0  0  0  0  0  0  0  0
   60.2899   27.0557   46.9557 H   0  0  0  0  0  0  0  0  0  0  0  0
   59.5090   29.6480   48.2390 C   0  0  0  0  0  0  0  0  0  0  0  0
   60.0910   29.2676   49.0914 H   0  0  0  0  0  0  0  0  0  0  0  0
   59.2570   30.9730   48.1290 N   0  0  0  0  0  0  0  0  0  0  0  0
   58.5430   31.4760   47.0910 C   0  0  0  0  0  0  0  0  0  0  0  0
   58.3140   32.7560   46.9990 N   0  0  0  0  0  0  0  0  0  0  0  0
   59.2250   33.7290   46.3980 C   0  0  0  0  0  0  0  0  0  0  0  0
   59.3882   33.4683   45.3419 H   0  0  0  0  0  0  0  0  0  0  0  0
   58.7781   34.7311   46.4757 H   0  0  0  0  0  0  0  0  0  0  0  0
   60.5500   33.7270   47.1210 C   0  0  0  0  0  0  0  0  0  0  0  0
   61.7310   33.8250   46.3720 C   0  0  0  0  0  0  0  0  0  0  0  0
   61.6789   33.8802   45.2746 H   0  0  0  0  0  0  0  0  0  0  0  0
   62.9720   33.8530   47.0090 C   0  0  0  0  0  0  0  0  0  0  0  0
   63.8929   33.9266   46.4120 H   0  0  0  0  0  0  0  0  0  0  0  0
   63.0490   33.7880   48.3990 C   0  0  0  0  0  0  0  0  0  0  0  0
   64.0313   33.8103   48.8935 H   0  0  0  0  0  0  0  0  0  0  0  0
   61.8780   33.6940   49.1740 C   0  0  0  0  0  0  0  0  0  0  0  0
   61.9210   33.6350   50.5760 O   0  0  0  0  0  0  0  0  0  0  0  0
   61.3930   32.5670   51.3570 C   0  0  0  0  0  0  0  0  0  0  0  0
   61.5091   32.8018   52.4254 H   0  0  0  0  0  0  0  0  0  0  0  0
   60.3260   32.4353   51.1244 H   0  0  0  0  0  0  0  0  0  0  0  0
   61.9362   31.6392   51.1244 H   0  0  0  0  0  0  0  0  0  0  0  0
   60.6240   33.6620   48.5300 C   0  0  0  0  0  0  0  0  0  0  0  0
   59.4500   33.5670   49.2810 O   0  0  0  0  0  0  0  0  0  0  0  0
   58.7550   32.8500   49.1120 H   0  0  0  0  0  0  0  0  0  0  0  0
   58.0480   30.6010   46.1120 C   0  0  0  0  0  0  0  0  0  0  0  0
   57.3910   31.0700   45.1400 O   0  0  0  0  0  0  0  0  0  0  0  0
   57.4880   24.3450   44.6390 C   0  0  0  0  0  0  0  0  0  0  0  0
   58.4483   24.8212   44.8861 H   0  0  0  0  0  0  0  0  0  0  0  0
   57.4510   23.2930   43.7240 C   0  0  0  0  0  0  0  0  0  0  0  0
   58.3769   22.9398   43.2465 H   0  0  0  0  0  0  0  0  0  0  0  0
  1  2  1  0
  2  3  2  0
  3  4  1  0
  4  5  1  0
  5  6  1  0
  6  7  1  0
  6  8  1  0
  6  9  1  0
  5 10  2  0
 10 11  1  0
 11 12  1  0
 11 13  1  0
 11 14  1  0
 14 15  1  0
 15 16  2  0
 15 17  1  0
 17 18  1  0
 17 19  1  0
 17 20  1  0
 20 21  1  0
 21 22  1  0
 22 23  1  0
 22 24  1  0
 22 25  1  0
 21 26  2  0
 26 27  1  0
 26 28  1  0
 28 29  1  0
 29 30  2  0
 30 31  1  0
 31 32  1  0
 31 33  1  0
 31 34  1  0
 34 35  2  0
 35 36  1  0
 35 37  1  0
 37 38  1  0
 37 39  2  0
 39 40  1  0
 39 41  1  0
 41 42  1  0
 42 43  1  0
 43 44  1  0
 43 45  1  0
 43 46  1  0
 41 47  2  0
 47 48  1  0
 48 49  1  0
 29 50  1  0
 50 51  2  0
 10 52  1  0
 52 53  1  0
 52 54  2  0
 54 55  1  0
 54  3  1  0
 50 20  1  0
 47 34  1  0
M  CHG  3   4  -1  14  -1  28  -1
M  END
>  <UniqueID>  (13) 
12

>  <SMILES>  (13) 
[H]/N=c1\ccc(C[N-]C(=O)Cn2c(C)c[n-]/c(=N\Cc3cccc(OC)c3O)c2=O)c(C)[n-]1

>  <Energy>  (13) 
60.70216924122934

>  <Genealogy>  (13) 
COc1cccc(CN=c2[n-]cc(C)n(CC(=O)[N-]Cc3ccc(=N)[n-]c3C)c2=O)c1O (protonated)
[H]/N=c1\ccc(C[N-]C(=O)Cn2c(C)c[n-]/c(=N\Cc3cccc(OC)c3O)c2=O)c(C)[n-]1 (cis-trans isomerization)
[H]/N=c1\ccc(C[N-]C(=O)Cn2c(C)c[n-]/c(=N\Cc3cccc(OC)c3O)c2=O)c(C)[n-]1 (3D coordinates assigned)
[H]/N=c1\ccc(C[N-]C(=O)Cn2c(C)c[n-]/c(=N\Cc3cccc(OC)c3O)c2=O)c(C)[n-]1 (optimized conformer: 60.70216924122934 kcal/mol)

>  <smiles>  (13) 
COc1cccc(CN=c2[nH]cc(C)n(CC(=O)NCc3ccc(=N)[nH]c3C)c2=O)c1O

>  <score_type>  (13) 
oracle

>  <origin>  (13) 
adg

>  <m_score__min__energy>  (13) 
-13.35

>  <m_primary>  (13) 
energy

$$$$
13:0
     RDKit          3D

 45 47  0  0  0  0  0  0  0  0999 V2000
   61.6660   33.4680   45.9270 O   0  0  0  0  0  0  0  0  0  0  0  0
   61.2140   34.0420   46.9550 C   0  0  0  0  0  0  0  0  0  0  0  0
   60.1290   34.9730   46.8330 N   0  0  0  0  0  0  0  0  0  0  0  0
   59.3980   35.1600   45.5830 C   0  0  0  0  0  0  0  0  0  0  0  0
   58.6710   33.8990   45.2040 C   0  0  0  0  0  0  0  0  0  0  0  0
   58.0300   33.1220   46.1810 C   0  0  0  0  0  0  0  0  0  0  0  0
   57.4000   31.9230   45.8290 C   0  0  0  0  0  0  0  0  0  0  0  0
   57.3940   31.4960   44.4940 C   0  0  0  0  0  0  0  0  0  0  0  0
   56.6440   29.9680   44.0400 S   0  0  0  0  0  0  0  0  0  0  0  0
   56.2720   29.9770   42.5830 O   0  0  0  0  0  0  0  0  0  0  0  0
   55.3910   29.7930   44.8500 O   0  0  0  0  0  0  0  0  0  0  0  0
   57.7210   28.6420   44.3740 N   0  0  0  0  0  0  0  0  0  0  0  0
   57.7430   28.3170   45.8030 C   0  0  0  0  0  0  0  0  0  0  0  0
   58.8350   29.0720   46.5120 C   0  0  0  0  0  0  0  0  0  0  0  0
   58.8000   29.2100   47.9090 C   0  0  0  0  0  0  0  0  0  0  0  0
   59.8230   29.8920   48.5750 C   0  0  0  0  0  0  0  0  0  0  0  0
   60.8840   30.4410   47.8500 C   0  0  0  0  0  0  0  0  0  0  0  0
   60.9190   30.3210   46.4580 C   0  0  0  0  0  0  0  0  0  0  0  0
   59.9010   29.6340   45.7900 C   0  0  0  0  0  0  0  0  0  0  0  0
   58.0120   32.2820   43.5130 C   0  0  0  0  0  0  0  0  0  0  0  0
   58.6490   33.4750   43.8650 C   0  0  0  0  0  0  0  0  0  0  0  0
   61.8510   33.7740   48.2580 C   0  0  0  0  0  0  0  0  0  0  0  0
   63.1890   33.5050   48.4580 C   0  0  0  0  0  0  0  0  0  0  0  0
   63.4040   33.2760   49.7670 N   0  0  0  0  0  0  0  0  0  0  0  0
   62.2550   33.3750   50.3710 O   0  0  0  0  0  0  0  0  0  0  0  0
   61.2900   33.6560   49.5240 C   0  0  0  0  0  0  0  0  0  0  0  0
   59.8550   33.7880   49.9350 C   0  0  0  0  0  0  0  0  0  0  0  0
   59.7620   33.7820   51.3140 F   0  0  0  0  0  0  0  0  0  0  0  0
   59.3130   34.9560   49.4350 F   0  0  0  0  0  0  0  0  0  0  0  0
   59.1320   32.7200   49.4360 F   0  0  0  0  0  0  0  0  0  0  0  0
   59.9100   35.6120   47.6270 H   0  0  0  0  0  0  0  0  0  0  0  0
   58.6691   35.9743   45.7083 H   0  0  0  0  0  0  0  0  0  0  0  0
   60.1139   35.4109   44.7864 H   0  0  0  0  0  0  0  0  0  0  0  0
   58.0227   33.4570   47.2287 H   0  0  0  0  0  0  0  0  0  0  0  0
   56.9083   31.3141   46.6020 H   0  0  0  0  0  0  0  0  0  0  0  0
   56.7733   28.5852   46.2477 H   0  0  0  0  0  0  0  0  0  0  0  0
   57.9335   27.2393   45.9140 H   0  0  0  0  0  0  0  0  0  0  0  0
   57.9649   28.7801   48.4814 H   0  0  0  0  0  0  0  0  0  0  0  0
   59.7926   29.9964   49.6696 H   0  0  0  0  0  0  0  0  0  0  0  0
   61.6933   30.9687   48.3760 H   0  0  0  0  0  0  0  0  0  0  0  0
   61.7474   30.7670   45.8881 H   0  0  0  0  0  0  0  0  0  0  0  0
   59.9348   29.5332   44.6952 H   0  0  0  0  0  0  0  0  0  0  0  0
   57.9958   31.9590   42.4616 H   0  0  0  0  0  0  0  0  0  0  0  0
   59.1356   34.0850   43.0897 H   0  0  0  0  0  0  0  0  0  0  0  0
   63.9585   33.4814   47.6723 H   0  0  0  0  0  0  0  0  0  0  0  0
  1  2  2  0
  2  3  1  0
  3  4  1  0
  4  5  1  0
  5  6  2  0
  6  7  1  0
  7  8  2  0
  8  9  1  0
  9 10  2  0
  9 11  2  0
  9 12  1  0
 12 13  1  0
 13 14  1  0
 14 15  2  0
 15 16  1  0
 16 17  2  0
 17 18  1  0
 18 19  2  0
  8 20  1  0
 20 21  2  0
  2 22  1  0
 22 23  1  0
 23 24  2  0
 24 25  1  0
 25 26  1  0
 26 27  1  0
 27 28  1  0
 27 29  1  0
 27 30  1  0
 21  5  1  0
 26 22  2  0
 19 14  1  0
  3 31  1  0
  4 32  1  0
  4 33  1  0
  6 34  1  0
  7 35  1  0
 13 36  1  0
 13 37  1  0
 15 38  1  0
 16 39  1  0
 17 40  1  0
 18 41  1  0
 19 42  1  0
 20 43  1  0
 21 44  1  0
 23 45  1  0
M  CHG  1  12  -1
M  END
>  <UniqueID>  (14) 
13

>  <SMILES>  (14) 
O=C(NCc1ccc(S(=O)(=O)[N-]Cc2ccccc2)cc1)c1cnoc1C(F)(F)F

>  <Energy>  (14) 
70.85045025769526

>  <Genealogy>  (14) 
O=C(NCc1ccc(S(=O)(=O)[N-]Cc2ccccc2)cc1)c1cnoc1C(F)(F)F (protonated)
O=C(NCc1ccc(S(=O)(=O)[N-]Cc2ccccc2)cc1)c1cnoc1C(F)(F)F (3D coordinates assigned)
O=C(NCc1ccc(S(=O)(=O)[N-]Cc2ccccc2)cc1)c1cnoc1C(F)(F)F (optimized conformer: 70.85045025769526 kcal/mol)

>  <smiles>  (14) 
O=C(NCc1ccc(S(=O)(=O)NCc2ccccc2)cc1)c1cnoc1C(F)(F)F

>  <score_type>  (14) 
oracle

>  <origin>  (14) 
adg

>  <m_score__min__energy>  (14) 
-9.7100000000000009

>  <m_primary>  (14) 
energy

$$$$
14:0
     RDKit          3D

 55 57  0  0  0  0  0  0  0  0999 V2000
   60.2050   27.1820   47.8150 C   0  0  0  0  0  0  0  0  0  0  0  0
   59.9580   28.3150   48.6410 O   0  0  0  0  0  0  0  0  0  0  0  0
   59.7680   29.6180   48.1600 C   0  0  0  0  0  0  0  0  0  0  0  0
   60.4680   30.0130   47.0140 C   0  0  0  0  0  0  0  0  0  0  0  0
   60.2680   31.2800   46.4610 C   0  0  0  0  0  0  0  0  0  0  0  0
   59.3760   32.1800   47.0610 C   0  0  0  0  0  0  0  0  0  0  0  0
   59.1060   33.7740   46.3550 S   0  0  0  0  0  0  0  0  0  0  0  0
   60.3290   34.2080   45.5960 O   0  0  0  0  0  0  0  0  0  0  0  0
   58.8540   34.7530   47.4660 O   0  0  0  0  0  0  0  0  0  0  0  0
   57.7060   33.7930   45.2340 C   0  0  0  0  0  0  0  0  0  0  0  0
   57.8890   32.8520   44.0350 C   0  0  0  0  0  0  0  0  0  0  0  0
   57.4220   31.4550   44.3350 C   0  0  0  0  0  0  0  0  0  0  0  0
   56.2620   31.2870   44.7980 O   0  0  0  0  0  0  0  0  0  0  0  0
   58.3070   30.3390   44.1310 N   0  0  0  0  0  0  0  0  0  0  0  0
   58.0310   28.9860   44.5410 C   0  0  0  0  0  0  0  0  0  0  0  0
   58.3750   27.8770   43.7470 C   0  0  0  0  0  0  0  0  0  0  0  0
   58.0500   26.5820   44.1620 C   0  0  0  0  0  0  0  0  0  0  0  0
   57.3950   26.3740   45.3810 C   0  0  0  0  0  0  0  0  0  0  0  0
   56.9790   24.7370   45.8830 S   0  0  0  0  0  0  0  0  0  0  0  0
   57.7650   24.3580   47.1080 O   0  0  0  0  0  0  0  0  0  0  0  0
   55.5150   24.6940   46.2190 O   0  0  0  0  0  0  0  0  0  0  0  0
   57.3230   23.6220   44.5830 N   0  0  0  0  0  0  0  0  0  0  0  0
   57.4370   22.2330   45.0820 C   0  0  0  0  0  0  0  0  0  0  0  0
   56.2000   21.3870   44.7300 C   0  0  0  0  0  0  0  0  0  0  0  0
   55.9490   21.3180   43.3340 O   0  0  0  0  0  0  0  0  0  0  0  0
   56.2710   22.5140   42.6330 C   0  0  0  0  0  0  0  0  0  0  0  0
   56.3140   23.7700   43.5170 C   0  0  0  0  0  0  0  0  0  0  0  0
   57.1010   27.4700   46.2020 C   0  0  0  0  0  0  0  0  0  0  0  0
   57.4280   28.7640   45.7890 C   0  0  0  0  0  0  0  0  0  0  0  0
   58.7130   31.8080   48.2390 C   0  0  0  0  0  0  0  0  0  0  0  0
   58.8940   30.5310   48.7780 C   0  0  0  0  0  0  0  0  0  0  0  0
   60.3968   26.3023   48.4470 H   0  0  0  0  0  0  0  0  0  0  0  0
   59.3270   26.9928   47.1799 H   0  0  0  0  0  0  0  0  0  0  0  0
   61.0821   27.3755   47.1799 H   0  0  0  0  0  0  0  0  0  0  0  0
   61.1817   29.3197   46.5449 H   0  0  0  0  0  0  0  0  0  0  0  0
   60.8125   31.5728   45.5512 H   0  0  0  0  0  0  0  0  0  0  0  0
   56.8077   33.4842   45.7888 H   0  0  0  0  0  0  0  0  0  0  0  0
   57.6120   34.8157   44.8401 H   0  0  0  0  0  0  0  0  0  0  0  0
   57.3111   33.2442   43.1851 H   0  0  0  0  0  0  0  0  0  0  0  0
   58.9629   32.8069   43.8011 H   0  0  0  0  0  0  0  0  0  0  0  0
   59.2810   30.5530   43.8180 H   0  0  0  0  0  0  0  0  0  0  0  0
   58.9028   28.0295   42.7940 H   0  0  0  0  0  0  0  0  0  0  0  0
   58.3105   25.7223   43.5271 H   0  0  0  0  0  0  0  0  0  0  0  0
   58.3255   21.7663   44.6317 H   0  0  0  0  0  0  0  0  0  0  0  0
   57.5189   22.2729   46.1782 H   0  0  0  0  0  0  0  0  0  0  0  0
   56.3555   20.3659   45.1083 H   0  0  0  0  0  0  0  0  0  0  0  0
   55.3290   21.8715   45.1955 H   0  0  0  0  0  0  0  0  0  0  0  0
   57.2594   22.3857   42.1677 H   0  0  0  0  0  0  0  0  0  0  0  0
   55.4704   22.6736   41.8958 H   0  0  0  0  0  0  0  0  0  0  0  0
   56.5702   24.6406   42.8954 H   0  0  0  0  0  0  0  0  0  0  0  0
   55.3266   23.9103   43.9811 H   0  0  0  0  0  0  0  0  0  0  0  0
   56.6115   27.3116   47.1743 H   0  0  0  0  0  0  0  0  0  0  0  0
   57.2108   29.6173   46.4483 H   0  0  0  0  0  0  0  0  0  0  0  0
   58.0470   32.5247   48.7417 H   0  0  0  0  0  0  0  0  0  0  0  0
   58.3510   30.2388   49.6889 H   0  0  0  0  0  0  0  0  0  0  0  0
  1  2  1  0
  2  3  1  0
  3  4  2  0
  4  5  1  0
  5  6  2  0
  6  7  1  0
  7  8  2  0
  7  9  2  0
  7 10  1  0
 10 11  1  0
 11 12  1  0
 12 13  2  0
 12 14  1  0
 14 15  1  0
 15 16  2  0
 16 17  1  0
 17 18  2  0
 18 19  1  0
 19 20  2  0
 19 21  2  0
 19 22  1  0
 22 23  1  0
 23 24  1  0
 24 25  1  0
 25 26  1  0
 26 27  1  0
 18 28  1  0
 28 29  2  0
  6 30  1  0
 30 31  2  0
 31  3  1  0
 29 15  1  0
 27 22  1  0
  1 32  1  0
  1 33  1  0
  1 34  1  0
  4 35  1  0
  5 36  1  0
 10 37  1  0
 10 38  1  0
 11 39  1  0
 11 40  1  0
 14 41  1  0
 16 42  1  0
 17 43  1  0
 23 44  1  0
 23 45  1  0
 24 46  1  0
 24 47  1  0
 26 48  1  0
 26 49  1  0
 27 50  1  0
 27 51  1  0
 28 52  1  0
 29 53  1  0
 30 54  1  0
 31 55  1  0
M  END
>  <UniqueID>  (15) 
14

>  <SMILES>  (15) 
COc1ccc(S(=O)(=O)CCC(=O)Nc2ccc(S(=O)(=O)N3CCOCC3)cc2)cc1

>  <Energy>  (15) 
60.70094649377389

>  <Genealogy>  (15) 
COc1ccc(S(=O)(=O)CCC(=O)Nc2ccc(S(=O)(=O)N3CCOCC3)cc2)cc1 (3D coordinates assigned)
COc1ccc(S(=O)(=O)CCC(=O)Nc2ccc(S(=O)(=O)N3CCOCC3)cc2)cc1 (nonaromatic ring conformer: 60.70094649377389 kcal/mol)

>  <smiles>  (15) 
COc1ccc(S(=O)(=O)CCC(=O)Nc2ccc(S(=O)(=O)N3CCOCC3)cc2)cc1

>  <score_type>  (15) 
oracle

>  <origin>  (15) 
adg

>  <m_score__min__energy>  (15) 
-9.3499999999999996

>  <m_primary>  (15) 
energy

$$$$
15:0
     RDKit          3D

 49 51  0  0  0  0  0  0  0  0999 V2000
   61.7605   31.7905   46.0290 H   0  0  0  0  0  0  0  0  0  0  0  0
   61.4680   32.5800   46.7370 C   0  0  0  0  0  0  0  0  0  0  0  0
   60.5160   33.4410   46.3540 C   0  0  0  0  0  0  0  0  0  0  0  0
   60.6267   33.9149   45.3675 H   0  0  0  0  0  0  0  0  0  0  0  0
   59.0980   33.8730   47.3110 S   0  0  0  0  0  0  0  0  0  0  0  0
   59.2900   33.5590   48.7680 O   0  0  0  0  0  0  0  0  0  0  0  0
   58.8770   35.3540   47.1840 O   0  0  0  0  0  0  0  0  0  0  0  0
   57.7090   33.0480   46.6850 N   0  0  0  0  0  0  0  0  0  0  0  0
   56.8480   33.6250   46.5420 H   0  0  0  0  0  0  0  0  0  0  0  0
   57.8280   31.8170   45.9640 C   0  0  0  0  0  0  0  0  0  0  0  0
   57.4770   31.7400   44.6080 C   0  0  0  0  0  0  0  0  0  0  0  0
   57.0758   32.6258   44.0937 H   0  0  0  0  0  0  0  0  0  0  0  0
   57.6360   30.5400   43.9090 C   0  0  0  0  0  0  0  0  0  0  0  0
   57.3673   30.4858   42.8437 H   0  0  0  0  0  0  0  0  0  0  0  0
   58.1360   29.4080   44.5610 C   0  0  0  0  0  0  0  0  0  0  0  0
   58.2611   28.4671   44.0051 H   0  0  0  0  0  0  0  0  0  0  0  0
   58.4780   29.4660   45.9170 C   0  0  0  0  0  0  0  0  0  0  0  0
   59.0170   28.2970   46.5490 N   0  0  0  0  0  0  0  0  0  0  0  0
   58.6150   26.9420   46.3050 C   0  0  0  0  0  0  0  0  0  0  0  0
   59.1020   26.0330   47.0270 O   0  0  0  0  0  0  0  0  0  0  0  0
   57.7390   26.6030   45.1600 C   0  0  0  0  0  0  0  0  0  0  0  0
   57.2680   27.4370   44.6190 H   0  0  0  0  0  0  0  0  0  0  0  0
   57.4740   25.3610   44.7300 C   0  0  0  0  0  0  0  0  0  0  0  0
   58.2958   24.7886   44.2750 H   0  0  0  0  0  0  0  0  0  0  0  0
   56.1500   24.7100   44.8270 C   0  0  0  0  0  0  0  0  0  0  0  0
   55.8650   23.4900   44.1720 C   0  0  0  0  0  0  0  0  0  0  0  0
   56.8830   22.7830   43.3250 C   0  0  0  0  0  0  0  0  0  0  0  0
   57.6123   22.2765   43.9744 H   0  0  0  0  0  0  0  0  0  0  0  0
   56.3790   22.0395   42.6900 H   0  0  0  0  0  0  0  0  0  0  0  0
   57.4037   23.5149   42.6900 H   0  0  0  0  0  0  0  0  0  0  0  0
   54.6300   22.9360   44.3020 N   0  0  0  0  0  0  0  0  0  0  0  0
   53.6710   23.5190   45.0640 C   0  0  0  0  0  0  0  0  0  0  0  0
   52.5360   22.9850   45.1600 O   0  0  0  0  0  0  0  0  0  0  0  0
   53.9350   24.6750   45.7240 N   0  0  0  0  0  0  0  0  0  0  0  0
   55.1470   25.2760   45.6300 C   0  0  0  0  0  0  0  0  0  0  0  0
   55.3560   26.3490   46.2580 O   0  0  0  0  0  0  0  0  0  0  0  0
   58.3500   30.6850   46.6080 C   0  0  0  0  0  0  0  0  0  0  0  0
   58.6615   30.7510   47.6609 H   0  0  0  0  0  0  0  0  0  0  0  0
   62.1490   32.6190   48.0410 C   0  0  0  0  0  0  0  0  0  0  0  0
   62.8780   33.7640   48.3990 C   0  0  0  0  0  0  0  0  0  0  0  0
   62.9704   34.5984   47.6882 H   0  0  0  0  0  0  0  0  0  0  0  0
   63.4870   33.8490   49.6540 C   0  0  0  0  0  0  0  0  0  0  0  0
   64.0675   34.7436   49.9237 H   0  0  0  0  0  0  0  0  0  0  0  0
   63.3590   32.7980   50.5670 C   0  0  0  0  0  0  0  0  0  0  0  0
   63.8461   32.8629   51.5511 H   0  0  0  0  0  0  0  0  0  0  0  0
   62.6130   31.6650   50.2310 C   0  0  0  0  0  0  0  0  0  0  0  0
   62.5127   30.8407   50.9524 H   0  0  0  0  0  0  0  0  0  0  0  0
   61.9930   31.5760   48.9790 C   0  0  0  0  0  0  0  0  0  0  0  0
   61.0220   30.1530   48.6160 Cl  0  0  0  0  0  0  0  0  0  0  0  0
  1  2  1  0
  2  3  2  3
  3  4  1  0
  3  5  1  0
  5  6  2  0
  5  7  2  0
  5  8  1  0
  8  9  1  0
  8 10  1  0
 10 11  2  0
 11 12  1  0
 11 13  1  0
 13 14  1  0
 13 15  2  0
 15 16  1  0
 15 17  1  0
 17 18  1  0
 18 19  1  0
 19 20  2  0
 19 21  1  0
 21 22  1  0
 21 23  2  0
 23 24  1  0
 23 25  1  0
 25 26  2  0
 26 27  1  0
 27 28  1  0
 27 29  1  0
 27 30  1  0
 26 31  1  0
 31 32  1  0
 32 33  2  0
 32 34  1  0
 34 35  1  0
 35 36  2  0
 17 37  2  0
 37 38  1  0
  2 39  1  0
 39 40  2  0
 40 41  1  0
 40 42  1  0
 42 43  1  0
 42 44  2  0
 44 45  1  0
 44 46  1  0
 46 47  1  0
 46 48  2  0
 48 49  1  0
 37 10  1  0
 48 39  1  0
 35 25  1  0
M  CHG  3  18  -1  31  -1  34  -1
M  END
>  <UniqueID>  (16) 
15

>  <SMILES>  (16) 
Cc1[n-]c(=O)[n-]c(=O)c1/C=C\C(=O)[N-]c1cccc(NS(=O)(=O)C=Cc2ccccc2Cl)c1

>  <Energy>  (16) 
77.54273259848954

>  <Genealogy>  (16) 
Cc1[n-]c(=O)[n-]c(=O)c1C=CC(=O)[N-]c1cccc(NS(=O)(=O)C=Cc2ccccc2Cl)c1 (protonated)
Cc1[n-]c(=O)[n-]c(=O)c1/C=C\C(=O)[N-]c1cccc(NS(=O)(=O)C=Cc2ccccc2Cl)c1 (cis-trans isomerization)
Cc1[n-]c(=O)[n-]c(=O)c1/C=C\C(=O)[N-]c1cccc(NS(=O)(=O)C=Cc2ccccc2Cl)c1 (3D coordinates assigned)
Cc1[n-]c(=O)[n-]c(=O)c1/C=C\C(=O)[N-]c1cccc(NS(=O)(=O)C=Cc2ccccc2Cl)c1 (optimized conformer: 77.54273259848954 kcal/mol)

>  <smiles>  (16) 
Cc1[nH]c(=O)[nH]c(=O)c1C=CC(=O)Nc1cccc(NS(=O)(=O)C=Cc2ccccc2Cl)c1

>  <score_type>  (16) 
oracle

>  <origin>  (16) 
adg

>  <m_score__min__energy>  (16) 
-15.27

>  <m_primary>  (16) 
energy

$$$$
16:0
     RDKit          3D

 45 47  0  0  0  0  0  0  0  0999 V2000
   55.1560   26.6980   46.0210 O   0  0  0  0  0  0  0  0  0  0  0  0
   56.2610   26.3490   46.5160 C   0  0  0  0  0  0  0  0  0  0  0  0
   57.4790   27.0900   46.1240 C   0  0  0  0  0  0  0  0  0  0  0  0
   57.5820   27.9300   45.0830 C   0  0  0  0  0  0  0  0  0  0  0  0
   57.4730   29.3980   45.1850 C   0  0  0  0  0  0  0  0  0  0  0  0
   56.3260   30.0580   44.7400 C   0  0  0  0  0  0  0  0  0  0  0  0
   55.2650   29.3470   44.1900 O   0  0  0  0  0  0  0  0  0  0  0  0
   56.2390   31.4040   44.8480 N   0  0  0  0  0  0  0  0  0  0  0  0
   57.2470   32.1450   45.3740 C   0  0  0  0  0  0  0  0  0  0  0  0
   57.0200   33.7670   45.5010 S   0  0  0  0  0  0  0  0  0  0  0  0
   58.3960   31.5290   45.8170 N   0  0  0  0  0  0  0  0  0  0  0  0
   59.4940   32.2970   46.3540 C   0  0  0  0  0  0  0  0  0  0  0  0
   59.9500   33.4450   45.6840 C   0  0  0  0  0  0  0  0  0  0  0  0
   61.0050   34.1950   46.2130 C   0  0  0  0  0  0  0  0  0  0  0  0
   61.6090   33.8060   47.4120 C   0  0  0  0  0  0  0  0  0  0  0  0
   61.1600   32.6660   48.0840 C   0  0  0  0  0  0  0  0  0  0  0  0
   60.1030   31.9160   47.5610 C   0  0  0  0  0  0  0  0  0  0  0  0
   58.5110   30.1630   45.7370 C   0  0  0  0  0  0  0  0  0  0  0  0
   59.5580   29.5850   46.1440 O   0  0  0  0  0  0  0  0  0  0  0  0
   56.3100   25.2860   47.4760 N   0  0  0  0  0  0  0  0  0  0  0  0
   57.3530   24.2680   47.5100 C   0  0  0  0  0  0  0  0  0  0  0  0
   56.8160   22.9160   47.0270 C   0  0  0  0  0  0  0  0  0  0  0  0
   56.4250   22.9610   45.5690 C   0  0  0  0  0  0  0  0  0  0  0  0
   57.2560   22.3540   44.6110 C   0  0  0  0  0  0  0  0  0  0  0  0
   56.9110   22.3800   43.2570 C   0  0  0  0  0  0  0  0  0  0  0  0
   55.7270   22.9940   42.8470 C   0  0  0  0  0  0  0  0  0  0  0  0
   54.8830   23.5830   43.7900 C   0  0  0  0  0  0  0  0  0  0  0  0
   55.2240   23.5730   45.1510 C   0  0  0  0  0  0  0  0  0  0  0  0
   54.3760   24.1690   46.0830 O   0  0  0  0  0  0  0  0  0  0  0  0
   58.3785   26.9395   46.7391 H   0  0  0  0  0  0  0  0  0  0  0  0
   57.7594   27.4958   44.0880 H   0  0  0  0  0  0  0  0  0  0  0  0
   59.4758   33.7545   44.7409 H   0  0  0  0  0  0  0  0  0  0  0  0
   61.3600   35.0922   45.6849 H   0  0  0  0  0  0  0  0  0  0  0  0
   62.4383   34.3976   47.8269 H   0  0  0  0  0  0  0  0  0  0  0  0
   61.6389   32.3587   49.0254 H   0  0  0  0  0  0  0  0  0  0  0  0
   59.7466   31.0238   48.0967 H   0  0  0  0  0  0  0  0  0  0  0  0
   58.1817   24.5800   46.8574 H   0  0  0  0  0  0  0  0  0  0  0  0
   57.7009   24.1568   48.5476 H   0  0  0  0  0  0  0  0  0  0  0  0
   57.5962   22.1527   47.1638 H   0  0  0  0  0  0  0  0  0  0  0  0
   55.9195   22.6720   47.6159 H   0  0  0  0  0  0  0  0  0  0  0  0
   58.1835   21.8555   44.9292 H   0  0  0  0  0  0  0  0  0  0  0  0
   57.5744   21.9153   42.5127 H   0  0  0  0  0  0  0  0  0  0  0  0
   55.4586   23.0139   41.7804 H   0  0  0  0  0  0  0  0  0  0  0  0
   53.9456   24.0575   43.4644 H   0  0  0  0  0  0  0  0  0  0  0  0
   54.7190   24.8380   46.7630 H   0  0  0  0  0  0  0  0  0  0  0  0
  1  2  2  0
  2  3  1  0
  3  4  2  3
  4  5  1  0
  5  6  2  0
  6  7  1  0
  6  8  1  0
  8  9  1  0
  9 10  2  0
  9 11  1  0
 11 12  1  0
 12 13  2  0
 13 14  1  0
 14 15  2  0
 15 16  1  0
 16 17  2  0
 11 18  1  0
 18 19  2  0
  2 20  1  0
 20 21  1  0
 21 22  1  0
 22 23  1  0
 23 24  2  0
 24 25  1  0
 25 26  2  0
 26 27  1  0
 27 28  2  0
 28 29  1  0
 18  5  1  0
 28 23  1  0
 17 12  1  0
  3 30  1  0
  4 31  1  0
 13 32  1  0
 14 33  1  0
 15 34  1  0
 16 35  1  0
 17 36  1  0
 21 37  1  0
 21 38  1  0
 22 39  1  0
 22 40  1  0
 24 41  1  0
 25 42  1  0
 26 43  1  0
 27 44  1  0
 29 45  1  0
M  CHG  3   7  -1   8  -1  20  -1
M  END
>  <UniqueID>  (17) 
16

>  <SMILES>  (17) 
O=C(C=Cc1c([O-])[n-]c(=S)n(-c2ccccc2)c1=O)[N-]CCc1ccccc1O

>  <Energy>  (17) 
60.65966258671515

>  <Genealogy>  (17) 
O=C(C=Cc1c([O-])[n-]c(=S)n(-c2ccccc2)c1=O)[N-]CCc1ccccc1O (protonated)
O=C(C=Cc1c([O-])[n-]c(=S)n(-c2ccccc2)c1=O)[N-]CCc1ccccc1O (3D coordinates assigned)
O=C(C=Cc1c([O-])[n-]c(=S)n(-c2ccccc2)c1=O)[N-]CCc1ccccc1O (optimized conformer: 60.65966258671515 kcal/mol)

>  <smiles>  (17) 
O=C(C=Cc1c(O)[nH]c(=S)n(-c2ccccc2)c1=O)NCCc1ccccc1O

>  <score_type>  (17) 
oracle

>  <origin>  (17) 
adg

>  <m_score__min__energy>  (17) 
-14.73

>  <m_primary>  (17) 
energy

$$$$
17:0
     RDKit          3D

 69 72  0  0  0  0  0  0  0  0999 V2000
   59.1700   28.5350   52.6850 C   0  0  0  0  0  0  0  0  0  0  0  0
   58.8610   29.8440   52.0030 C   0  0  0  0  0  0  0  0  0  0  0  0
   57.6810   30.5130   52.3510 C   0  0  0  0  0  0  0  0  0  0  0  0
   57.3440   31.7160   51.7450 C   0  0  0  0  0  0  0  0  0  0  0  0
   58.1830   32.2830   50.7930 C   0  0  0  0  0  0  0  0  0  0  0  0
   59.4020   31.6570   50.4270 C   0  0  0  0  0  0  0  0  0  0  0  0
   60.3330   32.2730   49.4890 N   0  0  0  0  0  0  0  0  0  0  0  0
   61.4810   32.9080   50.1060 C   0  0  0  0  0  0  0  0  0  0  0  0
   61.5550   32.9680   51.5110 C   0  0  0  0  0  0  0  0  0  0  0  0
   62.6220   33.6080   52.1430 C   0  0  0  0  0  0  0  0  0  0  0  0
   63.6300   34.2010   51.3850 C   0  0  0  0  0  0  0  0  0  0  0  0
   63.5730   34.1620   49.9910 C   0  0  0  0  0  0  0  0  0  0  0  0
   62.5000   33.5350   49.3330 C   0  0  0  0  0  0  0  0  0  0  0  0
   62.5080   33.4870   47.8180 C   0  0  0  0  0  0  0  0  0  0  0  0
   61.6920   32.3330   47.2860 C   0  0  0  0  0  0  0  0  0  0  0  0
   62.1990   31.1800   47.2350 O   0  0  0  0  0  0  0  0  0  0  0  0
   60.3580   32.5020   46.7900 N   0  0  0  0  0  0  0  0  0  0  0  0
   59.2670   33.8190   47.0980 S   0  0  0  0  0  0  0  0  0  0  0  0
   58.0790   33.3640   47.8960 O   0  0  0  0  0  0  0  0  0  0  0  0
   60.0050   34.8600   47.8920 O   0  0  0  0  0  0  0  0  0  0  0  0
   58.7520   34.4940   45.5670 N   0  0  0  0  0  0  0  0  0  0  0  0
   59.4230   33.8340   44.4180 C   0  0  0  0  0  0  0  0  0  0  0  0
   58.4800   32.9800   43.5570 C   0  0  0  0  0  0  0  0  0  0  0  0
   57.4910   32.3200   44.4150 N   0  0  0  0  0  0  0  0  0  0  0  0
   57.3220   30.8910   44.4360 C   0  0  0  0  0  0  0  0  0  0  0  0
   56.1880   30.4040   44.7010 O   0  0  0  0  0  0  0  0  0  0  0  0
   58.4670   29.9670   44.1220 C   0  0  0  0  0  0  0  0  0  0  0  0
   59.0240   29.3250   45.3640 C   0  0  0  0  0  0  0  0  0  0  0  0
   58.6870   29.8220   46.6340 C   0  0  0  0  0  0  0  0  0  0  0  0
   59.1980   29.2140   47.7850 C   0  0  0  0  0  0  0  0  0  0  0  0
   60.0520   28.1130   47.6760 C   0  0  0  0  0  0  0  0  0  0  0  0
   60.3990   27.6190   46.4150 C   0  0  0  0  0  0  0  0  0  0  0  0
   59.8910   28.2240   45.2620 C   0  0  0  0  0  0  0  0  0  0  0  0
   56.6540   33.1580   45.2790 C   0  0  0  0  0  0  0  0  0  0  0  0
   57.2790   34.5520   45.4600 C   0  0  0  0  0  0  0  0  0  0  0  0
   59.7160   30.3920   51.0060 C   0  0  0  0  0  0  0  0  0  0  0  0
   60.9960   29.6750   50.6250 C   0  0  0  0  0  0  0  0  0  0  0  0
   59.1374   28.6732   53.7758 H   0  0  0  0  0  0  0  0  0  0  0  0
   58.4249   27.7821   52.3883 H   0  0  0  0  0  0  0  0  0  0  0  0
   60.1731   28.1948   52.3883 H   0  0  0  0  0  0  0  0  0  0  0  0
   57.0144   30.0812   53.1120 H   0  0  0  0  0  0  0  0  0  0  0  0
   56.4075   32.2233   52.0200 H   0  0  0  0  0  0  0  0  0  0  0  0
   57.8972   33.2321   50.3159 H   0  0  0  0  0  0  0  0  0  0  0  0
   59.8260   32.9640   48.8930 H   0  0  0  0  0  0  0  0  0  0  0  0
   60.6830   31.5310   48.8400 H   0  0  0  0  0  0  0  0  0  0  0  0
   60.7626   32.5050   52.1174 H   0  0  0  0  0  0  0  0  0  0  0  0
   62.6675   33.6445   53.2415 H   0  0  0  0  0  0  0  0  0  0  0  0
   64.4720   34.7007   51.8863 H   0  0  0  0  0  0  0  0  0  0  0  0
   64.3763   34.6269   49.4006 H   0  0  0  0  0  0  0  0  0  0  0  0
   62.0889   34.4272   47.4303 H   0  0  0  0  0  0  0  0  0  0  0  0
   63.5480   33.3498   47.4871 H   0  0  0  0  0  0  0  0  0  0  0  0
   59.8648   34.6135   43.7799 H   0  0  0  0  0  0  0  0  0  0  0  0
   60.1795   33.1537   44.8362 H   0  0  0  0  0  0  0  0  0  0  0  0
   57.9626   33.6248   42.8314 H   0  0  0  0  0  0  0  0  0  0  0  0
   59.0650   32.2177   43.0216 H   0  0  0  0  0  0  0  0  0  0  0  0
   58.1120   29.1784   43.4422 H   0  0  0  0  0  0  0  0  0  0  0  0
   59.2672   30.5604   43.6556 H   0  0  0  0  0  0  0  0  0  0  0  0
   58.0194   30.6917   46.7233 H   0  0  0  0  0  0  0  0  0  0  0  0
   58.9274   29.6029   48.7777 H   0  0  0  0  0  0  0  0  0  0  0  0
   60.4512   27.6350   48.5827 H   0  0  0  0  0  0  0  0  0  0  0  0
   61.0724   26.7534   46.3302 H   0  0  0  0  0  0  0  0  0  0  0  0
   60.1709   27.8368   44.2712 H   0  0  0  0  0  0  0  0  0  0  0  0
   55.6589   33.2655   44.8226 H   0  0  0  0  0  0  0  0  0  0  0  0
   56.5733   32.6772   46.2651 H   0  0  0  0  0  0  0  0  0  0  0  0
   57.0110   35.1755   44.5943 H   0  0  0  0  0  0  0  0  0  0  0  0
   56.8890   34.9779   46.3962 H   0  0  0  0  0  0  0  0  0  0  0  0
   61.5330   29.3742   51.5366 H   0  0  0  0  0  0  0  0  0  0  0  0
   60.7530   28.7817   50.0309 H   0  0  0  0  0  0  0  0  0  0  0  0
   61.6308   30.3488   50.0309 H   0  0  0  0  0  0  0  0  0  0  0  0
  1  2  1  0
  2  3  2  0
  3  4  1  0
  4  5  2  0
  5  6  1  0
  6  7  1  0
  7  8  1  0
  8  9  2  0
  9 10  1  0
 10 11  2  0
 11 12  1  0
 12 13  2  0
 13 14  1  0
 14 15  1  0
 15 16  2  0
 15 17  1  0
 17 18  1  0
 18 19  2  0
 18 20  2  0
 18 21  1  0
 21 22  1  0
 22 23  1  0
 23 24  1  0
 24 25  1  0
 25 26  2  0
 25 27  1  0
 27 28  1  0
 28 29  2  0
 29 30  1  0
 30 31  2  0
 31 32  1  0
 32 33  2  0
 24 34  1  0
 34 35  1  0
  6 36  2  0
 36 37  1  0
 36  2  1  0
 13  8  1  0
 35 21  1  0
 33 28  1  0
  1 38  1  0
  1 39  1  0
  1 40  1  0
  3 41  1  0
  4 42  1  0
  5 43  1  0
  7 44  1  0
  7 45  1  0
  9 46  1  0
 10 47  1  0
 11 48  1  0
 12 49  1  0
 14 50  1  0
 14 51  1  0
 22 52  1  0
 22 53  1  0
 23 54  1  0
 23 55  1  0
 27 56  1  0
 27 57  1  0
 29 58  1  0
 30 59  1  0
 31 60  1  0
 32 61  1  0
 33 62  1  0
 34 63  1  0
 34 64  1  0
 35 65  1  0
 35 66  1  0
 37 67  1  0
 37 68  1  0
 37 69  1  0
M  CHG  2   7   1  17  -1
M  END
>  <UniqueID>  (18) 
17

>  <SMILES>  (18) 
Cc1cccc([NH2+]c2ccccc2CC(=O)[N-]S(=O)(=O)N2CCN(C(=O)Cc3ccccc3)CC2)c1C

>  <Energy>  (18) 
84.7470427670272

>  <Genealogy>  (18) 
Cc1cccc([NH2+]c2ccccc2CC(=O)[N-]S(=O)(=O)N2CCN(C(=O)Cc3ccccc3)CC2)c1C (protonated)
Cc1cccc([NH2+]c2ccccc2CC(=O)[N-]S(=O)(=O)N2CCN(C(=O)Cc3ccccc3)CC2)c1C (3D coordinates assigned)
Cc1cccc([NH2+]c2ccccc2CC(=O)[N-]S(=O)(=O)N2CCN(C(=O)Cc3ccccc3)CC2)c1C (nonaromatic ring conformer: 84.7470427670272 kcal/mol)

>  <smiles>  (18) 
Cc1cccc(Nc2ccccc2CC(=O)NS(=O)(=O)N2CCN(C(=O)Cc3ccccc3)CC2)c1C

>  <score_type>  (18) 
oracle

>  <origin>  (18) 
adg

>  <m_score__min__energy>  (18) 
-11.300000000000001

>  <m_primary>  (18) 
energy

$$$$
18:0
     RDKit          3D

 41 43  0  0  0  0  0  0  0  0999 V2000
   58.8990   31.6490   47.0930 H   0  0  0  0  0  0  0  0  0  0  0  0
   58.9400   32.1220   47.9880 O   0  0  0  0  0  0  0  0  0  0  0  0
   58.5430   31.4740   49.1520 C   0  0  0  0  0  0  0  0  0  0  0  0
   57.8840   32.1250   50.1480 N   0  0  0  0  0  0  0  0  0  0  0  0
   57.5790   31.2840   51.1630 C   0  0  0  0  0  0  0  0  0  0  0  0
   56.9400   31.6360   52.2380 N   0  0  0  0  0  0  0  0  0  0  0  0
   56.4620   30.7540   53.2660 C   0  0  0  0  0  0  0  0  0  0  0  0
   56.9200   30.8110   54.4410 O   0  0  0  0  0  0  0  0  0  0  0  0
   55.3690   29.7840   52.9470 C   0  0  0  0  0  0  0  0  0  0  0  0
   55.6751   29.1563   52.0971 H   0  0  0  0  0  0  0  0  0  0  0  0
   55.1780   29.1518   53.8267 H   0  0  0  0  0  0  0  0  0  0  0  0
   54.1120   30.5280   52.5900 C   0  0  0  0  0  0  0  0  0  0  0  0
   53.9130   30.9990   51.2820 C   0  0  0  0  0  0  0  0  0  0  0  0
   54.6672   30.7977   50.5070 H   0  0  0  0  0  0  0  0  0  0  0  0
   52.7600   31.7230   50.9600 C   0  0  0  0  0  0  0  0  0  0  0  0
   52.6051   32.0808   49.9314 H   0  0  0  0  0  0  0  0  0  0  0  0
   51.8050   31.9920   51.9440 C   0  0  0  0  0  0  0  0  0  0  0  0
   50.6630   32.7160   51.6260 O   0  0  0  0  0  0  0  0  0  0  0  0
   52.0020   31.5360   53.2510 C   0  0  0  0  0  0  0  0  0  0  0  0
   51.2508   31.7493   54.0258 H   0  0  0  0  0  0  0  0  0  0  0  0
   53.1510   30.8100   53.5750 C   0  0  0  0  0  0  0  0  0  0  0  0
   53.3037   30.4578   54.6058 H   0  0  0  0  0  0  0  0  0  0  0  0
   58.1030   29.7150   50.8700 S   0  0  0  0  0  0  0  0  0  0  0  0
   58.7740   30.1210   49.3790 C   0  0  0  0  0  0  0  0  0  0  0  0
   59.3870   29.1520   48.4170 C   0  0  0  0  0  0  0  0  0  0  0  0
   60.4651   29.0690   48.6192 H   0  0  0  0  0  0  0  0  0  0  0  0
   58.9106   28.1680   48.5389 H   0  0  0  0  0  0  0  0  0  0  0  0
   59.1800   29.6310   47.0160 C   0  0  0  0  0  0  0  0  0  0  0  0
   60.1690   30.0110   46.3330 O   0  0  0  0  0  0  0  0  0  0  0  0
   57.8600   29.6300   46.4590 N   0  0  0  0  0  0  0  0  0  0  0  0
   57.4940   30.0390   45.1340 C   0  0  0  0  0  0  0  0  0  0  0  0
   58.2330   31.0060   44.4260 C   0  0  0  0  0  0  0  0  0  0  0  0
   59.1316   31.4493   44.8799 H   0  0  0  0  0  0  0  0  0  0  0  0
   57.8290   31.4050   43.1480 C   0  0  0  0  0  0  0  0  0  0  0  0
   58.4170   32.1524   42.5951 H   0  0  0  0  0  0  0  0  0  0  0  0
   56.6810   30.8570   42.5720 C   0  0  0  0  0  0  0  0  0  0  0  0
   56.3683   31.1682   41.5643 H   0  0  0  0  0  0  0  0  0  0  0  0
   55.9300   29.9130   43.2770 C   0  0  0  0  0  0  0  0  0  0  0  0
   55.0217   29.4870   42.8259 H   0  0  0  0  0  0  0  0  0  0  0  0
   56.3300   29.5080   44.5550 C   0  0  0  0  0  0  0  0  0  0  0  0
   55.5680   28.5740   45.2480 O   0  0  0  0  0  0  0  0  0  0  0  0
  1  2  1  0
  2  3  1  0
  3  4  1  0
  4  5  1  0
  5  6  2  0
  6  7  1  0
  7  8  2  0
  7  9  1  0
  9 10  1  0
  9 11  1  0
  9 12  1  0
 12 13  2  0
 13 14  1  0
 13 15  1  0
 15 16  1  0
 15 17  2  0
 17 18  1  0
 17 19  1  0
 19 20  1  0
 19 21  2  0
 21 22  1  0
  5 23  1  0
 23 24  1  0
 24 25  1  0
 25 26  1  0
 25 27  1  0
 25 28  1  0
 28 29  2  0
 28 30  1  0
 30 31  1  0
 31 32  2  0
 32 33  1  0
 32 34  1  0
 34 35  1  0
 34 36  2  0
 36 37  1  0
 36 38  1  0
 38 39  1  0
 38 40  2  0
 40 41  1  0
 24  3  2  0
 40 31  1  0
 21 12  1  0
M  CHG  4   4  -1  18  -1  30  -1  41  -1
M  END
>  <UniqueID>  (19) 
18

>  <SMILES>  (19) 
O=C(Cc1ccc([O-])cc1)/N=c1\[n-]c(O)c(CC(=O)[N-]c2ccccc2[O-])s1

>  <Energy>  (19) 
74.41194397040668

>  <Genealogy>  (19) 
O=C(Cc1ccc([O-])cc1)N=c1[n-]c(O)c(CC(=O)[N-]c2ccccc2[O-])s1 (protonated)
O=C(Cc1ccc([O-])cc1)/N=c1\[n-]c(O)c(CC(=O)[N-]c2ccccc2[O-])s1 (cis-trans isomerization)
O=C(Cc1ccc([O-])cc1)/N=c1\[n-]c(O)c(CC(=O)[N-]c2ccccc2[O-])s1 (3D coordinates assigned)
O=C(Cc1ccc([O-])cc1)/N=c1\[n-]c(O)c(CC(=O)[N-]c2ccccc2[O-])s1 (optimized conformer: 74.41194397040668 kcal/mol)

>  <smiles>  (19) 
O=C(Cc1ccc(O)cc1)N=c1[nH]c(O)c(CC(=O)Nc2ccccc2O)s1

>  <score_type>  (19) 
oracle

>  <origin>  (19) 
adg

>  <m_score__min__energy>  (19) 
-17.370000000000001

>  <m_primary>  (19) 
energy

$$$$
19:0
     RDKit          3D

 34 35  0  0  0  0  0  0  0  0999 V2000
   55.1590   30.4710   43.9780 O   0  0  0  0  0  0  0  0  0  0  0  0
   56.3420   30.3750   44.3980 C   0  0  0  0  0  0  0  0  0  0  0  0
   57.4470   31.0290   43.6130 C   0  0  0  0  0  0  0  0  0  0  0  0
   58.5320   31.4470   44.5060 N   0  0  0  0  0  0  0  0  0  0  0  0
   58.3380   33.1100   44.9870 S   0  0  0  0  0  0  0  0  0  0  0  0
   56.8910   33.5030   44.8620 O   0  0  0  0  0  0  0  0  0  0  0  0
   59.1770   34.0060   44.1200 O   0  0  0  0  0  0  0  0  0  0  0  0
   58.8550   33.2920   46.6590 C   0  0  0  0  0  0  0  0  0  0  0  0
   59.6090   34.4110   47.0410 C   0  0  0  0  0  0  0  0  0  0  0  0
   60.0170   34.5630   48.3700 C   0  0  0  0  0  0  0  0  0  0  0  0
   59.6710   33.6000   49.3230 C   0  0  0  0  0  0  0  0  0  0  0  0
   58.9130   32.4870   48.9490 C   0  0  0  0  0  0  0  0  0  0  0  0
   58.5040   32.3320   47.6210 C   0  0  0  0  0  0  0  0  0  0  0  0
   56.5870   29.6460   45.6080 N   0  0  0  0  0  0  0  0  0  0  0  0
   57.6360   28.6510   45.7880 C   0  0  0  0  0  0  0  0  0  0  0  0
   57.0140   27.3230   46.0850 C   0  0  0  0  0  0  0  0  0  0  0  0
   57.7650   26.2980   46.6750 C   0  0  0  0  0  0  0  0  0  0  0  0
   57.1470   25.0670   46.9020 C   0  0  0  0  0  0  0  0  0  0  0  0
   57.7880   24.1260   47.4370 O   0  0  0  0  0  0  0  0  0  0  0  0
   55.8500   24.8820   46.5410 N   0  0  0  0  0  0  0  0  0  0  0  0
   55.1390   25.8830   45.9590 C   0  0  0  0  0  0  0  0  0  0  0  0
   53.9420   25.6920   45.6270 O   0  0  0  0  0  0  0  0  0  0  0  0
   55.7230   27.0890   45.7300 N   0  0  0  0  0  0  0  0  0  0  0  0
   57.8400   30.3134   42.8758 H   0  0  0  0  0  0  0  0  0  0  0  0
   57.0443   31.9161   43.1023 H   0  0  0  0  0  0  0  0  0  0  0  0
   58.4640   30.8760   45.3790 H   0  0  0  0  0  0  0  0  0  0  0  0
   59.8802   35.1710   46.2935 H   0  0  0  0  0  0  0  0  0  0  0  0
   60.6105   35.4407   48.6658 H   0  0  0  0  0  0  0  0  0  0  0  0
   59.9955   33.7185   50.3673 H   0  0  0  0  0  0  0  0  0  0  0  0
   58.6379   31.7321   49.7003 H   0  0  0  0  0  0  0  0  0  0  0  0
   57.9060   31.4560   47.3295 H   0  0  0  0  0  0  0  0  0  0  0  0
   58.2350   28.5785   44.8683 H   0  0  0  0  0  0  0  0  0  0  0  0
   58.2856   28.9484   46.6244 H   0  0  0  0  0  0  0  0  0  0  0  0
   58.8170   26.4594   46.9529 H   0  0  0  0  0  0  0  0  0  0  0  0
  1  2  2  0
  2  3  1  0
  3  4  1  0
  4  5  1  0
  5  6  2  0
  5  7  2  0
  5  8  1  0
  8  9  2  0
  9 10  1  0
 10 11  2  0
 11 12  1  0
 12 13  2  0
  2 14  1  0
 14 15  1  0
 15 16  1  0
 16 17  2  0
 17 18  1  0
 18 19  2  0
 18 20  1  0
 20 21  1  0
 21 22  2  0
 21 23  1  0
 13  8  1  0
 23 16  1  0
  3 24  1  0
  3 25  1  0
  4 26  1  0
  9 27  1  0
 10 28  1  0
 11 29  1  0
 12 30  1  0
 13 31  1  0
 15 32  1  0
 15 33  1  0
 17 34  1  0
M  CHG  3  14  -1  20  -1  23  -1
M  END
>  <UniqueID>  (20) 
19

>  <SMILES>  (20) 
O=C(CNS(=O)(=O)c1ccccc1)[N-]Cc1cc(=O)[n-]c(=O)[n-]1

>  <Energy>  (20) 
31.237441248761932

>  <Genealogy>  (20) 
O=C(CNS(=O)(=O)c1ccccc1)[N-]Cc1cc(=O)[n-]c(=O)[n-]1 (protonated)
O=C(CNS(=O)(=O)c1ccccc1)[N-]Cc1cc(=O)[n-]c(=O)[n-]1 (3D coordinates assigned)
O=C(CNS(=O)(=O)c1ccccc1)[N-]Cc1cc(=O)[n-]c(=O)[n-]1 (optimized conformer: 31.237441248761932 kcal/mol)

>  <smiles>  (20) 
O=C(CNS(=O)(=O)c1ccccc1)NCc1cc(=O)[nH]c(=O)[nH]1

>  <score_type>  (20) 
oracle

>  <origin>  (20) 
adg

>  <m_score__min__energy>  (20) 
-13.84

>  <m_primary>  (20) 
energy

$$$$
20:0
     RDKit          3D

 63 65  0  0  0  0  0  0  0  0999 V2000
   56.5970   31.2030   53.3250 O   0  0  0  0  0  0  0  0  0  0  0  0
   56.3890   30.2090   52.5790 C   0  0  0  0  0  0  0  0  0  0  0  0
   55.1060   29.4240   52.6990 C   0  0  0  0  0  0  0  0  0  0  0  0
   53.8900   30.2660   52.4080 C   0  0  0  0  0  0  0  0  0  0  0  0
   52.9340   30.5040   53.4090 C   0  0  0  0  0  0  0  0  0  0  0  0
   51.8280   31.3190   53.1490 C   0  0  0  0  0  0  0  0  0  0  0  0
   51.6750   31.9150   51.8940 C   0  0  0  0  0  0  0  0  0  0  0  0
   50.5800   32.7300   51.6400 O   0  0  0  0  0  0  0  0  0  0  0  0
   52.6290   31.6920   50.8970 C   0  0  0  0  0  0  0  0  0  0  0  0
   53.7350   30.8750   51.1510 C   0  0  0  0  0  0  0  0  0  0  0  0
   57.3990   29.8430   51.6310 N   0  0  0  0  0  0  0  0  0  0  0  0
   58.8370   29.8620   51.8770 C   0  0  0  0  0  0  0  0  0  0  0  0
   59.6030   29.3760   50.6810 C   0  0  0  0  0  0  0  0  0  0  0  0
   60.8440   29.1970   50.7810 O   0  0  0  0  0  0  0  0  0  0  0  0
   58.9250   29.0590   49.4560 N   0  0  0  0  0  0  0  0  0  0  0  0
   59.6270   28.5350   48.2870 C   0  0  0  0  0  0  0  0  0  0  0  0
   58.9790   29.0190   47.0290 C   0  0  0  0  0  0  0  0  0  0  0  0
   59.5680   29.8700   46.3110 O   0  0  0  0  0  0  0  0  0  0  0  0
   57.7020   28.5610   46.6880 O   0  0  0  0  0  0  0  0  0  0  0  0
   57.1900   28.5780   45.3560 C   0  0  0  0  0  0  0  0  0  0  0  0
   57.5430   29.8510   44.6480 C   0  0  0  0  0  0  0  0  0  0  0  0
   58.3880   29.8460   43.7140 O   0  0  0  0  0  0  0  0  0  0  0  0
   56.9460   31.0790   45.0870 N   0  0  0  0  0  0  0  0  0  0  0  0
   57.6380   32.2860   45.4410 C   0  0  0  0  0  0  0  0  0  0  0  0
   57.6580   33.4080   44.5930 C   0  0  0  0  0  0  0  0  0  0  0  0
   58.3310   34.5690   44.9820 C   0  0  0  0  0  0  0  0  0  0  0  0
   58.9800   34.6240   46.2190 C   0  0  0  0  0  0  0  0  0  0  0  0
   58.9490   33.5200   47.0790 C   0  0  0  0  0  0  0  0  0  0  0  0
   59.7690   33.5840   48.6390 S   0  0  0  0  0  0  0  0  0  0  0  0
   59.1620   32.5620   49.5590 O   0  0  0  0  0  0  0  0  0  0  0  0
   59.5590   34.9410   49.2510 O   0  0  0  0  0  0  0  0  0  0  0  0
   61.4810   33.2810   48.4890 N   0  0  0  0  0  0  0  0  0  0  0  0
   61.8710   32.1060   49.2850 C   0  0  0  0  0  0  0  0  0  0  0  0
   63.3250   31.6910   48.9730 C   0  0  0  0  0  0  0  0  0  0  0  0
   63.9900   32.6910   48.2270 O   0  0  0  0  0  0  0  0  0  0  0  0
   63.3680   32.8350   46.9610 C   0  0  0  0  0  0  0  0  0  0  0  0
   61.8480   33.0850   47.0800 C   0  0  0  0  0  0  0  0  0  0  0  0
   58.2670   32.3580   46.6890 C   0  0  0  0  0  0  0  0  0  0  0  0
   55.1355   28.5871   51.9858 H   0  0  0  0  0  0  0  0  0  0  0  0
   55.0267   29.0659   53.7361 H   0  0  0  0  0  0  0  0  0  0  0  0
   53.0559   30.0471   54.4022 H   0  0  0  0  0  0  0  0  0  0  0  0
   51.0767   31.4915   53.9338 H   0  0  0  0  0  0  0  0  0  0  0  0
   52.5093   32.1609   49.9092 H   0  0  0  0  0  0  0  0  0  0  0  0
   54.4859   30.7085   50.3646 H   0  0  0  0  0  0  0  0  0  0  0  0
   59.1474   30.8920   52.1066 H   0  0  0  0  0  0  0  0  0  0  0  0
   59.0528   29.1921   52.7224 H   0  0  0  0  0  0  0  0  0  0  0  0
   57.8950   29.2100   49.3850 H   0  0  0  0  0  0  0  0  0  0  0  0
   60.6729   28.8749   48.3099 H   0  0  0  0  0  0  0  0  0  0  0  0
   59.5860   27.4360   48.3093 H   0  0  0  0  0  0  0  0  0  0  0  0
   57.6145   27.7297   44.7991 H   0  0  0  0  0  0  0  0  0  0  0  0
   56.0937   28.5039   45.4067 H   0  0  0  0  0  0  0  0  0  0  0  0
   57.1428   33.3714   43.6218 H   0  0  0  0  0  0  0  0  0  0  0  0
   58.3502   35.4421   44.3132 H   0  0  0  0  0  0  0  0  0  0  0  0
   59.5163   35.5370   46.5172 H   0  0  0  0  0  0  0  0  0  0  0  0
   61.7872   32.3507   50.3542 H   0  0  0  0  0  0  0  0  0  0  0  0
   61.2031   31.2699   49.0303 H   0  0  0  0  0  0  0  0  0  0  0  0
   63.8636   31.5301   49.9185 H   0  0  0  0  0  0  0  0  0  0  0  0
   63.3047   30.7661   48.3779 H   0  0  0  0  0  0  0  0  0  0  0  0
   63.8265   33.6861   46.4363 H   0  0  0  0  0  0  0  0  0  0  0  0
   63.5124   31.8962   46.4062 H   0  0  0  0  0  0  0  0  0  0  0  0
   61.5803   33.9839   46.5052 H   0  0  0  0  0  0  0  0  0  0  0  0
   61.3061   32.2139   46.6830 H   0  0  0  0  0  0  0  0  0  0  0  0
   58.2262   31.4954   47.3704 H   0  0  0  0  0  0  0  0  0  0  0  0
  1  2  2  0
  2  3  1  0
  3  4  1  0
  4  5  2  0
  5  6  1  0
  6  7  2  0
  7  8  1  0
  7  9  1  0
  9 10  2  0
  2 11  1  0
 11 12  1  0
 12 13  1  0
 13 14  2  0
 13 15  1  0
 15 16  1  0
 16 17  1  0
 17 18  2  0
 17 19  1  0
 19 20  1  0
 20 21  1  0
 21 22  2  0
 21 23  1  0
 23 24  1  0
 24 25  2  0
 25 26  1  0
 26 27  2  0
 27 28  1  0
 28 29  1  0
 29 30  2  0
 29 31  2  0
 29 32  1  0
 32 33  1  0
 33 34  1  0
 34 35  1  0
 35 36  1  0
 36 37  1  0
 28 38  2  0
 10  4  1  0
 38 24  1  0
 37 32  1  0
  3 39  1  0
  3 40  1  0
  5 41  1  0
  6 42  1  0
  9 43  1  0
 10 44  1  0
 12 45  1  0
 12 46  1  0
 15 47  1  0
 16 48  1  0
 16 49  1  0
 20 50  1  0
 20 51  1  0
 25 52  1  0
 26 53  1  0
 27 54  1  0
 33 55  1  0
 33 56  1  0
 34 57  1  0
 34 58  1  0
 36 59  1  0
 36 60  1  0
 37 61  1  0
 37 62  1  0
 38 63  1  0
M  CHG  3   8  -1  11  -1  23  -1
M  END
>  <UniqueID>  (21) 
20

>  <SMILES>  (21) 
O=C(Cc1ccc([O-])cc1)[N-]CC(=O)NCC(=O)OCC(=O)[N-]c1cccc(S(=O)(=O)N2CCOCC2)c1

>  <Energy>  (21) 
67.40378489629923

>  <Genealogy>  (21) 
O=C(Cc1ccc([O-])cc1)[N-]CC(=O)NCC(=O)OCC(=O)[N-]c1cccc(S(=O)(=O)N2CCOCC2)c1 (protonated)
O=C(Cc1ccc([O-])cc1)[N-]CC(=O)NCC(=O)OCC(=O)[N-]c1cccc(S(=O)(=O)N2CCOCC2)c1 (3D coordinates assigned)
O=C(Cc1ccc([O-])cc1)[N-]CC(=O)NCC(=O)OCC(=O)[N-]c1cccc(S(=O)(=O)N2CCOCC2)c1 (nonaromatic ring conformer: 67.40378489629923 kcal/mol)

>  <smiles>  (21) 
O=C(CNC(=O)Cc1ccc(O)cc1)NCC(=O)OCC(=O)Nc1cccc(S(=O)(=O)N2CCOCC2)c1

>  <score_type>  (21) 
oracle

>  <origin>  (21) 
adg

>  <m_score__min__energy>  (21) 
-15.380000000000001

>  <m_primary>  (21) 
energy

$$$$
21:0
     RDKit          3D

 46 48  0  0  0  0  0  0  0  0999 V2000
   61.3680   28.7220   44.8350 N   0  0  0  0  0  0  0  0  0  0  0  0
   59.9490   28.5670   44.9740 C   0  0  0  0  0  0  0  0  0  0  0  0
   59.2490   27.8480   43.9910 C   0  0  0  0  0  0  0  0  0  0  0  0
   57.8770   27.6270   44.1130 C   0  0  0  0  0  0  0  0  0  0  0  0
   57.1880   28.1160   45.2220 C   0  0  0  0  0  0  0  0  0  0  0  0
   57.8650   28.8420   46.2030 C   0  0  0  0  0  0  0  0  0  0  0  0
   59.2420   29.0970   46.0830 C   0  0  0  0  0  0  0  0  0  0  0  0
   60.0440   30.0720   47.3260 S   0  0  0  0  0  0  0  0  0  0  0  0
   60.1670   29.2470   48.5750 O   0  0  0  0  0  0  0  0  0  0  0  0
   61.4170   30.4880   46.8750 O   0  0  0  0  0  0  0  0  0  0  0  0
   59.1250   31.5000   47.6910 N   0  0  0  0  0  0  0  0  0  0  0  0
   58.8920   32.5790   46.7640 C   0  0  0  0  0  0  0  0  0  0  0  0
   57.6540   32.7130   46.1000 C   0  0  0  0  0  0  0  0  0  0  0  0
   57.4370   33.7570   45.2000 C   0  0  0  0  0  0  0  0  0  0  0  0
   58.4450   34.6860   44.9480 C   0  0  0  0  0  0  0  0  0  0  0  0
   59.6740   34.5750   45.6000 C   0  0  0  0  0  0  0  0  0  0  0  0
   59.9120   33.5270   46.5030 C   0  0  0  0  0  0  0  0  0  0  0  0
   61.1690   33.4790   47.2020 N   0  0  0  0  0  0  0  0  0  0  0  0
   61.1420   33.4200   48.6730 C   0  0  0  0  0  0  0  0  0  0  0  0
   62.3760   34.0710   49.3330 C   0  0  0  0  0  0  0  0  0  0  0  0
   63.6770   33.2550   49.2760 C   0  0  0  0  0  0  0  0  0  0  0  0
   64.3740   33.3630   47.9850 N   0  0  0  0  0  0  0  0  0  0  0  0
   63.6040   32.9290   46.8010 C   0  0  0  0  0  0  0  0  0  0  0  0
   62.3930   33.8180   46.4470 C   0  0  0  0  0  0  0  0  0  0  0  0
   61.9370   29.2830   45.5020 H   0  0  0  0  0  0  0  0  0  0  0  0
   61.8860   28.1960   44.0960 H   0  0  0  0  0  0  0  0  0  0  0  0
   59.7881   27.4553   43.1163 H   0  0  0  0  0  0  0  0  0  0  0  0
   57.3388   27.0669   43.3342 H   0  0  0  0  0  0  0  0  0  0  0  0
   56.1088   27.9293   45.3240 H   0  0  0  0  0  0  0  0  0  0  0  0
   57.3156   29.2183   47.0786 H   0  0  0  0  0  0  0  0  0  0  0  0
   58.7240   31.5490   48.6490 H   0  0  0  0  0  0  0  0  0  0  0  0
   56.8512   31.9864   46.2941 H   0  0  0  0  0  0  0  0  0  0  0  0
   56.4676   33.8471   44.6879 H   0  0  0  0  0  0  0  0  0  0  0  0
   58.2720   35.5062   44.2357 H   0  0  0  0  0  0  0  0  0  0  0  0
   60.4634   35.3156   45.4044 H   0  0  0  0  0  0  0  0  0  0  0  0
   60.2407   33.9420   49.0268 H   0  0  0  0  0  0  0  0  0  0  0  0
   61.1437   32.3571   48.9565 H   0  0  0  0  0  0  0  0  0  0  0  0
   62.5589   35.0323   48.8307 H   0  0  0  0  0  0  0  0  0  0  0  0
   62.1287   34.1624   50.4009 H   0  0  0  0  0  0  0  0  0  0  0  0
   64.3503   33.6152   50.0678 H   0  0  0  0  0  0  0  0  0  0  0  0
   63.4055   32.1979   49.4129 H   0  0  0  0  0  0  0  0  0  0  0  0
   65.2330   32.7670   48.0490 H   0  0  0  0  0  0  0  0  0  0  0  0
   64.2842   32.9195   45.9366 H   0  0  0  0  0  0  0  0  0  0  0  0
   63.1954   31.9378   47.0472 H   0  0  0  0  0  0  0  0  0  0  0  0
   62.6553   34.8645   46.6618 H   0  0  0  0  0  0  0  0  0  0  0  0
   62.1715   33.6520   45.3824 H   0  0  0  0  0  0  0  0  0  0  0  0
  1  2  1  0
  2  3  2  0
  3  4  1  0
  4  5  2  0
  5  6  1  0
  6  7  2  0
  7  8  1  0
  8  9  2  0
  8 10  2  0
  8 11  1  0
 11 12  1  0
 12 13  2  0
 13 14  1  0
 14 15  2  0
 15 16  1  0
 16 17  2  0
 17 18  1  0
 18 19  1  0
 19 20  1  0
 20 21  1  0
 21 22  1  0
 22 23  1  0
 23 24  1  0
  7  2  1  0
 17 12  1  0
 24 18  1  0
  1 25  1  0
  1 26  1  0
  3 27  1  0
  4 28  1  0
  5 29  1  0
  6 30  1  0
 11 31  1  0
 13 32  1  0
 14 33  1  0
 15 34  1  0
 16 35  1  0
 19 36  1  0
 19 37  1  0
 20 38  1  0
 20 39  1  0
 21 40  1  0
 21 41  1  0
 22 42  1  0
 23 43  1  0
 23 44  1  0
 24 45  1  0
 24 46  1  0
M  END
>  <UniqueID>  (22) 
21

>  <SMILES>  (22) 
Nc1ccccc1S(=O)(=O)Nc1ccccc1N1CCCNCC1

>  <Energy>  (22) 
68.29981090696039

>  <Genealogy>  (22) 
Nc1ccccc1S(=O)(=O)Nc1ccccc1N1CCCNCC1 (3D coordinates assigned)
Nc1ccccc1S(=O)(=O)Nc1ccccc1N1CCCNCC1 (nonaromatic ring conformer: 68.29981090696039 kcal/mol)

>  <smiles>  (22) 
Nc1ccccc1S(=O)(=O)Nc1ccccc1N1CCCNCC1

>  <score_type>  (22) 
oracle

>  <origin>  (22) 
adg

>  <m_score__min__energy>  (22) 
-6.4299999999999997

>  <m_primary>  (22) 
energy

$$$$
22:0
     RDKit          3D

 53 55  0  0  0  0  0  0  0  0999 V2000
   61.7380   32.3930   49.7280 N   0  0  0  0  0  0  0  0  0  0  0  0
   60.6890   33.6980   49.2860 S   0  0  0  0  0  0  0  0  0  0  0  0
   59.7590   33.9960   50.4270 O   0  0  0  0  0  0  0  0  0  0  0  0
   61.5110   34.9280   49.0000 O   0  0  0  0  0  0  0  0  0  0  0  0
   59.7610   33.2590   47.8490 C   0  0  0  0  0  0  0  0  0  0  0  0
   60.0990   33.7960   46.5970 C   0  0  0  0  0  0  0  0  0  0  0  0
   59.3560   33.4520   45.4590 C   0  0  0  0  0  0  0  0  0  0  0  0
   58.2570   32.5810   45.5670 C   0  0  0  0  0  0  0  0  0  0  0  0
   57.4690   32.1950   44.3480 C   0  0  0  0  0  0  0  0  0  0  0  0
   56.3640   31.3230   44.7450 N   0  0  0  0  0  0  0  0  0  0  0  0
   56.2570   29.9330   44.3820 C   0  0  0  0  0  0  0  0  0  0  0  0
   55.1620   29.3430   44.5890 O   0  0  0  0  0  0  0  0  0  0  0  0
   57.3690   29.2230   43.6940 C   0  0  0  0  0  0  0  0  0  0  0  0
   58.6260   29.1150   44.1530 C   0  0  0  0  0  0  0  0  0  0  0  0
   59.0230   29.1360   45.5760 C   0  0  0  0  0  0  0  0  0  0  0  0
   60.2330   29.7260   45.9840 C   0  0  0  0  0  0  0  0  0  0  0  0
   60.6280   29.6660   47.3250 C   0  0  0  0  0  0  0  0  0  0  0  0
   59.8240   29.0110   48.2670 C   0  0  0  0  0  0  0  0  0  0  0  0
   60.3240   28.9300   49.9610 S   0  0  0  0  0  0  0  0  0  0  0  0
   61.4760   29.8720   50.1840 O   0  0  0  0  0  0  0  0  0  0  0  0
   60.7990   27.5340   50.2660 O   0  0  0  0  0  0  0  0  0  0  0  0
   59.0110   29.3390   51.0440 N   0  0  0  0  0  0  0  0  0  0  0  0
   58.4340   30.6450   50.6870 C   0  0  0  0  0  0  0  0  0  0  0  0
   57.2660   30.9840   51.6440 C   0  0  0  0  0  0  0  0  0  0  0  0
   57.1420   30.0300   52.6880 O   0  0  0  0  0  0  0  0  0  0  0  0
   58.3760   29.9090   53.3730 C   0  0  0  0  0  0  0  0  0  0  0  0
   59.4740   29.3540   52.4430 C   0  0  0  0  0  0  0  0  0  0  0  0
   58.6210   28.4150   47.8570 C   0  0  0  0  0  0  0  0  0  0  0  0
   58.2290   28.4660   46.5160 C   0  0  0  0  0  0  0  0  0  0  0  0
   57.9250   32.0390   46.8210 C   0  0  0  0  0  0  0  0  0  0  0  0
   58.6680   32.3830   47.9570 C   0  0  0  0  0  0  0  0  0  0  0  0
   61.3670   31.9870   50.6140 H   0  0  0  0  0  0  0  0  0  0  0  0
   61.6430   31.6600   48.9910 H   0  0  0  0  0  0  0  0  0  0  0  0
   60.9490   34.4885   46.5085 H   0  0  0  0  0  0  0  0  0  0  0  0
   59.6336   33.8649   44.4779 H   0  0  0  0  0  0  0  0  0  0  0  0
   57.0690   33.0997   43.8670 H   0  0  0  0  0  0  0  0  0  0  0  0
   58.1217   31.6645   43.6391 H   0  0  0  0  0  0  0  0  0  0  0  0
   57.1422   28.7468   42.7287 H   0  0  0  0  0  0  0  0  0  0  0  0
   59.4270   29.0014   43.4077 H   0  0  0  0  0  0  0  0  0  0  0  0
   60.8705   30.2360   45.2468 H   0  0  0  0  0  0  0  0  0  0  0  0
   61.5721   30.1342   47.6404 H   0  0  0  0  0  0  0  0  0  0  0  0
   59.2094   31.4209   50.7687 H   0  0  0  0  0  0  0  0  0  0  0  0
   58.0562   30.6041   49.6547 H   0  0  0  0  0  0  0  0  0  0  0  0
   57.4457   31.9746   52.0872 H   0  0  0  0  0  0  0  0  0  0  0  0
   56.3336   30.9733   51.0605 H   0  0  0  0  0  0  0  0  0  0  0  0
   58.6824   30.8999   53.7395 H   0  0  0  0  0  0  0  0  0  0  0  0
   58.2430   29.2110   54.2127 H   0  0  0  0  0  0  0  0  0  0  0  0
   60.3686   29.9893   52.5208 H   0  0  0  0  0  0  0  0  0  0  0  0
   59.7104   28.3242   52.7491 H   0  0  0  0  0  0  0  0  0  0  0  0
   57.9836   27.9053   48.5945 H   0  0  0  0  0  0  0  0  0  0  0  0
   57.2952   27.9791   46.1982 H   0  0  0  0  0  0  0  0  0  0  0  0
   57.0785   31.3422   46.9101 H   0  0  0  0  0  0  0  0  0  0  0  0
   58.3949   31.9658   48.9375 H   0  0  0  0  0  0  0  0  0  0  0  0
  1  2  1  0
  2  3  2  0
  2  4  2  0
  2  5  1  0
  5  6  2  0
  6  7  1  0
  7  8  2  0
  8  9  1  0
  9 10  1  0
 10 11  1  0
 11 12  2  0
 11 13  1  0
 13 14  2  3
 14 15  1  0
 15 16  2  0
 16 17  1  0
 17 18  2  0
 18 19  1  0
 19 20  2  0
 19 21  2  0
 19 22  1  0
 22 23  1  0
 23 24  1  0
 24 25  1  0
 25 26  1  0
 26 27  1  0
 18 28  1  0
 28 29  2  0
  8 30  1  0
 30 31  2  0
 31  5  1  0
 29 15  1  0
 27 22  1  0
  1 32  1  0
  1 33  1  0
  6 34  1  0
  7 35  1  0
  9 36  1  0
  9 37  1  0
 13 38  1  0
 14 39  1  0
 16 40  1  0
 17 41  1  0
 23 42  1  0
 23 43  1  0
 24 44  1  0
 24 45  1  0
 26 46  1  0
 26 47  1  0
 27 48  1  0
 27 49  1  0
 28 50  1  0
 29 51  1  0
 30 52  1  0
 31 53  1  0
M  CHG  1  10  -1
M  END
>  <UniqueID>  (23) 
22

>  <SMILES>  (23) 
NS(=O)(=O)c1ccc(C[N-]C(=O)C=Cc2ccc(S(=O)(=O)N3CCOCC3)cc2)cc1

>  <Energy>  (23) 
66.61958544573973

>  <Genealogy>  (23) 
NS(=O)(=O)c1ccc(C[N-]C(=O)C=Cc2ccc(S(=O)(=O)N3CCOCC3)cc2)cc1 (protonated)
NS(=O)(=O)c1ccc(C[N-]C(=O)C=Cc2ccc(S(=O)(=O)N3CCOCC3)cc2)cc1 (3D coordinates assigned)
NS(=O)(=O)c1ccc(C[N-]C(=O)C=Cc2ccc(S(=O)(=O)N3CCOCC3)cc2)cc1 (nonaromatic ring conformer: 66.61958544573973 kcal/mol)

>  <smiles>  (23) 
NS(=O)(=O)c1ccc(CNC(=O)C=Cc2ccc(S(=O)(=O)N3CCOCC3)cc2)cc1

>  <score_type>  (23) 
oracle

>  <origin>  (23) 
adg

>  <m_score__min__energy>  (23) 
-12.630000000000001

>  <m_primary>  (23) 
energy

$$$$
23:0
     RDKit          3D

 51 54  0  0  1  0  0  0  0  0999 V2000
   61.5680   30.2620   51.6900 O   0  0  0  0  0  0  0  0  0  0  0  0
   61.8940   30.4810   50.4560 C   0  0  0  0  0  0  0  0  0  0  0  0
   61.1830   29.7730   49.5050 N   0  0  0  0  0  0  0  0  0  0  0  0
   60.7900   30.0790   48.3540 C   0  0  0  0  0  0  0  0  0  0  0  0
   59.8520   29.3770   47.6340 C   0  0  0  0  0  0  0  0  0  0  0  0
   59.6520   30.0110   46.4270 C   0  0  0  0  0  0  0  0  0  0  0  0
   58.6750   29.5280   45.4230 C   0  0  0  0  0  0  0  0  0  0  0  0
   57.7680   28.5490   46.1840 C   0  0  0  0  0  0  0  0  0  0  0  0
   56.6590   28.0910   45.2500 C   0  0  0  0  0  0  0  0  0  0  0  0
   55.8100   29.2770   45.0430 N   0  0  0  0  0  0  0  0  0  0  0  0
   56.5980   30.1750   44.1970 C   0  0  0  0  0  0  0  0  0  0  0  0
   57.8310   30.6610   44.9340 C   0  0  0  0  0  0  0  0  0  0  0  0
   60.4570   31.0660   46.4310 N   0  0  0  0  0  0  0  0  0  0  0  0
   61.1410   31.1280   47.5590 N   0  0  0  0  0  0  0  0  0  0  0  0
   62.9610   31.4420   50.2850 C   0  0  0  0  0  0  0  0  0  0  0  0
   64.2600   31.2110   50.5230 N   0  0  0  0  0  0  0  0  0  0  0  0
   65.1470   32.2010   50.3220 C   0  0  0  0  0  0  0  0  0  0  0  0
   66.8740   31.9450   50.6200 Cl  0  0  0  0  0  0  0  0  0  0  0  0
   64.7960   33.4610   49.8780 C   0  0  0  0  0  0  0  0  0  0  0  0
   63.4570   33.7300   49.6230 C   0  0  0  0  0  0  0  0  0  0  0  0
   62.5540   32.7140   49.8300 C   0  0  0  0  0  0  0  0  0  0  0  0
   61.2110   32.9550   49.5880 O   0  0  0  0  0  0  0  0  0  0  0  0
   60.6260   34.1780   49.2690 C   0  0  0  0  0  0  0  0  0  0  0  0
   59.7130   34.0190   48.0960 C   0  0  0  0  0  0  0  0  0  0  0  0
   58.5870   33.2480   48.1010 C   0  0  0  0  0  0  0  0  0  0  0  0
   57.8000   33.1830   46.9410 C   0  0  0  0  0  0  0  0  0  0  0  0
   58.1510   33.8820   45.8100 C   0  0  0  0  0  0  0  0  0  0  0  0
   59.2810   34.6600   45.7940 C   0  0  0  0  0  0  0  0  0  0  0  0
   60.0410   34.7140   46.9370 C   0  0  0  0  0  0  0  0  0  0  0  0
   59.3445   28.4597   47.9670 H   0  0  0  0  0  0  0  0  0  0  0  0
   59.1811   29.0720   44.5593 H   0  0  0  0  0  0  0  0  0  0  0  0
   58.3558   27.6804   46.5156 H   0  0  0  0  0  0  0  0  0  0  0  0
   57.3363   29.0442   47.0663 H   0  0  0  0  0  0  0  0  0  0  0  0
   57.0788   27.7461   44.2935 H   0  0  0  0  0  0  0  0  0  0  0  0
   56.0907   27.2484   45.6707 H   0  0  0  0  0  0  0  0  0  0  0  0
   55.5670   29.7130   45.9630 H   0  0  0  0  0  0  0  0  0  0  0  0
   56.9086   29.6363   43.2896 H   0  0  0  0  0  0  0  0  0  0  0  0
   55.9790   31.0446   43.9314 H   0  0  0  0  0  0  0  0  0  0  0  0
   58.4306   31.2817   44.2520 H   0  0  0  0  0  0  0  0  0  0  0  0
   57.4979   31.2384   45.8090 H   0  0  0  0  0  0  0  0  0  0  0  0
   60.5440   31.7640   45.6370 H   0  0  0  0  0  0  0  0  0  0  0  0
   61.8550   31.8240   47.8810 H   0  0  0  0  0  0  0  0  0  0  0  0
   65.5618   34.2365   49.7292 H   0  0  0  0  0  0  0  0  0  0  0  0
   63.1314   34.7191   49.2686 H   0  0  0  0  0  0  0  0  0  0  0  0
   60.0496   34.5420   50.1323 H   0  0  0  0  0  0  0  0  0  0  0  0
   61.4160   34.9004   49.0157 H   0  0  0  0  0  0  0  0  0  0  0  0
   58.3003   32.6854   49.0017 H   0  0  0  0  0  0  0  0  0  0  0  0
   56.8902   32.5647   46.9364 H   0  0  0  0  0  0  0  0  0  0  0  0
   57.5207   33.8169   44.9108 H   0  0  0  0  0  0  0  0  0  0  0  0
   59.5694   35.2229   44.8940 H   0  0  0  0  0  0  0  0  0  0  0  0
   60.9493   35.3345   46.9354 H   0  0  0  0  0  0  0  0  0  0  0  0
  1  2  2  0
  2  3  1  0
  3  4  2  0
  4  5  1  0
  5  6  2  0
  6  7  1  0
  7  8  1  0
  8  9  1  0
  9 10  1  0
 10 11  1  0
 11 12  1  0
  6 13  1  0
 13 14  1  0
  2 15  1  0
 15 16  2  0
 16 17  1  0
 17 18  1  0
 17 19  2  0
 19 20  1  0
 20 21  2  0
 21 22  1  0
 22 23  1  0
 23 24  1  0
 24 25  2  0
 25 26  1  0
 26 27  2  0
 27 28  1  0
 28 29  2  0
 14  4  1  0
 21 15  1  0
 29 24  1  0
 12  7  1  0
  5 30  1  0
  7 31  1  0
  8 32  1  0
  8 33  1  0
  9 34  1  0
  9 35  1  0
 10 36  1  0
 11 37  1  0
 11 38  1  0
 12 39  1  0
 12 40  1  0
 13 41  1  0
 14 42  1  0
 19 43  1  0
 20 44  1  0
 23 45  1  0
 23 46  1  0
 25 47  1  0
 26 48  1  0
 27 49  1  0
 28 50  1  0
 29 51  1  0
M  END
>  <smiles>  (24) 
O=C(N=c1cc(C2CCNCC2)[nH][nH]1)c1nc(Cl)ccc1OCc1ccccc1

>  <score_type>  (24) 
oracle

>  <origin>  (24) 
adg

>  <m_score__min__energy>  (24) 
-9.5500000000000007

>  <m_primary>  (24) 
energy

$$$$
24:0
     RDKit          3D

 55 58  0  0  0  0  0  0  0  0999 V2000
   57.2362   29.6014   45.6442 H   0  0  0  0  0  0  0  0  0  0  0  0
   57.2220   28.5430   45.3450 C   0  0  0  0  0  0  0  0  0  0  0  0
   56.6007   28.2195   44.4969 H   0  0  0  0  0  0  0  0  0  0  0  0
   57.9630   27.6460   46.0150 C   0  0  0  0  0  0  0  0  0  0  0  0
   58.0470   26.2750   45.7530 C   0  0  0  0  0  0  0  0  0  0  0  0
   57.4250   25.5900   44.7730 C   0  0  0  0  0  0  0  0  0  0  0  0
   57.8529   25.6220   43.7601 H   0  0  0  0  0  0  0  0  0  0  0  0
   56.1950   24.7970   44.9920 C   0  0  0  0  0  0  0  0  0  0  0  0
   55.0780   25.3850   45.6030 C   0  0  0  0  0  0  0  0  0  0  0  0
   55.1080   26.7180   45.9980 O   0  0  0  0  0  0  0  0  0  0  0  0
   53.9520   24.6530   45.8040 N   0  0  0  0  0  0  0  0  0  0  0  0
   53.8880   23.3470   45.4400 C   0  0  0  0  0  0  0  0  0  0  0  0
   52.8300   22.6920   45.6280 O   0  0  0  0  0  0  0  0  0  0  0  0
   54.9660   22.7460   44.8770 N   0  0  0  0  0  0  0  0  0  0  0  0
   56.1170   23.4330   44.6560 C   0  0  0  0  0  0  0  0  0  0  0  0
   57.1090   22.8310   44.1660 O   0  0  0  0  0  0  0  0  0  0  0  0
   58.9470   25.7540   46.6750 C   0  0  0  0  0  0  0  0  0  0  0  0
   59.2675   24.7052   46.7608 H   0  0  0  0  0  0  0  0  0  0  0  0
   59.3600   26.8100   47.4620 C   0  0  0  0  0  0  0  0  0  0  0  0
   60.3460   26.7020   48.5850 C   0  0  0  0  0  0  0  0  0  0  0  0
   59.8146   26.7602   49.5464 H   0  0  0  0  0  0  0  0  0  0  0  0
   60.8758   25.7404   48.5165 H   0  0  0  0  0  0  0  0  0  0  0  0
   61.0714   27.5261   48.5165 H   0  0  0  0  0  0  0  0  0  0  0  0
   58.7710   27.9570   47.0590 N   0  0  0  0  0  0  0  0  0  0  0  0
   58.9690   29.2530   47.6480 C   0  0  0  0  0  0  0  0  0  0  0  0
   58.6710   29.4640   49.0010 C   0  0  0  0  0  0  0  0  0  0  0  0
   58.2866   28.6361   49.6148 H   0  0  0  0  0  0  0  0  0  0  0  0
   58.8620   30.7260   49.5710 C   0  0  0  0  0  0  0  0  0  0  0  0
   58.6434   30.8856   50.6372 H   0  0  0  0  0  0  0  0  0  0  0  0
   59.3300   31.7850   48.7890 C   0  0  0  0  0  0  0  0  0  0  0  0
   59.4864   32.7747   49.2430 H   0  0  0  0  0  0  0  0  0  0  0  0
   59.6010   31.5900   47.4270 C   0  0  0  0  0  0  0  0  0  0  0  0
   60.0580   32.7170   46.5990 C   0  0  0  0  0  0  0  0  0  0  0  0
   61.2960   32.8250   46.3720 O   0  0  0  0  0  0  0  0  0  0  0  0
   59.1370   33.7010   46.0690 N   0  0  0  0  0  0  0  0  0  0  0  0
   58.1480   34.2970   46.9790 C   0  0  0  0  0  0  0  0  0  0  0  0
   58.4512   34.1143   48.0205 H   0  0  0  0  0  0  0  0  0  0  0  0
   58.0900   35.3806   46.7987 H   0  0  0  0  0  0  0  0  0  0  0  0
   57.1629   33.8421   46.7987 H   0  0  0  0  0  0  0  0  0  0  0  0
   59.0070   33.9440   44.6210 C   0  0  0  0  0  0  0  0  0  0  0  0
   58.5470   34.9310   44.4655 H   0  0  0  0  0  0  0  0  0  0  0  0
   60.0119   33.9015   44.1757 H   0  0  0  0  0  0  0  0  0  0  0  0
   58.1510   32.8940   43.9500 C   0  0  0  0  0  0  0  0  0  0  0  0
   57.3440   32.0450   44.7280 C   0  0  0  0  0  0  0  0  0  0  0  0
   57.3231   32.1621   45.8215 H   0  0  0  0  0  0  0  0  0  0  0  0
   56.5680   31.0530   44.1210 C   0  0  0  0  0  0  0  0  0  0  0  0
   55.9346   30.3976   44.7368 H   0  0  0  0  0  0  0  0  0  0  0  0
   56.5960   30.8930   42.7330 C   0  0  0  0  0  0  0  0  0  0  0  0
   55.9770   30.1190   42.2558 H   0  0  0  0  0  0  0  0  0  0  0  0
   57.4100   31.7160   41.9520 C   0  0  0  0  0  0  0  0  0  0  0  0
   57.4371   31.5850   40.8602 H   0  0  0  0  0  0  0  0  0  0  0  0
   58.1920   32.7080   42.5570 C   0  0  0  0  0  0  0  0  0  0  0  0
   58.8418   33.3450   41.9390 H   0  0  0  0  0  0  0  0  0  0  0  0
   59.4350   30.3170   46.8640 C   0  0  0  0  0  0  0  0  0  0  0  0
   59.6715   30.1526   45.8024 H   0  0  0  0  0  0  0  0  0  0  0  0
  1  2  1  0
  2  3  1  0
  2  4  2  0
  4  5  1  0
  5  6  2  0
  6  7  1  0
  6  8  1  0
  8  9  2  0
  9 10  1  0
  9 11  1  0
 11 12  1  0
 12 13  2  0
 12 14  1  0
 14 15  1  0
 15 16  2  0
  5 17  1  0
 17 18  1  0
 17 19  2  0
 19 20  1  0
 20 21  1  0
 20 22  1  0
 20 23  1  0
 19 24  1  0
 24 25  1  0
 25 26  2  0
 26 27  1  0
 26 28  1  0
 28 29  1  0
 28 30  2  0
 30 31  1  0
 30 32  1  0
 32 33  1  0
 33 34  2  0
 33 35  1  0
 35 36  1  0
 36 37  1  0
 36 38  1  0
 36 39  1  0
 35 40  1  0
 40 41  1  0
 40 42  1  0
 40 43  1  0
 43 44  2  0
 44 45  1  0
 44 46  1  0
 46 47  1  0
 46 48  2  0
 48 49  1  0
 48 50  1  0
 50 51  1  0
 50 52  2  0
 52 53  1  0
 32 54  2  0
 54 55  1  0
 24  4  1  0
 54 25  1  0
 15  8  1  0
 52 43  1  0
M  CHG  3  10  -1  11  -1  14  -1
M  END
>  <UniqueID>  (25) 
23

>  <SMILES>  (25) 
C=c1/c(=C/c2c([O-])[n-]c(=O)[n-]c2=O)cc(C)n1-c1cccc(C(=O)N(C)Cc2ccccc2)c1

>  <Energy>  (25) 
109.8054196472294

>  <Genealogy>  (25) 
C=c1c(=Cc2c([O-])[n-]c(=O)[n-]c2=O)cc(C)n1-c1cccc(C(=O)N(C)Cc2ccccc2)c1 (protonated)
C=c1/c(=C/c2c([O-])[n-]c(=O)[n-]c2=O)cc(C)n1-c1cccc(C(=O)N(C)Cc2ccccc2)c1 (cis-trans isomerization)
C=c1/c(=C/c2c([O-])[n-]c(=O)[n-]c2=O)cc(C)n1-c1cccc(C(=O)N(C)Cc2ccccc2)c1 (3D coordinates assigned)
C=c1/c(=C/c2c([O-])[n-]c(=O)[n-]c2=O)cc(C)n1-c1cccc(C(=O)N(C)Cc2ccccc2)c1 (optimized conformer: 109.8054196472294 kcal/mol)

>  <smiles>  (25) 
C=c1c(=Cc2c(O)[nH]c(=O)[nH]c2=O)cc(C)n1-c1cccc(C(=O)N(C)Cc2ccccc2)c1

>  <score_type>  (25) 
oracle

>  <origin>  (25) 
adg

>  <m_score__min__energy>  (25) 
-16.989999999999998

>  <m_primary>  (25) 
energy

$$$$
25:0
     RDKit          3D

 29 30  0  0  0  0  0  0  0  0999 V2000
   58.9530   35.6790   47.8390 H   0  0  0  0  0  0  0  0  0  0  0  0
   59.5560   34.9070   48.1020 O   0  0  0  0  0  0  0  0  0  0  0  0
   59.4620   33.6640   47.4810 C   0  0  0  0  0  0  0  0  0  0  0  0
   60.2760   32.6020   47.8990 C   0  0  0  0  0  0  0  0  0  0  0  0
   60.9940   32.7519   48.7188 H   0  0  0  0  0  0  0  0  0  0  0  0
   60.1790   31.3550   47.2790 C   0  0  0  0  0  0  0  0  0  0  0  0
   60.8340   30.5313   47.5992 H   0  0  0  0  0  0  0  0  0  0  0  0
   59.2510   31.1490   46.2510 C   0  0  0  0  0  0  0  0  0  0  0  0
   59.1990   29.8390   45.5670 C   0  0  0  0  0  0  0  0  0  0  0  0
   60.0528   29.5768   44.9249 H   0  0  0  0  0  0  0  0  0  0  0  0
   58.1890   28.9250   45.6590 C   0  0  0  0  0  0  0  0  0  0  0  0
   56.8770   29.1980   45.1680 C   0  0  0  0  0  0  0  0  0  0  0  0
   56.5770   30.3100   44.6580 O   0  0  0  0  0  0  0  0  0  0  0  0
   55.8940   28.2720   45.2850 N   0  0  0  0  0  0  0  0  0  0  0  0
   56.1090   27.0810   45.8820 C   0  0  0  0  0  0  0  0  0  0  0  0
   55.1740   26.2460   45.9770 O   0  0  0  0  0  0  0  0  0  0  0  0
   57.3300   26.7890   46.3820 N   0  0  0  0  0  0  0  0  0  0  0  0
   58.3770   27.6530   46.2990 C   0  0  0  0  0  0  0  0  0  0  0  0
   59.5460   27.2190   46.7990 C   0  0  0  0  0  0  0  0  0  0  0  0
   60.4338   27.8676   46.7642 H   0  0  0  0  0  0  0  0  0  0  0  0
   59.6154   26.2151   47.2432 H   0  0  0  0  0  0  0  0  0  0  0  0
   58.4570   32.2190   45.8110 C   0  0  0  0  0  0  0  0  0  0  0  0
   57.7580   32.0719   44.9745 H   0  0  0  0  0  0  0  0  0  0  0  0
   58.5480   33.4800   46.4320 C   0  0  0  0  0  0  0  0  0  0  0  0
   57.7550   34.5690   46.0370 O   0  0  0  0  0  0  0  0  0  0  0  0
   56.9180   34.5800   44.8850 C   0  0  0  0  0  0  0  0  0  0  0  0
   55.8636   34.5939   45.1980 H   0  0  0  0  0  0  0  0  0  0  0  0
   57.1337   35.4754   44.2836 H   0  0  0  0  0  0  0  0  0  0  0  0
   57.1101   33.6793   44.2836 H   0  0  0  0  0  0  0  0  0  0  0  0
  1  2  1  0
  2  3  1  0
  3  4  2  0
  4  5  1  0
  4  6  1  0
  6  7  1  0
  6  8  2  0
  8  9  1  0
  9 10  1  0
  9 11  2  0
 11 12  1  0
 12 13  2  0
 12 14  1  0
 14 15  1  0
 15 16  2  0
 15 17  1  0
 17 18  1  0
 18 19  2  0
 19 20  1  0
 19 21  1  0
  8 22  1  0
 22 23  1  0
 22 24  2  0
 24 25  1  0
 25 26  1  0
 26 27  1  0
 26 28  1  0
 26 29  1  0
 24  3  1  0
 18 11  1  0
M  CHG  2  14  -1  17  -1
M  END
>  <UniqueID>  (26) 
24

>  <SMILES>  (26) 
C=c1[n-]c(=O)[n-]c(=O)/c1=C\c1ccc(O)c(OC)c1

>  <Energy>  (26) 
50.17422832142379

>  <Genealogy>  (26) 
C=c1[n-]c(=O)[n-]c(=O)c1=Cc1ccc(O)c(OC)c1 (protonated)
C=c1[n-]c(=O)[n-]c(=O)/c1=C\c1ccc(O)c(OC)c1 (cis-trans isomerization)
C=c1[n-]c(=O)[n-]c(=O)/c1=C\c1ccc(O)c(OC)c1 (3D coordinates assigned)
C=c1[n-]c(=O)[n-]c(=O)/c1=C\c1ccc(O)c(OC)c1 (optimized conformer: 50.17422832142379 kcal/mol)

>  <smiles>  (26) 
C=c1[nH]c(=O)[nH]c(=O)c1=Cc1ccc(O)c(OC)c1

>  <score_type>  (26) 
oracle

>  <origin>  (26) 
adg

>  <m_score__min__energy>  (26) 
-10.109999999999999

>  <m_primary>  (26) 
energy

$$$$
26:0
     RDKit          3D

 48 51  0  0  0  0  0  0  0  0999 V2000
   60.7420   27.3880   48.0130 C   0  0  0  0  0  0  0  0  0  0  0  0
   59.5880   27.6990   47.1480 N   0  0  0  0  0  0  0  0  0  0  0  0
   58.8530   26.6960   46.5670 C   0  0  0  0  0  0  0  0  0  0  0  0
   59.1730   25.4900   46.7670 O   0  0  0  0  0  0  0  0  0  0  0  0
   57.7760   26.9890   45.7660 N   0  0  0  0  0  0  0  0  0  0  0  0
   56.9820   25.9000   45.1570 C   0  0  0  0  0  0  0  0  0  0  0  0
   55.7840   25.5810   46.0120 C   0  0  0  0  0  0  0  0  0  0  0  0
   54.7860   26.3500   45.9840 O   0  0  0  0  0  0  0  0  0  0  0  0
   55.7660   24.4580   46.9020 N   0  0  0  0  0  0  0  0  0  0  0  0
   56.0900   23.1010   46.5650 C   0  0  0  0  0  0  0  0  0  0  0  0
   57.4070   22.7120   46.2650 C   0  0  0  0  0  0  0  0  0  0  0  0
   57.6880   21.3890   45.9120 C   0  0  0  0  0  0  0  0  0  0  0  0
   56.6570   20.4500   45.8410 C   0  0  0  0  0  0  0  0  0  0  0  0
   55.3400   20.8350   46.1100 C   0  0  0  0  0  0  0  0  0  0  0  0
   55.0550   22.1590   46.4620 C   0  0  0  0  0  0  0  0  0  0  0  0
   53.7740   22.5230   46.7200 F   0  0  0  0  0  0  0  0  0  0  0  0
   57.4550   28.2930   45.4890 C   0  0  0  0  0  0  0  0  0  0  0  0
   56.4830   28.5540   44.7250 O   0  0  0  0  0  0  0  0  0  0  0  0
   58.2090   29.3400   46.0470 C   0  0  0  0  0  0  0  0  0  0  0  0
   57.9490   30.7080   45.8100 C   0  0  0  0  0  0  0  0  0  0  0  0
   56.9980   31.0760   45.0720 O   0  0  0  0  0  0  0  0  0  0  0  0
   58.7370   31.6520   46.3830 N   0  0  0  0  0  0  0  0  0  0  0  0
   59.7790   31.3200   47.1880 C   0  0  0  0  0  0  0  0  0  0  0  0
   60.6060   32.3470   47.7770 N   0  0  0  0  0  0  0  0  0  0  0  0
   62.0690   32.2600   47.6630 C   0  0  0  0  0  0  0  0  0  0  0  0
   62.7050   33.6430   47.8290 C   0  0  0  0  0  0  0  0  0  0  0  0
   62.2260   34.2800   48.9970 O   0  0  0  0  0  0  0  0  0  0  0  0
   60.8480   34.5530   48.8520 C   0  0  0  0  0  0  0  0  0  0  0  0
   60.0370   33.2550   48.7830 C   0  0  0  0  0  0  0  0  0  0  0  0
   60.0380   30.0080   47.4290 N   0  0  0  0  0  0  0  0  0  0  0  0
   59.2880   29.0100   46.8860 C   0  0  0  0  0  0  0  0  0  0  0  0
   60.4417   27.4689   49.0681 H   0  0  0  0  0  0  0  0  0  0  0  0
   61.0886   26.3644   47.8079 H   0  0  0  0  0  0  0  0  0  0  0  0
   61.5561   28.0988   47.8079 H   0  0  0  0  0  0  0  0  0  0  0  0
   56.6417   26.2141   44.1593 H   0  0  0  0  0  0  0  0  0  0  0  0
   57.6118   25.0017   45.0766 H   0  0  0  0  0  0  0  0  0  0  0  0
   58.2199   23.4518   46.3082 H   0  0  0  0  0  0  0  0  0  0  0  0
   58.7223   21.0873   45.6899 H   0  0  0  0  0  0  0  0  0  0  0  0
   56.8810   19.4069   45.5733 H   0  0  0  0  0  0  0  0  0  0  0  0
   54.5273   20.0965   46.0449 H   0  0  0  0  0  0  0  0  0  0  0  0
   62.4534   31.5889   48.4452 H   0  0  0  0  0  0  0  0  0  0  0  0
   62.3248   31.8689   46.6672 H   0  0  0  0  0  0  0  0  0  0  0  0
   63.7969   33.5313   47.9013 H   0  0  0  0  0  0  0  0  0  0  0  0
   62.4396   34.2596   46.9576 H   0  0  0  0  0  0  0  0  0  0  0  0
   60.5059   35.1459   49.7131 H   0  0  0  0  0  0  0  0  0  0  0  0
   60.6972   35.1114   47.9163 H   0  0  0  0  0  0  0  0  0  0  0  0
   60.0559   32.7633   49.7668 H   0  0  0  0  0  0  0  0  0  0  0  0
   59.0017   33.4963   48.5003 H   0  0  0  0  0  0  0  0  0  0  0  0
  1  2  1  0
  2  3  1  0
  3  4  2  0
  3  5  1  0
  5  6  1  0
  6  7  1  0
  7  8  2  0
  7  9  1  0
  9 10  1  0
 10 11  2  0
 11 12  1  0
 12 13  2  0
 13 14  1  0
 14 15  2  0
 15 16  1  0
  5 17  1  0
 17 18  2  0
 17 19  1  0
 19 20  1  0
 20 21  2  0
 20 22  1  0
 22 23  1  0
 23 24  1  0
 24 25  1  0
 25 26  1  0
 26 27  1  0
 27 28  1  0
 28 29  1  0
 23 30  2  0
 30 31  1  0
 31  2  1  0
 15 10  1  0
 31 19  2  0
 29 24  1  0
  1 32  1  0
  1 33  1  0
  1 34  1  0
  6 35  1  0
  6 36  1  0
 11 37  1  0
 12 38  1  0
 13 39  1  0
 14 40  1  0
 25 41  1  0
 25 42  1  0
 26 43  1  0
 26 44  1  0
 28 45  1  0
 28 46  1  0
 29 47  1  0
 29 48  1  0
M  CHG  2   9  -1  22  -1
M  END
>  <UniqueID>  (27) 
25

>  <SMILES>  (27) 
Cn1c(=O)n(CC(=O)[N-]c2ccccc2F)c(=O)c2c(=O)[n-]c(N3CCOCC3)nc21

>  <Energy>  (27) 
72.30584618868535

>  <Genealogy>  (27) 
Cn1c(=O)n(CC(=O)[N-]c2ccccc2F)c(=O)c2c(=O)[n-]c(N3CCOCC3)nc21 (protonated)
Cn1c(=O)n(CC(=O)[N-]c2ccccc2F)c(=O)c2c(=O)[n-]c(N3CCOCC3)nc21 (3D coordinates assigned)
Cn1c(=O)n(CC(=O)[N-]c2ccccc2F)c(=O)c2c(=O)[n-]c(N3CCOCC3)nc21 (nonaromatic ring conformer: 72.30584618868535 kcal/mol)

>  <smiles>  (27) 
Cn1c(=O)n(CC(=O)Nc2ccccc2F)c(=O)c2c(=O)[nH]c(N3CCOCC3)nc21

>  <score_type>  (27) 
oracle

>  <origin>  (27) 
adg

>  <m_score__min__energy>  (27) 
-10.449999999999999

>  <m_primary>  (27) 
energy

$$$$
27:0
     RDKit          3D

 31 32  0  0  0  0  0  0  0  0999 V2000
   60.0547   36.3613   46.4907 H   0  0  0  0  0  0  0  0  0  0  0  0
   59.6420   35.3430   46.4380 C   0  0  0  0  0  0  0  0  0  0  0  0
   59.2400   34.8150   45.2090 C   0  0  0  0  0  0  0  0  0  0  0  0
   59.3396   35.4170   44.2938 H   0  0  0  0  0  0  0  0  0  0  0  0
   58.7110   33.5220   45.1400 C   0  0  0  0  0  0  0  0  0  0  0  0
   58.4027   33.1087   44.1683 H   0  0  0  0  0  0  0  0  0  0  0  0
   58.5710   32.7480   46.3040 C   0  0  0  0  0  0  0  0  0  0  0  0
   58.0480   31.4100   46.2070 N   0  0  0  0  0  0  0  0  0  0  0  0
   57.0230   31.2710   46.3480 H   0  0  0  0  0  0  0  0  0  0  0  0
   58.8650   30.2360   46.2950 C   0  0  0  0  0  0  0  0  0  0  0  0
   59.5920   30.0260   47.4800 C   0  0  0  0  0  0  0  0  0  0  0  0
   59.6091   30.8096   48.2518 H   0  0  0  0  0  0  0  0  0  0  0  0
   60.2730   28.8700   47.6850 N   0  0  0  0  0  0  0  0  0  0  0  0
   60.8040   28.7390   48.5750 H   0  0  0  0  0  0  0  0  0  0  0  0
   60.2570   27.8700   46.7680 C   0  0  0  0  0  0  0  0  0  0  0  0
   60.8042   26.9364   46.9653 H   0  0  0  0  0  0  0  0  0  0  0  0
   59.5500   28.0220   45.5780 C   0  0  0  0  0  0  0  0  0  0  0  0
   59.5352   27.2027   44.8442 H   0  0  0  0  0  0  0  0  0  0  0  0
   58.8570   29.2100   45.3070 C   0  0  0  0  0  0  0  0  0  0  0  0
   58.2870   29.2930   44.1330 N   0  0  0  0  0  0  0  0  0  0  0  0
   56.9120   30.1930   43.5620 S   0  0  0  0  0  0  0  0  0  0  0  0
   56.1880   29.3380   42.5620 O   0  0  0  0  0  0  0  0  0  0  0  0
   55.9650   30.4940   44.6890 O   0  0  0  0  0  0  0  0  0  0  0  0
   57.4210   31.6830   42.7260 C   0  0  0  0  0  0  0  0  0  0  0  0
   57.6829   32.4497   43.4700 H   0  0  0  0  0  0  0  0  0  0  0  0
   58.2970   31.4690   42.0961 H   0  0  0  0  0  0  0  0  0  0  0  0
   56.5972   32.0497   42.0961 H   0  0  0  0  0  0  0  0  0  0  0  0
   58.9910   33.2850   47.5370 C   0  0  0  0  0  0  0  0  0  0  0  0
   58.9024   32.6844   48.4543 H   0  0  0  0  0  0  0  0  0  0  0  0
   59.5200   34.5780   47.6000 C   0  0  0  0  0  0  0  0  0  0  0  0
   59.8407   34.9933   48.5668 H   0  0  0  0  0  0  0  0  0  0  0  0
  1  2  1  0
  2  3  2  0
  3  4  1  0
  3  5  1  0
  5  6  1  0
  5  7  2  0
  7  8  1  0
  8  9  1  0
  8 10  1  0
 10 11  2  0
 11 12  1  0
 11 13  1  0
 13 14  1  0
 13 15  1  0
 15 16  1  0
 15 17  2  0
 17 18  1  0
 17 19  1  0
 19 20  2  0
 20 21  1  0
 21 22  2  0
 21 23  2  0
 21 24  1  0
 24 25  1  0
 24 26  1  0
 24 27  1  0
  7 28  1  0
 28 29  1  0
 28 30  2  0
 30 31  1  0
 30  2  1  0
 19 10  1  0
M  END
>  <UniqueID>  (28) 
26

>  <SMILES>  (28) 
CS(=O)(=O)/N=c1/cc[nH]cc1Nc1ccccc1

>  <Energy>  (28) 
47.72922745751068

>  <Genealogy>  (28) 
CS(=O)(=O)/N=c1/cc[nH]cc1Nc1ccccc1 (cis-trans isomerization)
CS(=O)(=O)/N=c1/cc[nH]cc1Nc1ccccc1 (3D coordinates assigned)
CS(=O)(=O)/N=c1/cc[nH]cc1Nc1ccccc1 (optimized conformer: 47.72922745751068 kcal/mol)

>  <smiles>  (28) 
CS(=O)(=O)N=c1cc[nH]cc1Nc1ccccc1

>  <score_type>  (28) 
oracle

>  <origin>  (28) 
adg

>  <m_score__min__energy>  (28) 
-6.71

>  <m_primary>  (28) 
energy

$$$$
28:0
     RDKit          3D

 49 51  0  0  0  0  0  0  0  0999 V2000
   56.8180   30.0990   43.2290 C   0  0  0  0  0  0  0  0  0  0  0  0
   56.4910   29.9950   44.6800 C   0  0  0  0  0  0  0  0  0  0  0  0
   55.4690   29.3550   45.0420 O   0  0  0  0  0  0  0  0  0  0  0  0
   57.3900   30.5160   45.6190 O   0  0  0  0  0  0  0  0  0  0  0  0
   57.9100   31.8210   45.6170 C   0  0  0  0  0  0  0  0  0  0  0  0
   57.7390   32.6760   44.5140 C   0  0  0  0  0  0  0  0  0  0  0  0
   58.2980   33.9560   44.5130 C   0  0  0  0  0  0  0  0  0  0  0  0
   59.0450   34.3990   45.6090 C   0  0  0  0  0  0  0  0  0  0  0  0
   59.6490   35.7730   45.5920 C   0  0  0  0  0  0  0  0  0  0  0  0
   59.2410   33.5440   46.7020 C   0  0  0  0  0  0  0  0  0  0  0  0
   58.6770   32.2560   46.7200 C   0  0  0  0  0  0  0  0  0  0  0  0
   58.8710   31.3710   47.8970 C   0  0  0  0  0  0  0  0  0  0  0  0
   58.1600   31.5570   48.9250 O   0  0  0  0  0  0  0  0  0  0  0  0
   59.8040   30.2580   47.8610 N   0  0  2  0  0  0  0  0  0  0  0  0
   60.9660   30.5440   48.7330 C   0  0  0  0  0  0  0  0  0  0  0  0
   61.7740   31.7000   48.2100 C   0  0  0  0  0  0  0  0  0  0  0  0
   62.9000   31.6060   47.4160 C   0  0  0  0  0  0  0  0  0  0  0  0
   63.2700   32.9060   47.1460 C   0  0  0  0  0  0  0  0  0  0  0  0
   62.3500   33.7080   47.7910 C   0  0  0  0  0  0  0  0  0  0  0  0
   61.4690   32.9600   48.4140 O   0  0  0  0  0  0  0  0  0  0  0  0
   60.2560   29.9950   46.4730 C   0  0  0  0  0  0  0  0  0  0  0  0
   59.5740   28.7790   45.8830 C   0  0  0  0  0  0  0  0  0  0  0  0
   59.4640   28.6590   44.4860 C   0  0  0  0  0  0  0  0  0  0  0  0
   58.9010   27.5140   43.9160 C   0  0  0  0  0  0  0  0  0  0  0  0
   58.4470   26.4780   44.7330 C   0  0  0  0  0  0  0  0  0  0  0  0
   58.5490   26.5840   46.1220 C   0  0  0  0  0  0  0  0  0  0  0  0
   59.1090   27.7280   46.7020 C   0  0  0  0  0  0  0  0  0  0  0  0
   59.1990   27.8100   48.0870 O   0  0  0  0  0  0  0  0  0  0  0  0
   57.8602   30.4305   43.1109 H   0  0  0  0  0  0  0  0  0  0  0  0
   56.6897   29.1157   42.7528 H   0  0  0  0  0  0  0  0  0  0  0  0
   56.1453   30.8275   42.7528 H   0  0  0  0  0  0  0  0  0  0  0  0
   57.1596   32.3337   43.6438 H   0  0  0  0  0  0  0  0  0  0  0  0
   58.1501   34.6179   43.6470 H   0  0  0  0  0  0  0  0  0  0  0  0
   59.8013   36.1194   46.6249 H   0  0  0  0  0  0  0  0  0  0  0  0
   60.6164   35.7418   45.0693 H   0  0  0  0  0  0  0  0  0  0  0  0
   58.9720   36.4647   45.0693 H   0  0  0  0  0  0  0  0  0  0  0  0
   59.8437   33.8848   47.5567 H   0  0  0  0  0  0  0  0  0  0  0  0
   59.3500   29.3880   48.2290 H   0  0  0  0  0  0  0  0  0  0  0  0
   60.6041   30.7882   49.7427 H   0  0  0  0  0  0  0  0  0  0  0  0
   61.6105   29.6528   48.7539 H   0  0  0  0  0  0  0  0  0  0  0  0
   63.3970   30.6871   47.0716 H   0  0  0  0  0  0  0  0  0  0  0  0
   64.1255   33.2374   46.5392 H   0  0  0  0  0  0  0  0  0  0  0  0
   62.3544   34.8080   47.7840 H   0  0  0  0  0  0  0  0  0  0  0  0
   60.0234   30.8714   45.8503 H   0  0  0  0  0  0  0  0  0  0  0  0
   61.3390   29.8036   46.4955 H   0  0  0  0  0  0  0  0  0  0  0  0
   59.8235   29.4718   43.8378 H   0  0  0  0  0  0  0  0  0  0  0  0
   58.8157   27.4294   42.8226 H   0  0  0  0  0  0  0  0  0  0  0  0
   58.0078   25.5758   44.2822 H   0  0  0  0  0  0  0  0  0  0  0  0
   58.1880   25.7656   46.7622 H   0  0  0  0  0  0  0  0  0  0  0  0
  1  2  1  0
  2  3  2  0
  2  4  1  0
  4  5  1  0
  5  6  2  0
  6  7  1  0
  7  8  2  0
  8  9  1  0
  8 10  1  0
 10 11  2  0
 11 12  1  0
 12 13  2  0
 12 14  1  0
 14 15  1  0
 15 16  1  0
 16 17  2  0
 17 18  1  0
 18 19  2  0
 19 20  1  0
 14 21  1  0
 21 22  1  0
 22 23  2  0
 23 24  1  0
 24 25  2  0
 25 26  1  0
 26 27  2  0
 27 28  1  0
 11  5  1  0
 20 16  1  0
 27 22  1  0
  1 29  1  0
  1 30  1  0
  1 31  1  0
  6 32  1  0
  7 33  1  0
  9 34  1  0
  9 35  1  0
  9 36  1  0
 10 37  1  0
 14 38  1  1
 15 39  1  0
 15 40  1  0
 17 41  1  0
 18 42  1  0
 19 43  1  0
 21 44  1  0
 21 45  1  0
 23 46  1  0
 24 47  1  0
 25 48  1  0
 26 49  1  0
M  CHG  2  14   1  28  -1
M  END
>  <UniqueID>  (29) 
27

>  <SMILES>  (29) 
CC(=O)Oc1ccc(C)cc1C(=O)[N@H+](Cc1ccco1)Cc1ccccc1[O-]

>  <Energy>  (29) 
83.24177467144109

>  <Genealogy>  (29) 
CC(=O)Oc1ccc(C)cc1C(=O)[NH+](Cc1ccco1)Cc1ccccc1[O-] (protonated)
CC(=O)Oc1ccc(C)cc1C(=O)[N@H+](Cc1ccco1)Cc1ccccc1[O-] (chirality)
CC(=O)Oc1ccc(C)cc1C(=O)[N@H+](Cc1ccco1)Cc1ccccc1[O-] (3D coordinates assigned)
CC(=O)Oc1ccc(C)cc1C(=O)[N@H+](Cc1ccco1)Cc1ccccc1[O-] (optimized conformer: 83.24177467144109 kcal/mol)

>  <smiles>  (29) 
CC(=O)Oc1ccc(C)cc1C(=O)N(Cc1ccco1)Cc1ccccc1O

>  <score_type>  (29) 
oracle

>  <origin>  (29) 
adg

>  <m_score__min__energy>  (29) 
-9.8599999999999994

>  <m_primary>  (29) 
energy

$$$$
29:0
     RDKit          3D

 32 33  0  0  0  0  0  0  0  0999 V2000
   56.6713   34.8116   46.0162 H   0  0  0  0  0  0  0  0  0  0  0  0
   57.4480   34.0860   45.7330 C   0  0  0  0  0  0  0  0  0  0  0  0
   57.0910   32.8170   45.5150 C   0  0  0  0  0  0  0  0  0  0  0  0
   56.5271   32.2733   46.2872 H   0  0  0  0  0  0  0  0  0  0  0  0
   57.4530   29.6540   44.5810 C   0  0  0  0  0  0  0  0  0  0  0  0
   58.8220   29.3550   44.7070 C   0  0  0  0  0  0  0  0  0  0  0  0
   59.5735   30.0658   44.3327 H   0  0  0  0  0  0  0  0  0  0  0  0
   59.2330   28.1600   45.3050 C   0  0  0  0  0  0  0  0  0  0  0  0
   60.3053   27.9429   45.4195 H   0  0  0  0  0  0  0  0  0  0  0  0
   58.2830   27.2420   45.7570 C   0  0  0  0  0  0  0  0  0  0  0  0
   58.6074   26.3038   46.2308 H   0  0  0  0  0  0  0  0  0  0  0  0
   56.9210   27.5140   45.6080 C   0  0  0  0  0  0  0  0  0  0  0  0
   56.1748   26.7850   45.9567 H   0  0  0  0  0  0  0  0  0  0  0  0
   56.5030   28.7120   45.0160 C   0  0  0  0  0  0  0  0  0  0  0  0
   55.1420   28.9630   44.8730 O   0  0  0  0  0  0  0  0  0  0  0  0
   57.0070   30.9060   43.9280 C   0  0  0  0  0  0  0  0  0  0  0  0
   56.2677   30.8245   43.1176 H   0  0  0  0  0  0  0  0  0  0  0  0
   57.4410   32.1330   44.2550 C   0  0  0  0  0  0  0  0  0  0  0  0
   58.0947   32.6588   43.5435 H   0  0  0  0  0  0  0  0  0  0  0  0
   58.8440   34.5540   45.6090 C   0  0  0  0  0  0  0  0  0  0  0  0
   59.1650   35.2030   44.5760 O   0  0  0  0  0  0  0  0  0  0  0  0
   59.8790   34.2850   46.6370 C   0  0  0  0  0  0  0  0  0  0  0  0
   61.1440   33.8090   46.2520 C   0  0  0  0  0  0  0  0  0  0  0  0
   61.3633   33.6375   45.1878 H   0  0  0  0  0  0  0  0  0  0  0  0
   62.1260   33.5520   47.2150 C   0  0  0  0  0  0  0  0  0  0  0  0
   63.1164   33.1871   46.9052 H   0  0  0  0  0  0  0  0  0  0  0  0
   61.8510   33.7580   48.5700 C   0  0  0  0  0  0  0  0  0  0  0  0
   63.0850   33.4400   49.7750 Cl  0  0  0  0  0  0  0  0  0  0  0  0
   60.5890   34.2110   48.9640 C   0  0  0  0  0  0  0  0  0  0  0  0
   60.3703   34.3680   50.0306 H   0  0  0  0  0  0  0  0  0  0  0  0
   59.6040   34.4650   48.0050 C   0  0  0  0  0  0  0  0  0  0  0  0
   58.6079   34.8077   48.3219 H   0  0  0  0  0  0  0  0  0  0  0  0
  1  2  1  0
  2  3  2  0
  3  4  1  0
  3  5  1  0
  5  6  2  0
  6  7  1  0
  6  8  1  0
  8  9  1  0
  8 10  2  0
 10 11  1  0
 10 12  1  0
 12 13  1  0
 12 14  2  0
 14 15  1  0
  2 16  1  0
 16 17  1  0
 16 18  2  0
 18 19  1  0
 18 20  1  0
 20 21  2  0
 20 22  1  0
 22 23  2  0
 23 24  1  0
 23 25  1  0
 25 26  1  0
 25 27  2  0
 27 28  1  0
 27 29  1  0
 29 30  1  0
 29 31  2  0
 31 32  1  0
 14  5  1  0
 31 22  1  0
M  CHG  1  15  -1
M  END
>  <UniqueID>  (30) 
28

>  <SMILES>  (30) 
O=C(/C=C/C=Cc1ccccc1[O-])c1ccc(Cl)cc1

>  <Energy>  (30) 
41.42791186418144

>  <Genealogy>  (30) 
O=C(C=CC=Cc1ccccc1[O-])c1ccc(Cl)cc1 (protonated)
O=C(/C=C/C=Cc1ccccc1[O-])c1ccc(Cl)cc1 (cis-trans isomerization)
O=C(/C=C/C=Cc1ccccc1[O-])c1ccc(Cl)cc1 (3D coordinates assigned)
O=C(/C=C/C=Cc1ccccc1[O-])c1ccc(Cl)cc1 (optimized conformer: 41.42791186418144 kcal/mol)

>  <smiles>  (30) 
O=C(C=CC=Cc1ccccc1O)c1ccc(Cl)cc1

>  <score_type>  (30) 
oracle

>  <origin>  (30) 
adg

>  <m_score__min__energy>  (30) 
-12.1

>  <m_primary>  (30) 
energy

$$$$
30:0
     RDKit          3D

 46 48  0  0  0  0  0  0  0  0999 V2000
   57.3970   20.7350   46.2280 C   0  0  0  0  0  0  0  0  0  0  0  0
   57.4020   22.0390   45.5660 N   0  0  0  0  0  0  0  0  0  0  0  0
   57.6700   22.2360   44.2600 C   0  0  0  0  0  0  0  0  0  0  0  0
   57.5930   23.5770   43.9560 C   0  0  0  0  0  0  0  0  0  0  0  0
   57.2620   24.2250   45.1300 C   0  0  0  0  0  0  0  0  0  0  0  0
   57.1080   25.9700   45.2970 S   0  0  0  0  0  0  0  0  0  0  0  0
   55.6980   26.2980   45.7040 O   0  0  0  0  0  0  0  0  0  0  0  0
   57.3920   26.6130   43.9700 O   0  0  0  0  0  0  0  0  0  0  0  0
   58.2500   26.5270   46.5010 N   0  0  0  0  0  0  0  0  0  0  0  0
   59.6600   26.4100   46.0540 C   0  0  0  0  0  0  0  0  0  0  0  0
   60.3780   27.7630   45.9000 C   0  0  0  0  0  0  0  0  0  0  0  0
   59.4430   28.7870   45.2670 C   0  0  0  0  0  0  0  0  0  0  0  0
   58.2110   29.0460   46.1700 C   0  0  1  0  0  0  0  0  0  0  0  0
   56.9900   29.5230   45.3940 C   0  0  0  0  0  0  0  0  0  0  0  0
   55.9920   28.7670   45.2510 O   0  0  0  0  0  0  0  0  0  0  0  0
   56.9090   30.8530   44.8640 N   0  0  0  0  0  0  0  0  0  0  0  0
   57.6030   32.0020   45.3660 C   0  0  0  0  0  0  0  0  0  0  0  0
   57.8260   33.0900   44.5130 C   0  0  0  0  0  0  0  0  0  0  0  0
   58.5210   34.2130   44.9730 C   0  0  0  0  0  0  0  0  0  0  0  0
   59.0140   34.2440   46.2810 C   0  0  0  0  0  0  0  0  0  0  0  0
   58.8240   33.1480   47.1260 C   0  0  0  0  0  0  0  0  0  0  0  0
   58.1280   32.0230   46.6690 C   0  0  0  0  0  0  0  0  0  0  0  0
   57.8790   27.8320   47.0820 C   0  0  0  0  0  0  0  0  0  0  0  0
   57.1520   23.2510   46.1190 C   0  0  0  0  0  0  0  0  0  0  0  0
   56.8250   23.4830   47.5480 C   0  0  0  0  0  0  0  0  0  0  0  0
   56.0720   24.4320   47.8860 O   0  0  0  0  0  0  0  0  0  0  0  0
   57.3490   22.6630   48.5380 O   0  0  0  0  0  0  0  0  0  0  0  0
   57.3975   20.8775   47.3187 H   0  0  0  0  0  0  0  0  0  0  0  0
   56.4967   20.1768   45.9316 H   0  0  0  0  0  0  0  0  0  0  0  0
   58.2930   20.1699   45.9316 H   0  0  0  0  0  0  0  0  0  0  0  0
   57.9149   21.4406   43.5407 H   0  0  0  0  0  0  0  0  0  0  0  0
   57.7617   24.0404   42.9727 H   0  0  0  0  0  0  0  0  0  0  0  0
   60.2092   25.8082   46.7931 H   0  0  0  0  0  0  0  0  0  0  0  0
   59.6425   25.9419   45.0587 H   0  0  0  0  0  0  0  0  0  0  0  0
   60.6925   28.1221   46.8910 H   0  0  0  0  0  0  0  0  0  0  0  0
   61.2568   27.6309   45.2517 H   0  0  0  0  0  0  0  0  0  0  0  0
   59.9883   29.7314   45.1228 H   0  0  0  0  0  0  0  0  0  0  0  0
   59.0934   28.3928   44.3014 H   0  0  0  0  0  0  0  0  0  0  0  0
   58.4987   29.8767   46.8312 H   0  0  0  0  0  0  0  0  0  0  0  0
   57.4535   33.0612   43.4784 H   0  0  0  0  0  0  0  0  0  0  0  0
   58.6799   35.0726   44.3053 H   0  0  0  0  0  0  0  0  0  0  0  0
   59.5518   35.1319   46.6449 H   0  0  0  0  0  0  0  0  0  0  0  0
   59.2217   33.1691   48.1514 H   0  0  0  0  0  0  0  0  0  0  0  0
   57.9919   31.1547   47.3304 H   0  0  0  0  0  0  0  0  0  0  0  0
   58.4202   27.9544   48.0318 H   0  0  0  0  0  0  0  0  0  0  0  0
   56.7872   27.8227   47.2154 H   0  0  0  0  0  0  0  0  0  0  0  0
  1  2  1  0
  2  3  1  0
  3  4  2  0
  4  5  1  0
  5  6  1  0
  6  7  2  0
  6  8  2  0
  6  9  1  0
  9 10  1  0
 10 11  1  0
 11 12  1  0
 12 13  1  0
 13 14  1  0
 14 15  2  0
 14 16  1  0
 16 17  1  0
 17 18  2  0
 18 19  1  0
 19 20  2  0
 20 21  1  0
 21 22  2  0
 13 23  1  0
  5 24  2  0
 24 25  1  0
 25 26  2  0
 25 27  1  0
 24  2  1  0
 23  9  1  0
 22 17  1  0
  1 28  1  0
  1 29  1  0
  1 30  1  0
  3 31  1  0
  4 32  1  0
 10 33  1  0
 10 34  1  0
 11 35  1  0
 11 36  1  0
 12 37  1  0
 12 38  1  0
 13 39  1  1
 18 40  1  0
 19 41  1  0
 20 42  1  0
 21 43  1  0
 22 44  1  0
 23 45  1  0
 23 46  1  0
M  CHG  2  16  -1  27  -1
M  END
>  <UniqueID>  (31) 
29

>  <SMILES>  (31) 
Cn1ccc(S(=O)(=O)N2CCC[C@@H](C(=O)[N-]c3ccccc3)C2)c1C(=O)[O-]

>  <Energy>  (31) 
91.57376402984723

>  <Genealogy>  (31) 
Cn1ccc(S(=O)(=O)N2CCCC(C(=O)[N-]c3ccccc3)C2)c1C(=O)[O-] (protonated)
Cn1ccc(S(=O)(=O)N2CCC[C@@H](C(=O)[N-]c3ccccc3)C2)c1C(=O)[O-] (chirality)
Cn1ccc(S(=O)(=O)N2CCC[C@@H](C(=O)[N-]c3ccccc3)C2)c1C(=O)[O-] (3D coordinates assigned)
Cn1ccc(S(=O)(=O)N2CCC[C@@H](C(=O)[N-]c3ccccc3)C2)c1C(=O)[O-] (nonaromatic ring conformer: 91.57376402984723 kcal/mol)

>  <smiles>  (31) 
Cn1ccc(S(=O)(=O)N2CCCC(C(=O)Nc3ccccc3)C2)c1C(=O)O

>  <score_type>  (31) 
oracle

>  <origin>  (31) 
adg

>  <m_score__min__energy>  (31) 
-12.140000000000001

>  <m_primary>  (31) 
energy

$$$$
31:0
     RDKit          3D

 32 33  0  0  0  0  0  0  0  0999 V2000
   58.9218   30.0150   46.1302 H   0  0  0  0  0  0  0  0  0  0  0  0
   58.0660   30.4960   45.6340 C   0  0  0  0  0  0  0  0  0  0  0  0
   57.7770   31.8450   45.5360 C   0  0  0  0  0  0  0  0  0  0  0  0
   58.5950   32.9840   46.1110 C   0  0  0  0  0  0  0  0  0  0  0  0
   58.6080   34.1610   45.1160 C   0  0  0  0  0  0  0  0  0  0  0  0
   58.6185   35.1105   45.6713 H   0  0  0  0  0  0  0  0  0  0  0  0
   59.5055   34.0964   44.4833 H   0  0  0  0  0  0  0  0  0  0  0  0
   57.7093   34.1162   44.4833 H   0  0  0  0  0  0  0  0  0  0  0  0
   57.9810   33.4570   47.4430 C   0  0  0  0  0  0  0  0  0  0  0  0
   58.5450   33.0225   48.2815 H   0  0  0  0  0  0  0  0  0  0  0  0
   58.0280   34.5546   47.4991 H   0  0  0  0  0  0  0  0  0  0  0  0
   56.9317   33.1316   47.4991 H   0  0  0  0  0  0  0  0  0  0  0  0
   60.0360   32.5020   46.3620 C   0  0  0  0  0  0  0  0  0  0  0  0
   60.2188   32.4409   47.4450 H   0  0  0  0  0  0  0  0  0  0  0  0
   60.1743   31.5087   45.9101 H   0  0  0  0  0  0  0  0  0  0  0  0
   60.7441   33.2122   45.9101 H   0  0  0  0  0  0  0  0  0  0  0  0
   56.6540   31.9860   44.8650 O   0  0  0  0  0  0  0  0  0  0  0  0
   56.1650   30.8340   44.5060 N   0  0  0  0  0  0  0  0  0  0  0  0
   57.0200   29.8990   44.9580 C   0  0  0  0  0  0  0  0  0  0  0  0
   56.8110   28.6250   44.8010 N   0  0  0  0  0  0  0  0  0  0  0  0
   57.7870   27.5780   44.9010 C   0  0  0  0  0  0  0  0  0  0  0  0
   58.4700   27.2900   43.8830 O   0  0  0  0  0  0  0  0  0  0  0  0
   58.1440   26.9520   46.2230 C   0  0  0  0  0  0  0  0  0  0  0  0
   59.1960   26.6318   46.1958 H   0  0  0  0  0  0  0  0  0  0  0  0
   57.9856   27.6983   47.0155 H   0  0  0  0  0  0  0  0  0  0  0  0
   57.2780   25.7620   46.5120 C   0  0  0  0  0  0  0  0  0  0  0  0
   57.7360   24.5840   46.9710 N   0  0  0  0  0  0  0  0  0  0  0  0
   56.6150   23.8420   47.1140 C   0  0  0  0  0  0  0  0  0  0  0  0
   56.6400   22.3030   47.6570 S   0  0  0  0  0  0  0  0  0  0  0  0
   55.4730   24.4810   46.7770 N   0  0  0  0  0  0  0  0  0  0  0  0
   55.9100   25.6930   46.4020 C   0  0  0  0  0  0  0  0  0  0  0  0
   55.0750   26.7160   45.9670 O   0  0  0  0  0  0  0  0  0  0  0  0
  1  2  1  0
  2  3  2  0
  3  4  1  0
  4  5  1  0
  5  6  1  0
  5  7  1  0
  5  8  1  0
  4  9  1  0
  9 10  1  0
  9 11  1  0
  9 12  1  0
  4 13  1  0
 13 14  1  0
 13 15  1  0
 13 16  1  0
  3 17  1  0
 17 18  1  0
 18 19  1  0
 19 20  2  0
 20 21  1  0
 21 22  2  0
 21 23  1  0
 23 24  1  0
 23 25  1  0
 23 26  1  0
 26 27  1  0
 27 28  1  0
 28 29  2  0
 28 30  1  0
 30 31  1  0
 31 32  1  0
 19  2  1  0
 31 26  2  0
M  CHG  4  18  -1  27  -1  30  -1  32  -1
M  END
>  <UniqueID>  (32) 
30

>  <SMILES>  (32) 
CC(C)(C)c1c/c(=N\C(=O)Cc2[n-]c(=S)[n-]c2[O-])[n-]o1

>  <Energy>  (32) 
92.50678814142465

>  <Genealogy>  (32) 
CC(C)(C)c1cc(=NC(=O)Cc2[n-]c(=S)[n-]c2[O-])[n-]o1 (protonated)
CC(C)(C)c1c/c(=N\C(=O)Cc2[n-]c(=S)[n-]c2[O-])[n-]o1 (cis-trans isomerization)
CC(C)(C)c1c/c(=N\C(=O)Cc2[n-]c(=S)[n-]c2[O-])[n-]o1 (3D coordinates assigned)
CC(C)(C)c1c/c(=N\C(=O)Cc2[n-]c(=S)[n-]c2[O-])[n-]o1 (optimized conformer: 92.50678814142465 kcal/mol)

>  <smiles>  (32) 
CC(C)(C)c1cc(=NC(=O)Cc2[nH]c(=S)[nH]c2O)[nH]o1

>  <score_type>  (32) 
oracle

>  <origin>  (32) 
adg

>  <m_score__min__energy>  (32) 
-16.940000000000001

>  <m_primary>  (32) 
energy

$$$$
32:0
     RDKit          3D

 56 59  0  0  0  0  0  0  0  0999 V2000
   56.4990   29.3430   44.7700 C   0  0  0  0  0  0  0  0  0  0  0  0
   57.7500   29.1110   45.1940 C   0  0  0  0  0  0  0  0  0  0  0  0
   58.4080   27.8770   45.2200 C   0  0  0  0  0  0  0  0  0  0  0  0
   57.9100   26.6770   44.8670 C   0  0  0  0  0  0  0  0  0  0  0  0
   57.3830   25.6990   45.8460 C   0  0  0  0  0  0  0  0  0  0  0  0
   56.0330   25.7360   46.2480 C   0  0  0  0  0  0  0  0  0  0  0  0
   55.1510   26.7130   45.7840 O   0  0  0  0  0  0  0  0  0  0  0  0
   55.5690   24.8050   47.1230 N   0  0  0  0  0  0  0  0  0  0  0  0
   56.3770   23.8320   47.6150 C   0  0  0  0  0  0  0  0  0  0  0  0
   55.9200   22.9880   48.4280 O   0  0  0  0  0  0  0  0  0  0  0  0
   57.6760   23.7680   47.2300 N   0  0  0  0  0  0  0  0  0  0  0  0
   58.1930   24.6680   46.3550 C   0  0  0  0  0  0  0  0  0  0  0  0
   59.3970   24.5580   45.9980 O   0  0  0  0  0  0  0  0  0  0  0  0
   59.6860   28.1240   45.7040 C   0  0  0  0  0  0  0  0  0  0  0  0
   59.7560   29.4790   45.9610 C   0  0  0  0  0  0  0  0  0  0  0  0
   61.0000   30.2010   46.3720 C   0  0  0  0  0  0  0  0  0  0  0  0
   58.5830   30.0760   45.6560 N   0  0  0  0  0  0  0  0  0  0  0  0
   58.3140   31.4860   45.7340 C   0  0  0  0  0  0  0  0  0  0  0  0
   57.9930   32.1780   44.5580 C   0  0  0  0  0  0  0  0  0  0  0  0
   57.7350   33.5480   44.5920 C   0  0  0  0  0  0  0  0  0  0  0  0
   57.7900   34.2390   45.8030 C   0  0  0  0  0  0  0  0  0  0  0  0
   58.1120   33.5630   46.9810 C   0  0  0  0  0  0  0  0  0  0  0  0
   58.3970   32.1850   46.9640 C   0  0  0  0  0  0  0  0  0  0  0  0
   58.7170   31.4940   48.2380 C   0  0  0  0  0  0  0  0  0  0  0  0
   58.5180   30.2540   48.3360 O   0  0  0  0  0  0  0  0  0  0  0  0
   59.2020   32.2160   49.3870 N   0  0  0  0  0  0  0  0  0  0  0  0
   58.9770   31.6430   50.7170 C   0  0  0  0  0  0  0  0  0  0  0  0
   60.0050   33.4420   49.2330 C   0  0  0  0  0  0  0  0  0  0  0  0
   61.2860   33.1820   48.4780 C   0  0  0  0  0  0  0  0  0  0  0  0
   62.2900   32.3500   49.0080 C   0  0  0  0  0  0  0  0  0  0  0  0
   63.4910   32.1640   48.3180 C   0  0  0  0  0  0  0  0  0  0  0  0
   63.7150   32.8270   47.1090 C   0  0  0  0  0  0  0  0  0  0  0  0
   62.7370   33.6780   46.5890 C   0  0  0  0  0  0  0  0  0  0  0  0
   61.5300   33.8620   47.2730 C   0  0  0  0  0  0  0  0  0  0  0  0
   56.0890   30.3633   44.7983 H   0  0  0  0  0  0  0  0  0  0  0  0
   55.8829   28.5129   44.3939 H   0  0  0  0  0  0  0  0  0  0  0  0
   57.8938   26.4102   43.8000 H   0  0  0  0  0  0  0  0  0  0  0  0
   54.4070   27.0950   46.3540 H   0  0  0  0  0  0  0  0  0  0  0  0
   60.4865   27.3845   45.8535 H   0  0  0  0  0  0  0  0  0  0  0  0
   61.0585   30.2349   47.4699 H   0  0  0  0  0  0  0  0  0  0  0  0
   61.8790   29.6727   45.9742 H   0  0  0  0  0  0  0  0  0  0  0  0
   60.9773   31.2263   45.9742 H   0  0  0  0  0  0  0  0  0  0  0  0
   57.9443   31.6366   43.6017 H   0  0  0  0  0  0  0  0  0  0  0  0
   57.4880   34.0841   43.6638 H   0  0  0  0  0  0  0  0  0  0  0  0
   57.5792   35.3183   45.8294 H   0  0  0  0  0  0  0  0  0  0  0  0
   58.1433   34.1133   47.9329 H   0  0  0  0  0  0  0  0  0  0  0  0
   59.2647   32.3757   51.4854 H   0  0  0  0  0  0  0  0  0  0  0  0
   57.9127   31.3899   50.8319 H   0  0  0  0  0  0  0  0  0  0  0  0
   59.5847   30.7333   50.8319 H   0  0  0  0  0  0  0  0  0  0  0  0
   59.4130   34.1886   48.6834 H   0  0  0  0  0  0  0  0  0  0  0  0
   60.2679   33.8069   50.2369 H   0  0  0  0  0  0  0  0  0  0  0  0
   62.1284   31.8433   49.9709 H   0  0  0  0  0  0  0  0  0  0  0  0
   64.2614   31.4942   48.7277 H   0  0  0  0  0  0  0  0  0  0  0  0
   64.6607   32.6790   46.5670 H   0  0  0  0  0  0  0  0  0  0  0  0
   62.9159   34.2046   45.6400 H   0  0  0  0  0  0  0  0  0  0  0  0
   60.7683   34.5427   46.8650 H   0  0  0  0  0  0  0  0  0  0  0  0
  1  2  2  0
  2  3  1  0
  3  4  2  3
  4  5  1  0
  5  6  2  0
  6  7  1  0
  6  8  1  0
  8  9  1  0
  9 10  2  0
  9 11  1  0
 11 12  1  0
 12 13  2  0
  3 14  1  0
 14 15  2  0
 15 16  1  0
 15 17  1  0
 17 18  1  0
 18 19  2  0
 19 20  1  0
 20 21  2  0
 21 22  1  0
 22 23  2  0
 23 24  1  0
 24 25  2  0
 24 26  1  0
 26 27  1  0
 26 28  1  0
 28 29  1  0
 29 30  2  0
 30 31  1  0
 31 32  2  0
 32 33  1  0
 33 34  2  0
 17  2  1  0
 23 18  1  0
 34 29  1  0
 12  5  1  0
  1 35  1  0
  1 36  1  0
  4 37  1  0
  7 38  1  0
 14 39  1  0
 16 40  1  0
 16 41  1  0
 16 42  1  0
 19 43  1  0
 20 44  1  0
 21 45  1  0
 22 46  1  0
 27 47  1  0
 27 48  1  0
 27 49  1  0
 28 50  1  0
 28 51  1  0
 30 52  1  0
 31 53  1  0
 32 54  1  0
 33 55  1  0
 34 56  1  0
M  CHG  2   8  -1  11  -1
M  END
>  <UniqueID>  (33) 
31

>  <SMILES>  (33) 
C=c1c(=Cc2c(O)[n-]c(=O)[n-]c2=O)cc(C)n1-c1ccccc1C(=O)N(C)Cc1ccccc1

>  <Energy>  (33) 
108.6728667209217

>  <Genealogy>  (33) 
C=c1c(=Cc2c(O)[n-]c(=O)[n-]c2=O)cc(C)n1-c1ccccc1C(=O)N(C)Cc1ccccc1 (protonated)
C=c1c(=Cc2c(O)[n-]c(=O)[n-]c2=O)cc(C)n1-c1ccccc1C(=O)N(C)Cc1ccccc1 (3D coordinates assigned)
C=c1c(=Cc2c(O)[n-]c(=O)[n-]c2=O)cc(C)n1-c1ccccc1C(=O)N(C)Cc1ccccc1 (optimized conformer: 108.6728667209217 kcal/mol)

>  <smiles>  (33) 
C=c1c(=Cc2c(O)[nH]c(=O)[nH]c2=O)cc(C)n1-c1ccccc1C(=O)N(C)Cc1ccccc1

>  <score_type>  (33) 
oracle

>  <origin>  (33) 
adg

>  <m_score__min__energy>  (33) 
-14.890000000000001

>  <m_primary>  (33) 
energy

$$$$
33:0
     RDKit          3D

 56 59  0  0  1  0  0  0  0  0999 V2000
   51.8520   22.5460   47.4690 C   0  0  0  0  0  0  0  0  0  0  0  0
   52.8130   22.7970   46.0240 S   0  0  0  0  0  0  0  0  0  0  0  0
   51.9340   22.9690   44.8100 O   0  0  0  0  0  0  0  0  0  0  0  0
   53.6760   21.5850   45.7790 O   0  0  0  0  0  0  0  0  0  0  0  0
   53.7980   24.2040   46.1570 N   0  0  0  0  0  0  0  0  0  0  0  0
   55.1270   24.2870   45.7270 C   0  0  0  0  0  0  0  0  0  0  0  0
   55.8430   23.1950   45.2810 C   0  0  0  0  0  0  0  0  0  0  0  0
   57.1510   23.2800   44.8450 C   0  0  0  0  0  0  0  0  0  0  0  0
   57.7840   24.5060   44.8490 C   0  0  0  0  0  0  0  0  0  0  0  0
   57.1080   25.6300   45.2870 C   0  0  0  0  0  0  0  0  0  0  0  0
   57.8270   26.9030   45.2610 C   0  0  0  0  0  0  0  0  0  0  0  0
   59.0660   27.1380   45.8800 C   0  0  0  0  0  0  0  0  0  0  0  0
   59.3840   28.4340   45.5990 C   0  0  0  0  0  0  0  0  0  0  0  0
   60.4470   29.1170   45.9550 N   0  0  0  0  0  0  0  0  0  0  0  0
   60.3340   30.3890   46.5520 C   0  0  0  0  0  0  0  0  0  0  0  0
   59.3230   31.0880   46.1880 O   0  0  0  0  0  0  0  0  0  0  0  0
   61.2150   30.9870   47.5110 C   0  0  0  0  0  0  0  0  0  0  0  0
   61.4150   30.5440   48.8030 C   0  0  0  0  0  0  0  0  0  0  0  0
   62.3160   31.1980   49.6560 C   0  0  0  0  0  0  0  0  0  0  0  0
   63.0370   32.2980   49.2510 C   0  0  0  0  0  0  0  0  0  0  0  0
   63.9700   32.9990   50.0290 N   0  0  0  0  0  0  0  0  0  0  0  0
   63.6830   34.2030   50.7900 C   0  0  0  0  0  0  0  0  0  0  0  0
   64.4510   34.1530   52.0950 C   0  0  0  0  0  0  0  0  0  0  0  0
   65.8640   34.0480   51.9300 N   0  0  0  0  0  0  0  0  0  0  0  0
   66.2990   33.4680   50.7030 C   0  0  0  0  0  0  0  0  0  0  0  0
   65.3360   32.5040   50.1030 C   0  0  0  0  0  0  0  0  0  0  0  0
   62.8200   32.7260   47.9490 C   0  0  0  0  0  0  0  0  0  0  0  0
   61.9420   32.0980   47.1000 C   0  0  0  0  0  0  0  0  0  0  0  0
   58.4190   28.9900   44.8570 N   0  0  0  0  0  0  0  0  0  0  0  0
   57.5030   28.0620   44.6660 N   0  0  0  0  0  0  0  0  0  0  0  0
   55.8050   25.5050   45.7140 C   0  0  0  0  0  0  0  0  0  0  0  0
   55.0950   26.6050   46.1580 O   0  0  0  0  0  0  0  0  0  0  0  0
   52.4780   22.7095   48.3586 H   0  0  0  0  0  0  0  0  0  0  0  0
   51.0106   23.2545   47.4774 H   0  0  0  0  0  0  0  0  0  0  0  0
   51.4646   21.5165   47.4774 H   0  0  0  0  0  0  0  0  0  0  0  0
   53.3640   25.0710   46.5960 H   0  0  0  0  0  0  0  0  0  0  0  0
   55.3497   22.2119   45.2722 H   0  0  0  0  0  0  0  0  0  0  0  0
   57.6817   22.3809   44.4987 H   0  0  0  0  0  0  0  0  0  0  0  0
   58.8252   24.5892   44.5042 H   0  0  0  0  0  0  0  0  0  0  0  0
   59.6582   26.4232   46.4703 H   0  0  0  0  0  0  0  0  0  0  0  0
   60.8607   29.6669   49.1682 H   0  0  0  0  0  0  0  0  0  0  0  0
   62.4505   30.8200   50.6802 H   0  0  0  0  0  0  0  0  0  0  0  0
   63.9923   35.0870   50.2131 H   0  0  0  0  0  0  0  0  0  0  0  0
   62.6040   34.2665   50.9945 H   0  0  0  0  0  0  0  0  0  0  0  0
   64.2355   35.0723   52.6592 H   0  0  0  0  0  0  0  0  0  0  0  0
   64.1229   33.2462   52.6242 H   0  0  0  0  0  0  0  0  0  0  0  0
   66.2720   33.5920   52.7870 H   0  0  0  0  0  0  0  0  0  0  0  0
   66.4690   34.2795   49.9801 H   0  0  0  0  0  0  0  0  0  0  0  0
   67.2121   32.8987   50.9312 H   0  0  0  0  0  0  0  0  0  0  0  0
   65.6737   32.2675   49.0832 H   0  0  0  0  0  0  0  0  0  0  0  0
   65.3190   31.6216   50.7596 H   0  0  0  0  0  0  0  0  0  0  0  0
   63.3732   33.6032   47.5823 H   0  0  0  0  0  0  0  0  0  0  0  0
   61.8119   32.4809   46.0770 H   0  0  0  0  0  0  0  0  0  0  0  0
   58.3600   29.9880   44.4740 H   0  0  0  0  0  0  0  0  0  0  0  0
   56.6280   28.2730   44.1010 H   0  0  0  0  0  0  0  0  0  0  0  0
   54.7810   26.7170   47.1140 H   0  0  0  0  0  0  0  0  0  0  0  0
  1  2  1  0
  2  3  2  0
  2  4  2  0
  2  5  1  0
  5  6  1  0
  6  7  2  0
  7  8  1  0
  8  9  2  0
  9 10  1  0
 10 11  1  0
 11 12  2  0
 12 13  1  0
 13 14  2  0
 14 15  1  0
 15 16  2  0
 15 17  1  0
 17 18  2  0
 18 19  1  0
 19 20  2  0
 20 21  1  0
 21 22  1  0
 22 23  1  0
 23 24  1  0
 24 25  1  0
 25 26  1  0
 20 27  1  0
 27 28  2  0
 13 29  1  0
 29 30  1  0
 10 31  2  0
 31 32  1  0
 31  6  1  0
 30 11  1  0
 28 17  1  0
 26 21  1  0
  1 33  1  0
  1 34  1  0
  1 35  1  0
  5 36  1  0
  7 37  1  0
  8 38  1  0
  9 39  1  0
 12 40  1  0
 18 41  1  0
 19 42  1  0
 22 43  1  0
 22 44  1  0
 23 45  1  0
 23 46  1  0
 24 47  1  0
 25 48  1  0
 25 49  1  0
 26 50  1  0
 26 51  1  0
 27 52  1  0
 28 53  1  0
 29 54  1  0
 30 55  1  0
 32 56  1  0
M  END
>  <smiles>  (34) 
CS(=O)(=O)Nc1cccc(-c2cc(=NC(=O)c3ccc(N4CCNCC4)cc3)[nH][nH]2)c1O

>  <score_type>  (34) 
oracle

>  <origin>  (34) 
adg

>  <m_score__min__energy>  (34) 
-11.869999999999999

>  <m_primary>  (34) 
energy

$$$$
34:0
     RDKit          3D

 55 58  0  0  0  0  0  0  0  0999 V2000
   56.5780   30.4750   44.8790 O   0  0  0  0  0  0  0  0  0  0  0  0
   57.8000   30.6550   45.1360 C   0  0  0  0  0  0  0  0  0  0  0  0
   58.6910   29.5250   45.2230 N   0  0  0  0  0  0  0  0  0  0  0  0
   58.2570   28.1580   45.1250 C   0  0  0  0  0  0  0  0  0  0  0  0
   57.7860   27.5020   46.2750 C   0  0  0  0  0  0  0  0  0  0  0  0
   57.3370   26.1800   46.2020 C   0  0  0  0  0  0  0  0  0  0  0  0
   57.3390   25.5070   44.9780 C   0  0  0  0  0  0  0  0  0  0  0  0
   57.7820   26.1570   43.8230 C   0  0  0  0  0  0  0  0  0  0  0  0
   58.2330   27.4790   43.8920 C   0  0  0  0  0  0  0  0  0  0  0  0
   58.2930   32.0410   45.3320 C   0  0  0  0  0  0  0  0  0  0  0  0
   58.1710   33.0140   44.3310 C   0  0  0  0  0  0  0  0  0  0  0  0
   58.6370   34.3070   44.5540 C   0  0  0  0  0  0  0  0  0  0  0  0
   59.2180   34.6330   45.7800 C   0  0  0  0  0  0  0  0  0  0  0  0
   59.6350   35.8080   45.9650 O   0  0  0  0  0  0  0  0  0  0  0  0
   59.3300   33.6860   46.7680 N   0  0  0  0  0  0  0  0  0  0  0  0
   59.9410   34.0280   48.0650 C   0  0  0  0  0  0  0  0  0  0  0  0
   61.3410   33.4500   48.1850 C   0  0  0  0  0  0  0  0  0  0  0  0
   62.3130   33.8440   47.2440 C   0  0  0  0  0  0  0  0  0  0  0  0
   63.6090   33.3290   47.2950 C   0  0  0  0  0  0  0  0  0  0  0  0
   63.9520   32.3970   48.2690 C   0  0  0  0  0  0  0  0  0  0  0  0
   63.0000   31.9670   49.1930 C   0  0  0  0  0  0  0  0  0  0  0  0
   61.6860   32.4730   49.1600 C   0  0  0  0  0  0  0  0  0  0  0  0
   60.6930   31.9560   50.1780 C   0  0  0  0  0  0  0  0  0  0  0  0
   59.5980   31.2120   49.5160 N   0  0  0  0  0  0  0  0  0  0  0  0
   60.0960   30.1980   48.5580 C   0  0  0  0  0  0  0  0  0  0  0  0
   60.2600   28.8050   49.1980 C   0  0  0  0  0  0  0  0  0  0  0  0
   60.4460   28.9120   50.5920 O   0  0  0  0  0  0  0  0  0  0  0  0
   59.2580   29.3850   51.2020 C   0  0  0  0  0  0  0  0  0  0  0  0
   58.6520   30.6110   50.4790 C   0  0  0  0  0  0  0  0  0  0  0  0
   58.8740   32.4110   46.5560 C   0  0  0  0  0  0  0  0  0  0  0  0
   59.7170   29.6880   45.3090 H   0  0  0  0  0  0  0  0  0  0  0  0
   57.7705   28.0320   47.2388 H   0  0  0  0  0  0  0  0  0  0  0  0
   56.9818   25.6694   47.1093 H   0  0  0  0  0  0  0  0  0  0  0  0
   56.9916   24.4647   44.9232 H   0  0  0  0  0  0  0  0  0  0  0  0
   57.7760   25.6282   42.8584 H   0  0  0  0  0  0  0  0  0  0  0  0
   58.5706   27.9906   42.9786 H   0  0  0  0  0  0  0  0  0  0  0  0
   57.7065   32.7560   43.3678 H   0  0  0  0  0  0  0  0  0  0  0  0
   58.5474   35.0692   43.7660 H   0  0  0  0  0  0  0  0  0  0  0  0
   59.9961   35.1227   48.1576 H   0  0  0  0  0  0  0  0  0  0  0  0
   59.3191   33.6006   48.8653 H   0  0  0  0  0  0  0  0  0  0  0  0
   62.0467   34.5670   46.4589 H   0  0  0  0  0  0  0  0  0  0  0  0
   64.3607   33.6607   46.5636 H   0  0  0  0  0  0  0  0  0  0  0  0
   64.9764   31.9983   48.3105 H   0  0  0  0  0  0  0  0  0  0  0  0
   63.2783   31.2248   49.9557 H   0  0  0  0  0  0  0  0  0  0  0  0
   61.2117   31.2856   50.8790 H   0  0  0  0  0  0  0  0  0  0  0  0
   60.2612   32.8134   50.7152 H   0  0  0  0  0  0  0  0  0  0  0  0
   59.3821   30.1206   47.7247 H   0  0  0  0  0  0  0  0  0  0  0  0
   61.0885   30.5247   48.2143 H   0  0  0  0  0  0  0  0  0  0  0  0
   59.3573   28.2086   48.9995 H   0  0  0  0  0  0  0  0  0  0  0  0
   61.1446   28.3186   48.7610 H   0  0  0  0  0  0  0  0  0  0  0  0
   58.5153   28.5736   51.1980 H   0  0  0  0  0  0  0  0  0  0  0  0
   59.5168   29.7010   52.2234 H   0  0  0  0  0  0  0  0  0  0  0  0
   57.7489   30.2928   49.9375 H   0  0  0  0  0  0  0  0  0  0  0  0
   58.4149   31.3697   51.2394 H   0  0  0  0  0  0  0  0  0  0  0  0
   58.9647   31.6643   47.3586 H   0  0  0  0  0  0  0  0  0  0  0  0
  1  2  2  0
  2  3  1  0
  3  4  1  0
  4  5  2  0
  5  6  1  0
  6  7  2  0
  7  8  1  0
  8  9  2  0
  2 10  1  0
 10 11  1  0
 11 12  2  0
 12 13  1  0
 13 14  2  0
 13 15  1  0
 15 16  1  0
 16 17  1  0
 17 18  2  0
 18 19  1  0
 19 20  2  0
 20 21  1  0
 21 22  2  0
 22 23  1  0
 23 24  1  0
 24 25  1  0
 25 26  1  0
 26 27  1  0
 27 28  1  0
 28 29  1  0
 15 30  1  0
  9  4  1  0
 30 10  2  0
 22 17  1  0
 29 24  1  0
  3 31  1  0
  5 32  1  0
  6 33  1  0
  7 34  1  0
  8 35  1  0
  9 36  1  0
 11 37  1  0
 12 38  1  0
 16 39  1  0
 16 40  1  0
 18 41  1  0
 19 42  1  0
 20 43  1  0
 21 44  1  0
 23 45  1  0
 23 46  1  0
 25 47  1  0
 25 48  1  0
 26 49  1  0
 26 50  1  0
 28 51  1  0
 28 52  1  0
 29 53  1  0
 29 54  1  0
 30 55  1  0
M  END
>  <UniqueID>  (35) 
32

>  <SMILES>  (35) 
O=C(Nc1ccccc1)c1ccc(=O)n(Cc2ccccc2CN2CCOCC2)c1

>  <Energy>  (35) 
81.7315945531784

>  <Genealogy>  (35) 
O=C(Nc1ccccc1)c1ccc(=O)n(Cc2ccccc2CN2CCOCC2)c1 (3D coordinates assigned)
O=C(Nc1ccccc1)c1ccc(=O)n(Cc2ccccc2CN2CCOCC2)c1 (nonaromatic ring conformer: 81.7315945531784 kcal/mol)

>  <smiles>  (35) 
O=C(Nc1ccccc1)c1ccc(=O)n(Cc2ccccc2CN2CCOCC2)c1

>  <score_type>  (35) 
oracle

>  <origin>  (35) 
adg

>  <m_score__min__energy>  (35) 
-9.6199999999999992

>  <m_primary>  (35) 
energy

$$$$
35:0
     RDKit          3D

 51 55  0  0  0  0  0  0  0  0999 V2000
   63.1370   30.0320   52.1700 C   0  0  0  0  0  0  0  0  0  0  0  0
   61.7850   29.5970   52.0610 O   0  0  0  0  0  0  0  0  0  0  0  0
   61.2160   29.0530   50.8980 C   0  0  0  0  0  0  0  0  0  0  0  0
   60.5830   29.8520   49.9250 C   0  0  0  0  0  0  0  0  0  0  0  0
   60.0260   29.2740   48.7670 C   0  0  0  0  0  0  0  0  0  0  0  0
   59.3520   30.1020   47.7370 C   0  0  0  0  0  0  0  0  0  0  0  0
   58.3420   29.5780   46.9140 C   0  0  0  0  0  0  0  0  0  0  0  0
   57.7350   30.3810   45.9360 C   0  0  0  0  0  0  0  0  0  0  0  0
   56.7360   29.7480   45.0470 C   0  0  0  0  0  0  0  0  0  0  0  0
   55.6220   30.3100   44.8630 O   0  0  0  0  0  0  0  0  0  0  0  0
   57.0240   28.4940   44.4170 N   0  0  0  0  0  0  0  0  0  0  0  0
   57.4340   27.3020   45.0980 C   0  0  0  0  0  0  0  0  0  0  0  0
   58.8020   27.0400   45.2170 C   0  0  0  0  0  0  0  0  0  0  0  0
   59.2470   25.8940   45.8730 C   0  0  0  0  0  0  0  0  0  0  0  0
   58.3290   25.0050   46.4340 C   0  0  0  0  0  0  0  0  0  0  0  0
   56.9470   25.2600   46.3610 C   0  0  0  0  0  0  0  0  0  0  0  0
   55.9830   24.3210   46.9940 C   0  0  0  0  0  0  0  0  0  0  0  0
   56.2260   23.6580   48.2020 C   0  0  0  0  0  0  0  0  0  0  0  0
   54.8870   22.7020   48.5630 S   0  0  0  0  0  0  0  0  0  0  0  0
   54.0670   23.1720   47.1810 C   0  0  0  0  0  0  0  0  0  0  0  0
   52.9190   22.7650   46.8620 O   0  0  0  0  0  0  0  0  0  0  0  0
   54.7730   24.0420   46.4320 N   0  0  0  0  0  0  0  0  0  0  0  0
   56.5020   26.4290   45.6990 C   0  0  0  0  0  0  0  0  0  0  0  0
   55.1450   26.7330   45.6530 O   0  0  0  0  0  0  0  0  0  0  0  0
   58.1180   31.7410   45.8240 C   0  0  0  0  0  0  0  0  0  0  0  0
   57.4980   32.6440   44.9330 C   0  0  0  0  0  0  0  0  0  0  0  0
   57.9180   33.9740   44.8640 C   0  0  0  0  0  0  0  0  0  0  0  0
   58.9490   34.4310   45.6880 C   0  0  0  0  0  0  0  0  0  0  0  0
   59.5520   33.5610   46.5980 C   0  0  0  0  0  0  0  0  0  0  0  0
   59.1390   32.2270   46.6780 C   0  0  0  0  0  0  0  0  0  0  0  0
   59.7150   31.4050   47.5930 N   0  0  0  0  0  0  0  0  0  0  0  0
   60.0910   27.8790   48.6080 C   0  0  0  0  0  0  0  0  0  0  0  0
   60.7180   27.0830   49.5690 C   0  0  0  0  0  0  0  0  0  0  0  0
   61.2810   27.6650   50.7110 C   0  0  0  0  0  0  0  0  0  0  0  0
   61.9080   26.8690   51.6680 O   0  0  0  0  0  0  0  0  0  0  0  0
   63.4095   30.1197   53.2321 H   0  0  0  0  0  0  0  0  0  0  0  0
   63.7979   29.3011   51.6810 H   0  0  0  0  0  0  0  0  0  0  0  0
   63.2477   31.0111   51.6810 H   0  0  0  0  0  0  0  0  0  0  0  0
   60.5230   30.9406   50.0714 H   0  0  0  0  0  0  0  0  0  0  0  0
   58.0247   28.5319   47.0366 H   0  0  0  0  0  0  0  0  0  0  0  0
   59.5321   27.7433   44.7899 H   0  0  0  0  0  0  0  0  0  0  0  0
   60.3251   25.6894   45.9489 H   0  0  0  0  0  0  0  0  0  0  0  0
   58.6892   24.0961   46.9381 H   0  0  0  0  0  0  0  0  0  0  0  0
   57.1369   23.7462   48.8123 H   0  0  0  0  0  0  0  0  0  0  0  0
   56.6774   32.2970   44.2879 H   0  0  0  0  0  0  0  0  0  0  0  0
   57.4347   34.6649   44.1575 H   0  0  0  0  0  0  0  0  0  0  0  0
   59.2857   35.4760   45.6199 H   0  0  0  0  0  0  0  0  0  0  0  0
   60.3553   33.9260   47.2549 H   0  0  0  0  0  0  0  0  0  0  0  0
   59.6441   27.4102   47.7189 H   0  0  0  0  0  0  0  0  0  0  0  0
   60.7698   25.9933   49.4279 H   0  0  0  0  0  0  0  0  0  0  0  0
   62.2840   27.2640   52.5220 H   0  0  0  0  0  0  0  0  0  0  0  0
  1  2  1  0
  2  3  1  0
  3  4  2  0
  4  5  1  0
  5  6  1  0
  6  7  2  0
  7  8  1  0
  8  9  1  0
  9 10  2  0
  9 11  1  0
 11 12  1  0
 12 13  2  0
 13 14  1  0
 14 15  2  0
 15 16  1  0
 16 17  1  0
 17 18  2  0
 18 19  1  0
 19 20  1  0
 20 21  2  0
 20 22  1  0
 16 23  2  0
 23 24  1  0
  8 25  2  0
 25 26  1  0
 26 27  2  0
 27 28  1  0
 28 29  2  0
 29 30  1  0
 30 31  2  0
  5 32  2  0
 32 33  1  0
 33 34  2  0
 34 35  1  0
 34  3  1  0
 31  6  1  0
 23 12  1  0
 30 25  1  0
 22 17  1  0
  1 36  1  0
  1 37  1  0
  1 38  1  0
  4 39  1  0
  7 40  1  0
 13 41  1  0
 14 42  1  0
 15 43  1  0
 18 44  1  0
 26 45  1  0
 27 46  1  0
 28 47  1  0
 29 48  1  0
 32 49  1  0
 33 50  1  0
 35 51  1  0
M  CHG  3  11  -1  22  -1  24  -1
M  END
>  <UniqueID>  (36) 
33

>  <SMILES>  (36) 
COc1cc(-c2cc(C(=O)[N-]c3cccc(-c4csc(=O)[n-]4)c3[O-])c3ccccc3n2)ccc1O

>  <Energy>  (36) 
111.91789580037131

>  <Genealogy>  (36) 
COc1cc(-c2cc(C(=O)[N-]c3cccc(-c4csc(=O)[n-]4)c3[O-])c3ccccc3n2)ccc1O (protonated)
COc1cc(-c2cc(C(=O)[N-]c3cccc(-c4csc(=O)[n-]4)c3[O-])c3ccccc3n2)ccc1O (3D coordinates assigned)
COc1cc(-c2cc(C(=O)[N-]c3cccc(-c4csc(=O)[n-]4)c3[O-])c3ccccc3n2)ccc1O (optimized conformer: 111.91789580037131 kcal/mol)

>  <smiles>  (36) 
COc1cc(-c2cc(C(=O)Nc3cccc(-c4csc(=O)[nH]4)c3O)c3ccccc3n2)ccc1O

>  <score_type>  (36) 
oracle

>  <origin>  (36) 
adg

>  <m_score__min__energy>  (36) 
-15.93

>  <m_primary>  (36) 
energy

$$$$
36:0
     RDKit          3D

 51 54  0  0  0  0  0  0  0  0999 V2000
   60.2000   29.4550   49.5320 C   0  0  0  0  0  0  0  0  0  0  0  0
   59.8230   29.0180   48.1400 C   0  0  0  0  0  0  0  0  0  0  0  0
   58.8390   28.0310   47.9720 C   0  0  0  0  0  0  0  0  0  0  0  0
   58.4720   27.6040   46.6940 C   0  0  0  0  0  0  0  0  0  0  0  0
   59.0830   28.1610   45.5580 C   0  0  0  0  0  0  0  0  0  0  0  0
   58.7320   27.7810   44.2520 O   0  0  0  0  0  0  0  0  0  0  0  0
   57.6630   28.3440   43.4910 C   0  0  0  0  0  0  0  0  0  0  0  0
   57.3180   29.7160   43.9870 C   0  0  0  0  0  0  0  0  0  0  0  0
   58.1500   30.8140   43.9760 C   0  0  0  0  0  0  0  0  0  0  0  0
   57.3890   31.8110   44.5510 C   0  0  0  0  0  0  0  0  0  0  0  0
   57.8340   33.1780   44.8660 C   0  0  0  0  0  0  0  0  0  0  0  0
   56.9790   34.1020   44.9480 O   0  0  0  0  0  0  0  0  0  0  0  0
   59.2180   33.4580   45.1090 N   0  0  0  0  0  0  0  0  0  0  0  0
   59.6400   34.6510   45.8390 C   0  0  0  0  0  0  0  0  0  0  0  0
   60.1370   34.2750   47.2190 C   0  0  0  0  0  0  0  0  0  0  0  0
   59.2440   34.3640   48.3010 C   0  0  0  0  0  0  0  0  0  0  0  0
   59.6570   34.0570   49.5970 C   0  0  0  0  0  0  0  0  0  0  0  0
   60.9700   33.6620   49.8410 C   0  0  0  0  0  0  0  0  0  0  0  0
   61.8890   33.5750   48.7860 C   0  0  0  0  0  0  0  0  0  0  0  0
   63.2140   33.1900   49.0420 C   0  0  0  0  0  0  0  0  0  0  0  0
   64.1390   33.1130   47.9990 C   0  0  0  0  0  0  0  0  0  0  0  0
   63.7520   33.4170   46.6950 C   0  0  0  0  0  0  0  0  0  0  0  0
   62.4370   33.7970   46.4210 C   0  0  0  0  0  0  0  0  0  0  0  0
   61.4820   33.8830   47.4580 C   0  0  0  0  0  0  0  0  0  0  0  0
   56.1720   31.3270   44.8650 N   0  0  0  0  0  0  0  0  0  0  0  0
   56.1260   30.0510   44.5130 N   0  0  0  0  0  0  0  0  0  0  0  0
   60.0700   29.1380   45.7210 C   0  0  0  0  0  0  0  0  0  0  0  0
   60.4460   29.5800   47.0000 C   0  0  0  0  0  0  0  0  0  0  0  0
   61.5060   30.6400   47.1300 C   0  0  0  0  0  0  0  0  0  0  0  0
   59.6659   28.8359   50.2679 H   0  0  0  0  0  0  0  0  0  0  0  0
   61.2847   29.3373   49.6721 H   0  0  0  0  0  0  0  0  0  0  0  0
   59.9246   30.5107   49.6721 H   0  0  0  0  0  0  0  0  0  0  0  0
   58.3528   27.5901   48.8547 H   0  0  0  0  0  0  0  0  0  0  0  0
   57.7012   26.8282   46.5762 H   0  0  0  0  0  0  0  0  0  0  0  0
   57.9670   28.4084   42.4358 H   0  0  0  0  0  0  0  0  0  0  0  0
   56.7782   27.6991   43.5972 H   0  0  0  0  0  0  0  0  0  0  0  0
   59.1806   30.8804   43.5972 H   0  0  0  0  0  0  0  0  0  0  0  0
   59.9400   32.7680   44.8070 H   0  0  0  0  0  0  0  0  0  0  0  0
   60.4498   35.1480   45.2847 H   0  0  0  0  0  0  0  0  0  0  0  0
   58.7808   35.3303   45.9412 H   0  0  0  0  0  0  0  0  0  0  0  0
   58.2055   34.6800   48.1229 H   0  0  0  0  0  0  0  0  0  0  0  0
   58.9425   34.1271   50.4304 H   0  0  0  0  0  0  0  0  0  0  0  0
   61.2872   33.4173   50.8655 H   0  0  0  0  0  0  0  0  0  0  0  0
   63.5252   32.9478   50.0689 H   0  0  0  0  0  0  0  0  0  0  0  0
   65.1762   32.8115   48.2070 H   0  0  0  0  0  0  0  0  0  0  0  0
   64.4861   33.3572   45.8780 H   0  0  0  0  0  0  0  0  0  0  0  0
   62.1418   34.0317   45.3877 H   0  0  0  0  0  0  0  0  0  0  0  0
   60.5594   29.5669   44.8341 H   0  0  0  0  0  0  0  0  0  0  0  0
   61.7009   30.8349   48.1949 H   0  0  0  0  0  0  0  0  0  0  0  0
   62.4311   30.2949   46.6451 H   0  0  0  0  0  0  0  0  0  0  0  0
   61.1609   31.5651   46.6451 H   0  0  0  0  0  0  0  0  0  0  0  0
  1  2  1  0
  2  3  2  0
  3  4  1  0
  4  5  2  0
  5  6  1  0
  6  7  1  0
  7  8  1  0
  8  9  2  0
  9 10  1  0
 10 11  1  0
 11 12  2  0
 11 13  1  0
 13 14  1  0
 14 15  1  0
 15 16  2  0
 16 17  1  0
 17 18  2  0
 18 19  1  0
 19 20  2  0
 20 21  1  0
 21 22  2  0
 22 23  1  0
 23 24  2  0
 10 25  2  0
 25 26  1  0
  5 27  1  0
 27 28  2  0
 28 29  1  0
 28  2  1  0
 26  8  1  0
 24 15  1  0
 24 19  1  0
  1 30  1  0
  1 31  1  0
  1 32  1  0
  3 33  1  0
  4 34  1  0
  7 35  1  0
  7 36  1  0
  9 37  1  0
 13 38  1  0
 14 39  1  0
 14 40  1  0
 16 41  1  0
 17 42  1  0
 18 43  1  0
 20 44  1  0
 21 45  1  0
 22 46  1  0
 23 47  1  0
 27 48  1  0
 29 49  1  0
 29 50  1  0
 29 51  1  0
M  CHG  1  26  -1
M  END
>  <UniqueID>  (37) 
34

>  <SMILES>  (37) 
Cc1ccc(OCc2cc(C(=O)NCc3cccc4ccccc34)n[n-]2)cc1C

>  <Energy>  (37) 
84.98541970196298

>  <Genealogy>  (37) 
Cc1ccc(OCc2cc(C(=O)NCc3cccc4ccccc34)n[n-]2)cc1C (protonated)
Cc1ccc(OCc2cc(C(=O)NCc3cccc4ccccc34)n[n-]2)cc1C (3D coordinates assigned)
Cc1ccc(OCc2cc(C(=O)NCc3cccc4ccccc34)n[n-]2)cc1C (optimized conformer: 84.98541970196298 kcal/mol)

>  <smiles>  (37) 
Cc1ccc(OCc2cc(C(=O)NCc3cccc4ccccc34)n[nH]2)cc1C

>  <score_type>  (37) 
oracle

>  <origin>  (37) 
adg

>  <m_score__min__energy>  (37) 
-10.529999999999999

>  <m_primary>  (37) 
energy

$$$$
37:0
     RDKit          3D

 48 50  0  0  0  0  0  0  0  0999 V2000
   59.1680   31.1730   49.2390 O   0  0  0  0  0  0  0  0  0  0  0  0
   59.0080   32.4230   49.2730 C   0  0  0  0  0  0  0  0  0  0  0  0
   58.8830   33.0900   50.5350 N   0  0  0  0  0  0  0  0  0  0  0  0
   60.0060   33.6690   51.2660 C   0  0  0  0  0  0  0  0  0  0  0  0
   60.9960   32.5880   51.7100 C   0  0  0  0  0  0  0  0  0  0  0  0
   62.3720   32.9800   51.4230 N   0  0  0  0  0  0  0  0  0  0  0  0
   62.7520   33.8130   50.3210 C   0  0  0  0  0  0  0  0  0  0  0  0
   63.1560   34.9890   50.5240 O   0  0  0  0  0  0  0  0  0  0  0  0
   62.6990   33.2850   48.9510 C   0  0  0  0  0  0  0  0  0  0  0  0
   63.3920   33.7880   47.8670 C   0  0  0  0  0  0  0  0  0  0  0  0
   63.0210   33.0190   46.7820 C   0  0  0  0  0  0  0  0  0  0  0  0
   62.1200   32.0830   47.2500 C   0  0  0  0  0  0  0  0  0  0  0  0
   61.9270   32.2510   48.5700 N   0  0  0  0  0  0  0  0  0  0  0  0
   58.9250   33.1940   48.0110 C   0  0  0  0  0  0  0  0  0  0  0  0
   59.5650   34.4400   47.8930 C   0  0  0  0  0  0  0  0  0  0  0  0
   59.5040   35.1570   46.6960 C   0  0  0  0  0  0  0  0  0  0  0  0
   58.8100   34.6420   45.6030 C   0  0  0  0  0  0  0  0  0  0  0  0
   58.1710   33.3950   45.6960 C   0  0  0  0  0  0  0  0  0  0  0  0
   57.4340   32.8250   44.5140 C   0  0  0  0  0  0  0  0  0  0  0  0
   57.0340   31.4420   44.7630 N   0  0  0  0  0  0  0  0  0  0  0  0
   57.8980   30.3000   44.6700 C   0  0  0  0  0  0  0  0  0  0  0  0
   59.0210   30.4280   44.1140 O   0  0  0  0  0  0  0  0  0  0  0  0
   57.4850   28.9730   45.1580 C   0  0  0  0  0  0  0  0  0  0  0  0
   58.4690   28.0460   45.5250 C   0  0  0  0  0  0  0  0  0  0  0  0
   58.1070   26.7580   45.9240 C   0  0  0  0  0  0  0  0  0  0  0  0
   56.7550   26.4140   45.9680 C   0  0  0  0  0  0  0  0  0  0  0  0
   56.4080   25.2570   46.3230 O   0  0  0  0  0  0  0  0  0  0  0  0
   55.8080   27.3310   45.6310 N   0  0  0  0  0  0  0  0  0  0  0  0
   56.1280   28.5930   45.2400 C   0  0  0  0  0  0  0  0  0  0  0  0
   55.0960   29.4840   44.9450 O   0  0  0  0  0  0  0  0  0  0  0  0
   58.2280   32.6790   46.9020 C   0  0  0  0  0  0  0  0  0  0  0  0
   60.5266   34.3861   50.6143 H   0  0  0  0  0  0  0  0  0  0  0  0
   59.6150   34.1719   52.1628 H   0  0  0  0  0  0  0  0  0  0  0  0
   60.8879   32.4258   52.7926 H   0  0  0  0  0  0  0  0  0  0  0  0
   60.7746   31.6648   51.1545 H   0  0  0  0  0  0  0  0  0  0  0  0
   64.0977   34.6318   47.8681 H   0  0  0  0  0  0  0  0  0  0  0  0
   63.3744   33.1303   45.7463 H   0  0  0  0  0  0  0  0  0  0  0  0
   61.6321   31.3134   46.6338 H   0  0  0  0  0  0  0  0  0  0  0  0
   61.2960   31.6830   49.1760 H   0  0  0  0  0  0  0  0  0  0  0  0
   60.1178   34.8533   48.7495 H   0  0  0  0  0  0  0  0  0  0  0  0
   60.0060   36.1325   46.6158 H   0  0  0  0  0  0  0  0  0  0  0  0
   58.7625   35.2139   44.6646 H   0  0  0  0  0  0  0  0  0  0  0  0
   56.5355   33.4306   44.3243 H   0  0  0  0  0  0  0  0  0  0  0  0
   58.1034   32.8443   43.6414 H   0  0  0  0  0  0  0  0  0  0  0  0
   59.5304   28.3338   45.4987 H   0  0  0  0  0  0  0  0  0  0  0  0
   58.8777   26.0234   46.2003 H   0  0  0  0  0  0  0  0  0  0  0  0
   55.1520   30.4740   45.1500 H   0  0  0  0  0  0  0  0  0  0  0  0
   57.7226   31.7052   46.9812 H   0  0  0  0  0  0  0  0  0  0  0  0
  1  2  2  0
  2  3  1  0
  3  4  1  0
  4  5  1  0
  5  6  1  0
  6  7  1  0
  7  8  2  0
  7  9  1  0
  9 10  2  0
 10 11  1  0
 11 12  2  0
 12 13  1  0
  2 14  1  0
 14 15  2  0
 15 16  1  0
 16 17  2  0
 17 18  1  0
 18 19  1  0
 19 20  1  0
 20 21  1  0
 21 22  2  0
 21 23  1  0
 23 24  1  0
 24 25  2  0
 25 26  1  0
 26 27  2  0
 26 28  1  0
 28 29  1  0
 29 30  1  0
 18 31  2  0
 13  9  1  0
 31 14  1  0
 29 23  2  0
  4 32  1  0
  4 33  1  0
  5 34  1  0
  5 35  1  0
 10 36  1  0
 11 37  1  0
 12 38  1  0
 13 39  1  0
 15 40  1  0
 16 41  1  0
 17 42  1  0
 19 43  1  0
 19 44  1  0
 24 45  1  0
 25 46  1  0
 30 47  1  0
 31 48  1  0
M  CHG  4   3  -1   6  -1  20  -1  28  -1
M  END
>  <UniqueID>  (38) 
35

>  <SMILES>  (38) 
O=C([N-]CC[N-]C(=O)c1ccc[nH]1)c1cccc(C[N-]C(=O)c2ccc(=O)[n-]c2O)c1

>  <Energy>  (38) 
72.98734803740909

>  <Genealogy>  (38) 
O=C([N-]CC[N-]C(=O)c1ccc[nH]1)c1cccc(C[N-]C(=O)c2ccc(=O)[n-]c2O)c1 (protonated)
O=C([N-]CC[N-]C(=O)c1ccc[nH]1)c1cccc(C[N-]C(=O)c2ccc(=O)[n-]c2O)c1 (3D coordinates assigned)
O=C([N-]CC[N-]C(=O)c1ccc[nH]1)c1cccc(C[N-]C(=O)c2ccc(=O)[n-]c2O)c1 (optimized conformer: 72.98734803740909 kcal/mol)

>  <smiles>  (38) 
O=C(NCCNC(=O)c1ccc[nH]1)c1cccc(CNC(=O)c2ccc(=O)[nH]c2O)c1

>  <score_type>  (38) 
oracle

>  <origin>  (38) 
adg

>  <m_score__min__energy>  (38) 
-13.73

>  <m_primary>  (38) 
energy

$$$$
38:0
     RDKit          3D

 44 45  0  0  0  0  0  0  0  0999 V2000
   59.3050   33.8320   50.8850 C   0  0  0  0  0  0  0  0  0  0  0  0
   60.6320   33.8420   50.1740 C   0  0  0  0  0  0  0  0  0  0  0  0
   61.7960   33.4920   50.8790 C   0  0  0  0  0  0  0  0  0  0  0  0
   63.0380   33.4920   50.2400 C   0  0  0  0  0  0  0  0  0  0  0  0
   63.1300   33.8310   48.8910 C   0  0  0  0  0  0  0  0  0  0  0  0
   61.9810   34.1700   48.1740 C   0  0  0  0  0  0  0  0  0  0  0  0
   60.7230   34.1890   48.8050 C   0  0  0  0  0  0  0  0  0  0  0  0
   59.5390   34.5010   48.0480 N   0  0  0  0  0  0  0  0  0  0  0  0
   59.0680   33.7190   46.9380 C   0  0  0  0  0  0  0  0  0  0  0  0
   58.6020   32.4160   47.1660 C   0  0  0  0  0  0  0  0  0  0  0  0
   58.1260   31.6370   46.1090 C   0  0  0  0  0  0  0  0  0  0  0  0
   58.1000   32.1500   44.8000 C   0  0  0  0  0  0  0  0  0  0  0  0
   57.6020   31.3840   43.6890 N   0  0  0  0  0  0  0  0  0  0  0  0
   56.8410   29.8250   43.8170 S   0  0  0  0  0  0  0  0  0  0  0  0
   55.7360   29.9250   44.8300 O   0  0  0  0  0  0  0  0  0  0  0  0
   56.2300   29.4270   42.5020 O   0  0  0  0  0  0  0  0  0  0  0  0
   58.0330   28.5860   44.3590 C   0  0  0  0  0  0  0  0  0  0  0  0
   59.4140   29.2460   44.5110 C   0  0  0  0  0  0  0  0  0  0  0  0
   57.5850   28.0110   45.7130 C   0  0  0  0  0  0  0  0  0  0  0  0
   58.1180   27.4540   43.3230 C   0  0  0  0  0  0  0  0  0  0  0  0
   58.5250   33.4700   44.5820 C   0  0  0  0  0  0  0  0  0  0  0  0
   59.0040   34.2510   45.6370 C   0  0  0  0  0  0  0  0  0  0  0  0
   59.3650   35.5370   45.3930 F   0  0  0  0  0  0  0  0  0  0  0  0
   59.4716   33.8333   51.9723 H   0  0  0  0  0  0  0  0  0  0  0  0
   58.7302   34.7258   50.6011 H   0  0  0  0  0  0  0  0  0  0  0  0
   58.7437   32.9296   50.6011 H   0  0  0  0  0  0  0  0  0  0  0  0
   61.7286   33.2160   51.9417 H   0  0  0  0  0  0  0  0  0  0  0  0
   63.9448   33.2241   50.8021 H   0  0  0  0  0  0  0  0  0  0  0  0
   64.1096   33.8314   48.3905 H   0  0  0  0  0  0  0  0  0  0  0  0
   62.0596   34.4244   47.1067 H   0  0  0  0  0  0  0  0  0  0  0  0
   58.9400   35.2940   48.3730 H   0  0  0  0  0  0  0  0  0  0  0  0
   58.6115   32.0041   48.1859 H   0  0  0  0  0  0  0  0  0  0  0  0
   57.7688   30.6146   46.3019 H   0  0  0  0  0  0  0  0  0  0  0  0
   57.8460   31.6950   42.7230 H   0  0  0  0  0  0  0  0  0  0  0  0
   59.6507   29.3591   45.5793 H   0  0  0  0  0  0  0  0  0  0  0  0
   60.1767   28.6151   44.0312 H   0  0  0  0  0  0  0  0  0  0  0  0
   59.4022   30.2358   44.0312 H   0  0  0  0  0  0  0  0  0  0  0  0
   58.0394   28.5942   46.5275 H   0  0  0  0  0  0  0  0  0  0  0  0
   56.4891   28.0657   45.7901 H   0  0  0  0  0  0  0  0  0  0  0  0
   57.9060   26.9617   45.7901 H   0  0  0  0  0  0  0  0  0  0  0  0
   58.1906   26.4868   43.8419 H   0  0  0  0  0  0  0  0  0  0  0  0
   57.2165   27.4652   42.6928 H   0  0  0  0  0  0  0  0  0  0  0  0
   59.0077   27.5997   42.6928 H   0  0  0  0  0  0  0  0  0  0  0  0
   58.4804   33.8947   43.5683 H   0  0  0  0  0  0  0  0  0  0  0  0
  1  2  1  0
  2  3  2  0
  3  4  1  0
  4  5  2  0
  5  6  1  0
  6  7  2  0
  7  8  1  0
  8  9  1  0
  9 10  2  0
 10 11  1  0
 11 12  2  0
 12 13  1  0
 13 14  1  0
 14 15  2  0
 14 16  2  0
 14 17  1  0
 17 18  1  0
 17 19  1  0
 17 20  1  0
 12 21  1  0
 21 22  2  0
 22 23  1  0
  7  2  1  0
 22  9  1  0
  1 24  1  0
  1 25  1  0
  1 26  1  0
  3 27  1  0
  4 28  1  0
  5 29  1  0
  6 30  1  0
  8 31  1  0
 10 32  1  0
 11 33  1  0
 13 34  1  0
 18 35  1  0
 18 36  1  0
 18 37  1  0
 19 38  1  0
 19 39  1  0
 19 40  1  0
 20 41  1  0
 20 42  1  0
 20 43  1  0
 21 44  1  0
M  END
>  <UniqueID>  (39) 
36

>  <SMILES>  (39) 
Cc1ccccc1Nc1ccc(NS(=O)(=O)C(C)(C)C)cc1F

>  <Energy>  (39) 
45.40349887020529

>  <Genealogy>  (39) 
Cc1ccccc1Nc1ccc(NS(=O)(=O)C(C)(C)C)cc1F (3D coordinates assigned)
Cc1ccccc1Nc1ccc(NS(=O)(=O)C(C)(C)C)cc1F (optimized conformer: 45.40349887020529 kcal/mol)

>  <smiles>  (39) 
Cc1ccccc1Nc1ccc(NS(=O)(=O)C(C)(C)C)cc1F

>  <score_type>  (39) 
oracle

>  <origin>  (39) 
adg

>  <m_score__min__energy>  (39) 
-8.25

>  <m_primary>  (39) 
energy

$$$$
39:0
     RDKit          3D

 47 49  0  0  0  0  0  0  0  0999 V2000
   63.9110   31.6120   50.2480 C   0  0  0  0  0  0  0  0  0  0  0  0
   64.8080   32.5980   49.5800 C   0  0  0  0  0  0  0  0  0  0  0  0
   66.0360   32.6030   49.8570 O   0  0  0  0  0  0  0  0  0  0  0  0
   64.2480   33.5870   48.7080 N   0  0  0  0  0  0  0  0  0  0  0  0
   62.8710   33.7010   48.3190 C   0  0  0  0  0  0  0  0  0  0  0  0
   61.8710   34.1020   49.2230 C   0  0  0  0  0  0  0  0  0  0  0  0
   60.5450   34.2260   48.7960 C   0  0  0  0  0  0  0  0  0  0  0  0
   60.1980   33.9480   47.4700 C   0  0  0  0  0  0  0  0  0  0  0  0
   58.8340   34.1170   47.0580 N   0  0  0  0  0  0  0  0  0  0  0  0
   58.3460   34.1240   45.7110 C   0  0  0  0  0  0  0  0  0  0  0  0
   58.7860   34.9900   44.9100 O   0  0  0  0  0  0  0  0  0  0  0  0
   57.2890   33.1660   45.2450 C   0  0  0  0  0  0  0  0  0  0  0  0
   57.9390   32.1360   43.8890 S   0  0  0  0  0  0  0  0  0  0  0  0
   57.1050   30.6550   44.4610 C   0  0  0  0  0  0  0  0  0  0  0  0
   55.7660   30.5200   44.4860 N   0  0  0  0  0  0  0  0  0  0  0  0
   55.5110   29.3000   44.9360 N   0  0  0  0  0  0  0  0  0  0  0  0
   56.6980   28.7100   45.1730 C   0  0  0  0  0  0  0  0  0  0  0  0
   56.8360   27.3080   45.6850 C   0  0  0  0  0  0  0  0  0  0  0  0
   55.5240   26.7400   45.9690 N   0  0  0  0  0  0  0  0  0  0  0  0
   55.1560   25.3940   45.6520 C   0  0  0  0  0  0  0  0  0  0  0  0
   53.9800   24.9880   45.8600 O   0  0  0  0  0  0  0  0  0  0  0  0
   56.1500   24.4770   45.0850 C   0  0  0  0  0  0  0  0  0  0  0  0
   56.0730   23.8530   43.8570 C   0  0  0  0  0  0  0  0  0  0  0  0
   57.2210   23.0970   43.7520 C   0  0  0  0  0  0  0  0  0  0  0  0
   57.9250   23.3060   44.9210 C   0  0  0  0  0  0  0  0  0  0  0  0
   57.2610   24.1330   45.6960 O   0  0  0  0  0  0  0  0  0  0  0  0
   57.7230   29.5430   44.9050 N   0  0  0  0  0  0  0  0  0  0  0  0
   59.1560   29.2590   44.9290 C   0  0  0  0  0  0  0  0  0  0  0  0
   61.2050   33.5950   46.5550 C   0  0  0  0  0  0  0  0  0  0  0  0
   62.5300   33.4720   46.9810 C   0  0  0  0  0  0  0  0  0  0  0  0
   64.0031   31.7132   51.3395 H   0  0  0  0  0  0  0  0  0  0  0  0
   62.8697   31.8021   49.9487 H   0  0  0  0  0  0  0  0  0  0  0  0
   64.1984   30.5933   49.9487 H   0  0  0  0  0  0  0  0  0  0  0  0
   62.1326   34.3188   50.2692 H   0  0  0  0  0  0  0  0  0  0  0  0
   59.7695   34.5444   49.5082 H   0  0  0  0  0  0  0  0  0  0  0  0
   56.9883   32.5192   46.0824 H   0  0  0  0  0  0  0  0  0  0  0  0
   56.4195   33.7343   44.8831 H   0  0  0  0  0  0  0  0  0  0  0  0
   57.3408   26.6927   44.9256 H   0  0  0  0  0  0  0  0  0  0  0  0
   57.4270   27.3232   46.6126 H   0  0  0  0  0  0  0  0  0  0  0  0
   55.2644   23.9404   43.1163 H   0  0  0  0  0  0  0  0  0  0  0  0
   57.5163   22.4568   42.9076 H   0  0  0  0  0  0  0  0  0  0  0  0
   58.8951   22.8492   45.1663 H   0  0  0  0  0  0  0  0  0  0  0  0
   59.4989   29.1910   45.9720 H   0  0  0  0  0  0  0  0  0  0  0  0
   59.3494   28.3051   44.4165 H   0  0  0  0  0  0  0  0  0  0  0  0
   59.6986   30.0671   44.4165 H   0  0  0  0  0  0  0  0  0  0  0  0
   60.9491   33.4151   45.5004 H   0  0  0  0  0  0  0  0  0  0  0  0
   63.3115   33.1929   46.2589 H   0  0  0  0  0  0  0  0  0  0  0  0
  1  2  1  0
  2  3  2  0
  2  4  1  0
  4  5  1  0
  5  6  2  0
  6  7  1  0
  7  8  2  0
  8  9  1  0
  9 10  1  0
 10 11  2  0
 10 12  1  0
 12 13  1  0
 13 14  1  0
 14 15  2  0
 15 16  1  0
 16 17  2  0
 17 18  1  0
 18 19  1  0
 19 20  1  0
 20 21  2  0
 20 22  1  0
 22 23  2  0
 23 24  1  0
 24 25  2  0
 25 26  1  0
 17 27  1  0
 27 28  1  0
  8 29  1  0
 29 30  2  0
 30  5  1  0
 27 14  1  0
 26 22  1  0
  1 31  1  0
  1 32  1  0
  1 33  1  0
  6 34  1  0
  7 35  1  0
 12 36  1  0
 12 37  1  0
 18 38  1  0
 18 39  1  0
 23 40  1  0
 24 41  1  0
 25 42  1  0
 28 43  1  0
 28 44  1  0
 28 45  1  0
 29 46  1  0
 30 47  1  0
M  CHG  3   4  -1   9  -1  19  -1
M  END
>  <UniqueID>  (40) 
37

>  <SMILES>  (40) 
CC(=O)[N-]c1ccc([N-]C(=O)CSc2nnc(C[N-]C(=O)c3ccco3)n2C)cc1

>  <Energy>  (40) 
106.70965192063214

>  <Genealogy>  (40) 
CC(=O)[N-]c1ccc([N-]C(=O)CSc2nnc(C[N-]C(=O)c3ccco3)n2C)cc1 (protonated)
CC(=O)[N-]c1ccc([N-]C(=O)CSc2nnc(C[N-]C(=O)c3ccco3)n2C)cc1 (3D coordinates assigned)
CC(=O)[N-]c1ccc([N-]C(=O)CSc2nnc(C[N-]C(=O)c3ccco3)n2C)cc1 (optimized conformer: 106.70965192063214 kcal/mol)

>  <smiles>  (40) 
CC(=O)Nc1ccc(NC(=O)CSc2nnc(CNC(=O)c3ccco3)n2C)cc1

>  <score_type>  (40) 
oracle

>  <origin>  (40) 
adg

>  <m_score__min__energy>  (40) 
-12.6

>  <m_primary>  (40) 
energy

$$$$
40:0
     RDKit          3D

 44 47  0  0  0  0  0  0  0  0999 V2000
   56.5013   31.4919   41.2551 H   0  0  0  0  0  0  0  0  0  0  0  0
   56.8300   31.1180   42.2360 C   0  0  0  0  0  0  0  0  0  0  0  0
   56.2590   29.9580   42.7700 C   0  0  0  0  0  0  0  0  0  0  0  0
   55.4858   29.4161   42.2056 H   0  0  0  0  0  0  0  0  0  0  0  0
   56.6700   29.4870   44.0200 C   0  0  0  0  0  0  0  0  0  0  0  0
   56.2228   28.5721   44.4359 H   0  0  0  0  0  0  0  0  0  0  0  0
   57.6510   30.1780   44.7450 C   0  0  0  0  0  0  0  0  0  0  0  0
   58.0810   29.6890   46.0220 N   0  0  0  0  0  0  0  0  0  0  0  0
   58.3140   28.4130   46.4070 C   0  0  0  0  0  0  0  0  0  0  0  0
   58.1900   27.2040   45.5260 C   0  0  0  0  0  0  0  0  0  0  0  0
   57.6314   27.4765   44.6184 H   0  0  0  0  0  0  0  0  0  0  0  0
   59.2005   26.8547   45.2675 H   0  0  0  0  0  0  0  0  0  0  0  0
   57.4690   26.0960   46.2300 C   0  0  0  0  0  0  0  0  0  0  0  0
   58.0810   25.0470   46.8080 N   0  0  0  0  0  0  0  0  0  0  0  0
   57.0550   24.3340   47.3220 C   0  0  0  0  0  0  0  0  0  0  0  0
   57.2280   23.2550   47.9480 O   0  0  0  0  0  0  0  0  0  0  0  0
   55.8330   24.8670   47.1160 N   0  0  0  0  0  0  0  0  0  0  0  0
   56.1120   25.9840   46.4270 C   0  0  0  0  0  0  0  0  0  0  0  0
   55.1490   26.8850   45.9910 O   0  0  0  0  0  0  0  0  0  0  0  0
   58.6950   28.3520   47.7000 N   0  0  0  0  0  0  0  0  0  0  0  0
   58.7080   29.5990   48.1420 N   0  0  0  0  0  0  0  0  0  0  0  0
   58.9590   29.8850   49.1150 H   0  0  0  0  0  0  0  0  0  0  0  0
   58.3410   30.4040   47.1320 C   0  0  0  0  0  0  0  0  0  0  0  0
   58.1760   32.1870   47.2740 S   0  0  0  0  0  0  0  0  0  0  0  0
   59.8460   32.4310   47.9800 C   0  0  0  0  0  0  0  0  0  0  0  0
   60.2527   33.3818   47.6050 H   0  0  0  0  0  0  0  0  0  0  0  0
   60.4683   31.5776   47.6727 H   0  0  0  0  0  0  0  0  0  0  0  0
   59.8320   32.4710   49.4870 C   0  0  0  0  0  0  0  0  0  0  0  0
   59.9680   33.5860   50.0570 O   0  0  0  0  0  0  0  0  0  0  0  0
   59.5830   31.3130   50.3020 N   0  0  0  0  0  0  0  0  0  0  0  0
   58.4730   30.9570   50.8800 C   0  0  0  0  0  0  0  0  0  0  0  0
   58.1710   29.6680   51.1220 N   0  0  0  0  0  0  0  0  0  0  0  0
   56.9920   29.6570   51.6710 O   0  0  0  0  0  0  0  0  0  0  0  0
   56.5130   30.8750   51.7850 C   0  0  0  0  0  0  0  0  0  0  0  0
   55.1890   31.2110   52.3830 C   0  0  0  0  0  0  0  0  0  0  0  0
   55.2666   31.1913   53.4801 H   0  0  0  0  0  0  0  0  0  0  0  0
   54.8828   32.2153   52.0550 H   0  0  0  0  0  0  0  0  0  0  0  0
   54.4409   30.4742   52.0550 H   0  0  0  0  0  0  0  0  0  0  0  0
   57.4300   31.7740   51.2840 C   0  0  0  0  0  0  0  0  0  0  0  0
   57.3526   32.8694   51.2207 H   0  0  0  0  0  0  0  0  0  0  0  0
   58.2320   31.3320   44.2010 C   0  0  0  0  0  0  0  0  0  0  0  0
   59.0137   31.8686   44.7587 H   0  0  0  0  0  0  0  0  0  0  0  0
   57.8190   31.8020   42.9500 C   0  0  0  0  0  0  0  0  0  0  0  0
   58.2726   32.7106   42.5273 H   0  0  0  0  0  0  0  0  0  0  0  0
  1  2  1  0
  2  3  2  0
  3  4  1  0
  3  5  1  0
  5  6  1  0
  5  7  2  0
  7  8  1  0
  8  9  1  0
  9 10  1  0
 10 11  1  0
 10 12  1  0
 10 13  1  0
 13 14  1  0
 14 15  1  0
 15 16  2  0
 15 17  1  0
 17 18  1  0
 18 19  1  0
  9 20  2  0
 20 21  1  0
 21 22  1  0
 21 23  2  0
 23 24  1  0
 24 25  1  0
 25 26  1  0
 25 27  1  0
 25 28  1  0
 28 29  2  0
 28 30  1  0
 30 31  2  0
 31 32  1  0
 32 33  1  0
 33 34  1  0
 34 35  1  0
 35 36  1  0
 35 37  1  0
 35 38  1  0
 34 39  2  0
 39 40  1  0
  7 41  1  0
 41 42  1  0
 41 43  2  0
 43 44  1  0
 43  2  1  0
 23  8  1  0
 39 31  1  0
 18 13  2  0
M  CHG  5  14  -1  17  -1  19  -1  21   1  32  -1
M  END
>  <UniqueID>  (41) 
38

>  <SMILES>  (41) 
Cc1c/c(=N\C(=O)CSc2[nH+]nc(Cc3[n-]c(=O)[n-]c3[O-])n2-c2ccccc2)[n-]o1

>  <Energy>  (41) 
149.78515279837166

>  <Genealogy>  (41) 
Cc1cc(=NC(=O)CSc2[nH+]nc(Cc3[n-]c(=O)[n-]c3[O-])n2-c2ccccc2)[n-]o1 (protonated)
Cc1c/c(=N\C(=O)CSc2[nH+]nc(Cc3[n-]c(=O)[n-]c3[O-])n2-c2ccccc2)[n-]o1 (cis-trans isomerization)
Cc1c/c(=N\C(=O)CSc2[nH+]nc(Cc3[n-]c(=O)[n-]c3[O-])n2-c2ccccc2)[n-]o1 (3D coordinates assigned)
Cc1c/c(=N\C(=O)CSc2[nH+]nc(Cc3[n-]c(=O)[n-]c3[O-])n2-c2ccccc2)[n-]o1 (optimized conformer: 149.78515279837166 kcal/mol)

>  <smiles>  (41) 
Cc1cc(=NC(=O)CSc2nnc(Cc3[nH]c(=O)[nH]c3O)n2-c2ccccc2)[nH]o1

>  <score_type>  (41) 
oracle

>  <origin>  (41) 
adg

>  <m_score__min__energy>  (41) 
-15.449999999999999

>  <m_primary>  (41) 
energy

$$$$
41:0
     RDKit          3D

 46 48  0  0  0  0  0  0  0  0999 V2000
   56.1500   24.2140   46.8310 C   0  0  0  0  0  0  0  0  0  0  0  0
   56.7090   25.5890   46.3900 C   0  0  2  0  0  0  0  0  0  0  0  0
   57.6230   25.4140   45.1500 C   0  0  0  0  0  0  0  0  0  0  0  0
   57.4540   24.0780   44.4630 C   0  0  0  0  0  0  0  0  0  0  0  0
   56.4050   23.8740   43.5490 C   0  0  0  0  0  0  0  0  0  0  0  0
   56.2390   22.6310   42.9310 C   0  0  0  0  0  0  0  0  0  0  0  0
   57.1170   21.5830   43.2180 C   0  0  0  0  0  0  0  0  0  0  0  0
   58.1640   21.7760   44.1240 C   0  0  0  0  0  0  0  0  0  0  0  0
   58.3340   23.0180   44.7450 C   0  0  0  0  0  0  0  0  0  0  0  0
   57.5070   26.1900   47.4690 N   0  0  0  0  0  0  0  0  0  0  0  0
   58.8340   26.7400   47.4230 C   0  0  0  0  0  0  0  0  0  0  0  0
   59.8140   25.9510   47.4230 O   0  0  0  0  0  0  0  0  0  0  0  0
   59.0980   28.1880   47.4100 C   0  0  0  0  0  0  0  0  0  0  0  0
   60.2220   28.6950   48.0770 C   0  0  0  0  0  0  0  0  0  0  0  0
   60.4750   30.0680   48.0800 C   0  0  0  0  0  0  0  0  0  0  0  0
   59.6230   30.9400   47.3970 C   0  0  0  0  0  0  0  0  0  0  0  0
   58.5250   30.4440   46.6860 C   0  0  0  0  0  0  0  0  0  0  0  0
   57.6890   31.3510   46.0200 O   0  0  0  0  0  0  0  0  0  0  0  0
   57.5400   31.4500   44.6290 C   0  0  0  0  0  0  0  0  0  0  0  0
   56.8280   30.4580   43.9490 C   0  0  0  0  0  0  0  0  0  0  0  0
   56.6570   30.5410   42.5660 C   0  0  0  0  0  0  0  0  0  0  0  0
   57.1910   31.6320   41.8750 C   0  0  0  0  0  0  0  0  0  0  0  0
   57.8620   32.6020   42.5510 N   0  0  0  0  0  0  0  0  0  0  0  0
   58.0440   32.5400   43.8980 C   0  0  0  0  0  0  0  0  0  0  0  0
   58.2630   29.0610   46.6990 C   0  0  0  0  0  0  0  0  0  0  0  0
   55.5950   26.5330   46.0000 C   0  0  0  0  0  0  0  0  0  0  0  0
   54.3950   26.1460   45.9660 O   0  0  0  0  0  0  0  0  0  0  0  0
   55.8980   27.8270   45.5910 O   0  0  0  0  0  0  0  0  0  0  0  0
   56.1289   24.1620   47.9296 H   0  0  0  0  0  0  0  0  0  0  0  0
   55.1300   24.0898   46.4384 H   0  0  0  0  0  0  0  0  0  0  0  0
   56.7940   23.4133   46.4384 H   0  0  0  0  0  0  0  0  0  0  0  0
   57.3871   26.2096   44.4280 H   0  0  0  0  0  0  0  0  0  0  0  0
   58.6633   25.4680   45.5033 H   0  0  0  0  0  0  0  0  0  0  0  0
   55.7116   24.6965   43.3192 H   0  0  0  0  0  0  0  0  0  0  0  0
   55.4158   22.4780   42.2177 H   0  0  0  0  0  0  0  0  0  0  0  0
   56.9845   20.6056   42.7309 H   0  0  0  0  0  0  0  0  0  0  0  0
   58.8550   20.9502   44.3489 H   0  0  0  0  0  0  0  0  0  0  0  0
   59.1595   23.1660   45.4568 H   0  0  0  0  0  0  0  0  0  0  0  0
   60.9060   28.0097   48.5990 H   0  0  0  0  0  0  0  0  0  0  0  0
   61.3469   30.4642   48.6212 H   0  0  0  0  0  0  0  0  0  0  0  0
   59.8168   32.0226   47.4185 H   0  0  0  0  0  0  0  0  0  0  0  0
   56.4014   29.6100   44.5048 H   0  0  0  0  0  0  0  0  0  0  0  0
   56.1077   29.7559   42.0258 H   0  0  0  0  0  0  0  0  0  0  0  0
   57.0684   31.7059   40.7844 H   0  0  0  0  0  0  0  0  0  0  0  0
   58.5866   33.3444   44.4161 H   0  0  0  0  0  0  0  0  0  0  0  0
   57.3981   28.6631   46.1481 H   0  0  0  0  0  0  0  0  0  0  0  0
  1  2  1  0
  2  3  1  0
  3  4  1  0
  4  5  2  0
  5  6  1  0
  6  7  2  0
  7  8  1  0
  8  9  2  0
  2 10  1  1
 10 11  1  0
 11 12  2  0
 11 13  1  0
 13 14  2  0
 14 15  1  0
 15 16  2  0
 16 17  1  0
 17 18  1  0
 18 19  1  0
 19 20  2  0
 20 21  1  0
 21 22  2  0
 22 23  1  0
 23 24  2  0
 17 25  2  0
  2 26  1  0
 26 27  2  0
 26 28  1  0
  9  4  1  0
 25 13  1  0
 24 19  1  0
  1 29  1  0
  1 30  1  0
  1 31  1  0
  3 32  1  0
  3 33  1  0
  5 34  1  0
  6 35  1  0
  7 36  1  0
  8 37  1  0
  9 38  1  0
 14 39  1  0
 15 40  1  0
 16 41  1  0
 20 42  1  0
 21 43  1  0
 22 44  1  0
 24 45  1  0
 25 46  1  0
M  CHG  2  10  -1  28  -1
M  END
>  <UniqueID>  (42) 
39

>  <SMILES>  (42) 
C[C@](Cc1ccccc1)([N-]C(=O)c1cccc(Oc2cccnc2)c1)C(=O)[O-]

>  <Energy>  (42) 
61.97004464519064

>  <Genealogy>  (42) 
CC(Cc1ccccc1)([N-]C(=O)c1cccc(Oc2cccnc2)c1)C(=O)[O-] (protonated)
C[C@](Cc1ccccc1)([N-]C(=O)c1cccc(Oc2cccnc2)c1)C(=O)[O-] (chirality)
C[C@](Cc1ccccc1)([N-]C(=O)c1cccc(Oc2cccnc2)c1)C(=O)[O-] (3D coordinates assigned)
C[C@](Cc1ccccc1)([N-]C(=O)c1cccc(Oc2cccnc2)c1)C(=O)[O-] (optimized conformer: 61.97004464519064 kcal/mol)

>  <smiles>  (42) 
CC(Cc1ccccc1)(NC(=O)c1cccc(Oc2cccnc2)c1)C(=O)O

>  <score_type>  (42) 
oracle

>  <origin>  (42) 
adg

>  <m_score__min__energy>  (42) 
-13.4

>  <m_primary>  (42) 
energy

$$$$
42:0
     RDKit          3D

 53 56  0  0  0  0  0  0  0  0999 V2000
   59.5840   28.3740   46.5750 C   0  0  0  0  0  0  0  0  0  0  0  0
   58.6940   28.7820   45.6530 C   0  0  0  0  0  0  0  0  0  0  0  0
   57.9930   27.9770   44.7400 C   0  0  0  0  0  0  0  0  0  0  0  0
   57.8360   26.6400   44.6830 C   0  0  0  0  0  0  0  0  0  0  0  0
   57.2900   25.7910   45.7560 C   0  0  0  0  0  0  0  0  0  0  0  0
   57.9530   24.7430   46.2740 N   0  0  0  0  0  0  0  0  0  0  0  0
   57.0690   24.2080   47.1440 C   0  0  0  0  0  0  0  0  0  0  0  0
   57.3350   23.1980   47.8450 O   0  0  0  0  0  0  0  0  0  0  0  0
   55.8750   24.8330   47.1930 N   0  0  0  0  0  0  0  0  0  0  0  0
   56.0180   25.8230   46.2960 C   0  0  0  0  0  0  0  0  0  0  0  0
   54.9900   26.7010   45.9600 O   0  0  0  0  0  0  0  0  0  0  0  0
   57.3900   28.8440   43.8430 C   0  0  0  0  0  0  0  0  0  0  0  0
   57.6630   30.1230   44.2790 C   0  0  0  0  0  0  0  0  0  0  0  0
   57.1440   31.3690   43.6280 C   0  0  0  0  0  0  0  0  0  0  0  0
   58.4540   30.0880   45.3770 N   0  0  0  0  0  0  0  0  0  0  0  0
   58.8790   31.2280   46.1490 C   0  0  0  0  0  0  0  0  0  0  0  0
   57.9390   32.1160   46.6910 C   0  0  0  0  0  0  0  0  0  0  0  0
   58.3630   33.2020   47.4620 C   0  0  0  0  0  0  0  0  0  0  0  0
   59.7280   33.4140   47.6860 C   0  0  0  0  0  0  0  0  0  0  0  0
   60.6800   32.5420   47.1330 C   0  0  0  0  0  0  0  0  0  0  0  0
   62.1240   32.7580   47.3680 C   0  0  0  0  0  0  0  0  0  0  0  0
   62.8600   33.0960   46.3980 O   0  0  0  0  0  0  0  0  0  0  0  0
   62.7030   32.6030   48.6780 N   0  0  0  0  0  0  0  0  0  0  0  0
   63.7940   33.4890   49.0920 C   0  0  0  0  0  0  0  0  0  0  0  0
   64.0810   33.3240   50.5870 C   0  0  0  0  0  0  0  0  0  0  0  0
   64.3640   31.9100   50.9160 N   0  0  0  0  0  0  0  0  0  0  0  0
   64.5000   31.7470   52.3740 C   0  0  0  0  0  0  0  0  0  0  0  0
   63.3950   30.9310   50.3490 C   0  0  0  0  0  0  0  0  0  0  0  0
   62.2140   31.5760   49.6040 C   0  0  0  0  0  0  0  0  0  0  0  0
   60.2450   31.4400   46.3830 C   0  0  0  0  0  0  0  0  0  0  0  0
   60.0681   29.1088   47.2351 H   0  0  0  0  0  0  0  0  0  0  0  0
   59.8279   27.3055   46.6690 H   0  0  0  0  0  0  0  0  0  0  0  0
   58.1425   26.1382   43.7534 H   0  0  0  0  0  0  0  0  0  0  0  0
   55.1450   27.4920   45.3470 H   0  0  0  0  0  0  0  0  0  0  0  0
   56.8056   28.5653   42.9537 H   0  0  0  0  0  0  0  0  0  0  0  0
   56.8438   32.0898   44.4028 H   0  0  0  0  0  0  0  0  0  0  0  0
   57.9327   31.8113   43.0017 H   0  0  0  0  0  0  0  0  0  0  0  0
   56.2745   31.1206   43.0017 H   0  0  0  0  0  0  0  0  0  0  0  0
   56.8658   31.9577   46.5091 H   0  0  0  0  0  0  0  0  0  0  0  0
   57.6223   33.8913   47.8935 H   0  0  0  0  0  0  0  0  0  0  0  0
   60.0567   34.2671   48.2977 H   0  0  0  0  0  0  0  0  0  0  0  0
   64.6998   33.2396   48.5198 H   0  0  0  0  0  0  0  0  0  0  0  0
   63.4986   34.5309   48.8994 H   0  0  0  0  0  0  0  0  0  0  0  0
   64.9529   33.9382   50.8565 H   0  0  0  0  0  0  0  0  0  0  0  0
   63.1948   33.6466   51.1532 H   0  0  0  0  0  0  0  0  0  0  0  0
   63.8764   32.4944   52.8863 H   0  0  0  0  0  0  0  0  0  0  0  0
   64.1730   30.7370   52.6621 H   0  0  0  0  0  0  0  0  0  0  0  0
   65.5522   31.8878   52.6621 H   0  0  0  0  0  0  0  0  0  0  0  0
   63.9337   30.2801   49.6447 H   0  0  0  0  0  0  0  0  0  0  0  0
   62.9696   30.3772   51.1989 H   0  0  0  0  0  0  0  0  0  0  0  0
   61.6748   30.8024   49.0376 H   0  0  0  0  0  0  0  0  0  0  0  0
   61.5384   32.0431   50.3357 H   0  0  0  0  0  0  0  0  0  0  0  0
   60.9832   30.7345   45.9740 H   0  0  0  0  0  0  0  0  0  0  0  0
  1  2  2  0
  2  3  1  0
  3  4  2  3
  4  5  1  0
  5  6  1  0
  6  7  1  0
  7  8  2  0
  7  9  1  0
  9 10  1  0
 10 11  1  0
  3 12  1  0
 12 13  2  0
 13 14  1  0
 13 15  1  0
 15 16  1  0
 16 17  2  0
 17 18  1  0
 18 19  2  0
 19 20  1  0
 20 21  1  0
 21 22  2  0
 21 23  1  0
 23 24  1  0
 24 25  1  0
 25 26  1  0
 26 27  1  0
 26 28  1  0
 28 29  1  0
 20 30  2  0
 15  2  1  0
 30 16  1  0
 10  5  2  0
 29 23  1  0
  1 31  1  0
  1 32  1  0
  4 33  1  0
 11 34  1  0
 12 35  1  0
 14 36  1  0
 14 37  1  0
 14 38  1  0
 17 39  1  0
 18 40  1  0
 19 41  1  0
 24 42  1  0
 24 43  1  0
 25 44  1  0
 25 45  1  0
 27 46  1  0
 27 47  1  0
 27 48  1  0
 28 49  1  0
 28 50  1  0
 29 51  1  0
 29 52  1  0
 30 53  1  0
M  CHG  2   6  -1   9  -1
M  END
>  <UniqueID>  (43) 
40

>  <SMILES>  (43) 
C=c1c(=Cc2[n-]c(=O)[n-]c2O)cc(C)n1-c1cccc(C(=O)N2CCN(C)CC2)c1

>  <Energy>  (43) 
140.57870126641276

>  <Genealogy>  (43) 
C=c1c(=Cc2[n-]c(=O)[n-]c2O)cc(C)n1-c1cccc(C(=O)N2CCN(C)CC2)c1 (protonated)
C=c1c(=Cc2[n-]c(=O)[n-]c2O)cc(C)n1-c1cccc(C(=O)N2CCN(C)CC2)c1 (3D coordinates assigned)
C=c1c(=Cc2[n-]c(=O)[n-]c2O)cc(C)n1-c1cccc(C(=O)N2CCN(C)CC2)c1 (nonaromatic ring conformer: 140.57870126641276 kcal/mol)

>  <smiles>  (43) 
C=c1c(=Cc2[nH]c(=O)[nH]c2O)cc(C)n1-c1cccc(C(=O)N2CCN(C)CC2)c1

>  <score_type>  (43) 
oracle

>  <origin>  (43) 
adg

>  <m_score__min__energy>  (43) 
-14.76

>  <m_primary>  (43) 
energy

$$$$
43:0
     RDKit          3D

 48 50  0  0  0  0  0  0  0  0999 V2000
   61.7310   33.8500   46.4240 C   0  0  0  0  0  0  0  0  0  0  0  0
   61.0250   32.7880   47.1550 N   0  0  0  0  0  0  0  0  0  0  0  0
   60.4350   33.3450   48.3850 C   0  0  0  0  0  0  0  0  0  0  0  0
   61.9540   31.6800   47.4640 C   0  0  0  0  0  0  0  0  0  0  0  0
   61.2790   30.3020   47.3270 C   0  0  0  0  0  0  0  0  0  0  0  0
   59.8540   30.3640   46.9460 N   0  0  0  0  0  0  0  0  0  0  0  0
   59.4190   29.2830   46.0480 C   0  0  0  0  0  0  0  0  0  0  0  0
   57.9420   29.3680   45.7470 C   0  0  0  0  0  0  0  0  0  0  0  0
   57.0500   28.3110   45.6420 C   0  0  0  0  0  0  0  0  0  0  0  0
   57.3120   26.8930   45.9590 C   0  0  0  0  0  0  0  0  0  0  0  0
   58.6350   26.4360   46.0830 C   0  0  0  0  0  0  0  0  0  0  0  0
   58.8940   25.0920   46.3650 C   0  0  0  0  0  0  0  0  0  0  0  0
   57.8390   24.1930   46.5220 C   0  0  0  0  0  0  0  0  0  0  0  0
   56.5200   24.6370   46.4040 C   0  0  0  0  0  0  0  0  0  0  0  0
   56.2510   25.9830   46.1270 C   0  0  0  0  0  0  0  0  0  0  0  0
   54.9310   26.4000   45.9970 O   0  0  0  0  0  0  0  0  0  0  0  0
   55.9090   28.7690   45.0950 N   0  0  0  0  0  0  0  0  0  0  0  0
   56.0460   30.0410   44.8680 O   0  0  0  0  0  0  0  0  0  0  0  0
   57.2350   30.4550   45.2420 C   0  0  0  0  0  0  0  0  0  0  0  0
   57.6920   31.8490   45.0940 C   0  0  0  0  0  0  0  0  0  0  0  0
   58.2920   32.2940   43.9040 C   0  0  0  0  0  0  0  0  0  0  0  0
   58.7120   33.6210   43.7790 C   0  0  0  0  0  0  0  0  0  0  0  0
   58.5590   34.5070   44.8470 C   0  0  0  0  0  0  0  0  0  0  0  0
   57.9920   34.0660   46.0460 C   0  0  0  0  0  0  0  0  0  0  0  0
   57.5650   32.7410   46.1720 C   0  0  0  0  0  0  0  0  0  0  0  0
   62.1926   34.5444   47.1414 H   0  0  0  0  0  0  0  0  0  0  0  0
   62.5123   33.4029   45.7918 H   0  0  0  0  0  0  0  0  0  0  0  0
   61.0164   34.3974   45.7918 H   0  0  0  0  0  0  0  0  0  0  0  0
   60.9177   32.8893   49.2621 H   0  0  0  0  0  0  0  0  0  0  0  0
   60.5900   34.4338   48.4055 H   0  0  0  0  0  0  0  0  0  0  0  0
   59.3569   33.1277   48.4055 H   0  0  0  0  0  0  0  0  0  0  0  0
   62.8063   31.7279   46.7703 H   0  0  0  0  0  0  0  0  0  0  0  0
   62.2818   31.7942   48.5078 H   0  0  0  0  0  0  0  0  0  0  0  0
   61.8175   29.7285   46.5582 H   0  0  0  0  0  0  0  0  0  0  0  0
   61.3219   29.8278   48.3186 H   0  0  0  0  0  0  0  0  0  0  0  0
   59.6640   31.2820   46.4840 H   0  0  0  0  0  0  0  0  0  0  0  0
   59.9799   29.3558   45.1046 H   0  0  0  0  0  0  0  0  0  0  0  0
   59.6125   28.3227   46.5483 H   0  0  0  0  0  0  0  0  0  0  0  0
   59.4710   27.1397   45.9575 H   0  0  0  0  0  0  0  0  0  0  0  0
   59.9322   24.7422   46.4634 H   0  0  0  0  0  0  0  0  0  0  0  0
   58.0458   23.1346   46.7387 H   0  0  0  0  0  0  0  0  0  0  0  0
   55.6895   23.9267   46.5291 H   0  0  0  0  0  0  0  0  0  0  0  0
   55.0540   28.2170   44.8770 H   0  0  0  0  0  0  0  0  0  0  0  0
   58.4318   31.5945   43.0667 H   0  0  0  0  0  0  0  0  0  0  0  0
   59.1637   33.9679   42.8379 H   0  0  0  0  0  0  0  0  0  0  0  0
   58.8848   35.5527   44.7448 H   0  0  0  0  0  0  0  0  0  0  0  0
   57.8818   34.7619   46.8908 H   0  0  0  0  0  0  0  0  0  0  0  0
   57.1273   32.3949   47.1200 H   0  0  0  0  0  0  0  0  0  0  0  0
  1  2  1  0
  2  3  1  0
  2  4  1  0
  4  5  1  0
  5  6  1  0
  6  7  1  0
  7  8  1  0
  8  9  1  0
  9 10  1  0
 10 11  2  0
 11 12  1  0
 12 13  2  0
 13 14  1  0
 14 15  2  0
 15 16  1  0
  9 17  2  0
 17 18  1  0
 18 19  1  0
 19 20  1  0
 20 21  2  0
 21 22  1  0
 22 23  2  0
 23 24  1  0
 24 25  2  0
 19  8  2  0
 25 20  1  0
 15 10  1  0
  1 26  1  0
  1 27  1  0
  1 28  1  0
  3 29  1  0
  3 30  1  0
  3 31  1  0
  4 32  1  0
  4 33  1  0
  5 34  1  0
  5 35  1  0
  6 36  1  0
  7 37  1  0
  7 38  1  0
 11 39  1  0
 12 40  1  0
 13 41  1  0
 14 42  1  0
 17 43  1  0
 21 44  1  0
 22 45  1  0
 23 46  1  0
 24 47  1  0
 25 48  1  0
M  CHG  2  16  -1  17   1
M  END
>  <UniqueID>  (44) 
41

>  <SMILES>  (44) 
CN(C)CCNCc1c(-c2ccccc2[O-])[nH+]oc1-c1ccccc1

>  <Energy>  (44) 
89.9963684285193

>  <Genealogy>  (44) 
CN(C)CCNCc1c(-c2ccccc2[O-])[nH+]oc1-c1ccccc1 (protonated)
CN(C)CCNCc1c(-c2ccccc2[O-])[nH+]oc1-c1ccccc1 (3D coordinates assigned)
CN(C)CCNCc1c(-c2ccccc2[O-])[nH+]oc1-c1ccccc1 (optimized conformer: 89.9963684285193 kcal/mol)

>  <smiles>  (44) 
CN(C)CCNCc1c(-c2ccccc2O)noc1-c1ccccc1

>  <score_type>  (44) 
oracle

>  <origin>  (44) 
adg

>  <m_score__min__energy>  (44) 
-10.58

>  <m_primary>  (44) 
energy

$$$$
44:0
     RDKit          3D

 59 62  0  0  0  0  0  0  0  0999 V2000
   57.5850   31.6790   51.3190 C   0  0  0  0  0  0  0  0  0  0  0  0
   58.1290   31.5360   50.0110 O   0  0  0  0  0  0  0  0  0  0  0  0
   58.5480   32.6020   49.1990 C   0  0  0  0  0  0  0  0  0  0  0  0
   58.1400   32.7110   47.8530 C   0  0  0  0  0  0  0  0  0  0  0  0
   58.6140   33.7530   47.0380 C   0  0  0  0  0  0  0  0  0  0  0  0
   58.1670   33.8760   45.6290 C   0  0  0  0  0  0  0  0  0  0  0  0
   58.4420   34.9190   44.9710 O   0  0  0  0  0  0  0  0  0  0  0  0
   57.3640   32.8470   45.0380 N   0  0  0  0  0  0  0  0  0  0  0  0
   57.6530   31.4410   45.0200 C   0  0  0  0  0  0  0  0  0  0  0  0
   58.8490   30.9170   45.5480 C   0  0  0  0  0  0  0  0  0  0  0  0
   59.0860   29.5400   45.5220 C   0  0  0  0  0  0  0  0  0  0  0  0
   58.1230   28.6680   44.9960 C   0  0  0  0  0  0  0  0  0  0  0  0
   58.4190   26.9320   44.9610 S   0  0  0  0  0  0  0  0  0  0  0  0
   58.1370   26.3800   43.5910 O   0  0  0  0  0  0  0  0  0  0  0  0
   59.8590   26.6790   45.3050 O   0  0  0  0  0  0  0  0  0  0  0  0
   57.4120   26.1190   46.1170 N   0  0  0  0  0  0  0  0  0  0  0  0
   56.1770   25.7750   45.9030 C   0  0  0  0  0  0  0  0  0  0  0  0
   55.7150   24.5180   45.5580 C   0  0  0  0  0  0  0  0  0  0  0  0
   54.3530   24.7120   45.4590 C   0  0  0  0  0  0  0  0  0  0  0  0
   53.3360   23.6710   45.1320 C   0  0  0  0  0  0  0  0  0  0  0  0
   54.0720   25.9680   45.7310 O   0  0  0  0  0  0  0  0  0  0  0  0
   55.1540   26.6430   46.0010 N   0  0  0  0  0  0  0  0  0  0  0  0
   56.9230   29.1860   44.4920 C   0  0  0  0  0  0  0  0  0  0  0  0
   56.6890   30.5640   44.5120 C   0  0  0  0  0  0  0  0  0  0  0  0
   59.5220   34.6800   47.5770 C   0  0  0  0  0  0  0  0  0  0  0  0
   59.9250   34.5810   48.9080 C   0  0  0  0  0  0  0  0  0  0  0  0
   59.4220   33.5700   49.7330 C   0  0  0  0  0  0  0  0  0  0  0  0
   59.8340   33.5510   51.0730 O   0  0  0  0  0  0  0  0  0  0  0  0
   61.1930   33.4170   51.5000 C   0  0  0  0  0  0  0  0  0  0  0  0
   61.6470   31.9870   51.3760 C   0  0  0  0  0  0  0  0  0  0  0  0
   61.3560   31.1680   52.2870 O   0  0  0  0  0  0  0  0  0  0  0  0
   62.4740   31.5450   50.2910 N   0  0  0  0  0  0  0  0  0  0  0  0
   62.6480   32.2090   49.0320 C   0  0  0  0  0  0  0  0  0  0  0  0
   61.7560   31.9270   47.9880 C   0  0  0  0  0  0  0  0  0  0  0  0
   61.8750   32.5890   46.7620 C   0  0  0  0  0  0  0  0  0  0  0  0
   62.8760   33.5480   46.5770 C   0  0  0  0  0  0  0  0  0  0  0  0
   63.7560   33.8520   47.6210 C   0  0  0  0  0  0  0  0  0  0  0  0
   63.6390   33.1920   48.8490 C   0  0  0  0  0  0  0  0  0  0  0  0
   58.3663   31.4736   52.0655 H   0  0  0  0  0  0  0  0  0  0  0  0
   57.2125   32.7056   51.4510 H   0  0  0  0  0  0  0  0  0  0  0  0
   56.7559   30.9683   51.4510 H   0  0  0  0  0  0  0  0  0  0  0  0
   57.4416   31.9705   47.4359 H   0  0  0  0  0  0  0  0  0  0  0  0
   59.5992   31.5941   45.9824 H   0  0  0  0  0  0  0  0  0  0  0  0
   60.0316   29.1391   45.9157 H   0  0  0  0  0  0  0  0  0  0  0  0
   56.2904   23.5937   45.4015 H   0  0  0  0  0  0  0  0  0  0  0  0
   52.9271   23.2525   46.0635 H   0  0  0  0  0  0  0  0  0  0  0  0
   52.5230   24.1241   44.5457 H   0  0  0  0  0  0  0  0  0  0  0  0
   53.8079   22.8688   44.5457 H   0  0  0  0  0  0  0  0  0  0  0  0
   56.1627   28.5065   44.0794 H   0  0  0  0  0  0  0  0  0  0  0  0
   55.7392   30.9618   44.1252 H   0  0  0  0  0  0  0  0  0  0  0  0
   59.9173   35.4888   46.9449 H   0  0  0  0  0  0  0  0  0  0  0  0
   60.6463   35.3058   49.3135 H   0  0  0  0  0  0  0  0  0  0  0  0
   61.8336   34.0556   50.8740 H   0  0  0  0  0  0  0  0  0  0  0  0
   61.2661   33.7229   52.5541 H   0  0  0  0  0  0  0  0  0  0  0  0
   60.9596   31.1823   48.1337 H   0  0  0  0  0  0  0  0  0  0  0  0
   61.1802   32.3551   45.9419 H   0  0  0  0  0  0  0  0  0  0  0  0
   62.9714   34.0635   45.6100 H   0  0  0  0  0  0  0  0  0  0  0  0
   64.5400   34.6100   47.4764 H   0  0  0  0  0  0  0  0  0  0  0  0
   64.3230   33.4418   49.6735 H   0  0  0  0  0  0  0  0  0  0  0  0
  1  2  1  0
  2  3  1  0
  3  4  2  0
  4  5  1  0
  5  6  1  0
  6  7  2  0
  6  8  1  0
  8  9  1  0
  9 10  2  0
 10 11  1  0
 11 12  2  0
 12 13  1  0
 13 14  2  0
 13 15  2  0
 13 16  1  0
 16 17  2  3
 17 18  1  0
 18 19  2  0
 19 20  1  0
 19 21  1  0
 21 22  1  0
 12 23  1  0
 23 24  2  0
  5 25  2  0
 25 26  1  0
 26 27  2  0
 27 28  1  0
 28 29  1  0
 29 30  1  0
 30 31  2  0
 30 32  1  0
 32 33  1  0
 33 34  2  0
 34 35  1  0
 35 36  2  0
 36 37  1  0
 37 38  2  0
 27  3  1  0
 38 33  1  0
 24  9  1  0
 22 17  1  0
  1 39  1  0
  1 40  1  0
  1 41  1  0
  4 42  1  0
 10 43  1  0
 11 44  1  0
 18 45  1  0
 20 46  1  0
 20 47  1  0
 20 48  1  0
 23 49  1  0
 24 50  1  0
 25 51  1  0
 26 52  1  0
 29 53  1  0
 29 54  1  0
 34 55  1  0
 35 56  1  0
 36 57  1  0
 37 58  1  0
 38 59  1  0
M  CHG  3   8  -1  22  -1  32  -1
M  END
>  <UniqueID>  (45) 
42

>  <SMILES>  (45) 
COc1cc(C(=O)[N-]c2ccc(S(=O)(=O)N=c3cc(C)o[n-]3)cc2)ccc1OCC(=O)[N-]c1ccccc1

>  <Energy>  (45) 
111.07639360264811

>  <Genealogy>  (45) 
COc1cc(C(=O)[N-]c2ccc(S(=O)(=O)N=c3cc(C)o[n-]3)cc2)ccc1OCC(=O)[N-]c1ccccc1 (protonated)
COc1cc(C(=O)[N-]c2ccc(S(=O)(=O)N=c3cc(C)o[n-]3)cc2)ccc1OCC(=O)[N-]c1ccccc1 (3D coordinates assigned)
COc1cc(C(=O)[N-]c2ccc(S(=O)(=O)N=c3cc(C)o[n-]3)cc2)ccc1OCC(=O)[N-]c1ccccc1 (optimized conformer: 111.07639360264811 kcal/mol)

>  <smiles>  (45) 
COc1cc(C(=O)Nc2ccc(S(=O)(=O)N=c3cc(C)o[nH]3)cc2)ccc1OCC(=O)Nc1ccccc1

>  <score_type>  (45) 
oracle

>  <origin>  (45) 
adg

>  <m_score__min__energy>  (45) 
-13.109999999999999

>  <m_primary>  (45) 
energy

$$$$
45:0
     RDKit          3D

 84 86  0  0  0  0  0  0  0  0999 V2000
   63.2790   33.8820   46.4310 C   0  0  0  0  0  0  0  0  0  0  0  0
   63.9200   33.1260   47.3250 C   0  0  0  0  0  0  0  0  0  0  0  0
   63.5900   33.1830   48.7890 C   0  0  0  0  0  0  0  0  0  0  0  0
   62.3840   32.4050   49.0640 N   0  0  0  0  0  0  0  0  0  0  0  0
   61.6910   32.4700   50.3180 C   0  0  0  0  0  0  0  0  0  0  0  0
   62.1560   33.1530   51.2720 O   0  0  0  0  0  0  0  0  0  0  0  0
   60.4320   31.6760   50.5300 C   0  0  0  0  0  0  0  0  0  0  0  0
   59.6830   31.4340   49.2440 C   0  0  0  0  0  0  0  0  0  0  0  0
   58.4430   32.2600   48.9600 C   0  0  0  0  0  0  0  0  0  0  0  0
   58.6710   33.2160   47.8120 C   0  0  0  0  0  0  0  0  0  0  0  0
   59.8320   34.0100   47.7570 C   0  0  0  0  0  0  0  0  0  0  0  0
   60.0400   34.8810   46.6820 C   0  0  0  0  0  0  0  0  0  0  0  0
   59.1020   34.9550   45.6490 C   0  0  0  0  0  0  0  0  0  0  0  0
   57.9460   34.1720   45.6950 C   0  0  0  0  0  0  0  0  0  0  0  0
   57.7290   33.3070   46.7730 C   0  0  0  0  0  0  0  0  0  0  0  0
   60.1030   30.4970   48.4370 N   0  0  0  0  0  0  0  0  0  0  0  0
   60.5490   30.6450   47.0850 C   0  0  0  0  0  0  0  0  0  0  0  0
   61.3450   31.5710   46.7710 O   0  0  0  0  0  0  0  0  0  0  0  0
   59.9600   29.7850   46.0050 C   0  0  2  0  0  0  0  0  0  0  0  0
   58.6270   30.3660   45.4950 C   0  0  0  0  0  0  0  0  0  0  0  0
   58.7030   30.8290   44.0310 C   0  0  0  0  0  0  0  0  0  0  0  0
   57.5670   31.7950   43.6790 C   0  0  0  0  0  0  0  0  0  0  0  0
   56.2870   31.0870   43.6710 N   0  0  0  0  0  0  0  0  0  0  0  0
   56.1110   29.8010   43.8040 C   0  0  0  0  0  0  0  0  0  0  0  0
   56.8290   28.9150   42.9450 N   0  0  0  0  0  0  0  0  0  0  0  0
   55.2200   29.2520   44.7850 N   0  0  0  0  0  0  0  0  0  0  0  0
   59.7700   28.4240   46.5040 N   0  0  0  0  0  0  0  0  0  0  0  0
   58.5380   27.8620   46.9710 C   0  0  0  0  0  0  0  0  0  0  0  0
   58.3010   27.8790   48.2090 O   0  0  0  0  0  0  0  0  0  0  0  0
   57.5850   27.1490   46.0390 C   0  0  1  0  0  0  0  0  0  0  0  0
   58.3340   26.5800   44.8170 C   0  0  0  0  0  0  0  0  0  0  0  0
   58.0070   25.1290   44.5550 C   0  0  0  0  0  0  0  0  0  0  0  0
   58.5870   24.1190   45.3410 C   0  0  0  0  0  0  0  0  0  0  0  0
   58.2710   22.7760   45.1130 C   0  0  0  0  0  0  0  0  0  0  0  0
   57.3660   22.4330   44.1060 C   0  0  0  0  0  0  0  0  0  0  0  0
   56.7750   23.4300   43.3260 C   0  0  0  0  0  0  0  0  0  0  0  0
   57.0920   24.7730   43.5480 C   0  0  0  0  0  0  0  0  0  0  0  0
   56.8880   26.0710   46.7370 N   0  0  0  0  0  0  0  0  0  0  0  0
   55.6370   25.5280   46.3050 C   0  0  0  0  0  0  0  0  0  0  0  0
   54.7490   26.2790   45.8230 O   0  0  0  0  0  0  0  0  0  0  0  0
   55.3810   24.0620   46.4360 C   0  0  0  0  0  0  0  0  0  0  0  0
   54.0460   23.7120   45.8540 C   0  0  0  0  0  0  0  0  0  0  0  0
   53.7120   23.7450   44.5200 C   0  0  0  0  0  0  0  0  0  0  0  0
   52.4380   23.3340   44.3810 N   0  0  0  0  0  0  0  0  0  0  0  0
   52.0380   23.0660   45.6430 C   0  0  0  0  0  0  0  0  0  0  0  0
   52.9930   23.2770   46.5750 N   0  0  0  0  0  0  0  0  0  0  0  0
   63.5438   33.8174   45.3653 H   0  0  0  0  0  0  0  0  0  0  0  0
   62.4859   34.5696   46.7599 H   0  0  0  0  0  0  0  0  0  0  0  0
   64.7107   32.4433   46.9804 H   0  0  0  0  0  0  0  0  0  0  0  0
   64.4293   32.7692   49.3672 H   0  0  0  0  0  0  0  0  0  0  0  0
   63.4158   34.2301   49.0777 H   0  0  0  0  0  0  0  0  0  0  0  0
   62.0160   31.7760   48.3140 H   0  0  0  0  0  0  0  0  0  0  0  0
   60.6971   30.7046   50.9728 H   0  0  0  0  0  0  0  0  0  0  0  0
   59.7769   32.2566   51.1961 H   0  0  0  0  0  0  0  0  0  0  0  0
   57.6133   31.5845   48.7044 H   0  0  0  0  0  0  0  0  0  0  0  0
   58.2039   32.8475   49.8587 H   0  0  0  0  0  0  0  0  0  0  0  0
   60.5786   33.9454   48.5623 H   0  0  0  0  0  0  0  0  0  0  0  0
   60.9430   35.5083   46.6500 H   0  0  0  0  0  0  0  0  0  0  0  0
   59.2741   35.6308   44.7983 H   0  0  0  0  0  0  0  0  0  0  0  0
   57.2062   34.2356   44.8835 H   0  0  0  0  0  0  0  0  0  0  0  0
   56.8159   32.6946   46.8075 H   0  0  0  0  0  0  0  0  0  0  0  0
   60.6602   29.7628   45.1569 H   0  0  0  0  0  0  0  0  0  0  0  0
   57.8504   29.5915   45.5793 H   0  0  0  0  0  0  0  0  0  0  0  0
   58.3915   31.2469   46.1102 H   0  0  0  0  0  0  0  0  0  0  0  0
   59.6652   31.3365   43.8678 H   0  0  0  0  0  0  0  0  0  0  0  0
   58.6090   29.9422   43.3870 H   0  0  0  0  0  0  0  0  0  0  0  0
   57.5314   32.6018   44.4258 H   0  0  0  0  0  0  0  0  0  0  0  0
   57.7506   32.2165   42.6797 H   0  0  0  0  0  0  0  0  0  0  0  0
   57.5000   29.2920   42.2370 H   0  0  0  0  0  0  0  0  0  0  0  0
   56.7340   27.8800   43.0580 H   0  0  0  0  0  0  0  0  0  0  0  0
   54.6180   29.8470   45.3980 H   0  0  0  0  0  0  0  0  0  0  0  0
   55.1300   28.2170   44.8830 H   0  0  0  0  0  0  0  0  0  0  0  0
   56.8451   27.8842   45.6896 H   0  0  0  0  0  0  0  0  0  0  0  0
   58.0576   27.1685   43.9298 H   0  0  0  0  0  0  0  0  0  0  0  0
   59.4115   26.6441   45.0290 H   0  0  0  0  0  0  0  0  0  0  0  0
   59.2938   24.3863   46.1404 H   0  0  0  0  0  0  0  0  0  0  0  0
   58.7351   21.9898   45.7266 H   0  0  0  0  0  0  0  0  0  0  0  0
   57.1182   21.3764   43.9268 H   0  0  0  0  0  0  0  0  0  0  0  0
   56.0594   23.1577   42.5362 H   0  0  0  0  0  0  0  0  0  0  0  0
   56.6237   25.5551   42.9323 H   0  0  0  0  0  0  0  0  0  0  0  0
   56.1663   23.5076   45.9013 H   0  0  0  0  0  0  0  0  0  0  0  0
   55.3877   23.7921   47.5024 H   0  0  0  0  0  0  0  0  0  0  0  0
   54.3772   24.0563   43.7011 H   0  0  0  0  0  0  0  0  0  0  0  0
   51.0272   22.7087   45.8893 H   0  0  0  0  0  0  0  0  0  0  0  0
  1  2  2  0
  2  3  1  0
  3  4  1  0
  4  5  1  0
  5  6  2  0
  5  7  1  0
  7  8  1  0
  8  9  1  0
  9 10  1  0
 10 11  2  0
 11 12  1  0
 12 13  2  0
 13 14  1  0
 14 15  2  0
  8 16  2  3
 16 17  1  0
 17 18  2  0
 17 19  1  0
 19 20  1  0
 20 21  1  0
 21 22  1  0
 22 23  1  0
 23 24  2  3
 24 25  1  0
 24 26  1  0
 19 27  1  0
 27 28  1  0
 28 29  2  0
 28 30  1  0
 30 31  1  0
 31 32  1  0
 32 33  2  0
 33 34  1  0
 34 35  2  0
 35 36  1  0
 36 37  2  0
 30 38  1  0
 38 39  1  0
 39 40  2  0
 39 41  1  0
 41 42  1  0
 42 43  2  0
 43 44  1  0
 44 45  1  0
 45 46  2  0
 15 10  1  0
 37 32  1  0
 46 42  1  0
  1 47  1  0
  1 48  1  0
  2 49  1  0
  3 50  1  0
  3 51  1  0
  4 52  1  0
  7 53  1  0
  7 54  1  0
  9 55  1  0
  9 56  1  0
 11 57  1  0
 12 58  1  0
 13 59  1  0
 14 60  1  0
 15 61  1  0
 19 62  1  6
 20 63  1  0
 20 64  1  0
 21 65  1  0
 21 66  1  0
 22 67  1  0
 22 68  1  0
 25 69  1  0
 25 70  1  0
 26 71  1  0
 26 72  1  0
 30 73  1  6
 31 74  1  0
 31 75  1  0
 33 76  1  0
 34 77  1  0
 35 78  1  0
 36 79  1  0
 37 80  1  0
 41 81  1  0
 41 82  1  0
 43 83  1  0
 45 84  1  0
M  CHG  3  27  -1  38  -1  44  -1
M  END
>  <UniqueID>  (46) 
43

>  <SMILES>  (46) 
C=CCNC(=O)CC(Cc1ccccc1)=NC(=O)[C@H](CCCN=C(N)N)[N-]C(=O)[C@@H](Cc1ccccc1)[N-]C(=O)Cc1c[n-]cn1

>  <Energy>  (46) 
89.67351879040615

>  <Genealogy>  (46) 
C=CCNC(=O)CC(Cc1ccccc1)=NC(=O)C(CCCN=C(N)N)[N-]C(=O)C(Cc1ccccc1)[N-]C(=O)Cc1c[n-]cn1 (protonated)
C=CCNC(=O)CC(Cc1ccccc1)=NC(=O)[C@H](CCCN=C(N)N)[N-]C(=O)[C@@H](Cc1ccccc1)[N-]C(=O)Cc1c[n-]cn1 (chirality)
C=CCNC(=O)CC(Cc1ccccc1)=NC(=O)[C@H](CCCN=C(N)N)[N-]C(=O)[C@@H](Cc1ccccc1)[N-]C(=O)Cc1c[n-]cn1 (3D coordinates assigned)
C=CCNC(=O)CC(Cc1ccccc1)=NC(=O)[C@H](CCCN=C(N)N)[N-]C(=O)[C@@H](Cc1ccccc1)[N-]C(=O)Cc1c[n-]cn1 (optimized conformer: 89.67351879040615 kcal/mol)

>  <smiles>  (46) 
C=CCNC(=O)CC(Cc1ccccc1)=NC(=O)C(CCCN=C(N)N)NC(=O)C(Cc1ccccc1)NC(=O)Cc1c[nH]cn1

>  <score_type>  (46) 
oracle

>  <origin>  (46) 
adg

>  <m_score__min__energy>  (46) 
-14.73

>  <m_primary>  (46) 
energy

$$$$
46:0
     RDKit          3D

 33 34  0  0  0  0  0  0  0  0999 V2000
   58.0610   22.1550   44.7940 C   0  0  0  0  0  0  0  0  0  0  0  0
   57.8190   22.9460   45.9530 O   0  0  0  0  0  0  0  0  0  0  0  0
   57.6550   24.3400   45.9390 C   0  0  0  0  0  0  0  0  0  0  0  0
   58.7440   25.2280   45.8680 C   0  0  0  0  0  0  0  0  0  0  0  0
   58.5270   26.6080   45.8570 C   0  0  0  0  0  0  0  0  0  0  0  0
   57.2240   27.1270   45.9260 C   0  0  0  0  0  0  0  0  0  0  0  0
   57.0130   28.6210   45.8810 C   0  0  0  0  0  0  0  0  0  0  0  0
   56.0000   29.0100   44.8030 C   0  0  0  0  0  0  0  0  0  0  0  0
   55.9410   30.4630   44.6680 N   0  0  0  0  0  0  0  0  0  0  0  0
   56.9600   31.2760   44.0710 C   0  0  0  0  0  0  0  0  0  0  0  0
   57.2680   31.0700   42.8680 O   0  0  0  0  0  0  0  0  0  0  0  0
   57.6240   32.3720   44.7970 C   0  0  0  0  0  0  0  0  0  0  0  0
   58.4180   33.3150   44.1350 C   0  0  0  0  0  0  0  0  0  0  0  0
   59.0030   34.3470   44.8660 C   0  0  0  0  0  0  0  0  0  0  0  0
   58.7670   34.4250   46.2380 C   0  0  0  0  0  0  0  0  0  0  0  0
   59.2830   35.3470   46.9220 O   0  0  0  0  0  0  0  0  0  0  0  0
   57.9690   33.5010   46.8340 N   0  0  0  0  0  0  0  0  0  0  0  0
   57.4110   32.5110   46.1340 N   0  0  0  0  0  0  0  0  0  0  0  0
   56.1340   26.2370   45.9860 C   0  0  0  0  0  0  0  0  0  0  0  0
   54.8280   26.7150   46.0330 O   0  0  0  0  0  0  0  0  0  0  0  0
   56.3560   24.8560   45.9970 C   0  0  0  0  0  0  0  0  0  0  0  0
   58.3703   21.1441   45.0980 H   0  0  0  0  0  0  0  0  0  0  0  0
   57.1410   22.0922   44.1943 H   0  0  0  0  0  0  0  0  0  0  0  0
   58.8587   22.6177   44.1943 H   0  0  0  0  0  0  0  0  0  0  0  0
   59.7700   24.8342   45.8210 H   0  0  0  0  0  0  0  0  0  0  0  0
   59.3844   27.2942   45.7937 H   0  0  0  0  0  0  0  0  0  0  0  0
   56.6418   28.9595   46.8596 H   0  0  0  0  0  0  0  0  0  0  0  0
   57.9742   29.0990   45.6411 H   0  0  0  0  0  0  0  0  0  0  0  0
   56.3034   28.5678   43.8426 H   0  0  0  0  0  0  0  0  0  0  0  0
   55.0068   28.6354   45.0915 H   0  0  0  0  0  0  0  0  0  0  0  0
   58.5786   33.2424   43.0492 H   0  0  0  0  0  0  0  0  0  0  0  0
   59.6425   35.0902   44.3673 H   0  0  0  0  0  0  0  0  0  0  0  0
   55.4995   24.1680   46.0519 H   0  0  0  0  0  0  0  0  0  0  0  0
  1  2  1  0
  2  3  1  0
  3  4  2  0
  4  5  1  0
  5  6  2  0
  6  7  1  0
  7  8  1  0
  8  9  1  0
  9 10  1  0
 10 11  2  0
 10 12  1  0
 12 13  1  0
 13 14  2  0
 14 15  1  0
 15 16  2  0
 15 17  1  0
 17 18  1  0
  6 19  1  0
 19 20  1  0
 19 21  2  0
 21  3  1  0
 18 12  2  0
  1 22  1  0
  1 23  1  0
  1 24  1  0
  4 25  1  0
  5 26  1  0
  7 27  1  0
  7 28  1  0
  8 29  1  0
  8 30  1  0
 13 31  1  0
 14 32  1  0
 21 33  1  0
M  CHG  3   9  -1  17  -1  20  -1
M  END
>  <UniqueID>  (47) 
44

>  <SMILES>  (47) 
COc1ccc(CC[N-]C(=O)c2ccc(=O)[n-]n2)c([O-])c1

>  <Energy>  (47) 
36.03499465567779

>  <Genealogy>  (47) 
COc1ccc(CC[N-]C(=O)c2ccc(=O)[n-]n2)c([O-])c1 (protonated)
COc1ccc(CC[N-]C(=O)c2ccc(=O)[n-]n2)c([O-])c1 (3D coordinates assigned)
COc1ccc(CC[N-]C(=O)c2ccc(=O)[n-]n2)c([O-])c1 (optimized conformer: 36.03499465567779 kcal/mol)

>  <smiles>  (47) 
COc1ccc(CCNC(=O)c2ccc(=O)[nH]n2)c(O)c1

>  <score_type>  (47) 
oracle

>  <origin>  (47) 
adg

>  <m_score__min__energy>  (47) 
-13.869999999999999

>  <m_primary>  (47) 
energy

$$$$
47:0
     RDKit          3D

 54 58  0  0  0  0  0  0  0  0999 V2000
   57.7790   33.8800   45.3390 C   0  0  0  0  0  0  0  0  0  0  0  0
   57.9880   32.3870   45.3560 C   0  0  0  0  0  0  0  0  0  0  0  0
   57.8060   31.6660   44.1660 C   0  0  0  0  0  0  0  0  0  0  0  0
   57.9800   30.2840   44.1400 C   0  0  0  0  0  0  0  0  0  0  0  0
   58.3630   29.6060   45.2940 C   0  0  0  0  0  0  0  0  0  0  0  0
   58.5730   30.2990   46.4890 C   0  0  0  0  0  0  0  0  0  0  0  0
   59.0230   29.5530   47.6290 N   0  0  0  0  0  0  0  0  0  0  0  0
   59.3150   28.1470   47.6500 C   0  0  0  0  0  0  0  0  0  0  0  0
   60.3050   27.7480   48.3190 O   0  0  0  0  0  0  0  0  0  0  0  0
   58.4800   27.1550   46.9430 C   0  0  0  0  0  0  0  0  0  0  0  0
   57.1470   27.3590   46.7780 N   0  0  0  0  0  0  0  0  0  0  0  0
   56.3630   26.4620   46.1300 C   0  0  0  0  0  0  0  0  0  0  0  0
   55.1310   26.6920   46.0100 O   0  0  0  0  0  0  0  0  0  0  0  0
   56.9290   25.2870   45.6060 C   0  0  0  0  0  0  0  0  0  0  0  0
   58.3100   25.0830   45.8080 C   0  0  0  0  0  0  0  0  0  0  0  0
   59.0480   26.0140   46.4680 N   0  0  0  0  0  0  0  0  0  0  0  0
   58.9450   23.8540   45.3110 C   0  0  0  0  0  0  0  0  0  0  0  0
   60.1350   23.5710   45.6140 O   0  0  0  0  0  0  0  0  0  0  0  0
   58.1690   22.9700   44.4980 N   0  0  0  0  0  0  0  0  0  0  0  0
   58.4990   21.5870   44.2190 C   0  0  0  0  0  0  0  0  0  0  0  0
   57.4060   21.0960   43.2740 C   0  0  0  0  0  0  0  0  0  0  0  0
   56.2670   22.1160   43.3690 C   0  0  0  0  0  0  0  0  0  0  0  0
   56.9140   23.3960   43.9120 C   0  0  1  0  0  0  0  0  0  0  0  0
   56.0690   24.2260   44.9240 C   0  0  1  0  0  0  0  0  0  0  0  0
   55.3460   23.3830   45.9710 C   0  0  0  0  0  0  0  0  0  0  0  0
   55.9380   23.1270   47.2260 C   0  0  0  0  0  0  0  0  0  0  0  0
   55.2820   22.3430   48.1770 C   0  0  0  0  0  0  0  0  0  0  0  0
   54.0280   21.8000   47.8950 C   0  0  0  0  0  0  0  0  0  0  0  0
   53.4280   22.0410   46.6590 C   0  0  0  0  0  0  0  0  0  0  0  0
   54.0760   22.8240   45.6970 C   0  0  0  0  0  0  0  0  0  0  0  0
   53.4500   23.0350   44.4740 O   0  0  0  0  0  0  0  0  0  0  0  0
   58.3230   31.6960   46.5500 C   0  0  0  0  0  0  0  0  0  0  0  0
   58.4260   32.4410   47.8620 C   0  0  0  0  0  0  0  0  0  0  0  0
   57.7265   34.2547   46.3719 H   0  0  0  0  0  0  0  0  0  0  0  0
   58.6185   34.3618   44.8164 H   0  0  0  0  0  0  0  0  0  0  0  0
   56.8395   34.1128   44.8164 H   0  0  0  0  0  0  0  0  0  0  0  0
   57.5233   32.1970   43.2451 H   0  0  0  0  0  0  0  0  0  0  0  0
   57.8144   29.7274   43.2058 H   0  0  0  0  0  0  0  0  0  0  0  0
   58.5015   28.5151   45.2648 H   0  0  0  0  0  0  0  0  0  0  0  0
   59.4855   21.5157   43.7376 H   0  0  0  0  0  0  0  0  0  0  0  0
   58.5491   20.9836   45.1374 H   0  0  0  0  0  0  0  0  0  0  0  0
   57.7875   21.0457   42.2435 H   0  0  0  0  0  0  0  0  0  0  0  0
   57.0637   20.0871   43.5477 H   0  0  0  0  0  0  0  0  0  0  0  0
   55.8283   22.2971   42.3767 H   0  0  0  0  0  0  0  0  0  0  0  0
   55.4522   21.7615   44.0174 H   0  0  0  0  0  0  0  0  0  0  0  0
   57.0309   24.1050   43.0792 H   0  0  0  0  0  0  0  0  0  0  0  0
   55.2843   24.7103   44.3242 H   0  0  0  0  0  0  0  0  0  0  0  0
   56.9268   23.5496   47.4576 H   0  0  0  0  0  0  0  0  0  0  0  0
   55.7553   22.1528   49.1516 H   0  0  0  0  0  0  0  0  0  0  0  0
   53.5134   21.1828   48.6462 H   0  0  0  0  0  0  0  0  0  0  0  0
   52.4390   21.6128   46.4390 H   0  0  0  0  0  0  0  0  0  0  0  0
   58.3278   31.7304   48.6959 H   0  0  0  0  0  0  0  0  0  0  0  0
   59.4023   32.9443   47.9222 H   0  0  0  0  0  0  0  0  0  0  0  0
   57.6229   33.1903   47.9222 H   0  0  0  0  0  0  0  0  0  0  0  0
  1  2  1  0
  2  3  2  0
  3  4  1  0
  4  5  2  0
  5  6  1  0
  6  7  1  0
  7  8  1  0
  8  9  2  0
  8 10  1  0
 10 11  2  0
 11 12  1  0
 12 13  2  0
 12 14  1  0
 14 15  2  0
 15 16  1  0
 15 17  1  0
 17 18  2  0
 17 19  1  0
 19 20  1  0
 20 21  1  0
 21 22  1  0
 22 23  1  0
 23 24  1  0
 24 25  1  0
 25 26  2  0
 26 27  1  0
 27 28  2  0
 28 29  1  0
 29 30  2  0
 30 31  1  0
  6 32  2  0
 32 33  1  0
 32  2  1  0
 16 10  1  0
 23 19  1  0
 30 25  1  0
 24 14  1  0
  1 34  1  0
  1 35  1  0
  1 36  1  0
  3 37  1  0
  4 38  1  0
  5 39  1  0
 20 40  1  0
 20 41  1  0
 21 42  1  0
 21 43  1  0
 22 44  1  0
 22 45  1  0
 23 46  1  6
 24 47  1  6
 26 48  1  0
 27 49  1  0
 28 50  1  0
 29 51  1  0
 33 52  1  0
 33 53  1  0
 33 54  1  0
M  CHG  3   7  -1  16  -1  31  -1
M  END
>  <UniqueID>  (48) 
45

>  <SMILES>  (48) 
Cc1cccc([N-]C(=O)c2nc(=O)c3c([n-]2)C(=O)N2CCC[C@H]2[C@H]3c2ccccc2[O-])c1C

>  <Energy>  (48) 
75.97029853640949

>  <Genealogy>  (48) 
Cc1cccc([N-]C(=O)c2nc(=O)c3c([n-]2)C(=O)N2CCCC2C3c2ccccc2[O-])c1C (protonated)
Cc1cccc([N-]C(=O)c2nc(=O)c3c([n-]2)C(=O)N2CCC[C@H]2[C@H]3c2ccccc2[O-])c1C (chirality)
Cc1cccc([N-]C(=O)c2nc(=O)c3c([n-]2)C(=O)N2CCC[C@H]2[C@H]3c2ccccc2[O-])c1C (3D coordinates assigned)
Cc1cccc([N-]C(=O)c2nc(=O)c3c([n-]2)C(=O)N2CCC[C@H]2[C@H]3c2ccccc2[O-])c1C (nonaromatic ring conformer: 75.97029853640949 kcal/mol)

>  <smiles>  (48) 
Cc1cccc(NC(=O)c2nc(=O)c3c([nH]2)C(=O)N2CCCC2C3c2ccccc2O)c1C

>  <score_type>  (48) 
oracle

>  <origin>  (48) 
adg

>  <m_score__min__energy>  (48) 
-13.74

>  <m_primary>  (48) 
energy

$$$$
48:0
     RDKit          3D

 44 46  0  0  0  0  0  0  0  0999 V2000
   56.2000   24.7160   47.2200 H   0  0  0  0  0  0  0  0  0  0  0  0
   57.1190   25.1390   47.1670 O   0  0  0  0  0  0  0  0  0  0  0  0
   57.3320   26.3700   46.5480 C   0  0  0  0  0  0  0  0  0  0  0  0
   58.6270   26.8940   46.4990 C   0  0  0  0  0  0  0  0  0  0  0  0
   59.4612   26.3329   46.9454 H   0  0  0  0  0  0  0  0  0  0  0  0
   58.8680   28.1270   45.8860 C   0  0  0  0  0  0  0  0  0  0  0  0
   59.8925   28.5250   45.8425 H   0  0  0  0  0  0  0  0  0  0  0  0
   57.8090   28.8610   45.3250 C   0  0  0  0  0  0  0  0  0  0  0  0
   58.0690   30.1850   44.6500 C   0  0  0  0  0  0  0  0  0  0  0  0
   58.4357   29.9967   43.6302 H   0  0  0  0  0  0  0  0  0  0  0  0
   58.8139   30.7290   45.2493 H   0  0  0  0  0  0  0  0  0  0  0  0
   56.8280   31.0370   44.5700 C   0  0  0  0  0  0  0  0  0  0  0  0
   55.8040   30.5810   43.9950 O   0  0  0  0  0  0  0  0  0  0  0  0
   56.7440   32.3120   45.2200 N   0  0  0  0  0  0  0  0  0  0  0  0
   57.8620   33.1170   45.6090 C   0  0  0  0  0  0  0  0  0  0  0  0
   58.2070   34.2620   44.8780 C   0  0  0  0  0  0  0  0  0  0  0  0
   57.6246   34.5388   43.9869 H   0  0  0  0  0  0  0  0  0  0  0  0
   59.2870   35.0530   45.2760 C   0  0  0  0  0  0  0  0  0  0  0  0
   59.5649   35.9395   44.6871 H   0  0  0  0  0  0  0  0  0  0  0  0
   60.0150   34.7200   46.4210 C   0  0  0  0  0  0  0  0  0  0  0  0
   60.8708   35.3401   46.7262 H   0  0  0  0  0  0  0  0  0  0  0  0
   59.6580   33.5970   47.1830 C   0  0  0  0  0  0  0  0  0  0  0  0
   60.5630   33.1900   48.6420 S   0  0  0  0  0  0  0  0  0  0  0  0
   61.9260   33.8220   48.5960 O   0  0  0  0  0  0  0  0  0  0  0  0
   60.7070   31.6960   48.7240 O   0  0  0  0  0  0  0  0  0  0  0  0
   59.6960   33.7870   50.0210 N   0  0  0  0  0  0  0  0  0  0  0  0
   58.9310   33.0570   50.7750 C   0  0  0  0  0  0  0  0  0  0  0  0
   58.4670   31.7920   50.3580 N   0  0  0  0  0  0  0  0  0  0  0  0
   58.6890   31.3450   49.4410 H   0  0  0  0  0  0  0  0  0  0  0  0
   57.6400   31.1970   51.3860 C   0  0  0  0  0  0  0  0  0  0  0  0
   58.0826   30.2510   51.7311 H   0  0  0  0  0  0  0  0  0  0  0  0
   56.6324   30.9700   51.0077 H   0  0  0  0  0  0  0  0  0  0  0  0
   57.5890   32.2160   52.5420 C   0  0  0  0  0  0  0  0  0  0  0  0
   57.9907   31.7632   53.4605 H   0  0  0  0  0  0  0  0  0  0  0  0
   56.5529   32.5281   52.7396 H   0  0  0  0  0  0  0  0  0  0  0  0
   58.4500   33.4210   52.1300 C   0  0  0  0  0  0  0  0  0  0  0  0
   59.2933   33.5568   52.8231 H   0  0  0  0  0  0  0  0  0  0  0  0
   57.8939   34.3699   52.1462 H   0  0  0  0  0  0  0  0  0  0  0  0
   58.5720   32.8000   46.7780 C   0  0  0  0  0  0  0  0  0  0  0  0
   58.2020   31.6870   47.5260 O   0  0  0  0  0  0  0  0  0  0  0  0
   56.5120   28.3210   45.3560 C   0  0  0  0  0  0  0  0  0  0  0  0
   55.6800   28.8722   44.8935 H   0  0  0  0  0  0  0  0  0  0  0  0
   56.2710   27.0870   45.9710 C   0  0  0  0  0  0  0  0  0  0  0  0
   54.9770   26.5810   46.0030 O   0  0  0  0  0  0  0  0  0  0  0  0
  1  2  1  0
  2  3  1  0
  3  4  2  0
  4  5  1  0
  4  6  1  0
  6  7  1  0
  6  8  2  0
  8  9  1  0
  9 10  1  0
  9 11  1  0
  9 12  1  0
 12 13  2  0
 12 14  1  0
 14 15  1  0
 15 16  2  0
 16 17  1  0
 16 18  1  0
 18 19  1  0
 18 20  2  0
 20 21  1  0
 20 22  1  0
 22 23  1  0
 23 24  2  0
 23 25  2  0
 23 26  1  0
 26 27  2  0
 27 28  1  0
 28 29  1  0
 28 30  1  0
 30 31  1  0
 30 32  1  0
 30 33  1  0
 33 34  1  0
 33 35  1  0
 33 36  1  0
 36 37  1  0
 36 38  1  0
 22 39  2  0
 39 40  1  0
  8 41  1  0
 41 42  1  0
 41 43  2  0
 43 44  1  0
 43  3  1  0
 39 15  1  0
 36 27  1  0
M  CHG  3  14  -1  40  -1  44  -1
M  END
>  <UniqueID>  (49) 
46

>  <SMILES>  (49) 
O=C(Cc1ccc(O)c([O-])c1)[N-]c1cccc(S(=O)(=O)/N=C2\CCCN2)c1[O-]

>  <Energy>  (49) 
60.30828767903371

>  <Genealogy>  (49) 
O=C(Cc1ccc(O)c([O-])c1)[N-]c1cccc(S(=O)(=O)N=C2CCCN2)c1[O-] (protonated)
O=C(Cc1ccc(O)c([O-])c1)[N-]c1cccc(S(=O)(=O)/N=C2\CCCN2)c1[O-] (cis-trans isomerization)
O=C(Cc1ccc(O)c([O-])c1)[N-]c1cccc(S(=O)(=O)/N=C2\CCCN2)c1[O-] (3D coordinates assigned)
O=C(Cc1ccc(O)c([O-])c1)[N-]c1cccc(S(=O)(=O)/N=C2\CCCN2)c1[O-] (nonaromatic ring conformer: 60.30828767903371 kcal/mol)

>  <smiles>  (49) 
O=C(Cc1ccc(O)c(O)c1)Nc1cccc(S(=O)(=O)N=C2CCCN2)c1O

>  <score_type>  (49) 
oracle

>  <origin>  (49) 
adg

>  <m_score__min__energy>  (49) 
-15.91

>  <m_primary>  (49) 
energy

$$$$
49:0
     RDKit          3D

 63 66  0  0  0  0  0  0  0  0999 V2000
   55.2740   23.6810   46.6350 C   0  0  0  0  0  0  0  0  0  0  0  0
   56.0460   24.6380   47.3520 O   0  0  0  0  0  0  0  0  0  0  0  0
   56.8200   25.6380   46.7490 C   0  0  0  0  0  0  0  0  0  0  0  0
   58.2290   25.6380   46.8060 C   0  0  0  0  0  0  0  0  0  0  0  0
   58.9560   26.6880   46.2370 C   0  0  0  0  0  0  0  0  0  0  0  0
   58.2900   27.7410   45.6010 C   0  0  0  0  0  0  0  0  0  0  0  0
   59.2250   29.1330   44.9580 S   0  0  0  0  0  0  0  0  0  0  0  0
   59.0550   30.0650   46.4870 C   0  0  0  0  0  0  0  0  0  0  0  0
   59.7070   29.5990   47.6350 C   0  0  0  0  0  0  0  0  0  0  0  0
   59.6570   30.3340   48.8250 C   0  0  0  0  0  0  0  0  0  0  0  0
   60.3140   29.8590   50.0030 N   0  0  0  0  0  0  0  0  0  0  0  0
   61.5840   30.3890   50.4220 C   0  0  0  0  0  0  0  0  0  0  0  0
   62.0000   31.4770   49.9450 O   0  0  0  0  0  0  0  0  0  0  0  0
   62.3810   29.7230   51.4080 N   0  0  0  0  0  0  0  0  0  0  0  0
   62.4950   28.3090   51.6170 C   0  0  0  0  0  0  0  0  0  0  0  0
   61.5150   27.4070   51.1670 C   0  0  0  0  0  0  0  0  0  0  0  0
   61.6690   26.0340   51.3880 C   0  0  0  0  0  0  0  0  0  0  0  0
   62.8170   25.5380   52.0170 C   0  0  0  0  0  0  0  0  0  0  0  0
   62.9140   24.1510   52.2230 O   0  0  0  0  0  0  0  0  0  0  0  0
   62.1560   23.4000   53.1680 C   0  0  0  0  0  0  0  0  0  0  0  0
   60.8980   22.8730   52.5320 C   0  0  0  0  0  0  0  0  0  0  0  0
   59.7160   23.6320   52.5400 C   0  0  0  0  0  0  0  0  0  0  0  0
   58.5560   23.1300   51.9410 C   0  0  0  0  0  0  0  0  0  0  0  0
   58.5700   21.8730   51.3320 C   0  0  0  0  0  0  0  0  0  0  0  0
   59.7460   21.1150   51.3120 C   0  0  0  0  0  0  0  0  0  0  0  0
   60.9060   21.6140   51.9090 C   0  0  0  0  0  0  0  0  0  0  0  0
   63.8210   26.4390   52.4200 C   0  0  0  0  0  0  0  0  0  0  0  0
   63.6580   27.8130   52.2160 C   0  0  0  0  0  0  0  0  0  0  0  0
   58.9750   31.5540   48.8560 C   0  0  0  0  0  0  0  0  0  0  0  0
   58.3010   32.0130   47.7230 C   0  0  0  0  0  0  0  0  0  0  0  0
   58.3190   31.2630   46.5320 C   0  0  0  0  0  0  0  0  0  0  0  0
   57.6410   31.7090   45.3450 N   0  0  0  0  0  0  0  0  0  0  0  0
   58.0300   33.1200   44.4150 S   0  0  0  0  0  0  0  0  0  0  0  0
   58.1220   32.7230   42.6810 C   0  0  0  0  0  0  0  0  0  0  0  0
   57.0000   34.1880   44.6580 O   0  0  0  0  0  0  0  0  0  0  0  0
   59.3700   33.6310   44.8610 O   0  0  0  0  0  0  0  0  0  0  0  0
   56.8940   27.7240   45.5030 C   0  0  0  0  0  0  0  0  0  0  0  0
   56.1620   26.6820   46.0810 C   0  0  0  0  0  0  0  0  0  0  0  0
   54.7730   26.6950   45.9990 O   0  0  0  0  0  0  0  0  0  0  0  0
   54.7471   23.0279   47.3462 H   0  0  0  0  0  0  0  0  0  0  0  0
   54.5401   24.2017   46.0023 H   0  0  0  0  0  0  0  0  0  0  0  0
   55.9382   23.0739   46.0023 H   0  0  0  0  0  0  0  0  0  0  0  0
   58.7578   24.8093   47.2997 H   0  0  0  0  0  0  0  0  0  0  0  0
   60.0547   26.6861   46.2896 H   0  0  0  0  0  0  0  0  0  0  0  0
   60.2618   28.6497   47.6015 H   0  0  0  0  0  0  0  0  0  0  0  0
   59.9230   29.0150   50.4770 H   0  0  0  0  0  0  0  0  0  0  0  0
   60.6251   27.7815   50.6399 H   0  0  0  0  0  0  0  0  0  0  0  0
   60.8809   25.3381   51.0646 H   0  0  0  0  0  0  0  0  0  0  0  0
   62.7611   22.5551   53.5285 H   0  0  0  0  0  0  0  0  0  0  0  0
   61.8833   24.0556   54.0081 H   0  0  0  0  0  0  0  0  0  0  0  0
   59.7027   24.6226   53.0180 H   0  0  0  0  0  0  0  0  0  0  0  0
   57.6314   23.7259   51.9495 H   0  0  0  0  0  0  0  0  0  0  0  0
   57.6546   21.4782   50.8671 H   0  0  0  0  0  0  0  0  0  0  0  0
   59.7569   20.1278   50.8269 H   0  0  0  0  0  0  0  0  0  0  0  0
   61.8304   21.0181   51.8912 H   0  0  0  0  0  0  0  0  0  0  0  0
   64.7371   26.0608   52.8971 H   0  0  0  0  0  0  0  0  0  0  0  0
   64.4503   28.5090   52.5289 H   0  0  0  0  0  0  0  0  0  0  0  0
   58.9695   32.1549   49.7773 H   0  0  0  0  0  0  0  0  0  0  0  0
   57.7529   32.9659   47.7611 H   0  0  0  0  0  0  0  0  0  0  0  0
   58.3689   31.6578   42.5613 H   0  0  0  0  0  0  0  0  0  0  0  0
   57.1520   32.9303   42.2054 H   0  0  0  0  0  0  0  0  0  0  0  0
   58.9019   33.3358   42.2054 H   0  0  0  0  0  0  0  0  0  0  0  0
   56.3714   28.5321   44.9701 H   0  0  0  0  0  0  0  0  0  0  0  0
  1  2  1  0
  2  3  1  0
  3  4  2  0
  4  5  1  0
  5  6  2  0
  6  7  1  0
  7  8  1  0
  8  9  2  0
  9 10  1  0
 10 11  1  0
 11 12  1  0
 12 13  2  0
 12 14  1  0
 14 15  1  0
 15 16  2  0
 16 17  1  0
 17 18  2  0
 18 19  1  0
 19 20  1  0
 20 21  1  0
 21 22  2  0
 22 23  1  0
 23 24  2  0
 24 25  1  0
 25 26  2  0
 18 27  1  0
 27 28  2  0
 10 29  2  0
 29 30  1  0
 30 31  2  0
 31 32  1  0
 32 33  1  0
 33 34  1  0
 33 35  2  0
 33 36  2  0
  6 37  1  0
 37 38  2  0
 38 39  1  0
 38  3  1  0
 31  8  1  0
 28 15  1  0
 26 21  1  0
  1 40  1  0
  1 41  1  0
  1 42  1  0
  4 43  1  0
  5 44  1  0
  9 45  1  0
 11 46  1  0
 16 47  1  0
 17 48  1  0
 20 49  1  0
 20 50  1  0
 22 51  1  0
 23 52  1  0
 24 53  1  0
 25 54  1  0
 26 55  1  0
 27 56  1  0
 28 57  1  0
 29 58  1  0
 30 59  1  0
 34 60  1  0
 34 61  1  0
 34 62  1  0
 37 63  1  0
M  CHG  3  14  -1  32  -1  39  -1
M  END
>  <UniqueID>  (50) 
47

>  <SMILES>  (50) 
COc1ccc(Sc2cc(NC(=O)[N-]c3ccc(OCc4ccccc4)cc3)ccc2[N-]S(C)(=O)=O)cc1[O-]

>  <Energy>  (50) 
71.96342940058649

>  <Genealogy>  (50) 
COc1ccc(Sc2cc(NC(=O)[N-]c3ccc(OCc4ccccc4)cc3)ccc2[N-]S(C)(=O)=O)cc1[O-] (protonated)
COc1ccc(Sc2cc(NC(=O)[N-]c3ccc(OCc4ccccc4)cc3)ccc2[N-]S(C)(=O)=O)cc1[O-] (3D coordinates assigned)
COc1ccc(Sc2cc(NC(=O)[N-]c3ccc(OCc4ccccc4)cc3)ccc2[N-]S(C)(=O)=O)cc1[O-] (optimized conformer: 71.96342940058649 kcal/mol)

>  <smiles>  (50) 
COc1ccc(Sc2cc(NC(=O)Nc3ccc(OCc4ccccc4)cc3)ccc2NS(C)(=O)=O)cc1O

>  <score_type>  (50) 
oracle

>  <origin>  (50) 
adg

>  <m_score__min__energy>  (50) 
-15.24

>  <m_primary>  (50) 
energy

$$$$
50:0
     RDKit          3D

 57 60  0  0  0  0  0  0  0  0999 V2000
   59.2990   30.2620   45.5690 H   0  0  0  0  0  0  0  0  0  0  0  0
   58.7110   29.5970   45.0210 N   0  0  0  0  0  0  0  0  0  0  0  0
   57.4270   29.7130   44.8840 C   0  0  0  0  0  0  0  0  0  0  0  0
   56.4450   28.7700   45.1380 C   0  0  0  0  0  0  0  0  0  0  0  0
   56.5590   27.4190   45.7190 C   0  0  0  0  0  0  0  0  0  0  0  0
   55.5080   26.7750   45.9800 O   0  0  0  0  0  0  0  0  0  0  0  0
   57.8420   26.8440   45.9880 N   0  0  0  0  0  0  0  0  0  0  0  0
   58.7460   27.2150   47.0370 C   0  0  0  0  0  0  0  0  0  0  0  0
   58.5520   28.3750   47.8130 C   0  0  0  0  0  0  0  0  0  0  0  0
   57.6700   29.0090   47.6397 H   0  0  0  0  0  0  0  0  0  0  0  0
   59.4760   28.7230   48.8020 C   0  0  0  0  0  0  0  0  0  0  0  0
   59.3139   29.6227   49.4137 H   0  0  0  0  0  0  0  0  0  0  0  0
   60.6050   27.9290   49.0140 C   0  0  0  0  0  0  0  0  0  0  0  0
   61.3293   28.2018   49.7957 H   0  0  0  0  0  0  0  0  0  0  0  0
   60.8160   26.7890   48.2350 C   0  0  0  0  0  0  0  0  0  0  0  0
   61.7092   26.1686   48.4001 H   0  0  0  0  0  0  0  0  0  0  0  0
   59.8930   26.4350   47.2450 C   0  0  0  0  0  0  0  0  0  0  0  0
   60.1160   25.3310   46.4900 F   0  0  0  0  0  0  0  0  0  0  0  0
   55.2600   29.3560   44.8610 N   0  0  0  0  0  0  0  0  0  0  0  0
   55.5100   30.6000   44.4690 N   0  0  0  0  0  0  0  0  0  0  0  0
   56.8130   30.8340   44.4650 N   0  0  0  0  0  0  0  0  0  0  0  0
   57.4090   32.1530   44.2690 C   0  0  0  0  0  0  0  0  0  0  0  0
   58.3405   32.0543   43.6923 H   0  0  0  0  0  0  0  0  0  0  0  0
   56.7087   32.7981   43.7181 H   0  0  0  0  0  0  0  0  0  0  0  0
   57.7080   32.7580   45.6040 C   0  0  0  0  0  0  0  0  0  0  0  0
   57.0960   33.7980   45.9710 O   0  0  0  0  0  0  0  0  0  0  0  0
   58.6450   32.1300   46.4860 N   0  0  0  0  0  0  0  0  0  0  0  0
   58.9410   32.6360   47.7960 C   0  0  0  0  0  0  0  0  0  0  0  0
   58.5180   31.9320   48.9350 C   0  0  0  0  0  0  0  0  0  0  0  0
   57.9108   31.0226   48.8159 H   0  0  0  0  0  0  0  0  0  0  0  0
   58.8580   32.3710   50.2190 C   0  0  0  0  0  0  0  0  0  0  0  0
   58.3880   31.4210   51.6370 S   0  0  0  0  0  0  0  0  0  0  0  0
   57.3380   30.4210   51.2370 O   0  0  0  0  0  0  0  0  0  0  0  0
   57.7810   32.3430   52.6600 O   0  0  0  0  0  0  0  0  0  0  0  0
   59.7280   30.5430   52.3420 N   0  0  0  0  0  0  0  0  0  0  0  0
   59.5950   29.1000   52.0890 C   0  0  0  0  0  0  0  0  0  0  0  0
   58.7498   28.7043   52.6713 H   0  0  0  0  0  0  0  0  0  0  0  0
   59.4175   28.9361   51.0158 H   0  0  0  0  0  0  0  0  0  0  0  0
   60.8860   28.3720   52.5050 C   0  0  0  0  0  0  0  0  0  0  0  0
   60.9862   28.4559   53.5972 H   0  0  0  0  0  0  0  0  0  0  0  0
   60.7785   27.3365   52.1497 H   0  0  0  0  0  0  0  0  0  0  0  0
   62.0840   28.8680   51.9140 O   0  0  0  0  0  0  0  0  0  0  0  0
   61.9050   30.0680   51.1850 C   0  0  0  0  0  0  0  0  0  0  0  0
   62.8917   30.5119   50.9865 H   0  0  0  0  0  0  0  0  0  0  0  0
   61.3812   29.8191   50.2503 H   0  0  0  0  0  0  0  0  0  0  0  0
   61.0460   31.0920   51.9480 C   0  0  0  0  0  0  0  0  0  0  0  0
   61.5861   31.3993   52.8557 H   0  0  0  0  0  0  0  0  0  0  0  0
   60.8665   31.9449   51.2769 H   0  0  0  0  0  0  0  0  0  0  0  0
   59.6200   33.5370   50.3620 C   0  0  0  0  0  0  0  0  0  0  0  0
   59.8764   33.9021   51.3675 H   0  0  0  0  0  0  0  0  0  0  0  0
   60.0570   34.2400   49.2360 C   0  0  0  0  0  0  0  0  0  0  0  0
   60.6593   35.1519   49.3615 H   0  0  0  0  0  0  0  0  0  0  0  0
   59.7330   33.7910   47.9460 C   0  0  0  0  0  0  0  0  0  0  0  0
   60.2220   34.5420   46.7390 C   0  0  0  0  0  0  0  0  0  0  0  0
   60.7956   35.4230   47.0628 H   0  0  0  0  0  0  0  0  0  0  0  0
   60.8667   33.8862   46.1355 H   0  0  0  0  0  0  0  0  0  0  0  0
   59.3614   34.8664   46.1355 H   0  0  0  0  0  0  0  0  0  0  0  0
  1  2  1  0
  2  3  2  0
  3  4  1  0
  4  5  1  0
  5  6  2  0
  5  7  1  0
  7  8  1  0
  8  9  2  0
  9 10  1  0
  9 11  1  0
 11 12  1  0
 11 13  2  0
 13 14  1  0
 13 15  1  0
 15 16  1  0
 15 17  2  0
 17 18  1  0
  4 19  2  0
 19 20  1  0
 20 21  1  0
 21 22  1  0
 22 23  1  0
 22 24  1  0
 22 25  1  0
 25 26  2  0
 25 27  1  0
 27 28  1  0
 28 29  2  0
 29 30  1  0
 29 31  1  0
 31 32  1  0
 32 33  2  0
 32 34  2  0
 32 35  1  0
 35 36  1  0
 36 37  1  0
 36 38  1  0
 36 39  1  0
 39 40  1  0
 39 41  1  0
 39 42  1  0
 42 43  1  0
 43 44  1  0
 43 45  1  0
 43 46  1  0
 46 47  1  0
 46 48  1  0
 31 49  2  0
 49 50  1  0
 49 51  1  0
 51 52  1  0
 51 53  2  0
 53 54  1  0
 54 55  1  0
 54 56  1  0
 54 57  1  0
 21  3  1  0
 53 28  1  0
 17  8  1  0
 46 35  1  0
M  CHG  3   7  -1  20  -1  27  -1
M  END
>  <UniqueID>  (51) 
48

>  <SMILES>  (51) 
[H]/N=c1\c(C(=O)[N-]c2ccccc2F)n[n-]n1CC(=O)[N-]c1cc(S(=O)(=O)N2CCOCC2)ccc1C

>  <Energy>  (51) 
115.7884374533128

>  <Genealogy>  (51) 
Cc1ccc(S(=O)(=O)N2CCOCC2)cc1[N-]C(=O)Cn1[n-]nc(C(=O)[N-]c2ccccc2F)c1=N (protonated)
[H]/N=c1\c(C(=O)[N-]c2ccccc2F)n[n-]n1CC(=O)[N-]c1cc(S(=O)(=O)N2CCOCC2)ccc1C (cis-trans isomerization)
[H]/N=c1\c(C(=O)[N-]c2ccccc2F)n[n-]n1CC(=O)[N-]c1cc(S(=O)(=O)N2CCOCC2)ccc1C (3D coordinates assigned)
[H]/N=c1\c(C(=O)[N-]c2ccccc2F)n[n-]n1CC(=O)[N-]c1cc(S(=O)(=O)N2CCOCC2)ccc1C (nonaromatic ring conformer: 115.7884374533128 kcal/mol)

>  <smiles>  (51) 
Cc1ccc(S(=O)(=O)N2CCOCC2)cc1NC(=O)Cn1[nH]nc(C(=O)Nc2ccccc2F)c1=N

>  <score_type>  (51) 
oracle

>  <origin>  (51) 
adg

>  <m_score__min__energy>  (51) 
-15.17

>  <m_primary>  (51) 
energy

$$$$
51:0
     RDKit          3D

 43 44  0  0  0  0  0  0  0  0999 V2000
   58.1510   22.9460   47.5040 H   0  0  0  0  0  0  0  0  0  0  0  0
   57.3070   22.4320   47.5960 O   0  0  0  0  0  0  0  0  0  0  0  0
   56.6690   22.4770   46.3490 C   0  0  0  0  0  0  0  0  0  0  0  0
   55.5826   22.5592   46.5004 H   0  0  0  0  0  0  0  0  0  0  0  0
   56.9046   21.5569   45.7941 H   0  0  0  0  0  0  0  0  0  0  0  0
   57.1620   23.6910   45.5370 C   0  0  2  0  0  0  0  0  0  0  0  0
   57.4932   23.2896   44.5679 H   0  0  0  0  0  0  0  0  0  0  0  0
   58.2080   24.3330   46.2340 O   0  0  0  0  0  0  0  0  0  0  0  0
   57.6450   25.4210   46.9370 C   0  0  1  0  0  0  0  0  0  0  0  0
   57.5610   25.1867   48.0085 H   0  0  0  0  0  0  0  0  0  0  0  0
   58.5560   26.6290   46.8490 C   0  0  0  0  0  0  0  0  0  0  0  0
   59.1870   27.0410   47.9800 N   0  0  0  0  0  0  0  0  0  0  0  0
   59.9900   28.1060   48.0120 N   0  0  0  0  0  0  0  0  0  0  0  0
   60.6260   28.4640   49.2800 C   0  0  0  0  0  0  0  0  0  0  0  0
   60.0021   28.1128   50.1151 H   0  0  0  0  0  0  0  0  0  0  0  0
   61.6176   27.9915   49.3391 H   0  0  0  0  0  0  0  0  0  0  0  0
   60.7365   29.5568   49.3391 H   0  0  0  0  0  0  0  0  0  0  0  0
   60.2090   28.8460   46.8850 C   0  0  0  0  0  0  0  0  0  0  0  0
   60.9710   29.8530   46.9190 O   0  0  0  0  0  0  0  0  0  0  0  0
   59.5830   28.4860   45.6870 C   0  0  0  0  0  0  0  0  0  0  0  0
   59.7870   29.1740   44.6490 O   0  0  0  0  0  0  0  0  0  0  0  0
   58.7360   27.3610   45.6580 C   0  0  0  0  0  0  0  0  0  0  0  0
   58.0520   26.9450   44.4630 N   0  0  0  0  0  0  0  0  0  0  0  0
   57.6510   27.7530   43.5680 N   0  0  0  0  0  0  0  0  0  0  0  0
   57.0260   28.9890   43.9140 C   0  0  0  0  0  0  0  0  0  0  0  0
   55.9210   28.9910   44.5250 O   0  0  0  0  0  0  0  0  0  0  0  0
   57.6640   30.2230   43.5670 N   0  0  0  0  0  0  0  0  0  0  0  0
   58.6100   30.1890   43.1230 H   0  0  0  0  0  0  0  0  0  0  0  0
   57.0840   31.5270   43.8790 C   0  0  0  0  0  0  0  0  0  0  0  0
   56.1110   31.3812   44.3710 H   0  0  0  0  0  0  0  0  0  0  0  0
   56.9574   32.0910   42.9431 H   0  0  0  0  0  0  0  0  0  0  0  0
   58.0010   32.3160   44.8070 C   0  0  0  0  0  0  0  0  0  0  0  0
   57.7430   32.0940   45.8530 H   0  0  0  0  0  0  0  0  0  0  0  0
   59.0466   32.0308   44.6187 H   0  0  0  0  0  0  0  0  0  0  0  0
   57.8750   33.3924   44.6187 H   0  0  0  0  0  0  0  0  0  0  0  0
   56.2110   25.6770   46.4340 C   0  0  1  0  0  0  0  0  0  0  0  0
   55.4734   25.5140   47.2336 H   0  0  0  0  0  0  0  0  0  0  0  0
   55.9900   27.0020   46.0220 O   0  0  0  0  0  0  0  0  0  0  0  0
   56.2580   27.0500   45.0680 H   0  0  0  0  0  0  0  0  0  0  0  0
   56.0770   24.7340   45.2660 C   0  0  2  0  0  0  0  0  0  0  0  0
   56.2076   25.2164   44.2861 H   0  0  0  0  0  0  0  0  0  0  0  0
   54.7850   24.1850   45.2040 O   0  0  0  0  0  0  0  0  0  0  0  0
   54.5420   23.9370   46.1340 H   0  0  0  0  0  0  0  0  0  0  0  0
  1  2  1  0
  2  3  1  0
  3  4  1  0
  3  5  1  0
  3  6  1  0
  6  7  1  6
  6  8  1  0
  8  9  1  0
  9 10  1  1
  9 11  1  0
 11 12  1  0
 12 13  1  0
 13 14  1  0
 14 15  1  0
 14 16  1  0
 14 17  1  0
 13 18  1  0
 18 19  2  0
 18 20  1  0
 20 21  2  0
 20 22  1  0
 22 23  1  0
 23 24  2  0
 24 25  1  0
 25 26  2  0
 25 27  1  0
 27 28  1  0
 27 29  1  0
 29 30  1  0
 29 31  1  0
 29 32  1  0
 32 33  1  0
 32 34  1  0
 32 35  1  0
  9 36  1  0
 36 37  1  1
 36 38  1  0
 38 39  1  0
 36 40  1  0
 40 41  1  6
 40 42  1  0
 42 43  1  0
 40  6  1  0
 22 11  2  0
M  CHG  1  12  -1
M  END
>  <UniqueID>  (52) 
49

>  <SMILES>  (52) 
CCNC(=O)/N=N/c1c([C@@H]2O[C@@H](CO)C(O)C2O)[n-]n(C)c(=O)c1=O

>  <Energy>  (52) 
42.815594624484696

>  <Genealogy>  (52) 
CCNC(=O)N=Nc1c(C2OC(CO)C(O)C2O)[n-]n(C)c(=O)c1=O (protonated)
CCNC(=O)N=Nc1c([C@@H]2O[C@@H](CO)C(O)C2O)[n-]n(C)c(=O)c1=O (chirality)
CCNC(=O)/N=N/c1c([C@@H]2O[C@@H](CO)C(O)C2O)[n-]n(C)c(=O)c1=O (cis-trans isomerization)
CCNC(=O)/N=N/c1c([C@@H]2O[C@@H](CO)C(O)C2O)[n-]n(C)c(=O)c1=O (3D coordinates assigned)
CCNC(=O)/N=N/c1c([C@@H]2O[C@@H](CO)C(O)C2O)[n-]n(C)c(=O)c1=O (nonaromatic ring conformer: 42.815594624484696 kcal/mol)

>  <smiles>  (52) 
CCNC(=O)N=Nc1c(C2OC(CO)C(O)C2O)[nH]n(C)c(=O)c1=O

>  <score_type>  (52) 
oracle

>  <origin>  (52) 
adg

>  <m_score__min__energy>  (52) 
-7.8799999999999999

>  <m_primary>  (52) 
energy

$$$$
52:0
     RDKit          3D

 25 26  0  0  0  0  0  0  0  0999 V2000
   58.8490   28.2710   46.5740 O   0  0  0  0  0  0  0  0  0  0  0  0
   57.9000   28.3270   45.7460 C   0  0  0  0  0  0  0  0  0  0  0  0
   56.6550   27.6560   45.9960 N   0  0  0  0  0  0  0  0  0  0  0  0
   56.2910   26.4440   45.6770 C   0  0  0  0  0  0  0  0  0  0  0  0
   57.1560   25.5120   45.0610 C   0  0  0  0  0  0  0  0  0  0  0  0
   56.6800   24.2370   44.7470 C   0  0  0  0  0  0  0  0  0  0  0  0
   55.3580   23.8950   45.0310 C   0  0  0  0  0  0  0  0  0  0  0  0
   54.5240   24.8420   45.6210 C   0  0  0  0  0  0  0  0  0  0  0  0
   55.0020   26.0790   45.9220 N   0  0  0  0  0  0  0  0  0  0  0  0
   58.0200   29.1430   44.5810 N   0  0  0  0  0  0  0  0  0  0  0  0
   56.9980   30.5100   44.2930 S   0  0  0  0  0  0  0  0  0  0  0  0
   56.9300   30.7720   42.8140 O   0  0  0  0  0  0  0  0  0  0  0  0
   55.6170   30.2170   44.8070 O   0  0  0  0  0  0  0  0  0  0  0  0
   57.6360   31.9150   45.1260 C   0  0  0  0  0  0  0  0  0  0  0  0
   58.1600   31.9300   46.4100 C   0  0  0  0  0  0  0  0  0  0  0  0
   58.5910   33.2020   46.8060 C   0  0  0  0  0  0  0  0  0  0  0  0
   58.4060   34.1810   45.8370 C   0  0  0  0  0  0  0  0  0  0  0  0
   57.7050   33.4650   44.4840 S   0  0  0  0  0  0  0  0  0  0  0  0
   58.1955   25.7882   44.8307 H   0  0  0  0  0  0  0  0  0  0  0  0
   57.3485   23.5018   44.2752 H   0  0  0  0  0  0  0  0  0  0  0  0
   54.9788   22.8904   44.7922 H   0  0  0  0  0  0  0  0  0  0  0  0
   53.4770   24.5888   45.8438 H   0  0  0  0  0  0  0  0  0  0  0  0
   58.2296   31.0376   47.0493 H   0  0  0  0  0  0  0  0  0  0  0  0
   59.0344   33.4072   47.7915 H   0  0  0  0  0  0  0  0  0  0  0  0
   58.6724   35.2435   45.9371 H   0  0  0  0  0  0  0  0  0  0  0  0
  1  2  2  0
  2  3  1  0
  3  4  2  3
  4  5  1  0
  5  6  2  0
  6  7  1  0
  7  8  2  0
  8  9  1  0
  2 10  1  0
 10 11  1  0
 11 12  2  0
 11 13  2  0
 11 14  1  0
 14 15  2  0
 15 16  1  0
 16 17  2  0
 17 18  1  0
  9  4  1  0
 18 14  1  0
  5 19  1  0
  6 20  1  0
  7 21  1  0
  8 22  1  0
 15 23  1  0
 16 24  1  0
 17 25  1  0
M  CHG  2   9  -1  10  -1
M  END
>  <UniqueID>  (53) 
50

>  <SMILES>  (53) 
O=C(N=c1cccc[n-]1)[N-]S(=O)(=O)c1cccs1

>  <Energy>  (53) 
61.67484865239751

>  <Genealogy>  (53) 
O=C(N=c1cccc[n-]1)[N-]S(=O)(=O)c1cccs1 (protonated)
O=C(N=c1cccc[n-]1)[N-]S(=O)(=O)c1cccs1 (3D coordinates assigned)
O=C(N=c1cccc[n-]1)[N-]S(=O)(=O)c1cccs1 (optimized conformer: 61.67484865239751 kcal/mol)

>  <smiles>  (53) 
O=C(N=c1cccc[nH]1)NS(=O)(=O)c1cccs1

>  <score_type>  (53) 
oracle

>  <origin>  (53) 
adg

>  <m_score__min__energy>  (53) 
-9.5999999999999996

>  <m_primary>  (53) 
energy

$$$$
53:0
     RDKit          3D

 53 55  0  0  1  0  0  0  0  0999 V2000
   62.1100   29.1380   51.1900 C   0  0  0  0  0  0  0  0  0  0  0  0
   61.6440   30.5460   50.9980 C   0  0  0  0  0  0  0  0  0  0  0  0
   60.3960   30.7870   51.1230 O   0  0  0  0  0  0  0  0  0  0  0  0
   62.5700   31.5730   50.6860 N   0  0  0  0  0  0  0  0  0  0  0  0
   62.1990   32.9560   50.4810 C   0  0  0  0  0  0  0  0  0  0  0  0
   62.1550   33.3010   49.0510 C   0  0  0  0  0  0  0  0  0  0  0  0
   61.0990   33.9050   48.4140 C   0  0  0  0  0  0  0  0  0  0  0  0
   61.0920   34.2000   47.0620 C   0  0  0  0  0  0  0  0  0  0  0  0
   59.9070   34.8610   46.4590 C   0  0  0  0  0  0  0  0  0  0  0  0
   59.0010   33.8750   45.8690 N   0  0  0  0  0  0  0  0  0  0  0  0
   58.8150   33.8590   44.5330 C   0  0  0  0  0  0  0  0  0  0  0  0
   57.9550   32.9100   44.0240 C   0  0  0  0  0  0  0  0  0  0  0  0
   57.2840   31.9900   44.7890 C   0  0  0  0  0  0  0  0  0  0  0  0
   56.4720   31.0940   44.2970 N   0  0  0  0  0  0  0  0  0  0  0  0
   57.0670   30.0420   43.5460 C   0  0  0  0  0  0  0  0  0  0  0  0
   57.2810   28.8840   44.5050 C   0  0  0  0  0  0  0  0  0  0  0  0
   58.4180   29.1420   45.4240 C   0  0  0  0  0  0  0  0  0  0  0  0
   59.6770   29.5150   44.9870 C   0  0  0  0  0  0  0  0  0  0  0  0
   60.6490   29.7250   45.9570 C   0  0  0  0  0  0  0  0  0  0  0  0
   60.3900   29.5750   47.2860 C   0  0  0  0  0  0  0  0  0  0  0  0
   59.1310   29.2000   47.7460 C   0  0  0  0  0  0  0  0  0  0  0  0
   58.1550   28.9870   46.7950 C   0  0  0  0  0  0  0  0  0  0  0  0
   57.5120   32.0540   46.1350 N   0  0  0  0  0  0  0  0  0  0  0  0
   58.3570   32.9850   46.6520 C   0  0  0  0  0  0  0  0  0  0  0  0
   58.4950   32.9590   47.9010 O   0  0  0  0  0  0  0  0  0  0  0  0
   62.2190   33.8540   46.3510 C   0  0  0  0  0  0  0  0  0  0  0  0
   63.3190   33.2460   46.9200 C   0  0  0  0  0  0  0  0  0  0  0  0
   63.2800   32.9680   48.2910 C   0  0  0  0  0  0  0  0  0  0  0  0
   64.3680   32.3620   48.8660 O   0  0  0  0  0  0  0  0  0  0  0  0
   62.1824   28.9192   52.2656 H   0  0  0  0  0  0  0  0  0  0  0  0
   61.3925   28.4474   50.7228 H   0  0  0  0  0  0  0  0  0  0  0  0
   63.0978   29.0118   50.7228 H   0  0  0  0  0  0  0  0  0  0  0  0
   63.5870   31.3000   50.6010 H   0  0  0  0  0  0  0  0  0  0  0  0
   61.2050   33.1274   50.9199 H   0  0  0  0  0  0  0  0  0  0  0  0
   62.9574   33.5899   50.9637 H   0  0  0  0  0  0  0  0  0  0  0  0
   60.2124   34.1681   49.0095 H   0  0  0  0  0  0  0  0  0  0  0  0
   59.3709   35.4205   47.2398 H   0  0  0  0  0  0  0  0  0  0  0  0
   60.2505   35.5408   45.6653 H   0  0  0  0  0  0  0  0  0  0  0  0
   59.3296   34.5753   43.8757 H   0  0  0  0  0  0  0  0  0  0  0  0
   57.7966   32.8889   42.9357 H   0  0  0  0  0  0  0  0  0  0  0  0
   56.3991   29.7368   42.7270 H   0  0  0  0  0  0  0  0  0  0  0  0
   58.0189   30.3655   43.0997 H   0  0  0  0  0  0  0  0  0  0  0  0
   56.3669   28.7384   45.0993 H   0  0  0  0  0  0  0  0  0  0  0  0
   57.5114   27.9849   43.9146 H   0  0  0  0  0  0  0  0  0  0  0  0
   59.8987   29.6399   43.9168 H   0  0  0  0  0  0  0  0  0  0  0  0
   61.6602   30.0219   45.6419 H   0  0  0  0  0  0  0  0  0  0  0  0
   61.1955   29.7546   48.0133 H   0  0  0  0  0  0  0  0  0  0  0  0
   58.9238   29.0790   48.8195 H   0  0  0  0  0  0  0  0  0  0  0  0
   57.1467   28.6886   47.1179 H   0  0  0  0  0  0  0  0  0  0  0  0
   57.0180   31.3710   46.7510 H   0  0  0  0  0  0  0  0  0  0  0  0
   62.2437   34.0737   45.2734 H   0  0  0  0  0  0  0  0  0  0  0  0
   64.2001   32.9875   46.3143 H   0  0  0  0  0  0  0  0  0  0  0  0
   65.1990   32.2170   48.3160 H   0  0  0  0  0  0  0  0  0  0  0  0
  1  2  1  0
  2  3  2  0
  2  4  1  0
  4  5  1  0
  5  6  1  0
  6  7  2  0
  7  8  1  0
  8  9  1  0
  9 10  1  0
 10 11  1  0
 11 12  2  0
 12 13  1  0
 13 14  2  0
 14 15  1  0
 15 16  1  0
 16 17  1  0
 17 18  2  0
 18 19  1  0
 19 20  2  0
 20 21  1  0
 21 22  2  0
 13 23  1  0
 23 24  1  0
 24 25  2  0
  8 26  2  0
 26 27  1  0
 27 28  2  0
 28 29  1  0
 28  6  1  0
 24 10  1  0
 22 17  1  0
  1 30  1  0
  1 31  1  0
  1 32  1  0
  4 33  1  0
  5 34  1  0
  5 35  1  0
  7 36  1  0
  9 37  1  0
  9 38  1  0
 11 39  1  0
 12 40  1  0
 15 41  1  0
 15 42  1  0
 16 43  1  0
 16 44  1  0
 18 45  1  0
 19 46  1  0
 20 47  1  0
 21 48  1  0
 22 49  1  0
 23 50  1  0
 26 51  1  0
 27 52  1  0
 29 53  1  0
M  END
>  <smiles>  (54) 
CC(=O)NCc1cc(Cn2ccc(=NCCc3ccccc3)[nH]c2=O)ccc1O

>  <score_type>  (54) 
oracle

>  <origin>  (54) 
adg

>  <m_score__min__energy>  (54) 
-9.4000000000000004

>  <m_primary>  (54) 
energy

$$$$
54:0
     RDKit          3D

 37 39  0  0  0  0  0  0  0  0999 V2000
   58.8800   28.5280   47.6480 C   0  0  0  0  0  0  0  0  0  0  0  0
   58.3290   29.1280   46.5790 C   0  0  0  0  0  0  0  0  0  0  0  0
   57.8780   28.4960   45.4080 C   0  0  0  0  0  0  0  0  0  0  0  0
   57.6980   27.1920   45.1160 C   0  0  0  0  0  0  0  0  0  0  0  0
   57.1930   26.1660   46.0410 C   0  0  0  0  0  0  0  0  0  0  0  0
   57.9550   25.1810   46.5470 N   0  0  0  0  0  0  0  0  0  0  0  0
   57.0690   24.4160   47.2220 C   0  0  0  0  0  0  0  0  0  0  0  0
   57.4110   23.3850   47.8580 O   0  0  0  0  0  0  0  0  0  0  0  0
   55.7870   24.8360   47.1520 N   0  0  0  0  0  0  0  0  0  0  0  0
   55.8810   25.9360   46.3880 C   0  0  0  0  0  0  0  0  0  0  0  0
   54.7860   26.6960   45.9930 O   0  0  0  0  0  0  0  0  0  0  0  0
   57.5780   29.5040   44.5110 C   0  0  0  0  0  0  0  0  0  0  0  0
   57.7860   30.6980   45.1680 C   0  0  0  0  0  0  0  0  0  0  0  0
   57.5040   32.0460   44.5750 C   0  0  0  0  0  0  0  0  0  0  0  0
   58.2410   30.4790   46.4250 N   0  0  0  0  0  0  0  0  0  0  0  0
   58.5370   31.5360   47.4090 C   0  0  0  0  0  0  0  0  0  0  0  0
   59.9790   31.9820   47.2940 C   0  0  0  0  0  0  0  0  0  0  0  0
   60.9970   31.0880   47.6710 C   0  0  0  0  0  0  0  0  0  0  0  0
   62.3400   31.4580   47.5860 C   0  0  0  0  0  0  0  0  0  0  0  0
   62.6910   32.7270   47.1140 C   0  0  0  0  0  0  0  0  0  0  0  0
   64.0280   33.1080   47.0260 O   0  0  0  0  0  0  0  0  0  0  0  0
   61.6910   33.6210   46.7230 C   0  0  0  0  0  0  0  0  0  0  0  0
   60.3400   33.2600   46.8030 C   0  0  0  0  0  0  0  0  0  0  0  0
   59.1480   34.4420   46.2670 Cl  0  0  0  0  0  0  0  0  0  0  0  0
   59.1973   29.1287   48.5131 H   0  0  0  0  0  0  0  0  0  0  0  0
   59.0136   27.4362   47.6578 H   0  0  0  0  0  0  0  0  0  0  0  0
   57.9512   26.8669   44.0961 H   0  0  0  0  0  0  0  0  0  0  0  0
   57.2385   29.3777   43.4724 H   0  0  0  0  0  0  0  0  0  0  0  0
   57.3511   32.7771   45.3825 H   0  0  0  0  0  0  0  0  0  0  0  0
   58.3561   32.3588   43.9537 H   0  0  0  0  0  0  0  0  0  0  0  0
   56.5979   31.9910   43.9537 H   0  0  0  0  0  0  0  0  0  0  0  0
   57.8767   32.3963   47.2251 H   0  0  0  0  0  0  0  0  0  0  0  0
   58.3688   31.1366   48.4200 H   0  0  0  0  0  0  0  0  0  0  0  0
   60.7316   30.0853   48.0372 H   0  0  0  0  0  0  0  0  0  0  0  0
   63.1245   30.7498   47.8910 H   0  0  0  0  0  0  0  0  0  0  0  0
   64.7750   32.4240   47.0240 H   0  0  0  0  0  0  0  0  0  0  0  0
   61.9673   34.6178   46.3488 H   0  0  0  0  0  0  0  0  0  0  0  0
  1  2  2  0
  2  3  1  0
  3  4  2  3
  4  5  1  0
  5  6  1  0
  6  7  1  0
  7  8  2  0
  7  9  1  0
  9 10  1  0
 10 11  1  0
  3 12  1  0
 12 13  2  0
 13 14  1  0
 13 15  1  0
 15 16  1  0
 16 17  1  0
 17 18  2  0
 18 19  1  0
 19 20  2  0
 20 21  1  0
 20 22  1  0
 22 23  2  0
 23 24  1  0
 15  2  1  0
 23 17  1  0
 10  5  2  0
  1 25  1  0
  1 26  1  0
  4 27  1  0
 12 28  1  0
 14 29  1  0
 14 30  1  0
 14 31  1  0
 16 32  1  0
 16 33  1  0
 18 34  1  0
 19 35  1  0
 21 36  1  0
 22 37  1  0
M  CHG  3   6  -1   9  -1  11  -1
M  END
>  <UniqueID>  (55) 
51

>  <SMILES>  (55) 
C=c1c(=Cc2[n-]c(=O)[n-]c2[O-])cc(C)n1Cc1ccc(O)cc1Cl

>  <Energy>  (55) 
110.45769134359887

>  <Genealogy>  (55) 
C=c1c(=Cc2[n-]c(=O)[n-]c2[O-])cc(C)n1Cc1ccc(O)cc1Cl (protonated)
C=c1c(=Cc2[n-]c(=O)[n-]c2[O-])cc(C)n1Cc1ccc(O)cc1Cl (3D coordinates assigned)
C=c1c(=Cc2[n-]c(=O)[n-]c2[O-])cc(C)n1Cc1ccc(O)cc1Cl (optimized conformer: 110.45769134359887 kcal/mol)

>  <smiles>  (55) 
C=c1c(=Cc2[nH]c(=O)[nH]c2O)cc(C)n1Cc1ccc(O)cc1Cl

>  <score_type>  (55) 
oracle

>  <origin>  (55) 
adg

>  <m_score__min__energy>  (55) 
-15.609999999999999

>  <m_primary>  (55) 
energy

$$$$
55:0
     RDKit          3D

 45 47  0  0  0  0  0  0  0  0999 V2000
   56.6140   30.0940   45.0900 O   0  0  0  0  0  0  0  0  0  0  0  0
   57.2520   29.9080   44.0090 C   0  0  0  0  0  0  0  0  0  0  0  0
   56.7530   29.0450   42.9150 C   0  0  0  0  0  0  0  0  0  0  0  0
   57.7710   27.5450   42.8700 S   0  0  0  0  0  0  0  0  0  0  0  0
   57.9800   26.9810   44.5520 C   0  0  0  0  0  0  0  0  0  0  0  0
   59.2060   27.1910   45.1060 N   0  0  0  0  0  0  0  0  0  0  0  0
   59.4180   26.7930   46.3560 C   0  0  0  0  0  0  0  0  0  0  0  0
   58.4580   26.1830   47.1040 C   0  0  0  0  0  0  0  0  0  0  0  0
   57.2220   25.9750   46.5380 C   0  0  0  0  0  0  0  0  0  0  0  0
   56.2640   25.4210   47.1380 O   0  0  0  0  0  0  0  0  0  0  0  0
   57.0070   26.3850   45.2560 N   0  0  0  0  0  0  0  0  0  0  0  0
   58.5060   30.6020   43.9200 N   0  0  0  0  0  0  0  0  0  0  0  0
   58.8570   31.3950   45.0490 C   0  0  0  0  0  0  0  0  0  0  0  0
   58.5290   32.7360   45.1550 C   0  0  0  0  0  0  0  0  0  0  0  0
   58.8830   33.4920   46.2700 C   0  0  0  0  0  0  0  0  0  0  0  0
   59.5830   32.8470   47.2780 C   0  0  0  0  0  0  0  0  0  0  0  0
   60.0960   33.6560   48.7340 S   0  0  0  0  0  0  0  0  0  0  0  0
   59.3700   34.9550   48.9610 O   0  0  0  0  0  0  0  0  0  0  0  0
   59.7030   32.7790   49.9160 O   0  0  0  0  0  0  0  0  0  0  0  0
   61.7470   33.9380   48.8240 N   0  0  0  0  0  0  0  0  0  0  0  0
   62.5000   33.9100   47.6190 C   0  0  0  0  0  0  0  0  0  0  0  0
   63.3230   32.6380   47.6000 C   0  0  0  0  0  0  0  0  0  0  0  0
   62.6550   31.5670   48.2030 O   0  0  0  0  0  0  0  0  0  0  0  0
   62.4240   31.7750   49.5420 C   0  0  0  0  0  0  0  0  0  0  0  0
   62.4450   33.2730   49.8710 C   0  0  0  0  0  0  0  0  0  0  0  0
   59.9140   31.4930   47.1700 C   0  0  0  0  0  0  0  0  0  0  0  0
   59.5600   30.7490   46.0640 C   0  0  0  0  0  0  0  0  0  0  0  0
   55.7025   28.7770   43.1014 H   0  0  0  0  0  0  0  0  0  0  0  0
   56.8144   29.5757   41.9534 H   0  0  0  0  0  0  0  0  0  0  0  0
   60.4082   26.9631   46.8039 H   0  0  0  0  0  0  0  0  0  0  0  0
   58.6659   25.8642   48.1361 H   0  0  0  0  0  0  0  0  0  0  0  0
   56.0850   26.2310   44.8240 H   0  0  0  0  0  0  0  0  0  0  0  0
   59.1020   30.5100   43.0680 H   0  0  0  0  0  0  0  0  0  0  0  0
   57.9738   33.2174   44.3365 H   0  0  0  0  0  0  0  0  0  0  0  0
   58.6181   34.5568   46.3476 H   0  0  0  0  0  0  0  0  0  0  0  0
   61.8194   33.9253   46.7550 H   0  0  0  0  0  0  0  0  0  0  0  0
   63.1598   34.7884   47.5647 H   0  0  0  0  0  0  0  0  0  0  0  0
   63.5438   32.3746   46.5551 H   0  0  0  0  0  0  0  0  0  0  0  0
   64.2454   32.8242   48.1696 H   0  0  0  0  0  0  0  0  0  0  0  0
   61.4399   31.3612   49.8069 H   0  0  0  0  0  0  0  0  0  0  0  0
   63.2166   31.2758   50.1187 H   0  0  0  0  0  0  0  0  0  0  0  0
   61.9453   33.4555   50.8338 H   0  0  0  0  0  0  0  0  0  0  0  0
   63.4777   33.6431   49.9517 H   0  0  0  0  0  0  0  0  0  0  0  0
   60.4701   31.0095   47.9867 H   0  0  0  0  0  0  0  0  0  0  0  0
   59.8232   29.6838   45.9859 H   0  0  0  0  0  0  0  0  0  0  0  0
  1  2  2  0
  2  3  1  0
  3  4  1  0
  4  5  1  0
  5  6  2  0
  6  7  1  0
  7  8  2  0
  8  9  1  0
  9 10  2  0
  9 11  1  0
  2 12  1  0
 12 13  1  0
 13 14  2  0
 14 15  1  0
 15 16  2  0
 16 17  1  0
 17 18  2  0
 17 19  2  0
 17 20  1  0
 20 21  1  0
 21 22  1  0
 22 23  1  0
 23 24  1  0
 24 25  1  0
 16 26  1  0
 26 27  2  0
 11  5  1  0
 27 13  1  0
 25 20  1  0
  3 28  1  0
  3 29  1  0
  7 30  1  0
  8 31  1  0
 11 32  1  0
 12 33  1  0
 14 34  1  0
 15 35  1  0
 21 36  1  0
 21 37  1  0
 22 38  1  0
 22 39  1  0
 24 40  1  0
 24 41  1  0
 25 42  1  0
 25 43  1  0
 26 44  1  0
 27 45  1  0
M  END
>  <smiles>  (56) 
O=C(CSc1nccc(=O)[nH]1)Nc1ccc(S(=O)(=O)N2CCOCC2)cc1

>  <score_type>  (56) 
oracle

>  <origin>  (56) 
adg

>  <m_score__min__energy>  (56) 
-8.2899999999999991

>  <m_primary>  (56) 
energy

$$$$
56:0
     RDKit          3D

 43 45  0  0  0  0  0  0  0  0999 V2000
   61.3550   26.9200   47.7180 O   0  0  0  0  0  0  0  0  0  0  0  0
   60.2180   27.4490   47.8370 C   0  0  0  0  0  0  0  0  0  0  0  0
   59.9300   28.1930   49.0290 N   0  0  0  0  0  0  0  0  0  0  0  0
   59.4400   29.5410   49.0820 C   0  0  0  0  0  0  0  0  0  0  0  0
   59.3560   30.2480   50.2930 C   0  0  0  0  0  0  0  0  0  0  0  0
   58.8780   31.5610   50.3090 C   0  0  0  0  0  0  0  0  0  0  0  0
   58.4940   32.1820   49.1190 C   0  0  0  0  0  0  0  0  0  0  0  0
   58.5990   31.4950   47.9010 C   0  0  0  0  0  0  0  0  0  0  0  0
   58.0980   32.2530   46.3930 S   0  0  0  0  0  0  0  0  0  0  0  0
   57.4250   31.2400   45.5100 O   0  0  0  0  0  0  0  0  0  0  0  0
   57.1120   33.3430   46.7120 O   0  0  0  0  0  0  0  0  0  0  0  0
   59.5070   32.9250   45.5990 N   0  0  0  0  0  0  0  0  0  0  0  0
   60.6420   33.0610   46.5300 C   0  0  0  0  0  0  0  0  0  0  0  0
   60.4590   34.2440   47.5100 C   0  0  0  0  0  0  0  0  0  0  0  0
   59.4850   35.1850   47.0900 O   0  0  0  0  0  0  0  0  0  0  0  0
   59.6120   35.4340   45.7090 C   0  0  0  0  0  0  0  0  0  0  0  0
   59.1970   34.1920   44.9010 C   0  0  0  0  0  0  0  0  0  0  0  0
   59.0770   30.1770   47.8880 C   0  0  0  0  0  0  0  0  0  0  0  0
   59.2400   27.3320   46.7290 C   0  0  0  0  0  0  0  0  0  0  0  0
   59.5220   27.8630   45.4620 C   0  0  0  0  0  0  0  0  0  0  0  0
   58.5860   27.7360   44.4370 C   0  0  0  0  0  0  0  0  0  0  0  0
   57.4070   27.0930   44.6570 N   0  0  0  0  0  0  0  0  0  0  0  0
   57.1020   26.5500   45.8740 C   0  0  0  0  0  0  0  0  0  0  0  0
   55.8140   25.8510   46.0730 C   0  0  0  0  0  0  0  0  0  0  0  0
   54.7440   26.3360   45.6170 O   0  0  0  0  0  0  0  0  0  0  0  0
   55.7680   24.6500   46.7690 O   0  0  0  0  0  0  0  0  0  0  0  0
   58.0250   26.6600   46.9280 C   0  0  0  0  0  0  0  0  0  0  0  0
   59.6675   29.7665   51.2317 H   0  0  0  0  0  0  0  0  0  0  0  0
   58.8041   32.1065   51.2613 H   0  0  0  0  0  0  0  0  0  0  0  0
   58.1084   33.2120   49.1369 H   0  0  0  0  0  0  0  0  0  0  0  0
   60.7363   32.1317   47.1110 H   0  0  0  0  0  0  0  0  0  0  0  0
   61.5454   33.2551   45.9332 H   0  0  0  0  0  0  0  0  0  0  0  0
   60.1547   33.8416   48.4875 H   0  0  0  0  0  0  0  0  0  0  0  0
   61.4210   34.7753   47.5567 H   0  0  0  0  0  0  0  0  0  0  0  0
   58.9654   36.2796   45.4320 H   0  0  0  0  0  0  0  0  0  0  0  0
   60.6620   35.6723   45.4839 H   0  0  0  0  0  0  0  0  0  0  0  0
   58.1131   34.2370   44.7189 H   0  0  0  0  0  0  0  0  0  0  0  0
   59.7689   34.2014   43.9614 H   0  0  0  0  0  0  0  0  0  0  0  0
   59.1676   29.6385   46.9331 H   0  0  0  0  0  0  0  0  0  0  0  0
   60.4769   28.3771   45.2781 H   0  0  0  0  0  0  0  0  0  0  0  0
   58.8016   28.1580   43.4443 H   0  0  0  0  0  0  0  0  0  0  0  0
   56.7330   27.0190   43.8620 H   0  0  0  0  0  0  0  0  0  0  0  0
   57.7946   26.2191   47.9091 H   0  0  0  0  0  0  0  0  0  0  0  0
  1  2  2  0
  2  3  1  0
  3  4  1  0
  4  5  2  0
  5  6  1  0
  6  7  2  0
  7  8  1  0
  8  9  1  0
  9 10  2  0
  9 11  2  0
  9 12  1  0
 12 13  1  0
 13 14  1  0
 14 15  1  0
 15 16  1  0
 16 17  1  0
  8 18  2  0
  2 19  1  0
 19 20  2  0
 20 21  1  0
 21 22  2  0
 22 23  1  0
 23 24  1  0
 24 25  2  0
 24 26  1  0
 23 27  2  0
 18  4  1  0
 27 19  1  0
 17 12  1  0
  5 28  1  0
  6 29  1  0
  7 30  1  0
 13 31  1  0
 13 32  1  0
 14 33  1  0
 14 34  1  0
 16 35  1  0
 16 36  1  0
 17 37  1  0
 17 38  1  0
 18 39  1  0
 20 40  1  0
 21 41  1  0
 22 42  1  0
 27 43  1  0
M  CHG  3   3  -1  22   1  26  -1
M  END
>  <UniqueID>  (57) 
52

>  <SMILES>  (57) 
O=C([N-]c1cccc(S(=O)(=O)N2CCOCC2)c1)c1cc[nH+]c(C(=O)[O-])c1

>  <Energy>  (57) 
62.88694202933147

>  <Genealogy>  (57) 
O=C([N-]c1cccc(S(=O)(=O)N2CCOCC2)c1)c1cc[nH+]c(C(=O)[O-])c1 (protonated)
O=C([N-]c1cccc(S(=O)(=O)N2CCOCC2)c1)c1cc[nH+]c(C(=O)[O-])c1 (3D coordinates assigned)
O=C([N-]c1cccc(S(=O)(=O)N2CCOCC2)c1)c1cc[nH+]c(C(=O)[O-])c1 (nonaromatic ring conformer: 62.88694202933147 kcal/mol)

>  <smiles>  (57) 
O=C(Nc1cccc(S(=O)(=O)N2CCOCC2)c1)c1ccnc(C(=O)O)c1

>  <score_type>  (57) 
oracle

>  <origin>  (57) 
adg

>  <m_score__min__energy>  (57) 
-11.130000000000001

>  <m_primary>  (57) 
energy

$$$$
57:0
     RDKit          3D

 65 69  0  0  0  0  0  0  0  0999 V2000
   57.3630   25.5610   47.6050 C   0  0  0  0  0  0  0  0  0  0  0  0
   57.6860   25.9980   46.3760 C   0  0  0  0  0  0  0  0  0  0  0  0
   57.3710   25.3740   45.1630 C   0  0  0  0  0  0  0  0  0  0  0  0
   56.6960   24.2200   44.9870 C   0  0  0  0  0  0  0  0  0  0  0  0
   55.2390   24.0820   45.1570 C   0  0  0  0  0  0  0  0  0  0  0  0
   54.5870   22.9140   45.0050 N   0  0  0  0  0  0  0  0  0  0  0  0
   53.3150   23.2170   45.3390 C   0  0  0  0  0  0  0  0  0  0  0  0
   52.3870   22.3690   45.3130 O   0  0  0  0  0  0  0  0  0  0  0  0
   53.1190   24.4990   45.7210 N   0  0  0  0  0  0  0  0  0  0  0  0
   54.3460   25.0300   45.6120 C   0  0  0  0  0  0  0  0  0  0  0  0
   54.6510   26.3370   45.9730 O   0  0  0  0  0  0  0  0  0  0  0  0
   57.9450   26.1500   44.1640 C   0  0  0  0  0  0  0  0  0  0  0  0
   58.5550   27.2170   44.7930 C   0  0  0  0  0  0  0  0  0  0  0  0
   59.2990   28.3090   44.0800 C   0  0  0  0  0  0  0  0  0  0  0  0
   58.4060   27.1240   46.1350 N   0  0  0  0  0  0  0  0  0  0  0  0
   58.8980   28.0720   47.1000 C   0  0  0  0  0  0  0  0  0  0  0  0
   60.0360   27.7760   47.8640 C   0  0  0  0  0  0  0  0  0  0  0  0
   60.5510   28.7200   48.7550 C   0  0  0  0  0  0  0  0  0  0  0  0
   59.9300   29.9710   48.9050 C   0  0  0  0  0  0  0  0  0  0  0  0
   60.5400   31.0130   49.8090 C   0  0  0  0  0  0  0  0  0  0  0  0
   61.5600   31.7810   49.0810 N   0  0  0  0  0  0  0  0  0  0  0  0
   62.9070   31.6870   49.2130 C   0  0  0  0  0  0  0  0  0  0  0  0
   63.6080   30.9170   50.2900 C   0  0  0  0  0  0  0  0  0  0  0  0
   63.5790   32.4000   48.2840 N   0  0  0  0  0  0  0  0  0  0  0  0
   62.6140   32.9580   47.5300 C   0  0  0  0  0  0  0  0  0  0  0  0
   62.8960   33.8680   46.3760 C   0  0  0  0  0  0  0  0  0  0  0  0
   61.3700   32.5950   48.0180 C   0  0  0  0  0  0  0  0  0  0  0  0
   60.0630   33.0370   47.4960 C   0  0  0  0  0  0  0  0  0  0  0  0
   59.4330   33.9610   48.0740 O   0  0  0  0  0  0  0  0  0  0  0  0
   59.5190   32.4270   46.3240 N   0  0  0  0  0  0  0  0  0  0  0  0
   58.7150   33.1580   45.3560 C   0  0  0  0  0  0  0  0  0  0  0  0
   57.9500   32.1820   44.5120 C   0  0  0  0  0  0  0  0  0  0  0  0
   58.0820   32.1990   43.1140 C   0  0  0  0  0  0  0  0  0  0  0  0
   57.3360   31.3180   42.3250 C   0  0  0  0  0  0  0  0  0  0  0  0
   56.4450   30.4240   42.9240 C   0  0  0  0  0  0  0  0  0  0  0  0
   56.2990   30.4090   44.3170 C   0  0  0  0  0  0  0  0  0  0  0  0
   55.4140   29.5200   44.9120 O   0  0  0  0  0  0  0  0  0  0  0  0
   57.0440   31.2890   45.1090 C   0  0  0  0  0  0  0  0  0  0  0  0
   58.7730   30.2550   48.1590 C   0  0  0  0  0  0  0  0  0  0  0  0
   58.2690   29.3160   47.2550 C   0  0  0  0  0  0  0  0  0  0  0  0
   57.6659   26.1380   48.4912 H   0  0  0  0  0  0  0  0  0  0  0  0
   56.7957   24.6262   47.7249 H   0  0  0  0  0  0  0  0  0  0  0  0
   57.2687   23.3262   44.6986 H   0  0  0  0  0  0  0  0  0  0  0  0
   57.9187   25.9527   43.0822 H   0  0  0  0  0  0  0  0  0  0  0  0
   59.7580   28.9827   44.8186 H   0  0  0  0  0  0  0  0  0  0  0  0
   60.0843   27.8665   43.4495 H   0  0  0  0  0  0  0  0  0  0  0  0
   58.5998   28.8779   43.4495 H   0  0  0  0  0  0  0  0  0  0  0  0
   60.5251   26.7961   47.7611 H   0  0  0  0  0  0  0  0  0  0  0  0
   61.4494   28.4822   49.3436 H   0  0  0  0  0  0  0  0  0  0  0  0
   59.7523   31.6960   50.1598 H   0  0  0  0  0  0  0  0  0  0  0  0
   61.0119   30.5123   50.6673 H   0  0  0  0  0  0  0  0  0  0  0  0
   63.2776   31.2799   51.2745 H   0  0  0  0  0  0  0  0  0  0  0  0
   63.3664   29.8482   50.1932 H   0  0  0  0  0  0  0  0  0  0  0  0
   64.6947   31.0575   50.1932 H   0  0  0  0  0  0  0  0  0  0  0  0
   63.2018   34.8549   46.7535 H   0  0  0  0  0  0  0  0  0  0  0  0
   63.7046   33.4432   45.7631 H   0  0  0  0  0  0  0  0  0  0  0  0
   61.9888   33.9749   45.7631 H   0  0  0  0  0  0  0  0  0  0  0  0
   58.0112   33.8172   45.8854 H   0  0  0  0  0  0  0  0  0  0  0  0
   59.3707   33.7658   44.7152 H   0  0  0  0  0  0  0  0  0  0  0  0
   58.7750   32.9082   42.6378 H   0  0  0  0  0  0  0  0  0  0  0  0
   57.4508   31.3288   41.2311 H   0  0  0  0  0  0  0  0  0  0  0  0
   55.8583   29.7321   42.3019 H   0  0  0  0  0  0  0  0  0  0  0  0
   56.9203   31.2820   46.2020 H   0  0  0  0  0  0  0  0  0  0  0  0
   58.2620   31.2206   48.2873 H   0  0  0  0  0  0  0  0  0  0  0  0
   57.3739   29.5539   46.6616 H   0  0  0  0  0  0  0  0  0  0  0  0
  1  2  2  0
  2  3  1  0
  3  4  2  3
  4  5  1  0
  5  6  1  0
  6  7  1  0
  7  8  2  0
  7  9  1  0
  9 10  1  0
 10 11  1  0
  3 12  1  0
 12 13  2  0
 13 14  1  0
 13 15  1  0
 15 16  1  0
 16 17  2  0
 17 18  1  0
 18 19  2  0
 19 20  1  0
 20 21  1  0
 21 22  1  0
 22 23  1  0
 22 24  2  0
 24 25  1  0
 25 26  1  0
 25 27  2  0
 27 28  1  0
 28 29  2  0
 28 30  1  0
 30 31  1  0
 31 32  1  0
 32 33  2  0
 33 34  1  0
 34 35  2  0
 35 36  1  0
 36 37  1  0
 36 38  2  0
 19 39  1  0
 39 40  2  0
 15  2  1  0
 40 16  1  0
 10  5  2  0
 27 21  1  0
 38 32  1  0
  1 41  1  0
  1 42  1  0
  4 43  1  0
 12 44  1  0
 14 45  1  0
 14 46  1  0
 14 47  1  0
 17 48  1  0
 18 49  1  0
 20 50  1  0
 20 51  1  0
 23 52  1  0
 23 53  1  0
 23 54  1  0
 26 55  1  0
 26 56  1  0
 26 57  1  0
 31 58  1  0
 31 59  1  0
 33 60  1  0
 34 61  1  0
 35 62  1  0
 38 63  1  0
 39 64  1  0
 40 65  1  0
M  CHG  5   6  -1   9  -1  11  -1  30  -1  37  -1
M  END
>  <UniqueID>  (58) 
53

>  <SMILES>  (58) 
C=c1c(=Cc2[n-]c(=O)[n-]c2[O-])cc(C)n1-c1ccc(Cn2c(C)nc(C)c2C(=O)[N-]Cc2cccc([O-])c2)cc1

>  <Energy>  (58) 
168.23701964051673

>  <Genealogy>  (58) 
C=c1c(=Cc2[n-]c(=O)[n-]c2[O-])cc(C)n1-c1ccc(Cn2c(C)nc(C)c2C(=O)[N-]Cc2cccc([O-])c2)cc1 (protonated)
C=c1c(=Cc2[n-]c(=O)[n-]c2[O-])cc(C)n1-c1ccc(Cn2c(C)nc(C)c2C(=O)[N-]Cc2cccc([O-])c2)cc1 (3D coordinates assigned)
C=c1c(=Cc2[n-]c(=O)[n-]c2[O-])cc(C)n1-c1ccc(Cn2c(C)nc(C)c2C(=O)[N-]Cc2cccc([O-])c2)cc1 (optimized conformer: 168.23701964051673 kcal/mol)

>  <smiles>  (58) 
C=c1c(=Cc2[nH]c(=O)[nH]c2O)cc(C)n1-c1ccc(Cn2c(C)nc(C)c2C(=O)NCc2cccc(O)c2)cc1

>  <score_type>  (58) 
oracle

>  <origin>  (58) 
adg

>  <m_score__min__energy>  (58) 
-22.309999999999999

>  <m_primary>  (58) 
energy

$$$$
58:0
     RDKit          3D

 41 43  0  0  0  0  0  0  0  0999 V2000
   60.4320   33.8800   49.4510 C   0  0  0  0  0  0  0  0  0  0  0  0
   59.7740   32.7610   50.0310 O   0  0  0  0  0  0  0  0  0  0  0  0
   59.9200   31.4600   49.5410 C   0  0  0  0  0  0  0  0  0  0  0  0
   60.9260   31.1840   48.6130 C   0  0  0  0  0  0  0  0  0  0  0  0
   61.0700   29.8850   48.1210 C   0  0  0  0  0  0  0  0  0  0  0  0
   60.2000   28.8760   48.5430 C   0  0  0  0  0  0  0  0  0  0  0  0
   60.3760   27.5430   48.0410 N   0  0  0  0  0  0  0  0  0  0  0  0
   59.7040   26.9720   46.9120 C   0  0  0  0  0  0  0  0  0  0  0  0
   60.0460   25.8260   46.5210 O   0  0  0  0  0  0  0  0  0  0  0  0
   58.7050   27.7380   46.1380 C   0  0  0  0  0  0  0  0  0  0  0  0
   57.0460   27.4570   46.2180 S   0  0  0  0  0  0  0  0  0  0  0  0
   56.6780   28.7350   45.2040 C   0  0  0  0  0  0  0  0  0  0  0  0
   55.5050   29.0470   44.8670 O   0  0  0  0  0  0  0  0  0  0  0  0
   57.7850   29.4020   44.7910 N   0  0  0  0  0  0  0  0  0  0  0  0
   57.7160   30.6030   43.9420 C   0  0  0  0  0  0  0  0  0  0  0  0
   58.0070   31.8390   44.7550 C   0  0  0  0  0  0  0  0  0  0  0  0
   58.0690   31.7740   46.1580 C   0  0  0  0  0  0  0  0  0  0  0  0
   58.3600   32.9200   46.9040 C   0  0  0  0  0  0  0  0  0  0  0  0
   58.5930   34.1370   46.2580 C   0  0  0  0  0  0  0  0  0  0  0  0
   58.8760   35.2470   46.9840 F   0  0  0  0  0  0  0  0  0  0  0  0
   58.5370   34.2090   44.8630 C   0  0  0  0  0  0  0  0  0  0  0  0
   58.2460   33.0650   44.1130 C   0  0  0  0  0  0  0  0  0  0  0  0
   58.9330   28.8400   45.2950 C   0  0  0  0  0  0  0  0  0  0  0  0
   60.3120   29.3290   44.9290 C   0  0  0  0  0  0  0  0  0  0  0  0
   59.2160   29.1870   49.4960 C   0  0  0  0  0  0  0  0  0  0  0  0
   59.0970   30.4590   49.9630 N   0  0  0  0  0  0  0  0  0  0  0  0
   60.8161   34.5333   50.2483 H   0  0  0  0  0  0  0  0  0  0  0  0
   61.2687   33.5310   48.8280 H   0  0  0  0  0  0  0  0  0  0  0  0
   59.7203   34.4415   48.8280 H   0  0  0  0  0  0  0  0  0  0  0  0
   61.6000   31.9837   48.2720 H   0  0  0  0  0  0  0  0  0  0  0  0
   61.8690   29.6558   47.4006 H   0  0  0  0  0  0  0  0  0  0  0  0
   58.4570   30.5183   43.1334 H   0  0  0  0  0  0  0  0  0  0  0  0
   56.7034   30.6838   43.5199 H   0  0  0  0  0  0  0  0  0  0  0  0
   57.8879   30.8178   46.6707 H   0  0  0  0  0  0  0  0  0  0  0  0
   58.4056   32.8636   48.0016 H   0  0  0  0  0  0  0  0  0  0  0  0
   58.7221   35.1667   44.3546 H   0  0  0  0  0  0  0  0  0  0  0  0
   58.2041   33.1257   43.0155 H   0  0  0  0  0  0  0  0  0  0  0  0
   60.8844   29.5320   45.8461 H   0  0  0  0  0  0  0  0  0  0  0  0
   60.8288   28.5593   44.3370 H   0  0  0  0  0  0  0  0  0  0  0  0
   60.2285   30.2523   44.3370 H   0  0  0  0  0  0  0  0  0  0  0  0
   58.5408   28.4009   49.8651 H   0  0  0  0  0  0  0  0  0  0  0  0
  1  2  1  0
  2  3  1  0
  3  4  2  0
  4  5  1  0
  5  6  2  0
  6  7  1  0
  7  8  1  0
  8  9  2  0
  8 10  1  0
 10 11  1  0
 11 12  1  0
 12 13  2  0
 12 14  1  0
 14 15  1  0
 15 16  1  0
 16 17  2  0
 17 18  1  0
 18 19  2  0
 19 20  1  0
 19 21  1  0
 21 22  2  0
 14 23  1  0
 23 24  1  0
  6 25  1  0
 25 26  2  0
 26  3  1  0
 23 10  2  0
 22 16  1  0
  1 27  1  0
  1 28  1  0
  1 29  1  0
  4 30  1  0
  5 31  1  0
 15 32  1  0
 15 33  1  0
 17 34  1  0
 18 35  1  0
 21 36  1  0
 22 37  1  0
 24 38  1  0
 24 39  1  0
 24 40  1  0
 25 41  1  0
M  CHG  1   7  -1
M  END
>  <UniqueID>  (59) 
54

>  <SMILES>  (59) 
COc1ccc([N-]C(=O)c2sc(=O)n(Cc3ccc(F)cc3)c2C)cn1

>  <Energy>  (59) 
81.04789018345197

>  <Genealogy>  (59) 
COc1ccc([N-]C(=O)c2sc(=O)n(Cc3ccc(F)cc3)c2C)cn1 (protonated)
COc1ccc([N-]C(=O)c2sc(=O)n(Cc3ccc(F)cc3)c2C)cn1 (3D coordinates assigned)
COc1ccc([N-]C(=O)c2sc(=O)n(Cc3ccc(F)cc3)c2C)cn1 (optimized conformer: 81.04789018345197 kcal/mol)

>  <smiles>  (59) 
COc1ccc(NC(=O)c2sc(=O)n(Cc3ccc(F)cc3)c2C)cn1

>  <score_type>  (59) 
oracle

>  <origin>  (59) 
adg

>  <m_score__min__energy>  (59) 
-8.9299999999999997

>  <m_primary>  (59) 
energy

$$$$
59:0
     RDKit          3D

 62 65  0  0  0  0  0  0  0  0999 V2000
   58.9740   31.4790   47.6850 O   0  0  0  0  0  0  0  0  0  0  0  0
   58.7190   32.7120   47.7060 C   0  0  0  0  0  0  0  0  0  0  0  0
   58.9850   33.4470   48.9060 N   0  0  0  0  0  0  0  0  0  0  0  0
   59.1200   32.8900   50.2200 C   0  0  0  0  0  0  0  0  0  0  0  0
   60.1930   33.2360   51.0590 C   0  0  0  0  0  0  0  0  0  0  0  0
   60.2650   32.7220   52.3560 C   0  0  0  0  0  0  0  0  0  0  0  0
   59.2620   31.8720   52.8310 C   0  0  0  0  0  0  0  0  0  0  0  0
   58.1760   31.5390   52.0110 C   0  0  0  0  0  0  0  0  0  0  0  0
   56.8740   30.5180   52.6140 S   0  0  0  0  0  0  0  0  0  0  0  0
   56.9680   30.3770   54.1090 O   0  0  0  0  0  0  0  0  0  0  0  0
   56.9890   29.1540   51.9960 O   0  0  0  0  0  0  0  0  0  0  0  0
   55.3460   31.2190   52.1770 N   0  0  0  0  0  0  0  0  0  0  0  0
   54.3400   30.1810   51.9440 C   0  0  0  0  0  0  0  0  0  0  0  0
   52.9370   30.7790   52.0570 C   0  0  0  0  0  0  0  0  0  0  0  0
   52.2320   30.7710   50.7200 C   0  0  0  0  0  0  0  0  0  0  0  0
   52.4630   29.7150   49.8210 C   0  0  0  0  0  0  0  0  0  0  0  0
   51.8030   29.6770   48.5890 C   0  0  0  0  0  0  0  0  0  0  0  0
   50.9030   30.6870   48.2460 C   0  0  0  0  0  0  0  0  0  0  0  0
   50.6520   31.7320   49.1370 C   0  0  0  0  0  0  0  0  0  0  0  0
   51.3070   31.7770   50.3740 C   0  0  0  0  0  0  0  0  0  0  0  0
   51.0300   32.8210   51.2510 O   0  0  0  0  0  0  0  0  0  0  0  0
   58.1030   32.0620   50.7120 C   0  0  0  0  0  0  0  0  0  0  0  0
   58.1990   33.3710   46.5370 N   0  0  0  0  0  0  0  0  0  0  0  0
   57.9360   32.7080   45.2890 C   0  0  0  0  0  0  0  0  0  0  0  0
   58.2910   33.3420   44.0890 C   0  0  0  0  0  0  0  0  0  0  0  0
   58.0760   32.7070   42.8630 C   0  0  0  0  0  0  0  0  0  0  0  0
   57.5180   31.4270   42.8240 C   0  0  0  0  0  0  0  0  0  0  0  0
   57.1710   30.7720   44.0150 C   0  0  0  0  0  0  0  0  0  0  0  0
   56.6220   29.3710   43.9700 C   0  0  0  0  0  0  0  0  0  0  0  0
   57.5860   28.4220   44.5580 N   0  0  0  0  0  0  0  0  0  0  0  0
   57.3730   28.2610   45.9980 C   0  0  0  0  0  0  0  0  0  0  0  0
   58.7040   27.8260   46.5890 C   0  0  0  0  0  0  0  0  0  0  0  0
   59.7540   28.2500   45.5740 C   0  0  0  0  0  0  0  0  0  0  0  0
   58.9760   28.8720   44.4230 C   0  0  0  0  0  0  0  0  0  0  0  0
   57.3980   31.4100   45.2460 C   0  0  0  0  0  0  0  0  0  0  0  0
   60.9786   33.9136   50.6933 H   0  0  0  0  0  0  0  0  0  0  0  0
   61.1128   32.9867   53.0049 H   0  0  0  0  0  0  0  0  0  0  0  0
   59.3256   31.4639   53.8505 H   0  0  0  0  0  0  0  0  0  0  0  0
   54.4769   29.7604   50.9369 H   0  0  0  0  0  0  0  0  0  0  0  0
   54.4570   29.3885   52.6978 H   0  0  0  0  0  0  0  0  0  0  0  0
   52.3511   30.1870   52.7755 H   0  0  0  0  0  0  0  0  0  0  0  0
   53.0281   31.8210   52.3974 H   0  0  0  0  0  0  0  0  0  0  0  0
   53.1674   28.9136   50.0886 H   0  0  0  0  0  0  0  0  0  0  0  0
   51.9934   28.8500   47.8892 H   0  0  0  0  0  0  0  0  0  0  0  0
   50.3910   30.6596   47.2728 H   0  0  0  0  0  0  0  0  0  0  0  0
   49.9371   32.5230   48.8664 H   0  0  0  0  0  0  0  0  0  0  0  0
   57.2401   31.8201   50.0742 H   0  0  0  0  0  0  0  0  0  0  0  0
   57.9480   34.3820   46.6030 H   0  0  0  0  0  0  0  0  0  0  0  0
   58.7414   34.3453   44.1133 H   0  0  0  0  0  0  0  0  0  0  0  0
   58.3468   33.2163   41.9264 H   0  0  0  0  0  0  0  0  0  0  0  0
   57.3502   30.9312   41.8565 H   0  0  0  0  0  0  0  0  0  0  0  0
   55.6816   29.3318   44.5392 H   0  0  0  0  0  0  0  0  0  0  0  0
   56.4410   29.0921   42.9214 H   0  0  0  0  0  0  0  0  0  0  0  0
   57.0539   29.2149   46.4433 H   0  0  0  0  0  0  0  0  0  0  0  0
   56.5874   27.5185   46.2018 H   0  0  0  0  0  0  0  0  0  0  0  0
   58.8780   28.3246   47.5540 H   0  0  0  0  0  0  0  0  0  0  0  0
   58.7328   26.7430   46.7794 H   0  0  0  0  0  0  0  0  0  0  0  0
   60.4414   28.9862   46.0161 H   0  0  0  0  0  0  0  0  0  0  0  0
   60.3675   27.3999   45.2408 H   0  0  0  0  0  0  0  0  0  0  0  0
   59.0261   29.9693   44.4815 H   0  0  0  0  0  0  0  0  0  0  0  0
   59.3965   28.5683   43.4530 H   0  0  0  0  0  0  0  0  0  0  0  0
   57.1528   30.8897   46.1836 H   0  0  0  0  0  0  0  0  0  0  0  0
  1  2  2  0
  2  3  1  0
  3  4  1  0
  4  5  2  0
  5  6  1  0
  6  7  2  0
  7  8  1  0
  8  9  1  0
  9 10  2  0
  9 11  2  0
  9 12  1  0
 12 13  1  0
 13 14  1  0
 14 15  1  0
 15 16  2  0
 16 17  1  0
 17 18  2  0
 18 19  1  0
 19 20  2  0
 20 21  1  0
  8 22  2  0
  2 23  1  0
 23 24  1  0
 24 25  2  0
 25 26  1  0
 26 27  2  0
 27 28  1  0
 28 29  1  0
 29 30  1  0
 30 31  1  0
 31 32  1  0
 32 33  1  0
 33 34  1  0
 28 35  2  0
 22  4  1  0
 35 24  1  0
 20 15  1  0
 34 30  1  0
  5 36  1  0
  6 37  1  0
  7 38  1  0
 13 39  1  0
 13 40  1  0
 14 41  1  0
 14 42  1  0
 16 43  1  0
 17 44  1  0
 18 45  1  0
 19 46  1  0
 22 47  1  0
 23 48  1  0
 25 49  1  0
 26 50  1  0
 27 51  1  0
 29 52  1  0
 29 53  1  0
 31 54  1  0
 31 55  1  0
 32 56  1  0
 32 57  1  0
 33 58  1  0
 33 59  1  0
 34 60  1  0
 34 61  1  0
 35 62  1  0
M  CHG  3   3  -1  12  -1  21  -1
M  END
>  <UniqueID>  (60) 
55

>  <SMILES>  (60) 
O=C([N-]c1cccc(S(=O)(=O)[N-]CCc2ccccc2[O-])c1)Nc1cccc(CN2CCCC2)c1

>  <Energy>  (60) 
67.85314707517459

>  <Genealogy>  (60) 
O=C([N-]c1cccc(S(=O)(=O)[N-]CCc2ccccc2[O-])c1)Nc1cccc(CN2CCCC2)c1 (protonated)
O=C([N-]c1cccc(S(=O)(=O)[N-]CCc2ccccc2[O-])c1)Nc1cccc(CN2CCCC2)c1 (3D coordinates assigned)
O=C([N-]c1cccc(S(=O)(=O)[N-]CCc2ccccc2[O-])c1)Nc1cccc(CN2CCCC2)c1 (nonaromatic ring conformer: 67.85314707517459 kcal/mol)

>  <smiles>  (60) 
O=C(Nc1cccc(CN2CCCC2)c1)Nc1cccc(S(=O)(=O)NCCc2ccccc2O)c1

>  <score_type>  (60) 
oracle

>  <origin>  (60) 
adg

>  <m_score__min__energy>  (60) 
-16.609999999999999

>  <m_primary>  (60) 
energy

$$$$
60:0
     RDKit          3D

 46 49  0  0  0  0  0  0  0  0999 V2000
   62.6027   34.2560   51.9737 H   0  0  0  0  0  0  0  0  0  0  0  0
   63.1560   33.7990   51.1400 C   0  0  0  0  0  0  0  0  0  0  0  0
   64.1650   32.8660   51.4010 C   0  0  0  0  0  0  0  0  0  0  0  0
   64.4068   32.5963   52.4396 H   0  0  0  0  0  0  0  0  0  0  0  0
   64.8720   32.2710   50.3390 C   0  0  0  0  0  0  0  0  0  0  0  0
   65.8880   31.3270   50.5470 O   0  0  0  0  0  0  0  0  0  0  0  0
   66.3870   30.9520   51.8270 C   0  0  0  0  0  0  0  0  0  0  0  0
   65.7703   31.4155   52.6111 H   0  0  0  0  0  0  0  0  0  0  0  0
   66.3485   29.8574   51.9293 H   0  0  0  0  0  0  0  0  0  0  0  0
   67.4277   31.2934   51.9293 H   0  0  0  0  0  0  0  0  0  0  0  0
   64.5560   32.6300   49.0220 C   0  0  0  0  0  0  0  0  0  0  0  0
   65.0986   32.1636   48.1865 H   0  0  0  0  0  0  0  0  0  0  0  0
   63.5550   33.5780   48.7560 C   0  0  0  0  0  0  0  0  0  0  0  0
   63.2030   33.9330   47.3360 C   0  0  0  0  0  0  0  0  0  0  0  0
   63.2827   35.0220   47.2029 H   0  0  0  0  0  0  0  0  0  0  0  0
   63.8977   33.4204   46.6543 H   0  0  0  0  0  0  0  0  0  0  0  0
   61.8050   33.4980   47.0280 C   0  0  0  0  0  0  0  0  0  0  0  0
   60.5060   34.5320   46.7400 S   0  0  0  0  0  0  0  0  0  0  0  0
   59.4130   33.2650   46.5800 C   0  0  0  0  0  0  0  0  0  0  0  0
   58.1560   33.4490   46.2920 N   0  0  0  0  0  0  0  0  0  0  0  0
   57.5790   33.8250   45.0320 C   0  0  0  0  0  0  0  0  0  0  0  0
   56.9860   34.9270   44.8810 O   0  0  0  0  0  0  0  0  0  0  0  0
   57.7070   32.8970   43.8660 C   0  0  0  0  0  0  0  0  0  0  0  0
   56.8949   33.0947   43.1508 H   0  0  0  0  0  0  0  0  0  0  0  0
   58.6787   33.0596   43.3768 H   0  0  0  0  0  0  0  0  0  0  0  0
   57.6210   31.4800   44.3360 C   0  0  0  0  0  0  0  0  0  0  0  0
   56.4100   30.8610   44.4140 N   0  0  0  0  0  0  0  0  0  0  0  0
   56.3030   29.5640   44.8020 C   0  0  0  0  0  0  0  0  0  0  0  0
   55.1610   29.0310   44.8640 O   0  0  0  0  0  0  0  0  0  0  0  0
   57.4620   28.8350   45.1240 C   0  0  0  0  0  0  0  0  0  0  0  0
   57.4180   27.4900   45.5320 C   0  0  0  0  0  0  0  0  0  0  0  0
   56.4516   26.9707   45.6118 H   0  0  0  0  0  0  0  0  0  0  0  0
   58.6060   26.8110   45.8370 C   0  0  0  0  0  0  0  0  0  0  0  0
   58.5490   25.1340   46.3480 Cl  0  0  0  0  0  0  0  0  0  0  0  0
   59.8370   27.4690   45.7350 C   0  0  0  0  0  0  0  0  0  0  0  0
   60.7668   26.9325   45.9751 H   0  0  0  0  0  0  0  0  0  0  0  0
   59.8890   28.8060   45.3290 C   0  0  0  0  0  0  0  0  0  0  0  0
   60.8589   29.3186   45.2483 H   0  0  0  0  0  0  0  0  0  0  0  0
   58.7070   29.4930   45.0250 C   0  0  0  0  0  0  0  0  0  0  0  0
   58.7570   30.7920   44.6310 N   0  0  0  0  0  0  0  0  0  0  0  0
   60.0170   32.0610   46.7390 N   0  0  0  0  0  0  0  0  0  0  0  0
   59.5630   31.1280   46.6500 H   0  0  0  0  0  0  0  0  0  0  0  0
   61.3450   32.1860   46.9980 C   0  0  0  0  0  0  0  0  0  0  0  0
   62.0021   31.3207   47.1698 H   0  0  0  0  0  0  0  0  0  0  0  0
   62.8490   34.1520   49.8240 C   0  0  0  0  0  0  0  0  0  0  0  0
   62.0511   34.8824   49.6242 H   0  0  0  0  0  0  0  0  0  0  0  0
  1  2  1  0
  2  3  2  0
  3  4  1  0
  3  5  1  0
  5  6  1  0
  6  7  1  0
  7  8  1  0
  7  9  1  0
  7 10  1  0
  5 11  2  0
 11 12  1  0
 11 13  1  0
 13 14  1  0
 14 15  1  0
 14 16  1  0
 14 17  1  0
 17 18  1  0
 18 19  1  0
 19 20  2  0
 20 21  1  0
 21 22  2  0
 21 23  1  0
 23 24  1  0
 23 25  1  0
 23 26  1  0
 26 27  2  0
 27 28  1  0
 28 29  2  0
 28 30  1  0
 30 31  2  0
 31 32  1  0
 31 33  1  0
 33 34  1  0
 33 35  2  0
 35 36  1  0
 35 37  1  0
 37 38  1  0
 37 39  2  0
 39 40  1  0
 19 41  1  0
 41 42  1  0
 41 43  1  0
 43 44  1  0
 13 45  2  0
 45 46  1  0
 45  2  1  0
 43 17  2  0
 40 26  1  0
 39 30  1  0
M  CHG  1  40  -1
M  END
>  <UniqueID>  (61) 
56

>  <SMILES>  (61) 
COc1cccc(Cc2c[nH]/c(=N\C(=O)Cc3nc(=O)c4cc(Cl)ccc4[n-]3)s2)c1

>  <Energy>  (61) 
84.74491271747948

>  <Genealogy>  (61) 
COc1cccc(Cc2c[nH]c(=NC(=O)Cc3nc(=O)c4cc(Cl)ccc4[n-]3)s2)c1 (protonated)
COc1cccc(Cc2c[nH]/c(=N\C(=O)Cc3nc(=O)c4cc(Cl)ccc4[n-]3)s2)c1 (cis-trans isomerization)
COc1cccc(Cc2c[nH]/c(=N\C(=O)Cc3nc(=O)c4cc(Cl)ccc4[n-]3)s2)c1 (3D coordinates assigned)
COc1cccc(Cc2c[nH]/c(=N\C(=O)Cc3nc(=O)c4cc(Cl)ccc4[n-]3)s2)c1 (optimized conformer: 84.74491271747948 kcal/mol)

>  <smiles>  (61) 
COc1cccc(Cc2c[nH]c(=NC(=O)Cc3nc(=O)c4cc(Cl)ccc4[nH]3)s2)c1

>  <score_type>  (61) 
oracle

>  <origin>  (61) 
adg

>  <m_score__min__energy>  (61) 
-10.59

>  <m_primary>  (61) 
energy

$$$$
61:0
     RDKit          3D

 37 40  0  0  0  0  0  0  0  0999 V2000
   55.6950   26.8930   45.1910 H   0  0  0  0  0  0  0  0  0  0  0  0
   54.9880   26.3430   45.6630 O   0  0  0  0  0  0  0  0  0  0  0  0
   55.0110   24.9490   45.6470 C   0  0  0  0  0  0  0  0  0  0  0  0
   53.7980   24.2430   45.6020 C   0  0  0  0  0  0  0  0  0  0  0  0
   52.8473   24.7932   45.5443 H   0  0  0  0  0  0  0  0  0  0  0  0
   53.7910   22.8480   45.6300 C   0  0  0  0  0  0  0  0  0  0  0  0
   52.8369   22.3018   45.5914 H   0  0  0  0  0  0  0  0  0  0  0  0
   54.9940   22.1460   45.7070 C   0  0  0  0  0  0  0  0  0  0  0  0
   54.9868   21.0464   45.7371 H   0  0  0  0  0  0  0  0  0  0  0  0
   56.2070   22.8360   45.7460 C   0  0  0  0  0  0  0  0  0  0  0  0
   57.1509   22.2749   45.8110 H   0  0  0  0  0  0  0  0  0  0  0  0
   56.2340   24.2420   45.7030 C   0  0  0  0  0  0  0  0  0  0  0  0
   57.5490   24.9250   45.7370 C   0  0  0  0  0  0  0  0  0  0  0  0
   57.7180   26.1970   45.4670 O   0  0  0  0  0  0  0  0  0  0  0  0
   58.9960   26.4500   45.6170 C   0  0  0  0  0  0  0  0  0  0  0  0
   59.5000   27.6330   45.4250 N   0  0  0  0  0  0  0  0  0  0  0  0
   58.9320   28.8800   45.8550 C   0  0  0  0  0  0  0  0  0  0  0  0
   59.5790   29.6600   46.6050 O   0  0  0  0  0  0  0  0  0  0  0  0
   57.6010   29.2900   45.3760 C   0  0  0  0  0  0  0  0  0  0  0  0
   56.6000   28.4210   45.1440 N   0  0  0  0  0  0  0  0  0  0  0  0
   55.5310   29.1400   44.8330 N   0  0  0  0  0  0  0  0  0  0  0  0
   55.7980   30.4380   44.8550 N   0  0  0  0  0  0  0  0  0  0  0  0
   57.0950   30.5650   45.1890 C   0  0  0  0  0  0  0  0  0  0  0  0
   57.7940   31.8630   45.2590 C   0  0  0  0  0  0  0  0  0  0  0  0
   58.1450   32.5310   44.0740 C   0  0  0  0  0  0  0  0  0  0  0  0
   57.8830   32.0925   43.0998 H   0  0  0  0  0  0  0  0  0  0  0  0
   58.8260   33.7510   44.1280 C   0  0  0  0  0  0  0  0  0  0  0  0
   59.0882   34.2754   43.1973 H   0  0  0  0  0  0  0  0  0  0  0  0
   59.1740   34.3050   45.3630 C   0  0  0  0  0  0  0  0  0  0  0  0
   59.7021   35.2691   45.4041 H   0  0  0  0  0  0  0  0  0  0  0  0
   58.8510   33.6340   46.5460 C   0  0  0  0  0  0  0  0  0  0  0  0
   59.1314   34.0672   47.5174 H   0  0  0  0  0  0  0  0  0  0  0  0
   58.1720   32.4130   46.4960 C   0  0  0  0  0  0  0  0  0  0  0  0
   57.9326   31.8806   47.4284 H   0  0  0  0  0  0  0  0  0  0  0  0
   59.7130   25.3700   45.9960 N   0  0  0  0  0  0  0  0  0  0  0  0
   58.7840   24.3980   46.0720 C   0  0  0  0  0  0  0  0  0  0  0  0
   58.9761   23.3525   46.3550 H   0  0  0  0  0  0  0  0  0  0  0  0
  1  2  1  0
  2  3  1  0
  3  4  2  0
  4  5  1  0
  4  6  1  0
  6  7  1  0
  6  8  2  0
  8  9  1  0
  8 10  1  0
 10 11  1  0
 10 12  2  0
 12 13  1  0
 13 14  1  0
 14 15  1  0
 15 16  2  0
 16 17  1  0
 17 18  2  0
 17 19  1  0
 19 20  2  0
 20 21  1  0
 21 22  1  0
 22 23  2  0
 23 24  1  0
 24 25  2  0
 25 26  1  0
 25 27  1  0
 27 28  1  0
 27 29  2  0
 29 30  1  0
 29 31  1  0
 31 32  1  0
 31 33  2  0
 33 34  1  0
 15 35  1  0
 35 36  1  0
 36 37  1  0
 12  3  1  0
 36 13  2  0
 23 19  1  0
 33 24  1  0
M  CHG  2  21  -1  35  -1
M  END
>  <UniqueID>  (62) 
57

>  <SMILES>  (62) 
O=C(/N=c1\[n-]cc(-c2ccccc2O)o1)c1n[n-]nc1-c1ccccc1

>  <Energy>  (62) 
116.63452021310414

>  <Genealogy>  (62) 
O=C(N=c1[n-]cc(-c2ccccc2O)o1)c1n[n-]nc1-c1ccccc1 (protonated)
O=C(/N=c1\[n-]cc(-c2ccccc2O)o1)c1n[n-]nc1-c1ccccc1 (cis-trans isomerization)
O=C(/N=c1\[n-]cc(-c2ccccc2O)o1)c1n[n-]nc1-c1ccccc1 (3D coordinates assigned)
O=C(/N=c1\[n-]cc(-c2ccccc2O)o1)c1n[n-]nc1-c1ccccc1 (optimized conformer: 116.63452021310414 kcal/mol)

>  <smiles>  (62) 
O=C(N=c1[nH]cc(-c2ccccc2O)o1)c1n[nH]nc1-c1ccccc1

>  <score_type>  (62) 
oracle

>  <origin>  (62) 
adg

>  <m_score__min__energy>  (62) 
-11.51

>  <m_primary>  (62) 
energy

$$$$
62:0
     RDKit          3D

 34 36  0  0  0  0  0  0  0  0999 V2000
   54.3799   27.8366   53.0651 H   0  0  0  0  0  0  0  0  0  0  0  0
   54.5210   28.9220   53.1750 C   0  0  0  0  0  0  0  0  0  0  0  0
   55.8840   29.4750   53.0830 C   0  0  0  0  0  0  0  0  0  0  0  0
   56.7640   29.1550   53.9300 O   0  0  0  0  0  0  0  0  0  0  0  0
   56.1880   30.3790   52.0100 N   0  0  0  0  0  0  0  0  0  0  0  0
   57.3330   30.4970   51.4060 C   0  0  0  0  0  0  0  0  0  0  0  0
   58.2190   29.4890   51.2440 N   0  0  0  0  0  0  0  0  0  0  0  0
   59.3300   29.9000   50.5780 C   0  0  0  0  0  0  0  0  0  0  0  0
   60.1658   29.2220   50.3507 H   0  0  0  0  0  0  0  0  0  0  0  0
   59.3340   31.2490   50.2020 C   0  0  0  0  0  0  0  0  0  0  0  0
   60.4080   31.9700   49.4710 C   0  0  0  0  0  0  0  0  0  0  0  0
   60.7060   31.6450   48.1350 C   0  0  0  0  0  0  0  0  0  0  0  0
   60.1389   30.8512   47.6268 H   0  0  0  0  0  0  0  0  0  0  0  0
   61.6900   32.3050   47.4670 N   0  0  0  0  0  0  0  0  0  0  0  0
   62.4180   33.2900   48.0520 C   0  0  0  0  0  0  0  0  0  0  0  0
   63.3190   33.8740   47.3950 O   0  0  0  0  0  0  0  0  0  0  0  0
   62.1650   33.6490   49.3780 C   0  0  0  0  0  0  0  0  0  0  0  0
   62.9040   34.6540   49.9930 O   0  0  0  0  0  0  0  0  0  0  0  0
   61.1590   32.9880   50.0870 C   0  0  0  0  0  0  0  0  0  0  0  0
   60.9531   33.2646   51.1315 H   0  0  0  0  0  0  0  0  0  0  0  0
   57.8840   31.9310   50.7390 S   0  0  0  0  0  0  0  0  0  0  0  0
   53.4470   29.6960   53.3880 C   0  0  0  0  0  0  0  0  0  0  0  0
   53.0718   29.7916   54.4176 H   0  0  0  0  0  0  0  0  0  0  0  0
   52.7360   30.4310   52.3120 C   0  0  0  0  0  0  0  0  0  0  0  0
   52.7070   29.9810   50.9760 C   0  0  0  0  0  0  0  0  0  0  0  0
   53.2338   29.0558   50.6996 H   0  0  0  0  0  0  0  0  0  0  0  0
   52.0130   30.7030   50.0000 C   0  0  0  0  0  0  0  0  0  0  0  0
   52.0024   30.3481   48.9589 H   0  0  0  0  0  0  0  0  0  0  0  0
   51.3330   31.8740   50.3440 C   0  0  0  0  0  0  0  0  0  0  0  0
   50.6460   32.5870   49.3680 O   0  0  0  0  0  0  0  0  0  0  0  0
   51.3410   32.3230   51.6700 C   0  0  0  0  0  0  0  0  0  0  0  0
   50.6610   33.4840   52.0180 O   0  0  0  0  0  0  0  0  0  0  0  0
   52.0340   31.6020   52.6470 C   0  0  0  0  0  0  0  0  0  0  0  0
   52.0299   31.9547   53.6889 H   0  0  0  0  0  0  0  0  0  0  0  0
  1  2  1  0
  2  3  1  0
  3  4  2  0
  3  5  1  0
  5  6  2  3
  6  7  1  0
  7  8  1  0
  8  9  1  0
  8 10  2  0
 10 11  1  0
 11 12  2  0
 12 13  1  0
 12 14  1  0
 14 15  1  0
 15 16  2  0
 15 17  1  0
 17 18  1  0
 17 19  2  0
 19 20  1  0
 10 21  1  0
  2 22  2  0
 22 23  1  0
 22 24  1  0
 24 25  2  0
 25 26  1  0
 25 27  1  0
 27 28  1  0
 27 29  2  0
 29 30  1  0
 29 31  1  0
 31 32  1  0
 31 33  2  0
 33 34  1  0
 21  6  1  0
 33 24  1  0
 19 11  1  0
M  CHG  5   7  -1  14  -1  18  -1  30  -1  32  -1
M  END
>  <UniqueID>  (63) 
58

>  <SMILES>  (63) 
O=C(/C=C/c1ccc([O-])c([O-])c1)N=c1[n-]cc(-c2c[n-]c(=O)c([O-])c2)s1

>  <Energy>  (63) 
74.71839947961497

>  <Genealogy>  (63) 
O=C(C=Cc1ccc([O-])c([O-])c1)N=c1[n-]cc(-c2c[n-]c(=O)c([O-])c2)s1 (protonated)
O=C(/C=C/c1ccc([O-])c([O-])c1)N=c1[n-]cc(-c2c[n-]c(=O)c([O-])c2)s1 (cis-trans isomerization)
O=C(/C=C/c1ccc([O-])c([O-])c1)N=c1[n-]cc(-c2c[n-]c(=O)c([O-])c2)s1 (3D coordinates assigned)
O=C(/C=C/c1ccc([O-])c([O-])c1)N=c1[n-]cc(-c2c[n-]c(=O)c([O-])c2)s1 (optimized conformer: 74.71839947961497 kcal/mol)

>  <smiles>  (63) 
O=C(C=Cc1ccc(O)c(O)c1)N=c1[nH]cc(-c2c[nH]c(=O)c(O)c2)s1

>  <score_type>  (63) 
oracle

>  <origin>  (63) 
adg

>  <m_score__min__energy>  (63) 
-18.579999999999998

>  <m_primary>  (63) 
energy

$$$$
63:0
     RDKit          3D

 43 44  0  0  0  0  0  0  0  0999 V2000
   55.8130   23.8320   45.8030 C   0  0  0  0  0  0  0  0  0  0  0  0
   56.0490   25.2870   45.7410 C   0  0  0  0  0  0  0  0  0  0  0  0
   55.1430   26.1290   45.9890 O   0  0  0  0  0  0  0  0  0  0  0  0
   57.3280   25.7770   45.3930 N   0  0  0  0  0  0  0  0  0  0  0  0
   57.6540   27.1580   45.3070 C   0  0  0  0  0  0  0  0  0  0  0  0
   57.8260   27.8270   44.1140 C   0  0  0  0  0  0  0  0  0  0  0  0
   58.1460   29.1860   44.1180 C   0  0  0  0  0  0  0  0  0  0  0  0
   58.3040   29.9210   45.2490 C   0  0  0  0  0  0  0  0  0  0  0  0
   58.6230   31.2800   45.3350 N   0  0  0  0  0  0  0  0  0  0  0  0
   57.7360   32.3670   45.1440 C   0  0  0  0  0  0  0  0  0  0  0  0
   56.5280   32.2080   44.8650 O   0  0  0  0  0  0  0  0  0  0  0  0
   58.2210   33.7680   45.2680 C   0  0  0  0  0  0  0  0  0  0  0  0
   59.5410   33.8180   45.7730 O   0  0  0  0  0  0  0  0  0  0  0  0
   59.8860   33.4840   47.0730 C   0  0  0  0  0  0  0  0  0  0  0  0
   59.5670   32.3540   47.5650 O   0  0  0  0  0  0  0  0  0  0  0  0
   60.6330   34.4860   47.8610 C   0  0  0  0  0  0  0  0  0  0  0  0
   61.9190   34.0150   48.2930 N   0  0  0  0  0  0  0  0  0  0  0  0
   62.1460   33.8660   49.6210 C   0  0  0  0  0  0  0  0  0  0  0  0
   63.3400   33.4230   50.1250 C   0  0  0  0  0  0  0  0  0  0  0  0
   62.9340   33.7040   47.4670 C   0  0  0  0  0  0  0  0  0  0  0  0
   65.5030   32.6910   49.6980 N   0  0  0  0  0  0  0  0  0  0  0  0
   64.1270   33.2620   47.9400 N   0  0  0  0  0  0  0  0  0  0  0  0
   64.3630   33.1110   49.2590 C   0  0  0  0  0  0  0  0  0  0  0  0
   62.7360   33.8380   46.2420 O   0  0  0  0  0  0  0  0  0  0  0  0
   58.1280   29.2350   46.4570 C   0  0  0  0  0  0  0  0  0  0  0  0
   57.8140   27.8960   46.4610 C   0  0  0  0  0  0  0  0  0  0  0  0
   55.7613   23.5134   46.8546 H   0  0  0  0  0  0  0  0  0  0  0  0
   54.8643   23.5927   45.3003 H   0  0  0  0  0  0  0  0  0  0  0  0
   56.6374   23.3051   45.3003 H   0  0  0  0  0  0  0  0  0  0  0  0
   58.0800   25.0800   45.1870 H   0  0  0  0  0  0  0  0  0  0  0  0
   57.7113   27.2909   43.1603 H   0  0  0  0  0  0  0  0  0  0  0  0
   58.2777   29.6904   43.1494 H   0  0  0  0  0  0  0  0  0  0  0  0
   59.6240   31.5610   45.5670 H   0  0  0  0  0  0  0  0  0  0  0  0
   58.1999   34.2424   44.2758 H   0  0  0  0  0  0  0  0  0  0  0  0
   57.5628   34.2995   45.9710 H   0  0  0  0  0  0  0  0  0  0  0  0
   60.7784   35.3825   47.2404 H   0  0  0  0  0  0  0  0  0  0  0  0
   60.0419   34.7024   48.7631 H   0  0  0  0  0  0  0  0  0  0  0  0
   61.3365   34.1114   50.3242 H   0  0  0  0  0  0  0  0  0  0  0  0
   63.4798   33.3177   51.2110 H   0  0  0  0  0  0  0  0  0  0  0  0
   65.6650   32.5900   50.7160 H   0  0  0  0  0  0  0  0  0  0  0  0
   64.9100   33.0240   47.3000 H   0  0  0  0  0  0  0  0  0  0  0  0
   58.2418   29.7715   47.4106 H   0  0  0  0  0  0  0  0  0  0  0  0
   57.6845   27.3904   47.4293 H   0  0  0  0  0  0  0  0  0  0  0  0
  1  2  1  0
  2  3  2  0
  2  4  1  0
  4  5  1  0
  5  6  2  0
  6  7  1  0
  7  8  2  0
  8  9  1  0
  9 10  1  0
 10 11  2  0
 10 12  1  0
 12 13  1  0
 13 14  1  0
 14 15  2  0
 14 16  1  0
 16 17  1  0
 17 18  1  0
 18 19  2  0
 19 20  1  0
 20 21  2  3
 20 22  1  0
 22 23  1  0
 23 24  2  0
  8 25  1  0
 25 26  2  0
 26  5  1  0
 23 17  1  0
  1 27  1  0
  1 28  1  0
  1 29  1  0
  4 30  1  0
  6 31  1  0
  7 32  1  0
  9 33  1  0
 12 34  1  0
 12 35  1  0
 16 36  1  0
 16 37  1  0
 18 38  1  0
 19 39  1  0
 21 40  1  0
 22 41  1  0
 25 42  1  0
 26 43  1  0
M  END
>  <smiles>  (64) 
CC(=O)Nc1ccc(NC(=O)COC(=O)Cn2ccc(=N)[nH]c2=O)cc1

>  <score_type>  (64) 
oracle

>  <origin>  (64) 
adg

>  <m_score__min__energy>  (64) 
-7.21

>  <m_primary>  (64) 
energy

$$$$
64:0
     RDKit          3D

 36 38  0  0  0  0  0  0  0  0999 V2000
   58.5004   35.2275   44.1336 H   0  0  0  0  0  0  0  0  0  0  0  0
   58.3710   34.3130   44.7310 C   0  0  0  0  0  0  0  0  0  0  0  0
   59.1560   34.0990   45.8170 N   0  0  0  0  0  0  0  0  0  0  0  0
   59.0290   32.9820   46.5840 C   0  0  0  0  0  0  0  0  0  0  0  0
   59.8640   32.7670   47.6880 O   0  0  0  0  0  0  0  0  0  0  0  0
   61.2600   32.8720   47.6570 C   0  0  0  0  0  0  0  0  0  0  0  0
   61.8490   33.6810   46.6770 C   0  0  0  0  0  0  0  0  0  0  0  0
   61.2138   34.2121   45.9528 H   0  0  0  0  0  0  0  0  0  0  0  0
   63.2390   33.8180   46.6130 C   0  0  0  0  0  0  0  0  0  0  0  0
   63.6934   34.4640   45.8474 H   0  0  0  0  0  0  0  0  0  0  0  0
   64.0510   33.1340   47.5220 C   0  0  0  0  0  0  0  0  0  0  0  0
   65.1440   33.2495   47.4780 H   0  0  0  0  0  0  0  0  0  0  0  0
   63.4750   32.3040   48.4860 C   0  0  0  0  0  0  0  0  0  0  0  0
   64.1165   31.7628   49.1970 H   0  0  0  0  0  0  0  0  0  0  0  0
   62.0840   32.1580   48.5510 C   0  0  0  0  0  0  0  0  0  0  0  0
   61.5360   31.2820   49.4810 O   0  0  0  0  0  0  0  0  0  0  0  0
   58.0760   32.0160   46.2490 C   0  0  0  0  0  0  0  0  0  0  0  0
   57.9864   31.1011   46.8532 H   0  0  0  0  0  0  0  0  0  0  0  0
   57.2340   32.2100   45.1450 C   0  0  0  0  0  0  0  0  0  0  0  0
   56.3580   31.2810   44.8710 N   0  0  0  0  0  0  0  0  0  0  0  0
   56.5380   30.0260   44.1960 C   0  0  0  0  0  0  0  0  0  0  0  0
   57.0930   29.9680   43.0660 O   0  0  0  0  0  0  0  0  0  0  0  0
   56.0410   28.8370   44.8200 N   0  0  0  0  0  0  0  0  0  0  0  0
   56.8220   27.7970   45.4310 C   0  0  0  0  0  0  0  0  0  0  0  0
   58.2300   27.7960   45.3750 C   0  0  0  0  0  0  0  0  0  0  0  0
   58.7595   28.6168   44.8691 H   0  0  0  0  0  0  0  0  0  0  0  0
   58.9560   26.7540   45.9610 C   0  0  0  0  0  0  0  0  0  0  0  0
   60.0554   26.7632   45.9255 H   0  0  0  0  0  0  0  0  0  0  0  0
   58.2880   25.7020   46.5910 C   0  0  0  0  0  0  0  0  0  0  0  0
   58.8617   24.8877   47.0577 H   0  0  0  0  0  0  0  0  0  0  0  0
   56.8920   25.6830   46.6290 C   0  0  0  0  0  0  0  0  0  0  0  0
   56.3672   24.8500   47.1196 H   0  0  0  0  0  0  0  0  0  0  0  0
   56.1600   26.7220   46.0440 C   0  0  0  0  0  0  0  0  0  0  0  0
   54.7700   26.6870   46.0830 O   0  0  0  0  0  0  0  0  0  0  0  0
   57.3990   33.3770   44.3680 C   0  0  0  0  0  0  0  0  0  0  0  0
   56.7674   33.5482   43.4838 H   0  0  0  0  0  0  0  0  0  0  0  0
  1  2  1  0
  2  3  1  0
  3  4  1  0
  4  5  1  0
  5  6  1  0
  6  7  2  0
  7  8  1  0
  7  9  1  0
  9 10  1  0
  9 11  2  0
 11 12  1  0
 11 13  1  0
 13 14  1  0
 13 15  2  0
 15 16  1  0
  4 17  2  0
 17 18  1  0
 17 19  1  0
 19 20  2  0
 20 21  1  0
 21 22  2  0
 21 23  1  0
 23 24  1  0
 24 25  2  0
 25 26  1  0
 25 27  1  0
 27 28  1  0
 27 29  2  0
 29 30  1  0
 29 31  1  0
 31 32  1  0
 31 33  2  0
 33 34  1  0
 19 35  1  0
 35 36  1  0
 35  2  2  0
 15  6  1  0
 33 24  1  0
M  CHG  4   3  -1  16  -1  23  -1  34  -1
M  END
>  <UniqueID>  (65) 
59

>  <SMILES>  (65) 
O=C(/N=c1\cc[n-]c(Oc2ccccc2[O-])c1)[N-]c1ccccc1[O-]

>  <Energy>  (65) 
58.06125111633359

>  <Genealogy>  (65) 
O=C(N=c1cc[n-]c(Oc2ccccc2[O-])c1)[N-]c1ccccc1[O-] (protonated)
O=C(/N=c1\cc[n-]c(Oc2ccccc2[O-])c1)[N-]c1ccccc1[O-] (cis-trans isomerization)
O=C(/N=c1\cc[n-]c(Oc2ccccc2[O-])c1)[N-]c1ccccc1[O-] (3D coordinates assigned)
O=C(/N=c1\cc[n-]c(Oc2ccccc2[O-])c1)[N-]c1ccccc1[O-] (optimized conformer: 58.06125111633359 kcal/mol)

>  <smiles>  (65) 
O=C(N=c1cc[nH]c(Oc2ccccc2O)c1)Nc1ccccc1O

>  <score_type>  (65) 
oracle

>  <origin>  (65) 
adg

>  <m_score__min__energy>  (65) 
-16.18

>  <m_primary>  (65) 
energy

$$$$
65:0
     RDKit          3D

 72 76  0  0  0  0  0  0  0  0999 V2000
   62.9530   33.9230   46.3570 C   0  0  0  0  0  0  0  0  0  0  0  0
   63.8330   33.0070   47.2050 C   0  0  2  0  0  0  0  0  0  0  0  0
   63.2000   31.5870   47.3100 C   0  0  0  0  0  0  0  0  0  0  0  0
   62.6320   31.3530   48.6400 N   0  0  0  0  0  0  0  0  0  0  0  0
   61.3340   30.7560   48.7750 C   0  0  0  0  0  0  0  0  0  0  0  0
   60.6190   31.0610   49.7660 O   0  0  0  0  0  0  0  0  0  0  0  0
   60.8270   29.7860   47.7770 C   0  0  0  0  0  0  0  0  0  0  0  0
   60.6170   30.1820   46.4440 C   0  0  0  0  0  0  0  0  0  0  0  0
   60.1020   29.2820   45.5080 C   0  0  0  0  0  0  0  0  0  0  0  0
   59.7960   27.9630   45.8790 C   0  0  0  0  0  0  0  0  0  0  0  0
   59.1160   27.0700   44.8660 C   0  0  0  0  0  0  0  0  0  0  0  0
   57.7760   26.6480   45.2870 N   0  0  0  0  0  0  0  0  0  0  0  0
   56.7240   27.4380   45.6260 C   0  0  0  0  0  0  0  0  0  0  0  0
   56.7740   29.2340   45.6190 S   0  0  0  0  0  0  0  0  0  0  0  0
   56.3040   29.4010   43.8600 C   0  0  0  0  0  0  0  0  0  0  0  0
   56.9290   30.6340   43.2670 C   0  0  0  0  0  0  0  0  0  0  0  0
   56.7340   30.8870   42.0490 O   0  0  0  0  0  0  0  0  0  0  0  0
   57.7640   31.5170   44.0300 N   0  0  0  0  0  0  0  0  0  0  0  0
   57.4080   32.8710   44.4280 C   0  0  0  0  0  0  0  0  0  0  0  0
   58.6720   33.6610   44.7590 C   0  0  0  0  0  0  0  0  0  0  0  0
   58.9410   33.6240   46.2390 C   0  0  0  0  0  0  0  0  0  0  0  0
   58.2820   32.6890   47.0560 C   0  0  0  0  0  0  0  0  0  0  0  0
   58.5010   32.6880   48.4380 C   0  0  0  0  0  0  0  0  0  0  0  0
   59.3690   33.6170   49.0140 C   0  0  0  0  0  0  0  0  0  0  0  0
   60.0150   34.5620   48.2080 C   0  0  0  0  0  0  0  0  0  0  0  0
   59.8010   34.5690   46.8260 C   0  0  0  0  0  0  0  0  0  0  0  0
   55.6040   26.7420   45.9490 N   0  0  0  0  0  0  0  0  0  0  0  0
   55.9900   25.4630   45.7930 C   0  0  0  0  0  0  0  0  0  0  0  0
   55.2130   24.3200   45.9450 C   0  0  0  0  0  0  0  0  0  0  0  0
   55.8180   23.0800   45.6780 C   0  0  0  0  0  0  0  0  0  0  0  0
   57.1740   23.0120   45.2800 C   0  0  0  0  0  0  0  0  0  0  0  0
   57.9320   24.1860   45.1370 C   0  0  0  0  0  0  0  0  0  0  0  0
   57.2990   25.4000   45.4010 C   0  0  0  0  0  0  0  0  0  0  0  0
   60.0210   27.5620   47.2100 C   0  0  0  0  0  0  0  0  0  0  0  0
   60.5460   28.4610   48.1420 C   0  0  0  0  0  0  0  0  0  0  0  0
   63.3620   31.7960   49.8330 C   0  0  0  0  0  0  0  0  0  0  0  0
   64.5150   32.7220   49.4270 C   0  0  2  0  0  0  0  0  0  0  0  0
   65.0440   33.4930   50.6340 C   0  0  0  0  0  0  0  0  0  0  0  0
   64.0480   33.6400   48.4600 O   0  0  0  0  0  0  0  0  0  0  0  0
   62.3428   34.5582   47.0160 H   0  0  0  0  0  0  0  0  0  0  0  0
   63.5889   34.5575   45.7221 H   0  0  0  0  0  0  0  0  0  0  0  0
   62.2935   33.3131   45.7221 H   0  0  0  0  0  0  0  0  0  0  0  0
   64.8163   32.8489   46.7380 H   0  0  0  0  0  0  0  0  0  0  0  0
   62.4021   31.4942   46.5585 H   0  0  0  0  0  0  0  0  0  0  0  0
   63.9897   30.8416   47.1343 H   0  0  0  0  0  0  0  0  0  0  0  0
   60.8604   31.2095   46.1357 H   0  0  0  0  0  0  0  0  0  0  0  0
   59.9348   29.6096   44.4713 H   0  0  0  0  0  0  0  0  0  0  0  0
   59.0293   27.6186   43.9165 H   0  0  0  0  0  0  0  0  0  0  0  0
   59.7299   26.1634   44.7598 H   0  0  0  0  0  0  0  0  0  0  0  0
   56.6510   28.5162   43.3062 H   0  0  0  0  0  0  0  0  0  0  0  0
   55.2095   29.4852   43.7887 H   0  0  0  0  0  0  0  0  0  0  0  0
   56.8735   33.3655   43.6036 H   0  0  0  0  0  0  0  0  0  0  0  0
   56.7613   32.8305   45.3169 H   0  0  0  0  0  0  0  0  0  0  0  0
   59.5259   33.2195   44.2242 H   0  0  0  0  0  0  0  0  0  0  0  0
   58.5310   34.7066   44.4479 H   0  0  0  0  0  0  0  0  0  0  0  0
   57.5934   31.9573   46.6084 H   0  0  0  0  0  0  0  0  0  0  0  0
   57.9868   31.9518   49.0733 H   0  0  0  0  0  0  0  0  0  0  0  0
   59.5452   33.6066   50.0997 H   0  0  0  0  0  0  0  0  0  0  0  0
   60.6921   35.3003   48.6625 H   0  0  0  0  0  0  0  0  0  0  0  0
   60.3068   35.3158   46.1964 H   0  0  0  0  0  0  0  0  0  0  0  0
   54.1619   24.3841   46.2630 H   0  0  0  0  0  0  0  0  0  0  0  0
   55.2323   22.1544   45.7793 H   0  0  0  0  0  0  0  0  0  0  0  0
   57.6373   22.0343   45.0814 H   0  0  0  0  0  0  0  0  0  0  0  0
   58.9870   24.1489   44.8279 H   0  0  0  0  0  0  0  0  0  0  0  0
   59.7817   26.5335   47.5183 H   0  0  0  0  0  0  0  0  0  0  0  0
   60.7408   28.1266   49.1717 H   0  0  0  0  0  0  0  0  0  0  0  0
   62.6758   32.3390   50.4995 H   0  0  0  0  0  0  0  0  0  0  0  0
   63.7701   30.9175   50.3542 H   0  0  0  0  0  0  0  0  0  0  0  0
   65.3317   32.1106   49.0155 H   0  0  0  0  0  0  0  0  0  0  0  0
   64.7072   33.0021   51.5590 H   0  0  0  0  0  0  0  0  0  0  0  0
   66.1435   33.5080   50.6063 H   0  0  0  0  0  0  0  0  0  0  0  0
   64.6624   34.5243   50.6063 H   0  0  0  0  0  0  0  0  0  0  0  0
  1  2  1  0
  2  3  1  0
  3  4  1  0
  4  5  1  0
  5  6  2  0
  5  7  1  0
  7  8  2  0
  8  9  1  0
  9 10  2  0
 10 11  1  0
 11 12  1  0
 12 13  1  0
 13 14  1  0
 14 15  1  0
 15 16  1  0
 16 17  2  0
 16 18  1  0
 18 19  1  0
 19 20  1  0
 20 21  1  0
 21 22  2  0
 22 23  1  0
 23 24  2  0
 24 25  1  0
 25 26  2  0
 13 27  2  0
 27 28  1  0
 28 29  2  0
 29 30  1  0
 30 31  2  0
 31 32  1  0
 32 33  2  0
 10 34  1  0
 34 35  2  0
  4 36  1  0
 36 37  1  0
 37 38  1  0
 37 39  1  0
 39  2  1  0
 35  7  1  0
 33 12  1  0
 26 21  1  0
 33 28  1  0
  1 40  1  0
  1 41  1  0
  1 42  1  0
  2 43  1  6
  3 44  1  0
  3 45  1  0
  8 46  1  0
  9 47  1  0
 11 48  1  0
 11 49  1  0
 15 50  1  0
 15 51  1  0
 19 52  1  0
 19 53  1  0
 20 54  1  0
 20 55  1  0
 22 56  1  0
 23 57  1  0
 24 58  1  0
 25 59  1  0
 26 60  1  0
 29 61  1  0
 30 62  1  0
 31 63  1  0
 32 64  1  0
 34 65  1  0
 35 66  1  0
 36 67  1  0
 36 68  1  0
 37 69  1  6
 38 70  1  0
 38 71  1  0
 38 72  1  0
M  CHG  1  18  -1
M  END
>  <UniqueID>  (66) 
60

>  <SMILES>  (66) 
C[C@@H]1CN(C(=O)c2ccc(Cn3c(SCC(=O)[N-]CCc4ccccc4)nc4ccccc43)cc2)C[C@H](C)O1

>  <Energy>  (66) 
111.66120683709191

>  <Genealogy>  (66) 
CC1CN(C(=O)c2ccc(Cn3c(SCC(=O)[N-]CCc4ccccc4)nc4ccccc43)cc2)CC(C)O1 (protonated)
C[C@@H]1CN(C(=O)c2ccc(Cn3c(SCC(=O)[N-]CCc4ccccc4)nc4ccccc43)cc2)C[C@H](C)O1 (chirality)
C[C@@H]1CN(C(=O)c2ccc(Cn3c(SCC(=O)[N-]CCc4ccccc4)nc4ccccc43)cc2)C[C@H](C)O1 (3D coordinates assigned)
C[C@@H]1CN(C(=O)c2ccc(Cn3c(SCC(=O)[N-]CCc4ccccc4)nc4ccccc43)cc2)C[C@H](C)O1 (nonaromatic ring conformer: 111.66120683709191 kcal/mol)

>  <smiles>  (66) 
CC1CN(C(=O)c2ccc(Cn3c(SCC(=O)NCCc4ccccc4)nc4ccccc43)cc2)CC(C)O1

>  <score_type>  (66) 
oracle

>  <origin>  (66) 
adg

>  <m_score__min__energy>  (66) 
-12.57

>  <m_primary>  (66) 
energy

$$$$
66:0
     RDKit          3D

 37 38  0  0  0  0  0  0  0  0999 V2000
   57.3750   23.1050   49.1740 H   0  0  0  0  0  0  0  0  0  0  0  0
   57.0180   22.9170   48.2090 N   0  0  0  0  0  0  0  0  0  0  0  0
   57.2550   23.7100   47.2120 C   0  0  0  0  0  0  0  0  0  0  0  0
   57.9660   24.8450   47.4210 N   0  0  0  0  0  0  0  0  0  0  0  0
   58.2540   25.7250   46.4260 C   0  0  0  0  0  0  0  0  0  0  0  0
   59.0570   26.9430   46.7860 C   0  0  0  0  0  0  0  0  0  0  0  0
   59.1162   27.0328   47.8807 H   0  0  0  0  0  0  0  0  0  0  0  0
   60.0712   26.8496   46.3704 H   0  0  0  0  0  0  0  0  0  0  0  0
   58.5715   27.8383   46.3704 H   0  0  0  0  0  0  0  0  0  0  0  0
   57.8260   25.4560   45.0970 C   0  0  0  0  0  0  0  0  0  0  0  0
   58.1700   26.4180   43.9680 C   0  0  0  0  0  0  0  0  0  0  0  0
   59.2635   26.5171   43.9010 H   0  0  0  0  0  0  0  0  0  0  0  0
   57.7601   26.0164   43.0296 H   0  0  0  0  0  0  0  0  0  0  0  0
   57.5840   27.7380   44.2040 N   0  0  0  0  0  0  0  0  0  0  0  0
   56.5440   27.8280   44.1610 H   0  0  0  0  0  0  0  0  0  0  0  0
   58.3780   28.9050   44.4620 C   0  0  0  0  0  0  0  0  0  0  0  0
   59.6360   28.8380   44.4300 O   0  0  0  0  0  0  0  0  0  0  0  0
   57.7340   30.1890   44.7690 C   0  0  0  0  0  0  0  0  0  0  0  0
   56.4700   30.5050   44.4190 N   0  0  0  0  0  0  0  0  0  0  0  0
   56.2910   31.7380   44.8640 N   0  0  0  0  0  0  0  0  0  0  0  0
   57.3990   32.1400   45.4630 N   0  0  0  0  0  0  0  0  0  0  0  0
   57.5920   33.4680   46.0330 C   0  0  0  0  0  0  0  0  0  0  0  0
   56.6180   33.9725   46.1162 H   0  0  0  0  0  0  0  0  0  0  0  0
   58.0500   33.3677   47.0281 H   0  0  0  0  0  0  0  0  0  0  0  0
   58.4990   34.2830   45.1570 C   0  0  0  0  0  0  0  0  0  0  0  0
   58.2930   34.3420   44.0781 H   0  0  0  0  0  0  0  0  0  0  0  0
   59.5500   34.9380   45.6570 C   0  0  0  0  0  0  0  0  0  0  0  0
   60.1979   35.5277   44.9918 H   0  0  0  0  0  0  0  0  0  0  0  0
   59.7678   34.8878   46.7341 H   0  0  0  0  0  0  0  0  0  0  0  0
   58.3330   31.2060   45.4190 N   0  0  0  0  0  0  0  0  0  0  0  0
   57.0590   24.2830   44.8640 C   0  0  0  0  0  0  0  0  0  0  0  0
   56.5060   23.9400   43.5030 C   0  0  0  0  0  0  0  0  0  0  0  0
   55.5765   23.3635   43.6196 H   0  0  0  0  0  0  0  0  0  0  0  0
   56.2957   24.8665   42.9485 H   0  0  0  0  0  0  0  0  0  0  0  0
   57.2426   23.3400   42.9485 H   0  0  0  0  0  0  0  0  0  0  0  0
   56.7850   23.4140   45.9310 C   0  0  0  0  0  0  0  0  0  0  0  0
   56.1995   22.4989   45.7582 H   0  0  0  0  0  0  0  0  0  0  0  0
  1  2  1  0
  2  3  2  0
  3  4  1  0
  4  5  1  0
  5  6  1  0
  6  7  1  0
  6  8  1  0
  6  9  1  0
  5 10  2  0
 10 11  1  0
 11 12  1  0
 11 13  1  0
 11 14  1  0
 14 15  1  0
 14 16  1  0
 16 17  2  0
 16 18  1  0
 18 19  1  0
 19 20  2  0
 20 21  1  0
 21 22  1  0
 22 23  1  0
 22 24  1  0
 22 25  1  0
 25 26  1  0
 25 27  2  0
 27 28  1  0
 27 29  1  0
 21 30  1  0
 10 31  1  0
 31 32  1  0
 32 33  1  0
 32 34  1  0
 32 35  1  0
 31 36  2  0
 36 37  1  0
 36  3  1  0
 30 18  2  0
M  CHG  1   4  -1
M  END
>  <UniqueID>  (67) 
61

>  <SMILES>  (67) 
[H]/N=c1\cc(C)c(CNC(=O)c2nnn(CC=C)n2)c(C)[n-]1

>  <Energy>  (67) 
71.35161988036076

>  <Genealogy>  (67) 
C=CCn1nnc(C(=O)NCc2c(C)cc(=N)[n-]c2C)n1 (protonated)
[H]/N=c1\cc(C)c(CNC(=O)c2nnn(CC=C)n2)c(C)[n-]1 (cis-trans isomerization)
[H]/N=c1\cc(C)c(CNC(=O)c2nnn(CC=C)n2)c(C)[n-]1 (3D coordinates assigned)
[H]/N=c1\cc(C)c(CNC(=O)c2nnn(CC=C)n2)c(C)[n-]1 (optimized conformer: 71.35161988036076 kcal/mol)

>  <smiles>  (67) 
C=CCn1nnc(C(=O)NCc2c(C)cc(=N)[nH]c2C)n1

>  <score_type>  (67) 
oracle

>  <origin>  (67) 
adg

>  <m_score__min__energy>  (67) 
-9.3800000000000008

>  <m_primary>  (67) 
energy

$$$$
67:0
     RDKit          3D

 76 80  0  0  0  0  0  0  0  0999 V2000
   62.1810   31.1890   49.0030 H   0  0  0  0  0  0  0  0  0  0  0  0
   62.6210   31.3080   48.0640 N   0  0  0  0  0  0  0  0  0  0  0  0
   62.5890   32.4400   47.4330 C   0  0  0  0  0  0  0  0  0  0  0  0
   61.3050   33.1670   47.2990 C   0  0  0  0  0  0  0  0  0  0  0  0
   60.7960   33.9220   48.3710 C   0  0  0  0  0  0  0  0  0  0  0  0
   61.3473   33.9620   49.3220 H   0  0  0  0  0  0  0  0  0  0  0  0
   59.5950   34.6210   48.2350 C   0  0  0  0  0  0  0  0  0  0  0  0
   59.2129   35.2216   49.0736 H   0  0  0  0  0  0  0  0  0  0  0  0
   58.8780   34.5610   47.0410 C   0  0  0  0  0  0  0  0  0  0  0  0
   57.9257   35.1036   46.9474 H   0  0  0  0  0  0  0  0  0  0  0  0
   59.3620   33.8150   45.9610 C   0  0  0  0  0  0  0  0  0  0  0  0
   58.6250   33.8210   44.7650 O   0  0  0  0  0  0  0  0  0  0  0  0
   58.0180   32.7180   44.1480 C   0  0  0  0  0  0  0  0  0  0  0  0
   57.9390   32.7100   42.7510 C   0  0  0  0  0  0  0  0  0  0  0  0
   58.3989   33.5255   42.1735 H   0  0  0  0  0  0  0  0  0  0  0  0
   57.2810   31.6750   42.0850 C   0  0  0  0  0  0  0  0  0  0  0  0
   57.2182   31.6805   40.9868 H   0  0  0  0  0  0  0  0  0  0  0  0
   56.7020   30.6320   42.8120 C   0  0  0  0  0  0  0  0  0  0  0  0
   56.1747   29.8246   42.2829 H   0  0  0  0  0  0  0  0  0  0  0  0
   56.7880   30.6070   44.2080 C   0  0  0  0  0  0  0  0  0  0  0  0
   56.2200   29.4980   44.9150 N   0  0  0  0  0  0  0  0  0  0  0  0
   57.1340   28.1400   45.4860 S   0  0  0  0  0  0  0  0  0  0  0  0
   56.1870   27.0850   45.9820 O   0  0  0  0  0  0  0  0  0  0  0  0
   57.9250   27.5750   44.3410 O   0  0  0  0  0  0  0  0  0  0  0  0
   58.2010   28.6120   46.8020 C   0  0  0  0  0  0  0  0  0  0  0  0
   58.8060   27.6340   47.5990 C   0  0  0  0  0  0  0  0  0  0  0  0
   58.6384   26.5690   47.3808 H   0  0  0  0  0  0  0  0  0  0  0  0
   59.6230   28.0050   48.6720 C   0  0  0  0  0  0  0  0  0  0  0  0
   60.1066   27.2314   49.2866 H   0  0  0  0  0  0  0  0  0  0  0  0
   59.8270   29.3600   48.9660 C   0  0  0  0  0  0  0  0  0  0  0  0
   60.8070   29.8340   50.3560 S   0  0  0  0  0  0  0  0  0  0  0  0
   62.2190   29.3650   50.1320 O   0  0  0  0  0  0  0  0  0  0  0  0
   60.2910   29.1390   51.5860 O   0  0  0  0  0  0  0  0  0  0  0  0
   60.7700   31.5720   50.6080 N   0  0  0  0  0  0  0  0  0  0  0  0
   61.7870   32.0010   51.6110 C   0  0  0  0  0  0  0  0  0  0  0  0
   61.4723   32.9755   52.0127 H   0  0  0  0  0  0  0  0  0  0  0  0
   61.8231   31.1944   52.3581 H   0  0  0  0  0  0  0  0  0  0  0  0
   63.2060   32.1470   51.1020 C   0  0  0  0  0  0  0  0  0  0  0  0
   63.5960   33.2880   50.3830 C   0  0  0  0  0  0  0  0  0  0  0  0
   62.8603   34.0772   50.1685 H   0  0  0  0  0  0  0  0  0  0  0  0
   64.9140   33.4270   49.9380 C   0  0  0  0  0  0  0  0  0  0  0  0
   65.2166   34.3333   49.3929 H   0  0  0  0  0  0  0  0  0  0  0  0
   65.8470   32.4180   50.1840 C   0  0  0  0  0  0  0  0  0  0  0  0
   66.8806   32.5237   49.8228 H   0  0  0  0  0  0  0  0  0  0  0  0
   65.4660   31.2730   50.8900 C   0  0  0  0  0  0  0  0  0  0  0  0
   66.2008   30.4777   51.0839 H   0  0  0  0  0  0  0  0  0  0  0  0
   64.1530   31.1370   51.3500 C   0  0  0  0  0  0  0  0  0  0  0  0
   63.8591   30.2360   51.9084 H   0  0  0  0  0  0  0  0  0  0  0  0
   59.3920   32.0900   50.7720 C   0  0  0  0  0  0  0  0  0  0  0  0
   59.3513   33.1222   50.3940 H   0  0  0  0  0  0  0  0  0  0  0  0
   58.7097   31.4376   50.2073 H   0  0  0  0  0  0  0  0  0  0  0  0
   58.9570   32.0810   52.2420 C   0  0  0  0  0  0  0  0  0  0  0  0
   59.7884   31.7119   52.8605 H   0  0  0  0  0  0  0  0  0  0  0  0
   58.6850   33.1065   52.5323 H   0  0  0  0  0  0  0  0  0  0  0  0
   57.7590   31.1920   52.4470 C   0  0  0  0  0  0  0  0  0  0  0  0
   56.4970   31.5870   51.9690 C   0  0  0  0  0  0  0  0  0  0  0  0
   56.3783   32.5639   51.4776 H   0  0  0  0  0  0  0  0  0  0  0  0
   55.3930   30.7430   52.1160 C   0  0  0  0  0  0  0  0  0  0  0  0
   54.4064   31.0589   51.7462 H   0  0  0  0  0  0  0  0  0  0  0  0
   55.5420   29.4970   52.7330 C   0  0  0  0  0  0  0  0  0  0  0  0
   54.6719   28.8344   52.8509 H   0  0  0  0  0  0  0  0  0  0  0  0
   56.7960   29.0930   53.2000 C   0  0  0  0  0  0  0  0  0  0  0  0
   56.9116   28.1114   53.6828 H   0  0  0  0  0  0  0  0  0  0  0  0
   57.9030   29.9330   53.0550 C   0  0  0  0  0  0  0  0  0  0  0  0
   58.8895   29.6083   53.4175 H   0  0  0  0  0  0  0  0  0  0  0  0
   59.2470   30.3390   48.1480 C   0  0  0  0  0  0  0  0  0  0  0  0
   59.4287   31.4040   48.3548 H   0  0  0  0  0  0  0  0  0  0  0  0
   58.4390   29.9670   47.0710 C   0  0  0  0  0  0  0  0  0  0  0  0
   57.9878   30.7401   46.4317 H   0  0  0  0  0  0  0  0  0  0  0  0
   57.4290   31.6650   44.8780 C   0  0  0  0  0  0  0  0  0  0  0  0
   57.4710   31.6709   45.9772 H   0  0  0  0  0  0  0  0  0  0  0  0
   60.5900   33.1390   46.0850 C   0  0  0  0  0  0  0  0  0  0  0  0
   60.9955   32.5836   45.2264 H   0  0  0  0  0  0  0  0  0  0  0  0
   63.7980   32.9780   46.8860 N   0  0  0  0  0  0  0  0  0  0  0  0
   63.8440   33.9550   46.5290 H   0  0  0  0  0  0  0  0  0  0  0  0
   64.6860   32.4300   46.9190 H   0  0  0  0  0  0  0  0  0  0  0  0
  1  2  1  0
  2  3  2  0
  3  4  1  0
  4  5  2  0
  5  6  1  0
  5  7  1  0
  7  8  1  0
  7  9  2  0
  9 10  1  0
  9 11  1  0
 11 12  1  0
 12 13  1  0
 13 14  2  0
 14 15  1  0
 14 16  1  0
 16 17  1  0
 16 18  2  0
 18 19  1  0
 18 20  1  0
 20 21  1  0
 21 22  1  0
 22 23  2  0
 22 24  2  0
 22 25  1  0
 25 26  2  0
 26 27  1  0
 26 28  1  0
 28 29  1  0
 28 30  2  0
 30 31  1  0
 31 32  2  0
 31 33  2  0
 31 34  1  0
 34 35  1  0
 35 36  1  0
 35 37  1  0
 35 38  1  0
 38 39  2  0
 39 40  1  0
 39 41  1  0
 41 42  1  0
 41 43  2  0
 43 44  1  0
 43 45  1  0
 45 46  1  0
 45 47  2  0
 47 48  1  0
 34 49  1  0
 49 50  1  0
 49 51  1  0
 49 52  1  0
 52 53  1  0
 52 54  1  0
 52 55  1  0
 55 56  2  0
 56 57  1  0
 56 58  1  0
 58 59  1  0
 58 60  2  0
 60 61  1  0
 60 62  1  0
 62 63  1  0
 62 64  2  0
 64 65  1  0
 30 66  1  0
 66 67  1  0
 66 68  2  0
 68 69  1  0
 20 70  2  0
 70 71  1  0
 11 72  2  0
 72 73  1  0
  3 74  1  0
 74 75  1  0
 74 76  1  0
 72  4  1  0
 70 13  1  0
 68 25  1  0
 47 38  1  0
 64 55  1  0
M  CHG  1  21  -1
M  END
>  <UniqueID>  (68) 
62

>  <SMILES>  (68) 
[H]/N=C(\N)c1cccc(Oc2cccc([N-]S(=O)(=O)c3ccc(S(=O)(=O)N(CCc4ccccc4)Cc4ccccc4)cc3)c2)c1

>  <Energy>  (68) 
91.07560795643928

>  <Genealogy>  (68) 
N=C(N)c1cccc(Oc2cccc([N-]S(=O)(=O)c3ccc(S(=O)(=O)N(CCc4ccccc4)Cc4ccccc4)cc3)c2)c1 (protonated)
[H]/N=C(\N)c1cccc(Oc2cccc([N-]S(=O)(=O)c3ccc(S(=O)(=O)N(CCc4ccccc4)Cc4ccccc4)cc3)c2)c1 (cis-trans isomerization)
[H]/N=C(\N)c1cccc(Oc2cccc([N-]S(=O)(=O)c3ccc(S(=O)(=O)N(CCc4ccccc4)Cc4ccccc4)cc3)c2)c1 (3D coordinates assigned)
[H]/N=C(\N)c1cccc(Oc2cccc([N-]S(=O)(=O)c3ccc(S(=O)(=O)N(CCc4ccccc4)Cc4ccccc4)cc3)c2)c1 (optimized conformer: 91.07560795643928 kcal/mol)

>  <smiles>  (68) 
N=C(N)c1cccc(Oc2cccc(NS(=O)(=O)c3ccc(S(=O)(=O)N(CCc4ccccc4)Cc4ccccc4)cc3)c2)c1

>  <score_type>  (68) 
oracle

>  <origin>  (68) 
adg

>  <m_score__min__energy>  (68) 
-12.119999999999999

>  <m_primary>  (68) 
energy

$$$$
68:0
     RDKit          3D

 55 59  0  0  1  0  0  0  0  0999 V2000
   60.4330   26.7050   46.6380 C   0  0  0  0  0  0  0  0  0  0  0  0
   59.5550   27.6940   45.9570 C   0  0  0  0  0  0  0  0  0  0  0  0
   58.9370   27.4300   44.7420 C   0  0  0  0  0  0  0  0  0  0  0  0
   58.1210   28.3800   44.1370 C   0  0  0  0  0  0  0  0  0  0  0  0
   57.8960   29.6040   44.7170 C   0  0  0  0  0  0  0  0  0  0  0  0
   57.0620   30.6490   44.1560 C   0  0  0  0  0  0  0  0  0  0  0  0
   56.6450   30.5820   42.9400 O   0  0  0  0  0  0  0  0  0  0  0  0
   56.6360   31.8070   44.8590 N   0  0  0  0  0  0  0  0  0  0  0  0
   57.5110   32.7440   45.1290 C   0  0  0  0  0  0  0  0  0  0  0  0
   57.4830   33.2120   46.4470 C   0  0  0  0  0  0  0  0  0  0  0  0
   58.3800   34.2180   46.8260 C   0  0  0  0  0  0  0  0  0  0  0  0
   59.2530   34.6880   45.8340 C   0  0  0  0  0  0  0  0  0  0  0  0
   59.2340   34.1880   44.5520 C   0  0  0  0  0  0  0  0  0  0  0  0
   58.3600   33.2160   44.2130 N   0  0  0  0  0  0  0  0  0  0  0  0
   58.5170   29.8530   45.9230 C   0  0  0  0  0  0  0  0  0  0  0  0
   59.3420   28.9150   46.5490 C   0  0  0  0  0  0  0  0  0  0  0  0
   59.9040   29.3230   47.7860 N   0  0  0  0  0  0  0  0  0  0  0  0
   60.3370   30.5510   47.9120 C   0  0  0  0  0  0  0  0  0  0  0  0
   61.1930   31.0520   46.9870 N   0  0  0  0  0  0  0  0  0  0  0  0
   61.5870   32.3360   47.1200 C   0  0  0  0  0  0  0  0  0  0  0  0
   61.1720   33.1270   48.1200 N   0  0  0  0  0  0  0  0  0  0  0  0
   60.3340   32.6380   49.0290 C   0  0  0  0  0  0  0  0  0  0  0  0
   59.8940   33.4390   50.0600 C   0  0  0  0  0  0  0  0  0  0  0  0
   59.0390   32.9390   50.9790 N   0  0  0  0  0  0  0  0  0  0  0  0
   58.6110   31.6420   50.8910 C   0  0  0  0  0  0  0  0  0  0  0  0
   57.7060   31.2420   51.9150 N   0  0  0  0  0  0  0  0  0  0  0  0
   58.1620   30.2720   52.9230 C   0  0  0  0  0  0  0  0  0  0  0  0
   57.0430   29.3270   53.2860 C   0  0  0  0  0  0  0  0  0  0  0  0
   56.0810   29.3240   52.2810 O   0  0  0  0  0  0  0  0  0  0  0  0
   55.3980   30.5630   52.3720 C   0  0  0  0  0  0  0  0  0  0  0  0
   56.3420   31.7210   52.0150 C   0  0  0  0  0  0  0  0  0  0  0  0
   59.0170   30.8320   49.9000 N   0  0  0  0  0  0  0  0  0  0  0  0
   59.8750   31.3150   48.9660 C   0  0  0  0  0  0  0  0  0  0  0  0
   60.3342   26.8163   47.7279 H   0  0  0  0  0  0  0  0  0  0  0  0
   60.1354   25.6874   46.3448 H   0  0  0  0  0  0  0  0  0  0  0  0
   61.4787   26.8800   46.3448 H   0  0  0  0  0  0  0  0  0  0  0  0
   59.0947   26.4578   44.2521 H   0  0  0  0  0  0  0  0  0  0  0  0
   57.6456   28.1457   43.1731 H   0  0  0  0  0  0  0  0  0  0  0  0
   56.7686   32.7968   47.1731 H   0  0  0  0  0  0  0  0  0  0  0  0
   58.3991   34.6194   47.8500 H   0  0  0  0  0  0  0  0  0  0  0  0
   59.9737   35.4792   46.0881 H   0  0  0  0  0  0  0  0  0  0  0  0
   59.9338   34.5818   43.8002 H   0  0  0  0  0  0  0  0  0  0  0  0
   58.3400   32.8320   43.2430 H   0  0  0  0  0  0  0  0  0  0  0  0
   58.3569   30.8262   46.4102 H   0  0  0  0  0  0  0  0  0  0  0  0
   61.5670   30.5100   46.1890 H   0  0  0  0  0  0  0  0  0  0  0  0
   62.2800   32.7525   46.3742 H   0  0  0  0  0  0  0  0  0  0  0  0
   60.2374   34.4814   50.1347 H   0  0  0  0  0  0  0  0  0  0  0  0
   59.0058   29.6955   52.5159 H   0  0  0  0  0  0  0  0  0  0  0  0
   58.4771   30.8161   53.8256 H   0  0  0  0  0  0  0  0  0  0  0  0
   57.4479   28.3113   53.4063 H   0  0  0  0  0  0  0  0  0  0  0  0
   56.5814   29.6573   54.2282 H   0  0  0  0  0  0  0  0  0  0  0  0
   54.5474   30.5603   51.6745 H   0  0  0  0  0  0  0  0  0  0  0  0
   55.0400   30.6988   53.4032 H   0  0  0  0  0  0  0  0  0  0  0  0
   56.0374   32.1541   51.0508 H   0  0  0  0  0  0  0  0  0  0  0  0
   56.2869   32.4853   52.8041 H   0  0  0  0  0  0  0  0  0  0  0  0
  1  2  1  0
  2  3  2  0
  3  4  1  0
  4  5  2  0
  5  6  1  0
  6  7  2  0
  6  8  1  0
  8  9  2  0
  9 10  1  0
 10 11  2  0
 11 12  1  0
 12 13  2  0
 13 14  1  0
  5 15  1  0
 15 16  2  0
 16 17  1  0
 17 18  2  0
 18 19  1  0
 19 20  1  0
 20 21  2  0
 21 22  1  0
 22 23  2  0
 23 24  1  0
 24 25  2  0
 25 26  1  0
 26 27  1  0
 27 28  1  0
 28 29  1  0
 29 30  1  0
 30 31  1  0
 25 32  1  0
 32 33  2  0
 16  2  1  0
 33 18  1  0
 14  9  1  0
 33 22  1  0
 31 26  1  0
  1 34  1  0
  1 35  1  0
  1 36  1  0
  3 37  1  0
  4 38  1  0
 10 39  1  0
 11 40  1  0
 12 41  1  0
 13 42  1  0
 14 43  1  0
 15 44  1  0
 19 45  1  0
 20 46  1  0
 23 47  1  0
 27 48  1  0
 27 49  1  0
 28 50  1  0
 28 51  1  0
 30 52  1  0
 30 53  1  0
 31 54  1  0
 31 55  1  0
M  END
>  <smiles>  (69) 
Cc1ccc(C(=O)N=c2cccc[nH]2)cc1N=c1[nH]cnc2cnc(N3CCOCC3)nc12

>  <score_type>  (69) 
oracle

>  <origin>  (69) 
adg

>  <m_score__min__energy>  (69) 
-9.3200000000000003

>  <m_primary>  (69) 
energy

$$$$
69:0
     RDKit          3D

 64 67  0  0  0  0  0  0  0  0999 V2000
   57.0340   30.9290   43.4750 C   0  0  0  0  0  0  0  0  0  0  0  0
   57.1890   29.9010   44.5510 C   0  0  0  0  0  0  0  0  0  0  0  0
   56.6230   28.6810   44.4910 N   0  0  0  0  0  0  0  0  0  0  0  0
   57.0040   28.0050   45.5960 C   0  0  0  0  0  0  0  0  0  0  0  0
   56.6120   26.6030   45.8740 C   0  0  0  0  0  0  0  0  0  0  0  0
   55.3980   26.3040   46.0330 O   0  0  0  0  0  0  0  0  0  0  0  0
   57.6450   25.5130   45.9460 C   0  0  0  0  0  0  0  0  0  0  0  0
   57.3440   24.4130   45.0220 N   0  0  0  0  0  0  0  0  0  0  0  0
   57.0900   24.5570   43.5820 C   0  0  0  0  0  0  0  0  0  0  0  0
   56.6740   23.1560   43.0770 C   0  0  0  0  0  0  0  0  0  0  0  0
   56.6470   22.3350   44.3190 C   0  0  0  0  0  0  0  0  0  0  0  0
   56.2740   20.9960   44.4500 C   0  0  0  0  0  0  0  0  0  0  0  0
   55.8930   20.2690   43.3680 F   0  0  0  0  0  0  0  0  0  0  0  0
   56.2920   20.4160   45.7270 C   0  0  0  0  0  0  0  0  0  0  0  0
   56.6800   21.1780   46.8450 C   0  0  0  0  0  0  0  0  0  0  0  0
   57.0500   22.5250   46.6930 C   0  0  0  0  0  0  0  0  0  0  0  0
   57.4030   23.2560   47.7820 F   0  0  0  0  0  0  0  0  0  0  0  0
   57.0260   23.0810   45.4030 C   0  0  0  0  0  0  0  0  0  0  0  0
   57.8280   28.8100   46.3800 C   0  0  0  0  0  0  0  0  0  0  0  0
   58.5170   28.4220   47.6550 C   0  0  0  0  0  0  0  0  0  0  0  0
   57.9530   30.0170   45.7040 C   0  0  0  0  0  0  0  0  0  0  0  0
   58.7920   31.1600   46.1020 C   0  0  0  0  0  0  0  0  0  0  0  0
   60.0440   31.0830   45.9870 O   0  0  0  0  0  0  0  0  0  0  0  0
   58.1650   32.4580   46.5180 C   0  0  0  0  0  0  0  0  0  0  0  0
   58.7010   33.5990   45.6440 C   0  0  0  0  0  0  0  0  0  0  0  0
   59.7290   34.4870   46.3680 C   0  0  0  0  0  0  0  0  0  0  0  0
   61.1530   33.9040   46.3540 C   0  0  0  0  0  0  0  0  0  0  0  0
   61.6950   33.8180   47.7300 N   0  0  0  0  0  0  0  0  0  0  0  0
   61.0990   32.7060   48.5050 C   0  0  0  0  0  0  0  0  0  0  0  0
   61.8730   31.3830   48.3210 C   0  0  0  0  0  0  0  0  0  0  0  0
   62.6520   31.4120   47.1420 O   0  0  0  0  0  0  0  0  0  0  0  0
   63.6840   32.3720   47.2680 C   0  0  0  0  0  0  0  0  0  0  0  0
   63.1680   33.7450   47.7560 C   0  0  0  0  0  0  0  0  0  0  0  0
   56.8848   31.9184   43.9319 H   0  0  0  0  0  0  0  0  0  0  0  0
   57.9397   30.9461   42.8510 H   0  0  0  0  0  0  0  0  0  0  0  0
   56.1635   30.6783   42.8510 H   0  0  0  0  0  0  0  0  0  0  0  0
   56.0060   28.3330   43.7230 H   0  0  0  0  0  0  0  0  0  0  0  0
   58.6271   25.9359   45.6878 H   0  0  0  0  0  0  0  0  0  0  0  0
   57.6443   25.1091   46.9692 H   0  0  0  0  0  0  0  0  0  0  0  0
   56.2807   25.2813   43.4078 H   0  0  0  0  0  0  0  0  0  0  0  0
   57.9802   24.9268   43.0522 H   0  0  0  0  0  0  0  0  0  0  0  0
   55.6814   23.1869   42.6040 H   0  0  0  0  0  0  0  0  0  0  0  0
   57.3558   22.7554   42.3123 H   0  0  0  0  0  0  0  0  0  0  0  0
   56.0021   19.3627   45.8551 H   0  0  0  0  0  0  0  0  0  0  0  0
   56.6937   20.7164   47.8434 H   0  0  0  0  0  0  0  0  0  0  0  0
   57.9174   28.7596   48.5132 H   0  0  0  0  0  0  0  0  0  0  0  0
   58.6287   27.3284   47.6933 H   0  0  0  0  0  0  0  0  0  0  0  0
   59.5101   28.8935   47.6933 H   0  0  0  0  0  0  0  0  0  0  0  0
   57.0734   32.3902   46.4006 H   0  0  0  0  0  0  0  0  0  0  0  0
   58.4133   32.6599   47.5704 H   0  0  0  0  0  0  0  0  0  0  0  0
   59.1804   33.1628   44.7553 H   0  0  0  0  0  0  0  0  0  0  0  0
   57.8454   34.2382   45.3807 H   0  0  0  0  0  0  0  0  0  0  0  0
   59.7494   35.4704   45.8755 H   0  0  0  0  0  0  0  0  0  0  0  0
   59.4157   34.5571   47.4201 H   0  0  0  0  0  0  0  0  0  0  0  0
   61.1270   32.8970   45.9122 H   0  0  0  0  0  0  0  0  0  0  0  0
   61.8006   34.5643   45.7585 H   0  0  0  0  0  0  0  0  0  0  0  0
   61.1061   32.9746   49.5717 H   0  0  0  0  0  0  0  0  0  0  0  0
   60.0742   32.5504   48.1367 H   0  0  0  0  0  0  0  0  0  0  0  0
   62.5351   31.2302   49.1860 H   0  0  0  0  0  0  0  0  0  0  0  0
   61.1471   30.5603   48.2415 H   0  0  0  0  0  0  0  0  0  0  0  0
   64.4255   31.9984   47.9896 H   0  0  0  0  0  0  0  0  0  0  0  0
   64.1237   32.5187   46.2704 H   0  0  0  0  0  0  0  0  0  0  0  0
   63.5144   33.9095   48.7870 H   0  0  0  0  0  0  0  0  0  0  0  0
   63.5604   34.5179   47.0787 H   0  0  0  0  0  0  0  0  0  0  0  0
  1  2  1  0
  2  3  1  0
  3  4  1  0
  4  5  1  0
  5  6  2  0
  5  7  1  0
  7  8  1  0
  8  9  1  0
  9 10  1  0
 10 11  1  0
 11 12  2  0
 12 13  1  0
 12 14  1  0
 14 15  2  0
 15 16  1  0
 16 17  1  0
 16 18  2  0
  4 19  2  0
 19 20  1  0
 19 21  1  0
 21 22  1  0
 22 23  2  0
 22 24  1  0
 24 25  1  0
 25 26  1  0
 26 27  1  0
 27 28  1  0
 28 29  1  0
 29 30  1  0
 30 31  1  0
 31 32  1  0
 32 33  1  0
 21  2  2  0
 33 28  1  0
 18  8  1  0
 18 11  1  0
  1 34  1  0
  1 35  1  0
  1 36  1  0
  3 37  1  0
  7 38  1  0
  7 39  1  0
  9 40  1  0
  9 41  1  0
 10 42  1  0
 10 43  1  0
 14 44  1  0
 15 45  1  0
 20 46  1  0
 20 47  1  0
 20 48  1  0
 24 49  1  0
 24 50  1  0
 25 51  1  0
 25 52  1  0
 26 53  1  0
 26 54  1  0
 27 55  1  0
 27 56  1  0
 29 57  1  0
 29 58  1  0
 30 59  1  0
 30 60  1  0
 32 61  1  0
 32 62  1  0
 33 63  1  0
 33 64  1  0
M  END
>  <UniqueID>  (70) 
63

>  <SMILES>  (70) 
Cc1[nH]c(C(=O)CN2CCc3c(F)ccc(F)c32)c(C)c1C(=O)CCCCN1CCOCC1

>  <Energy>  (70) 
116.53051320538844

>  <Genealogy>  (70) 
Cc1[nH]c(C(=O)CN2CCc3c(F)ccc(F)c32)c(C)c1C(=O)CCCCN1CCOCC1 (3D coordinates assigned)
Cc1[nH]c(C(=O)CN2CCc3c(F)ccc(F)c32)c(C)c1C(=O)CCCCN1CCOCC1 (nonaromatic ring conformer: 116.53051320538844 kcal/mol)

>  <smiles>  (70) 
Cc1[nH]c(C(=O)CN2CCc3c(F)ccc(F)c32)c(C)c1C(=O)CCCCN1CCOCC1

>  <score_type>  (70) 
oracle

>  <origin>  (70) 
adg

>  <m_score__min__energy>  (70) 
-9.8300000000000001

>  <m_primary>  (70) 
energy

$$$$
70:0
     RDKit          3D

 44 46  0  0  0  0  0  0  0  0999 V2000
   60.5830   28.6730   44.6030 C   0  0  0  0  0  0  0  0  0  0  0  0
   59.3170   28.3280   44.8890 C   0  0  0  0  0  0  0  0  0  0  0  0
   58.6110   27.2760   44.0670 C   0  0  0  0  0  0  0  0  0  0  0  0
   57.7560   27.9090   43.0680 N   0  0  0  0  0  0  0  0  0  0  0  0
   58.5910   29.0030   46.0290 C   0  0  0  0  0  0  0  0  0  0  0  0
   57.9040   30.2050   45.5550 N   0  0  0  0  0  0  0  0  0  0  0  0
   56.7570   30.2840   44.8340 C   0  0  0  0  0  0  0  0  0  0  0  0
   56.0640   29.2830   44.5110 O   0  0  0  0  0  0  0  0  0  0  0  0
   56.4380   31.5230   44.5000 O   0  0  0  0  0  0  0  0  0  0  0  0
   57.3870   32.2760   45.0010 C   0  0  0  0  0  0  0  0  0  0  0  0
   57.5220   33.6580   44.9310 C   0  0  0  0  0  0  0  0  0  0  0  0
   58.6410   34.2380   45.5560 C   0  0  0  0  0  0  0  0  0  0  0  0
   59.6000   33.4310   46.2330 C   0  0  0  0  0  0  0  0  0  0  0  0
   60.7530   34.0040   46.8750 N   0  0  0  0  0  0  0  0  0  0  0  0
   61.5070   33.3330   48.2870 S   0  0  0  0  0  0  0  0  0  0  0  0
   62.2400   34.4200   49.0210 O   0  0  0  0  0  0  0  0  0  0  0  0
   62.4930   32.2780   47.8640 O   0  0  0  0  0  0  0  0  0  0  0  0
   60.2840   32.6530   49.3560 C   0  0  0  0  0  0  0  0  0  0  0  0
   59.6630   33.4650   50.3120 C   0  0  0  0  0  0  0  0  0  0  0  0
   58.6820   32.9370   51.1550 C   0  0  0  0  0  0  0  0  0  0  0  0
   58.3120   31.5840   51.0590 C   0  0  0  0  0  0  0  0  0  0  0  0
   57.3010   31.0420   51.9280 N   0  0  0  0  0  0  0  0  0  0  0  0
   56.6830   31.7820   52.7230 O   0  0  0  0  0  0  0  0  0  0  0  0
   56.9980   29.7010   51.9000 O   0  0  0  0  0  0  0  0  0  0  0  0
   58.9450   30.7710   50.1000 C   0  0  0  0  0  0  0  0  0  0  0  0
   59.9260   31.3030   49.2570 C   0  0  0  0  0  0  0  0  0  0  0  0
   59.4160   32.0320   46.2840 C   0  0  0  0  0  0  0  0  0  0  0  0
   58.2960   31.4900   45.6500 C   0  0  0  0  0  0  0  0  0  0  0  0
   61.0933   29.4397   45.2044 H   0  0  0  0  0  0  0  0  0  0  0  0
   61.1096   28.1888   43.7674 H   0  0  0  0  0  0  0  0  0  0  0  0
   59.3587   26.6480   43.5604 H   0  0  0  0  0  0  0  0  0  0  0  0
   57.9901   26.6572   44.7315 H   0  0  0  0  0  0  0  0  0  0  0  0
   57.8270   28.9450   43.2000 H   0  0  0  0  0  0  0  0  0  0  0  0
   56.7630   27.6480   43.2760 H   0  0  0  0  0  0  0  0  0  0  0  0
   57.8523   28.3061   46.4517 H   0  0  0  0  0  0  0  0  0  0  0  0
   59.3229   29.2900   46.7984 H   0  0  0  0  0  0  0  0  0  0  0  0
   56.7796   34.2764   44.4052 H   0  0  0  0  0  0  0  0  0  0  0  0
   58.7772   35.3290   45.5215 H   0  0  0  0  0  0  0  0  0  0  0  0
   61.1210   34.9210   46.5340 H   0  0  0  0  0  0  0  0  0  0  0  0
   59.9486   34.5236   50.4000 H   0  0  0  0  0  0  0  0  0  0  0  0
   58.1955   33.5846   51.8993 H   0  0  0  0  0  0  0  0  0  0  0  0
   58.6663   29.7104   50.0130 H   0  0  0  0  0  0  0  0  0  0  0  0
   60.4180   30.6586   48.5136 H   0  0  0  0  0  0  0  0  0  0  0  0
   60.1355   31.3864   46.8090 H   0  0  0  0  0  0  0  0  0  0  0  0
  1  2  2  0
  2  3  1  0
  3  4  1  0
  2  5  1  0
  5  6  1  0
  6  7  1  0
  7  8  2  0
  7  9  1  0
  9 10  1  0
 10 11  2  0
 11 12  1  0
 12 13  2  0
 13 14  1  0
 14 15  1  0
 15 16  2  0
 15 17  2  0
 15 18  1  0
 18 19  2  0
 19 20  1  0
 20 21  2  0
 21 22  1  0
 22 23  2  0
 22 24  1  0
 21 25  1  0
 25 26  2  0
 13 27  1  0
 27 28  2  0
 28  6  1  0
 28 10  1  0
 26 18  1  0
  1 29  1  0
  1 30  1  0
  3 31  1  0
  3 32  1  0
  4 33  1  0
  4 34  1  0
  5 35  1  0
  5 36  1  0
 11 37  1  0
 12 38  1  0
 14 39  1  0
 19 40  1  0
 20 41  1  0
 25 42  1  0
 26 43  1  0
 27 44  1  0
M  CHG  2  22   1  24  -1
M  END
>  <UniqueID>  (71) 
64

>  <SMILES>  (71) 
C=C(CN)Cn1c(=O)oc2ccc(NS(=O)(=O)c3ccc([N+](=O)[O-])cc3)cc21

>  <Energy>  (71) 
86.44615720218616

>  <Genealogy>  (71) 
C=C(CN)Cn1c(=O)oc2ccc(NS(=O)(=O)c3ccc([N+](=O)[O-])cc3)cc21 (3D coordinates assigned)
C=C(CN)Cn1c(=O)oc2ccc(NS(=O)(=O)c3ccc([N+](=O)[O-])cc3)cc21 (optimized conformer: 86.44615720218616 kcal/mol)

>  <smiles>  (71) 
C=C(CN)Cn1c(=O)oc2ccc(NS(=O)(=O)c3ccc([N+](=O)[O-])cc3)cc21

>  <score_type>  (71) 
oracle

>  <origin>  (71) 
adg

>  <m_score__min__energy>  (71) 
-9.8699999999999992

>  <m_primary>  (71) 
energy

$$$$
71:0
     RDKit          3D

 42 44  0  0  0  0  0  0  0  0999 V2000
   61.2510   32.0500   47.9560 C   0  0  0  0  0  0  0  0  0  0  0  0
   60.0230   31.9980   47.0920 C   0  0  0  0  0  0  0  0  0  0  0  0
   59.7400   30.8300   46.3490 C   0  0  0  0  0  0  0  0  0  0  0  0
   58.6010   30.8100   45.5450 C   0  0  0  0  0  0  0  0  0  0  0  0
   58.0590   29.8260   44.7320 C   0  0  0  0  0  0  0  0  0  0  0  0
   58.5490   28.4490   44.4830 C   0  0  0  0  0  0  0  0  0  0  0  0
   59.7530   28.3120   44.1320 O   0  0  0  0  0  0  0  0  0  0  0  0
   57.7380   27.2600   44.6770 N   0  0  0  0  0  0  0  0  0  0  0  0
   58.0230   26.1900   43.6990 C   0  0  0  0  0  0  0  0  0  0  0  0
   57.0270   25.0300   43.8710 C   0  0  0  0  0  0  0  0  0  0  0  0
   56.8350   24.6220   45.2840 N   0  0  0  0  0  0  0  0  0  0  0  0
   55.1710   24.8080   45.7920 S   0  0  0  0  0  0  0  0  0  0  0  0
   54.2670   24.2200   44.7460 O   0  0  0  0  0  0  0  0  0  0  0  0
   54.9450   24.0830   47.0890 O   0  0  0  0  0  0  0  0  0  0  0  0
   54.7900   26.4310   45.9920 O   0  0  0  0  0  0  0  0  0  0  0  0
   57.7700   25.2590   46.2300 C   0  0  0  0  0  0  0  0  0  0  0  0
   57.8120   26.7940   46.0880 C   0  0  0  0  0  0  0  0  0  0  0  0
   56.8760   30.3730   44.2330 C   0  0  0  0  0  0  0  0  0  0  0  0
   55.8990   29.6730   43.3420 C   0  0  0  0  0  0  0  0  0  0  0  0
   56.6930   31.6290   44.6990 N   0  0  0  0  0  0  0  0  0  0  0  0
   57.7480   31.8840   45.4900 C   0  0  0  0  0  0  0  0  0  0  0  0
   57.9860   33.0490   46.2130 C   0  0  0  0  0  0  0  0  0  0  0  0
   59.1380   33.1100   47.0190 C   0  0  0  0  0  0  0  0  0  0  0  0
   59.4440   34.5830   47.9330 Cl  0  0  0  0  0  0  0  0  0  0  0  0
   60.9548   32.0375   49.0153 H   0  0  0  0  0  0  0  0  0  0  0  0
   61.8866   31.1780   47.7426 H   0  0  0  0  0  0  0  0  0  0  0  0
   61.8106   32.9726   47.7426 H   0  0  0  0  0  0  0  0  0  0  0  0
   60.4042   29.9549   46.4037 H   0  0  0  0  0  0  0  0  0  0  0  0
   56.7510   27.5610   44.4960 H   0  0  0  0  0  0  0  0  0  0  0  0
   57.9345   26.5963   42.6806 H   0  0  0  0  0  0  0  0  0  0  0  0
   59.0429   25.8138   43.8674 H   0  0  0  0  0  0  0  0  0  0  0  0
   56.0543   25.3424   43.4632 H   0  0  0  0  0  0  0  0  0  0  0  0
   57.4432   24.1632   43.3368 H   0  0  0  0  0  0  0  0  0  0  0  0
   57.4573   25.0094   47.2547 H   0  0  0  0  0  0  0  0  0  0  0  0
   58.7775   24.8784   46.0061 H   0  0  0  0  0  0  0  0  0  0  0  0
   56.9607   27.2185   46.6403 H   0  0  0  0  0  0  0  0  0  0  0  0
   58.7788   27.1306   46.4904 H   0  0  0  0  0  0  0  0  0  0  0  0
   55.1575   29.1417   43.9568 H   0  0  0  0  0  0  0  0  0  0  0  0
   55.3875   30.4114   42.7071 H   0  0  0  0  0  0  0  0  0  0  0  0
   56.4337   28.9512   42.7071 H   0  0  0  0  0  0  0  0  0  0  0  0
   55.8890   32.2660   44.4970 H   0  0  0  0  0  0  0  0  0  0  0  0
   57.2916   33.9002   46.1560 H   0  0  0  0  0  0  0  0  0  0  0  0
  1  2  1  0
  2  3  2  0
  3  4  1  0
  4  5  1  0
  5  6  1  0
  6  7  2  0
  6  8  1  0
  8  9  1  0
  9 10  1  0
 10 11  1  0
 11 12  1  0
 12 13  2  0
 12 14  2  0
 12 15  1  0
 11 16  1  0
 16 17  1  0
  5 18  2  0
 18 19  1  0
 18 20  1  0
 20 21  1  0
 21 22  1  0
 22 23  2  0
 23 24  1  0
 23  2  1  0
 21  4  2  0
 17  8  1  0
  1 25  1  0
  1 26  1  0
  1 27  1  0
  3 28  1  0
  8 29  1  0
  9 30  1  0
  9 31  1  0
 10 32  1  0
 10 33  1  0
 16 34  1  0
 16 35  1  0
 17 36  1  0
 17 37  1  0
 19 38  1  0
 19 39  1  0
 19 40  1  0
 20 41  1  0
 22 42  1  0
M  CHG  2   8   1  15  -1
M  END
>  <UniqueID>  (72) 
65

>  <SMILES>  (72) 
Cc1cc2c(C(=O)[NH+]3CCN(S(=O)(=O)[O-])CC3)c(C)[nH]c2cc1Cl

>  <Energy>  (72) 
95.47130883797938

>  <Genealogy>  (72) 
Cc1cc2c(C(=O)[NH+]3CCN(S(=O)(=O)[O-])CC3)c(C)[nH]c2cc1Cl (protonated)
Cc1cc2c(C(=O)[NH+]3CCN(S(=O)(=O)[O-])CC3)c(C)[nH]c2cc1Cl (3D coordinates assigned)
Cc1cc2c(C(=O)[NH+]3CCN(S(=O)(=O)[O-])CC3)c(C)[nH]c2cc1Cl (nonaromatic ring conformer: 95.47130883797938 kcal/mol)

>  <smiles>  (72) 
Cc1cc2c(C(=O)N3CCN(S(=O)(=O)[O-])CC3)c(C)[nH]c2cc1Cl

>  <score_type>  (72) 
oracle

>  <origin>  (72) 
adg

>  <m_score__min__energy>  (72) 
-10.289999999999999

>  <m_primary>  (72) 
energy

$$$$
72:0
     RDKit          3D

 48 51  0  0  0  0  0  0  0  0999 V2000
   56.9980   34.4950   44.8680 C   0  0  0  0  0  0  0  0  0  0  0  0
   58.2540   34.0410   45.5520 C   0  0  0  0  0  0  0  0  0  0  0  0
   59.2680   34.9610   45.8530 C   0  0  0  0  0  0  0  0  0  0  0  0
   60.4480   34.5330   46.4640 C   0  0  0  0  0  0  0  0  0  0  0  0
   60.6320   33.1810   46.7630 C   0  0  0  0  0  0  0  0  0  0  0  0
   59.6390   32.2400   46.4440 C   0  0  0  0  0  0  0  0  0  0  0  0
   59.8430   30.8440   46.7470 N   0  0  0  0  0  0  0  0  0  0  0  0
   59.8510   29.8330   45.6800 C   0  0  0  0  0  0  0  0  0  0  0  0
   58.4840   29.2040   45.5180 C   0  0  0  0  0  0  0  0  0  0  0  0
   57.4520   29.9730   44.9580 C   0  0  0  0  0  0  0  0  0  0  0  0
   56.1700   29.4350   44.8290 C   0  0  0  0  0  0  0  0  0  0  0  0
   55.2450   30.1220   44.3220 O   0  0  0  0  0  0  0  0  0  0  0  0
   55.9150   28.1720   45.2530 N   0  0  0  0  0  0  0  0  0  0  0  0
   56.8780   27.3930   45.8120 C   0  0  0  0  0  0  0  0  0  0  0  0
   56.5530   26.1020   46.2450 C   0  0  0  0  0  0  0  0  0  0  0  0
   57.5230   25.2910   46.8490 C   0  0  0  0  0  0  0  0  0  0  0  0
   57.1800   23.8960   47.2770 C   0  0  0  0  0  0  0  0  0  0  0  0
   58.8330   25.7700   46.9900 C   0  0  0  0  0  0  0  0  0  0  0  0
   59.1670   27.0570   46.5580 C   0  0  0  0  0  0  0  0  0  0  0  0
   58.1970   27.8880   45.9640 C   0  0  0  0  0  0  0  0  0  0  0  0
   59.7420   30.4140   48.1130 C   0  0  0  0  0  0  0  0  0  0  0  0
   58.9240   31.1110   49.0160 C   0  0  0  0  0  0  0  0  0  0  0  0
   58.8420   30.7000   50.3490 C   0  0  0  0  0  0  0  0  0  0  0  0
   59.5720   29.5900   50.7850 C   0  0  0  0  0  0  0  0  0  0  0  0
   60.3860   28.8900   49.8880 C   0  0  0  0  0  0  0  0  0  0  0  0
   60.4710   29.3000   48.5550 C   0  0  0  0  0  0  0  0  0  0  0  0
   58.4490   32.6800   45.8370 C   0  0  0  0  0  0  0  0  0  0  0  0
   56.2465   34.7666   45.6239 H   0  0  0  0  0  0  0  0  0  0  0  0
   57.2187   35.3702   44.2393 H   0  0  0  0  0  0  0  0  0  0  0  0
   56.6081   33.6809   44.2393 H   0  0  0  0  0  0  0  0  0  0  0  0
   59.1333   36.0246   45.6067 H   0  0  0  0  0  0  0  0  0  0  0  0
   61.2343   35.2617   46.7104 H   0  0  0  0  0  0  0  0  0  0  0  0
   61.5607   32.8510   47.2515 H   0  0  0  0  0  0  0  0  0  0  0  0
   60.1411   30.3118   44.7331 H   0  0  0  0  0  0  0  0  0  0  0  0
   60.5695   29.0449   45.9496 H   0  0  0  0  0  0  0  0  0  0  0  0
   57.6533   31.0004   44.6205 H   0  0  0  0  0  0  0  0  0  0  0  0
   55.5296   25.7218   46.1102 H   0  0  0  0  0  0  0  0  0  0  0  0
   57.1668   23.8423   48.3756 H   0  0  0  0  0  0  0  0  0  0  0  0
   56.1886   23.6254   46.8847 H   0  0  0  0  0  0  0  0  0  0  0  0
   57.9329   23.1965   46.8847 H   0  0  0  0  0  0  0  0  0  0  0  0
   59.6032   25.1289   47.4436 H   0  0  0  0  0  0  0  0  0  0  0  0
   60.1964   27.4240   46.6831 H   0  0  0  0  0  0  0  0  0  0  0  0
   58.3465   31.9823   48.6736 H   0  0  0  0  0  0  0  0  0  0  0  0
   58.2030   31.2499   51.0556 H   0  0  0  0  0  0  0  0  0  0  0  0
   59.5062   29.2668   51.8344 H   0  0  0  0  0  0  0  0  0  0  0  0
   60.9593   28.0166   50.2323 H   0  0  0  0  0  0  0  0  0  0  0  0
   61.1109   28.7481   47.8507 H   0  0  0  0  0  0  0  0  0  0  0  0
   57.6645   31.9518   45.5834 H   0  0  0  0  0  0  0  0  0  0  0  0
  1  2  1  0
  2  3  2  0
  3  4  1  0
  4  5  2  0
  5  6  1  0
  6  7  1  0
  7  8  1  0
  8  9  1  0
  9 10  2  0
 10 11  1  0
 11 12  2  0
 11 13  1  0
 13 14  1  0
 14 15  2  0
 15 16  1  0
 16 17  1  0
 16 18  2  0
 18 19  1  0
 19 20  2  0
  7 21  1  0
 21 22  2  0
 22 23  1  0
 23 24  2  0
 24 25  1  0
 25 26  2  0
  6 27  2  0
 27  2  1  0
 20  9  1  0
 26 21  1  0
 20 14  1  0
  1 28  1  0
  1 29  1  0
  1 30  1  0
  3 31  1  0
  4 32  1  0
  5 33  1  0
  8 34  1  0
  8 35  1  0
 10 36  1  0
 15 37  1  0
 17 38  1  0
 17 39  1  0
 17 40  1  0
 18 41  1  0
 19 42  1  0
 22 43  1  0
 23 44  1  0
 24 45  1  0
 25 46  1  0
 26 47  1  0
 27 48  1  0
M  CHG  1  13  -1
M  END
>  <UniqueID>  (73) 
66

>  <SMILES>  (73) 
Cc1cccc(N(Cc2cc(=O)[n-]c3cc(C)ccc23)c2ccccc2)c1

>  <Energy>  (73) 
65.20680568537986

>  <Genealogy>  (73) 
Cc1cccc(N(Cc2cc(=O)[n-]c3cc(C)ccc23)c2ccccc2)c1 (protonated)
Cc1cccc(N(Cc2cc(=O)[n-]c3cc(C)ccc23)c2ccccc2)c1 (3D coordinates assigned)
Cc1cccc(N(Cc2cc(=O)[n-]c3cc(C)ccc23)c2ccccc2)c1 (optimized conformer: 65.20680568537986 kcal/mol)

>  <smiles>  (73) 
Cc1cccc(N(Cc2cc(=O)[nH]c3cc(C)ccc23)c2ccccc2)c1

>  <score_type>  (73) 
oracle

>  <origin>  (73) 
adg

>  <m_score__min__energy>  (73) 
-10.85

>  <m_primary>  (73) 
energy

$$$$
73:0
     RDKit          3D

 49 51  0  0  0  0  0  0  0  0999 V2000
   60.9882   31.9573   45.7021 H   0  0  0  0  0  0  0  0  0  0  0  0
   60.4030   31.3080   46.3700 C   0  0  0  0  0  0  0  0  0  0  0  0
   59.3330   30.6240   45.8830 N   0  0  0  0  0  0  0  0  0  0  0  0
   58.5670   29.8160   46.6630 C   0  0  0  0  0  0  0  0  0  0  0  0
   57.5690   29.1860   46.1080 N   0  0  0  0  0  0  0  0  0  0  0  0
   56.8300   29.5770   44.9430 C   0  0  0  0  0  0  0  0  0  0  0  0
   55.6120   29.2660   44.8590 O   0  0  0  0  0  0  0  0  0  0  0  0
   57.4830   30.2230   43.8410 N   0  0  0  0  0  0  0  0  0  0  0  0
   58.5250   30.3050   43.8530 H   0  0  0  0  0  0  0  0  0  0  0  0
   56.7250   30.7350   42.7000 C   0  0  0  0  0  0  0  0  0  0  0  0
   55.7739   31.1551   43.0592 H   0  0  0  0  0  0  0  0  0  0  0  0
   56.5403   29.9058   42.0012 H   0  0  0  0  0  0  0  0  0  0  0  0
   57.5060   31.8220   41.9690 C   0  0  0  0  0  0  0  0  0  0  0  0
   57.9838   32.4870   42.7034 H   0  0  0  0  0  0  0  0  0  0  0  0
   58.2781   31.3574   41.3382 H   0  0  0  0  0  0  0  0  0  0  0  0
   56.8193   32.4056   41.3382 H   0  0  0  0  0  0  0  0  0  0  0  0
   58.9050   29.6590   48.0230 C   0  0  0  0  0  0  0  0  0  0  0  0
   58.3134   28.9923   48.6677 H   0  0  0  0  0  0  0  0  0  0  0  0
   59.9960   30.3560   48.5450 C   0  0  0  0  0  0  0  0  0  0  0  0
   60.2548   30.2511   49.6090 H   0  0  0  0  0  0  0  0  0  0  0  0
   60.7630   31.1890   47.7190 C   0  0  0  0  0  0  0  0  0  0  0  0
   61.9210   31.9340   48.2670 C   0  0  0  0  0  0  0  0  0  0  0  0
   62.9910   31.2220   48.8360 C   0  0  0  0  0  0  0  0  0  0  0  0
   62.9663   30.1224   48.8552 H   0  0  0  0  0  0  0  0  0  0  0  0
   64.0850   31.9000   49.3770 C   0  0  0  0  0  0  0  0  0  0  0  0
   64.9177   31.3342   49.8202 H   0  0  0  0  0  0  0  0  0  0  0  0
   64.1230   33.2930   49.3560 C   0  0  0  0  0  0  0  0  0  0  0  0
   64.9823   33.8250   49.7903 H   0  0  0  0  0  0  0  0  0  0  0  0
   63.0730   34.0150   48.7850 C   0  0  0  0  0  0  0  0  0  0  0  0
   63.1123   35.1142   48.7689 H   0  0  0  0  0  0  0  0  0  0  0  0
   61.9630   33.3470   48.2290 C   0  0  0  0  0  0  0  0  0  0  0  0
   60.9070   34.0400   47.6080 O   0  0  0  0  0  0  0  0  0  0  0  0
   59.6030   34.2430   48.1560 C   0  0  0  0  0  0  0  0  0  0  0  0
   59.3103   33.3491   48.7264 H   0  0  0  0  0  0  0  0  0  0  0  0
   59.6336   35.1273   48.8096 H   0  0  0  0  0  0  0  0  0  0  0  0
   58.5680   34.4920   47.0490 C   0  0  1  0  0  0  0  0  0  0  0  0
   58.1122   35.4847   47.1786 H   0  0  0  0  0  0  0  0  0  0  0  0
   59.2340   34.4390   45.7980 O   0  0  0  0  0  0  0  0  0  0  0  0
   58.2970   34.5670   44.7490 C   0  0  0  0  0  0  0  0  0  0  0  0
   58.8349   34.6336   43.7918 H   0  0  0  0  0  0  0  0  0  0  0  0
   57.7011   35.4759   44.9190 H   0  0  0  0  0  0  0  0  0  0  0  0
   57.3460   33.3550   44.7100 C   0  0  0  0  0  0  0  0  0  0  0  0
   57.6345   32.7042   43.8714 H   0  0  0  0  0  0  0  0  0  0  0  0
   56.3201   33.7322   44.5865 H   0  0  0  0  0  0  0  0  0  0  0  0
   57.3960   32.5750   45.9550 N   0  0  0  0  0  0  0  0  0  0  0  0
   58.2790   32.0110   45.9620 H   0  0  0  0  0  0  0  0  0  0  0  0
   57.4030   33.4610   47.1250 C   0  0  0  0  0  0  0  0  0  0  0  0
   57.5217   32.8529   48.0339 H   0  0  0  0  0  0  0  0  0  0  0  0
   56.4521   34.0135   47.1470 H   0  0  0  0  0  0  0  0  0  0  0  0
  1  2  1  0
  2  3  1  0
  3  4  1  0
  4  5  2  0
  5  6  1  0
  6  7  2  0
  6  8  1  0
  8  9  1  0
  8 10  1  0
 10 11  1  0
 10 12  1  0
 10 13  1  0
 13 14  1  0
 13 15  1  0
 13 16  1  0
  4 17  1  0
 17 18  1  0
 17 19  2  0
 19 20  1  0
 19 21  1  0
 21 22  1  0
 22 23  2  0
 23 24  1  0
 23 25  1  0
 25 26  1  0
 25 27  2  0
 27 28  1  0
 27 29  1  0
 29 30  1  0
 29 31  2  0
 31 32  1  0
 32 33  1  0
 33 34  1  0
 33 35  1  0
 33 36  1  0
 36 37  1  1
 36 38  1  0
 38 39  1  0
 39 40  1  0
 39 41  1  0
 39 42  1  0
 42 43  1  0
 42 44  1  0
 42 45  1  0
 45 46  1  0
 45 47  1  0
 47 48  1  0
 47 49  1  0
 21  2  2  0
 31 22  1  0
 47 36  1  0
M  CHG  1   3  -1
M  END
>  <UniqueID>  (74) 
67

>  <SMILES>  (74) 
CCNC(=O)/N=c1\ccc(-c2ccccc2OC[C@@H]2CNCCO2)c[n-]1

>  <Energy>  (74) 
67.48032592359449

>  <Genealogy>  (74) 
CCNC(=O)N=c1ccc(-c2ccccc2OCC2CNCCO2)c[n-]1 (protonated)
CCNC(=O)N=c1ccc(-c2ccccc2OC[C@@H]2CNCCO2)c[n-]1 (chirality)
CCNC(=O)/N=c1\ccc(-c2ccccc2OC[C@@H]2CNCCO2)c[n-]1 (cis-trans isomerization)
CCNC(=O)/N=c1\ccc(-c2ccccc2OC[C@@H]2CNCCO2)c[n-]1 (3D coordinates assigned)
CCNC(=O)/N=c1\ccc(-c2ccccc2OC[C@@H]2CNCCO2)c[n-]1 (nonaromatic ring conformer: 67.48032592359449 kcal/mol)

>  <smiles>  (74) 
CCNC(=O)N=c1ccc(-c2ccccc2OCC2CNCCO2)c[nH]1

>  <score_type>  (74) 
oracle

>  <origin>  (74) 
adg

>  <m_score__min__energy>  (74) 
-9.4600000000000009

>  <m_primary>  (74) 
energy

$$$$
74:0
     RDKit          3D

 54 57  0  0  0  0  0  0  0  0999 V2000
   65.6080   31.2470   52.7130 C   0  0  0  0  0  0  0  0  0  0  0  0
   65.0110   31.7190   51.4200 C   0  0  0  0  0  0  0  0  0  0  0  0
   63.8420   31.1210   50.9210 C   0  0  0  0  0  0  0  0  0  0  0  0
   63.3240   31.5130   49.6820 C   0  0  0  0  0  0  0  0  0  0  0  0
   63.9740   32.4990   48.9220 C   0  0  0  0  0  0  0  0  0  0  0  0
   63.4490   32.8900   47.5670 C   0  0  0  0  0  0  0  0  0  0  0  0
   61.9870   32.8690   47.5610 N   0  0  0  0  0  0  0  0  0  0  0  0
   61.2010   33.8230   48.3010 C   0  0  0  0  0  0  0  0  0  0  0  0
   61.7680   34.6270   49.0910 O   0  0  0  0  0  0  0  0  0  0  0  0
   59.7010   33.9080   48.1490 C   0  0  0  0  0  0  0  0  0  0  0  0
   59.2370   33.4590   46.8190 N   0  0  0  0  0  0  0  0  0  0  0  0
   59.2550   34.3640   45.7730 C   0  0  0  0  0  0  0  0  0  0  0  0
   59.7020   35.5330   45.9390 O   0  0  0  0  0  0  0  0  0  0  0  0
   58.7790   34.0100   44.4940 C   0  0  0  0  0  0  0  0  0  0  0  0
   58.2850   32.7210   44.2450 C   0  0  0  0  0  0  0  0  0  0  0  0
   57.7710   32.3590   42.8790 C   0  0  0  0  0  0  0  0  0  0  0  0
   58.3090   31.8180   45.3130 C   0  0  0  0  0  0  0  0  0  0  0  0
   57.9280   30.4880   45.4460 C   0  0  0  0  0  0  0  0  0  0  0  0
   57.3430   29.5830   44.4080 C   0  0  0  0  0  0  0  0  0  0  0  0
   58.1860   30.0840   46.7090 N   0  0  0  0  0  0  0  0  0  0  0  0
   58.7080   31.1010   47.3830 N   0  0  0  0  0  0  0  0  0  0  0  0
   59.1420   30.9460   48.7360 C   0  0  0  0  0  0  0  0  0  0  0  0
   58.4950   31.6430   49.7660 C   0  0  0  0  0  0  0  0  0  0  0  0
   58.9210   31.4920   51.0920 C   0  0  0  0  0  0  0  0  0  0  0  0
   59.9760   30.6290   51.3940 C   0  0  0  0  0  0  0  0  0  0  0  0
   60.5970   29.9050   50.3700 C   0  0  0  0  0  0  0  0  0  0  0  0
   60.1720   30.0520   49.0460 C   0  0  0  0  0  0  0  0  0  0  0  0
   58.7880   32.1810   46.5540 C   0  0  0  0  0  0  0  0  0  0  0  0
   65.1520   33.0850   49.4150 C   0  0  0  0  0  0  0  0  0  0  0  0
   65.6700   32.6910   50.6520 C   0  0  0  0  0  0  0  0  0  0  0  0
   65.0528   31.6860   53.5551 H   0  0  0  0  0  0  0  0  0  0  0  0
   65.5474   30.1499   52.7660 H   0  0  0  0  0  0  0  0  0  0  0  0
   66.6615   31.5590   52.7660 H   0  0  0  0  0  0  0  0  0  0  0  0
   63.3321   30.3418   51.5065 H   0  0  0  0  0  0  0  0  0  0  0  0
   62.4033   31.0468   49.3013 H   0  0  0  0  0  0  0  0  0  0  0  0
   63.7979   33.9040   47.3220 H   0  0  0  0  0  0  0  0  0  0  0  0
   63.8191   32.1720   46.8203 H   0  0  0  0  0  0  0  0  0  0  0  0
   61.5190   32.1310   46.9750 H   0  0  0  0  0  0  0  0  0  0  0  0
   59.2328   33.2752   48.9174 H   0  0  0  0  0  0  0  0  0  0  0  0
   59.4144   34.9639   48.2624 H   0  0  0  0  0  0  0  0  0  0  0  0
   58.7952   34.7526   43.6827 H   0  0  0  0  0  0  0  0  0  0  0  0
   56.8754   31.7283   42.9795 H   0  0  0  0  0  0  0  0  0  0  0  0
   57.5136   33.2763   42.3291 H   0  0  0  0  0  0  0  0  0  0  0  0
   58.5479   31.8077   42.3291 H   0  0  0  0  0  0  0  0  0  0  0  0
   56.8091   28.7570   44.9006 H   0  0  0  0  0  0  0  0  0  0  0  0
   56.6406   30.1509   43.7802 H   0  0  0  0  0  0  0  0  0  0  0  0
   58.1492   29.1758   43.7802 H   0  0  0  0  0  0  0  0  0  0  0  0
   57.6516   32.3095   49.5327 H   0  0  0  0  0  0  0  0  0  0  0  0
   58.4236   32.0541   51.8962 H   0  0  0  0  0  0  0  0  0  0  0  0
   60.3181   30.5185   52.4336 H   0  0  0  0  0  0  0  0  0  0  0  0
   61.4224   29.2178   50.6075 H   0  0  0  0  0  0  0  0  0  0  0  0
   60.6482   29.4640   48.2475 H   0  0  0  0  0  0  0  0  0  0  0  0
   65.6685   33.8567   48.8253 H   0  0  0  0  0  0  0  0  0  0  0  0
   66.5995   33.1455   51.0255 H   0  0  0  0  0  0  0  0  0  0  0  0
  1  2  1  0
  2  3  2  0
  3  4  1  0
  4  5  2  0
  5  6  1  0
  6  7  1  0
  7  8  1  0
  8  9  2  0
  8 10  1  0
 10 11  1  0
 11 12  1  0
 12 13  2  0
 12 14  1  0
 14 15  2  0
 15 16  1  0
 15 17  1  0
 17 18  1  0
 18 19  1  0
 18 20  2  0
 20 21  1  0
 21 22  1  0
 22 23  2  0
 23 24  1  0
 24 25  2  0
 25 26  1  0
 26 27  2  0
 21 28  1  0
  5 29  1  0
 29 30  2  0
 30  2  1  0
 28 11  1  0
 28 17  2  0
 27 22  1  0
  1 31  1  0
  1 32  1  0
  1 33  1  0
  3 34  1  0
  4 35  1  0
  6 36  1  0
  6 37  1  0
  7 38  1  0
 10 39  1  0
 10 40  1  0
 14 41  1  0
 16 42  1  0
 16 43  1  0
 16 44  1  0
 19 45  1  0
 19 46  1  0
 19 47  1  0
 23 48  1  0
 24 49  1  0
 25 50  1  0
 26 51  1  0
 27 52  1  0
 29 53  1  0
 30 54  1  0
M  END
>  <UniqueID>  (75) 
68

>  <SMILES>  (75) 
Cc1ccc(CNC(=O)Cn2c(=O)cc(C)c3c(C)nn(-c4ccccc4)c32)cc1

>  <Energy>  (75) 
106.42285475502847

>  <Genealogy>  (75) 
Cc1ccc(CNC(=O)Cn2c(=O)cc(C)c3c(C)nn(-c4ccccc4)c32)cc1 (3D coordinates assigned)
Cc1ccc(CNC(=O)Cn2c(=O)cc(C)c3c(C)nn(-c4ccccc4)c32)cc1 (optimized conformer: 106.42285475502847 kcal/mol)

>  <smiles>  (75) 
Cc1ccc(CNC(=O)Cn2c(=O)cc(C)c3c(C)nn(-c4ccccc4)c32)cc1

>  <score_type>  (75) 
oracle

>  <origin>  (75) 
adg

>  <m_score__min__energy>  (75) 
-8.3100000000000005

>  <m_primary>  (75) 
energy

$$$$
75:0
     RDKit          3D

 41 44  0  0  0  0  0  0  0  0999 V2000
   54.7680   27.4700   46.3550 H   0  0  0  0  0  0  0  0  0  0  0  0
   55.1890   26.6210   45.9970 O   0  0  0  0  0  0  0  0  0  0  0  0
   56.5560   26.3580   46.1100 C   0  0  0  0  0  0  0  0  0  0  0  0
   56.9930   25.0310   46.1130 C   0  0  0  0  0  0  0  0  0  0  0  0
   56.2635   24.2122   46.0270 H   0  0  0  0  0  0  0  0  0  0  0  0
   58.3540   24.7430   46.2250 C   0  0  0  0  0  0  0  0  0  0  0  0
   58.7034   23.7000   46.2296 H   0  0  0  0  0  0  0  0  0  0  0  0
   59.2660   25.7930   46.3310 C   0  0  0  0  0  0  0  0  0  0  0  0
   60.3417   25.5802   46.4187 H   0  0  0  0  0  0  0  0  0  0  0  0
   58.8260   27.0790   46.3260 N   0  0  0  0  0  0  0  0  0  0  0  0
   57.5040   27.3950   46.2190 C   0  0  0  0  0  0  0  0  0  0  0  0
   57.1070   28.6360   46.2160 N   0  0  0  0  0  0  0  0  0  0  0  0
   56.4580   29.3420   45.1430 C   0  0  0  0  0  0  0  0  0  0  0  0
   55.3850   28.9040   44.6430 O   0  0  0  0  0  0  0  0  0  0  0  0
   57.0540   30.5940   44.6200 C   0  0  0  0  0  0  0  0  0  0  0  0
   57.2790   30.7590   43.2410 C   0  0  0  0  0  0  0  0  0  0  0  0
   57.0107   29.9523   42.5429 H   0  0  0  0  0  0  0  0  0  0  0  0
   57.8410   31.9410   42.7530 C   0  0  0  0  0  0  0  0  0  0  0  0
   58.0131   32.0600   41.6731 H   0  0  0  0  0  0  0  0  0  0  0  0
   58.1850   32.9710   43.6280 C   0  0  0  0  0  0  0  0  0  0  0  0
   58.6263   33.8992   43.2361 H   0  0  0  0  0  0  0  0  0  0  0  0
   57.9690   32.8260   45.0110 C   0  0  0  0  0  0  0  0  0  0  0  0
   58.2970   33.8310   45.9320 O   0  0  0  0  0  0  0  0  0  0  0  0
   59.3990   34.7220   45.7940 C   0  0  0  0  0  0  0  0  0  0  0  0
   59.7429   34.7230   44.7491 H   0  0  0  0  0  0  0  0  0  0  0  0
   59.0895   35.7394   46.0753 H   0  0  0  0  0  0  0  0  0  0  0  0
   60.5080   34.2710   46.6840 C   0  0  0  0  0  0  0  0  0  0  0  0
   60.4130   34.2940   48.0400 N   0  0  0  0  0  0  0  0  0  0  0  0
   61.6270   33.8670   48.4200 C   0  0  0  0  0  0  0  0  0  0  0  0
   62.1000   33.6910   49.7190 C   0  0  0  0  0  0  0  0  0  0  0  0
   61.4629   33.8999   50.5911 H   0  0  0  0  0  0  0  0  0  0  0  0
   63.4230   33.2360   49.8740 C   0  0  0  0  0  0  0  0  0  0  0  0
   63.8339   33.0833   50.8829 H   0  0  0  0  0  0  0  0  0  0  0  0
   64.2270   32.9740   48.7410 C   0  0  0  0  0  0  0  0  0  0  0  0
   65.2593   32.6181   48.8736 H   0  0  0  0  0  0  0  0  0  0  0  0
   63.7140   33.1660   47.4440 C   0  0  0  0  0  0  0  0  0  0  0  0
   64.3280   32.9680   46.5531 H   0  0  0  0  0  0  0  0  0  0  0  0
   62.4000   33.6160   47.3300 C   0  0  0  0  0  0  0  0  0  0  0  0
   61.7160   33.8710   46.2060 N   0  0  0  0  0  0  0  0  0  0  0  0
   57.4050   31.6390   45.4960 C   0  0  0  0  0  0  0  0  0  0  0  0
   57.2339   31.5216   46.5763 H   0  0  0  0  0  0  0  0  0  0  0  0
  1  2  1  0
  2  3  1  0
  3  4  2  0
  4  5  1  0
  4  6  1  0
  6  7  1  0
  6  8  2  0
  8  9  1  0
  8 10  1  0
 10 11  1  0
 11 12  2  0
 12 13  1  0
 13 14  2  0
 13 15  1  0
 15 16  2  0
 16 17  1  0
 16 18  1  0
 18 19  1  0
 18 20  2  0
 20 21  1  0
 20 22  1  0
 22 23  1  0
 23 24  1  0
 24 25  1  0
 24 26  1  0
 24 27  1  0
 27 28  2  0
 28 29  1  0
 29 30  2  0
 30 31  1  0
 30 32  1  0
 32 33  1  0
 32 34  2  0
 34 35  1  0
 34 36  1  0
 36 37  1  0
 36 38  2  0
 38 39  1  0
 22 40  2  0
 40 41  1  0
 11  3  1  0
 40 15  1  0
 39 27  1  0
 38 29  1  0
M  CHG  2  10  -1  39  -1
M  END
>  <UniqueID>  (76) 
69

>  <SMILES>  (76) 
O=C(/N=c1\[n-]cccc1O)c1cccc(OCc2nc3ccccc3[n-]2)c1

>  <Energy>  (76) 
83.77221998926687

>  <Genealogy>  (76) 
O=C(N=c1[n-]cccc1O)c1cccc(OCc2nc3ccccc3[n-]2)c1 (protonated)
O=C(/N=c1\[n-]cccc1O)c1cccc(OCc2nc3ccccc3[n-]2)c1 (cis-trans isomerization)
O=C(/N=c1\[n-]cccc1O)c1cccc(OCc2nc3ccccc3[n-]2)c1 (3D coordinates assigned)
O=C(/N=c1\[n-]cccc1O)c1cccc(OCc2nc3ccccc3[n-]2)c1 (optimized conformer: 83.77221998926687 kcal/mol)

>  <smiles>  (76) 
O=C(N=c1[nH]cccc1O)c1cccc(OCc2nc3ccccc3[nH]2)c1

>  <score_type>  (76) 
oracle

>  <origin>  (76) 
adg

>  <m_score__min__energy>  (76) 
-11.98

>  <m_primary>  (76) 
energy

$$$$
76:0
     RDKit          3D

 46 48  0  0  0  0  0  0  0  0999 V2000
   56.2480   26.7385   47.1128 H   0  0  0  0  0  0  0  0  0  0  0  0
   56.2990   25.9830   46.3150 C   0  0  0  0  0  0  0  0  0  0  0  0
   55.2010   25.2390   46.0150 N   0  0  0  0  0  0  0  0  0  0  0  0
   55.2150   24.3050   45.0230 C   0  0  0  0  0  0  0  0  0  0  0  0
   54.0750   23.5460   44.7380 O   0  0  0  0  0  0  0  0  0  0  0  0
   52.7550   24.0290   44.9580 C   0  0  0  0  0  0  0  0  0  0  0  0
   52.5654   24.0984   46.0393 H   0  0  0  0  0  0  0  0  0  0  0  0
   52.6481   25.0245   44.5024 H   0  0  0  0  0  0  0  0  0  0  0  0
   52.0309   23.3376   44.5024 H   0  0  0  0  0  0  0  0  0  0  0  0
   56.3800   24.1070   44.2750 C   0  0  0  0  0  0  0  0  0  0  0  0
   56.4060   23.1930   43.2720 F   0  0  0  0  0  0  0  0  0  0  0  0
   57.5180   24.8630   44.5630 C   0  0  0  0  0  0  0  0  0  0  0  0
   58.4320   24.7293   43.9658 H   0  0  0  0  0  0  0  0  0  0  0  0
   57.4970   25.7900   45.6100 C   0  0  0  0  0  0  0  0  0  0  0  0
   58.6530   26.6020   45.8570 N   0  0  0  0  0  0  0  0  0  0  0  0
   58.6780   27.8210   46.3270 C   0  0  0  0  0  0  0  0  0  0  0  0
   58.6030   28.9020   45.4290 C   0  0  0  0  0  0  0  0  0  0  0  0
   58.5190   28.6680   44.1900 O   0  0  0  0  0  0  0  0  0  0  0  0
   58.6260   30.1970   45.8950 N   0  0  0  0  0  0  0  0  0  0  0  0
   58.5430   31.3330   44.9340 C   0  0  1  0  0  0  0  0  0  0  0  0
   59.3760   31.1434   44.2410 H   0  0  0  0  0  0  0  0  0  0  0  0
   57.2440   31.3430   44.1040 C   0  0  0  0  0  0  0  0  0  0  0  0
   57.4115   30.8142   43.1541 H   0  0  0  0  0  0  0  0  0  0  0  0
   56.9483   32.3822   43.8974 H   0  0  0  0  0  0  0  0  0  0  0  0
   56.2180   30.6960   44.8290 O   0  0  0  0  0  0  0  0  0  0  0  0
   55.6040   29.7220   44.0120 C   0  0  0  0  0  0  0  0  0  0  0  0
   54.5341   29.9536   43.9038 H   0  0  0  0  0  0  0  0  0  0  0  0
   55.7155   28.7292   44.4723 H   0  0  0  0  0  0  0  0  0  0  0  0
   56.2670   29.7290   42.6440 C   0  0  0  0  0  0  0  0  0  0  0  0
   57.3601   29.7405   42.7664 H   0  0  0  0  0  0  0  0  0  0  0  0
   55.9698   28.8277   42.0879 H   0  0  0  0  0  0  0  0  0  0  0  0
   55.9508   30.6239   42.0879 H   0  0  0  0  0  0  0  0  0  0  0  0
   58.8020   32.7260   45.5700 C   0  0  0  0  0  0  0  0  0  0  0  0
   59.8086   32.4301   45.9006 H   0  0  0  0  0  0  0  0  0  0  0  0
   58.1870   33.9350   44.8770 C   0  0  0  0  0  0  0  0  0  0  0  0
   58.7556   34.8737   44.8021 H   0  0  0  0  0  0  0  0  0  0  0  0
   57.7466   34.1220   43.8865 H   0  0  0  0  0  0  0  0  0  0  0  0
   57.6470   33.4790   46.2240 C   0  0  0  0  0  0  0  0  0  0  0  0
   57.8258   34.0874   47.1228 H   0  0  0  0  0  0  0  0  0  0  0  0
   56.6558   33.1995   46.6105 H   0  0  0  0  0  0  0  0  0  0  0  0
   58.7570   30.4170   47.2420 C   0  0  0  0  0  0  0  0  0  0  0  0
   58.7834   31.4477   47.6254 H   0  0  0  0  0  0  0  0  0  0  0  0
   58.8570   29.3480   48.1300 C   0  0  0  0  0  0  0  0  0  0  0  0
   59.0470   29.6510   49.8490 Cl  0  0  0  0  0  0  0  0  0  0  0  0
   58.8200   28.0760   47.6620 N   0  0  0  0  0  0  0  0  0  0  0  0
   58.9460   27.3040   48.3520 H   0  0  0  0  0  0  0  0  0  0  0  0
  1  2  1  0
  2  3  2  0
  3  4  1  0
  4  5  1  0
  5  6  1  0
  6  7  1  0
  6  8  1  0
  6  9  1  0
  4 10  2  0
 10 11  1  0
 10 12  1  0
 12 13  1  0
 12 14  2  0
 14 15  1  0
 15 16  2  0
 16 17  1  0
 17 18  2  0
 17 19  1  0
 19 20  1  0
 20 21  1  6
 20 22  1  0
 22 23  1  0
 22 24  1  0
 22 25  1  0
 25 26  1  0
 26 27  1  0
 26 28  1  0
 26 29  1  0
 29 30  1  0
 29 31  1  0
 29 32  1  0
 20 33  1  0
 33 34  1  0
 33 35  1  0
 35 36  1  0
 35 37  1  0
 35 38  1  0
 38 39  1  0
 38 40  1  0
 19 41  1  0
 41 42  1  0
 41 43  2  0
 43 44  1  0
 43 45  1  0
 45 46  1  0
 14  2  1  0
 45 16  1  0
 38 33  1  0
M  END
>  <UniqueID>  (77) 
70

>  <SMILES>  (77) 
CCOC[C@@H](C1CC1)n1cc(Cl)[nH]/c(=N\c2cnc(OC)c(F)c2)c1=O

>  <Energy>  (77) 
325.02399182461704

>  <Genealogy>  (77) 
CCOC[C@@H](C1CC1)n1cc(Cl)[nH]c(=Nc2cnc(OC)c(F)c2)c1=O (chirality)
CCOC[C@@H](C1CC1)n1cc(Cl)[nH]/c(=N\c2cnc(OC)c(F)c2)c1=O (cis-trans isomerization)
CCOC[C@@H](C1CC1)n1cc(Cl)[nH]/c(=N\c2cnc(OC)c(F)c2)c1=O (3D coordinates assigned)
CCOC[C@@H](C1CC1)n1cc(Cl)[nH]/c(=N\c2cnc(OC)c(F)c2)c1=O (nonaromatic ring conformer: 325.02399182461704 kcal/mol)

>  <smiles>  (77) 
CCOCC(C1CC1)n1cc(Cl)[nH]c(=Nc2cnc(OC)c(F)c2)c1=O

>  <score_type>  (77) 
oracle

>  <origin>  (77) 
adg

>  <m_score__min__energy>  (77) 
-7.0499999999999998

>  <m_primary>  (77) 
energy

$$$$
77:0
     RDKit          3D

 77 80  0  0  0  0  0  0  0  0999 V2000
   56.9880   29.9630   43.7030 C   0  0  0  0  0  0  0  0  0  0  0  0
   56.9940   30.4860   45.0280 O   0  0  0  0  0  0  0  0  0  0  0  0
   57.5400   31.7280   45.3990 C   0  0  0  0  0  0  0  0  0  0  0  0
   57.0210   32.9380   44.8980 C   0  0  0  0  0  0  0  0  0  0  0  0
   57.5430   34.1590   45.3190 C   0  0  0  0  0  0  0  0  0  0  0  0
   58.5910   34.1960   46.2360 C   0  0  0  0  0  0  0  0  0  0  0  0
   59.1420   33.0050   46.7330 C   0  0  0  0  0  0  0  0  0  0  0  0
   60.2720   33.0960   47.6770 C   0  0  0  0  0  0  0  0  0  0  0  0
   60.1930   33.9120   48.6340 O   0  0  0  0  0  0  0  0  0  0  0  0
   61.4290   32.2550   47.5030 N   0  0  0  0  0  0  0  0  0  0  0  0
   62.4800   32.0750   48.4810 C   0  0  0  0  0  0  0  0  0  0  0  0
   62.3270   31.1680   49.5490 C   0  0  0  0  0  0  0  0  0  0  0  0
   63.3640   30.9610   50.4720 C   0  0  0  0  0  0  0  0  0  0  0  0
   63.2190   29.9480   51.5380 C   0  0  0  0  0  0  0  0  0  0  0  0
   63.9720   28.9390   51.5370 O   0  0  0  0  0  0  0  0  0  0  0  0
   62.2140   30.0560   52.5560 N   0  0  0  0  0  0  0  0  0  0  0  0
   60.9390   30.6950   52.4100 C   0  0  0  0  0  0  0  0  0  0  0  0
   59.8140   30.1860   51.7840 C   0  0  0  0  0  0  0  0  0  0  0  0
   58.8590   31.1860   51.8610 C   0  0  0  0  0  0  0  0  0  0  0  0
   57.4920   31.0760   51.3130 C   0  0  0  0  0  0  0  0  0  0  0  0
   57.0460   31.9540   50.5260 O   0  0  0  0  0  0  0  0  0  0  0  0
   56.6690   29.9600   51.6790 N   0  0  0  0  0  0  0  0  0  0  0  0
   55.4840   30.0650   52.5240 C   0  0  0  0  0  0  0  0  0  0  0  0
   54.3110   30.6520   51.7340 C   0  0  0  0  0  0  0  0  0  0  0  0
   52.9890   29.8920   51.9500 C   0  0  0  0  0  0  0  0  0  0  0  0
   51.9370   30.3260   51.0020 N   0  0  0  0  0  0  0  0  0  0  0  0
   52.1500   29.7470   49.6640 C   0  0  0  0  0  0  0  0  0  0  0  0
   51.9270   31.7950   50.9050 C   0  0  0  0  0  0  0  0  0  0  0  0
   59.3760   32.2710   52.4940 N   0  0  0  0  0  0  0  0  0  0  0  0
   58.7030   33.5370   52.7870 C   0  0  0  0  0  0  0  0  0  0  0  0
   60.6490   31.9770   52.8210 C   0  0  0  0  0  0  0  0  0  0  0  0
   64.5300   31.7300   50.3800 C   0  0  0  0  0  0  0  0  0  0  0  0
   64.6740   32.6710   49.3640 C   0  0  0  0  0  0  0  0  0  0  0  0
   63.6660   32.8460   48.4020 C   0  0  0  0  0  0  0  0  0  0  0  0
   63.8660   33.8660   47.3180 C   0  0  0  0  0  0  0  0  0  0  0  0
   58.6140   31.7570   46.3170 C   0  0  0  0  0  0  0  0  0  0  0  0
   59.1140   30.4790   46.8890 C   0  0  0  0  0  0  0  0  0  0  0  0
   59.8160   29.5660   46.0840 C   0  0  0  0  0  0  0  0  0  0  0  0
   60.3140   28.3820   46.6310 C   0  0  0  0  0  0  0  0  0  0  0  0
   60.1330   28.1060   47.9880 C   0  0  0  0  0  0  0  0  0  0  0  0
   59.4370   29.0060   48.7990 C   0  0  0  0  0  0  0  0  0  0  0  0
   58.9270   30.1870   48.2520 C   0  0  0  0  0  0  0  0  0  0  0  0
   56.9754   28.8638   43.7427 H   0  0  0  0  0  0  0  0  0  0  0  0
   56.0939   30.3210   43.1715 H   0  0  0  0  0  0  0  0  0  0  0  0
   57.8901   30.3004   43.1715 H   0  0  0  0  0  0  0  0  0  0  0  0
   56.1975   32.9185   44.1690 H   0  0  0  0  0  0  0  0  0  0  0  0
   57.1259   35.0978   44.9257 H   0  0  0  0  0  0  0  0  0  0  0  0
   58.9890   35.1647   46.5725 H   0  0  0  0  0  0  0  0  0  0  0  0
   61.4370   31.6520   46.6510 H   0  0  0  0  0  0  0  0  0  0  0  0
   61.3826   30.6152   49.6606 H   0  0  0  0  0  0  0  0  0  0  0  0
   59.7020   29.1941   51.3218 H   0  0  0  0  0  0  0  0  0  0  0  0
   55.2098   29.0641   52.8886 H   0  0  0  0  0  0  0  0  0  0  0  0
   55.7095   30.7292   53.3713 H   0  0  0  0  0  0  0  0  0  0  0  0
   54.1679   31.6969   52.0465 H   0  0  0  0  0  0  0  0  0  0  0  0
   54.5635   30.5690   50.6666 H   0  0  0  0  0  0  0  0  0  0  0  0
   53.1711   28.8162   51.8100 H   0  0  0  0  0  0  0  0  0  0  0  0
   52.6366   30.1071   52.9696 H   0  0  0  0  0  0  0  0  0  0  0  0
   52.5282   28.7190   49.7653 H   0  0  0  0  0  0  0  0  0  0  0  0
   51.1975   29.7348   49.1139 H   0  0  0  0  0  0  0  0  0  0  0  0
   52.8833   30.3549   49.1139 H   0  0  0  0  0  0  0  0  0  0  0  0
   51.9240   32.2292   51.9157 H   0  0  0  0  0  0  0  0  0  0  0  0
   52.8229   32.1328   50.3634 H   0  0  0  0  0  0  0  0  0  0  0  0
   51.0266   32.1206   50.3634 H   0  0  0  0  0  0  0  0  0  0  0  0
   58.6318   33.6709   53.8765 H   0  0  0  0  0  0  0  0  0  0  0  0
   59.2787   34.3675   52.3524 H   0  0  0  0  0  0  0  0  0  0  0  0
   57.6926   33.5243   52.3524 H   0  0  0  0  0  0  0  0  0  0  0  0
   61.3470   32.6541   53.3352 H   0  0  0  0  0  0  0  0  0  0  0  0
   65.3369   31.5901   51.1144 H   0  0  0  0  0  0  0  0  0  0  0  0
   65.5864   33.2834   49.3143 H   0  0  0  0  0  0  0  0  0  0  0  0
   64.0589   34.8496   47.7711 H   0  0  0  0  0  0  0  0  0  0  0  0
   64.7242   33.5749   46.6945 H   0  0  0  0  0  0  0  0  0  0  0  0
   62.9615   33.9206   46.6945 H   0  0  0  0  0  0  0  0  0  0  0  0
   59.9739   29.7852   45.0177 H   0  0  0  0  0  0  0  0  0  0  0  0
   60.8501   27.6650   45.9918 H   0  0  0  0  0  0  0  0  0  0  0  0
   60.5389   27.1789   48.4189 H   0  0  0  0  0  0  0  0  0  0  0  0
   59.2905   28.7855   49.8667 H   0  0  0  0  0  0  0  0  0  0  0  0
   58.3760   30.8923   48.8915 H   0  0  0  0  0  0  0  0  0  0  0  0
  1  2  1  0
  2  3  1  0
  3  4  2  0
  4  5  1  0
  5  6  2  0
  6  7  1  0
  7  8  1  0
  8  9  2  0
  8 10  1  0
 10 11  1  0
 11 12  2  0
 12 13  1  0
 13 14  1  0
 14 15  2  0
 14 16  1  0
 16 17  1  0
 17 18  1  0
 18 19  2  0
 19 20  1  0
 20 21  2  0
 20 22  1  0
 22 23  1  0
 23 24  1  0
 24 25  1  0
 25 26  1  0
 26 27  1  0
 26 28  1  0
 19 29  1  0
 29 30  1  0
 29 31  1  0
 13 32  2  0
 32 33  1  0
 33 34  2  0
 34 35  1  0
  7 36  2  0
 36 37  1  0
 37 38  2  0
 38 39  1  0
 39 40  2  0
 40 41  1  0
 41 42  2  0
 36  3  1  0
 42 37  1  0
 34 11  1  0
 31 17  2  0
  1 43  1  0
  1 44  1  0
  1 45  1  0
  4 46  1  0
  5 47  1  0
  6 48  1  0
 10 49  1  0
 12 50  1  0
 18 51  1  0
 23 52  1  0
 23 53  1  0
 24 54  1  0
 24 55  1  0
 25 56  1  0
 25 57  1  0
 27 58  1  0
 27 59  1  0
 27 60  1  0
 28 61  1  0
 28 62  1  0
 28 63  1  0
 30 64  1  0
 30 65  1  0
 30 66  1  0
 31 67  1  0
 32 68  1  0
 33 69  1  0
 35 70  1  0
 35 71  1  0
 35 72  1  0
 38 73  1  0
 39 74  1  0
 40 75  1  0
 41 76  1  0
 42 77  1  0
M  CHG  2  16  -1  22  -1
M  END
>  <UniqueID>  (78) 
71

>  <SMILES>  (78) 
COc1cccc(C(=O)Nc2cc(C(=O)[N-]c3cc(C(=O)[N-]CCCN(C)C)n(C)c3)ccc2C)c1-c1ccccc1

>  <Energy>  (78) 
124.39888529959325

>  <Genealogy>  (78) 
COc1cccc(C(=O)Nc2cc(C(=O)[N-]c3cc(C(=O)[N-]CCCN(C)C)n(C)c3)ccc2C)c1-c1ccccc1 (protonated)
COc1cccc(C(=O)Nc2cc(C(=O)[N-]c3cc(C(=O)[N-]CCCN(C)C)n(C)c3)ccc2C)c1-c1ccccc1 (3D coordinates assigned)
COc1cccc(C(=O)Nc2cc(C(=O)[N-]c3cc(C(=O)[N-]CCCN(C)C)n(C)c3)ccc2C)c1-c1ccccc1 (optimized conformer: 124.39888529959325 kcal/mol)

>  <smiles>  (78) 
COc1cccc(C(=O)Nc2cc(C(=O)Nc3cc(C(=O)NCCCN(C)C)n(C)c3)ccc2C)c1-c1ccccc1

>  <score_type>  (78) 
oracle

>  <origin>  (78) 
adg

>  <m_score__min__energy>  (78) 
-13.65

>  <m_primary>  (78) 
energy

$$$$
78:0
     RDKit          3D

 36 39  0  0  0  0  0  0  0  0999 V2000
   59.5207   27.8728   45.1736 H   0  0  0  0  0  0  0  0  0  0  0  0
   59.0850   28.8060   45.5600 C   0  0  0  0  0  0  0  0  0  0  0  0
   59.7900   29.5750   46.3290 N   0  0  0  0  0  0  0  0  0  0  0  0
   59.6060   29.7120   47.7200 N   0  0  0  0  0  0  0  0  0  0  0  0
   60.2890   30.5430   48.5320 C   0  0  0  0  0  0  0  0  0  0  0  0
   61.2440   31.5790   48.0820 C   0  0  0  0  0  0  0  0  0  0  0  0
   60.9090   32.8970   48.1720 N   0  0  0  0  0  0  0  0  0  0  0  0
   61.7560   33.8850   47.7800 C   0  0  0  0  0  0  0  0  0  0  0  0
   61.4532   34.9383   47.8744 H   0  0  0  0  0  0  0  0  0  0  0  0
   63.0090   33.5640   47.2580 C   0  0  0  0  0  0  0  0  0  0  0  0
   63.6955   34.3590   46.9312 H   0  0  0  0  0  0  0  0  0  0  0  0
   63.3820   32.2240   47.1550 C   0  0  0  0  0  0  0  0  0  0  0  0
   64.3671   31.9560   46.7454 H   0  0  0  0  0  0  0  0  0  0  0  0
   62.5020   31.2230   47.5730 C   0  0  0  0  0  0  0  0  0  0  0  0
   62.7929   30.1644   47.5037 H   0  0  0  0  0  0  0  0  0  0  0  0
   59.9970   30.3000   49.8280 N   0  0  0  0  0  0  0  0  0  0  0  0
   59.1340   29.2920   49.8580 N   0  0  0  0  0  0  0  0  0  0  0  0
   58.9170   28.9370   48.5800 C   0  0  0  0  0  0  0  0  0  0  0  0
   58.1870   27.9670   48.2480 O   0  0  0  0  0  0  0  0  0  0  0  0
   57.7060   29.1720   45.2000 C   0  0  0  0  0  0  0  0  0  0  0  0
   57.1040   30.4230   45.1170 C   0  0  0  0  0  0  0  0  0  0  0  0
   57.7350   31.7530   45.2450 C   0  0  0  0  0  0  0  0  0  0  0  0
   57.8280   32.3610   46.5070 C   0  0  0  0  0  0  0  0  0  0  0  0
   57.4345   31.8432   47.3942 H   0  0  0  0  0  0  0  0  0  0  0  0
   58.4180   33.6210   46.6420 C   0  0  0  0  0  0  0  0  0  0  0  0
   58.4939   34.0886   47.6348 H   0  0  0  0  0  0  0  0  0  0  0  0
   58.9120   34.2880   45.5160 C   0  0  0  0  0  0  0  0  0  0  0  0
   59.6830   35.8530   45.6910 Cl  0  0  0  0  0  0  0  0  0  0  0  0
   58.7940   33.7040   44.2520 C   0  0  0  0  0  0  0  0  0  0  0  0
   59.1728   34.2330   43.3651 H   0  0  0  0  0  0  0  0  0  0  0  0
   58.1950   32.4480   44.1130 C   0  0  0  0  0  0  0  0  0  0  0  0
   58.0833   32.0020   43.1137 H   0  0  0  0  0  0  0  0  0  0  0  0
   55.7910   30.2580   44.8670 N   0  0  0  0  0  0  0  0  0  0  0  0
   55.5350   28.9620   44.7760 N   0  0  0  0  0  0  0  0  0  0  0  0
   56.6810   28.2820   44.9690 C   0  0  0  0  0  0  0  0  0  0  0  0
   56.7825   27.1869   44.9458 H   0  0  0  0  0  0  0  0  0  0  0  0
  1  2  1  0
  2  3  2  0
  3  4  1  0
  4  5  1  0
  5  6  1  0
  6  7  2  0
  7  8  1  0
  8  9  1  0
  8 10  2  0
 10 11  1  0
 10 12  1  0
 12 13  1  0
 12 14  2  0
 14 15  1  0
  5 16  2  0
 16 17  1  0
 17 18  1  0
 18 19  2  0
  2 20  1  0
 20 21  1  0
 21 22  1  0
 22 23  2  0
 23 24  1  0
 23 25  1  0
 25 26  1  0
 25 27  2  0
 27 28  1  0
 27 29  1  0
 29 30  1  0
 29 31  2  0
 31 32  1  0
 21 33  2  0
 33 34  1  0
 34 35  1  0
 35 36  1  0
 18  4  1  0
 35 20  2  0
 14  6  1  0
 31 22  1  0
M  CHG  2  17  -1  34  -1
M  END
>  <UniqueID>  (79) 
72

>  <SMILES>  (79) 
O=c1[n-]nc(-c2ccccn2)n1/N=C/c1c[n-]nc1-c1ccc(Cl)cc1

>  <Energy>  (79) 
114.58293154577893

>  <Genealogy>  (79) 
O=c1[n-]nc(-c2ccccn2)n1N=Cc1c[n-]nc1-c1ccc(Cl)cc1 (protonated)
O=c1[n-]nc(-c2ccccn2)n1/N=C/c1c[n-]nc1-c1ccc(Cl)cc1 (cis-trans isomerization)
O=c1[n-]nc(-c2ccccn2)n1/N=C/c1c[n-]nc1-c1ccc(Cl)cc1 (3D coordinates assigned)
O=c1[n-]nc(-c2ccccn2)n1/N=C/c1c[n-]nc1-c1ccc(Cl)cc1 (optimized conformer: 114.58293154577893 kcal/mol)

>  <smiles>  (79) 
O=c1[nH]nc(-c2ccccn2)n1N=Cc1c[nH]nc1-c1ccc(Cl)cc1

>  <score_type>  (79) 
oracle

>  <origin>  (79) 
adg

>  <m_score__min__energy>  (79) 
-10.81

>  <m_primary>  (79) 
energy

$$$$
79:0
     RDKit          3D

 52 55  0  0  0  0  0  0  0  0999 V2000
   62.2710   34.5480   49.3800 C   0  0  0  0  0  0  0  0  0  0  0  0
   63.2360   33.3900   49.6900 C   0  0  2  0  0  0  0  0  0  0  0  0
   64.0060   32.9740   48.4230 C   0  0  0  0  0  0  0  0  0  0  0  0
   63.1120   32.2280   47.4190 C   0  0  0  0  0  0  0  0  0  0  0  0
   62.0590   31.3290   48.1030 C   0  0  0  0  0  0  0  0  0  0  0  0
   62.4610   30.9820   49.4810 N   0  0  2  0  0  0  0  0  0  0  0  0
   61.4220   29.7430   50.1630 S   0  0  0  0  0  0  0  0  0  0  0  0
   62.2460   28.6450   50.7770 O   0  0  0  0  0  0  0  0  0  0  0  0
   60.6090   30.3750   51.2590 O   0  0  0  0  0  0  0  0  0  0  0  0
   60.3180   29.0120   48.9880 C   0  0  0  0  0  0  0  0  0  0  0  0
   60.7210   27.9020   48.2340 C   0  0  0  0  0  0  0  0  0  0  0  0
   59.8590   27.3380   47.2900 C   0  0  0  0  0  0  0  0  0  0  0  0
   58.5650   27.8520   47.1190 C   0  0  0  0  0  0  0  0  0  0  0  0
   57.6640   27.2710   46.1030 C   0  0  0  0  0  0  0  0  0  0  0  0
   57.7840   26.0570   45.7920 O   0  0  0  0  0  0  0  0  0  0  0  0
   56.6730   28.0680   45.4380 N   0  0  0  0  0  0  0  0  0  0  0  0
   56.8990   29.2420   44.9270 C   0  0  0  0  0  0  0  0  0  0  0  0
   57.4880   30.2560   45.5970 N   0  0  0  0  0  0  0  0  0  0  0  0
   57.5620   31.3860   44.8450 C   0  0  0  0  0  0  0  0  0  0  0  0
   58.1570   32.6320   45.3700 C   0  0  0  0  0  0  0  0  0  0  0  0
   58.4730   33.6980   44.5120 C   0  0  0  0  0  0  0  0  0  0  0  0
   59.0260   34.8650   45.0410 C   0  0  0  0  0  0  0  0  0  0  0  0
   59.2590   34.9640   46.4130 C   0  0  0  0  0  0  0  0  0  0  0  0
   58.9350   33.8860   47.2390 C   0  0  0  0  0  0  0  0  0  0  0  0
   58.3980   32.7560   46.7060 N   0  0  0  0  0  0  0  0  0  0  0  0
   57.0220   31.2680   43.5630 C   0  0  0  0  0  0  0  0  0  0  0  0
   56.4310   29.6990   43.3830 S   0  0  0  0  0  0  0  0  0  0  0  0
   58.1440   28.9350   47.9020 C   0  0  0  0  0  0  0  0  0  0  0  0
   59.0210   29.5220   48.8200 C   0  0  0  0  0  0  0  0  0  0  0  0
   62.4990   32.1830   50.3470 C   0  0  0  0  0  0  0  0  0  0  0  0
   61.9073   34.9844   50.3220 H   0  0  0  0  0  0  0  0  0  0  0  0
   62.7979   35.3186   48.7982 H   0  0  0  0  0  0  0  0  0  0  0  0
   61.4180   34.1687   48.7982 H   0  0  0  0  0  0  0  0  0  0  0  0
   63.9697   33.7469   50.4277 H   0  0  0  0  0  0  0  0  0  0  0  0
   64.4055   33.8772   47.9387 H   0  0  0  0  0  0  0  0  0  0  0  0
   64.8139   32.2924   48.7273 H   0  0  0  0  0  0  0  0  0  0  0  0
   62.5894   32.9691   46.7965 H   0  0  0  0  0  0  0  0  0  0  0  0
   63.7633   31.5752   46.8192 H   0  0  0  0  0  0  0  0  0  0  0  0
   61.0980   31.8634   48.1342 H   0  0  0  0  0  0  0  0  0  0  0  0
   61.9691   30.3983   47.5236 H   0  0  0  0  0  0  0  0  0  0  0  0
   63.4190   30.5610   49.4480 H   0  0  0  0  0  0  0  0  0  0  0  0
   61.7220   27.4720   48.3861 H   0  0  0  0  0  0  0  0  0  0  0  0
   60.1963   26.4879   46.6787 H   0  0  0  0  0  0  0  0  0  0  0  0
   58.2860   33.6137   43.4313 H   0  0  0  0  0  0  0  0  0  0  0  0
   59.2778   35.7054   44.3774 H   0  0  0  0  0  0  0  0  0  0  0  0
   59.6929   35.8807   46.8390 H   0  0  0  0  0  0  0  0  0  0  0  0
   59.1143   33.9508   48.3223 H   0  0  0  0  0  0  0  0  0  0  0  0
   56.9879   32.0614   42.8019 H   0  0  0  0  0  0  0  0  0  0  0  0
   57.1210   29.3247   47.7945 H   0  0  0  0  0  0  0  0  0  0  0  0
   58.6926   30.3880   49.4135 H   0  0  0  0  0  0  0  0  0  0  0  0
   61.4654   32.4848   50.5721 H   0  0  0  0  0  0  0  0  0  0  0  0
   63.0575   31.9137   51.2556 H   0  0  0  0  0  0  0  0  0  0  0  0
  1  2  1  0
  2  3  1  0
  3  4  1  0
  4  5  1  0
  5  6  1  0
  6  7  1  0
  7  8  2  0
  7  9  2  0
  7 10  1  0
 10 11  2  0
 11 12  1  0
 12 13  2  0
 13 14  1  0
 14 15  2  0
 14 16  1  0
 16 17  2  3
 17 18  1  0
 18 19  1  0
 19 20  1  0
 20 21  2  0
 21 22  1  0
 22 23  2  0
 23 24  1  0
 24 25  2  0
 19 26  2  0
 26 27  1  0
 13 28  1  0
 28 29  2  0
  6 30  1  0
 30  2  1  0
 29 10  1  0
 27 17  1  0
 25 20  1  0
  1 31  1  0
  1 32  1  0
  1 33  1  0
  2 34  1  1
  3 35  1  0
  3 36  1  0
  4 37  1  0
  4 38  1  0
  5 39  1  0
  5 40  1  0
  6 41  1  6
 11 42  1  0
 12 43  1  0
 21 44  1  0
 22 45  1  0
 23 46  1  0
 24 47  1  0
 26 48  1  0
 28 49  1  0
 29 50  1  0
 30 51  1  0
 30 52  1  0
M  CHG  2   6   1  18  -1
M  END
>  <UniqueID>  (80) 
73

>  <SMILES>  (80) 
C[C@@H]1CCC[N@H+](S(=O)(=O)c2ccc(C(=O)N=c3[n-]c(-c4ccccn4)cs3)cc2)C1

>  <Energy>  (80) 
95.35924165788562

>  <Genealogy>  (80) 
CC1CCC[NH+](S(=O)(=O)c2ccc(C(=O)N=c3[n-]c(-c4ccccn4)cs3)cc2)C1 (protonated)
C[C@@H]1CCC[N@H+](S(=O)(=O)c2ccc(C(=O)N=c3[n-]c(-c4ccccn4)cs3)cc2)C1 (chirality)
C[C@@H]1CCC[N@H+](S(=O)(=O)c2ccc(C(=O)N=c3[n-]c(-c4ccccn4)cs3)cc2)C1 (3D coordinates assigned)
C[C@@H]1CCC[N@H+](S(=O)(=O)c2ccc(C(=O)N=c3[n-]c(-c4ccccn4)cs3)cc2)C1 (nonaromatic ring conformer: 95.35924165788562 kcal/mol)

>  <smiles>  (80) 
CC1CCCN(S(=O)(=O)c2ccc(C(=O)N=c3[nH]c(-c4ccccn4)cs3)cc2)C1

>  <score_type>  (80) 
oracle

>  <origin>  (80) 
adg

>  <m_score__min__energy>  (80) 
-10.34

>  <m_primary>  (80) 
energy

$$$$
80:0
     RDKit          3D

 46 49  0  0  0  0  0  0  0  0999 V2000
   55.6748   23.5581   42.0767 H   0  0  0  0  0  0  0  0  0  0  0  0
   56.2580   23.3740   42.9910 C   0  0  0  0  0  0  0  0  0  0  0  0
   56.7950   21.8770   43.5350 S   0  0  0  0  0  0  0  0  0  0  0  0
   57.5780   22.4330   44.9140 C   0  0  0  0  0  0  0  0  0  0  0  0
   58.1192   21.8148   45.6454 H   0  0  0  0  0  0  0  0  0  0  0  0
   57.4200   23.8140   44.9660 C   0  0  0  0  0  0  0  0  0  0  0  0
   57.8960   24.6460   46.1210 C   0  0  0  0  0  0  0  0  0  0  0  0
   58.9347   24.9604   45.9417 H   0  0  0  0  0  0  0  0  0  0  0  0
   57.8447   24.0507   47.0446 H   0  0  0  0  0  0  0  0  0  0  0  0
   57.0280   25.8550   46.2620 C   0  0  0  0  0  0  0  0  0  0  0  0
   55.7780   25.7240   46.3660 O   0  0  0  0  0  0  0  0  0  0  0  0
   57.6130   27.1580   46.2470 N   0  0  0  0  0  0  0  0  0  0  0  0
   57.1010   28.2320   45.7170 C   0  0  0  0  0  0  0  0  0  0  0  0
   57.6940   29.4740   45.5140 C   0  0  0  0  0  0  0  0  0  0  0  0
   58.9730   30.0040   45.6790 C   0  0  0  0  0  0  0  0  0  0  0  0
   59.7841   29.4103   46.1259 H   0  0  0  0  0  0  0  0  0  0  0  0
   59.1860   31.3270   45.2520 C   0  0  0  0  0  0  0  0  0  0  0  0
   60.1747   31.7921   45.3790 H   0  0  0  0  0  0  0  0  0  0  0  0
   58.1290   32.0630   44.6580 C   0  0  0  0  0  0  0  0  0  0  0  0
   58.3490   33.4660   44.1640 C   0  0  0  0  0  0  0  0  0  0  0  0
   59.3567   33.5288   43.7273 H   0  0  0  0  0  0  0  0  0  0  0  0
   57.5636   33.6786   43.4238 H   0  0  0  0  0  0  0  0  0  0  0  0
   58.2300   34.5260   45.2740 C   0  0  0  0  0  0  0  0  0  0  0  0
   57.5871   35.3399   44.9077 H   0  0  0  0  0  0  0  0  0  0  0  0
   57.8100   34.0188   46.1551 H   0  0  0  0  0  0  0  0  0  0  0  0
   59.5770   35.1310   45.7080 C   0  0  0  0  0  0  0  0  0  0  0  0
   60.1950   35.2898   44.8120 H   0  0  0  0  0  0  0  0  0  0  0  0
   59.3610   36.0748   46.2301 H   0  0  0  0  0  0  0  0  0  0  0  0
   60.3380   34.2480   46.6670 C   0  0  0  0  0  0  0  0  0  0  0  0
   59.7310   33.8090   47.8590 C   0  0  0  0  0  0  0  0  0  0  0  0
   58.7008   34.1145   48.0942 H   0  0  0  0  0  0  0  0  0  0  0  0
   60.4330   32.9860   48.7450 C   0  0  0  0  0  0  0  0  0  0  0  0
   59.9523   32.6444   49.6735 H   0  0  0  0  0  0  0  0  0  0  0  0
   61.7430   32.5960   48.4550 C   0  0  0  0  0  0  0  0  0  0  0  0
   62.2873   31.9377   49.1481 H   0  0  0  0  0  0  0  0  0  0  0  0
   62.3620   33.0430   47.2830 C   0  0  0  0  0  0  0  0  0  0  0  0
   63.3959   32.7425   47.0577 H   0  0  0  0  0  0  0  0  0  0  0  0
   61.6650   33.8730   46.3970 C   0  0  0  0  0  0  0  0  0  0  0  0
   62.1595   34.2341   45.4832 H   0  0  0  0  0  0  0  0  0  0  0  0
   56.8950   31.4870   44.5130 N   0  0  0  0  0  0  0  0  0  0  0  0
   56.6990   30.2140   44.9350 C   0  0  0  0  0  0  0  0  0  0  0  0
   55.5780   29.4950   44.7680 N   0  0  0  0  0  0  0  0  0  0  0  0
   55.8350   28.2830   45.2480 N   0  0  0  0  0  0  0  0  0  0  0  0
   55.1470   27.4970   45.2500 H   0  0  0  0  0  0  0  0  0  0  0  0
   56.6790   24.3370   43.8970 C   0  0  0  0  0  0  0  0  0  0  0  0
   56.4530   25.4079   43.7870 H   0  0  0  0  0  0  0  0  0  0  0  0
  1  2  1  0
  2  3  1  0
  3  4  1  0
  4  5  1  0
  4  6  2  0
  6  7  1  0
  7  8  1  0
  7  9  1  0
  7 10  1  0
 10 11  2  0
 10 12  1  0
 12 13  2  0
 13 14  1  0
 14 15  2  0
 15 16  1  0
 15 17  1  0
 17 18  1  0
 17 19  2  0
 19 20  1  0
 20 21  1  0
 20 22  1  0
 20 23  1  0
 23 24  1  0
 23 25  1  0
 23 26  1  0
 26 27  1  0
 26 28  1  0
 26 29  1  0
 29 30  2  0
 30 31  1  0
 30 32  1  0
 32 33  1  0
 32 34  2  0
 34 35  1  0
 34 36  1  0
 36 37  1  0
 36 38  2  0
 38 39  1  0
 19 40  1  0
 40 41  2  0
 41 42  1  0
 42 43  1  0
 43 44  1  0
  6 45  1  0
 45 46  1  0
 45  2  2  0
 43 13  1  0
 41 14  1  0
 38 29  1  0
M  CHG  1  42  -1
M  END
>  <UniqueID>  (81) 
74

>  <SMILES>  (81) 
O=C(Cc1ccsc1)/N=c1/[nH][n-]c2nc(CCCc3ccccc3)ccc12

>  <Energy>  (81) 
115.79349162013715

>  <Genealogy>  (81) 
O=C(Cc1ccsc1)N=c1[nH][n-]c2nc(CCCc3ccccc3)ccc12 (protonated)
O=C(Cc1ccsc1)/N=c1/[nH][n-]c2nc(CCCc3ccccc3)ccc12 (cis-trans isomerization)
O=C(Cc1ccsc1)/N=c1/[nH][n-]c2nc(CCCc3ccccc3)ccc12 (3D coordinates assigned)
O=C(Cc1ccsc1)/N=c1/[nH][n-]c2nc(CCCc3ccccc3)ccc12 (optimized conformer: 115.79349162013715 kcal/mol)

>  <smiles>  (81) 
O=C(Cc1ccsc1)N=c1[nH][nH]c2nc(CCCc3ccccc3)ccc12

>  <score_type>  (81) 
oracle

>  <origin>  (81) 
adg

>  <m_score__min__energy>  (81) 
-11.49

>  <m_primary>  (81) 
energy

$$$$
81:0
     RDKit          3D

 42 44  0  0  0  0  0  0  0  0999 V2000
   55.6030   29.2190   44.9020 O   0  0  0  0  0  0  0  0  0  0  0  0
   56.6240   28.6430   45.3670 C   0  0  0  0  0  0  0  0  0  0  0  0
   57.7890   29.4140   45.7130 N   0  0  0  0  0  0  0  0  0  0  0  0
   58.0030   30.7730   45.2940 C   0  0  0  0  0  0  0  0  0  0  0  0
   57.5320   31.2400   44.0550 C   0  0  0  0  0  0  0  0  0  0  0  0
   57.7720   32.5590   43.6620 C   0  0  0  0  0  0  0  0  0  0  0  0
   58.4900   33.4200   44.4960 C   0  0  0  0  0  0  0  0  0  0  0  0
   58.9790   32.9640   45.7270 C   0  0  0  0  0  0  0  0  0  0  0  0
   59.8730   34.0560   46.7880 S   0  0  0  0  0  0  0  0  0  0  0  0
   60.3730   35.2260   45.9870 O   0  0  0  0  0  0  0  0  0  0  0  0
   58.9470   34.5820   47.8500 O   0  0  0  0  0  0  0  0  0  0  0  0
   61.2290   33.2500   47.5430 N   0  0  0  0  0  0  0  0  0  0  0  0
   62.5020   33.8290   47.0640 C   0  0  0  0  0  0  0  0  0  0  0  0
   63.6680   33.4570   47.9840 C   0  0  0  0  0  0  0  0  0  0  0  0
   63.4550   34.0190   49.4020 C   0  0  0  0  0  0  0  0  0  0  0  0
   61.9700   34.2290   49.7410 C   0  0  0  0  0  0  0  0  0  0  0  0
   61.0840   33.2030   49.0190 C   0  0  0  0  0  0  0  0  0  0  0  0
   58.7460   31.6360   46.1140 C   0  0  0  0  0  0  0  0  0  0  0  0
   56.6030   27.1810   45.5930 C   0  0  0  0  0  0  0  0  0  0  0  0
   57.7470   26.3970   45.3930 C   0  0  0  0  0  0  0  0  0  0  0  0
   57.6830   25.0230   45.6230 C   0  0  0  0  0  0  0  0  0  0  0  0
   56.4790   24.4630   46.0470 C   0  0  0  0  0  0  0  0  0  0  0  0
   56.3940   23.2260   46.2620 O   0  0  0  0  0  0  0  0  0  0  0  0
   55.3960   25.2610   46.2300 N   0  0  0  0  0  0  0  0  0  0  0  0
   55.4570   26.5760   46.0100 N   0  0  0  0  0  0  0  0  0  0  0  0
   58.4750   29.0000   46.3850 H   0  0  0  0  0  0  0  0  0  0  0  0
   56.9720   30.5642   43.3919 H   0  0  0  0  0  0  0  0  0  0  0  0
   57.3949   32.9205   42.6939 H   0  0  0  0  0  0  0  0  0  0  0  0
   58.6719   34.4593   44.1849 H   0  0  0  0  0  0  0  0  0  0  0  0
   62.7093   33.4494   46.0526 H   0  0  0  0  0  0  0  0  0  0  0  0
   62.4026   34.9245   47.0579 H   0  0  0  0  0  0  0  0  0  0  0  0
   63.7465   32.3612   48.0397 H   0  0  0  0  0  0  0  0  0  0  0  0
   64.5912   33.8897   47.5712 H   0  0  0  0  0  0  0  0  0  0  0  0
   63.8853   33.3137   50.1282 H   0  0  0  0  0  0  0  0  0  0  0  0
   63.9479   35.0013   49.4472 H   0  0  0  0  0  0  0  0  0  0  0  0
   61.8314   34.1214   50.8269 H   0  0  0  0  0  0  0  0  0  0  0  0
   61.6766   35.2361   49.4099 H   0  0  0  0  0  0  0  0  0  0  0  0
   61.3588   32.1962   49.3665 H   0  0  0  0  0  0  0  0  0  0  0  0
   60.0377   33.4470   49.2552 H   0  0  0  0  0  0  0  0  0  0  0  0
   59.1493   31.2678   47.0688 H   0  0  0  0  0  0  0  0  0  0  0  0
   58.6864   26.8608   45.0578 H   0  0  0  0  0  0  0  0  0  0  0  0
   58.5700   24.3902   45.4720 H   0  0  0  0  0  0  0  0  0  0  0  0
  1  2  2  0
  2  3  1  0
  3  4  1  0
  4  5  2  0
  5  6  1  0
  6  7  2  0
  7  8  1  0
  8  9  1  0
  9 10  2  0
  9 11  2  0
  9 12  1  0
 12 13  1  0
 13 14  1  0
 14 15  1  0
 15 16  1  0
 16 17  1  0
  8 18  2  0
  2 19  1  0
 19 20  1  0
 20 21  2  0
 21 22  1  0
 22 23  2  0
 22 24  1  0
 24 25  1  0
 18  4  1  0
 25 19  2  0
 17 12  1  0
  3 26  1  0
  5 27  1  0
  6 28  1  0
  7 29  1  0
 13 30  1  0
 13 31  1  0
 14 32  1  0
 14 33  1  0
 15 34  1  0
 15 35  1  0
 16 36  1  0
 16 37  1  0
 17 38  1  0
 17 39  1  0
 18 40  1  0
 20 41  1  0
 21 42  1  0
M  CHG  1  24  -1
M  END
>  <UniqueID>  (82) 
75

>  <SMILES>  (82) 
O=C(Nc1cccc(S(=O)(=O)N2CCCCC2)c1)c1ccc(=O)[n-]n1

>  <Energy>  (82) 
52.94694382938262

>  <Genealogy>  (82) 
O=C(Nc1cccc(S(=O)(=O)N2CCCCC2)c1)c1ccc(=O)[n-]n1 (protonated)
O=C(Nc1cccc(S(=O)(=O)N2CCCCC2)c1)c1ccc(=O)[n-]n1 (3D coordinates assigned)
O=C(Nc1cccc(S(=O)(=O)N2CCCCC2)c1)c1ccc(=O)[n-]n1 (nonaromatic ring conformer: 52.94694382938262 kcal/mol)

>  <smiles>  (82) 
O=C(Nc1cccc(S(=O)(=O)N2CCCCC2)c1)c1ccc(=O)[nH]n1

>  <score_type>  (82) 
oracle

>  <origin>  (82) 
adg

>  <m_score__min__energy>  (82) 
-11.539999999999999

>  <m_primary>  (82) 
energy

$$$$
82:0
     RDKit          3D

 61 63  0  0  0  0  0  0  0  0999 V2000
   55.5250   19.9410   46.3920 C   0  0  0  0  0  0  0  0  0  0  0  0
   54.8800   21.0990   45.6370 C   0  0  0  0  0  0  0  0  0  0  0  0
   54.9980   22.3260   46.4320 N   0  0  0  0  0  0  0  0  0  0  0  0
   54.9640   23.7310   45.4070 S   0  0  0  0  0  0  0  0  0  0  0  0
   53.6100   24.3730   45.5300 O   0  0  0  0  0  0  0  0  0  0  0  0
   55.1580   23.3450   43.9670 O   0  0  0  0  0  0  0  0  0  0  0  0
   56.2020   24.9030   45.8950 C   0  0  0  0  0  0  0  0  0  0  0  0
   55.9810   26.2610   45.6370 C   0  0  0  0  0  0  0  0  0  0  0  0
   56.9560   27.2280   45.9290 C   0  0  0  0  0  0  0  0  0  0  0  0
   56.6800   28.6460   45.5830 C   0  0  0  0  0  0  0  0  0  0  0  0
   55.4950   29.0140   44.8740 N   0  0  0  0  0  0  0  0  0  0  0  0
   57.5120   29.5470   45.9090 O   0  0  0  0  0  0  0  0  0  0  0  0
   58.1740   26.8140   46.5170 C   0  0  0  0  0  0  0  0  0  0  0  0
   59.2510   27.7380   46.7320 N   0  0  0  0  0  0  0  0  0  0  0  0
   60.2450   27.9330   45.6690 C   0  0  0  0  0  0  0  0  0  0  0  0
   60.6640   29.4050   45.6020 C   0  0  0  0  0  0  0  0  0  0  0  0
   60.8180   29.9870   46.9410 N   0  0  0  0  0  0  0  0  0  0  0  0
   61.0320   31.4000   47.0700 C   0  0  0  0  0  0  0  0  0  0  0  0
   62.2930   31.8810   47.4550 C   0  0  0  0  0  0  0  0  0  0  0  0
   62.5210   33.2540   47.5640 C   0  0  0  0  0  0  0  0  0  0  0  0
   61.4930   34.1560   47.2860 C   0  0  0  0  0  0  0  0  0  0  0  0
   60.2360   33.6890   46.8870 C   0  0  0  0  0  0  0  0  0  0  0  0
   60.0000   32.3060   46.7640 C   0  0  0  0  0  0  0  0  0  0  0  0
   58.7630   31.8000   46.3310 O   0  0  0  0  0  0  0  0  0  0  0  0
   57.7900   32.5560   45.6220 C   0  0  0  0  0  0  0  0  0  0  0  0
   60.7420   29.1350   48.1350 C   0  0  0  0  0  0  0  0  0  0  0  0
   59.4790   28.2690   48.0820 C   0  0  0  0  0  0  0  0  0  0  0  0
   58.3830   25.4550   46.8010 C   0  0  0  0  0  0  0  0  0  0  0  0
   57.4090   24.4920   46.4900 C   0  0  0  0  0  0  0  0  0  0  0  0
   57.6300   23.0990   46.7410 N   0  0  0  0  0  0  0  0  0  0  0  0
   58.5110   22.0150   45.7090 S   0  0  0  0  0  0  0  0  0  0  0  0
   57.7320   21.9900   44.1090 C   0  0  0  0  0  0  0  0  0  0  0  0
   59.9320   22.4840   45.5600 O   0  0  0  0  0  0  0  0  0  0  0  0
   58.4900   20.6300   46.2980 O   0  0  0  0  0  0  0  0  0  0  0  0
   55.4303   20.1111   47.4746 H   0  0  0  0  0  0  0  0  0  0  0  0
   55.0203   19.0014   46.1229 H   0  0  0  0  0  0  0  0  0  0  0  0
   56.5896   19.8755   46.1229 H   0  0  0  0  0  0  0  0  0  0  0  0
   55.3895   21.2368   44.6719 H   0  0  0  0  0  0  0  0  0  0  0  0
   53.8172   20.8761   45.4615 H   0  0  0  0  0  0  0  0  0  0  0  0
   55.9380   22.3190   46.8970 H   0  0  0  0  0  0  0  0  0  0  0  0
   55.0238   26.5769   45.1965 H   0  0  0  0  0  0  0  0  0  0  0  0
   54.6480   29.3460   45.3870 H   0  0  0  0  0  0  0  0  0  0  0  0
   61.1287   27.3126   45.8793 H   0  0  0  0  0  0  0  0  0  0  0  0
   59.8026   27.6409   44.7052 H   0  0  0  0  0  0  0  0  0  0  0  0
   61.6233   29.4787   45.0687 H   0  0  0  0  0  0  0  0  0  0  0  0
   59.8759   29.9623   45.0743 H   0  0  0  0  0  0  0  0  0  0  0  0
   63.1059   31.1725   47.6720 H   0  0  0  0  0  0  0  0  0  0  0  0
   63.5107   33.6248   47.8689 H   0  0  0  0  0  0  0  0  0  0  0  0
   61.6716   35.2373   47.3809 H   0  0  0  0  0  0  0  0  0  0  0  0
   59.4294   34.4043   46.6686 H   0  0  0  0  0  0  0  0  0  0  0  0
   57.1306   33.0683   46.3380 H   0  0  0  0  0  0  0  0  0  0  0  0
   58.2943   33.3015   44.9897 H   0  0  0  0  0  0  0  0  0  0  0  0
   57.1922   31.8831   44.9897 H   0  0  0  0  0  0  0  0  0  0  0  0
   61.6281   28.4845   48.1752 H   0  0  0  0  0  0  0  0  0  0  0  0
   60.7054   29.7720   49.0311 H   0  0  0  0  0  0  0  0  0  0  0  0
   59.5912   27.4288   48.7830 H   0  0  0  0  0  0  0  0  0  0  0  0
   58.6177   28.8949   48.3584 H   0  0  0  0  0  0  0  0  0  0  0  0
   59.3244   25.1395   47.2745 H   0  0  0  0  0  0  0  0  0  0  0  0
   56.6396   21.9549   44.2335 H   0  0  0  0  0  0  0  0  0  0  0  0
   58.0086   22.8975   43.5523 H   0  0  0  0  0  0  0  0  0  0  0  0
   58.0663   21.1021   43.5523 H   0  0  0  0  0  0  0  0  0  0  0  0
  1  2  1  0
  2  3  1  0
  3  4  1  0
  4  5  2  0
  4  6  2  0
  4  7  1  0
  7  8  2  0
  8  9  1  0
  9 10  1  0
 10 11  1  0
 10 12  2  0
  9 13  2  0
 13 14  1  0
 14 15  1  0
 15 16  1  0
 16 17  1  0
 17 18  1  0
 18 19  2  0
 19 20  1  0
 20 21  2  0
 21 22  1  0
 22 23  2  0
 23 24  1  0
 24 25  1  0
 17 26  1  0
 26 27  1  0
 13 28  1  0
 28 29  2  0
 29 30  1  0
 30 31  1  0
 31 32  1  0
 31 33  2  0
 31 34  2  0
 29  7  1  0
 27 14  1  0
 23 18  1  0
  1 35  1  0
  1 36  1  0
  1 37  1  0
  2 38  1  0
  2 39  1  0
  3 40  1  0
  8 41  1  0
 11 42  1  0
 15 43  1  0
 15 44  1  0
 16 45  1  0
 16 46  1  0
 19 47  1  0
 20 48  1  0
 21 49  1  0
 22 50  1  0
 25 51  1  0
 25 52  1  0
 25 53  1  0
 26 54  1  0
 26 55  1  0
 27 56  1  0
 27 57  1  0
 28 58  1  0
 32 59  1  0
 32 60  1  0
 32 61  1  0
M  CHG  2  11  -1  30  -1
M  END
>  <UniqueID>  (83) 
76

>  <SMILES>  (83) 
CCNS(=O)(=O)c1cc(C([NH-])=O)c(N2CCN(c3ccccc3OC)CC2)cc1[N-]S(C)(=O)=O

>  <Energy>  (83) 
70.0952968997054

>  <Genealogy>  (83) 
CCNS(=O)(=O)c1cc(C([NH-])=O)c(N2CCN(c3ccccc3OC)CC2)cc1[N-]S(C)(=O)=O (protonated)
CCNS(=O)(=O)c1cc(C([NH-])=O)c(N2CCN(c3ccccc3OC)CC2)cc1[N-]S(C)(=O)=O (3D coordinates assigned)
CCNS(=O)(=O)c1cc(C([NH-])=O)c(N2CCN(c3ccccc3OC)CC2)cc1[N-]S(C)(=O)=O (nonaromatic ring conformer: 70.0952968997054 kcal/mol)

>  <smiles>  (83) 
CCNS(=O)(=O)c1cc(C(N)=O)c(N2CCN(c3ccccc3OC)CC2)cc1NS(C)(=O)=O

>  <score_type>  (83) 
oracle

>  <origin>  (83) 
adg

>  <m_score__min__energy>  (83) 
-12.220000000000001

>  <m_primary>  (83) 
energy

$$$$
83:0
     RDKit          3D

 24 25  0  0  0  0  0  0  0  0999 V2000
   54.3790   25.9730   45.9600 O   0  0  0  0  0  0  0  0  0  0  0  0
   55.2750   25.1950   45.5310 C   0  0  0  0  0  0  0  0  0  0  0  0
   54.9000   24.1420   44.6960 C   0  0  0  0  0  0  0  0  0  0  0  0
   55.8800   23.2850   44.2200 C   0  0  0  0  0  0  0  0  0  0  0  0
   55.5410   22.2270   43.3880 O   0  0  0  0  0  0  0  0  0  0  0  0
   57.1720   23.4830   44.5700 N   0  0  0  0  0  0  0  0  0  0  0  0
   57.5440   24.5060   45.3830 C   0  0  0  0  0  0  0  0  0  0  0  0
   59.1460   24.6470   45.7250 S   0  0  0  0  0  0  0  0  0  0  0  0
   56.5940   25.3790   45.8780 N   0  0  0  0  0  0  0  0  0  0  0  0
   56.9380   26.4970   46.7870 C   0  0  0  0  0  0  0  0  0  0  0  0
   57.6360   27.6070   46.0340 C   0  0  0  0  0  0  0  0  0  0  0  0
   59.0400   27.6900   46.0640 C   0  0  0  0  0  0  0  0  0  0  0  0
   59.7050   28.7120   45.3830 C   0  0  0  0  0  0  0  0  0  0  0  0
   58.9790   29.6620   44.6630 C   0  0  0  0  0  0  0  0  0  0  0  0
   57.5850   29.5900   44.6200 C   0  0  0  0  0  0  0  0  0  0  0  0
   56.9100   28.5700   45.2990 C   0  0  0  0  0  0  0  0  0  0  0  0
   55.5220   28.5220   45.2350 O   0  0  0  0  0  0  0  0  0  0  0  0
   53.8454   23.9945   44.4203 H   0  0  0  0  0  0  0  0  0  0  0  0
   56.0156   26.8918   47.2379 H   0  0  0  0  0  0  0  0  0  0  0  0
   57.6156   26.1206   47.5675 H   0  0  0  0  0  0  0  0  0  0  0  0
   59.6187   26.9440   46.6284 H   0  0  0  0  0  0  0  0  0  0  0  0
   60.8031   28.7683   45.4141 H   0  0  0  0  0  0  0  0  0  0  0  0
   59.5048   30.4675   44.1294 H   0  0  0  0  0  0  0  0  0  0  0  0
   57.0153   30.3385   44.0498 H   0  0  0  0  0  0  0  0  0  0  0  0
  1  2  2  0
  2  3  1  0
  3  4  2  0
  4  5  1  0
  4  6  1  0
  6  7  1  0
  7  8  2  0
  7  9  1  0
  9 10  1  0
 10 11  1  0
 11 12  2  0
 12 13  1  0
 13 14  2  0
 14 15  1  0
 15 16  2  0
 16 17  1  0
  9  2  1  0
 16 11  1  0
  3 18  1  0
 10 19  1  0
 10 20  1  0
 12 21  1  0
 13 22  1  0
 14 23  1  0
 15 24  1  0
M  CHG  3   5  -1   6  -1  17  -1
M  END
>  <UniqueID>  (84) 
77

>  <SMILES>  (84) 
O=c1cc([O-])[n-]c(=S)n1Cc1ccccc1[O-]

>  <Energy>  (84) 
32.96157789921778

>  <Genealogy>  (84) 
O=c1cc([O-])[n-]c(=S)n1Cc1ccccc1[O-] (protonated)
O=c1cc([O-])[n-]c(=S)n1Cc1ccccc1[O-] (3D coordinates assigned)
O=c1cc([O-])[n-]c(=S)n1Cc1ccccc1[O-] (optimized conformer: 32.96157789921778 kcal/mol)

>  <smiles>  (84) 
O=c1cc(O)[nH]c(=S)n1Cc1ccccc1O

>  <score_type>  (84) 
oracle

>  <origin>  (84) 
adg

>  <m_score__min__energy>  (84) 
-12.699999999999999

>  <m_primary>  (84) 
energy

$$$$
84:0
     RDKit          3D

 45 48  0  0  0  0  0  0  0  0999 V2000
   64.0970   33.8300   48.0100 O   0  0  0  0  0  0  0  0  0  0  0  0
   62.8690   33.6130   48.8490 S   0  0  0  0  0  0  0  0  0  0  0  0
   62.9230   34.5390   50.0330 O   0  0  0  0  0  0  0  0  0  0  0  0
   62.8410   31.9670   49.4050 N   0  0  0  0  0  0  0  0  0  0  0  0
   61.9330   31.0710   49.1340 C   0  0  0  0  0  0  0  0  0  0  0  0
   61.3160   30.2860   50.1320 C   0  0  0  0  0  0  0  0  0  0  0  0
   60.3440   29.3500   49.7670 C   0  0  0  0  0  0  0  0  0  0  0  0
   59.9920   29.1980   48.4260 C   0  0  0  0  0  0  0  0  0  0  0  0
   60.6230   29.9880   47.4640 C   0  0  0  0  0  0  0  0  0  0  0  0
   61.5680   30.8930   47.8350 N   0  0  0  0  0  0  0  0  0  0  0  0
   61.4450   33.9250   47.8640 C   0  0  0  0  0  0  0  0  0  0  0  0
   61.5340   33.8210   46.4700 C   0  0  0  0  0  0  0  0  0  0  0  0
   60.3920   33.9720   45.6790 C   0  0  0  0  0  0  0  0  0  0  0  0
   59.1470   34.2300   46.2760 C   0  0  0  0  0  0  0  0  0  0  0  0
   57.9000   34.2440   45.4360 C   0  0  0  0  0  0  0  0  0  0  0  0
   57.7600   32.9320   44.7250 C   0  0  0  0  0  0  0  0  0  0  0  0
   57.6580   31.7400   45.3550 N   0  0  0  0  0  0  0  0  0  0  0  0
   57.6340   30.6870   44.4900 C   0  0  0  0  0  0  0  0  0  0  0  0
   57.5930   29.2780   44.9530 C   0  0  0  0  0  0  0  0  0  0  0  0
   58.7840   28.5390   45.0890 C   0  0  0  0  0  0  0  0  0  0  0  0
   58.7480   27.2080   45.5150 C   0  0  0  0  0  0  0  0  0  0  0  0
   57.5260   26.6000   45.8110 C   0  0  0  0  0  0  0  0  0  0  0  0
   57.4990   25.3070   46.2230 F   0  0  0  0  0  0  0  0  0  0  0  0
   56.3350   27.3220   45.6780 C   0  0  0  0  0  0  0  0  0  0  0  0
   55.1190   26.7190   45.9740 O   0  0  0  0  0  0  0  0  0  0  0  0
   56.3670   28.6530   45.2500 C   0  0  0  0  0  0  0  0  0  0  0  0
   57.6970   31.0500   43.1420 C   0  0  0  0  0  0  0  0  0  0  0  0
   57.8130   32.7280   43.0580 S   0  0  0  0  0  0  0  0  0  0  0  0
   59.0660   34.3560   47.6720 C   0  0  0  0  0  0  0  0  0  0  0  0
   60.2090   34.2100   48.4620 C   0  0  0  0  0  0  0  0  0  0  0  0
   61.5978   30.4098   51.1881 H   0  0  0  0  0  0  0  0  0  0  0  0
   59.8570   28.7336   50.5370 H   0  0  0  0  0  0  0  0  0  0  0  0
   59.2270   28.4650   48.1304 H   0  0  0  0  0  0  0  0  0  0  0  0
   60.3553   29.8784   46.4027 H   0  0  0  0  0  0  0  0  0  0  0  0
   62.5062   33.6198   45.9963 H   0  0  0  0  0  0  0  0  0  0  0  0
   60.4683   33.8885   44.5848 H   0  0  0  0  0  0  0  0  0  0  0  0
   57.0247   34.4057   46.0823 H   0  0  0  0  0  0  0  0  0  0  0  0
   57.9658   35.0558   44.6966 H   0  0  0  0  0  0  0  0  0  0  0  0
   57.6080   31.6490   46.3930 H   0  0  0  0  0  0  0  0  0  0  0  0
   59.7497   29.0125   44.8584 H   0  0  0  0  0  0  0  0  0  0  0  0
   59.6836   26.6387   45.6172 H   0  0  0  0  0  0  0  0  0  0  0  0
   55.4276   29.2155   45.1447 H   0  0  0  0  0  0  0  0  0  0  0  0
   57.6747   30.3602   42.2854 H   0  0  0  0  0  0  0  0  0  0  0  0
   58.0971   34.5709   48.1464 H   0  0  0  0  0  0  0  0  0  0  0  0
   60.1393   34.3187   49.5544 H   0  0  0  0  0  0  0  0  0  0  0  0
  1  2  2  0
  2  3  2  0
  2  4  1  0
  4  5  2  3
  5  6  1  0
  6  7  2  0
  7  8  1  0
  8  9  2  0
  9 10  1  0
  2 11  1  0
 11 12  2  0
 12 13  1  0
 13 14  2  0
 14 15  1  0
 15 16  1  0
 16 17  2  0
 17 18  1  0
 18 19  1  0
 19 20  2  0
 20 21  1  0
 21 22  2  0
 22 23  1  0
 22 24  1  0
 24 25  1  0
 24 26  2  0
 18 27  2  0
 27 28  1  0
 14 29  1  0
 29 30  2  0
 10  5  1  0
 30 11  1  0
 28 16  1  0
 26 19  1  0
  6 31  1  0
  7 32  1  0
  8 33  1  0
  9 34  1  0
 12 35  1  0
 13 36  1  0
 15 37  1  0
 15 38  1  0
 17 39  1  0
 20 40  1  0
 21 41  1  0
 26 42  1  0
 27 43  1  0
 29 44  1  0
 30 45  1  0
M  CHG  3  10  -1  17   1  25  -1
M  END
>  <UniqueID>  (85) 
78

>  <SMILES>  (85) 
O=S(=O)(N=c1cccc[n-]1)c1ccc(Cc2[nH+]c(-c3ccc(F)c([O-])c3)cs2)cc1

>  <Energy>  (85) 
85.38070733775285

>  <Genealogy>  (85) 
O=S(=O)(N=c1cccc[n-]1)c1ccc(Cc2[nH+]c(-c3ccc(F)c([O-])c3)cs2)cc1 (protonated)
O=S(=O)(N=c1cccc[n-]1)c1ccc(Cc2[nH+]c(-c3ccc(F)c([O-])c3)cs2)cc1 (3D coordinates assigned)
O=S(=O)(N=c1cccc[n-]1)c1ccc(Cc2[nH+]c(-c3ccc(F)c([O-])c3)cs2)cc1 (optimized conformer: 85.38070733775285 kcal/mol)

>  <smiles>  (85) 
O=S(=O)(N=c1cccc[nH]1)c1ccc(Cc2nc(-c3ccc(F)c(O)c3)cs2)cc1

>  <score_type>  (85) 
oracle

>  <origin>  (85) 
adg

>  <m_score__min__energy>  (85) 
-13.34

>  <m_primary>  (85) 
energy

$$$$
85:0
     RDKit          3D

 37 38  0  0  0  0  0  0  0  0999 V2000
   56.6930   30.9260   45.1980 O   0  0  0  0  0  0  0  0  0  0  0  0
   57.7300   31.0200   44.4860 C   0  0  0  0  0  0  0  0  0  0  0  0
   58.5410   29.8000   44.1910 C   0  0  0  0  0  0  0  0  0  0  0  0
   58.1360   28.6720   45.0990 C   0  0  0  0  0  0  0  0  0  0  0  0
   59.0830   28.0730   45.9480 C   0  0  0  0  0  0  0  0  0  0  0  0
   58.7080   27.0270   46.7950 C   0  0  0  0  0  0  0  0  0  0  0  0
   57.3890   26.5690   46.8010 C   0  0  0  0  0  0  0  0  0  0  0  0
   56.4360   27.1660   45.9700 C   0  0  0  0  0  0  0  0  0  0  0  0
   55.1210   26.7180   45.9860 O   0  0  0  0  0  0  0  0  0  0  0  0
   56.8050   28.2190   45.1260 C   0  0  0  0  0  0  0  0  0  0  0  0
   58.1620   32.2930   43.9940 N   0  0  0  0  0  0  0  0  0  0  0  0
   57.6820   33.5660   44.5170 C   0  0  0  0  0  0  0  0  0  0  0  0
   58.3240   33.8510   45.8390 C   0  0  0  0  0  0  0  0  0  0  0  0
   58.9120   34.9520   46.0160 O   0  0  0  0  0  0  0  0  0  0  0  0
   58.3110   32.8610   46.8770 N   0  0  0  0  0  0  0  0  0  0  0  0
   59.0990   33.0000   48.0980 C   0  0  0  0  0  0  0  0  0  0  0  0
   60.5570   32.7770   47.8010 C   0  0  0  0  0  0  0  0  0  0  0  0
   61.0820   31.4780   47.7210 C   0  0  0  0  0  0  0  0  0  0  0  0
   62.4400   31.3020   47.4490 C   0  0  0  0  0  0  0  0  0  0  0  0
   63.2450   32.3820   47.2710 N   0  0  0  0  0  0  0  0  0  0  0  0
   62.7660   33.6510   47.3580 C   0  0  0  0  0  0  0  0  0  0  0  0
   61.4150   33.8730   47.6290 C   0  0  0  0  0  0  0  0  0  0  0  0
   58.3783   29.5003   43.1452 H   0  0  0  0  0  0  0  0  0  0  0  0
   59.6042   30.0285   44.3565 H   0  0  0  0  0  0  0  0  0  0  0  0
   60.1237   28.4294   45.9455 H   0  0  0  0  0  0  0  0  0  0  0  0
   59.4532   26.5635   47.4582 H   0  0  0  0  0  0  0  0  0  0  0  0
   57.0992   25.7375   47.4603 H   0  0  0  0  0  0  0  0  0  0  0  0
   56.0512   28.6943   44.4811 H   0  0  0  0  0  0  0  0  0  0  0  0
   57.9341   34.3691   43.8089 H   0  0  0  0  0  0  0  0  0  0  0  0
   56.5912   33.5140   44.6490 H   0  0  0  0  0  0  0  0  0  0  0  0
   57.7550   31.9870   46.7420 H   0  0  0  0  0  0  0  0  0  0  0  0
   58.9616   34.0121   48.5064 H   0  0  0  0  0  0  0  0  0  0  0  0
   58.7624   32.2517   48.8307 H   0  0  0  0  0  0  0  0  0  0  0  0
   60.4289   30.6057   47.8714 H   0  0  0  0  0  0  0  0  0  0  0  0
   62.8589   30.2873   47.3787 H   0  0  0  0  0  0  0  0  0  0  0  0
   63.4445   34.5048   47.2145 H   0  0  0  0  0  0  0  0  0  0  0  0
   61.0264   34.8991   47.7070 H   0  0  0  0  0  0  0  0  0  0  0  0
  1  2  2  0
  2  3  1  0
  3  4  1  0
  4  5  2  0
  5  6  1  0
  6  7  2  0
  7  8  1  0
  8  9  1  0
  8 10  2  0
  2 11  1  0
 11 12  1  0
 12 13  1  0
 13 14  2  0
 13 15  1  0
 15 16  1  0
 16 17  1  0
 17 18  2  0
 18 19  1  0
 19 20  2  0
 20 21  1  0
 21 22  2  0
 10  4  1  0
 22 17  1  0
  3 23  1  0
  3 24  1  0
  5 25  1  0
  6 26  1  0
  7 27  1  0
 10 28  1  0
 12 29  1  0
 12 30  1  0
 15 31  1  0
 16 32  1  0
 16 33  1  0
 18 34  1  0
 19 35  1  0
 21 36  1  0
 22 37  1  0
M  CHG  2   9  -1  11  -1
M  END
>  <UniqueID>  (86) 
79

>  <SMILES>  (86) 
O=C(Cc1cccc([O-])c1)[N-]CC(=O)NCc1ccncc1

>  <Energy>  (86) 
26.35080615982428

>  <Genealogy>  (86) 
O=C(Cc1cccc([O-])c1)[N-]CC(=O)NCc1ccncc1 (protonated)
O=C(Cc1cccc([O-])c1)[N-]CC(=O)NCc1ccncc1 (3D coordinates assigned)
O=C(Cc1cccc([O-])c1)[N-]CC(=O)NCc1ccncc1 (optimized conformer: 26.35080615982428 kcal/mol)

>  <smiles>  (86) 
O=C(CNC(=O)Cc1cccc(O)c1)NCc1ccncc1

>  <score_type>  (86) 
oracle

>  <origin>  (86) 
adg

>  <m_score__min__energy>  (86) 
-11.890000000000001

>  <m_primary>  (86) 
energy

$$$$
86:0
     RDKit          3D

 37 39  0  0  0  0  0  0  0  0999 V2000
   56.9570   29.1850   42.8070 N   0  0  0  0  0  0  0  0  0  0  0  0
   56.3770   29.8330   44.3020 S   0  0  0  0  0  0  0  0  0  0  0  0
   55.0150   30.4320   44.0920 O   0  0  0  0  0  0  0  0  0  0  0  0
   56.2690   28.7340   45.3220 O   0  0  0  0  0  0  0  0  0  0  0  0
   57.4940   31.0660   44.8770 C   0  0  0  0  0  0  0  0  0  0  0  0
   57.3810   32.3890   44.4260 C   0  0  0  0  0  0  0  0  0  0  0  0
   58.2730   33.3630   44.8800 C   0  0  0  0  0  0  0  0  0  0  0  0
   59.2870   33.0220   45.7790 C   0  0  0  0  0  0  0  0  0  0  0  0
   59.4180   31.6990   46.2240 C   0  0  0  0  0  0  0  0  0  0  0  0
   60.6860   31.2690   47.3650 S   0  0  0  0  0  0  0  0  0  0  0  0
   60.1700   31.4340   48.7670 O   0  0  0  0  0  0  0  0  0  0  0  0
   61.8690   32.1740   47.1610 O   0  0  0  0  0  0  0  0  0  0  0  0
   61.1450   29.6170   47.0860 N   0  0  0  0  0  0  0  0  0  0  0  0
   60.3960   28.6950   46.5520 C   0  0  0  0  0  0  0  0  0  0  0  0
   60.3270   28.5030   45.0510 C   0  0  0  0  0  0  0  0  0  0  0  0
   59.2320   27.5750   44.5960 C   0  0  0  0  0  0  0  0  0  0  0  0
   58.9260   27.5660   43.3720 O   0  0  0  0  0  0  0  0  0  0  0  0
   58.5550   26.6480   45.5300 C   0  0  0  0  0  0  0  0  0  0  0  0
   57.6700   25.6630   45.0590 C   0  0  0  0  0  0  0  0  0  0  0  0
   57.0430   24.7980   45.9550 C   0  0  0  0  0  0  0  0  0  0  0  0
   57.3000   24.9250   47.3200 C   0  0  0  0  0  0  0  0  0  0  0  0
   58.1510   25.8850   47.7650 N   0  0  0  0  0  0  0  0  0  0  0  0
   58.7810   26.7430   46.9130 C   0  0  0  0  0  0  0  0  0  0  0  0
   59.6770   27.7760   47.4540 C   0  0  0  0  0  0  0  0  0  0  0  0
   59.8250   27.8780   48.7030 O   0  0  0  0  0  0  0  0  0  0  0  0
   58.5160   30.7250   45.7730 C   0  0  0  0  0  0  0  0  0  0  0  0
   57.9750   29.4140   42.7500 H   0  0  0  0  0  0  0  0  0  0  0  0
   56.8860   28.1450   42.8770 H   0  0  0  0  0  0  0  0  0  0  0  0
   56.5882   32.6602   43.7132 H   0  0  0  0  0  0  0  0  0  0  0  0
   58.1771   34.4011   44.5291 H   0  0  0  0  0  0  0  0  0  0  0  0
   59.9840   33.7934   46.1384 H   0  0  0  0  0  0  0  0  0  0  0  0
   60.1619   29.4856   44.5850 H   0  0  0  0  0  0  0  0  0  0  0  0
   61.2783   28.0412   44.7479 H   0  0  0  0  0  0  0  0  0  0  0  0
   57.4715   25.5742   43.9807 H   0  0  0  0  0  0  0  0  0  0  0  0
   56.3529   24.0235   45.5892 H   0  0  0  0  0  0  0  0  0  0  0  0
   56.8130   24.2471   48.0364 H   0  0  0  0  0  0  0  0  0  0  0  0
   58.6111   29.6870   46.1246 H   0  0  0  0  0  0  0  0  0  0  0  0
  1  2  1  0
  2  3  2  0
  2  4  2  0
  2  5  1  0
  5  6  2  0
  6  7  1  0
  7  8  2  0
  8  9  1  0
  9 10  1  0
 10 11  2  0
 10 12  2  0
 10 13  1  0
 13 14  2  3
 14 15  1  0
 15 16  1  0
 16 17  2  0
 16 18  1  0
 18 19  2  0
 19 20  1  0
 20 21  2  0
 21 22  1  0
 22 23  2  0
 23 24  1  0
 24 25  2  0
  9 26  2  0
 26  5  1  0
 24 14  1  0
 23 18  1  0
  1 27  1  0
  1 28  1  0
  6 29  1  0
  7 30  1  0
  8 31  1  0
 15 32  1  0
 15 33  1  0
 19 34  1  0
 20 35  1  0
 21 36  1  0
 26 37  1  0
M  END
>  <UniqueID>  (87) 
80

>  <SMILES>  (87) 
NS(=O)(=O)c1cccc(S(=O)(=O)N=C2CC(=O)c3cccnc3C2=O)c1

>  <Energy>  (87) 
45.49827253286923

>  <Genealogy>  (87) 
NS(=O)(=O)c1cccc(S(=O)(=O)N=C2CC(=O)c3cccnc3C2=O)c1 (3D coordinates assigned)
NS(=O)(=O)c1cccc(S(=O)(=O)N=C2CC(=O)c3cccnc3C2=O)c1 (nonaromatic ring conformer: 45.49827253286923 kcal/mol)

>  <smiles>  (87) 
NS(=O)(=O)c1cccc(S(=O)(=O)N=C2CC(=O)c3cccnc3C2=O)c1

>  <score_type>  (87) 
oracle

>  <origin>  (87) 
adg

>  <m_score__min__energy>  (87) 
-10.050000000000001

>  <m_primary>  (87) 
energy

$$$$
87:0
     RDKit          3D

 29 31  0  0  0  0  0  0  0  0999 V2000
   55.1460   28.2150   45.9200 H   0  0  0  0  0  0  0  0  0  0  0  0
   55.7330   28.4580   45.1340 O   0  0  0  0  0  0  0  0  0  0  0  0
   56.8260   29.3110   45.2680 C   0  0  0  0  0  0  0  0  0  0  0  0
   56.7330   30.6460   45.1700 N   0  0  0  0  0  0  0  0  0  0  0  0
   58.0040   31.0620   45.3580 C   0  0  0  0  0  0  0  0  0  0  0  0
   58.3950   32.4780   45.3340 C   0  0  0  0  0  0  0  0  0  0  0  0
   57.7480   33.4790   44.6360 C   0  0  0  0  0  0  0  0  0  0  0  0
   56.8556   33.3715   44.0019 H   0  0  0  0  0  0  0  0  0  0  0  0
   58.4460   34.6410   44.8940 C   0  0  0  0  0  0  0  0  0  0  0  0
   58.2175   35.6446   44.5059 H   0  0  0  0  0  0  0  0  0  0  0  0
   59.4870   34.2990   45.7340 C   0  0  0  0  0  0  0  0  0  0  0  0
   60.2357   35.0019   46.1282 H   0  0  0  0  0  0  0  0  0  0  0  0
   59.4520   32.9810   46.0000 N   0  0  0  0  0  0  0  0  0  0  0  0
   60.1200   32.4560   46.6080 H   0  0  0  0  0  0  0  0  0  0  0  0
   58.8850   30.0580   45.5630 N   0  0  0  0  0  0  0  0  0  0  0  0
   58.1320   28.9450   45.5180 C   0  0  0  0  0  0  0  0  0  0  0  0
   58.6500   27.5630   45.6180 C   0  0  0  0  0  0  0  0  0  0  0  0
   59.7002   27.3941   45.3378 H   0  0  0  0  0  0  0  0  0  0  0  0
   57.9390   26.4980   46.0240 C   0  0  0  0  0  0  0  0  0  0  0  0
   58.3140   25.6750   47.0750 C   0  0  0  0  0  0  0  0  0  0  0  0
   59.2070   25.7840   47.7080 H   0  0  0  0  0  0  0  0  0  0  0  0
   57.3490   24.6920   47.1730 C   0  0  0  0  0  0  0  0  0  0  0  0
   57.3155   23.8679   47.9008 H   0  0  0  0  0  0  0  0  0  0  0  0
   56.4340   24.9540   46.1710 C   0  0  0  0  0  0  0  0  0  0  0  0
   55.3470   24.2270   45.9140 C   0  0  0  0  0  0  0  0  0  0  0  0
   54.6746   24.5146   45.0923 H   0  0  0  0  0  0  0  0  0  0  0  0
   55.1222   23.3394   46.5236 H   0  0  0  0  0  0  0  0  0  0  0  0
   56.7890   26.0480   45.4700 N   0  0  0  0  0  0  0  0  0  0  0  0
   56.2770   26.4270   44.6440 H   0  0  0  0  0  0  0  0  0  0  0  0
  1  2  1  0
  2  3  1  0
  3  4  1  0
  4  5  2  0
  5  6  1  0
  6  7  2  0
  7  8  1  0
  7  9  1  0
  9 10  1  0
  9 11  2  0
 11 12  1  0
 11 13  1  0
 13 14  1  0
  5 15  1  0
 15 16  1  0
 16 17  1  0
 17 18  1  0
 17 19  2  0
 19 20  1  0
 20 21  1  0
 20 22  2  0
 22 23  1  0
 22 24  1  0
 24 25  2  0
 25 26  1  0
 25 27  1  0
 24 28  1  0
 28 29  1  0
 16  3  2  0
 28 19  1  0
 13  6  1  0
M  CHG  1  15  -1
M  END
>  <UniqueID>  (88) 
81

>  <SMILES>  (88) 
C=c1cc/c(=C/c2[n-]c(-c3ccc[nH]3)nc2O)[nH]1

>  <Energy>  (88) 
112.26186620837893

>  <Genealogy>  (88) 
C=c1ccc(=Cc2[n-]c(-c3ccc[nH]3)nc2O)[nH]1 (protonated)
C=c1cc/c(=C/c2[n-]c(-c3ccc[nH]3)nc2O)[nH]1 (cis-trans isomerization)
C=c1cc/c(=C/c2[n-]c(-c3ccc[nH]3)nc2O)[nH]1 (3D coordinates assigned)
C=c1cc/c(=C/c2[n-]c(-c3ccc[nH]3)nc2O)[nH]1 (optimized conformer: 112.26186620837893 kcal/mol)

>  <smiles>  (88) 
C=c1ccc(=Cc2[nH]c(-c3ccc[nH]3)nc2O)[nH]1

>  <score_type>  (88) 
oracle

>  <origin>  (88) 
adg

>  <m_score__min__energy>  (88) 
-8.5500000000000007

>  <m_primary>  (88) 
energy

$$$$
88:0
     RDKit          3D

 32 34  0  0  0  0  0  0  0  0999 V2000
   58.5813   27.8098   44.5875 H   0  0  0  0  0  0  0  0  0  0  0  0
   57.5880   28.0330   45.0040 C   0  0  0  0  0  0  0  0  0  0  0  0
   57.0790   27.2010   46.1120 C   0  0  0  0  0  0  0  0  0  0  0  0
   57.4240   27.4940   47.2880 O   0  0  0  0  0  0  0  0  0  0  0  0
   56.2000   26.0340   45.9050 C   0  0  0  0  0  0  0  0  0  0  0  0
   54.8610   26.1300   45.8460 N   0  0  0  0  0  0  0  0  0  0  0  0
   54.4580   24.8640   45.6130 C   0  0  0  0  0  0  0  0  0  0  0  0
   52.8860   24.4480   45.4660 S   0  0  0  0  0  0  0  0  0  0  0  0
   55.4630   23.9720   45.5020 N   0  0  0  0  0  0  0  0  0  0  0  0
   56.5690   24.7190   45.6740 C   0  0  0  0  0  0  0  0  0  0  0  0
   57.9540   24.1590   45.5830 C   0  0  0  0  0  0  0  0  0  0  0  0
   58.3518   23.9982   46.5959 H   0  0  0  0  0  0  0  0  0  0  0  0
   57.9274   23.2010   45.0431 H   0  0  0  0  0  0  0  0  0  0  0  0
   58.6007   24.8663   45.0431 H   0  0  0  0  0  0  0  0  0  0  0  0
   56.8860   29.0490   44.4870 C   0  0  0  0  0  0  0  0  0  0  0  0
   55.9351   28.8307   43.9789 H   0  0  0  0  0  0  0  0  0  0  0  0
   57.3400   30.4520   44.5730 C   0  0  0  0  0  0  0  0  0  0  0  0
   57.6950   30.9960   45.7710 N   0  0  0  0  0  0  0  0  0  0  0  0
   58.1130   32.2850   45.8840 C   0  0  0  0  0  0  0  0  0  0  0  0
   58.4690   32.8030   47.1350 C   0  0  0  0  0  0  0  0  0  0  0  0
   58.4112   32.1668   48.0305 H   0  0  0  0  0  0  0  0  0  0  0  0
   58.8980   34.1290   47.2460 C   0  0  0  0  0  0  0  0  0  0  0  0
   59.1782   34.5340   48.2296 H   0  0  0  0  0  0  0  0  0  0  0  0
   58.9720   34.9420   46.1110 C   0  0  0  0  0  0  0  0  0  0  0  0
   59.3105   35.9845   46.2044 H   0  0  0  0  0  0  0  0  0  0  0  0
   58.6170   34.4340   44.8570 C   0  0  0  0  0  0  0  0  0  0  0  0
   58.6756   35.0767   43.9662 H   0  0  0  0  0  0  0  0  0  0  0  0
   58.1860   33.1040   44.7360 C   0  0  0  0  0  0  0  0  0  0  0  0
   57.8240   32.5660   43.4960 C   0  0  0  0  0  0  0  0  0  0  0  0
   57.8733   33.1875   42.5897 H   0  0  0  0  0  0  0  0  0  0  0  0
   57.4000   31.2380   43.4120 C   0  0  0  0  0  0  0  0  0  0  0  0
   57.1143   30.8099   42.4398 H   0  0  0  0  0  0  0  0  0  0  0  0
  1  2  1  0
  2  3  1  0
  3  4  2  0
  3  5  1  0
  5  6  1  0
  6  7  1  0
  7  8  2  0
  7  9  1  0
  9 10  1  0
 10 11  1  0
 11 12  1  0
 11 13  1  0
 11 14  1  0
  2 15  2  0
 15 16  1  0
 15 17  1  0
 17 18  2  0
 18 19  1  0
 19 20  2  0
 20 21  1  0
 20 22  1  0
 22 23  1  0
 22 24  2  0
 24 25  1  0
 24 26  1  0
 26 27  1  0
 26 28  2  0
 28 29  1  0
 29 30  1  0
 29 31  2  0
 31 32  1  0
 10  5  2  0
 31 17  1  0
 28 19  1  0
M  CHG  2   6  -1   9  -1
M  END
>  <UniqueID>  (89) 
82

>  <SMILES>  (89) 
Cc1[n-]c(=S)[n-]c1C(=O)/C=C/c1ccc2ccccc2n1

>  <Energy>  (89) 
68.34190552535235

>  <Genealogy>  (89) 
Cc1[n-]c(=S)[n-]c1C(=O)C=Cc1ccc2ccccc2n1 (protonated)
Cc1[n-]c(=S)[n-]c1C(=O)/C=C/c1ccc2ccccc2n1 (cis-trans isomerization)
Cc1[n-]c(=S)[n-]c1C(=O)/C=C/c1ccc2ccccc2n1 (3D coordinates assigned)
Cc1[n-]c(=S)[n-]c1C(=O)/C=C/c1ccc2ccccc2n1 (optimized conformer: 68.34190552535235 kcal/mol)

>  <smiles>  (89) 
Cc1[nH]c(=S)[nH]c1C(=O)C=Cc1ccc2ccccc2n1

>  <score_type>  (89) 
oracle

>  <origin>  (89) 
adg

>  <m_score__min__energy>  (89) 
-11.68

>  <m_primary>  (89) 
energy

$$$$
89:0
     RDKit          3D

 35 36  0  0  0  0  0  0  0  0999 V2000
   58.0630   28.3120   44.5640 O   0  0  0  0  0  0  0  0  0  0  0  0
   57.0570   27.9920   45.2500 C   0  0  0  0  0  0  0  0  0  0  0  0
   55.8960   28.8330   45.2120 N   0  0  0  0  0  0  0  0  0  0  0  0
   55.5960   29.8050   44.1650 C   0  0  0  0  0  0  0  0  0  0  0  0
   56.5920   30.9650   44.2050 C   0  0  0  0  0  0  0  0  0  0  0  0
   57.3360   30.9440   45.4690 N   0  0  0  0  0  0  0  0  0  0  0  0
   58.7400   31.3050   45.2390 C   0  0  0  0  0  0  0  0  0  0  0  0
   59.0000   32.6890   45.7660 C   0  0  0  0  0  0  0  0  0  0  0  0
   59.0290   33.7860   44.8880 C   0  0  0  0  0  0  0  0  0  0  0  0
   59.2360   35.0780   45.3820 C   0  0  0  0  0  0  0  0  0  0  0  0
   59.4010   35.2850   46.7540 C   0  0  0  0  0  0  0  0  0  0  0  0
   59.3560   34.2010   47.6360 C   0  0  0  0  0  0  0  0  0  0  0  0
   59.5080   34.4040   48.9680 F   0  0  0  0  0  0  0  0  0  0  0  0
   59.1500   32.9070   47.1450 C   0  0  0  0  0  0  0  0  0  0  0  0
   57.1100   26.7700   46.0770 C   0  0  0  0  0  0  0  0  0  0  0  0
   55.9620   25.9870   46.2680 C   0  0  0  0  0  0  0  0  0  0  0  0
   54.7570   26.3410   45.6650 O   0  0  0  0  0  0  0  0  0  0  0  0
   56.0250   24.8670   47.0360 N   0  0  0  0  0  0  0  0  0  0  0  0
   57.1840   24.4920   47.6350 C   0  0  0  0  0  0  0  0  0  0  0  0
   57.2200   23.4490   48.3370 O   0  0  0  0  0  0  0  0  0  0  0  0
   58.3040   25.2430   47.4790 N   0  0  0  0  0  0  0  0  0  0  0  0
   58.2920   26.3730   46.7240 C   0  0  0  0  0  0  0  0  0  0  0  0
   59.3430   27.0600   46.6260 O   0  0  0  0  0  0  0  0  0  0  0  0
   55.6567   29.3102   43.1844 H   0  0  0  0  0  0  0  0  0  0  0  0
   54.5833   30.2017   44.3294 H   0  0  0  0  0  0  0  0  0  0  0  0
   57.2967   30.8691   43.3659 H   0  0  0  0  0  0  0  0  0  0  0  0
   56.0433   31.9150   44.1247 H   0  0  0  0  0  0  0  0  0  0  0  0
   57.3150   29.9620   45.8350 H   0  0  0  0  0  0  0  0  0  0  0  0
   59.3920   30.5874   45.7586 H   0  0  0  0  0  0  0  0  0  0  0  0
   58.9504   31.2806   44.1596 H   0  0  0  0  0  0  0  0  0  0  0  0
   58.8884   33.6279   43.8085 H   0  0  0  0  0  0  0  0  0  0  0  0
   59.2689   35.9322   44.6897 H   0  0  0  0  0  0  0  0  0  0  0  0
   59.5664   36.3015   47.1405 H   0  0  0  0  0  0  0  0  0  0  0  0
   59.1054   32.0572   47.8420 H   0  0  0  0  0  0  0  0  0  0  0  0
   54.7180   27.0770   44.9710 H   0  0  0  0  0  0  0  0  0  0  0  0
  1  2  2  0
  2  3  1  0
  3  4  1  0
  4  5  1  0
  5  6  1  0
  6  7  1  0
  7  8  1  0
  8  9  2  0
  9 10  1  0
 10 11  2  0
 11 12  1  0
 12 13  1  0
 12 14  2  0
  2 15  1  0
 15 16  2  0
 16 17  1  0
 16 18  1  0
 18 19  1  0
 19 20  2  0
 19 21  1  0
 21 22  1  0
 22 23  2  0
 14  8  1  0
 22 15  1  0
  4 24  1  0
  4 25  1  0
  5 26  1  0
  5 27  1  0
  6 28  1  0
  7 29  1  0
  7 30  1  0
  9 31  1  0
 10 32  1  0
 11 33  1  0
 14 34  1  0
 17 35  1  0
M  CHG  3   3  -1  18  -1  21  -1
M  END
>  <UniqueID>  (90) 
83

>  <SMILES>  (90) 
O=C([N-]CCNCc1cccc(F)c1)c1c(O)[n-]c(=O)[n-]c1=O

>  <Energy>  (90) 
37.87228796680156

>  <Genealogy>  (90) 
O=C([N-]CCNCc1cccc(F)c1)c1c(O)[n-]c(=O)[n-]c1=O (protonated)
O=C([N-]CCNCc1cccc(F)c1)c1c(O)[n-]c(=O)[n-]c1=O (3D coordinates assigned)
O=C([N-]CCNCc1cccc(F)c1)c1c(O)[n-]c(=O)[n-]c1=O (optimized conformer: 37.87228796680156 kcal/mol)

>  <smiles>  (90) 
O=C(NCCNCc1cccc(F)c1)c1c(O)[nH]c(=O)[nH]c1=O

>  <score_type>  (90) 
oracle

>  <origin>  (90) 
adg

>  <m_score__min__energy>  (90) 
-13.75

>  <m_primary>  (90) 
energy

$$$$
90:0
     RDKit          3D

 45 47  0  0  0  0  0  0  0  0999 V2000
   58.8620   29.8930   49.2210 N   0  0  0  0  0  0  0  0  0  0  0  0
   59.8340   29.4480   48.2760 C   0  0  0  0  0  0  0  0  0  0  0  0
   61.0360   29.3360   48.6390 O   0  0  0  0  0  0  0  0  0  0  0  0
   59.4400   29.1240   46.8840 C   0  0  0  0  0  0  0  0  0  0  0  0
   60.1960   28.2140   46.1230 C   0  0  0  0  0  0  0  0  0  0  0  0
   59.8240   27.9060   44.8120 C   0  0  0  0  0  0  0  0  0  0  0  0
   58.6940   28.4990   44.2460 C   0  0  0  0  0  0  0  0  0  0  0  0
   57.9300   29.4070   44.9880 C   0  0  0  0  0  0  0  0  0  0  0  0
   56.4990   30.1330   44.2620 S   0  0  0  0  0  0  0  0  0  0  0  0
   56.6180   30.1820   42.7650 O   0  0  0  0  0  0  0  0  0  0  0  0
   55.2980   29.3070   44.6270 O   0  0  0  0  0  0  0  0  0  0  0  0
   56.2900   31.7420   44.8720 N   0  0  0  0  0  0  0  0  0  0  0  0
   57.3470   32.5990   45.3230 C   0  0  0  0  0  0  0  0  0  0  0  0
   57.9750   33.5260   44.4710 C   0  0  0  0  0  0  0  0  0  0  0  0
   59.0030   34.3400   44.9540 C   0  0  0  0  0  0  0  0  0  0  0  0
   59.4110   34.2400   46.2860 C   0  0  0  0  0  0  0  0  0  0  0  0
   58.7930   33.3230   47.1440 C   0  0  0  0  0  0  0  0  0  0  0  0
   59.3060   33.2230   48.8250 S   0  0  0  0  0  0  0  0  0  0  0  0
   59.7040   34.5870   49.3200 O   0  0  0  0  0  0  0  0  0  0  0  0
   58.1640   32.7040   49.6520 O   0  0  0  0  0  0  0  0  0  0  0  0
   60.6620   32.1470   48.9370 N   0  0  0  0  0  0  0  0  0  0  0  0
   61.8040   32.3690   48.3520 C   0  0  0  0  0  0  0  0  0  0  0  0
   62.5220   33.6610   48.4360 C   0  0  0  0  0  0  0  0  0  0  0  0
   63.7640   33.4420   47.5600 C   0  0  0  0  0  0  0  0  0  0  0  0
   63.7480   31.9730   47.0990 C   0  0  0  0  0  0  0  0  0  0  0  0
   62.5050   31.4090   47.5840 N   0  0  0  0  0  0  0  0  0  0  0  0
   57.7590   32.5080   46.6590 C   0  0  0  0  0  0  0  0  0  0  0  0
   58.3050   29.7210   46.3020 C   0  0  0  0  0  0  0  0  0  0  0  0
   59.0300   30.7400   49.8080 H   0  0  0  0  0  0  0  0  0  0  0  0
   61.0865   27.7415   46.5633 H   0  0  0  0  0  0  0  0  0  0  0  0
   60.4229   27.1946   44.2244 H   0  0  0  0  0  0  0  0  0  0  0  0
   58.4034   28.2520   43.2142 H   0  0  0  0  0  0  0  0  0  0  0  0
   57.6558   33.6102   43.4217 H   0  0  0  0  0  0  0  0  0  0  0  0
   59.4923   35.0616   44.2832 H   0  0  0  0  0  0  0  0  0  0  0  0
   60.2201   34.8836   46.6617 H   0  0  0  0  0  0  0  0  0  0  0  0
   60.5420   31.2790   49.5070 H   0  0  0  0  0  0  0  0  0  0  0  0
   61.9031   34.4805   48.0419 H   0  0  0  0  0  0  0  0  0  0  0  0
   62.7723   33.9443   49.4690 H   0  0  0  0  0  0  0  0  0  0  0  0
   63.7312   34.1105   46.6871 H   0  0  0  0  0  0  0  0  0  0  0  0
   64.6819   33.6622   48.1249 H   0  0  0  0  0  0  0  0  0  0  0  0
   63.7887   31.9177   46.0011 H   0  0  0  0  0  0  0  0  0  0  0  0
   64.6165   31.4218   47.4888 H   0  0  0  0  0  0  0  0  0  0  0  0
   62.2170   30.4200   47.4170 H   0  0  0  0  0  0  0  0  0  0  0  0
   57.2676   31.7914   47.3335 H   0  0  0  0  0  0  0  0  0  0  0  0
   57.7079   30.4394   46.8829 H   0  0  0  0  0  0  0  0  0  0  0  0
  1  2  1  0
  2  3  2  0
  2  4  1  0
  4  5  2  0
  5  6  1  0
  6  7  2  0
  7  8  1  0
  8  9  1  0
  9 10  2  0
  9 11  2  0
  9 12  1  0
 12 13  1  0
 13 14  2  0
 14 15  1  0
 15 16  2  0
 16 17  1  0
 17 18  1  0
 18 19  2  0
 18 20  2  0
 18 21  1  0
 21 22  2  3
 22 23  1  0
 23 24  1  0
 24 25  1  0
 25 26  1  0
 17 27  2  0
  8 28  2  0
 28  4  1  0
 27 13  1  0
 26 22  1  0
  1 29  1  0
  5 30  1  0
  6 31  1  0
  7 32  1  0
 14 33  1  0
 15 34  1  0
 16 35  1  0
 21 36  1  0
 23 37  1  0
 23 38  1  0
 24 39  1  0
 24 40  1  0
 25 41  1  0
 25 42  1  0
 26 43  1  0
 27 44  1  0
 28 45  1  0
M  CHG  3   1  -1  12  -1  21   1
M  END
>  <UniqueID>  (91) 
84

>  <SMILES>  (91) 
[NH-]C(=O)c1cccc(S(=O)(=O)[N-]c2cccc(S(=O)(=O)[NH+]=C3CCCN3)c2)c1

>  <Energy>  (91) 
58.303183724521006

>  <Genealogy>  (91) 
[NH-]C(=O)c1cccc(S(=O)(=O)[N-]c2cccc(S(=O)(=O)[NH+]=C3CCCN3)c2)c1 (protonated)
[NH-]C(=O)c1cccc(S(=O)(=O)[N-]c2cccc(S(=O)(=O)[NH+]=C3CCCN3)c2)c1 (3D coordinates assigned)
[NH-]C(=O)c1cccc(S(=O)(=O)[N-]c2cccc(S(=O)(=O)[NH+]=C3CCCN3)c2)c1 (nonaromatic ring conformer: 58.303183724521006 kcal/mol)

>  <smiles>  (91) 
NC(=O)c1cccc(S(=O)(=O)Nc2cccc(S(=O)(=O)N=C3CCCN3)c2)c1

>  <score_type>  (91) 
oracle

>  <origin>  (91) 
adg

>  <m_score__min__energy>  (91) 
-12.199999999999999

>  <m_primary>  (91) 
energy

$$$$
91:0
     RDKit          3D

 35 37  0  0  0  0  0  0  0  0999 V2000
   55.7990   27.0640   45.7900 N   0  0  0  0  0  0  0  0  0  0  0  0
   57.2120   27.1790   46.0060 C   0  0  0  0  0  0  0  0  0  0  0  0
   57.7550   26.5490   47.1300 C   0  0  0  0  0  0  0  0  0  0  0  0
   59.1310   26.5450   47.3050 C   0  0  0  0  0  0  0  0  0  0  0  0
   59.6380   25.9740   48.3090 O   0  0  0  0  0  0  0  0  0  0  0  0
   59.9290   27.1410   46.3870 N   0  0  0  0  0  0  0  0  0  0  0  0
   59.4030   27.7800   45.3060 C   0  0  0  0  0  0  0  0  0  0  0  0
   60.1880   28.3100   44.4710 O   0  0  0  0  0  0  0  0  0  0  0  0
   58.0390   27.8520   45.1280 N   0  0  0  0  0  0  0  0  0  0  0  0
   57.5020   28.6650   44.0110 C   0  0  0  0  0  0  0  0  0  0  0  0
   56.7350   29.8630   44.5200 C   0  0  0  0  0  0  0  0  0  0  0  0
   55.5060   29.7260   44.7650 O   0  0  0  0  0  0  0  0  0  0  0  0
   57.3750   31.1890   44.7210 C   0  0  0  0  0  0  0  0  0  0  0  0
   57.5870   32.0360   43.6190 C   0  0  0  0  0  0  0  0  0  0  0  0
   58.2050   33.2790   43.7790 C   0  0  0  0  0  0  0  0  0  0  0  0
   58.6190   33.7030   45.0480 C   0  0  0  0  0  0  0  0  0  0  0  0
   59.2430   34.9470   45.2200 C   0  0  0  0  0  0  0  0  0  0  0  0
   59.6500   35.3590   46.4920 C   0  0  0  0  0  0  0  0  0  0  0  0
   59.4360   34.5340   47.6000 C   0  0  0  0  0  0  0  0  0  0  0  0
   58.8140   33.2920   47.4420 C   0  0  0  0  0  0  0  0  0  0  0  0
   58.4030   32.8660   46.1690 C   0  0  0  0  0  0  0  0  0  0  0  0
   57.7790   31.6210   45.9990 C   0  0  0  0  0  0  0  0  0  0  0  0
   55.4170   26.2600   45.2420 H   0  0  0  0  0  0  0  0  0  0  0  0
   55.1470   27.8580   45.9640 H   0  0  0  0  0  0  0  0  0  0  0  0
   57.0988   26.0624   47.8666 H   0  0  0  0  0  0  0  0  0  0  0  0
   60.9670   27.1140   46.5130 H   0  0  0  0  0  0  0  0  0  0  0  0
   58.3386   29.0141   43.3880 H   0  0  0  0  0  0  0  0  0  0  0  0
   56.8144   28.0372   43.4253 H   0  0  0  0  0  0  0  0  0  0  0  0
   57.2622   31.7160   42.6179 H   0  0  0  0  0  0  0  0  0  0  0  0
   58.3670   33.9269   42.9050 H   0  0  0  0  0  0  0  0  0  0  0  0
   59.4126   35.6003   44.3514 H   0  0  0  0  0  0  0  0  0  0  0  0
   60.1401   36.3352   46.6216 H   0  0  0  0  0  0  0  0  0  0  0  0
   59.7579   34.8630   48.5991 H   0  0  0  0  0  0  0  0  0  0  0  0
   58.6462   32.6470   48.3171 H   0  0  0  0  0  0  0  0  0  0  0  0
   57.6036   30.9759   46.8726 H   0  0  0  0  0  0  0  0  0  0  0  0
  1  2  1  0
  2  3  2  0
  3  4  1  0
  4  5  2  0
  4  6  1  0
  6  7  1  0
  7  8  2  0
  7  9  1  0
  9 10  1  0
 10 11  1  0
 11 12  2  0
 11 13  1  0
 13 14  2  0
 14 15  1  0
 15 16  2  0
 16 17  1  0
 17 18  2  0
 18 19  1  0
 19 20  2  0
 20 21  1  0
 21 22  2  0
  9  2  1  0
 22 13  1  0
 21 16  1  0
  1 23  1  0
  1 24  1  0
  3 25  1  0
  6 26  1  0
 10 27  1  0
 10 28  1  0
 14 29  1  0
 15 30  1  0
 17 31  1  0
 18 32  1  0
 19 33  1  0
 20 34  1  0
 22 35  1  0
M  END
>  <UniqueID>  (92) 
85

>  <SMILES>  (92) 
Nc1cc(=O)[nH]c(=O)n1CC(=O)c1ccc2ccccc2c1

>  <Energy>  (92) 
50.378692960355984

>  <Genealogy>  (92) 
Nc1cc(=O)[nH]c(=O)n1CC(=O)c1ccc2ccccc2c1 (3D coordinates assigned)
Nc1cc(=O)[nH]c(=O)n1CC(=O)c1ccc2ccccc2c1 (optimized conformer: 50.378692960355984 kcal/mol)

>  <smiles>  (92) 
Nc1cc(=O)[nH]c(=O)n1CC(=O)c1ccc2ccccc2c1

>  <score_type>  (92) 
oracle

>  <origin>  (92) 
adg

>  <m_score__min__energy>  (92) 
-8.5700000000000003

>  <m_primary>  (92) 
energy

$$$$
92:0
     RDKit          3D

 25 26  0  0  0  0  0  0  0  0999 V2000
   55.7123   29.2780   42.7748 H   0  0  0  0  0  0  0  0  0  0  0  0
   56.2370   29.7650   43.6100 C   0  0  0  0  0  0  0  0  0  0  0  0
   56.9980   30.9950   43.3120 C   0  0  0  0  0  0  0  0  0  0  0  0
   57.2860   31.2470   42.1120 O   0  0  0  0  0  0  0  0  0  0  0  0
   57.4740   31.9140   44.3620 C   0  0  0  0  0  0  0  0  0  0  0  0
   57.2570   31.7240   45.6430 O   0  0  0  0  0  0  0  0  0  0  0  0
   57.7980   32.7160   46.3120 C   0  0  0  0  0  0  0  0  0  0  0  0
   57.7818   32.8245   47.4065 H   0  0  0  0  0  0  0  0  0  0  0  0
   58.3900   33.6020   45.4350 C   0  0  0  0  0  0  0  0  0  0  0  0
   58.9243   34.5289   45.6909 H   0  0  0  0  0  0  0  0  0  0  0  0
   58.1760   33.0900   44.1740 C   0  0  0  0  0  0  0  0  0  0  0  0
   58.4970   33.5263   43.2166 H   0  0  0  0  0  0  0  0  0  0  0  0
   56.1360   29.1950   44.8220 C   0  0  0  0  0  0  0  0  0  0  0  0
   55.3320   29.5479   45.4846 H   0  0  0  0  0  0  0  0  0  0  0  0
   57.0250   28.1280   45.3330 C   0  0  0  0  0  0  0  0  0  0  0  0
   58.4130   28.2800   45.1870 C   0  0  0  0  0  0  0  0  0  0  0  0
   58.8159   29.1753   44.6909 H   0  0  0  0  0  0  0  0  0  0  0  0
   59.2850   27.3010   45.6680 C   0  0  0  0  0  0  0  0  0  0  0  0
   60.3719   27.4355   45.5656 H   0  0  0  0  0  0  0  0  0  0  0  0
   58.7790   26.1510   46.2790 C   0  0  0  0  0  0  0  0  0  0  0  0
   59.4680   25.3877   46.6697 H   0  0  0  0  0  0  0  0  0  0  0  0
   57.3990   25.9700   46.3940 C   0  0  0  0  0  0  0  0  0  0  0  0
   57.0028   25.0582   46.8649 H   0  0  0  0  0  0  0  0  0  0  0  0
   56.5190   26.9450   45.9120 C   0  0  0  0  0  0  0  0  0  0  0  0
   55.1480   26.7180   45.9910 O   0  0  0  0  0  0  0  0  0  0  0  0
  1  2  1  0
  2  3  1  0
  3  4  2  0
  3  5  1  0
  5  6  1  0
  6  7  1  0
  7  8  1  0
  7  9  2  0
  9 10  1  0
  9 11  1  0
 11 12  1  0
  2 13  2  0
 13 14  1  0
 13 15  1  0
 15 16  2  0
 16 17  1  0
 16 18  1  0
 18 19  1  0
 18 20  2  0
 20 21  1  0
 20 22  1  0
 22 23  1  0
 22 24  2  0
 24 25  1  0
 11  5  2  0
 24 15  1  0
M  CHG  1  25  -1
M  END
>  <UniqueID>  (93) 
86

>  <SMILES>  (93) 
O=C(/C=C\c1ccccc1[O-])c1ccco1

>  <Energy>  (93) 
61.68017545457709

>  <Genealogy>  (93) 
O=C(C=Cc1ccccc1[O-])c1ccco1 (protonated)
O=C(/C=C\c1ccccc1[O-])c1ccco1 (cis-trans isomerization)
O=C(/C=C\c1ccccc1[O-])c1ccco1 (3D coordinates assigned)
O=C(/C=C\c1ccccc1[O-])c1ccco1 (optimized conformer: 61.68017545457709 kcal/mol)

>  <smiles>  (93) 
O=C(C=Cc1ccccc1O)c1ccco1

>  <score_type>  (93) 
oracle

>  <origin>  (93) 
adg

>  <m_score__min__energy>  (93) 
-10.609999999999999

>  <m_primary>  (93) 
energy

$$$$
93:0
     RDKit          3D

 78 83  0  0  0  0  0  0  0  0999 V2000
   56.5530   20.6290   45.6680 C   0  0  0  0  0  0  0  0  0  0  0  0
   56.9370   21.6420   44.6420 C   0  0  0  0  0  0  0  0  0  0  0  0
   56.3080   21.6950   43.5510 O   0  0  0  0  0  0  0  0  0  0  0  0
   57.9840   22.5280   44.9210 O   0  0  0  0  0  0  0  0  0  0  0  0
   57.8750   23.9270   44.9910 C   0  0  0  0  0  0  0  0  0  0  0  0
   57.8480   24.5640   46.1880 C   0  0  0  0  0  0  0  0  0  0  0  0
   57.5980   26.0580   46.2800 C   0  0  2  0  0  0  0  0  0  0  0  0
   56.0460   26.1870   46.3460 C   0  0  0  0  0  0  0  0  0  0  0  0
   58.3650   26.6650   45.0720 C   0  0  1  0  0  0  0  0  0  0  0  0
   57.7620   26.2270   43.7310 C   0  0  0  0  0  0  0  0  0  0  0  0
   57.7640   24.6710   43.6530 C   0  0  2  0  0  0  0  0  0  0  0  0
   56.6070   24.2450   42.9770 O   0  0  0  0  0  0  0  0  0  0  0  0
   58.5940   28.1210   45.4790 C   0  0  2  0  0  0  0  0  0  0  0  0
   57.1740   28.8240   45.3900 C   0  0  0  0  0  0  0  0  0  0  0  0
   59.5850   28.9960   44.6730 C   0  0  0  0  0  0  0  0  0  0  0  0
   59.6590   30.4650   45.2610 C   0  0  0  0  0  0  0  0  0  0  0  0
   59.1620   30.5970   46.7630 C   0  0  1  0  0  0  0  0  0  0  0  0
   59.7120   29.3730   47.4770 C   0  0  0  0  0  0  0  0  0  0  0  0
   61.0410   29.5850   47.7560 C   0  0  0  0  0  0  0  0  0  0  0  0
   61.6810   30.9370   47.9110 C   0  0  0  0  0  0  0  0  0  0  0  0
   60.6870   31.9860   48.4240 C   0  0  1  0  0  0  0  0  0  0  0  0
   61.3710   33.4070   48.6960 C   0  0  0  0  0  0  0  0  0  0  0  0
   61.9670   33.3920   50.1320 C   0  0  0  0  0  0  0  0  0  0  0  0
   62.5820   33.7130   47.7590 C   0  0  0  0  0  0  0  0  0  0  0  0
   60.3570   34.6030   48.5800 C   0  0  2  0  0  0  0  0  0  0  0  0
   59.5710   34.7260   49.7450 O   0  0  0  0  0  0  0  0  0  0  0  0
   59.4190   34.5610   47.3410 C   0  0  0  0  0  0  0  0  0  0  0  0
   59.3240   33.2080   46.5970 C   0  0  1  0  0  0  0  0  0  0  0  0
   60.3440   33.1380   45.6360 O   0  0  0  0  0  0  0  0  0  0  0  0
   59.3700   31.9770   47.5550 C   0  0  1  0  0  0  0  0  0  0  0  0
   58.1490   32.0790   48.5350 C   0  0  0  0  0  0  0  0  0  0  0  0
   59.1990   27.9520   46.9580 C   0  0  2  0  0  0  0  0  0  0  0  0
   60.2340   26.8240   47.4240 C   0  0  1  0  0  0  0  0  0  0  0  0
   61.0440   27.1050   48.5400 O   0  0  0  0  0  0  0  0  0  0  0  0
   59.2630   25.9790   47.9340 O   0  0  0  0  0  0  0  0  0  0  0  0
   58.2460   26.8210   47.5040 C   0  0  2  0  0  0  0  0  0  0  0  0
   56.7114   21.0469   46.6731 H   0  0  0  0  0  0  0  0  0  0  0  0
   55.4924   20.3650   45.5436 H   0  0  0  0  0  0  0  0  0  0  0  0
   57.1721   19.7283   45.5436 H   0  0  0  0  0  0  0  0  0  0  0  0
   58.0105   23.9866   47.1100 H   0  0  0  0  0  0  0  0  0  0  0  0
   55.7247   26.2137   47.3977 H   0  0  0  0  0  0  0  0  0  0  0  0
   55.7334   27.1142   45.8434 H   0  0  0  0  0  0  0  0  0  0  0  0
   55.5846   25.3241   45.8434 H   0  0  0  0  0  0  0  0  0  0  0  0
   59.3720   26.2875   44.8406 H   0  0  0  0  0  0  0  0  0  0  0  0
   56.7294   26.5981   43.6531 H   0  0  0  0  0  0  0  0  0  0  0  0
   58.3594   26.6395   42.9045 H   0  0  0  0  0  0  0  0  0  0  0  0
   58.6862   24.4121   43.1121 H   0  0  0  0  0  0  0  0  0  0  0  0
   56.4810   23.2840   43.1940 H   0  0  0  0  0  0  0  0  0  0  0  0
   56.7938   29.0122   46.4049 H   0  0  0  0  0  0  0  0  0  0  0  0
   57.2705   29.7784   44.8517 H   0  0  0  0  0  0  0  0  0  0  0  0
   56.4735   28.1686   44.8517 H   0  0  0  0  0  0  0  0  0  0  0  0
   59.2514   29.0447   43.6260 H   0  0  0  0  0  0  0  0  0  0  0  0
   60.5850   28.5426   44.7400 H   0  0  0  0  0  0  0  0  0  0  0  0
   59.0349   31.1184   44.6336 H   0  0  0  0  0  0  0  0  0  0  0  0
   60.7210   30.7517   45.2558 H   0  0  0  0  0  0  0  0  0  0  0  0
   58.0629   30.6358   46.7395 H   0  0  0  0  0  0  0  0  0  0  0  0
   61.6840   28.7004   47.8747 H   0  0  0  0  0  0  0  0  0  0  0  0
   62.5132   30.8564   48.6258 H   0  0  0  0  0  0  0  0  0  0  0  0
   62.0371   31.2605   46.9218 H   0  0  0  0  0  0  0  0  0  0  0  0
   60.3474   31.7067   49.4323 H   0  0  0  0  0  0  0  0  0  0  0  0
   61.1500   33.4126   50.8683 H   0  0  0  0  0  0  0  0  0  0  0  0
   62.5637   32.4785   50.2718 H   0  0  0  0  0  0  0  0  0  0  0  0
   62.6089   34.2743   50.2718 H   0  0  0  0  0  0  0  0  0  0  0  0
   63.4697   33.9373   48.3686 H   0  0  0  0  0  0  0  0  0  0  0  0
   62.7847   32.8379   47.1242 H   0  0  0  0  0  0  0  0  0  0  0  0
   62.3447   34.5794   47.1242 H   0  0  0  0  0  0  0  0  0  0  0  0
   61.0046   35.4828   48.4512 H   0  0  0  0  0  0  0  0  0  0  0  0
   59.1580   35.6310   49.7400 H   0  0  0  0  0  0  0  0  0  0  0  0
   58.4069   34.8296   47.6779 H   0  0  0  0  0  0  0  0  0  0  0  0
   59.8588   35.2628   46.6171 H   0  0  0  0  0  0  0  0  0  0  0  0
   58.3414   33.1649   46.1045 H   0  0  0  0  0  0  0  0  0  0  0  0
   60.0170   33.6120   44.8270 H   0  0  0  0  0  0  0  0  0  0  0  0
   58.5092   32.0489   49.5739 H   0  0  0  0  0  0  0  0  0  0  0  0
   57.6156   33.0248   48.3591 H   0  0  0  0  0  0  0  0  0  0  0  0
   57.4661   31.2348   48.3591 H   0  0  0  0  0  0  0  0  0  0  0  0
   60.9420   26.5543   46.6265 H   0  0  0  0  0  0  0  0  0  0  0  0
   60.4810   27.6090   49.1830 H   0  0  0  0  0  0  0  0  0  0  0  0
   57.4533   27.1387   48.1973 H   0  0  0  0  0  0  0  0  0  0  0  0
  1  2  1  0
  2  3  2  0
  2  4  1  0
  4  5  1  0
  5  6  2  0
  6  7  1  0
  7  8  1  6
  7  9  1  0
  9 10  1  0
 10 11  1  0
 11 12  1  0
  9 13  1  0
 13 14  1  1
 13 15  1  0
 15 16  1  0
 16 17  1  0
 17 18  1  0
 18 19  2  0
 19 20  1  0
 20 21  1  0
 21 22  1  0
 22 23  1  0
 22 24  1  0
 22 25  1  0
 25 26  1  0
 25 27  1  0
 27 28  1  0
 28 29  1  0
 28 30  1  0
 30 31  1  1
 32 18  1  1
 32 33  1  0
 33 34  1  0
 33 35  1  0
 35 36  1  0
 11  5  1  0
 32 13  1  0
 36  7  1  0
 30 17  1  0
 36 32  1  0
 30 21  1  0
  1 37  1  0
  1 38  1  0
  1 39  1  0
  6 40  1  0
  8 41  1  0
  8 42  1  0
  8 43  1  0
  9 44  1  6
 10 45  1  0
 10 46  1  0
 11 47  1  6
 12 48  1  0
 14 49  1  0
 14 50  1  0
 14 51  1  0
 15 52  1  0
 15 53  1  0
 16 54  1  0
 16 55  1  0
 17 56  1  6
 19 57  1  0
 20 58  1  0
 20 59  1  0
 21 60  1  1
 23 61  1  0
 23 62  1  0
 23 63  1  0
 24 64  1  0
 24 65  1  0
 24 66  1  0
 25 67  1  6
 26 68  1  0
 27 69  1  0
 27 70  1  0
 28 71  1  6
 29 72  1  0
 31 73  1  0
 31 74  1  0
 31 75  1  0
 33 76  1  6
 34 77  1  0
 36 78  1  1
M  END
>  <UniqueID>  (94) 
87

>  <SMILES>  (94) 
CC(=O)OC1=C[C@@]2(C)C3OC(O)C34C3=CCC5C(C)(C)C(O)CC(O)C5(C)C3CCC4(C)[C@@H]2CC1O

>  <Energy>  (94) 
322.31056766260906

>  <Genealogy>  (94) 
CC(=O)OC1=C[C@@]2(C)C3OC(O)C34C3=CCC5C(C)(C)C(O)CC(O)C5(C)C3CCC4(C)[C@@H]2CC1O (chirality)
CC(=O)OC1=C[C@@]2(C)C3OC(O)C34C3=CCC5C(C)(C)C(O)CC(O)C5(C)C3CCC4(C)[C@@H]2CC1O (3D coordinates assigned)
CC(=O)OC1=C[C@@]2(C)C3OC(O)C34C3=CCC5C(C)(C)C(O)CC(O)C5(C)C3CCC4(C)[C@@H]2CC1O (nonaromatic ring conformer: 322.31056766260906 kcal/mol)

>  <smiles>  (94) 
CC(=O)OC1=CC2(C)C(CC1O)C1(C)CCC3C(=CCC4C(C)(C)C(O)CC(O)C34C)C13C(O)OC23

>  <score_type>  (94) 
oracle

>  <origin>  (94) 
adg

>  <m_score__min__energy>  (94) 
-9.1300000000000008

>  <m_primary>  (94) 
energy

$$$$
94:0
     RDKit          3D

 67 70  0  0  0  0  0  0  0  0999 V2000
   61.1420   34.1180   46.4450 C   0  0  0  0  0  0  0  0  0  0  0  0
   59.6040   34.9610   46.7600 S   0  0  0  0  0  0  0  0  0  0  0  0
   59.3120   34.9900   48.2340 O   0  0  0  0  0  0  0  0  0  0  0  0
   59.7120   36.3750   46.2590 O   0  0  0  0  0  0  0  0  0  0  0  0
   58.3120   34.1660   45.9200 N   0  0  0  0  0  0  0  0  0  0  0  0
   58.3180   32.7980   45.4820 C   0  0  0  0  0  0  0  0  0  0  0  0
   57.8780   32.4200   44.2010 C   0  0  0  0  0  0  0  0  0  0  0  0
   57.9240   31.0800   43.8070 C   0  0  0  0  0  0  0  0  0  0  0  0
   58.4010   30.0960   44.6870 C   0  0  0  0  0  0  0  0  0  0  0  0
   58.5120   28.6650   44.2340 C   0  0  0  0  0  0  0  0  0  0  0  0
   57.8110   27.7570   45.2090 C   0  0  0  0  0  0  0  0  0  0  0  0
   56.4570   27.7540   45.4720 C   0  0  0  0  0  0  0  0  0  0  0  0
   55.5280   28.6360   44.9310 O   0  0  0  0  0  0  0  0  0  0  0  0
   56.1380   26.7690   46.3340 N   0  0  0  0  0  0  0  0  0  0  0  0
   57.3290   26.1830   46.5770 C   0  0  0  0  0  0  0  0  0  0  0  0
   57.4540   25.1950   47.3480 O   0  0  0  0  0  0  0  0  0  0  0  0
   58.3660   26.7480   45.9160 N   0  0  0  0  0  0  0  0  0  0  0  0
   59.7750   26.3480   46.0110 C   0  0  0  0  0  0  0  0  0  0  0  0
   60.2320   26.2380   47.4740 C   0  0  0  0  0  0  0  0  0  0  0  0
   59.9850   27.5000   48.2630 C   0  0  0  0  0  0  0  0  0  0  0  0
   58.8550   28.0520   48.2250 O   0  0  0  0  0  0  0  0  0  0  0  0
   61.0090   28.0880   49.0760 N   0  0  0  0  0  0  0  0  0  0  0  0
   61.0240   29.4350   49.5660 C   0  0  0  0  0  0  0  0  0  0  0  0
   61.8090   29.7420   50.6840 C   0  0  0  0  0  0  0  0  0  0  0  0
   61.8970   31.0580   51.1480 C   0  0  0  0  0  0  0  0  0  0  0  0
   61.2060   32.0880   50.4930 C   0  0  0  0  0  0  0  0  0  0  0  0
   61.3600   33.5130   50.9560 C   0  0  0  0  0  0  0  0  0  0  0  0
   62.3780   34.2240   50.1490 N   0  0  0  0  0  0  0  0  0  0  0  0
   63.4480   34.8400   50.9680 C   0  0  0  0  0  0  0  0  0  0  0  0
   64.3780   33.7930   51.6110 C   0  0  0  0  0  0  0  0  0  0  0  0
   64.6290   32.5820   50.6990 C   0  0  0  0  0  0  0  0  0  0  0  0
   64.3590   32.9160   49.2340 C   0  0  0  0  0  0  0  0  0  0  0  0
   62.9070   33.3950   49.0320 C   0  0  0  0  0  0  0  0  0  0  0  0
   60.4310   31.7850   49.3620 C   0  0  0  0  0  0  0  0  0  0  0  0
   60.3480   30.4690   48.8960 C   0  0  0  0  0  0  0  0  0  0  0  0
   58.8370   30.4740   45.9660 C   0  0  0  0  0  0  0  0  0  0  0  0
   58.7910   31.8160   46.3600 C   0  0  0  0  0  0  0  0  0  0  0  0
   61.6192   33.8564   47.4009 H   0  0  0  0  0  0  0  0  0  0  0  0
   60.9464   33.2010   45.8698 H   0  0  0  0  0  0  0  0  0  0  0  0
   61.8098   34.7762   45.8698 H   0  0  0  0  0  0  0  0  0  0  0  0
   57.4960   33.1823   43.5061 H   0  0  0  0  0  0  0  0  0  0  0  0
   57.5841   30.7945   42.8005 H   0  0  0  0  0  0  0  0  0  0  0  0
   58.0484   28.5606   43.2419 H   0  0  0  0  0  0  0  0  0  0  0  0
   59.5746   28.3855   44.1823 H   0  0  0  0  0  0  0  0  0  0  0  0
   54.7520   28.9720   45.4830 H   0  0  0  0  0  0  0  0  0  0  0  0
   59.9029   25.3709   45.5222 H   0  0  0  0  0  0  0  0  0  0  0  0
   60.3861   27.1168   45.5155 H   0  0  0  0  0  0  0  0  0  0  0  0
   59.6839   25.4125   47.9517 H   0  0  0  0  0  0  0  0  0  0  0  0
   61.3174   26.0596   47.4681 H   0  0  0  0  0  0  0  0  0  0  0  0
   62.3602   28.9425   51.2007 H   0  0  0  0  0  0  0  0  0  0  0  0
   62.5113   31.2868   52.0313 H   0  0  0  0  0  0  0  0  0  0  0  0
   60.3947   34.0307   50.8552 H   0  0  0  0  0  0  0  0  0  0  0  0
   61.6855   33.5078   52.0067 H   0  0  0  0  0  0  0  0  0  0  0  0
   64.0500   35.4980   50.3241 H   0  0  0  0  0  0  0  0  0  0  0  0
   62.9644   35.4008   51.7814 H   0  0  0  0  0  0  0  0  0  0  0  0
   65.3432   34.2704   51.8354 H   0  0  0  0  0  0  0  0  0  0  0  0
   63.8839   33.4254   52.5225 H   0  0  0  0  0  0  0  0  0  0  0  0
   65.6772   32.2660   50.8057 H   0  0  0  0  0  0  0  0  0  0  0  0
   63.9431   31.7765   51.0002 H   0  0  0  0  0  0  0  0  0  0  0  0
   65.0476   33.7120   48.9142 H   0  0  0  0  0  0  0  0  0  0  0  0
   64.5135   32.0069   48.6343 H   0  0  0  0  0  0  0  0  0  0  0  0
   62.8659   33.9924   48.1093 H   0  0  0  0  0  0  0  0  0  0  0  0
   62.2799   32.4925   48.9832 H   0  0  0  0  0  0  0  0  0  0  0  0
   59.8869   32.5861   48.8403 H   0  0  0  0  0  0  0  0  0  0  0  0
   59.7506   30.2421   48.0006 H   0  0  0  0  0  0  0  0  0  0  0  0
   59.2168   29.7118   46.6623 H   0  0  0  0  0  0  0  0  0  0  0  0
   59.1291   32.1012   47.3672 H   0  0  0  0  0  0  0  0  0  0  0  0
  1  2  1  0
  2  3  2  0
  2  4  2  0
  2  5  1  0
  5  6  1  0
  6  7  2  0
  7  8  1  0
  8  9  2  0
  9 10  1  0
 10 11  1  0
 11 12  2  0
 12 13  1  0
 12 14  1  0
 14 15  1  0
 15 16  2  0
 15 17  1  0
 17 18  1  0
 18 19  1  0
 19 20  1  0
 20 21  2  0
 20 22  1  0
 22 23  1  0
 23 24  2  0
 24 25  1  0
 25 26  2  0
 26 27  1  0
 27 28  1  0
 28 29  1  0
 29 30  1  0
 30 31  1  0
 31 32  1  0
 32 33  1  0
 26 34  1  0
 34 35  2  0
  9 36  1  0
 36 37  2  0
 37  6  1  0
 17 11  1  0
 35 23  1  0
 33 28  1  0
  1 38  1  0
  1 39  1  0
  1 40  1  0
  7 41  1  0
  8 42  1  0
 10 43  1  0
 10 44  1  0
 13 45  1  0
 18 46  1  0
 18 47  1  0
 19 48  1  0
 19 49  1  0
 24 50  1  0
 25 51  1  0
 27 52  1  0
 27 53  1  0
 29 54  1  0
 29 55  1  0
 30 56  1  0
 30 57  1  0
 31 58  1  0
 31 59  1  0
 32 60  1  0
 32 61  1  0
 33 62  1  0
 33 63  1  0
 34 64  1  0
 35 65  1  0
 36 66  1  0
 37 67  1  0
M  CHG  3   5  -1  14  -1  22  -1
M  END
>  <UniqueID>  (95) 
88

>  <SMILES>  (95) 
CS(=O)(=O)[N-]c1ccc(Cc2c(O)[n-]c(=O)n2CCC(=O)[N-]c2ccc(CN3CCCCC3)cc2)cc1

>  <Energy>  (95) 
110.24093727757135

>  <Genealogy>  (95) 
CS(=O)(=O)[N-]c1ccc(Cc2c(O)[n-]c(=O)n2CCC(=O)[N-]c2ccc(CN3CCCCC3)cc2)cc1 (protonated)
CS(=O)(=O)[N-]c1ccc(Cc2c(O)[n-]c(=O)n2CCC(=O)[N-]c2ccc(CN3CCCCC3)cc2)cc1 (3D coordinates assigned)
CS(=O)(=O)[N-]c1ccc(Cc2c(O)[n-]c(=O)n2CCC(=O)[N-]c2ccc(CN3CCCCC3)cc2)cc1 (nonaromatic ring conformer: 110.24093727757135 kcal/mol)

>  <smiles>  (95) 
CS(=O)(=O)Nc1ccc(Cc2c(O)[nH]c(=O)n2CCC(=O)Nc2ccc(CN3CCCCC3)cc2)cc1

>  <score_type>  (95) 
oracle

>  <origin>  (95) 
adg

>  <m_score__min__energy>  (95) 
-14.359999999999999

>  <m_primary>  (95) 
energy

$$$$
95:0
     RDKit          3D

 50 52  0  0  0  0  0  0  0  0999 V2000
   63.7600   33.1010   47.1070 N   0  0  0  0  0  0  0  0  0  0  0  0
   62.5460   32.4610   47.5210 C   0  0  0  0  0  0  0  0  0  0  0  0
   61.3870   32.6080   46.7580 C   0  0  0  0  0  0  0  0  0  0  0  0
   60.2050   31.9730   47.1640 C   0  0  0  0  0  0  0  0  0  0  0  0
   58.9820   32.0840   46.4040 N   0  0  0  0  0  0  0  0  0  0  0  0
   58.3710   30.9050   45.7760 C   0  0  0  0  0  0  0  0  0  0  0  0
   57.5210   31.3220   44.5720 C   0  0  0  0  0  0  0  0  0  0  0  0
   56.6180   32.3510   44.9230 O   0  0  0  0  0  0  0  0  0  0  0  0
   57.3400   33.5180   45.2590 C   0  0  0  0  0  0  0  0  0  0  0  0
   58.1680   33.2990   46.5290 C   0  0  0  0  0  0  0  0  0  0  0  0
   60.2270   31.2230   48.2980 N   0  0  0  0  0  0  0  0  0  0  0  0
   61.3230   31.0780   49.0480 N   0  0  0  0  0  0  0  0  0  0  0  0
   61.2360   30.2180   50.2320 C   0  0  0  0  0  0  0  0  0  0  0  0
   60.9780   28.8010   49.8180 C   0  0  0  0  0  0  0  0  0  0  0  0
   61.0260   27.8870   50.6850 O   0  0  0  0  0  0  0  0  0  0  0  0
   60.6330   28.4940   48.4600 N   0  0  0  0  0  0  0  0  0  0  0  0
   60.3670   27.1320   48.0070 C   0  0  0  0  0  0  0  0  0  0  0  0
   59.5000   27.1520   46.7780 C   0  0  0  0  0  0  0  0  0  0  0  0
   59.9440   27.8050   45.6180 C   0  0  0  0  0  0  0  0  0  0  0  0
   59.1510   27.8150   44.4680 C   0  0  0  0  0  0  0  0  0  0  0  0
   57.9140   27.1670   44.4630 C   0  0  0  0  0  0  0  0  0  0  0  0
   57.4660   26.4910   45.6080 C   0  0  0  0  0  0  0  0  0  0  0  0
   56.1210   25.8180   45.6130 C   0  0  0  0  0  0  0  0  0  0  0  0
   55.1300   26.7270   46.0060 O   0  0  0  0  0  0  0  0  0  0  0  0
   58.2580   26.4970   46.7670 C   0  0  0  0  0  0  0  0  0  0  0  0
   62.5000   31.6760   48.6820 C   0  0  0  0  0  0  0  0  0  0  0  0
   63.5410   31.5250   49.3810 O   0  0  0  0  0  0  0  0  0  0  0  0
   64.6760   32.8260   47.5250 H   0  0  0  0  0  0  0  0  0  0  0  0
   63.7580   33.8520   46.3820 H   0  0  0  0  0  0  0  0  0  0  0  0
   61.4007   33.2187   45.8432 H   0  0  0  0  0  0  0  0  0  0  0  0
   59.1644   30.2211   45.4402 H   0  0  0  0  0  0  0  0  0  0  0  0
   57.7257   30.4028   46.5118 H   0  0  0  0  0  0  0  0  0  0  0  0
   58.1835   31.6822   43.7711 H   0  0  0  0  0  0  0  0  0  0  0  0
   56.9439   30.4499   44.2309 H   0  0  0  0  0  0  0  0  0  0  0  0
   58.0142   33.7764   44.4291 H   0  0  0  0  0  0  0  0  0  0  0  0
   56.6255   34.3345   45.4405 H   0  0  0  0  0  0  0  0  0  0  0  0
   58.8292   34.1642   46.6846 H   0  0  0  0  0  0  0  0  0  0  0  0
   57.4865   33.1863   47.3851 H   0  0  0  0  0  0  0  0  0  0  0  0
   62.1832   30.2681   50.7891 H   0  0  0  0  0  0  0  0  0  0  0  0
   60.4094   30.5641   50.8699 H   0  0  0  0  0  0  0  0  0  0  0  0
   60.5580   29.2720   47.7650 H   0  0  0  0  0  0  0  0  0  0  0  0
   61.3197   26.6352   47.7713 H   0  0  0  0  0  0  0  0  0  0  0  0
   59.8446   26.5844   48.8053 H   0  0  0  0  0  0  0  0  0  0  0  0
   60.9206   28.3112   45.6142 H   0  0  0  0  0  0  0  0  0  0  0  0
   59.5018   28.3346   43.5641 H   0  0  0  0  0  0  0  0  0  0  0  0
   57.2887   27.1866   43.5583 H   0  0  0  0  0  0  0  0  0  0  0  0
   55.8953   25.4482   44.6019 H   0  0  0  0  0  0  0  0  0  0  0  0
   56.1411   24.9778   46.3227 H   0  0  0  0  0  0  0  0  0  0  0  0
   55.1460   27.4670   45.3430 H   0  0  0  0  0  0  0  0  0  0  0  0
   57.9030   25.9847   47.6734 H   0  0  0  0  0  0  0  0  0  0  0  0
  1  2  1  0
  2  3  2  0
  3  4  1  0
  4  5  1  0
  5  6  1  0
  6  7  1  0
  7  8  1  0
  8  9  1  0
  9 10  1  0
  4 11  2  0
 11 12  1  0
 12 13  1  0
 13 14  1  0
 14 15  2  0
 14 16  1  0
 16 17  1  0
 17 18  1  0
 18 19  2  0
 19 20  1  0
 20 21  2  0
 21 22  1  0
 22 23  1  0
 23 24  1  0
 22 25  2  0
 12 26  1  0
 26 27  2  0
 26  2  1  0
 10  5  1  0
 25 18  1  0
  1 28  1  0
  1 29  1  0
  3 30  1  0
  6 31  1  0
  6 32  1  0
  7 33  1  0
  7 34  1  0
  9 35  1  0
  9 36  1  0
 10 37  1  0
 10 38  1  0
 13 39  1  0
 13 40  1  0
 16 41  1  0
 17 42  1  0
 17 43  1  0
 19 44  1  0
 20 45  1  0
 21 46  1  0
 23 47  1  0
 23 48  1  0
 24 49  1  0
 25 50  1  0
M  END
>  <UniqueID>  (96) 
89

>  <SMILES>  (96) 
Nc1cc(N2CCOCC2)nn(CC(=O)NCc2cccc(CO)c2)c1=O

>  <Energy>  (96) 
51.37896553720914

>  <Genealogy>  (96) 
Nc1cc(N2CCOCC2)nn(CC(=O)NCc2cccc(CO)c2)c1=O (3D coordinates assigned)
Nc1cc(N2CCOCC2)nn(CC(=O)NCc2cccc(CO)c2)c1=O (nonaromatic ring conformer: 51.37896553720914 kcal/mol)

>  <smiles>  (96) 
Nc1cc(N2CCOCC2)nn(CC(=O)NCc2cccc(CO)c2)c1=O

>  <score_type>  (96) 
oracle

>  <origin>  (96) 
adg

>  <m_score__min__energy>  (96) 
-7.9800000000000004

>  <m_primary>  (96) 
energy

$$$$
96:0
     RDKit          3D

 50 52  0  0  0  0  0  0  0  0999 V2000
   55.7652   33.2453   45.0052 H   0  0  0  0  0  0  0  0  0  0  0  0
   56.7790   32.9030   45.2600 C   0  0  0  0  0  0  0  0  0  0  0  0
   57.1760   31.6150   45.2910 N   0  0  0  0  0  0  0  0  0  0  0  0
   58.4600   31.5930   45.6200 N   0  0  0  0  0  0  0  0  0  0  0  0
   59.2300   30.3610   45.8370 C   0  0  0  0  0  0  0  0  0  0  0  0
   60.3029   30.6033   45.8477 H   0  0  0  0  0  0  0  0  0  0  0  0
   59.0190   29.3580   44.6770 C   0  0  0  0  0  0  0  0  0  0  0  0
   58.6806   29.9070   43.7859 H   0  0  0  0  0  0  0  0  0  0  0  0
   59.9739   28.8482   44.4813 H   0  0  0  0  0  0  0  0  0  0  0  0
   57.9700   28.2980   45.0390 C   0  0  0  0  0  0  0  0  0  0  0  0
   57.0193   28.8022   45.2670 H   0  0  0  0  0  0  0  0  0  0  0  0
   57.8633   27.6180   44.1810 H   0  0  0  0  0  0  0  0  0  0  0  0
   58.3800   27.4900   46.2180 N   0  0  0  0  0  0  0  0  0  0  0  0
   57.2180   26.8120   46.8320 C   0  0  0  0  0  0  0  0  0  0  0  0
   57.4830   26.4985   47.8525 H   0  0  0  0  0  0  0  0  0  0  0  0
   56.3728   27.5158   46.8508 H   0  0  0  0  0  0  0  0  0  0  0  0
   56.8120   25.5960   46.0320 C   0  0  0  0  0  0  0  0  0  0  0  0
   57.7730   24.6320   45.6830 C   0  0  0  0  0  0  0  0  0  0  0  0
   58.8186   24.7643   45.9980 H   0  0  0  0  0  0  0  0  0  0  0  0
   57.4080   23.5010   44.9350 C   0  0  0  0  0  0  0  0  0  0  0  0
   58.4320   22.4610   44.5910 C   0  0  0  0  0  0  0  0  0  0  0  0
   58.8493   22.0372   45.5163 H   0  0  0  0  0  0  0  0  0  0  0  0
   57.9589   21.6613   44.0022 H   0  0  0  0  0  0  0  0  0  0  0  0
   59.2389   22.9216   44.0022 H   0  0  0  0  0  0  0  0  0  0  0  0
   56.0660   23.3180   44.5710 C   0  0  0  0  0  0  0  0  0  0  0  0
   55.7688   22.4225   44.0055 H   0  0  0  0  0  0  0  0  0  0  0  0
   55.1050   24.2690   44.9240 C   0  0  0  0  0  0  0  0  0  0  0  0
   54.0557   24.1237   44.6277 H   0  0  0  0  0  0  0  0  0  0  0  0
   55.4720   25.4040   45.6520 C   0  0  0  0  0  0  0  0  0  0  0  0
   54.4990   26.3370   45.9950 O   0  0  0  0  0  0  0  0  0  0  0  0
   59.1620   28.2490   47.2310 C   0  0  0  0  0  0  0  0  0  0  0  0
   58.9166   27.8581   48.2295 H   0  0  0  0  0  0  0  0  0  0  0  0
   60.2278   28.1187   46.9922 H   0  0  0  0  0  0  0  0  0  0  0  0
   58.8640   29.7540   47.2070 C   0  0  0  0  0  0  0  0  0  0  0  0
   57.7923   29.9129   47.3976 H   0  0  0  0  0  0  0  0  0  0  0  0
   59.4672   30.2462   47.9841 H   0  0  0  0  0  0  0  0  0  0  0  0
   58.8790   32.8550   45.8400 C   0  0  0  0  0  0  0  0  0  0  0  0
   60.0960   33.1540   46.1970 N   0  0  0  0  0  0  0  0  0  0  0  0
   60.5130   33.9320   47.3300 C   0  0  0  0  0  0  0  0  0  0  0  0
   59.7090   34.7700   47.8190 O   0  0  0  0  0  0  0  0  0  0  0  0
   61.9060   33.8630   47.8840 C   0  0  0  0  0  0  0  0  0  0  0  0
   62.0167   32.9519   48.4903 H   0  0  0  0  0  0  0  0  0  0  0  0
   62.0983   34.7431   48.5152 H   0  0  0  0  0  0  0  0  0  0  0  0
   62.8260   33.8340   46.8150 O   0  0  0  0  0  0  0  0  0  0  0  0
   63.7310   32.7710   47.0070 C   0  0  0  0  0  0  0  0  0  0  0  0
   63.8749   32.6020   48.0844 H   0  0  0  0  0  0  0  0  0  0  0  0
   63.3284   31.8584   46.5432 H   0  0  0  0  0  0  0  0  0  0  0  0
   64.6961   33.0228   46.5432 H   0  0  0  0  0  0  0  0  0  0  0  0
   57.8350   33.7300   45.5960 C   0  0  0  0  0  0  0  0  0  0  0  0
   57.8433   34.8284   45.6555 H   0  0  0  0  0  0  0  0  0  0  0  0
  1  2  1  0
  2  3  1  0
  3  4  1  0
  4  5  1  0
  5  6  1  0
  5  7  1  0
  7  8  1  0
  7  9  1  0
  7 10  1  0
 10 11  1  0
 10 12  1  0
 10 13  1  0
 13 14  1  0
 14 15  1  0
 14 16  1  0
 14 17  1  0
 17 18  2  0
 18 19  1  0
 18 20  1  0
 20 21  1  0
 21 22  1  0
 21 23  1  0
 21 24  1  0
 20 25  2  0
 25 26  1  0
 25 27  1  0
 27 28  1  0
 27 29  2  0
 29 30  1  0
 13 31  1  0
 31 32  1  0
 31 33  1  0
 31 34  1  0
 34 35  1  0
 34 36  1  0
  4 37  1  0
 37 38  2  0
 38 39  1  0
 39 40  2  0
 39 41  1  0
 41 42  1  0
 41 43  1  0
 41 44  1  0
 44 45  1  0
 45 46  1  0
 45 47  1  0
 45 48  1  0
 37 49  1  0
 49 50  1  0
 49  2  2  0
 34  5  1  0
 29 17  1  0
M  CHG  2   3  -1  30  -1
M  END
>  <UniqueID>  (97) 
90

>  <SMILES>  (97) 
COCC(=O)/N=c1\cc[n-]n1C1CCN(Cc2cc(C)ccc2[O-])CC1

>  <Energy>  (97) 
96.07762176134236

>  <Genealogy>  (97) 
COCC(=O)N=c1cc[n-]n1C1CCN(Cc2cc(C)ccc2[O-])CC1 (protonated)
COCC(=O)/N=c1\cc[n-]n1C1CCN(Cc2cc(C)ccc2[O-])CC1 (cis-trans isomerization)
COCC(=O)/N=c1\cc[n-]n1C1CCN(Cc2cc(C)ccc2[O-])CC1 (3D coordinates assigned)
COCC(=O)/N=c1\cc[n-]n1C1CCN(Cc2cc(C)ccc2[O-])CC1 (nonaromatic ring conformer: 96.07762176134236 kcal/mol)

>  <smiles>  (97) 
COCC(=O)N=c1cc[nH]n1C1CCN(Cc2cc(C)ccc2O)CC1

>  <score_type>  (97) 
oracle

>  <origin>  (97) 
adg

>  <m_score__min__energy>  (97) 
-12.539999999999999

>  <m_primary>  (97) 
energy

$$$$
