0:0
     RDKit          3D

 54 57  0  0  0  0  0  0  0  0999 V2000
   59.3580   35.2710   47.4640 C   0  0  0  0  0  0  0  0  0  0  0  0
   59.6400   33.8320   47.1520 C   0  0  0  0  0  0  0  0  0  0  0  0
   60.7310   33.0700   47.5900 C   0  0  0  0  0  0  0  0  0  0  0  0
   61.8370   33.5420   48.4520 C   0  0  0  0  0  0  0  0  0  0  0  0
   62.7640   34.2240   47.9430 O   0  0  0  0  0  0  0  0  0  0  0  0
   61.9080   33.2120   49.8440 N   0  0  0  0  0  0  0  0  0  0  0  0
   61.2850   32.0870   50.4790 C   0  0  0  0  0  0  0  0  0  0  0  0
   61.9400   30.8470   50.5940 C   0  0  0  0  0  0  0  0  0  0  0  0
   61.3000   29.7700   51.2140 C   0  0  0  0  0  0  0  0  0  0  0  0
   60.0030   29.9160   51.7110 C   0  0  0  0  0  0  0  0  0  0  0  0
   59.3360   31.1440   51.5880 C   0  0  0  0  0  0  0  0  0  0  0  0
   57.6930   31.3280   52.1940 S   0  0  0  0  0  0  0  0  0  0  0  0
   56.7630   29.9340   51.7700 N   0  0  0  0  0  0  0  0  0  0  0  0
   57.7130   31.4800   53.6890 O   0  0  0  0  0  0  0  0  0  0  0  0
   57.0650   32.5540   51.5930 O   0  0  0  0  0  0  0  0  0  0  0  0
   59.9750   32.2200   50.9580 C   0  0  0  0  0  0  0  0  0  0  0  0
   60.5920   31.8010   47.0220 C   0  0  0  0  0  0  0  0  0  0  0  0
   61.5280   30.6360   47.1500 C   0  0  0  0  0  0  0  0  0  0  0  0
   59.4680   31.7810   46.2880 N   0  0  0  0  0  0  0  0  0  0  0  0
   58.9730   30.7690   45.5800 N   0  0  0  0  0  0  0  0  0  0  0  0
   57.8280   30.9600   44.8630 C   0  0  0  0  0  0  0  0  0  0  0  0
   57.2540   29.8380   44.0550 C   0  0  0  0  0  0  0  0  0  0  0  0
   56.4240   28.9530   44.9280 C   0  0  0  0  0  0  0  0  0  0  0  0
   55.1670   28.9910   44.8450 O   0  0  0  0  0  0  0  0  0  0  0  0
   57.0750   28.0650   45.8460 N   0  0  0  0  0  0  0  0  0  0  0  0
   57.1760   26.6380   45.7240 C   0  0  0  0  0  0  0  0  0  0  0  0
   58.4150   26.0000   45.5250 C   0  0  0  0  0  0  0  0  0  0  0  0
   58.4840   24.6070   45.4390 C   0  0  0  0  0  0  0  0  0  0  0  0
   57.3250   23.8380   45.5630 C   0  0  0  0  0  0  0  0  0  0  0  0
   56.0950   24.4610   45.7850 C   0  0  0  0  0  0  0  0  0  0  0  0
   56.0170   25.8590   45.8720 C   0  0  0  0  0  0  0  0  0  0  0  0
   54.7910   26.4800   46.1020 O   0  0  0  0  0  0  0  0  0  0  0  0
   57.2150   32.1810   44.8820 N   0  0  0  0  0  0  0  0  0  0  0  0
   57.7240   33.2140   45.6100 C   0  0  0  0  0  0  0  0  0  0  0  0
   57.1480   34.3330   45.6060 O   0  0  0  0  0  0  0  0  0  0  0  0
   58.8920   32.9900   46.3390 C   0  0  0  0  0  0  0  0  0  0  0  0
   59.3305   35.4111   48.5547 H   0  0  0  0  0  0  0  0  0  0  0  0
   60.1497   35.9016   47.0331 H   0  0  0  0  0  0  0  0  0  0  0  0
   58.3869   35.5561   47.0331 H   0  0  0  0  0  0  0  0  0  0  0  0
   62.9578   30.7249   50.1952 H   0  0  0  0  0  0  0  0  0  0  0  0
   61.8192   28.8051   51.3107 H   0  0  0  0  0  0  0  0  0  0  0  0
   59.5035   29.0665   52.1998 H   0  0  0  0  0  0  0  0  0  0  0  0
   55.8170   30.0560   52.2000 H   0  0  0  0  0  0  0  0  0  0  0  0
   59.4444   33.1761   50.8386 H   0  0  0  0  0  0  0  0  0  0  0  0
   61.7014   30.4202   48.2146 H   0  0  0  0  0  0  0  0  0  0  0  0
   61.0844   29.7542   46.6646 H   0  0  0  0  0  0  0  0  0  0  0  0
   62.4847   30.8792   46.6646 H   0  0  0  0  0  0  0  0  0  0  0  0
   56.6255   30.2513   43.2524 H   0  0  0  0  0  0  0  0  0  0  0  0
   58.0749   29.2492   43.6197 H   0  0  0  0  0  0  0  0  0  0  0  0
   59.3325   26.6004   45.4369 H   0  0  0  0  0  0  0  0  0  0  0  0
   59.4537   24.1149   45.2732 H   0  0  0  0  0  0  0  0  0  0  0  0
   57.3808   22.7421   45.4859 H   0  0  0  0  0  0  0  0  0  0  0  0
   55.1843   23.8535   45.8920 H   0  0  0  0  0  0  0  0  0  0  0  0
   54.7320   27.4650   46.3370 H   0  0  0  0  0  0  0  0  0  0  0  0
  1  2  1  0
  2  3  1  0
  3  4  1  0
  4  5  2  0
  4  6  1  0
  6  7  1  0
  7  8  2  0
  8  9  1  0
  9 10  2  0
 10 11  1  0
 11 12  1  0
 12 13  1  0
 12 14  2  0
 12 15  2  0
 11 16  2  0
  3 17  2  0
 17 18  1  0
 17 19  1  0
 19 20  1  0
 20 21  1  0
 21 22  1  0
 22 23  1  0
 23 24  2  0
 23 25  1  0
 25 26  1  0
 26 27  2  0
 27 28  1  0
 28 29  2  0
 29 30  1  0
 30 31  2  0
 31 32  1  0
 21 33  2  0
 33 34  1  0
 34 35  2  0
 34 36  1  0
 36  2  2  0
 16  7  1  0
 36 19  1  0
 31 26  1  0
  1 37  1  0
  1 38  1  0
  1 39  1  0
  8 40  1  0
  9 41  1  0
 10 42  1  0
 13 43  1  0
 16 44  1  0
 18 45  1  0
 18 46  1  0
 18 47  1  0
 22 48  1  0
 22 49  1  0
 27 50  1  0
 28 51  1  0
 29 52  1  0
 30 53  1  0
 32 54  1  0
M  CHG  4   6  -1  13  -1  20  -1  25  -1
M  END
>  <UniqueID>  (1) 
1

>  <SMILES>  (1) 
Cc1c(C(=O)[N-]c2cccc(S([NH-])(=O)=O)c2)c(C)n2[n-]c(CC(=O)[N-]c3ccccc3O)nc(=O)c12

>  <Energy>  (1) 
100.05094446292365

>  <Genealogy>  (1) 
Cc1c(C(=O)[N-]c2cccc(S([NH-])(=O)=O)c2)c(C)n2[n-]c(CC(=O)[N-]c3ccccc3O)nc(=O)c12 (protonated)
Cc1c(C(=O)[N-]c2cccc(S([NH-])(=O)=O)c2)c(C)n2[n-]c(CC(=O)[N-]c3ccccc3O)nc(=O)c12 (3D coordinates assigned)
Cc1c(C(=O)[N-]c2cccc(S([NH-])(=O)=O)c2)c(C)n2[n-]c(CC(=O)[N-]c3ccccc3O)nc(=O)c12 (optimized conformer: 100.05094446292365 kcal/mol)

>  <smiles>  (1) 
Cc1c(C(=O)Nc2cccc(S(N)(=O)=O)c2)c(C)n2[nH]c(CC(=O)Nc3ccccc3O)nc(=O)c12

>  <score_type>  (1) 
oracle

>  <origin>  (1) 
adg

>  <m_score__min__energy>  (1) 
-15.43

>  <m_primary>  (1) 
energy

$$$$
1:0
     RDKit          3D

 49 51  0  0  1  0  0  0  0  0999 V2000
   62.0000   33.4850   47.1550 C   0  0  0  0  0  0  0  0  0  0  0  0
   60.9560   34.4040   47.3430 O   0  0  0  0  0  0  0  0  0  0  0  0
   59.7290   34.1930   46.7570 C   0  0  0  0  0  0  0  0  0  0  0  0
   59.5110   34.4760   45.4080 C   0  0  0  0  0  0  0  0  0  0  0  0
   58.2730   34.2610   44.8260 C   0  0  0  0  0  0  0  0  0  0  0  0
   57.2370   33.7530   45.6120 C   0  0  0  0  0  0  0  0  0  0  0  0
   57.4210   33.4620   46.9550 C   0  0  0  0  0  0  0  0  0  0  0  0
   58.6690   33.6880   47.5060 C   0  0  0  0  0  0  0  0  0  0  0  0
   58.8950   33.4000   48.8850 N   0  0  0  0  0  0  0  0  0  0  0  0
   58.7740   32.1870   49.2900 C   0  0  0  0  0  0  0  0  0  0  0  0
   59.4530   31.1610   48.7030 C   0  0  0  0  0  0  0  0  0  0  0  0
   59.3260   29.8360   49.1400 C   0  0  0  0  0  0  0  0  0  0  0  0
   60.0320   28.7730   48.5350 N   0  0  0  0  0  0  0  0  0  0  0  0
   59.6080   28.0380   47.4170 C   0  0  0  0  0  0  0  0  0  0  0  0
   60.3220   26.8780   47.1140 C   0  0  0  0  0  0  0  0  0  0  0  0
   59.9350   26.1320   46.0180 C   0  0  0  0  0  0  0  0  0  0  0  0
   58.8650   26.5430   45.2540 C   0  0  0  0  0  0  0  0  0  0  0  0
   58.1340   27.6820   45.5190 C   0  0  0  0  0  0  0  0  0  0  0  0
   57.0310   28.1010   44.7270 N   0  0  0  0  0  0  0  0  0  0  0  0
   56.9700   29.6910   44.0990 S   0  0  0  0  0  0  0  0  0  0  0  0
   56.4530   29.6480   42.4020 C   0  0  0  0  0  0  0  0  0  0  0  0
   55.9760   30.5290   44.8640 O   0  0  0  0  0  0  0  0  0  0  0  0
   58.3490   30.3230   44.1830 O   0  0  0  0  0  0  0  0  0  0  0  0
   58.5410   28.4210   46.6310 C   0  0  0  0  0  0  0  0  0  0  0  0
   57.8210   29.5610   46.9070 O   0  0  0  0  0  0  0  0  0  0  0  0
   58.4820   29.6640   50.1820 N   0  0  0  0  0  0  0  0  0  0  0  0
   57.8220   30.6860   50.7490 C   0  0  0  0  0  0  0  0  0  0  0  0
   57.0100   30.4950   51.7580 N   0  0  0  0  0  0  0  0  0  0  0  0
   57.9410   31.9590   50.3320 N   0  0  0  0  0  0  0  0  0  0  0  0
   62.3770   33.1531   48.1336 H   0  0  0  0  0  0  0  0  0  0  0  0
   61.6272   32.6166   46.5920 H   0  0  0  0  0  0  0  0  0  0  0  0
   62.8141   33.9650   46.5920 H   0  0  0  0  0  0  0  0  0  0  0  0
   60.3346   34.8757   44.7981 H   0  0  0  0  0  0  0  0  0  0  0  0
   58.1086   34.4867   43.7620 H   0  0  0  0  0  0  0  0  0  0  0  0
   56.2516   33.5795   45.1550 H   0  0  0  0  0  0  0  0  0  0  0  0
   56.5974   33.0626   47.5651 H   0  0  0  0  0  0  0  0  0  0  0  0
   60.1227   31.3807   47.8584 H   0  0  0  0  0  0  0  0  0  0  0  0
   60.9530   28.5140   48.9610 H   0  0  0  0  0  0  0  0  0  0  0  0
   61.1745   26.5646   47.7345 H   0  0  0  0  0  0  0  0  0  0  0  0
   60.4794   25.2127   45.7561 H   0  0  0  0  0  0  0  0  0  0  0  0
   58.5784   25.9302   44.3866 H   0  0  0  0  0  0  0  0  0  0  0  0
   56.2740   27.4270   44.5410 H   0  0  0  0  0  0  0  0  0  0  0  0
   55.3578   29.5569   42.3546 H   0  0  0  0  0  0  0  0  0  0  0  0
   56.7659   30.5753   41.8998 H   0  0  0  0  0  0  0  0  0  0  0  0
   56.9148   28.7852   41.8998 H   0  0  0  0  0  0  0  0  0  0  0  0
   57.6440   30.2860   46.2180 H   0  0  0  0  0  0  0  0  0  0  0  0
   58.3190   28.7210   50.5850 H   0  0  0  0  0  0  0  0  0  0  0  0
   57.2670   30.6720   52.7360 H   0  0  0  0  0  0  0  0  0  0  0  0
   57.4200   32.7200   50.7890 H   0  0  0  0  0  0  0  0  0  0  0  0
  1  2  1  0
  2  3  1  0
  3  4  2  0
  4  5  1  0
  5  6  2  0
  6  7  1  0
  7  8  2  0
  8  9  1  0
  9 10  2  0
 10 11  1  0
 11 12  2  0
 12 13  1  0
 13 14  1  0
 14 15  2  0
 15 16  1  0
 16 17  2  0
 17 18  1  0
 18 19  1  0
 19 20  1  0
 20 21  1  0
 20 22  2  0
 20 23  2  0
 18 24  2  0
 24 25  1  0
 12 26  1  0
 26 27  1  0
 27 28  2  3
 27 29  1  0
  8  3  1  0
 29 10  1  0
 24 14  1  0
  1 30  1  0
  1 31  1  0
  1 32  1  0
  4 33  1  0
  5 34  1  0
  6 35  1  0
  7 36  1  0
 11 37  1  0
 13 38  1  0
 15 39  1  0
 16 40  1  0
 17 41  1  0
 19 42  1  0
 21 43  1  0
 21 44  1  0
 21 45  1  0
 25 46  1  0
 26 47  1  0
 28 48  1  0
 29 49  1  0
M  END
>  <smiles>  (2) 
COc1ccccc1N=c1cc(Nc2cccc(NS(C)(=O)=O)c2O)[nH]c(=N)[nH]1

>  <score_type>  (2) 
oracle

>  <origin>  (2) 
adg

>  <m_score__min__energy>  (2) 
-8.8800000000000008

>  <m_primary>  (2) 
energy

$$$$
2:0
     RDKit          3D

 30 31  0  0  1  0  0  0  0  0999 V2000
   54.9180   26.1830   45.9980 O   0  0  0  0  0  0  0  0  0  0  0  0
   55.8720   25.2980   45.5190 C   0  0  0  0  0  0  0  0  0  0  0  0
   57.2790   25.8230   45.7230 C   0  0  0  0  0  0  0  0  0  0  0  0
   57.2470   27.1070   46.4300 N   0  0  0  0  0  0  0  0  0  0  0  0
   57.0630   28.2090   45.7860 C   0  0  0  0  0  0  0  0  0  0  0  0
   56.0260   28.6720   45.0770 N   0  0  0  0  0  0  0  0  0  0  0  0
   56.1690   29.8330   44.5530 N   0  0  0  0  0  0  0  0  0  0  0  0
   57.1070   30.5950   44.5920 C   0  0  0  0  0  0  0  0  0  0  0  0
   57.5910   32.1710   44.0110 S   0  0  0  0  0  0  0  0  0  0  0  0
   57.0900   33.4940   45.1290 C   0  0  0  0  0  0  0  0  0  0  0  0
   58.1450   33.6070   46.1660 C   0  0  0  0  0  0  0  0  0  0  0  0
   59.2500   34.3950   45.8310 C   0  0  0  0  0  0  0  0  0  0  0  0
   60.3000   34.5800   46.7090 C   0  0  0  0  0  0  0  0  0  0  0  0
   60.2400   33.9640   47.9440 C   0  0  0  0  0  0  0  0  0  0  0  0
   61.5620   34.1820   49.0810 Cl  0  0  0  0  0  0  0  0  0  0  0  0
   59.1440   33.1860   48.2690 C   0  0  0  0  0  0  0  0  0  0  0  0
   58.0830   32.9960   47.3880 C   0  0  0  0  0  0  0  0  0  0  0  0
   58.3100   29.5450   45.6740 S   0  0  0  0  0  0  0  0  0  0  0  0
   55.0980   26.4920   46.9190 H   0  0  0  0  0  0  0  0  0  0  0  0
   55.7685   24.3407   46.0508 H   0  0  0  0  0  0  0  0  0  0  0  0
   55.7080   25.1698   44.4389 H   0  0  0  0  0  0  0  0  0  0  0  0
   57.8546   25.0969   46.3158 H   0  0  0  0  0  0  0  0  0  0  0  0
   57.7521   25.9679   44.7406 H   0  0  0  0  0  0  0  0  0  0  0  0
   55.1420   28.0830   44.9750 H   0  0  0  0  0  0  0  0  0  0  0  0
   56.9995   34.4412   44.5771 H   0  0  0  0  0  0  0  0  0  0  0  0
   56.1131   33.2747   45.5845 H   0  0  0  0  0  0  0  0  0  0  0  0
   59.2841   34.8795   44.8441 H   0  0  0  0  0  0  0  0  0  0  0  0
   61.1632   35.2028   46.4315 H   0  0  0  0  0  0  0  0  0  0  0  0
   59.1094   32.7014   49.2559 H   0  0  0  0  0  0  0  0  0  0  0  0
   57.2203   32.3729   47.6665 H   0  0  0  0  0  0  0  0  0  0  0  0
  1  2  1  0
  2  3  1  0
  3  4  1  0
  4  5  2  0
  5  6  1  0
  6  7  1  0
  7  8  2  0
  8  9  1  0
  9 10  1  0
 10 11  1  0
 11 12  2  0
 12 13  1  0
 13 14  2  0
 14 15  1  0
 14 16  1  0
 16 17  2  0
  8 18  1  0
 18  5  1  0
 17 11  1  0
  1 19  1  0
  2 20  1  0
  2 21  1  0
  3 22  1  0
  3 23  1  0
  6 24  1  0
 10 25  1  0
 10 26  1  0
 12 27  1  0
 13 28  1  0
 16 29  1  0
 17 30  1  0
M  END
>  <smiles>  (3) 
OCCN=c1[nH]nc(SCc2ccc(Cl)cc2)s1

>  <score_type>  (3) 
oracle

>  <origin>  (3) 
adg

>  <m_score__min__energy>  (3) 
-8.2899999999999991

>  <m_primary>  (3) 
energy

$$$$
3:0
     RDKit          3D

 39 41  0  0  0  0  0  0  0  0999 V2000
   63.3127   32.2158   46.8374 H   0  0  0  0  0  0  0  0  0  0  0  0
   62.6390   32.7570   47.5180 C   0  0  0  0  0  0  0  0  0  0  0  0
   61.3770   33.0660   47.1200 N   0  0  0  0  0  0  0  0  0  0  0  0
   60.5070   33.7360   47.9300 C   0  0  0  0  0  0  0  0  0  0  0  0
   59.3010   34.0280   47.5350 N   0  0  0  0  0  0  0  0  0  0  0  0
   58.5570   33.3930   46.4830 C   0  0  0  0  0  0  0  0  0  0  0  0
   57.6240   34.0010   45.8910 O   0  0  0  0  0  0  0  0  0  0  0  0
   58.9220   32.0640   46.0820 N   0  0  0  0  0  0  0  0  0  0  0  0
   59.8500   31.7050   46.4000 H   0  0  0  0  0  0  0  0  0  0  0  0
   58.1480   31.2490   45.1850 C   0  0  0  0  0  0  0  0  0  0  0  0
   58.2340   31.4770   43.8040 C   0  0  0  0  0  0  0  0  0  0  0  0
   58.8653   32.2932   43.4228 H   0  0  0  0  0  0  0  0  0  0  0  0
   57.5230   30.6740   42.9100 C   0  0  0  0  0  0  0  0  0  0  0  0
   57.5937   30.8615   41.8284 H   0  0  0  0  0  0  0  0  0  0  0  0
   56.7220   29.6330   43.3860 C   0  0  0  0  0  0  0  0  0  0  0  0
   56.1674   29.0014   42.6763 H   0  0  0  0  0  0  0  0  0  0  0  0
   56.6210   29.3890   44.7600 C   0  0  0  0  0  0  0  0  0  0  0  0
   55.8170   28.2870   45.2050 N   0  0  0  0  0  0  0  0  0  0  0  0
   56.2860   27.0980   45.8580 C   0  0  0  0  0  0  0  0  0  0  0  0
   55.5180   26.1080   45.9950 O   0  0  0  0  0  0  0  0  0  0  0  0
   57.6910   27.0140   46.3260 C   0  0  0  0  0  0  0  0  0  0  0  0
   58.6080   26.1640   45.6800 C   0  0  0  0  0  0  0  0  0  0  0  0
   58.2809   25.5587   44.8218 H   0  0  0  0  0  0  0  0  0  0  0  0
   59.9320   26.0840   46.1220 C   0  0  0  0  0  0  0  0  0  0  0  0
   60.6423   25.4186   45.6094 H   0  0  0  0  0  0  0  0  0  0  0  0
   60.3550   26.8470   47.2130 C   0  0  0  0  0  0  0  0  0  0  0  0
   61.6400   26.7650   47.6380 F   0  0  0  0  0  0  0  0  0  0  0  0
   59.4540   27.6940   47.8640 C   0  0  0  0  0  0  0  0  0  0  0  0
   59.8630   28.4360   48.9220 F   0  0  0  0  0  0  0  0  0  0  0  0
   58.1280   27.7770   47.4240 C   0  0  0  0  0  0  0  0  0  0  0  0
   57.4222   28.4440   47.9407 H   0  0  0  0  0  0  0  0  0  0  0  0
   57.3600   30.1830   45.6570 C   0  0  0  0  0  0  0  0  0  0  0  0
   57.3212   29.9686   46.7352 H   0  0  0  0  0  0  0  0  0  0  0  0
   60.9200   34.1220   49.2120 C   0  0  0  0  0  0  0  0  0  0  0  0
   60.2309   34.6645   49.8760 H   0  0  0  0  0  0  0  0  0  0  0  0
   62.2130   33.8130   49.6410 C   0  0  0  0  0  0  0  0  0  0  0  0
   62.5459   34.1103   50.6464 H   0  0  0  0  0  0  0  0  0  0  0  0
   63.0820   33.1260   48.7910 C   0  0  0  0  0  0  0  0  0  0  0  0
   64.7090   32.7320   49.3150 Cl  0  0  0  0  0  0  0  0  0  0  0  0
  1  2  1  0
  2  3  1  0
  3  4  1  0
  4  5  2  0
  5  6  1  0
  6  7  2  0
  6  8  1  0
  8  9  1  0
  8 10  1  0
 10 11  2  0
 11 12  1  0
 11 13  1  0
 13 14  1  0
 13 15  2  0
 15 16  1  0
 15 17  1  0
 17 18  1  0
 18 19  1  0
 19 20  2  0
 19 21  1  0
 21 22  2  0
 22 23  1  0
 22 24  1  0
 24 25  1  0
 24 26  2  0
 26 27  1  0
 26 28  1  0
 28 29  1  0
 28 30  2  0
 30 31  1  0
 17 32  2  0
 32 33  1  0
  4 34  1  0
 34 35  1  0
 34 36  2  0
 36 37  1  0
 36 38  1  0
 38 39  1  0
 38  2  2  0
 32 10  1  0
 30 21  1  0
M  CHG  2   3  -1  18  -1
M  END
>  <UniqueID>  (4) 
2

>  <SMILES>  (4) 
O=C(/N=c1/ccc(Cl)c[n-]1)Nc1cccc([N-]C(=O)c2ccc(F)c(F)c2)c1

>  <Energy>  (4) 
52.79142875738989

>  <Genealogy>  (4) 
O=C(N=c1ccc(Cl)c[n-]1)Nc1cccc([N-]C(=O)c2ccc(F)c(F)c2)c1 (protonated)
O=C(/N=c1/ccc(Cl)c[n-]1)Nc1cccc([N-]C(=O)c2ccc(F)c(F)c2)c1 (cis-trans isomerization)
O=C(/N=c1/ccc(Cl)c[n-]1)Nc1cccc([N-]C(=O)c2ccc(F)c(F)c2)c1 (3D coordinates assigned)
O=C(/N=c1/ccc(Cl)c[n-]1)Nc1cccc([N-]C(=O)c2ccc(F)c(F)c2)c1 (optimized conformer: 52.79142875738989 kcal/mol)

>  <smiles>  (4) 
O=C(N=c1ccc(Cl)c[nH]1)Nc1cccc(NC(=O)c2ccc(F)c(F)c2)c1

>  <score_type>  (4) 
oracle

>  <origin>  (4) 
adg

>  <m_score__min__energy>  (4) 
-11.199999999999999

>  <m_primary>  (4) 
energy

$$$$
4:0
     RDKit          3D

 36 37  0  0  0  0  0  0  0  0999 V2000
   58.1750   30.7020   46.2940 C   0  0  0  0  0  0  0  0  0  0  0  0
   57.3930   31.4920   45.3330 N   0  0  0  0  0  0  0  0  0  0  0  0
   57.3720   30.9550   43.9560 C   0  0  0  0  0  0  0  0  0  0  0  0
   56.6890   29.6100   43.7890 C   0  0  0  0  0  0  0  0  0  0  0  0
   56.6560   29.0580   42.6600 O   0  0  0  0  0  0  0  0  0  0  0  0
   56.2670   28.8390   44.9240 N   0  0  0  0  0  0  0  0  0  0  0  0
   56.9370   27.7110   45.5030 C   0  0  0  0  0  0  0  0  0  0  0  0
   58.3360   27.6750   45.6180 C   0  0  0  0  0  0  0  0  0  0  0  0
   58.9670   26.5850   46.2270 C   0  0  0  0  0  0  0  0  0  0  0  0
   60.7160   26.5440   46.3520 Cl  0  0  0  0  0  0  0  0  0  0  0  0
   58.2020   25.5360   46.7460 C   0  0  0  0  0  0  0  0  0  0  0  0
   56.8080   25.5810   46.6650 C   0  0  0  0  0  0  0  0  0  0  0  0
   56.1750   26.6700   46.0550 C   0  0  0  0  0  0  0  0  0  0  0  0
   54.7860   26.7100   45.9910 O   0  0  0  0  0  0  0  0  0  0  0  0
   57.7390   33.2030   45.4370 S   0  0  0  0  0  0  0  0  0  0  0  0
   56.5290   33.9090   45.9840 O   0  0  0  0  0  0  0  0  0  0  0  0
   58.0010   33.7450   44.0600 O   0  0  0  0  0  0  0  0  0  0  0  0
   59.1140   33.5680   46.4850 C   0  0  0  0  0  0  0  0  0  0  0  0
   60.4160   33.5610   45.9630 C   0  0  0  0  0  0  0  0  0  0  0  0
   61.5070   33.8490   46.7890 C   0  0  0  0  0  0  0  0  0  0  0  0
   61.3060   34.1360   48.1410 C   0  0  0  0  0  0  0  0  0  0  0  0
   60.0120   34.1290   48.6710 C   0  0  0  0  0  0  0  0  0  0  0  0
   58.9190   33.8410   47.8480 C   0  0  0  0  0  0  0  0  0  0  0  0
   57.8930   30.9869   47.3183 H   0  0  0  0  0  0  0  0  0  0  0  0
   57.9704   29.6320   46.1415 H   0  0  0  0  0  0  0  0  0  0  0  0
   59.2470   30.8957   46.1415 H   0  0  0  0  0  0  0  0  0  0  0  0
   56.8496   31.6820   43.3168 H   0  0  0  0  0  0  0  0  0  0  0  0
   58.4243   30.7956   43.6782 H   0  0  0  0  0  0  0  0  0  0  0  0
   58.9388   28.5080   45.2273 H   0  0  0  0  0  0  0  0  0  0  0  0
   58.6979   24.6751   47.2182 H   0  0  0  0  0  0  0  0  0  0  0  0
   56.2070   24.7592   47.0813 H   0  0  0  0  0  0  0  0  0  0  0  0
   60.5793   33.3282   44.9004 H   0  0  0  0  0  0  0  0  0  0  0  0
   62.5254   33.8495   46.3732 H   0  0  0  0  0  0  0  0  0  0  0  0
   62.1648   34.3673   48.7883 H   0  0  0  0  0  0  0  0  0  0  0  0
   59.8538   34.3504   49.7368 H   0  0  0  0  0  0  0  0  0  0  0  0
   57.9032   33.8283   48.2699 H   0  0  0  0  0  0  0  0  0  0  0  0
  1  2  1  0
  2  3  1  0
  3  4  1  0
  4  5  2  0
  4  6  1  0
  6  7  1  0
  7  8  2  0
  8  9  1  0
  9 10  1  0
  9 11  2  0
 11 12  1  0
 12 13  2  0
 13 14  1  0
  2 15  1  0
 15 16  2  0
 15 17  2  0
 15 18  1  0
 18 19  2  0
 19 20  1  0
 20 21  2  0
 21 22  1  0
 22 23  2  0
 13  7  1  0
 23 18  1  0
  1 24  1  0
  1 25  1  0
  1 26  1  0
  3 27  1  0
  3 28  1  0
  8 29  1  0
 11 30  1  0
 12 31  1  0
 19 32  1  0
 20 33  1  0
 21 34  1  0
 22 35  1  0
 23 36  1  0
M  CHG  2   6  -1  14  -1
M  END
>  <UniqueID>  (5) 
3

>  <SMILES>  (5) 
CN(CC(=O)[N-]c1cc(Cl)ccc1[O-])S(=O)(=O)c1ccccc1

>  <Energy>  (5) 
47.04907950249011

>  <Genealogy>  (5) 
CN(CC(=O)[N-]c1cc(Cl)ccc1[O-])S(=O)(=O)c1ccccc1 (protonated)
CN(CC(=O)[N-]c1cc(Cl)ccc1[O-])S(=O)(=O)c1ccccc1 (3D coordinates assigned)
CN(CC(=O)[N-]c1cc(Cl)ccc1[O-])S(=O)(=O)c1ccccc1 (optimized conformer: 47.04907950249011 kcal/mol)

>  <smiles>  (5) 
CN(CC(=O)Nc1cc(Cl)ccc1O)S(=O)(=O)c1ccccc1

>  <score_type>  (5) 
oracle

>  <origin>  (5) 
adg

>  <m_score__min__energy>  (5) 
-14.460000000000001

>  <m_primary>  (5) 
energy

$$$$
5:0
     RDKit          3D

 66 69  0  0  0  0  0  0  0  0999 V2000
   58.4370   27.4650   43.3210 C   0  0  0  0  0  0  0  0  0  0  0  0
   58.9460   28.4200   44.3970 C   0  0  0  0  0  0  0  0  0  0  0  0
   57.8940   28.7360   45.3750 N   0  0  0  0  0  0  0  0  0  0  0  0
   57.7110   27.8810   46.5600 C   0  0  0  0  0  0  0  0  0  0  0  0
   58.8180   28.1120   47.5530 C   0  0  0  0  0  0  0  0  0  0  0  0
   59.4900   27.0260   48.1260 C   0  0  0  0  0  0  0  0  0  0  0  0
   60.4990   27.2360   49.0670 C   0  0  0  0  0  0  0  0  0  0  0  0
   60.8480   28.5350   49.4420 C   0  0  0  0  0  0  0  0  0  0  0  0
   60.1900   29.6400   48.8670 C   0  0  0  0  0  0  0  0  0  0  0  0
   60.5120   30.9670   49.1940 O   0  0  0  0  0  0  0  0  0  0  0  0
   60.7520   31.4570   50.5140 C   0  0  0  0  0  0  0  0  0  0  0  0
   59.4620   31.8830   51.1630 C   0  0  0  0  0  0  0  0  0  0  0  0
   58.3490   31.0260   51.1370 C   0  0  0  0  0  0  0  0  0  0  0  0
   57.1460   31.4160   51.7350 C   0  0  0  0  0  0  0  0  0  0  0  0
   57.0480   32.6600   52.3650 C   0  0  0  0  0  0  0  0  0  0  0  0
   58.1540   33.5140   52.4030 C   0  0  0  0  0  0  0  0  0  0  0  0
   59.3590   33.1270   51.8090 C   0  0  0  0  0  0  0  0  0  0  0  0
   59.1720   29.4170   47.9320 C   0  0  0  0  0  0  0  0  0  0  0  0
   57.0380   29.8770   45.1500 C   0  0  0  0  0  0  0  0  0  0  0  0
   55.7940   29.7070   45.0250 O   0  0  0  0  0  0  0  0  0  0  0  0
   57.5750   31.2530   45.0620 C   0  0  0  0  0  0  0  0  0  0  0  0
   58.1440   31.8350   46.2080 C   0  0  0  0  0  0  0  0  0  0  0  0
   58.6840   33.1280   46.1620 C   0  0  0  0  0  0  0  0  0  0  0  0
   59.3960   33.8450   47.6100 S   0  0  0  0  0  0  0  0  0  0  0  0
   58.5910   33.4350   48.8110 O   0  0  0  0  0  0  0  0  0  0  0  0
   59.3310   35.3430   47.4970 O   0  0  0  0  0  0  0  0  0  0  0  0
   61.0620   33.3630   47.8300 N   0  0  0  0  0  0  0  0  0  0  0  0
   61.8350   33.5700   46.5900 C   0  0  0  0  0  0  0  0  0  0  0  0
   63.3540   33.4790   46.8530 C   0  0  0  0  0  0  0  0  0  0  0  0
   63.6160   32.8500   48.0920 O   0  0  0  0  0  0  0  0  0  0  0  0
   63.1370   33.6530   49.1560 C   0  0  0  0  0  0  0  0  0  0  0  0
   61.6720   34.1010   48.9490 C   0  0  0  0  0  0  0  0  0  0  0  0
   58.6650   33.8410   44.9570 C   0  0  0  0  0  0  0  0  0  0  0  0
   58.1220   33.2640   43.8070 C   0  0  0  0  0  0  0  0  0  0  0  0
   57.5850   31.9730   43.8470 C   0  0  0  0  0  0  0  0  0  0  0  0
   57.0140   31.2650   42.3380 Cl  0  0  0  0  0  0  0  0  0  0  0  0
   57.9708   26.5902   43.7979 H   0  0  0  0  0  0  0  0  0  0  0  0
   57.6941   27.9806   42.6948 H   0  0  0  0  0  0  0  0  0  0  0  0
   59.2793   27.1358   42.6948 H   0  0  0  0  0  0  0  0  0  0  0  0
   59.7922   27.9511   44.9205 H   0  0  0  0  0  0  0  0  0  0  0  0
   59.2584   29.3555   43.9100 H   0  0  0  0  0  0  0  0  0  0  0  0
   56.7461   28.1182   47.0319 H   0  0  0  0  0  0  0  0  0  0  0  0
   57.7302   26.8273   46.2447 H   0  0  0  0  0  0  0  0  0  0  0  0
   59.2211   26.0005   47.8327 H   0  0  0  0  0  0  0  0  0  0  0  0
   61.0203   26.3767   49.5141 H   0  0  0  0  0  0  0  0  0  0  0  0
   61.6394   28.6960   50.1889 H   0  0  0  0  0  0  0  0  0  0  0  0
   61.2145   30.6614   51.1166 H   0  0  0  0  0  0  0  0  0  0  0  0
   61.4229   32.3266   50.4533 H   0  0  0  0  0  0  0  0  0  0  0  0
   58.4238   30.0451   50.6448 H   0  0  0  0  0  0  0  0  0  0  0  0
   56.2762   30.7430   51.7094 H   0  0  0  0  0  0  0  0  0  0  0  0
   56.1001   32.9670   52.8311 H   0  0  0  0  0  0  0  0  0  0  0  0
   58.0761   34.4918   52.9009 H   0  0  0  0  0  0  0  0  0  0  0  0
   60.2295   33.7984   51.8474 H   0  0  0  0  0  0  0  0  0  0  0  0
   58.6434   30.2740   47.4891 H   0  0  0  0  0  0  0  0  0  0  0  0
   58.1658   31.2697   47.1514 H   0  0  0  0  0  0  0  0  0  0  0  0
   61.0590   32.3410   48.0630 H   0  0  0  0  0  0  0  0  0  0  0  0
   61.5514   32.7992   45.8582 H   0  0  0  0  0  0  0  0  0  0  0  0
   61.6094   34.5752   46.2043 H   0  0  0  0  0  0  0  0  0  0  0  0
   63.8245   32.8966   46.0471 H   0  0  0  0  0  0  0  0  0  0  0  0
   63.7666   34.4982   46.8827 H   0  0  0  0  0  0  0  0  0  0  0  0
   63.2002   33.0750   50.0898 H   0  0  0  0  0  0  0  0  0  0  0  0
   63.7600   34.5587   49.1968 H   0  0  0  0  0  0  0  0  0  0  0  0
   61.0997   33.9043   49.8676 H   0  0  0  0  0  0  0  0  0  0  0  0
   61.6573   35.1762   48.7171 H   0  0  0  0  0  0  0  0  0  0  0  0
   59.0792   34.8592   44.9161 H   0  0  0  0  0  0  0  0  0  0  0  0
   58.1166   33.8287   42.8630 H   0  0  0  0  0  0  0  0  0  0  0  0
  1  2  1  0
  2  3  1  0
  3  4  1  0
  4  5  1  0
  5  6  2  0
  6  7  1  0
  7  8  2  0
  8  9  1  0
  9 10  1  0
 10 11  1  0
 11 12  1  0
 12 13  2  0
 13 14  1  0
 14 15  2  0
 15 16  1  0
 16 17  2  0
  9 18  2  0
  3 19  1  0
 19 20  2  0
 19 21  1  0
 21 22  2  0
 22 23  1  0
 23 24  1  0
 24 25  2  0
 24 26  2  0
 24 27  1  0
 27 28  1  0
 28 29  1  0
 29 30  1  0
 30 31  1  0
 31 32  1  0
 23 33  2  0
 33 34  1  0
 34 35  2  0
 35 36  1  0
 18  5  1  0
 35 21  1  0
 17 12  1  0
 32 27  1  0
  1 37  1  0
  1 38  1  0
  1 39  1  0
  2 40  1  0
  2 41  1  0
  4 42  1  0
  4 43  1  0
  6 44  1  0
  7 45  1  0
  8 46  1  0
 11 47  1  0
 11 48  1  0
 13 49  1  0
 14 50  1  0
 15 51  1  0
 16 52  1  0
 17 53  1  0
 18 54  1  0
 22 55  1  0
 27 56  1  0
 28 57  1  0
 28 58  1  0
 29 59  1  0
 29 60  1  0
 31 61  1  0
 31 62  1  0
 32 63  1  0
 32 64  1  0
 33 65  1  0
 34 66  1  0
M  CHG  1  27   1
M  END
>  <UniqueID>  (6) 
4

>  <SMILES>  (6) 
CCN(Cc1cccc(OCc2ccccc2)c1)C(=O)c1cc(S(=O)(=O)[NH+]2CCOCC2)ccc1Cl

>  <Energy>  (6) 
77.11091521408484

>  <Genealogy>  (6) 
CCN(Cc1cccc(OCc2ccccc2)c1)C(=O)c1cc(S(=O)(=O)[NH+]2CCOCC2)ccc1Cl (protonated)
CCN(Cc1cccc(OCc2ccccc2)c1)C(=O)c1cc(S(=O)(=O)[NH+]2CCOCC2)ccc1Cl (3D coordinates assigned)
CCN(Cc1cccc(OCc2ccccc2)c1)C(=O)c1cc(S(=O)(=O)[NH+]2CCOCC2)ccc1Cl (nonaromatic ring conformer: 77.11091521408484 kcal/mol)

>  <smiles>  (6) 
CCN(Cc1cccc(OCc2ccccc2)c1)C(=O)c1cc(S(=O)(=O)N2CCOCC2)ccc1Cl

>  <score_type>  (6) 
oracle

>  <origin>  (6) 
adg

>  <m_score__min__energy>  (6) 
-8.3800000000000008

>  <m_primary>  (6) 
energy

$$$$
6:0
     RDKit          3D

 50 52  0  0  0  0  0  0  0  0999 V2000
   55.1620   29.3320   44.8630 N   0  0  0  0  0  0  0  0  0  0  0  0
   56.6200   30.1260   44.3870 S   0  0  0  0  0  0  0  0  0  0  0  0
   56.7670   30.0520   42.8940 O   0  0  0  0  0  0  0  0  0  0  0  0
   56.5610   31.5700   44.8010 O   0  0  0  0  0  0  0  0  0  0  0  0
   57.9790   29.3160   45.1650 C   0  0  0  0  0  0  0  0  0  0  0  0
   58.8910   28.5910   44.3850 C   0  0  0  0  0  0  0  0  0  0  0  0
   59.9120   27.8550   44.9970 C   0  0  0  0  0  0  0  0  0  0  0  0
   60.0110   27.8190   46.3910 C   0  0  0  0  0  0  0  0  0  0  0  0
   59.0980   28.5490   47.1820 C   0  0  0  0  0  0  0  0  0  0  0  0
   59.1470   28.5170   48.6140 N   0  0  0  0  0  0  0  0  0  0  0  0
   60.3560   29.2970   49.5800 S   0  0  0  0  0  0  0  0  0  0  0  0
   61.5180   29.6740   48.7060 O   0  0  0  0  0  0  0  0  0  0  0  0
   60.8400   28.3380   50.6280 O   0  0  0  0  0  0  0  0  0  0  0  0
   59.6940   30.7230   50.3750 C   0  0  0  0  0  0  0  0  0  0  0  0
   58.3150   30.9400   50.4200 C   0  0  0  0  0  0  0  0  0  0  0  0
   57.8020   32.0700   51.0590 C   0  0  0  0  0  0  0  0  0  0  0  0
   58.6610   33.0000   51.6320 C   0  0  0  0  0  0  0  0  0  0  0  0
   60.0440   32.8170   51.5660 C   0  0  0  0  0  0  0  0  0  0  0  0
   60.8920   33.8080   52.1590 N   0  0  0  0  0  0  0  0  0  0  0  0
   62.2690   33.6510   52.5330 C   0  0  0  0  0  0  0  0  0  0  0  0
   62.5880   33.1670   53.6520 O   0  0  0  0  0  0  0  0  0  0  0  0
   63.3390   33.9720   51.5370 C   0  0  0  0  0  0  0  0  0  0  0  0
   62.7740   33.9250   50.1180 C   0  0  0  0  0  0  0  0  0  0  0  0
   63.4170   32.8440   49.3690 N   0  0  0  0  0  0  0  0  0  0  0  0
   63.0000   32.9640   47.6870 S   0  0  0  0  0  0  0  0  0  0  0  0
   63.6350   34.1940   47.0930 O   0  0  0  0  0  0  0  0  0  0  0  0
   63.5100   31.7510   46.9560 O   0  0  0  0  0  0  0  0  0  0  0  0
   61.2570   33.0560   47.5040 C   0  0  0  0  0  0  0  0  0  0  0  0
   60.4400   32.0330   47.0490 C   0  0  0  0  0  0  0  0  0  0  0  0
   59.0810   32.3810   47.0470 C   0  0  0  0  0  0  0  0  0  0  0  0
   58.8350   33.6740   47.4990 C   0  0  0  0  0  0  0  0  0  0  0  0
   60.3060   34.3850   47.9110 S   0  0  0  0  0  0  0  0  0  0  0  0
   60.5560   31.6570   50.9560 C   0  0  0  0  0  0  0  0  0  0  0  0
   58.0940   29.3080   46.5620 C   0  0  0  0  0  0  0  0  0  0  0  0
   55.1880   28.3300   44.5130 H   0  0  0  0  0  0  0  0  0  0  0  0
   58.8038   28.6007   43.2885 H   0  0  0  0  0  0  0  0  0  0  0  0
   60.6375   27.3042   44.3804 H   0  0  0  0  0  0  0  0  0  0  0  0
   60.8002   27.2219   46.8713 H   0  0  0  0  0  0  0  0  0  0  0  0
   57.6309   30.2180   49.9503 H   0  0  0  0  0  0  0  0  0  0  0  0
   56.7141   32.2249   51.1092 H   0  0  0  0  0  0  0  0  0  0  0  0
   58.2496   33.8847   52.1401 H   0  0  0  0  0  0  0  0  0  0  0  0
   63.7315   34.9797   51.7381 H   0  0  0  0  0  0  0  0  0  0  0  0
   64.1452   33.2289   51.6259 H   0  0  0  0  0  0  0  0  0  0  0  0
   61.6896   33.7456   50.1615 H   0  0  0  0  0  0  0  0  0  0  0  0
   62.9687   34.8838   49.6153 H   0  0  0  0  0  0  0  0  0  0  0  0
   60.8172   31.0522   46.7239 H   0  0  0  0  0  0  0  0  0  0  0  0
   58.2849   31.6964   46.7191 H   0  0  0  0  0  0  0  0  0  0  0  0
   57.8469   34.1514   47.5746 H   0  0  0  0  0  0  0  0  0  0  0  0
   61.6422   31.4842   50.9363 H   0  0  0  0  0  0  0  0  0  0  0  0
   57.3956   29.8981   47.1735 H   0  0  0  0  0  0  0  0  0  0  0  0
  1  2  1  0
  2  3  2  0
  2  4  2  0
  2  5  1  0
  5  6  2  0
  6  7  1  0
  7  8  2  0
  8  9  1  0
  9 10  1  0
 10 11  1  0
 11 12  2  0
 11 13  2  0
 11 14  1  0
 14 15  2  0
 15 16  1  0
 16 17  2  0
 17 18  1  0
 18 19  1  0
 19 20  1  0
 20 21  2  0
 20 22  1  0
 22 23  1  0
 23 24  1  0
 24 25  1  0
 25 26  2  0
 25 27  2  0
 25 28  1  0
 28 29  2  0
 29 30  1  0
 30 31  2  0
 31 32  1  0
 18 33  2  0
  9 34  2  0
 34  5  1  0
 33 14  1  0
 32 28  1  0
  1 35  1  0
  6 36  1  0
  7 37  1  0
  8 38  1  0
 15 39  1  0
 16 40  1  0
 17 41  1  0
 22 42  1  0
 22 43  1  0
 23 44  1  0
 23 45  1  0
 29 46  1  0
 30 47  1  0
 31 48  1  0
 33 49  1  0
 34 50  1  0
M  CHG  4   1  -1  10  -1  19  -1  24  -1
M  END
>  <UniqueID>  (7) 
5

>  <SMILES>  (7) 
[NH-]S(=O)(=O)c1cccc([N-]S(=O)(=O)c2cccc([N-]C(=O)CC[N-]S(=O)(=O)c3cccs3)c2)c1

>  <Energy>  (7) 
81.10349840860596

>  <Genealogy>  (7) 
[NH-]S(=O)(=O)c1cccc([N-]S(=O)(=O)c2cccc([N-]C(=O)CC[N-]S(=O)(=O)c3cccs3)c2)c1 (protonated)
[NH-]S(=O)(=O)c1cccc([N-]S(=O)(=O)c2cccc([N-]C(=O)CC[N-]S(=O)(=O)c3cccs3)c2)c1 (3D coordinates assigned)
[NH-]S(=O)(=O)c1cccc([N-]S(=O)(=O)c2cccc([N-]C(=O)CC[N-]S(=O)(=O)c3cccs3)c2)c1 (optimized conformer: 81.10349840860596 kcal/mol)

>  <smiles>  (7) 
NS(=O)(=O)c1cccc(NS(=O)(=O)c2cccc(NC(=O)CCNS(=O)(=O)c3cccs3)c2)c1

>  <score_type>  (7) 
oracle

>  <origin>  (7) 
adg

>  <m_score__min__energy>  (7) 
-15.529999999999999

>  <m_primary>  (7) 
energy

$$$$
7:0
     RDKit          3D

 52 54  0  0  0  0  0  0  0  0999 V2000
   59.2870   34.8600   47.1330 C   0  0  0  0  0  0  0  0  0  0  0  0
   59.4250   34.7470   45.8090 C   0  0  0  0  0  0  0  0  0  0  0  0
   58.2940   34.2660   44.9460 C   0  0  0  0  0  0  0  0  0  0  0  0
   58.6950   33.1280   44.1830 O   0  0  0  0  0  0  0  0  0  0  0  0
   57.9420   31.9520   44.0170 C   0  0  0  0  0  0  0  0  0  0  0  0
   57.3910   31.5830   42.7730 C   0  0  0  0  0  0  0  0  0  0  0  0
   56.6650   30.3970   42.6450 C   0  0  0  0  0  0  0  0  0  0  0  0
   56.4800   29.5650   43.7500 C   0  0  0  0  0  0  0  0  0  0  0  0
   57.0150   29.9190   44.9900 C   0  0  0  0  0  0  0  0  0  0  0  0
   57.7410   31.1130   45.1350 C   0  0  0  0  0  0  0  0  0  0  0  0
   58.3110   31.4850   46.4780 C   0  0  0  0  0  0  0  0  0  0  0  0
   58.7940   30.2940   47.1660 N   0  0  0  0  0  0  0  0  0  0  0  0
   60.0990   29.7420   46.9680 C   0  0  0  0  0  0  0  0  0  0  0  0
   60.2960   28.5040   47.0930 O   0  0  0  0  0  0  0  0  0  0  0  0
   61.2410   30.6520   46.6480 C   0  0  0  0  0  0  0  0  0  0  0  0
   61.3310   31.7130   47.6620 N   0  0  0  0  0  0  0  0  0  0  0  0
   60.3740   31.7970   48.5990 N   0  0  0  0  0  0  0  0  0  0  0  0
   60.4320   32.7090   49.6140 C   0  0  0  0  0  0  0  0  0  0  0  0
   59.3710   32.7560   50.6500 C   0  0  0  0  0  0  0  0  0  0  0  0
   59.2660   33.8720   51.4950 C   0  0  0  0  0  0  0  0  0  0  0  0
   58.2940   33.9320   52.4420 N   0  0  0  0  0  0  0  0  0  0  0  0
   57.3980   32.9260   52.6080 C   0  0  0  0  0  0  0  0  0  0  0  0
   57.4630   31.7900   51.8020 C   0  0  0  0  0  0  0  0  0  0  0  0
   58.4610   31.6900   50.8150 C   0  0  0  0  0  0  0  0  0  0  0  0
   58.5840   30.5480   50.0050 O   0  0  0  0  0  0  0  0  0  0  0  0
   59.2910   29.3680   50.3740 C   0  0  0  0  0  0  0  0  0  0  0  0
   61.5090   33.6000   49.6620 C   0  0  0  0  0  0  0  0  0  0  0  0
   62.5040   33.5200   48.6980 C   0  0  0  0  0  0  0  0  0  0  0  0
   62.4120   32.5550   47.6990 C   0  0  0  0  0  0  0  0  0  0  0  0
   63.3330   32.4660   46.8400 O   0  0  0  0  0  0  0  0  0  0  0  0
   60.1291   35.2145   47.7455 H   0  0  0  0  0  0  0  0  0  0  0  0
   58.3312   34.5985   47.6107 H   0  0  0  0  0  0  0  0  0  0  0  0
   60.3853   35.0113   45.3421 H   0  0  0  0  0  0  0  0  0  0  0  0
   57.4425   33.9909   45.5857 H   0  0  0  0  0  0  0  0  0  0  0  0
   58.0056   35.0727   44.2560 H   0  0  0  0  0  0  0  0  0  0  0  0
   57.5338   32.2335   41.8975 H   0  0  0  0  0  0  0  0  0  0  0  0
   56.2378   30.1178   41.6705 H   0  0  0  0  0  0  0  0  0  0  0  0
   55.9119   28.6290   43.6439 H   0  0  0  0  0  0  0  0  0  0  0  0
   56.8673   29.2596   45.8580 H   0  0  0  0  0  0  0  0  0  0  0  0
   59.1460   32.1870   46.3368 H   0  0  0  0  0  0  0  0  0  0  0  0
   57.5236   31.9561   47.0847 H   0  0  0  0  0  0  0  0  0  0  0  0
   62.1771   30.0744   46.6397 H   0  0  0  0  0  0  0  0  0  0  0  0
   61.0775   31.1067   45.6598 H   0  0  0  0  0  0  0  0  0  0  0  0
   59.5530   31.1520   48.5500 H   0  0  0  0  0  0  0  0  0  0  0  0
   59.9768   34.7049   51.3894 H   0  0  0  0  0  0  0  0  0  0  0  0
   56.6188   33.0071   53.3802 H   0  0  0  0  0  0  0  0  0  0  0  0
   56.7368   30.9750   51.9372 H   0  0  0  0  0  0  0  0  0  0  0  0
   59.3349   29.2947   51.4707 H   0  0  0  0  0  0  0  0  0  0  0  0
   58.7716   28.4873   49.9682 H   0  0  0  0  0  0  0  0  0  0  0  0
   60.3125   29.4106   49.9682 H   0  0  0  0  0  0  0  0  0  0  0  0
   61.5669   34.3578   50.4572 H   0  0  0  0  0  0  0  0  0  0  0  0
   63.3579   34.2130   48.7231 H   0  0  0  0  0  0  0  0  0  0  0  0
  1  2  2  0
  2  3  1  0
  3  4  1  0
  4  5  1  0
  5  6  2  0
  6  7  1  0
  7  8  2  0
  8  9  1  0
  9 10  2  0
 10 11  1  0
 11 12  1  0
 12 13  1  0
 13 14  2  0
 13 15  1  0
 15 16  1  0
 16 17  1  0
 17 18  2  0
 18 19  1  0
 19 20  2  0
 20 21  1  0
 21 22  2  0
 22 23  1  0
 23 24  2  0
 24 25  1  0
 25 26  1  0
 18 27  1  0
 27 28  2  0
 28 29  1  0
 29 30  2  0
 10  5  1  0
 29 16  1  0
 24 19  1  0
  1 31  1  0
  1 32  1  0
  2 33  1  0
  3 34  1  0
  3 35  1  0
  6 36  1  0
  7 37  1  0
  8 38  1  0
  9 39  1  0
 11 40  1  0
 11 41  1  0
 15 42  1  0
 15 43  1  0
 17 44  1  0
 20 45  1  0
 22 46  1  0
 23 47  1  0
 26 48  1  0
 26 49  1  0
 26 50  1  0
 27 51  1  0
 28 52  1  0
M  CHG  2  12  -1  17   1
M  END
>  <UniqueID>  (8) 
6

>  <SMILES>  (8) 
C=CCOc1ccccc1C[N-]C(=O)Cn1[nH+]c(-c2cnccc2OC)ccc1=O

>  <Energy>  (8) 
54.04970600456188

>  <Genealogy>  (8) 
C=CCOc1ccccc1C[N-]C(=O)Cn1[nH+]c(-c2cnccc2OC)ccc1=O (protonated)
C=CCOc1ccccc1C[N-]C(=O)Cn1[nH+]c(-c2cnccc2OC)ccc1=O (3D coordinates assigned)
C=CCOc1ccccc1C[N-]C(=O)Cn1[nH+]c(-c2cnccc2OC)ccc1=O (optimized conformer: 54.04970600456188 kcal/mol)

>  <smiles>  (8) 
C=CCOc1ccccc1CNC(=O)Cn1nc(-c2cnccc2OC)ccc1=O

>  <score_type>  (8) 
oracle

>  <origin>  (8) 
adg

>  <m_score__min__energy>  (8) 
-8.1899999999999995

>  <m_primary>  (8) 
energy

$$$$
8:0
     RDKit          3D

 78 82  0  0  0  0  0  0  0  0999 V2000
   53.2840   23.9770   45.3390 C   0  0  0  0  0  0  0  0  0  0  0  0
   53.3720   22.6970   46.1640 C   0  0  0  0  0  0  0  0  0  0  0  0
   54.7880   22.3700   46.4510 N   0  0  0  0  0  0  0  0  0  0  0  0
   55.1580   21.0490   45.8920 C   0  0  0  0  0  0  0  0  0  0  0  0
   56.3000   21.2030   44.8900 C   0  0  0  0  0  0  0  0  0  0  0  0
   55.0640   22.4300   47.9040 C   0  0  0  0  0  0  0  0  0  0  0  0
   56.4390   22.9710   48.1590 C   0  0  0  0  0  0  0  0  0  0  0  0
   57.3590   22.1800   48.4960 O   0  0  0  0  0  0  0  0  0  0  0  0
   56.6560   24.3880   48.1260 N   0  0  0  0  0  0  0  0  0  0  0  0
   56.9750   25.2230   47.0030 C   0  0  0  0  0  0  0  0  0  0  0  0
   56.8430   24.6730   45.7220 C   0  0  0  0  0  0  0  0  0  0  0  0
   57.1840   25.4170   44.5900 C   0  0  0  0  0  0  0  0  0  0  0  0
   57.6650   26.7220   44.7250 C   0  0  0  0  0  0  0  0  0  0  0  0
   58.1500   27.6360   43.2580 S   0  0  0  0  0  0  0  0  0  0  0  0
   57.8590   29.2420   44.0250 C   0  0  0  0  0  0  0  0  0  0  0  0
   58.8620   29.8640   44.7880 C   0  0  0  0  0  0  0  0  0  0  0  0
   60.1150   29.2470   44.8620 O   0  0  0  0  0  0  0  0  0  0  0  0
   58.5710   31.0820   45.4530 C   0  0  0  0  0  0  0  0  0  0  0  0
   59.4620   31.6880   46.3620 C   0  0  0  0  0  0  0  0  0  0  0  0
   59.1170   32.8830   47.0100 C   0  0  0  0  0  0  0  0  0  0  0  0
   59.9810   33.4540   48.0000 N   0  0  0  0  0  0  0  0  0  0  0  0
   59.6950   33.3930   49.4020 C   0  0  0  0  0  0  0  0  0  0  0  0
   59.6860   34.4500   50.0900 O   0  0  0  0  0  0  0  0  0  0  0  0
   59.4820   32.0620   50.0670 C   0  0  0  0  0  0  0  0  0  0  0  0
   60.8110   31.2840   50.2480 C   0  0  0  0  0  0  0  0  0  0  0  0
   60.7190   29.8260   49.8270 C   0  0  0  0  0  0  0  0  0  0  0  0
   61.1950   28.7760   50.6430 C   0  0  0  0  0  0  0  0  0  0  0  0
   61.0540   27.4450   50.2370 C   0  0  0  0  0  0  0  0  0  0  0  0
   60.4240   27.1420   49.0270 C   0  0  0  0  0  0  0  0  0  0  0  0
   59.9310   28.1710   48.2220 C   0  0  0  0  0  0  0  0  0  0  0  0
   60.0710   29.5030   48.6200 C   0  0  0  0  0  0  0  0  0  0  0  0
   61.9690   31.9610   49.5340 C   0  0  0  0  0  0  0  0  0  0  0  0
   62.2820   31.6080   48.2080 C   0  0  0  0  0  0  0  0  0  0  0  0
   63.3660   32.2010   47.5530 C   0  0  0  0  0  0  0  0  0  0  0  0
   64.1400   33.1620   48.2100 C   0  0  0  0  0  0  0  0  0  0  0  0
   63.8360   33.5250   49.5220 C   0  0  0  0  0  0  0  0  0  0  0  0
   62.7580   32.9310   50.1850 C   0  0  0  0  0  0  0  0  0  0  0  0
   57.9060   33.5120   46.7120 C   0  0  0  0  0  0  0  0  0  0  0  0
   56.9990   32.9100   45.8390 C   0  0  0  0  0  0  0  0  0  0  0  0
   57.3110   31.6880   45.2330 C   0  0  0  0  0  0  0  0  0  0  0  0
   56.3850   31.0750   44.4510 N   0  0  0  0  0  0  0  0  0  0  0  0
   56.6190   29.8750   43.8650 C   0  0  0  0  0  0  0  0  0  0  0  0
   55.7130   29.3400   43.1730 O   0  0  0  0  0  0  0  0  0  0  0  0
   57.7900   27.2880   46.0000 C   0  0  0  0  0  0  0  0  0  0  0  0
   57.4650   26.5380   47.1370 C   0  0  0  0  0  0  0  0  0  0  0  0
   53.2244   24.8443   46.0130 H   0  0  0  0  0  0  0  0  0  0  0  0
   54.1781   24.0665   44.7045 H   0  0  0  0  0  0  0  0  0  0  0  0
   52.3861   23.9433   44.7045 H   0  0  0  0  0  0  0  0  0  0  0  0
   52.8322   22.8379   47.1120 H   0  0  0  0  0  0  0  0  0  0  0  0
   52.9211   21.8710   45.5944 H   0  0  0  0  0  0  0  0  0  0  0  0
   55.4779   20.3853   46.7088 H   0  0  0  0  0  0  0  0  0  0  0  0
   54.2853   20.6185   45.3791 H   0  0  0  0  0  0  0  0  0  0  0  0
   57.2486   21.3309   45.4320 H   0  0  0  0  0  0  0  0  0  0  0  0
   56.3570   20.3044   44.2581 H   0  0  0  0  0  0  0  0  0  0  0  0
   56.1170   22.0846   44.2581 H   0  0  0  0  0  0  0  0  0  0  0  0
   54.3230   23.0848   48.3858 H   0  0  0  0  0  0  0  0  0  0  0  0
   55.0008   21.4132   48.3189 H   0  0  0  0  0  0  0  0  0  0  0  0
   56.4673   23.6457   45.6061 H   0  0  0  0  0  0  0  0  0  0  0  0
   57.0735   24.9742   43.5891 H   0  0  0  0  0  0  0  0  0  0  0  0
   60.5360   28.7170   44.1140 H   0  0  0  0  0  0  0  0  0  0  0  0
   60.4364   31.2195   46.5648 H   0  0  0  0  0  0  0  0  0  0  0  0
   59.0298   32.2274   51.0560 H   0  0  0  0  0  0  0  0  0  0  0  0
   58.8220   31.4621   49.4231 H   0  0  0  0  0  0  0  0  0  0  0  0
   61.0060   31.2987   51.3305 H   0  0  0  0  0  0  0  0  0  0  0  0
   61.6794   29.0064   51.6034 H   0  0  0  0  0  0  0  0  0  0  0  0
   61.4402   26.6342   50.8721 H   0  0  0  0  0  0  0  0  0  0  0  0
   60.3166   26.0944   48.7091 H   0  0  0  0  0  0  0  0  0  0  0  0
   59.4310   27.9322   47.2718 H   0  0  0  0  0  0  0  0  0  0  0  0
   59.6711   30.3066   47.9842 H   0  0  0  0  0  0  0  0  0  0  0  0
   61.6695   30.8602   47.6830 H   0  0  0  0  0  0  0  0  0  0  0  0
   63.6097   31.9111   46.5203 H   0  0  0  0  0  0  0  0  0  0  0  0
   64.9890   33.6320   47.6921 H   0  0  0  0  0  0  0  0  0  0  0  0
   64.4466   34.2813   50.0369 H   0  0  0  0  0  0  0  0  0  0  0  0
   62.5243   33.2220   51.2198 H   0  0  0  0  0  0  0  0  0  0  0  0
   57.6666   34.4846   47.1667 H   0  0  0  0  0  0  0  0  0  0  0  0
   56.0361   33.3975   45.6266 H   0  0  0  0  0  0  0  0  0  0  0  0
   58.1442   28.3238   46.1084 H   0  0  0  0  0  0  0  0  0  0  0  0
   57.5924   26.9763   48.1378 H   0  0  0  0  0  0  0  0  0  0  0  0
  1  2  1  0
  2  3  1  0
  3  4  1  0
  4  5  1  0
  3  6  1  0
  6  7  1  0
  7  8  2  0
  7  9  1  0
  9 10  1  0
 10 11  2  0
 11 12  1  0
 12 13  2  0
 13 14  1  0
 14 15  1  0
 15 16  2  0
 16 17  1  0
 16 18  1  0
 18 19  2  0
 19 20  1  0
 20 21  1  0
 21 22  1  0
 22 23  2  0
 22 24  1  0
 24 25  1  0
 25 26  1  0
 26 27  2  0
 27 28  1  0
 28 29  2  0
 29 30  1  0
 30 31  2  0
 25 32  1  0
 32 33  2  0
 33 34  1  0
 34 35  2  0
 35 36  1  0
 36 37  2  0
 20 38  2  0
 38 39  1  0
 39 40  2  0
 40 41  1  0
 41 42  1  0
 42 43  2  0
 13 44  1  0
 44 45  2  0
 45 10  1  0
 42 15  1  0
 40 18  1  0
 31 26  1  0
 37 32  1  0
  1 46  1  0
  1 47  1  0
  1 48  1  0
  2 49  1  0
  2 50  1  0
  4 51  1  0
  4 52  1  0
  5 53  1  0
  5 54  1  0
  5 55  1  0
  6 56  1  0
  6 57  1  0
 11 58  1  0
 12 59  1  0
 17 60  1  0
 19 61  1  0
 24 62  1  0
 24 63  1  0
 25 64  1  0
 27 65  1  0
 28 66  1  0
 29 67  1  0
 30 68  1  0
 31 69  1  0
 33 70  1  0
 34 71  1  0
 35 72  1  0
 36 73  1  0
 37 74  1  0
 38 75  1  0
 39 76  1  0
 44 77  1  0
 45 78  1  0
M  CHG  3   9  -1  21  -1  41  -1
M  END
>  <UniqueID>  (9) 
7

>  <SMILES>  (9) 
CCN(CC)CC(=O)[N-]c1ccc(Sc2c(O)c3cc([N-]C(=O)CC(c4ccccc4)c4ccccc4)ccc3[n-]c2=O)cc1

>  <Energy>  (9) 
94.20780275057811

>  <Genealogy>  (9) 
CCN(CC)CC(=O)[N-]c1ccc(Sc2c(O)c3cc([N-]C(=O)CC(c4ccccc4)c4ccccc4)ccc3[n-]c2=O)cc1 (protonated)
CCN(CC)CC(=O)[N-]c1ccc(Sc2c(O)c3cc([N-]C(=O)CC(c4ccccc4)c4ccccc4)ccc3[n-]c2=O)cc1 (3D coordinates assigned)
CCN(CC)CC(=O)[N-]c1ccc(Sc2c(O)c3cc([N-]C(=O)CC(c4ccccc4)c4ccccc4)ccc3[n-]c2=O)cc1 (optimized conformer: 94.20780275057811 kcal/mol)

>  <smiles>  (9) 
CCN(CC)CC(=O)Nc1ccc(Sc2c(O)c3cc(NC(=O)CC(c4ccccc4)c4ccccc4)ccc3[nH]c2=O)cc1

>  <score_type>  (9) 
oracle

>  <origin>  (9) 
adg

>  <m_score__min__energy>  (9) 
-13.18

>  <m_primary>  (9) 
energy

$$$$
9:0
     RDKit          3D

 40 42  0  0  0  0  0  0  0  0999 V2000
   56.6580   29.4940   42.7450 N   0  0  0  0  0  0  0  0  0  0  0  0
   56.5450   29.7050   44.4580 S   0  0  0  0  0  0  0  0  0  0  0  0
   56.8440   31.1350   44.8130 O   0  0  0  0  0  0  0  0  0  0  0  0
   55.1510   29.3770   44.9110 O   0  0  0  0  0  0  0  0  0  0  0  0
   57.7000   28.6410   45.2550 C   0  0  0  0  0  0  0  0  0  0  0  0
   58.3460   27.6310   44.5320 C   0  0  0  0  0  0  0  0  0  0  0  0
   59.2590   26.7870   45.1690 C   0  0  0  0  0  0  0  0  0  0  0  0
   59.5440   26.9580   46.5270 C   0  0  0  0  0  0  0  0  0  0  0  0
   58.9310   27.9950   47.2540 C   0  0  0  0  0  0  0  0  0  0  0  0
   59.1720   28.1870   48.6590 N   0  0  0  0  0  0  0  0  0  0  0  0
   59.5940   29.2740   49.2370 C   0  0  0  0  0  0  0  0  0  0  0  0
   58.7610   30.3280   49.4600 N   0  0  0  0  0  0  0  0  0  0  0  0
   59.1970   31.4520   50.0820 C   0  0  0  0  0  0  0  0  0  0  0  0
   60.5290   31.5400   50.5170 C   0  0  0  0  0  0  0  0  0  0  0  0
   61.0550   32.6720   51.1620 O   0  0  0  0  0  0  0  0  0  0  0  0
   62.1650   33.4400   50.6940 C   0  0  0  0  0  0  0  0  0  0  0  0
   62.2170   33.4540   49.1820 C   0  0  0  0  0  0  0  0  0  0  0  0
   63.4030   33.0440   48.5460 C   0  0  0  0  0  0  0  0  0  0  0  0
   63.5020   33.0520   47.1540 C   0  0  0  0  0  0  0  0  0  0  0  0
   62.4280   33.4800   46.3790 C   0  0  0  0  0  0  0  0  0  0  0  0
   61.2470   33.9140   46.9880 C   0  0  0  0  0  0  0  0  0  0  0  0
   59.9250   34.4600   45.9630 Cl  0  0  0  0  0  0  0  0  0  0  0  0
   61.1340   33.9130   48.3930 C   0  0  0  0  0  0  0  0  0  0  0  0
   59.6420   34.4980   49.1360 Cl  0  0  0  0  0  0  0  0  0  0  0  0
   61.3610   30.4430   50.2930 C   0  0  0  0  0  0  0  0  0  0  0  0
   60.8820   29.3380   49.6660 N   0  0  0  0  0  0  0  0  0  0  0  0
   57.9920   28.8160   46.6150 C   0  0  0  0  0  0  0  0  0  0  0  0
   56.3190   28.5290   42.5340 H   0  0  0  0  0  0  0  0  0  0  0  0
   57.6740   29.5170   42.5010 H   0  0  0  0  0  0  0  0  0  0  0  0
   58.1343   27.5018   43.4603 H   0  0  0  0  0  0  0  0  0  0  0  0
   59.7548   25.9861   44.6008 H   0  0  0  0  0  0  0  0  0  0  0  0
   60.2498   26.2796   47.0287 H   0  0  0  0  0  0  0  0  0  0  0  0
   58.5077   32.2935   50.2454 H   0  0  0  0  0  0  0  0  0  0  0  0
   62.0675   34.4727   51.0600 H   0  0  0  0  0  0  0  0  0  0  0  0
   63.0913   32.9826   51.0718 H   0  0  0  0  0  0  0  0  0  0  0  0
   64.2601   32.7141   49.1514 H   0  0  0  0  0  0  0  0  0  0  0  0
   64.4311   32.7192   46.6681 H   0  0  0  0  0  0  0  0  0  0  0  0
   62.5090   33.4767   45.2820 H   0  0  0  0  0  0  0  0  0  0  0  0
   62.4091   30.4733   50.6256 H   0  0  0  0  0  0  0  0  0  0  0  0
   57.4796   29.6046   47.1855 H   0  0  0  0  0  0  0  0  0  0  0  0
  1  2  1  0
  2  3  2  0
  2  4  2  0
  2  5  1  0
  5  6  2  0
  6  7  1  0
  7  8  2  0
  8  9  1  0
  9 10  1  0
 10 11  2  3
 11 12  1  0
 12 13  2  0
 13 14  1  0
 14 15  1  0
 15 16  1  0
 16 17  1  0
 17 18  2  0
 18 19  1  0
 19 20  2  0
 20 21  1  0
 21 22  1  0
 21 23  2  0
 23 24  1  0
 14 25  2  0
 25 26  1  0
  9 27  2  0
 27  5  1  0
 26 11  1  0
 23 17  1  0
  1 28  1  0
  1 29  1  0
  6 30  1  0
  7 31  1  0
  8 32  1  0
 13 33  1  0
 16 34  1  0
 16 35  1  0
 18 36  1  0
 19 37  1  0
 20 38  1  0
 25 39  1  0
 27 40  1  0
M  CHG  1  26  -1
M  END
>  <UniqueID>  (10) 
8

>  <SMILES>  (10) 
NS(=O)(=O)c1cccc(N=c2ncc(OCc3cccc(Cl)c3Cl)c[n-]2)c1

>  <Energy>  (10) 
51.671848943683216

>  <Genealogy>  (10) 
NS(=O)(=O)c1cccc(N=c2ncc(OCc3cccc(Cl)c3Cl)c[n-]2)c1 (protonated)
NS(=O)(=O)c1cccc(N=c2ncc(OCc3cccc(Cl)c3Cl)c[n-]2)c1 (3D coordinates assigned)
NS(=O)(=O)c1cccc(N=c2ncc(OCc3cccc(Cl)c3Cl)c[n-]2)c1 (optimized conformer: 51.671848943683216 kcal/mol)

>  <smiles>  (10) 
NS(=O)(=O)c1cccc(N=c2ncc(OCc3cccc(Cl)c3Cl)c[nH]2)c1

>  <score_type>  (10) 
oracle

>  <origin>  (10) 
adg

>  <m_score__min__energy>  (10) 
-10.6

>  <m_primary>  (10) 
energy

$$$$
10:0
     RDKit          3D

 44 47  0  0  0  0  0  0  0  0999 V2000
   59.7642   28.9396   49.9034 H   0  0  0  0  0  0  0  0  0  0  0  0
   59.6670   28.7570   48.8230 C   0  0  0  0  0  0  0  0  0  0  0  0
   58.5180   31.8670   46.0960 N   0  0  0  0  0  0  0  0  0  0  0  0
   58.0760   32.8860   45.3110 C   0  0  0  0  0  0  0  0  0  0  0  0
   58.0870   34.0960   45.7960 N   0  0  0  0  0  0  0  0  0  0  0  0
   59.4100   25.0460   46.1090 C   0  0  0  0  0  0  0  0  0  0  0  0
   59.8730   23.9750   45.6310 O   0  0  0  0  0  0  0  0  0  0  0  0
   57.9570   25.1910   46.2870 C   0  0  0  0  0  0  0  0  0  0  0  0
   57.1160   24.3150   46.9470 C   0  0  0  0  0  0  0  0  0  0  0  0
   57.4389   23.3792   47.4267 H   0  0  0  0  0  0  0  0  0  0  0  0
   55.8460   24.7650   46.9220 N   0  0  0  0  0  0  0  0  0  0  0  0
   55.8970   25.9260   46.2410 C   0  0  0  0  0  0  0  0  0  0  0  0
   54.7820   26.7150   45.9970 O   0  0  0  0  0  0  0  0  0  0  0  0
   57.1760   26.2300   45.8310 C   0  0  0  0  0  0  0  0  0  0  0  0
   57.5035   27.1125   45.2619 H   0  0  0  0  0  0  0  0  0  0  0  0
   57.6260   32.6000   44.0070 C   0  0  0  0  0  0  0  0  0  0  0  0
   57.2580   33.4072   43.3566 H   0  0  0  0  0  0  0  0  0  0  0  0
   59.0470   29.5220   46.6080 C   0  0  0  0  0  0  0  0  0  0  0  0
   58.5460   30.5690   45.6810 C   0  0  0  0  0  0  0  0  0  0  0  0
   60.0250   27.5540   48.3040 N   0  0  0  0  0  0  0  0  0  0  0  0
   59.9240   27.2830   46.9730 C   0  0  0  0  0  0  0  0  0  0  0  0
   60.2770   26.1280   46.4870 N   0  0  0  0  0  0  0  0  0  0  0  0
   59.2490   34.9750   45.8970 C   0  0  0  0  0  0  0  0  0  0  0  0
   59.7202   35.0767   44.9082 H   0  0  0  0  0  0  0  0  0  0  0  0
   58.9320   35.9664   46.2527 H   0  0  0  0  0  0  0  0  0  0  0  0
   60.2340   34.3840   46.8640 C   0  0  0  0  0  0  0  0  0  0  0  0
   61.4400   33.8340   46.3990 C   0  0  0  0  0  0  0  0  0  0  0  0
   61.6768   33.8606   45.3251 H   0  0  0  0  0  0  0  0  0  0  0  0
   62.3400   33.2530   47.2970 C   0  0  0  0  0  0  0  0  0  0  0  0
   63.2878   32.8323   46.9300 H   0  0  0  0  0  0  0  0  0  0  0  0
   62.0370   33.2060   48.6610 C   0  0  0  0  0  0  0  0  0  0  0  0
   62.7473   32.7501   49.3664 H   0  0  0  0  0  0  0  0  0  0  0  0
   60.8320   33.7380   49.1290 C   0  0  0  0  0  0  0  0  0  0  0  0
   60.5350   33.6820   50.4510 F   0  0  0  0  0  0  0  0  0  0  0  0
   59.9290   34.3210   48.2340 C   0  0  0  0  0  0  0  0  0  0  0  0
   58.9777   34.7312   48.6037 H   0  0  0  0  0  0  0  0  0  0  0  0
   59.4360   28.2680   46.1050 C   0  0  0  0  0  0  0  0  0  0  0  0
   59.3569   28.0601   45.0277 H   0  0  0  0  0  0  0  0  0  0  0  0
   57.6520   31.2820   43.5490 C   0  0  0  0  0  0  0  0  0  0  0  0
   57.3079   31.0478   42.5308 H   0  0  0  0  0  0  0  0  0  0  0  0
   58.1130   30.2620   44.3790 C   0  0  0  0  0  0  0  0  0  0  0  0
   58.1380   29.2233   44.0179 H   0  0  0  0  0  0  0  0  0  0  0  0
   59.1760   29.7620   47.9880 C   0  0  0  0  0  0  0  0  0  0  0  0
   58.8910   30.7381   48.4076 H   0  0  0  0  0  0  0  0  0  0  0  0
  1  2  1  0
  2  3  1  0
  3  4  1  0
  4  5  2  0
  5  6  1  0
  6  7  2  0
  6  8  1  0
  8  9  2  0
  9 10  1  0
  9 11  1  0
 11 12  1  0
 12 13  1  0
 12 14  2  0
 14 15  1  0
  4 16  1  0
 16 17  1  0
 16 18  2  0
 18 19  1  0
 19 20  1  0
 20 21  1  0
 21 22  2  0
 22 23  1  0
 23 24  1  0
 23 25  1  0
 23 26  1  0
 26 27  2  0
 27 28  1  0
 27 29  1  0
 29 30  1  0
 29 31  2  0
 31 32  1  0
 31 33  1  0
 33 34  1  0
 33 35  2  0
 35 36  1  0
 21 37  1  0
 37 38  1  0
 37 39  2  0
 39 40  1  0
 39 41  1  0
 41 42  1  0
 18 43  1  0
 43 44  1  0
 43  2  2  0
 14  8  1  0
 41 19  2  0
 35 26  1  0
M  CHG  4   3  -1  11  -1  13  -1  20  -1
M  END
>  <UniqueID>  (11) 
9

>  <SMILES>  (11) 
O=C(/N=c1/cc(-c2ccc/c(=N\Cc3cccc(F)c3)[n-]2)cc[n-]1)c1c[n-]c([O-])c1

>  <Energy>  (11) 
82.24000192548365

>  <Genealogy>  (11) 
O=C(N=c1cc(-c2cccc(=NCc3cccc(F)c3)[n-]2)cc[n-]1)c1c[n-]c([O-])c1 (protonated)
O=C(/N=c1/cc(-c2ccc/c(=N\Cc3cccc(F)c3)[n-]2)cc[n-]1)c1c[n-]c([O-])c1 (cis-trans isomerization)
O=C(/N=c1/cc(-c2ccc/c(=N\Cc3cccc(F)c3)[n-]2)cc[n-]1)c1c[n-]c([O-])c1 (3D coordinates assigned)
O=C(/N=c1/cc(-c2ccc/c(=N\Cc3cccc(F)c3)[n-]2)cc[n-]1)c1c[n-]c([O-])c1 (optimized conformer: 82.24000192548365 kcal/mol)

>  <smiles>  (11) 
O=C(N=c1cc(-c2cccc(=NCc3cccc(F)c3)[nH]2)cc[nH]1)c1c[nH]c(O)c1

>  <score_type>  (11) 
oracle

>  <origin>  (11) 
adg

>  <m_score__min__energy>  (11) 
-18.109999999999999

>  <m_primary>  (11) 
energy

$$$$
11:0
     RDKit          3D

 37 38  0  0  0  0  0  0  0  0999 V2000
   54.8320   26.3420   46.0160 N   0  0  0  0  0  0  0  0  0  0  0  0
   56.2520   25.3640   46.1440 S   0  0  0  0  0  0  0  0  0  0  0  0
   56.5270   24.7010   44.8230 O   0  0  0  0  0  0  0  0  0  0  0  0
   56.0200   24.3030   47.1830 O   0  0  0  0  0  0  0  0  0  0  0  0
   57.6280   26.3770   46.5920 C   0  0  0  0  0  0  0  0  0  0  0  0
   58.5490   25.9210   47.5480 C   0  0  0  0  0  0  0  0  0  0  0  0
   59.6410   26.7120   47.9120 C   0  0  0  0  0  0  0  0  0  0  0  0
   59.8270   27.9610   47.3180 C   0  0  0  0  0  0  0  0  0  0  0  0
   58.9190   28.4260   46.3650 C   0  0  0  0  0  0  0  0  0  0  0  0
   57.8020   27.6490   46.0080 C   0  0  0  0  0  0  0  0  0  0  0  0
   56.8810   28.1020   45.0040 N   0  0  0  0  0  0  0  0  0  0  0  0
   56.3850   29.4380   44.8610 C   0  0  0  0  0  0  0  0  0  0  0  0
   55.1400   29.6290   44.8760 O   0  0  0  0  0  0  0  0  0  0  0  0
   57.2840   30.5540   44.7690 N   0  0  0  0  0  0  0  0  0  0  0  0
   56.8230   31.9140   44.4930 C   0  0  0  0  0  0  0  0  0  0  0  0
   57.8740   32.9290   44.8620 C   0  0  0  0  0  0  0  0  0  0  0  0
   57.6000   34.1560   44.7900 O   0  0  0  0  0  0  0  0  0  0  0  0
   59.1160   32.5380   45.4640 N   0  0  0  0  0  0  0  0  0  0  0  0
   59.5850   32.9120   46.7640 C   0  0  0  0  0  0  0  0  0  0  0  0
   60.8790   33.4310   46.8980 C   0  0  0  0  0  0  0  0  0  0  0  0
   61.3770   33.7680   48.1610 C   0  0  0  0  0  0  0  0  0  0  0  0
   60.5920   33.5670   49.3000 C   0  0  0  0  0  0  0  0  0  0  0  0
   59.3110   33.0180   49.1770 C   0  0  0  0  0  0  0  0  0  0  0  0
   58.5580   32.8020   50.2840 F   0  0  0  0  0  0  0  0  0  0  0  0
   58.8120   32.6810   47.9150 C   0  0  0  0  0  0  0  0  0  0  0  0
   55.1470   27.3380   46.0170 H   0  0  0  0  0  0  0  0  0  0  0  0
   58.4098   24.9342   48.0136 H   0  0  0  0  0  0  0  0  0  0  0  0
   60.3546   26.3504   48.6670 H   0  0  0  0  0  0  0  0  0  0  0  0
   60.6908   28.5804   47.6013 H   0  0  0  0  0  0  0  0  0  0  0  0
   59.0779   29.4056   45.8905 H   0  0  0  0  0  0  0  0  0  0  0  0
   58.3060   30.4030   44.9250 H   0  0  0  0  0  0  0  0  0  0  0  0
   56.5961   32.0056   43.4206 H   0  0  0  0  0  0  0  0  0  0  0  0
   55.9239   32.1072   45.0966 H   0  0  0  0  0  0  0  0  0  0  0  0
   61.5065   33.5743   46.0060 H   0  0  0  0  0  0  0  0  0  0  0  0
   62.3875   34.1917   48.2580 H   0  0  0  0  0  0  0  0  0  0  0  0
   60.9810   33.8402   50.2920 H   0  0  0  0  0  0  0  0  0  0  0  0
   57.8113   32.2337   47.8227 H   0  0  0  0  0  0  0  0  0  0  0  0
  1  2  1  0
  2  3  2  0
  2  4  2  0
  2  5  1  0
  5  6  2  0
  6  7  1  0
  7  8  2  0
  8  9  1  0
  9 10  2  0
 10 11  1  0
 11 12  1  0
 12 13  2  0
 12 14  1  0
 14 15  1  0
 15 16  1  0
 16 17  2  0
 16 18  1  0
 18 19  1  0
 19 20  2  0
 20 21  1  0
 21 22  2  0
 22 23  1  0
 23 24  1  0
 23 25  2  0
 10  5  1  0
 25 19  1  0
  1 26  1  0
  6 27  1  0
  7 28  1  0
  8 29  1  0
  9 30  1  0
 14 31  1  0
 15 32  1  0
 15 33  1  0
 20 34  1  0
 21 35  1  0
 22 36  1  0
 25 37  1  0
M  CHG  3   1  -1  11  -1  18  -1
M  END
>  <UniqueID>  (12) 
10

>  <SMILES>  (12) 
[NH-]S(=O)(=O)c1ccccc1[N-]C(=O)NCC(=O)[N-]c1cccc(F)c1

>  <Energy>  (12) 
45.895438579600246

>  <Genealogy>  (12) 
[NH-]S(=O)(=O)c1ccccc1[N-]C(=O)NCC(=O)[N-]c1cccc(F)c1 (protonated)
[NH-]S(=O)(=O)c1ccccc1[N-]C(=O)NCC(=O)[N-]c1cccc(F)c1 (3D coordinates assigned)
[NH-]S(=O)(=O)c1ccccc1[N-]C(=O)NCC(=O)[N-]c1cccc(F)c1 (optimized conformer: 45.895438579600246 kcal/mol)

>  <smiles>  (12) 
NS(=O)(=O)c1ccccc1NC(=O)NCC(=O)Nc1cccc(F)c1

>  <score_type>  (12) 
oracle

>  <origin>  (12) 
adg

>  <m_score__min__energy>  (12) 
-14.550000000000001

>  <m_primary>  (12) 
energy

$$$$
12:0
     RDKit          3D

 37 38  0  0  0  0  0  0  0  0999 V2000
   61.6480   33.5920   48.2520 O   0  0  0  0  0  0  0  0  0  0  0  0
   62.2940   32.8850   47.4320 C   0  0  0  0  0  0  0  0  0  0  0  0
   63.0130   33.4940   46.4120 O   0  0  0  0  0  0  0  0  0  0  0  0
   62.3230   31.3990   47.5840 C   0  0  0  0  0  0  0  0  0  0  0  0
   61.0910   30.7990   46.9910 C   0  0  0  0  0  0  0  0  0  0  0  0
   60.2750   31.5320   46.3680 O   0  0  0  0  0  0  0  0  0  0  0  0
   60.8220   29.4040   47.1710 N   0  0  0  0  0  0  0  0  0  0  0  0
   60.5510   28.4860   46.0710 C   0  0  0  0  0  0  0  0  0  0  0  0
   59.1110   28.0810   46.0830 C   0  0  0  0  0  0  0  0  0  0  0  0
   58.1770   28.8790   45.5050 N   0  0  0  0  0  0  0  0  0  0  0  0
   56.8660   28.5200   45.4430 C   0  0  0  0  0  0  0  0  0  0  0  0
   55.9170   29.4300   44.7700 C   0  0  0  0  0  0  0  0  0  0  0  0
   54.9290   28.9780   44.1300 O   0  0  0  0  0  0  0  0  0  0  0  0
   56.1380   30.8450   44.8350 N   0  0  0  0  0  0  0  0  0  0  0  0
   57.1300   31.5450   44.0260 C   0  0  0  0  0  0  0  0  0  0  0  0
   57.7620   32.6490   44.8290 C   0  0  0  0  0  0  0  0  0  0  0  0
   57.5030   32.7540   46.2050 C   0  0  0  0  0  0  0  0  0  0  0  0
   58.1100   33.7610   46.9610 C   0  0  0  0  0  0  0  0  0  0  0  0
   58.9850   34.6650   46.3530 C   0  0  0  0  0  0  0  0  0  0  0  0
   59.5750   35.6390   47.0880 F   0  0  0  0  0  0  0  0  0  0  0  0
   59.2550   34.5610   44.9850 C   0  0  0  0  0  0  0  0  0  0  0  0
   58.6500   33.5560   44.2240 C   0  0  0  0  0  0  0  0  0  0  0  0
   56.4720   27.2850   45.9930 C   0  0  0  0  0  0  0  0  0  0  0  0
   55.1460   26.8640   45.9640 O   0  0  0  0  0  0  0  0  0  0  0  0
   57.4500   26.4720   46.5760 C   0  0  0  0  0  0  0  0  0  0  0  0
   57.1390   25.3580   47.0730 O   0  0  0  0  0  0  0  0  0  0  0  0
   58.7450   26.8810   46.6020 N   0  0  0  0  0  0  0  0  0  0  0  0
   63.2078   30.9976   47.0682 H   0  0  0  0  0  0  0  0  0  0  0  0
   62.3674   31.1471   48.6538 H   0  0  0  0  0  0  0  0  0  0  0  0
   60.7813   28.9830   45.1171 H   0  0  0  0  0  0  0  0  0  0  0  0
   61.1783   27.5898   46.1868 H   0  0  0  0  0  0  0  0  0  0  0  0
   57.9075   30.8349   43.7079 H   0  0  0  0  0  0  0  0  0  0  0  0
   56.6362   31.9775   43.1433 H   0  0  0  0  0  0  0  0  0  0  0  0
   56.8198   32.0411   46.6899 H   0  0  0  0  0  0  0  0  0  0  0  0
   57.8983   33.8420   48.0374 H   0  0  0  0  0  0  0  0  0  0  0  0
   59.9450   35.2715   44.5063 H   0  0  0  0  0  0  0  0  0  0  0  0
   58.8693   33.4747   43.1492 H   0  0  0  0  0  0  0  0  0  0  0  0
  1  2  2  0
  2  3  1  0
  2  4  1  0
  4  5  1  0
  5  6  2  0
  5  7  1  0
  7  8  1  0
  8  9  1  0
  9 10  2  0
 10 11  1  0
 11 12  1  0
 12 13  2  0
 12 14  1  0
 14 15  1  0
 15 16  1  0
 16 17  2  0
 17 18  1  0
 18 19  2  0
 19 20  1  0
 19 21  1  0
 21 22  2  0
 11 23  2  0
 23 24  1  0
 23 25  1  0
 25 26  2  0
 25 27  1  0
 27  9  1  0
 22 16  1  0
  4 28  1  0
  4 29  1  0
  8 30  1  0
  8 31  1  0
 15 32  1  0
 15 33  1  0
 17 34  1  0
 18 35  1  0
 21 36  1  0
 22 37  1  0
M  CHG  5   3  -1   7  -1  14  -1  24  -1  27  -1
M  END
>  <UniqueID>  (13) 
11

>  <SMILES>  (13) 
O=C([O-])CC(=O)[N-]Cc1nc(C(=O)[N-]Cc2ccc(F)cc2)c([O-])c(=O)[n-]1

>  <Energy>  (13) 
31.972223065466302

>  <Genealogy>  (13) 
O=C([O-])CC(=O)[N-]Cc1nc(C(=O)[N-]Cc2ccc(F)cc2)c([O-])c(=O)[n-]1 (protonated)
O=C([O-])CC(=O)[N-]Cc1nc(C(=O)[N-]Cc2ccc(F)cc2)c([O-])c(=O)[n-]1 (3D coordinates assigned)
O=C([O-])CC(=O)[N-]Cc1nc(C(=O)[N-]Cc2ccc(F)cc2)c([O-])c(=O)[n-]1 (optimized conformer: 31.972223065466302 kcal/mol)

>  <smiles>  (13) 
O=C(O)CC(=O)NCc1nc(C(=O)NCc2ccc(F)cc2)c(O)c(=O)[nH]1

>  <score_type>  (13) 
oracle

>  <origin>  (13) 
adg

>  <m_score__min__energy>  (13) 
-15.94

>  <m_primary>  (13) 
energy

$$$$
13:0
     RDKit          3D

 29 30  0  0  0  0  0  0  0  0999 V2000
   55.5430   27.2140   45.8000 O   0  0  0  0  0  0  0  0  0  0  0  0
   56.0720   25.9230   45.7540 C   0  0  0  0  0  0  0  0  0  0  0  0
   55.1990   24.8390   45.9140 C   0  0  0  0  0  0  0  0  0  0  0  0
   55.6850   23.5310   45.9030 C   0  0  0  0  0  0  0  0  0  0  0  0
   57.0500   23.2930   45.7230 C   0  0  0  0  0  0  0  0  0  0  0  0
   57.6570   21.6470   45.6950 Cl  0  0  0  0  0  0  0  0  0  0  0  0
   57.9290   24.3660   45.5520 C   0  0  0  0  0  0  0  0  0  0  0  0
   57.4530   25.6890   45.5720 C   0  0  0  0  0  0  0  0  0  0  0  0
   58.3580   26.7820   45.3400 N   0  0  0  0  0  0  0  0  0  0  0  0
   58.3590   27.5710   44.1380 C   0  0  0  0  0  0  0  0  0  0  0  0
   58.0160   26.8720   42.6940 S   0  0  0  0  0  0  0  0  0  0  0  0
   58.8940   28.9030   44.1520 N   0  0  0  0  0  0  0  0  0  0  0  0
   58.9180   29.7340   45.3260 C   0  0  0  0  0  0  0  0  0  0  0  0
   59.5750   29.3020   46.4940 C   0  0  0  0  0  0  0  0  0  0  0  0
   59.5750   30.0990   47.6420 C   0  0  0  0  0  0  0  0  0  0  0  0
   58.9130   31.3270   47.6410 C   0  0  0  0  0  0  0  0  0  0  0  0
   58.2440   31.7610   46.4950 C   0  0  0  0  0  0  0  0  0  0  0  0
   58.2380   30.9690   45.3390 C   0  0  0  0  0  0  0  0  0  0  0  0
   57.4000   31.5680   43.9120 Cl  0  0  0  0  0  0  0  0  0  0  0  0
   54.7410   27.4590   46.3640 H   0  0  0  0  0  0  0  0  0  0  0  0
   54.1225   25.0203   46.0493 H   0  0  0  0  0  0  0  0  0  0  0  0
   54.9928   22.6865   46.0362 H   0  0  0  0  0  0  0  0  0  0  0  0
   59.0015   24.1741   45.4006 H   0  0  0  0  0  0  0  0  0  0  0  0
   59.0180   27.0500   46.1040 H   0  0  0  0  0  0  0  0  0  0  0  0
   59.2680   29.2930   43.2580 H   0  0  0  0  0  0  0  0  0  0  0  0
   60.0916   28.3309   46.5030 H   0  0  0  0  0  0  0  0  0  0  0  0
   60.0977   29.7576   48.5476 H   0  0  0  0  0  0  0  0  0  0  0  0
   58.9181   31.9543   48.5446 H   0  0  0  0  0  0  0  0  0  0  0  0
   57.7198   32.7280   46.4995 H   0  0  0  0  0  0  0  0  0  0  0  0
  1  2  1  0
  2  3  2  0
  3  4  1  0
  4  5  2  0
  5  6  1  0
  5  7  1  0
  7  8  2  0
  8  9  1  0
  9 10  1  0
 10 11  2  0
 10 12  1  0
 12 13  1  0
 13 14  2  0
 14 15  1  0
 15 16  2  0
 16 17  1  0
 17 18  2  0
 18 19  1  0
  8  2  1  0
 18 13  1  0
  1 20  1  0
  3 21  1  0
  4 22  1  0
  7 23  1  0
  9 24  1  0
 12 25  1  0
 14 26  1  0
 15 27  1  0
 16 28  1  0
 17 29  1  0
M  END
>  <UniqueID>  (14) 
12

>  <SMILES>  (14) 
Oc1ccc(Cl)cc1NC(=S)Nc1ccccc1Cl

>  <Energy>  (14) 
39.66360965902211

>  <Genealogy>  (14) 
Oc1ccc(Cl)cc1NC(=S)Nc1ccccc1Cl (3D coordinates assigned)
Oc1ccc(Cl)cc1NC(=S)Nc1ccccc1Cl (optimized conformer: 39.66360965902211 kcal/mol)

>  <smiles>  (14) 
Oc1ccc(Cl)cc1NC(=S)Nc1ccccc1Cl

>  <score_type>  (14) 
oracle

>  <origin>  (14) 
adg

>  <m_score__min__energy>  (14) 
-7.9800000000000004

>  <m_primary>  (14) 
energy

$$$$
14:0
     RDKit          3D

 42 43  0  0  0  0  0  0  0  0999 V2000
   60.7260   26.7280   49.6840 C   0  0  0  0  0  0  0  0  0  0  0  0
   60.5160   28.1370   49.2150 C   0  0  0  0  0  0  0  0  0  0  0  0
   60.5140   29.1970   50.1350 C   0  0  0  0  0  0  0  0  0  0  0  0
   60.3570   30.5140   49.6940 C   0  0  0  0  0  0  0  0  0  0  0  0
   60.2090   30.7860   48.3260 C   0  0  0  0  0  0  0  0  0  0  0  0
   60.0340   32.4440   47.7550 S   0  0  0  0  0  0  0  0  0  0  0  0
   60.5410   32.5630   46.3440 O   0  0  0  0  0  0  0  0  0  0  0  0
   60.8580   33.3460   48.6290 O   0  0  0  0  0  0  0  0  0  0  0  0
   58.3700   32.9510   47.8290 N   0  0  0  0  0  0  0  0  0  0  0  0
   57.9490   33.5860   46.5790 C   0  0  0  0  0  0  0  0  0  0  0  0
   57.4550   32.5660   45.5990 C   0  0  0  0  0  0  0  0  0  0  0  0
   56.4580   32.8300   44.8750 O   0  0  0  0  0  0  0  0  0  0  0  0
   58.1130   31.2980   45.4890 N   0  0  0  0  0  0  0  0  0  0  0  0
   57.6500   30.2770   44.5500 C   0  0  0  0  0  0  0  0  0  0  0  0
   56.6480   29.3650   45.2010 C   0  0  0  0  0  0  0  0  0  0  0  0
   55.4480   29.4140   44.8240 O   0  0  0  0  0  0  0  0  0  0  0  0
   57.0240   28.3920   46.1860 N   0  0  0  0  0  0  0  0  0  0  0  0
   57.1940   26.9830   45.9790 C   0  0  0  0  0  0  0  0  0  0  0  0
   58.4720   26.4020   45.8910 C   0  0  0  0  0  0  0  0  0  0  0  0
   58.6070   25.0210   45.7180 C   0  0  0  0  0  0  0  0  0  0  0  0
   57.4730   24.2090   45.6500 C   0  0  0  0  0  0  0  0  0  0  0  0
   56.2010   24.7750   45.7660 C   0  0  0  0  0  0  0  0  0  0  0  0
   56.0600   26.1560   45.9380 C   0  0  0  0  0  0  0  0  0  0  0  0
   54.7880   26.7060   46.0610 O   0  0  0  0  0  0  0  0  0  0  0  0
   60.2360   29.7320   47.4040 C   0  0  0  0  0  0  0  0  0  0  0  0
   60.3930   28.4150   47.8450 C   0  0  0  0  0  0  0  0  0  0  0  0
   60.7295   26.7043   50.7837 H   0  0  0  0  0  0  0  0  0  0  0  0
   59.9129   26.0907   49.3061 H   0  0  0  0  0  0  0  0  0  0  0  0
   61.6896   26.3555   49.3061 H   0  0  0  0  0  0  0  0  0  0  0  0
   60.6366   28.9902   51.2084 H   0  0  0  0  0  0  0  0  0  0  0  0
   60.3495   31.3391   50.4215 H   0  0  0  0  0  0  0  0  0  0  0  0
   57.1405   34.3006   46.7929 H   0  0  0  0  0  0  0  0  0  0  0  0
   58.8145   34.1038   46.1399 H   0  0  0  0  0  0  0  0  0  0  0  0
   58.9440   31.1120   46.0960 H   0  0  0  0  0  0  0  0  0  0  0  0
   57.1807   30.7691   43.6853 H   0  0  0  0  0  0  0  0  0  0  0  0
   58.5142   29.6774   44.2282 H   0  0  0  0  0  0  0  0  0  0  0  0
   59.3683   27.0362   45.9585 H   0  0  0  0  0  0  0  0  0  0  0  0
   59.6084   24.5734   45.6353 H   0  0  0  0  0  0  0  0  0  0  0  0
   57.5812   23.1240   45.5051 H   0  0  0  0  0  0  0  0  0  0  0  0
   55.3086   24.1334   45.7220 H   0  0  0  0  0  0  0  0  0  0  0  0
   60.1333   29.9414   46.3290 H   0  0  0  0  0  0  0  0  0  0  0  0
   60.4203   27.5927   47.1149 H   0  0  0  0  0  0  0  0  0  0  0  0
  1  2  1  0
  2  3  2  0
  3  4  1  0
  4  5  2  0
  5  6  1  0
  6  7  2  0
  6  8  2  0
  6  9  1  0
  9 10  1  0
 10 11  1  0
 11 12  2  0
 11 13  1  0
 13 14  1  0
 14 15  1  0
 15 16  2  0
 15 17  1  0
 17 18  1  0
 18 19  2  0
 19 20  1  0
 20 21  2  0
 21 22  1  0
 22 23  2  0
 23 24  1  0
  5 25  1  0
 25 26  2  0
 26  2  1  0
 23 18  1  0
  1 27  1  0
  1 28  1  0
  1 29  1  0
  3 30  1  0
  4 31  1  0
 10 32  1  0
 10 33  1  0
 13 34  1  0
 14 35  1  0
 14 36  1  0
 19 37  1  0
 20 38  1  0
 21 39  1  0
 22 40  1  0
 25 41  1  0
 26 42  1  0
M  CHG  3   9  -1  17  -1  24  -1
M  END
>  <UniqueID>  (15) 
13

>  <SMILES>  (15) 
Cc1ccc(S(=O)(=O)[N-]CC(=O)NCC(=O)[N-]c2ccccc2[O-])cc1

>  <Energy>  (15) 
41.7795391362452

>  <Genealogy>  (15) 
Cc1ccc(S(=O)(=O)[N-]CC(=O)NCC(=O)[N-]c2ccccc2[O-])cc1 (protonated)
Cc1ccc(S(=O)(=O)[N-]CC(=O)NCC(=O)[N-]c2ccccc2[O-])cc1 (3D coordinates assigned)
Cc1ccc(S(=O)(=O)[N-]CC(=O)NCC(=O)[N-]c2ccccc2[O-])cc1 (optimized conformer: 41.7795391362452 kcal/mol)

>  <smiles>  (15) 
Cc1ccc(S(=O)(=O)NCC(=O)NCC(=O)Nc2ccccc2O)cc1

>  <score_type>  (15) 
oracle

>  <origin>  (15) 
adg

>  <m_score__min__energy>  (15) 
-15.51

>  <m_primary>  (15) 
energy

$$$$
15:0
     RDKit          3D

 37 39  0  0  0  0  0  0  0  0999 V2000
   60.8222   30.8418   48.3591 H   0  0  0  0  0  0  0  0  0  0  0  0
   60.2090   30.2640   47.6520 C   0  0  0  0  0  0  0  0  0  0  0  0
   60.4330   30.3780   46.2780 C   0  0  0  0  0  0  0  0  0  0  0  0
   61.2245   31.0441   45.9042 H   0  0  0  0  0  0  0  0  0  0  0  0
   59.6530   29.6470   45.3770 C   0  0  0  0  0  0  0  0  0  0  0  0
   59.8369   29.7359   44.2961 H   0  0  0  0  0  0  0  0  0  0  0  0
   58.6350   28.7990   45.8460 C   0  0  0  0  0  0  0  0  0  0  0  0
   57.7880   28.0110   44.8810 C   0  0  0  0  0  0  0  0  0  0  0  0
   58.1024   26.9571   44.9040 H   0  0  0  0  0  0  0  0  0  0  0  0
   57.9219   28.4311   43.8733 H   0  0  0  0  0  0  0  0  0  0  0  0
   56.3310   28.0980   45.2470 C   0  0  0  0  0  0  0  0  0  0  0  0
   55.7550   27.0770   45.7110 O   0  0  0  0  0  0  0  0  0  0  0  0
   55.5820   29.3110   45.1150 N   0  0  0  0  0  0  0  0  0  0  0  0
   55.1430   29.8830   43.8490 C   0  0  0  0  0  0  0  0  0  0  0  0
   54.7278   30.8867   44.0230 H   0  0  0  0  0  0  0  0  0  0  0  0
   54.3686   29.2419   43.4025 H   0  0  0  0  0  0  0  0  0  0  0  0
   56.3100   29.9790   42.9230 C   0  0  0  0  0  0  0  0  0  0  0  0
   56.6420   28.9700   42.2470 O   0  0  0  0  0  0  0  0  0  0  0  0
   57.0290   31.2210   42.8330 N   0  0  0  0  0  0  0  0  0  0  0  0
   57.5000   31.9620   43.7960 C   0  0  0  0  0  0  0  0  0  0  0  0
   58.2880   33.0370   43.5350 N   0  0  0  0  0  0  0  0  0  0  0  0
   58.5420   33.5250   44.7620 C   0  0  0  0  0  0  0  0  0  0  0  0
   59.3080   34.6410   45.0940 C   0  0  0  0  0  0  0  0  0  0  0  0
   59.8032   35.2436   44.3184 H   0  0  0  0  0  0  0  0  0  0  0  0
   59.4250   34.9690   46.4580 C   0  0  0  0  0  0  0  0  0  0  0  0
   60.0226   35.8416   46.7604 H   0  0  0  0  0  0  0  0  0  0  0  0
   58.7800   34.1850   47.4420 C   0  0  0  0  0  0  0  0  0  0  0  0
   58.8782   34.4519   48.5046 H   0  0  0  0  0  0  0  0  0  0  0  0
   58.0130   33.0650   47.0700 C   0  0  0  0  0  0  0  0  0  0  0  0
   57.5037   32.4464   47.8236 H   0  0  0  0  0  0  0  0  0  0  0  0
   57.9230   32.7690   45.7110 C   0  0  0  0  0  0  0  0  0  0  0  0
   57.2540   31.7690   45.1220 N   0  0  0  0  0  0  0  0  0  0  0  0
   56.6730   31.0530   45.6050 H   0  0  0  0  0  0  0  0  0  0  0  0
   58.4230   28.6830   47.2310 C   0  0  0  0  0  0  0  0  0  0  0  0
   57.6378   28.0127   47.6106 H   0  0  0  0  0  0  0  0  0  0  0  0
   59.2060   29.4160   48.1280 C   0  0  0  0  0  0  0  0  0  0  0  0
   59.0320   29.3248   49.2103 H   0  0  0  0  0  0  0  0  0  0  0  0
  1  2  1  0
  2  3  2  0
  3  4  1  0
  3  5  1  0
  5  6  1  0
  5  7  2  0
  7  8  1  0
  8  9  1  0
  8 10  1  0
  8 11  1  0
 11 12  2  0
 11 13  1  0
 13 14  1  0
 14 15  1  0
 14 16  1  0
 14 17  1  0
 17 18  2  0
 17 19  1  0
 19 20  2  0
 20 21  1  0
 21 22  1  0
 22 23  2  0
 23 24  1  0
 23 25  1  0
 25 26  1  0
 25 27  2  0
 27 28  1  0
 27 29  1  0
 29 30  1  0
 29 31  2  0
 31 32  1  0
 32 33  1  0
  7 34  1  0
 34 35  1  0
 34 36  2  0
 36 37  1  0
 36  2  1  0
 32 20  1  0
 31 22  1  0
M  CHG  2  13  -1  21  -1
M  END
>  <UniqueID>  (16) 
14

>  <SMILES>  (16) 
O=C(C[N-]C(=O)Cc1ccccc1)/N=c1/[n-]c2ccccc2[nH]1

>  <Energy>  (16) 
76.05808499460232

>  <Genealogy>  (16) 
O=C(C[N-]C(=O)Cc1ccccc1)N=c1[n-]c2ccccc2[nH]1 (protonated)
O=C(C[N-]C(=O)Cc1ccccc1)/N=c1/[n-]c2ccccc2[nH]1 (cis-trans isomerization)
O=C(C[N-]C(=O)Cc1ccccc1)/N=c1/[n-]c2ccccc2[nH]1 (3D coordinates assigned)
O=C(C[N-]C(=O)Cc1ccccc1)/N=c1/[n-]c2ccccc2[nH]1 (optimized conformer: 76.05808499460232 kcal/mol)

>  <smiles>  (16) 
O=C(CNC(=O)Cc1ccccc1)N=c1[nH]c2ccccc2[nH]1

>  <score_type>  (16) 
oracle

>  <origin>  (16) 
adg

>  <m_score__min__energy>  (16) 
-12.140000000000001

>  <m_primary>  (16) 
energy

$$$$
16:0
     RDKit          3D

 31 32  0  0  0  0  0  0  0  0999 V2000
   59.5320   34.9840   46.7220 C   0  0  0  0  0  0  0  0  0  0  0  0
   59.9580   33.7670   45.9120 C   0  0  0  0  0  0  0  0  0  0  0  0
   58.6160   33.1620   44.9030 S   0  0  0  0  0  0  0  0  0  0  0  0
   58.8570   33.4820   43.2710 O   0  0  0  0  0  0  0  0  0  0  0  0
   58.2420   31.4690   45.1730 C   0  0  0  0  0  0  0  0  0  0  0  0
   59.2060   30.6100   45.7090 C   0  0  0  0  0  0  0  0  0  0  0  0
   58.9040   29.2620   45.9230 C   0  0  0  0  0  0  0  0  0  0  0  0
   57.6340   28.7510   45.5950 C   0  0  0  0  0  0  0  0  0  0  0  0
   57.3180   27.3220   45.8440 C   0  0  0  0  0  0  0  0  0  0  0  0
   58.3260   26.3990   46.1780 C   0  0  0  0  0  0  0  0  0  0  0  0
   57.9880   25.0640   46.4100 C   0  0  0  0  0  0  0  0  0  0  0  0
   56.6590   24.6540   46.3080 C   0  0  0  0  0  0  0  0  0  0  0  0
   55.6800   25.5920   45.9710 C   0  0  0  0  0  0  0  0  0  0  0  0
   54.4750   25.2430   45.8710 O   0  0  0  0  0  0  0  0  0  0  0  0
   56.0290   26.8890   45.7490 N   0  0  0  0  0  0  0  0  0  0  0  0
   56.6670   29.6220   45.0480 C   0  0  0  0  0  0  0  0  0  0  0  0
   55.4040   29.1450   44.6940 O   0  0  0  0  0  0  0  0  0  0  0  0
   56.9790   30.9740   44.8400 C   0  0  0  0  0  0  0  0  0  0  0  0
   59.6117   34.7564   47.7952 H   0  0  0  0  0  0  0  0  0  0  0  0
   60.1860   35.8341   46.4780 H   0  0  0  0  0  0  0  0  0  0  0  0
   58.4906   35.2407   46.4780 H   0  0  0  0  0  0  0  0  0  0  0  0
   60.7993   34.0460   45.2606 H   0  0  0  0  0  0  0  0  0  0  0  0
   60.2558   32.9706   46.6099 H   0  0  0  0  0  0  0  0  0  0  0  0
   57.9480   33.4570   42.8770 H   0  0  0  0  0  0  0  0  0  0  0  0
   60.2044   30.9957   45.9629 H   0  0  0  0  0  0  0  0  0  0  0  0
   59.6659   28.5943   46.3517 H   0  0  0  0  0  0  0  0  0  0  0  0
   59.3732   26.7267   46.2559 H   0  0  0  0  0  0  0  0  0  0  0  0
   58.7697   24.3362   46.6731 H   0  0  0  0  0  0  0  0  0  0  0  0
   56.3848   23.6045   46.4907 H   0  0  0  0  0  0  0  0  0  0  0  0
   55.1260   28.1880   44.8770 H   0  0  0  0  0  0  0  0  0  0  0  0
   56.2235   31.6491   44.4116 H   0  0  0  0  0  0  0  0  0  0  0  0
  1  2  1  0
  2  3  1  0
  3  4  1  6
  3  5  1  0
  5  6  2  0
  6  7  1  0
  7  8  2  0
  8  9  1  0
  9 10  2  0
 10 11  1  0
 11 12  2  0
 12 13  1  0
 13 14  2  0
 13 15  1  0
  8 16  1  0
 16 17  1  0
 16 18  2  0
 18  5  1  0
 15  9  1  0
  1 19  1  0
  1 20  1  0
  1 21  1  0
  2 22  1  0
  2 23  1  0
  4 24  1  0
  6 25  1  0
  7 26  1  0
 10 27  1  0
 11 28  1  0
 12 29  1  0
 17 30  1  0
 18 31  1  0
M  CHG  2   3   1  15  -1
M  END
>  <UniqueID>  (17) 
15

>  <SMILES>  (17) 
CC[S@@+](O)c1ccc(-c2cccc(=O)[n-]2)c(O)c1

>  <Energy>  (17) 
30.132931496343936

>  <Genealogy>  (17) 
CC[S+](O)c1ccc(-c2cccc(=O)[n-]2)c(O)c1 (protonated)
CC[S@@+](O)c1ccc(-c2cccc(=O)[n-]2)c(O)c1 (chirality)
CC[S@@+](O)c1ccc(-c2cccc(=O)[n-]2)c(O)c1 (3D coordinates assigned)
CC[S@@+](O)c1ccc(-c2cccc(=O)[n-]2)c(O)c1 (optimized conformer: 30.132931496343936 kcal/mol)

>  <smiles>  (17) 
CC[S+]([O-])c1ccc(-c2cccc(=O)[nH]2)c(O)c1

>  <score_type>  (17) 
oracle

>  <origin>  (17) 
adg

>  <m_score__min__energy>  (17) 
-8.2100000000000009

>  <m_primary>  (17) 
energy

$$$$
17:0
     RDKit          3D

 52 55  0  0  0  0  0  0  0  0999 V2000
   63.7520   33.4620   47.9660 C   0  0  0  0  0  0  0  0  0  0  0  0
   63.0910   33.4810   46.7340 C   0  0  0  0  0  0  0  0  0  0  0  0
   61.7430   33.8410   46.6680 C   0  0  0  0  0  0  0  0  0  0  0  0
   61.0460   34.1950   47.8360 C   0  0  0  0  0  0  0  0  0  0  0  0
   59.5840   34.5410   47.7720 C   0  0  0  0  0  0  0  0  0  0  0  0
   58.9460   33.8520   46.6030 C   0  0  0  0  0  0  0  0  0  0  0  0
   58.4300   34.5880   45.5280 C   0  0  0  0  0  0  0  0  0  0  0  0
   57.7960   33.9170   44.4830 C   0  0  0  0  0  0  0  0  0  0  0  0
   57.6750   32.5270   44.5180 C   0  0  0  0  0  0  0  0  0  0  0  0
   58.2010   31.8120   45.6090 C   0  0  0  0  0  0  0  0  0  0  0  0
   58.0760   30.3780   45.7030 N   0  0  0  0  0  0  0  0  0  0  0  0
   57.3030   29.6090   44.7180 C   0  0  0  0  0  0  0  0  0  0  0  0
   57.9440   28.2320   44.4330 C   0  0  0  0  0  0  0  0  0  0  0  0
   58.7290   27.6690   45.5640 N   0  0  0  0  0  0  0  0  0  0  0  0
   58.6990   26.1870   45.5790 C   0  0  0  0  0  0  0  0  0  0  0  0
   57.5490   25.6500   46.4470 C   0  0  0  0  0  0  0  0  0  0  0  0
   56.4850   24.9620   45.6430 C   0  0  0  0  0  0  0  0  0  0  0  0
   56.8270   24.2150   44.5590 N   0  0  0  0  0  0  0  0  0  0  0  0
   55.8790   23.5840   43.8180 C   0  0  0  0  0  0  0  0  0  0  0  0
   54.5350   23.6950   44.1690 C   0  0  0  0  0  0  0  0  0  0  0  0
   54.2010   24.4570   45.2870 C   0  0  0  0  0  0  0  0  0  0  0  0
   55.1770   25.0730   46.0030 N   0  0  0  0  0  0  0  0  0  0  0  0
   58.2990   28.2110   46.8640 C   0  0  0  0  0  0  0  0  0  0  0  0
   58.5910   29.7090   46.9020 C   0  0  0  0  0  0  0  0  0  0  0  0
   58.8060   32.4990   46.6190 N   0  0  0  0  0  0  0  0  0  0  0  0
   61.7130   34.1600   49.0720 C   0  0  0  0  0  0  0  0  0  0  0  0
   63.0620   33.7990   49.1340 C   0  0  0  0  0  0  0  0  0  0  0  0
   64.8146   33.1820   48.0160 H   0  0  0  0  0  0  0  0  0  0  0  0
   63.6333   33.2121   45.8155 H   0  0  0  0  0  0  0  0  0  0  0  0
   61.2247   33.8475   45.6978 H   0  0  0  0  0  0  0  0  0  0  0  0
   59.0914   34.2156   48.7002 H   0  0  0  0  0  0  0  0  0  0  0  0
   59.4747   35.6292   47.6541 H   0  0  0  0  0  0  0  0  0  0  0  0
   58.5241   35.6838   45.5087 H   0  0  0  0  0  0  0  0  0  0  0  0
   57.3913   34.4831   43.6311 H   0  0  0  0  0  0  0  0  0  0  0  0
   57.1716   31.9942   43.6978 H   0  0  0  0  0  0  0  0  0  0  0  0
   56.2854   29.4545   45.1062 H   0  0  0  0  0  0  0  0  0  0  0  0
   57.2853   30.1789   43.7773 H   0  0  0  0  0  0  0  0  0  0  0  0
   57.1395   27.5232   44.1872 H   0  0  0  0  0  0  0  0  0  0  0  0
   58.6531   28.3832   43.6058 H   0  0  0  0  0  0  0  0  0  0  0  0
   58.5685   25.8227   44.5493 H   0  0  0  0  0  0  0  0  0  0  0  0
   59.6472   25.8292   46.0067 H   0  0  0  0  0  0  0  0  0  0  0  0
   57.9612   24.9322   47.1714 H   0  0  0  0  0  0  0  0  0  0  0  0
   57.0813   26.5113   46.9464 H   0  0  0  0  0  0  0  0  0  0  0  0
   56.1720   22.9863   42.9422 H   0  0  0  0  0  0  0  0  0  0  0  0
   53.7556   23.1927   43.5772 H   0  0  0  0  0  0  0  0  0  0  0  0
   53.1483   24.5594   45.5892 H   0  0  0  0  0  0  0  0  0  0  0  0
   57.2198   28.0427   46.9945 H   0  0  0  0  0  0  0  0  0  0  0  0
   58.8449   27.7064   47.6747 H   0  0  0  0  0  0  0  0  0  0  0  0
   58.1122   30.1459   47.7908 H   0  0  0  0  0  0  0  0  0  0  0  0
   59.6810   29.8515   46.9405 H   0  0  0  0  0  0  0  0  0  0  0  0
   61.1717   34.4176   49.9943 H   0  0  0  0  0  0  0  0  0  0  0  0
   63.5814   33.7801   50.1035 H   0  0  0  0  0  0  0  0  0  0  0  0
  1  2  2  0
  2  3  1  0
  3  4  2  0
  4  5  1  0
  5  6  1  0
  6  7  2  0
  7  8  1  0
  8  9  2  0
  9 10  1  0
 10 11  1  0
 11 12  1  0
 12 13  1  0
 13 14  1  0
 14 15  1  0
 15 16  1  0
 16 17  1  0
 17 18  2  0
 18 19  1  0
 19 20  2  0
 20 21  1  0
 21 22  2  0
 14 23  1  0
 23 24  1  0
 10 25  2  0
  4 26  1  0
 26 27  2  0
 27  1  1  0
 25  6  1  0
 24 11  1  0
 22 17  1  0
  1 28  1  0
  2 29  1  0
  3 30  1  0
  5 31  1  0
  5 32  1  0
  7 33  1  0
  8 34  1  0
  9 35  1  0
 12 36  1  0
 12 37  1  0
 13 38  1  0
 13 39  1  0
 15 40  1  0
 15 41  1  0
 16 42  1  0
 16 43  1  0
 19 44  1  0
 20 45  1  0
 21 46  1  0
 23 47  1  0
 23 48  1  0
 24 49  1  0
 24 50  1  0
 26 51  1  0
 27 52  1  0
M  END
>  <UniqueID>  (18) 
16

>  <SMILES>  (18) 
c1ccc(Cc2cccc(N3CCN(CCc4ncccn4)CC3)n2)cc1

>  <Energy>  (18) 
62.53346155428168

>  <Genealogy>  (18) 
c1ccc(Cc2cccc(N3CCN(CCc4ncccn4)CC3)n2)cc1 (3D coordinates assigned)
c1ccc(Cc2cccc(N3CCN(CCc4ncccn4)CC3)n2)cc1 (nonaromatic ring conformer: 62.53346155428168 kcal/mol)

>  <smiles>  (18) 
c1ccc(Cc2cccc(N3CCN(CCc4ncccn4)CC3)n2)cc1

>  <score_type>  (18) 
oracle

>  <origin>  (18) 
adg

>  <m_score__min__energy>  (18) 
-8.4600000000000009

>  <m_primary>  (18) 
energy

$$$$
18:0
     RDKit          3D

 40 41  0  0  0  0  0  0  0  0999 V2000
   55.6330   29.4930   45.6260 H   0  0  0  0  0  0  0  0  0  0  0  0
   56.6340   29.3140   45.3880 N   0  0  0  0  0  0  0  0  0  0  0  0
   57.6210   30.3280   45.5660 C   0  0  0  0  0  0  0  0  0  0  0  0
   57.3190   31.5350   45.3720 O   0  0  0  0  0  0  0  0  0  0  0  0
   58.9840   29.9670   45.9710 C   0  0  0  0  0  0  0  0  0  0  0  0
   59.5990   29.0600   45.3500 O   0  0  0  0  0  0  0  0  0  0  0  0
   59.5800   30.6140   47.1020 N   0  0  0  0  0  0  0  0  0  0  0  0
   59.2480   30.4000   48.4850 C   0  0  0  0  0  0  0  0  0  0  0  0
   59.8320   29.3530   49.2200 C   0  0  0  0  0  0  0  0  0  0  0  0
   60.5335   28.6639   48.7270 H   0  0  0  0  0  0  0  0  0  0  0  0
   59.5270   29.1830   50.5710 C   0  0  0  0  0  0  0  0  0  0  0  0
   59.9940   28.3662   51.1408 H   0  0  0  0  0  0  0  0  0  0  0  0
   58.6310   30.0470   51.2000 C   0  0  0  0  0  0  0  0  0  0  0  0
   58.3946   29.9079   52.2652 H   0  0  0  0  0  0  0  0  0  0  0  0
   58.0310   31.0890   50.4860 C   0  0  0  0  0  0  0  0  0  0  0  0
   57.0960   31.9340   51.1710 N   0  0  0  0  0  0  0  0  0  0  0  0
   56.1020   31.4820   52.0990 C   0  0  0  0  0  0  0  0  0  0  0  0
   56.3250   31.6080   53.3320 O   0  0  0  0  0  0  0  0  0  0  0  0
   54.8540   30.8400   51.6300 C   0  0  0  0  0  0  0  0  0  0  0  0
   54.9191   29.8865   51.0853 H   0  0  0  0  0  0  0  0  0  0  0  0
   53.6490   31.3800   51.8460 C   0  0  0  0  0  0  0  0  0  0  0  0
   53.4724   31.8930   52.8029 H   0  0  0  0  0  0  0  0  0  0  0  0
   52.5430   31.3240   50.8680 C   0  0  0  0  0  0  0  0  0  0  0  0
   52.4810   30.3890   49.9020 N   0  0  0  0  0  0  0  0  0  0  0  0
   51.3270   30.6690   49.2600 C   0  0  0  0  0  0  0  0  0  0  0  0
   50.9210   30.0020   48.2730 O   0  0  0  0  0  0  0  0  0  0  0  0
   50.6420   31.7170   49.7600 N   0  0  0  0  0  0  0  0  0  0  0  0
   51.4170   32.1210   50.7800 C   0  0  0  0  0  0  0  0  0  0  0  0
   51.0760   33.1720   51.6230 O   0  0  0  0  0  0  0  0  0  0  0  0
   58.3840   31.3040   49.1340 C   0  0  0  0  0  0  0  0  0  0  0  0
   57.7390   32.7250   48.2220 S   0  0  0  0  0  0  0  0  0  0  0  0
   59.2790   33.7120   48.2830 C   0  0  0  0  0  0  0  0  0  0  0  0
   59.1018   34.6105   48.8923 H   0  0  0  0  0  0  0  0  0  0  0  0
   60.0690   33.0850   48.7221 H   0  0  0  0  0  0  0  0  0  0  0  0
   59.7360   34.1430   46.8860 C   0  0  0  0  0  0  0  0  0  0  0  0
   59.5273   35.2148   46.7535 H   0  0  0  0  0  0  0  0  0  0  0  0
   60.8145   33.9474   46.7930 H   0  0  0  0  0  0  0  0  0  0  0  0
   59.0350   33.3890   45.8540 N   0  0  0  0  0  0  0  0  0  0  0  0
   58.0080   33.5140   46.0090 H   0  0  0  0  0  0  0  0  0  0  0  0
   59.2360   32.3720   45.9940 H   0  0  0  0  0  0  0  0  0  0  0  0
  1  2  1  0
  2  3  1  0
  3  4  2  0
  3  5  1  0
  5  6  2  0
  5  7  1  0
  7  8  1  0
  8  9  2  0
  9 10  1  0
  9 11  1  0
 11 12  1  0
 11 13  2  0
 13 14  1  0
 13 15  1  0
 15 16  1  0
 16 17  1  0
 17 18  2  0
 17 19  1  0
 19 20  1  0
 19 21  2  0
 21 22  1  0
 21 23  1  0
 23 24  1  0
 24 25  1  0
 25 26  2  0
 25 27  1  0
 27 28  1  0
 28 29  1  0
 15 30  2  0
 30 31  1  0
 31 32  1  0
 32 33  1  0
 32 34  1  0
 32 35  1  0
 35 36  1  0
 35 37  1  0
 35 38  1  0
 38 39  1  0
 38 40  1  0
 30  8  1  0
 28 23  2  0
M  CHG  6   2  -1   7  -1  16  -1  24  -1  27  -1  29  -1
M  END
>  <UniqueID>  (19) 
17

>  <SMILES>  (19) 
[NH-]C(=O)C(=O)[N-]c1cccc([N-]C(=O)/C=C/c2[n-]c(=O)[n-]c2[O-])c1SCCN

>  <Energy>  (19) 
73.17028828582902

>  <Genealogy>  (19) 
[NH-]C(=O)C(=O)[N-]c1cccc([N-]C(=O)C=Cc2[n-]c(=O)[n-]c2[O-])c1SCCN (protonated)
[NH-]C(=O)C(=O)[N-]c1cccc([N-]C(=O)/C=C/c2[n-]c(=O)[n-]c2[O-])c1SCCN (cis-trans isomerization)
[NH-]C(=O)C(=O)[N-]c1cccc([N-]C(=O)/C=C/c2[n-]c(=O)[n-]c2[O-])c1SCCN (3D coordinates assigned)
[NH-]C(=O)C(=O)[N-]c1cccc([N-]C(=O)/C=C/c2[n-]c(=O)[n-]c2[O-])c1SCCN (optimized conformer: 73.17028828582902 kcal/mol)

>  <smiles>  (19) 
NCCSc1c(NC(=O)C=Cc2[nH]c(=O)[nH]c2O)cccc1NC(=O)C(N)=O

>  <score_type>  (19) 
oracle

>  <origin>  (19) 
adg

>  <m_score__min__energy>  (19) 
-17.609999999999999

>  <m_primary>  (19) 
energy

$$$$
19:0
     RDKit          3D

 43 45  0  0  0  0  0  0  0  0999 V2000
   58.3500   33.3530   44.0870 C   0  0  0  0  0  0  0  0  0  0  0  0
   58.6060   33.1370   45.5560 C   0  0  0  0  0  0  0  0  0  0  0  0
   59.1680   34.1930   46.2970 C   0  0  0  0  0  0  0  0  0  0  0  0
   59.4190   34.0550   47.6620 C   0  0  0  0  0  0  0  0  0  0  0  0
   59.0930   32.8670   48.3180 C   0  0  0  0  0  0  0  0  0  0  0  0
   59.4670   32.6640   50.0310 S   0  0  0  0  0  0  0  0  0  0  0  0
   60.0740   31.3080   50.2530 O   0  0  0  0  0  0  0  0  0  0  0  0
   58.1890   32.7390   50.8180 O   0  0  0  0  0  0  0  0  0  0  0  0
   60.5630   33.8850   50.6240 N   0  0  0  0  0  0  0  0  0  0  0  0
   61.9540   33.4240   50.6480 C   0  0  0  0  0  0  0  0  0  0  0  0
   62.4780   33.1500   49.2700 C   0  0  0  0  0  0  0  0  0  0  0  0
   62.9290   34.1100   48.3710 C   0  0  0  0  0  0  0  0  0  0  0  0
   63.4290   33.5640   47.1830 C   0  0  0  0  0  0  0  0  0  0  0  0
   63.3990   32.1750   47.1530 C   0  0  0  0  0  0  0  0  0  0  0  0
   62.7520   31.6290   48.6060 S   0  0  0  0  0  0  0  0  0  0  0  0
   58.5250   31.8130   47.5990 C   0  0  0  0  0  0  0  0  0  0  0  0
   58.3090   31.9080   46.2110 C   0  0  0  0  0  0  0  0  0  0  0  0
   57.8260   30.6940   45.4960 C   0  0  0  0  0  0  0  0  0  0  0  0
   56.7180   30.6970   44.8940 O   0  0  0  0  0  0  0  0  0  0  0  0
   58.6370   29.5120   45.4790 N   0  0  0  0  0  0  0  0  0  0  0  0
   58.1750   28.1630   45.6330 C   0  0  0  0  0  0  0  0  0  0  0  0
   59.0670   27.0830   45.7650 C   0  0  0  0  0  0  0  0  0  0  0  0
   58.5780   25.7880   45.9590 C   0  0  0  0  0  0  0  0  0  0  0  0
   57.2010   25.5620   46.0350 C   0  0  0  0  0  0  0  0  0  0  0  0
   56.3070   26.6320   45.9280 C   0  0  0  0  0  0  0  0  0  0  0  0
   54.9370   26.3960   46.0160 O   0  0  0  0  0  0  0  0  0  0  0  0
   56.7980   27.9320   45.7340 C   0  0  0  0  0  0  0  0  0  0  0  0
   57.5149   34.0576   43.9601 H   0  0  0  0  0  0  0  0  0  0  0  0
   59.2533   33.7660   43.6142 H   0  0  0  0  0  0  0  0  0  0  0  0
   58.0949   32.3931   43.6142 H   0  0  0  0  0  0  0  0  0  0  0  0
   59.4126   35.1397   45.7931 H   0  0  0  0  0  0  0  0  0  0  0  0
   59.8749   34.8843   48.2228 H   0  0  0  0  0  0  0  0  0  0  0  0
   62.5772   34.1994   51.1174 H   0  0  0  0  0  0  0  0  0  0  0  0
   61.9912   32.4846   51.2190 H   0  0  0  0  0  0  0  0  0  0  0  0
   62.8962   35.1908   48.5732 H   0  0  0  0  0  0  0  0  0  0  0  0
   63.8095   34.1763   46.3521 H   0  0  0  0  0  0  0  0  0  0  0  0
   63.7401   31.5412   46.3212 H   0  0  0  0  0  0  0  0  0  0  0  0
   58.2409   30.8909   48.1273 H   0  0  0  0  0  0  0  0  0  0  0  0
   60.1518   27.2582   45.7154 H   0  0  0  0  0  0  0  0  0  0  0  0
   59.2785   24.9450   46.0520 H   0  0  0  0  0  0  0  0  0  0  0  0
   56.8196   24.5404   46.1793 H   0  0  0  0  0  0  0  0  0  0  0  0
   54.3950   26.7170   46.8090 H   0  0  0  0  0  0  0  0  0  0  0  0
   56.0959   28.7756   45.6608 H   0  0  0  0  0  0  0  0  0  0  0  0
  1  2  1  0
  2  3  2  0
  3  4  1  0
  4  5  2  0
  5  6  1  0
  6  7  2  0
  6  8  2  0
  6  9  1  0
  9 10  1  0
 10 11  1  0
 11 12  2  0
 12 13  1  0
 13 14  2  0
 14 15  1  0
  5 16  1  0
 16 17  2  0
 17 18  1  0
 18 19  2  0
 18 20  1  0
 20 21  1  0
 21 22  2  0
 22 23  1  0
 23 24  2  0
 24 25  1  0
 25 26  1  0
 25 27  2  0
 17  2  1  0
 27 21  1  0
 15 11  1  0
  1 28  1  0
  1 29  1  0
  1 30  1  0
  3 31  1  0
  4 32  1  0
 10 33  1  0
 10 34  1  0
 12 35  1  0
 13 36  1  0
 14 37  1  0
 16 38  1  0
 22 39  1  0
 23 40  1  0
 24 41  1  0
 26 42  1  0
 27 43  1  0
M  CHG  2   9  -1  20  -1
M  END
>  <UniqueID>  (20) 
18

>  <SMILES>  (20) 
Cc1ccc(S(=O)(=O)[N-]Cc2cccs2)cc1C(=O)[N-]c1cccc(O)c1

>  <Energy>  (20) 
75.63909614166725

>  <Genealogy>  (20) 
Cc1ccc(S(=O)(=O)[N-]Cc2cccs2)cc1C(=O)[N-]c1cccc(O)c1 (protonated)
Cc1ccc(S(=O)(=O)[N-]Cc2cccs2)cc1C(=O)[N-]c1cccc(O)c1 (3D coordinates assigned)
Cc1ccc(S(=O)(=O)[N-]Cc2cccs2)cc1C(=O)[N-]c1cccc(O)c1 (optimized conformer: 75.63909614166725 kcal/mol)

>  <smiles>  (20) 
Cc1ccc(S(=O)(=O)NCc2cccs2)cc1C(=O)Nc1cccc(O)c1

>  <score_type>  (20) 
oracle

>  <origin>  (20) 
adg

>  <m_score__min__energy>  (20) 
-12.76

>  <m_primary>  (20) 
energy

$$$$
20:0
     RDKit          3D

 48 51  0  0  0  0  0  0  0  0999 V2000
   64.5590   33.3030   51.2350 C   0  0  0  0  0  0  0  0  0  0  0  0
   63.6590   33.3860   50.0440 C   0  0  0  0  0  0  0  0  0  0  0  0
   64.1480   33.0920   48.7680 C   0  0  0  0  0  0  0  0  0  0  0  0
   63.3020   33.1640   47.6550 C   0  0  0  0  0  0  0  0  0  0  0  0
   63.8080   32.8680   46.4940 N   0  0  0  0  0  0  0  0  0  0  0  0
   61.9410   33.5430   47.8380 C   0  0  0  0  0  0  0  0  0  0  0  0
   61.0120   33.6580   46.7780 C   0  0  0  0  0  0  0  0  0  0  0  0
   59.6730   34.0140   47.0290 C   0  0  0  0  0  0  0  0  0  0  0  0
   58.7140   34.1480   45.9700 N   0  0  0  0  0  0  0  0  0  0  0  0
   58.8520   33.6410   44.6360 C   0  0  0  0  0  0  0  0  0  0  0  0
   59.6050   34.2280   43.8120 O   0  0  0  0  0  0  0  0  0  0  0  0
   58.1700   32.3830   44.2500 C   0  0  0  0  0  0  0  0  0  0  0  0
   57.7190   32.2270   42.9260 C   0  0  0  0  0  0  0  0  0  0  0  0
   57.0330   31.0730   42.5390 C   0  0  0  0  0  0  0  0  0  0  0  0
   56.7960   30.0570   43.4640 C   0  0  0  0  0  0  0  0  0  0  0  0
   57.2480   30.1880   44.7770 C   0  0  0  0  0  0  0  0  0  0  0  0
   57.9320   31.3460   45.1860 C   0  0  0  0  0  0  0  0  0  0  0  0
   58.4750   31.4200   46.5140 N   0  0  0  0  0  0  0  0  0  0  0  0
   59.2800   30.3770   47.0930 C   0  0  0  0  0  0  0  0  0  0  0  0
   59.6020   29.3740   46.3990 O   0  0  0  0  0  0  0  0  0  0  0  0
   59.7350   30.4550   48.5020 C   0  0  0  0  0  0  0  0  0  0  0  0
   58.8520   30.9070   49.5000 C   0  0  0  0  0  0  0  0  0  0  0  0
   59.2690   30.9910   50.8320 C   0  0  0  0  0  0  0  0  0  0  0  0
   60.5730   30.6340   51.1810 C   0  0  0  0  0  0  0  0  0  0  0  0
   61.4640   30.1960   50.1980 C   0  0  0  0  0  0  0  0  0  0  0  0
   61.0520   30.1090   48.8640 C   0  0  0  0  0  0  0  0  0  0  0  0
   59.2710   34.3060   48.3340 C   0  0  0  0  0  0  0  0  0  0  0  0
   60.1750   34.2080   49.3910 C   0  0  0  0  0  0  0  0  0  0  0  0
   61.4990   33.8260   49.1560 C   0  0  0  0  0  0  0  0  0  0  0  0
   62.3580   33.7400   50.2030 N   0  0  0  0  0  0  0  0  0  0  0  0
   63.9571   33.3585   52.1540 H   0  0  0  0  0  0  0  0  0  0  0  0
   65.1086   32.3504   51.2136 H   0  0  0  0  0  0  0  0  0  0  0  0
   65.2735   34.1391   51.2136 H   0  0  0  0  0  0  0  0  0  0  0  0
   65.2014   32.8030   48.6379 H   0  0  0  0  0  0  0  0  0  0  0  0
   64.6770   32.3210   46.3230 H   0  0  0  0  0  0  0  0  0  0  0  0
   61.3393   33.4671   45.7453 H   0  0  0  0  0  0  0  0  0  0  0  0
   57.9084   33.0212   42.1888 H   0  0  0  0  0  0  0  0  0  0  0  0
   56.6793   30.9658   41.5029 H   0  0  0  0  0  0  0  0  0  0  0  0
   56.2520   29.1512   43.1580 H   0  0  0  0  0  0  0  0  0  0  0  0
   57.0676   29.3779   45.4989 H   0  0  0  0  0  0  0  0  0  0  0  0
   58.2480   32.2670   47.0800 H   0  0  0  0  0  0  0  0  0  0  0  0
   57.8257   31.1965   49.2302 H   0  0  0  0  0  0  0  0  0  0  0  0
   58.5689   31.3388   51.6059 H   0  0  0  0  0  0  0  0  0  0  0  0
   60.8987   30.6976   52.2297 H   0  0  0  0  0  0  0  0  0  0  0  0
   62.4922   29.9188   50.4738 H   0  0  0  0  0  0  0  0  0  0  0  0
   61.7598   29.7687   48.0938 H   0  0  0  0  0  0  0  0  0  0  0  0
   58.2337   34.6155   48.5295 H   0  0  0  0  0  0  0  0  0  0  0  0
   59.8444   34.4326   50.4158 H   0  0  0  0  0  0  0  0  0  0  0  0
  1  2  1  0
  2  3  2  0
  3  4  1  0
  4  5  2  3
  4  6  1  0
  6  7  2  0
  7  8  1  0
  8  9  1  0
  9 10  1  0
 10 11  2  0
 10 12  1  0
 12 13  2  0
 13 14  1  0
 14 15  2  0
 15 16  1  0
 16 17  2  0
 17 18  1  0
 18 19  1  0
 19 20  2  0
 19 21  1  0
 21 22  2  0
 22 23  1  0
 23 24  2  0
 24 25  1  0
 25 26  2  0
  8 27  2  0
 27 28  1  0
 28 29  2  0
 29 30  1  0
 30  2  1  0
 29  6  1  0
 17 12  1  0
 26 21  1  0
  1 31  1  0
  1 32  1  0
  1 33  1  0
  3 34  1  0
  5 35  1  0
  7 36  1  0
 13 37  1  0
 14 38  1  0
 15 39  1  0
 16 40  1  0
 18 41  1  0
 22 42  1  0
 23 43  1  0
 24 44  1  0
 25 45  1  0
 26 46  1  0
 27 47  1  0
 28 48  1  0
M  CHG  2   9  -1  30  -1
M  END
>  <UniqueID>  (21) 
19

>  <SMILES>  (21) 
Cc1cc(=N)c2cc([N-]C(=O)c3ccccc3NC(=O)c3ccccc3)ccc2[n-]1

>  <Energy>  (21) 
73.77358138804023

>  <Genealogy>  (21) 
Cc1cc(=N)c2cc([N-]C(=O)c3ccccc3NC(=O)c3ccccc3)ccc2[n-]1 (protonated)
Cc1cc(=N)c2cc([N-]C(=O)c3ccccc3NC(=O)c3ccccc3)ccc2[n-]1 (3D coordinates assigned)
Cc1cc(=N)c2cc([N-]C(=O)c3ccccc3NC(=O)c3ccccc3)ccc2[n-]1 (optimized conformer: 73.77358138804023 kcal/mol)

>  <smiles>  (21) 
Cc1cc(=N)c2cc(NC(=O)c3ccccc3NC(=O)c3ccccc3)ccc2[nH]1

>  <score_type>  (21) 
oracle

>  <origin>  (21) 
adg

>  <m_score__min__energy>  (21) 
-11.609999999999999

>  <m_primary>  (21) 
energy

$$$$
21:0
     RDKit          3D

 47 49  0  0  0  0  0  0  0  0999 V2000
   63.3850   33.4730   47.0310 C   0  0  0  0  0  0  0  0  0  0  0  0
   63.0030   31.7020   47.1990 S   0  0  0  0  0  0  0  0  0  0  0  0
   61.2980   31.9950   47.6840 C   0  0  0  0  0  0  0  0  0  0  0  0
   60.7710   33.2890   47.5890 C   0  0  0  0  0  0  0  0  0  0  0  0
   59.4460   33.5360   47.9560 C   0  0  0  0  0  0  0  0  0  0  0  0
   58.6440   32.4940   48.4200 C   0  0  0  0  0  0  0  0  0  0  0  0
   59.1630   31.2000   48.5220 C   0  0  0  0  0  0  0  0  0  0  0  0
   60.4980   30.9370   48.1530 C   0  0  0  0  0  0  0  0  0  0  0  0
   61.0610   29.6520   48.2340 O   0  0  0  0  0  0  0  0  0  0  0  0
   60.5370   28.5690   49.0010 C   0  0  0  0  0  0  0  0  0  0  0  0
   59.5780   27.7680   48.1800 C   0  0  0  0  0  0  0  0  0  0  0  0
   58.3690   28.2000   47.6770 C   0  0  0  0  0  0  0  0  0  0  0  0
   57.8910   27.0920   47.0070 C   0  0  0  0  0  0  0  0  0  0  0  0
   56.6240   27.0040   46.2720 C   0  0  0  0  0  0  0  0  0  0  0  0
   55.9260   25.9620   46.3650 O   0  0  0  0  0  0  0  0  0  0  0  0
   56.2080   28.0990   45.4440 N   0  0  0  0  0  0  0  0  0  0  0  0
   56.9520   28.7210   44.3440 C   0  0  0  0  0  0  0  0  0  0  0  0
   58.2970   29.3010   44.8280 C   0  0  0  0  0  0  0  0  0  0  0  0
   58.2120   30.7360   45.3970 C   0  0  0  0  0  0  0  0  0  0  0  0
   57.0810   31.5310   44.8600 N   0  0  0  0  0  0  0  0  0  0  0  0
   57.3840   32.9680   44.9110 C   0  0  0  0  0  0  0  0  0  0  0  0
   56.7060   31.1260   43.4970 C   0  0  0  0  0  0  0  0  0  0  0  0
   56.0890   29.7250   43.5380 C   0  0  0  0  0  0  0  0  0  0  0  0
   58.7680   26.0750   47.1200 N   0  0  0  0  0  0  0  0  0  0  0  0
   59.7650   26.5170   47.8320 O   0  0  0  0  0  0  0  0  0  0  0  0
   63.4822   33.9235   48.0298 H   0  0  0  0  0  0  0  0  0  0  0  0
   64.3298   33.5937   46.4808 H   0  0  0  0  0  0  0  0  0  0  0  0
   62.5739   33.9725   46.4808 H   0  0  0  0  0  0  0  0  0  0  0  0
   61.4020   34.1130   47.2245 H   0  0  0  0  0  0  0  0  0  0  0  0
   59.0350   34.5534   47.8789 H   0  0  0  0  0  0  0  0  0  0  0  0
   57.6003   32.6907   48.7065 H   0  0  0  0  0  0  0  0  0  0  0  0
   58.5265   30.3828   48.8921 H   0  0  0  0  0  0  0  0  0  0  0  0
   61.3643   27.9216   49.3271 H   0  0  0  0  0  0  0  0  0  0  0  0
   60.0076   28.9736   49.8763 H   0  0  0  0  0  0  0  0  0  0  0  0
   57.8990   29.1888   47.7839 H   0  0  0  0  0  0  0  0  0  0  0  0
   57.2062   27.9283   43.6250 H   0  0  0  0  0  0  0  0  0  0  0  0
   58.6909   28.6423   45.6160 H   0  0  0  0  0  0  0  0  0  0  0  0
   58.9494   29.3545   43.9440 H   0  0  0  0  0  0  0  0  0  0  0  0
   58.1001   30.6691   46.4893 H   0  0  0  0  0  0  0  0  0  0  0  0
   59.1355   31.2529   45.0971 H   0  0  0  0  0  0  0  0  0  0  0  0
   57.4522   33.2913   45.9602 H   0  0  0  0  0  0  0  0  0  0  0  0
   58.3421   33.1589   44.4055 H   0  0  0  0  0  0  0  0  0  0  0  0
   56.5845   33.5295   44.4055 H   0  0  0  0  0  0  0  0  0  0  0  0
   55.9734   31.8386   43.0902 H   0  0  0  0  0  0  0  0  0  0  0  0
   57.5998   31.1168   42.8559 H   0  0  0  0  0  0  0  0  0  0  0  0
   55.0952   29.7905   44.0049 H   0  0  0  0  0  0  0  0  0  0  0  0
   56.0256   29.3567   42.5034 H   0  0  0  0  0  0  0  0  0  0  0  0
  1  2  1  0
  2  3  1  0
  3  4  2  0
  4  5  1  0
  5  6  2  0
  6  7  1  0
  7  8  2  0
  8  9  1  0
  9 10  1  0
 10 11  1  0
 11 12  2  0
 12 13  1  0
 13 14  1  0
 14 15  2  0
 14 16  1  0
 16 17  1  0
 17 18  1  0
 18 19  1  0
 19 20  1  0
 20 21  1  0
 20 22  1  0
 22 23  1  0
 13 24  2  0
 24 25  1  0
  8  3  1  0
 25 11  1  0
 23 17  1  0
  1 26  1  0
  1 27  1  0
  1 28  1  0
  4 29  1  0
  5 30  1  0
  6 31  1  0
  7 32  1  0
 10 33  1  0
 10 34  1  0
 12 35  1  0
 17 36  1  0
 18 37  1  0
 18 38  1  0
 19 39  1  0
 19 40  1  0
 21 41  1  0
 21 42  1  0
 21 43  1  0
 22 44  1  0
 22 45  1  0
 23 46  1  0
 23 47  1  0
M  CHG  1  16  -1
M  END
>  <UniqueID>  (22) 
20

>  <SMILES>  (22) 
CSc1ccccc1OCc1cc(C(=O)[N-]C2CCN(C)CC2)no1

>  <Energy>  (22) 
80.41448826873946

>  <Genealogy>  (22) 
CSc1ccccc1OCc1cc(C(=O)[N-]C2CCN(C)CC2)no1 (protonated)
CSc1ccccc1OCc1cc(C(=O)[N-]C2CCN(C)CC2)no1 (3D coordinates assigned)
CSc1ccccc1OCc1cc(C(=O)[N-]C2CCN(C)CC2)no1 (nonaromatic ring conformer: 80.41448826873946 kcal/mol)

>  <smiles>  (22) 
CSc1ccccc1OCc1cc(C(=O)NC2CCN(C)CC2)no1

>  <score_type>  (22) 
oracle

>  <origin>  (22) 
adg

>  <m_score__min__energy>  (22) 
-9.6400000000000006

>  <m_primary>  (22) 
energy

$$$$
22:0
     RDKit          3D

 28 29  0  0  0  0  0  0  0  0999 V2000
   59.2820   34.9440   47.1330 C   0  0  0  0  0  0  0  0  0  0  0  0
   58.7880   33.9170   46.2180 C   0  0  0  0  0  0  0  0  0  0  0  0
   58.8430   32.5960   46.6080 C   0  0  0  0  0  0  0  0  0  0  0  0
   58.3780   31.6400   45.7390 C   0  0  0  0  0  0  0  0  0  0  0  0
   57.8560   31.9220   44.4900 C   0  0  0  0  0  0  0  0  0  0  0  0
   57.3870   30.8020   43.6450 C   0  0  0  0  0  0  0  0  0  0  0  0
   57.5840   29.4710   44.2710 C   0  0  0  0  0  0  0  0  0  0  0  0
   58.7930   28.8800   44.2170 N   0  0  0  0  0  0  0  0  0  0  0  0
   59.0550   27.6720   44.7470 C   0  0  0  0  0  0  0  0  0  0  0  0
   58.0640   27.0120   45.3680 N   0  0  0  0  0  0  0  0  0  0  0  0
   56.8190   27.5310   45.4700 C   0  0  0  0  0  0  0  0  0  0  0  0
   55.8830   26.8930   46.0640 O   0  0  0  0  0  0  0  0  0  0  0  0
   56.5770   28.7810   44.9110 C   0  0  0  0  0  0  0  0  0  0  0  0
   55.3040   29.2950   45.0260 O   0  0  0  0  0  0  0  0  0  0  0  0
   57.8120   33.2480   44.1210 C   0  0  0  0  0  0  0  0  0  0  0  0
   58.2710   34.2250   44.9730 C   0  0  0  0  0  0  0  0  0  0  0  0
   59.1245   34.6165   48.1712 H   0  0  0  0  0  0  0  0  0  0  0  0
   60.3560   35.1049   46.9582 H   0  0  0  0  0  0  0  0  0  0  0  0
   58.7373   35.8835   46.9582 H   0  0  0  0  0  0  0  0  0  0  0  0
   59.2492   32.3148   47.5908 H   0  0  0  0  0  0  0  0  0  0  0  0
   58.4234   30.5874   46.0552 H   0  0  0  0  0  0  0  0  0  0  0  0
   56.3136   30.9394   43.4476 H   0  0  0  0  0  0  0  0  0  0  0  0
   57.9842   30.8189   42.7214 H   0  0  0  0  0  0  0  0  0  0  0  0
   59.6160   29.3480   43.7410 H   0  0  0  0  0  0  0  0  0  0  0  0
   60.0611   27.2333   44.6733 H   0  0  0  0  0  0  0  0  0  0  0  0
   55.1480   30.0910   45.6560 H   0  0  0  0  0  0  0  0  0  0  0  0
   57.4067   33.5278   43.1374 H   0  0  0  0  0  0  0  0  0  0  0  0
   58.2258   35.2775   44.6563 H   0  0  0  0  0  0  0  0  0  0  0  0
  1  2  1  0
  2  3  2  0
  3  4  1  0
  4  5  2  0
  5  6  1  0
  6  7  1  0
  7  8  1  0
  8  9  1  0
  9 10  2  0
 10 11  1  0
 11 12  2  0
 11 13  1  0
 13 14  1  0
  5 15  1  0
 15 16  2  0
 16  2  1  0
 13  7  2  0
  1 17  1  0
  1 18  1  0
  1 19  1  0
  3 20  1  0
  4 21  1  0
  6 22  1  0
  6 23  1  0
  8 24  1  0
  9 25  1  0
 14 26  1  0
 15 27  1  0
 16 28  1  0
M  END
>  <smiles>  (23) 
Cc1ccc(Cc2[nH]cnc(=O)c2O)cc1

>  <score_type>  (23) 
oracle

>  <origin>  (23) 
adg

>  <m_score__min__energy>  (23) 
-7.4100000000000001

>  <m_primary>  (23) 
energy

$$$$
23:0
     RDKit          3D

 50 53  0  0  0  0  0  0  0  0999 V2000
   61.3730   29.5990   50.3710 C   0  0  0  0  0  0  0  0  0  0  0  0
   60.7850   29.9850   49.0770 N   0  0  0  0  0  0  0  0  0  0  0  0
   59.6430   29.1170   48.7040 C   0  0  0  0  0  0  0  0  0  0  0  0
   59.5860   28.7860   47.2250 C   0  0  0  0  0  0  0  0  0  0  0  0
   60.5070   29.3580   46.3300 C   0  0  0  0  0  0  0  0  0  0  0  0
   60.4410   29.0630   44.9660 C   0  0  0  0  0  0  0  0  0  0  0  0
   59.4620   28.1920   44.4830 C   0  0  0  0  0  0  0  0  0  0  0  0
   58.5490   27.6100   45.3660 C   0  0  0  0  0  0  0  0  0  0  0  0
   58.6100   27.9030   46.7320 C   0  0  0  0  0  0  0  0  0  0  0  0
   60.4410   31.4220   49.0320 C   0  0  0  0  0  0  0  0  0  0  0  0
   61.4350   32.1820   48.1800 C   0  0  0  0  0  0  0  0  0  0  0  0
   62.7530   31.6910   48.1450 C   0  0  0  0  0  0  0  0  0  0  0  0
   63.7420   32.3430   47.4100 C   0  0  0  0  0  0  0  0  0  0  0  0
   63.4350   33.5020   46.7030 C   0  0  0  0  0  0  0  0  0  0  0  0
   62.1380   34.0140   46.7300 C   0  0  0  0  0  0  0  0  0  0  0  0
   61.1220   33.3740   47.4650 C   0  0  0  0  0  0  0  0  0  0  0  0
   59.7380   33.9910   47.4180 C   0  0  0  0  0  0  0  0  0  0  0  0
   58.9450   33.3900   46.3460 N   0  0  0  0  0  0  0  0  0  0  0  0
   58.9290   33.7900   44.9730 C   0  0  0  0  0  0  0  0  0  0  0  0
   59.4120   34.8710   44.5420 O   0  0  0  0  0  0  0  0  0  0  0  0
   58.2780   32.7690   44.1600 C   0  0  0  0  0  0  0  0  0  0  0  0
   58.0280   32.7200   42.7890 C   0  0  0  0  0  0  0  0  0  0  0  0
   57.3770   31.5820   42.2780 C   0  0  0  0  0  0  0  0  0  0  0  0
   56.9950   30.5300   43.1390 C   0  0  0  0  0  0  0  0  0  0  0  0
   57.2590   30.6050   44.5180 C   0  0  0  0  0  0  0  0  0  0  0  0
   57.9040   31.7430   44.9990 C   0  0  0  0  0  0  0  0  0  0  0  0
   58.3160   32.1030   46.3510 C   0  0  0  0  0  0  0  0  0  0  0  0
   58.1440   31.3970   47.3780 O   0  0  0  0  0  0  0  0  0  0  0  0
   60.7577   30.0029   51.1884 H   0  0  0  0  0  0  0  0  0  0  0  0
   61.4074   28.5021   50.4455 H   0  0  0  0  0  0  0  0  0  0  0  0
   62.3931   30.0037   50.4455 H   0  0  0  0  0  0  0  0  0  0  0  0
   59.7237   28.1758   49.2676 H   0  0  0  0  0  0  0  0  0  0  0  0
   58.7248   29.6730   48.9445 H   0  0  0  0  0  0  0  0  0  0  0  0
   61.2832   30.0410   46.7054 H   0  0  0  0  0  0  0  0  0  0  0  0
   61.1619   29.5179   44.2708 H   0  0  0  0  0  0  0  0  0  0  0  0
   59.4098   27.9643   43.4081 H   0  0  0  0  0  0  0  0  0  0  0  0
   57.7810   26.9202   44.9861 H   0  0  0  0  0  0  0  0  0  0  0  0
   57.8908   27.4403   47.4238 H   0  0  0  0  0  0  0  0  0  0  0  0
   59.4343   31.5394   48.6044 H   0  0  0  0  0  0  0  0  0  0  0  0
   60.4697   31.8254   50.0549 H   0  0  0  0  0  0  0  0  0  0  0  0
   63.0068   30.7793   48.7058 H   0  0  0  0  0  0  0  0  0  0  0  0
   64.7658   31.9412   47.3888 H   0  0  0  0  0  0  0  0  0  0  0  0
   64.2161   34.0146   46.1224 H   0  0  0  0  0  0  0  0  0  0  0  0
   61.9055   34.9311   46.1689 H   0  0  0  0  0  0  0  0  0  0  0  0
   59.2332   33.8212   48.3804 H   0  0  0  0  0  0  0  0  0  0  0  0
   59.8359   35.0697   47.2260 H   0  0  0  0  0  0  0  0  0  0  0  0
   58.3303   33.5453   42.1276 H   0  0  0  0  0  0  0  0  0  0  0  0
   57.1643   31.5114   41.2011 H   0  0  0  0  0  0  0  0  0  0  0  0
   56.4871   29.6452   42.7278 H   0  0  0  0  0  0  0  0  0  0  0  0
   56.9654   29.7904   45.1964 H   0  0  0  0  0  0  0  0  0  0  0  0
  1  2  1  0
  2  3  1  0
  3  4  1  0
  4  5  2  0
  5  6  1  0
  6  7  2  0
  7  8  1  0
  8  9  2  0
  2 10  1  0
 10 11  1  0
 11 12  2  0
 12 13  1  0
 13 14  2  0
 14 15  1  0
 15 16  2  0
 16 17  1  0
 17 18  1  0
 18 19  1  0
 19 20  2  0
 19 21  1  0
 21 22  2  0
 22 23  1  0
 23 24  2  0
 24 25  1  0
 25 26  2  0
 26 27  1  0
 27 28  2  0
  9  4  1  0
 16 11  1  0
 27 18  1  0
 26 21  1  0
  1 29  1  0
  1 30  1  0
  1 31  1  0
  3 32  1  0
  3 33  1  0
  5 34  1  0
  6 35  1  0
  7 36  1  0
  8 37  1  0
  9 38  1  0
 10 39  1  0
 10 40  1  0
 12 41  1  0
 13 42  1  0
 14 43  1  0
 15 44  1  0
 17 45  1  0
 17 46  1  0
 22 47  1  0
 23 48  1  0
 24 49  1  0
 25 50  1  0
M  END
>  <UniqueID>  (24) 
21

>  <SMILES>  (24) 
CN(Cc1ccccc1)Cc1ccccc1CN1C(=O)c2ccccc2C1=O

>  <Energy>  (24) 
90.81040908513974

>  <Genealogy>  (24) 
CN(Cc1ccccc1)Cc1ccccc1CN1C(=O)c2ccccc2C1=O (3D coordinates assigned)
CN(Cc1ccccc1)Cc1ccccc1CN1C(=O)c2ccccc2C1=O (nonaromatic ring conformer: 90.81040908513974 kcal/mol)

>  <smiles>  (24) 
CN(Cc1ccccc1)Cc1ccccc1CN1C(=O)c2ccccc2C1=O

>  <score_type>  (24) 
oracle

>  <origin>  (24) 
adg

>  <m_score__min__energy>  (24) 
-9.0399999999999991

>  <m_primary>  (24) 
energy

$$$$
24:0
     RDKit          3D

 44 46  0  0  0  0  0  0  0  0999 V2000
   56.0200   29.6770   45.3680 O   0  0  0  0  0  0  0  0  0  0  0  0
   56.3690   29.3210   44.2120 C   0  0  0  0  0  0  0  0  0  0  0  0
   55.8580   30.0910   43.0210 C   0  0  0  0  0  0  0  0  0  0  0  0
   57.0030   30.7520   42.2470 C   0  0  0  0  0  0  0  0  0  0  0  0
   57.8210   31.6480   43.1300 C   0  0  0  0  0  0  0  0  0  0  0  0
   58.2260   32.7540   42.6800 O   0  0  0  0  0  0  0  0  0  0  0  0
   58.1380   31.2460   44.4730 N   0  0  0  0  0  0  0  0  0  0  0  0
   58.5600   32.1540   45.5040 C   0  0  0  0  0  0  0  0  0  0  0  0
   57.8550   33.3510   45.7670 C   0  0  0  0  0  0  0  0  0  0  0  0
   58.2620   34.2020   46.8050 C   0  0  0  0  0  0  0  0  0  0  0  0
   59.3680   33.8450   47.5740 C   0  0  0  0  0  0  0  0  0  0  0  0
   60.0520   32.6830   47.3330 C   0  0  0  0  0  0  0  0  0  0  0  0
   59.6600   31.8120   46.3130 C   0  0  0  0  0  0  0  0  0  0  0  0
   61.1810   32.4970   48.2720 C   0  0  0  0  0  0  0  0  0  0  0  0
   61.1660   33.7720   49.1340 C   0  0  0  0  0  0  0  0  0  0  0  0
   59.9400   34.6030   48.7100 C   0  0  0  0  0  0  0  0  0  0  0  0
   57.3390   28.2760   44.0740 N   0  0  0  0  0  0  0  0  0  0  0  0
   58.1540   27.7430   45.1280 C   0  0  0  0  0  0  0  0  0  0  0  0
   59.4420   28.2620   45.3550 C   0  0  0  0  0  0  0  0  0  0  0  0
   60.2730   27.7020   46.3250 C   0  0  0  0  0  0  0  0  0  0  0  0
   59.8400   26.6000   47.0630 C   0  0  0  0  0  0  0  0  0  0  0  0
   58.5770   26.0540   46.8270 C   0  0  0  0  0  0  0  0  0  0  0  0
   57.7200   26.6110   45.8590 C   0  0  0  0  0  0  0  0  0  0  0  0
   56.4180   26.0320   45.6440 N   0  0  0  0  0  0  0  0  0  0  0  0
   56.3090   24.8700   45.2000 O   0  0  0  0  0  0  0  0  0  0  0  0
   55.2760   26.7100   46.0060 O   0  0  0  0  0  0  0  0  0  0  0  0
   55.3251   29.4005   42.3507 H   0  0  0  0  0  0  0  0  0  0  0  0
   55.1848   30.8817   43.3839 H   0  0  0  0  0  0  0  0  0  0  0  0
   57.6538   29.9677   41.8332 H   0  0  0  0  0  0  0  0  0  0  0  0
   56.5672   31.3646   41.4440 H   0  0  0  0  0  0  0  0  0  0  0  0
   58.1050   30.2260   44.7000 H   0  0  0  0  0  0  0  0  0  0  0  0
   56.9815   33.6166   45.1535 H   0  0  0  0  0  0  0  0  0  0  0  0
   57.7172   35.1357   47.0087 H   0  0  0  0  0  0  0  0  0  0  0  0
   60.2041   30.8710   46.1444 H   0  0  0  0  0  0  0  0  0  0  0  0
   61.0281   31.6030   48.8944 H   0  0  0  0  0  0  0  0  0  0  0  0
   62.1403   32.3483   47.7547 H   0  0  0  0  0  0  0  0  0  0  0  0
   61.0889   33.5049   50.1983 H   0  0  0  0  0  0  0  0  0  0  0  0
   62.0925   34.3474   48.9909 H   0  0  0  0  0  0  0  0  0  0  0  0
   59.2152   34.6786   49.5339 H   0  0  0  0  0  0  0  0  0  0  0  0
   60.2024   35.6365   48.4397 H   0  0  0  0  0  0  0  0  0  0  0  0
   59.7969   29.1176   44.7617 H   0  0  0  0  0  0  0  0  0  0  0  0
   61.2699   28.1292   46.5082 H   0  0  0  0  0  0  0  0  0  0  0  0
   60.4939   26.1612   47.8310 H   0  0  0  0  0  0  0  0  0  0  0  0
   58.2474   25.1778   47.4046 H   0  0  0  0  0  0  0  0  0  0  0  0
  1  2  2  0
  2  3  1  0
  3  4  1  0
  4  5  1  0
  5  6  2  0
  5  7  1  0
  7  8  1  0
  8  9  2  0
  9 10  1  0
 10 11  2  0
 11 12  1  0
 12 13  2  0
 12 14  1  0
 14 15  1  0
 15 16  1  0
  2 17  1  0
 17 18  1  0
 18 19  2  0
 19 20  1  0
 20 21  2  0
 21 22  1  0
 22 23  2  0
 23 24  1  0
 24 25  2  0
 24 26  1  0
 13  8  1  0
 23 18  1  0
 16 11  1  0
  3 27  1  0
  3 28  1  0
  4 29  1  0
  4 30  1  0
  7 31  1  0
  9 32  1  0
 10 33  1  0
 13 34  1  0
 14 35  1  0
 14 36  1  0
 15 37  1  0
 15 38  1  0
 16 39  1  0
 16 40  1  0
 19 41  1  0
 20 42  1  0
 21 43  1  0
 22 44  1  0
M  CHG  3  17  -1  24   1  26  -1
M  END
>  <UniqueID>  (25) 
22

>  <SMILES>  (25) 
O=C(CCC(=O)Nc1ccc2c(c1)CCC2)[N-]c1ccccc1[N+](=O)[O-]

>  <Energy>  (25) 
61.476538268791884

>  <Genealogy>  (25) 
O=C(CCC(=O)Nc1ccc2c(c1)CCC2)[N-]c1ccccc1[N+](=O)[O-] (protonated)
O=C(CCC(=O)Nc1ccc2c(c1)CCC2)[N-]c1ccccc1[N+](=O)[O-] (3D coordinates assigned)
O=C(CCC(=O)Nc1ccc2c(c1)CCC2)[N-]c1ccccc1[N+](=O)[O-] (nonaromatic ring conformer: 61.476538268791884 kcal/mol)

>  <smiles>  (25) 
O=C(CCC(=O)Nc1ccccc1[N+](=O)[O-])Nc1ccc2c(c1)CCC2

>  <score_type>  (25) 
oracle

>  <origin>  (25) 
adg

>  <m_score__min__energy>  (25) 
-12.130000000000001

>  <m_primary>  (25) 
energy

$$$$
25:0
     RDKit          3D

 38 40  0  0  0  0  0  0  0  0999 V2000
   55.6670   24.1130   44.2700 C   0  0  0  0  0  0  0  0  0  0  0  0
   54.7200   24.7300   45.6450 S   0  0  0  0  0  0  0  0  0  0  0  0
   53.2660   24.7280   45.2700 O   0  0  0  0  0  0  0  0  0  0  0  0
   54.9090   23.8510   46.8490 O   0  0  0  0  0  0  0  0  0  0  0  0
   55.2000   26.3550   46.0170 N   0  0  0  0  0  0  0  0  0  0  0  0
   56.5420   26.8590   45.9900 C   0  0  0  0  0  0  0  0  0  0  0  0
   57.6120   26.1980   46.6560 C   0  0  0  0  0  0  0  0  0  0  0  0
   58.9180   26.7210   46.6110 C   0  0  0  0  0  0  0  0  0  0  0  0
   59.1170   27.8990   45.9020 C   0  0  0  0  0  0  0  0  0  0  0  0
   60.2490   28.6450   45.6520 C   0  0  0  0  0  0  0  0  0  0  0  0
   59.9010   29.7010   44.8770 N   0  0  0  0  0  0  0  0  0  0  0  0
   58.5910   29.6400   44.6510 N   0  0  0  0  0  0  0  0  0  0  0  0
   57.8750   30.5770   43.7910 C   0  0  0  0  0  0  0  0  0  0  0  0
   56.6290   31.0410   44.4740 C   0  0  0  0  0  0  0  0  0  0  0  0
   55.5790   30.3470   44.3960 O   0  0  0  0  0  0  0  0  0  0  0  0
   56.6640   32.2160   45.2900 N   0  0  0  0  0  0  0  0  0  0  0  0
   57.8430   32.9840   45.5560 C   0  0  0  0  0  0  0  0  0  0  0  0
   58.0210   34.1940   44.8710 C   0  0  0  0  0  0  0  0  0  0  0  0
   59.1610   34.9720   45.0910 C   0  0  0  0  0  0  0  0  0  0  0  0
   60.1240   34.5540   46.0120 C   0  0  0  0  0  0  0  0  0  0  0  0
   59.9400   33.3670   46.7260 C   0  0  0  0  0  0  0  0  0  0  0  0
   58.8010   32.5810   46.5120 C   0  0  0  0  0  0  0  0  0  0  0  0
   58.5670   31.1580   47.5190 Cl  0  0  0  0  0  0  0  0  0  0  0  0
   58.0990   28.5440   45.2610 C   0  0  0  0  0  0  0  0  0  0  0  0
   56.7930   28.0510   45.2790 C   0  0  0  0  0  0  0  0  0  0  0  0
   56.5333   23.5486   44.6453 H   0  0  0  0  0  0  0  0  0  0  0  0
   55.0362   23.4521   43.6575 H   0  0  0  0  0  0  0  0  0  0  0  0
   56.0167   24.9571   43.6575 H   0  0  0  0  0  0  0  0  0  0  0  0
   57.4164   25.2690   47.2116 H   0  0  0  0  0  0  0  0  0  0  0  0
   59.7518   26.2147   47.1194 H   0  0  0  0  0  0  0  0  0  0  0  0
   61.2616   28.4214   46.0188 H   0  0  0  0  0  0  0  0  0  0  0  0
   58.5191   31.4430   43.5787 H   0  0  0  0  0  0  0  0  0  0  0  0
   57.6074   30.0743   42.8499 H   0  0  0  0  0  0  0  0  0  0  0  0
   57.2579   34.5336   44.1552 H   0  0  0  0  0  0  0  0  0  0  0  0
   59.2997   35.9133   44.5389 H   0  0  0  0  0  0  0  0  0  0  0  0
   61.0277   35.1594   46.1754 H   0  0  0  0  0  0  0  0  0  0  0  0
   60.6943   33.0482   47.4604 H   0  0  0  0  0  0  0  0  0  0  0  0
   55.9826   28.5773   44.7535 H   0  0  0  0  0  0  0  0  0  0  0  0
  1  2  1  0
  2  3  2  0
  2  4  2  0
  2  5  1  0
  5  6  1  0
  6  7  2  0
  7  8  1  0
  8  9  2  0
  9 10  1  0
 10 11  2  0
 11 12  1  0
 12 13  1  0
 13 14  1  0
 14 15  2  0
 14 16  1  0
 16 17  1  0
 17 18  2  0
 18 19  1  0
 19 20  2  0
 20 21  1  0
 21 22  2  0
 22 23  1  0
 12 24  1  0
 24 25  2  0
 25  6  1  0
 24  9  1  0
 22 17  1  0
  1 26  1  0
  1 27  1  0
  1 28  1  0
  7 29  1  0
  8 30  1  0
 10 31  1  0
 13 32  1  0
 13 33  1  0
 18 34  1  0
 19 35  1  0
 20 36  1  0
 21 37  1  0
 25 38  1  0
M  CHG  2   5  -1  16  -1
M  END
>  <UniqueID>  (26) 
23

>  <SMILES>  (26) 
CS(=O)(=O)[N-]c1ccc2cnn(CC(=O)[N-]c3ccccc3Cl)c2c1

>  <Energy>  (26) 
82.74514553339289

>  <Genealogy>  (26) 
CS(=O)(=O)[N-]c1ccc2cnn(CC(=O)[N-]c3ccccc3Cl)c2c1 (protonated)
CS(=O)(=O)[N-]c1ccc2cnn(CC(=O)[N-]c3ccccc3Cl)c2c1 (3D coordinates assigned)
CS(=O)(=O)[N-]c1ccc2cnn(CC(=O)[N-]c3ccccc3Cl)c2c1 (optimized conformer: 82.74514553339289 kcal/mol)

>  <smiles>  (26) 
CS(=O)(=O)Nc1ccc2cnn(CC(=O)Nc3ccccc3Cl)c2c1

>  <score_type>  (26) 
oracle

>  <origin>  (26) 
adg

>  <m_score__min__energy>  (26) 
-12.390000000000001

>  <m_primary>  (26) 
energy

$$$$
26:0
     RDKit          3D

 55 58  0  0  0  0  0  0  0  0999 V2000
   53.5460   24.8350   45.5300 C   0  0  0  0  0  0  0  0  0  0  0  0
   54.4350   25.9150   45.7920 O   0  0  0  0  0  0  0  0  0  0  0  0
   55.8210   25.7790   45.9720 C   0  0  0  0  0  0  0  0  0  0  0  0
   56.4050   24.5700   46.3970 C   0  0  0  0  0  0  0  0  0  0  0  0
   57.7870   24.4720   46.5630 C   0  0  0  0  0  0  0  0  0  0  0  0
   58.6020   25.5710   46.3000 C   0  0  0  0  0  0  0  0  0  0  0  0
   58.0380   26.7750   45.8730 C   0  0  0  0  0  0  0  0  0  0  0  0
   56.6430   26.8950   45.7250 C   0  0  0  0  0  0  0  0  0  0  0  0
   56.0330   28.1100   45.2610 N   0  0  0  0  0  0  0  0  0  0  0  0
   56.6660   29.3880   45.1140 C   0  0  0  0  0  0  0  0  0  0  0  0
   55.9900   30.4140   44.8410 O   0  0  0  0  0  0  0  0  0  0  0  0
   58.1520   29.4940   45.2820 C   0  0  0  0  0  0  0  0  0  0  0  0
   58.4980   30.4060   46.3980 N   0  0  0  0  0  0  0  0  0  0  0  0
   58.7870   29.8650   47.6300 C   0  0  0  0  0  0  0  0  0  0  0  0
   58.7530   28.6180   47.8140 O   0  0  0  0  0  0  0  0  0  0  0  0
   59.1190   30.6780   48.7090 C   0  0  0  0  0  0  0  0  0  0  0  0
   59.1310   32.0600   48.5730 C   0  0  0  0  0  0  0  0  0  0  0  0
   59.5230   33.0490   50.0330 S   0  0  0  0  0  0  0  0  0  0  0  0
   59.9010   31.6170   51.1020 C   0  0  0  0  0  0  0  0  0  0  0  0
   61.3870   31.4710   51.2690 C   0  0  0  0  0  0  0  0  0  0  0  0
   61.8890   31.6330   52.4130 O   0  0  0  0  0  0  0  0  0  0  0  0
   62.2660   31.3380   50.1430 N   0  0  0  0  0  0  0  0  0  0  0  0
   62.5710   32.2590   49.2770 C   0  0  0  0  0  0  0  0  0  0  0  0
   62.7930   32.1050   47.9180 C   0  0  0  0  0  0  0  0  0  0  0  0
   63.1140   33.3860   47.5070 C   0  0  0  0  0  0  0  0  0  0  0  0
   63.4100   33.8160   46.1110 C   0  0  0  0  0  0  0  0  0  0  0  0
   63.0850   34.1970   48.5420 O   0  0  0  0  0  0  0  0  0  0  0  0
   62.7680   33.5430   49.6190 N   0  0  0  0  0  0  0  0  0  0  0  0
   58.8310   32.6350   47.3240 C   0  0  0  0  0  0  0  0  0  0  0  0
   58.8400   34.0330   47.1420 C   0  0  0  0  0  0  0  0  0  0  0  0
   58.5130   34.5920   45.9090 C   0  0  0  0  0  0  0  0  0  0  0  0
   58.1710   33.7730   44.8410 C   0  0  0  0  0  0  0  0  0  0  0  0
   58.1580   32.3870   44.9920 C   0  0  0  0  0  0  0  0  0  0  0  0
   58.4970   31.7830   46.2300 C   0  0  0  0  0  0  0  0  0  0  0  0
   53.1956   24.4093   46.4819 H   0  0  0  0  0  0  0  0  0  0  0  0
   52.6842   25.2012   44.9528 H   0  0  0  0  0  0  0  0  0  0  0  0
   54.0711   24.0596   44.9528 H   0  0  0  0  0  0  0  0  0  0  0  0
   55.7673   23.6969   46.5995 H   0  0  0  0  0  0  0  0  0  0  0  0
   58.2337   23.5257   46.9020 H   0  0  0  0  0  0  0  0  0  0  0  0
   59.6914   25.4901   46.4289 H   0  0  0  0  0  0  0  0  0  0  0  0
   58.6874   27.6347   45.6510 H   0  0  0  0  0  0  0  0  0  0  0  0
   58.5620   28.4954   45.4935 H   0  0  0  0  0  0  0  0  0  0  0  0
   58.5811   29.8988   44.3535 H   0  0  0  0  0  0  0  0  0  0  0  0
   59.3740   30.2227   49.6773 H   0  0  0  0  0  0  0  0  0  0  0  0
   59.4378   31.7677   52.0883 H   0  0  0  0  0  0  0  0  0  0  0  0
   59.5014   30.7051   50.6343 H   0  0  0  0  0  0  0  0  0  0  0  0
   62.7295   31.1881   47.3137 H   0  0  0  0  0  0  0  0  0  0  0  0
   64.0336   34.7219   46.1308 H   0  0  0  0  0  0  0  0  0  0  0  0
   63.9472   33.0125   45.5859 H   0  0  0  0  0  0  0  0  0  0  0  0
   62.4676   34.0310   45.5859 H   0  0  0  0  0  0  0  0  0  0  0  0
   62.6790   33.9640   50.5710 H   0  0  0  0  0  0  0  0  0  0  0  0
   59.1082   34.6894   47.9830 H   0  0  0  0  0  0  0  0  0  0  0  0
   58.5257   35.6844   45.7809 H   0  0  0  0  0  0  0  0  0  0  0  0
   57.9090   34.2201   43.8707 H   0  0  0  0  0  0  0  0  0  0  0  0
   57.8805   31.7519   44.1378 H   0  0  0  0  0  0  0  0  0  0  0  0
  1  2  1  0
  2  3  1  0
  3  4  2  0
  4  5  1  0
  5  6  2  0
  6  7  1  0
  7  8  2  0
  8  9  1  0
  9 10  1  0
 10 11  2  0
 10 12  1  0
 12 13  1  0
 13 14  1  0
 14 15  2  0
 14 16  1  0
 16 17  2  0
 17 18  1  0
 18 19  1  0
 19 20  1  0
 20 21  2  0
 20 22  1  0
 22 23  2  3
 23 24  1  0
 24 25  2  0
 25 26  1  0
 25 27  1  0
 27 28  1  0
 17 29  1  0
 29 30  2  0
 30 31  1  0
 31 32  2  0
 32 33  1  0
 33 34  2  0
  8  3  1  0
 34 13  1  0
 28 23  1  0
 34 29  1  0
  1 35  1  0
  1 36  1  0
  1 37  1  0
  4 38  1  0
  5 39  1  0
  6 40  1  0
  7 41  1  0
 12 42  1  0
 12 43  1  0
 16 44  1  0
 19 45  1  0
 19 46  1  0
 24 47  1  0
 26 48  1  0
 26 49  1  0
 26 50  1  0
 28 51  1  0
 30 52  1  0
 31 53  1  0
 32 54  1  0
 33 55  1  0
M  CHG  1   9  -1
M  END
>  <UniqueID>  (27) 
24

>  <SMILES>  (27) 
COc1ccccc1[N-]C(=O)Cn1c(=O)cc(SCC(=O)N=c2cc(C)o[nH]2)c2ccccc21

>  <Energy>  (27) 
104.6474443174778

>  <Genealogy>  (27) 
COc1ccccc1[N-]C(=O)Cn1c(=O)cc(SCC(=O)N=c2cc(C)o[nH]2)c2ccccc21 (protonated)
COc1ccccc1[N-]C(=O)Cn1c(=O)cc(SCC(=O)N=c2cc(C)o[nH]2)c2ccccc21 (3D coordinates assigned)
COc1ccccc1[N-]C(=O)Cn1c(=O)cc(SCC(=O)N=c2cc(C)o[nH]2)c2ccccc21 (optimized conformer: 104.6474443174778 kcal/mol)

>  <smiles>  (27) 
COc1ccccc1NC(=O)Cn1c(=O)cc(SCC(=O)N=c2cc(C)o[nH]2)c2ccccc21

>  <score_type>  (27) 
oracle

>  <origin>  (27) 
adg

>  <m_score__min__energy>  (27) 
-11.369999999999999

>  <m_primary>  (27) 
energy

$$$$
27:0
     RDKit          3D

 35 37  0  0  0  0  0  0  0  0999 V2000
   55.3670   28.7030   45.6430 H   0  0  0  0  0  0  0  0  0  0  0  0
   55.1380   29.3580   44.8620 N   0  0  0  0  0  0  0  0  0  0  0  0
   56.6170   29.6820   44.0280 S   0  0  0  0  0  0  0  0  0  0  0  0
   56.3140   30.1470   42.6320 O   0  0  0  0  0  0  0  0  0  0  0  0
   57.4320   28.4220   43.9510 O   0  0  0  0  0  0  0  0  0  0  0  0
   57.5170   30.9250   44.8890 C   0  0  0  0  0  0  0  0  0  0  0  0
   58.3090   30.5850   45.9950 C   0  0  0  0  0  0  0  0  0  0  0  0
   58.3748   29.5365   46.3212 H   0  0  0  0  0  0  0  0  0  0  0  0
   59.0150   31.5750   46.6840 C   0  0  0  0  0  0  0  0  0  0  0  0
   59.6202   31.3062   47.5623 H   0  0  0  0  0  0  0  0  0  0  0  0
   58.9540   32.9130   46.2580 C   0  0  0  0  0  0  0  0  0  0  0  0
   59.6260   33.9480   46.9880 N   0  0  0  0  0  0  0  0  0  0  0  0
   60.2800   33.8930   48.1200 C   0  0  0  0  0  0  0  0  0  0  0  0
   59.5170   34.0490   49.2850 C   0  0  0  0  0  0  0  0  0  0  0  0
   58.4651   34.3617   49.2097 H   0  0  0  0  0  0  0  0  0  0  0  0
   60.0800   33.8110   50.5410 C   0  0  0  0  0  0  0  0  0  0  0  0
   59.2380   33.8830   51.7740 C   0  0  0  0  0  0  0  0  0  0  0  0
   59.8838   33.8278   52.6628 H   0  0  0  0  0  0  0  0  0  0  0  0
   58.6818   34.8320   51.7833 H   0  0  0  0  0  0  0  0  0  0  0  0
   58.5288   33.0422   51.7833 H   0  0  0  0  0  0  0  0  0  0  0  0
   61.3830   33.4470   50.6370 N   0  0  0  0  0  0  0  0  0  0  0  0
   62.1930   33.3660   49.5500 C   0  0  0  0  0  0  0  0  0  0  0  0
   63.5450   33.0560   49.7350 C   0  0  0  0  0  0  0  0  0  0  0  0
   63.9149   32.7903   50.7363 H   0  0  0  0  0  0  0  0  0  0  0  0
   64.4240   33.0830   48.6540 C   0  0  0  0  0  0  0  0  0  0  0  0
   65.4798   32.8092   48.7965 H   0  0  0  0  0  0  0  0  0  0  0  0
   63.9650   33.4570   47.3920 C   0  0  0  0  0  0  0  0  0  0  0  0
   64.6687   33.5140   46.5485 H   0  0  0  0  0  0  0  0  0  0  0  0
   62.6150   33.7600   47.1930 C   0  0  0  0  0  0  0  0  0  0  0  0
   62.2729   34.0932   46.2021 H   0  0  0  0  0  0  0  0  0  0  0  0
   61.6830   33.6430   48.2520 C   0  0  0  0  0  0  0  0  0  0  0  0
   58.1270   33.2560   45.1830 C   0  0  0  0  0  0  0  0  0  0  0  0
   58.0334   34.3089   44.8785 H   0  0  0  0  0  0  0  0  0  0  0  0
   57.4190   32.2670   44.4940 C   0  0  0  0  0  0  0  0  0  0  0  0
   56.7832   32.5422   43.6396 H   0  0  0  0  0  0  0  0  0  0  0  0
  1  2  1  0
  2  3  1  0
  3  4  2  0
  3  5  2  0
  3  6  1  0
  6  7  2  0
  7  8  1  0
  7  9  1  0
  9 10  1  0
  9 11  2  0
 11 12  1  0
 12 13  2  0
 13 14  1  0
 14 15  1  0
 14 16  2  0
 16 17  1  0
 17 18  1  0
 17 19  1  0
 17 20  1  0
 16 21  1  0
 21 22  1  0
 22 23  2  0
 23 24  1  0
 23 25  1  0
 25 26  1  0
 25 27  2  0
 27 28  1  0
 27 29  1  0
 29 30  1  0
 29 31  2  0
 11 32  1  0
 32 33  1  0
 32 34  2  0
 34 35  1  0
 34  6  1  0
 31 13  1  0
 31 22  1  0
M  CHG  2   2  -1  21  -1
M  END
>  <UniqueID>  (28) 
25

>  <SMILES>  (28) 
Cc1c/c(=N/c2ccc(S([NH-])(=O)=O)cc2)c2ccccc2[n-]1

>  <Energy>  (28) 
59.36309103905329

>  <Genealogy>  (28) 
Cc1cc(=Nc2ccc(S([NH-])(=O)=O)cc2)c2ccccc2[n-]1 (protonated)
Cc1c/c(=N/c2ccc(S([NH-])(=O)=O)cc2)c2ccccc2[n-]1 (cis-trans isomerization)
Cc1c/c(=N/c2ccc(S([NH-])(=O)=O)cc2)c2ccccc2[n-]1 (3D coordinates assigned)
Cc1c/c(=N/c2ccc(S([NH-])(=O)=O)cc2)c2ccccc2[n-]1 (optimized conformer: 59.36309103905329 kcal/mol)

>  <smiles>  (28) 
Cc1cc(=Nc2ccc(S(N)(=O)=O)cc2)c2ccccc2[nH]1

>  <score_type>  (28) 
oracle

>  <origin>  (28) 
adg

>  <m_score__min__energy>  (28) 
-11.6

>  <m_primary>  (28) 
energy

$$$$
28:0
     RDKit          3D

 40 42  0  0  0  0  0  0  0  0999 V2000
   57.9187   30.5779   45.9801 H   0  0  0  0  0  0  0  0  0  0  0  0
   57.7020   31.2910   45.1710 C   0  0  0  0  0  0  0  0  0  0  0  0
   57.0530   30.8230   44.0890 C   0  0  0  0  0  0  0  0  0  0  0  0
   57.3440   31.4160   42.8070 C   0  0  0  0  0  0  0  0  0  0  0  0
   57.5770   31.8920   41.7780 N   0  0  0  0  0  0  0  0  0  0  0  0
   56.0030   29.7810   44.1440 C   0  0  0  0  0  0  0  0  0  0  0  0
   55.1430   29.7230   43.2230 O   0  0  0  0  0  0  0  0  0  0  0  0
   55.9580   28.8570   45.2390 N   0  0  0  0  0  0  0  0  0  0  0  0
   57.0300   28.0340   45.7210 C   0  0  0  0  0  0  0  0  0  0  0  0
   58.1080   28.5630   46.4550 C   0  0  0  0  0  0  0  0  0  0  0  0
   58.1373   29.6372   46.6902 H   0  0  0  0  0  0  0  0  0  0  0  0
   59.1420   27.7260   46.8860 C   0  0  0  0  0  0  0  0  0  0  0  0
   59.9781   28.1413   47.4678 H   0  0  0  0  0  0  0  0  0  0  0  0
   59.1150   26.3630   46.5790 C   0  0  0  0  0  0  0  0  0  0  0  0
   59.9246   25.7045   46.9267 H   0  0  0  0  0  0  0  0  0  0  0  0
   58.0590   25.8370   45.8300 C   0  0  0  0  0  0  0  0  0  0  0  0
   58.0420   24.7656   45.5815 H   0  0  0  0  0  0  0  0  0  0  0  0
   57.0240   26.6710   45.3960 C   0  0  0  0  0  0  0  0  0  0  0  0
   56.2009   26.2550   44.7964 H   0  0  0  0  0  0  0  0  0  0  0  0
   58.1460   32.6870   45.3570 C   0  0  0  0  0  0  0  0  0  0  0  0
   57.7930   33.7870   44.5940 C   0  0  0  0  0  0  0  0  0  0  0  0
   57.1813   33.7556   43.6803 H   0  0  0  0  0  0  0  0  0  0  0  0
   58.3010   34.8740   45.1290 O   0  0  0  0  0  0  0  0  0  0  0  0
   58.9590   34.5510   46.2180 C   0  0  0  0  0  0  0  0  0  0  0  0
   59.4866   35.2589   46.8742 H   0  0  0  0  0  0  0  0  0  0  0  0
   58.8870   33.1860   46.4130 C   0  0  0  0  0  0  0  0  0  0  0  0
   59.4530   32.4270   47.5780 C   0  0  0  0  0  0  0  0  0  0  0  0
   58.8486   32.6359   48.4730 H   0  0  0  0  0  0  0  0  0  0  0  0
   59.4304   31.3523   47.3444 H   0  0  0  0  0  0  0  0  0  0  0  0
   60.8790   32.8360   47.8380 C   0  0  0  0  0  0  0  0  0  0  0  0
   61.1680   33.8130   48.8050 C   0  0  0  0  0  0  0  0  0  0  0  0
   60.3485   34.2895   49.3630 H   0  0  0  0  0  0  0  0  0  0  0  0
   62.4910   34.1830   49.0620 C   0  0  0  0  0  0  0  0  0  0  0  0
   62.7101   34.9492   49.8203 H   0  0  0  0  0  0  0  0  0  0  0  0
   63.5360   33.5800   48.3560 C   0  0  0  0  0  0  0  0  0  0  0  0
   64.5772   33.8698   48.5608 H   0  0  0  0  0  0  0  0  0  0  0  0
   63.2580   32.6090   47.3900 C   0  0  0  0  0  0  0  0  0  0  0  0
   64.0806   32.1369   46.8329 H   0  0  0  0  0  0  0  0  0  0  0  0
   61.9350   32.2370   47.1310 C   0  0  0  0  0  0  0  0  0  0  0  0
   61.7202   31.4720   46.3703 H   0  0  0  0  0  0  0  0  0  0  0  0
  1  2  1  0
  2  3  2  0
  3  4  1  0
  4  5  3  0
  3  6  1  0
  6  7  2  0
  6  8  1  0
  8  9  1  0
  9 10  2  0
 10 11  1  0
 10 12  1  0
 12 13  1  0
 12 14  2  0
 14 15  1  0
 14 16  1  0
 16 17  1  0
 16 18  2  0
 18 19  1  0
  2 20  1  0
 20 21  2  0
 21 22  1  0
 21 23  1  0
 23 24  1  0
 24 25  1  0
 24 26  2  0
 26 27  1  0
 27 28  1  0
 27 29  1  0
 27 30  1  0
 30 31  2  0
 31 32  1  0
 31 33  1  0
 33 34  1  0
 33 35  2  0
 35 36  1  0
 35 37  1  0
 37 38  1  0
 37 39  2  0
 39 40  1  0
 18  9  1  0
 26 20  1  0
 39 30  1  0
M  CHG  1   8  -1
M  END
>  <UniqueID>  (29) 
26

>  <SMILES>  (29) 
N#C/C(=C/c1cocc1Cc1ccccc1)C(=O)[N-]c1ccccc1

>  <Energy>  (29) 
77.39264830922642

>  <Genealogy>  (29) 
N#CC(=Cc1cocc1Cc1ccccc1)C(=O)[N-]c1ccccc1 (protonated)
N#C/C(=C/c1cocc1Cc1ccccc1)C(=O)[N-]c1ccccc1 (cis-trans isomerization)
N#C/C(=C/c1cocc1Cc1ccccc1)C(=O)[N-]c1ccccc1 (3D coordinates assigned)
N#C/C(=C/c1cocc1Cc1ccccc1)C(=O)[N-]c1ccccc1 (optimized conformer: 77.39264830922642 kcal/mol)

>  <smiles>  (29) 
N#CC(=Cc1cocc1Cc1ccccc1)C(=O)Nc1ccccc1

>  <score_type>  (29) 
oracle

>  <origin>  (29) 
adg

>  <m_score__min__energy>  (29) 
-9.8200000000000003

>  <m_primary>  (29) 
energy

$$$$
29:0
     RDKit          3D

 58 60  0  0  0  0  0  0  0  0999 V2000
   63.0810   32.7360   48.2330 C   0  0  0  0  0  0  0  0  0  0  0  0
   62.8390   31.5950   47.2460 C   0  0  0  0  0  0  0  0  0  0  0  0
   61.5080   30.8430   47.5160 C   0  0  1  0  0  0  0  0  0  0  0  0
   60.9370   31.2080   48.8980 C   0  0  0  0  0  0  0  0  0  0  0  0
   60.4410   31.0930   46.4130 C   0  0  1  0  0  0  0  0  0  0  0  0
   59.3730   30.0840   46.4710 N   0  0  0  0  0  0  0  0  0  0  0  0
   59.5800   28.7000   46.1370 C   0  0  0  0  0  0  0  0  0  0  0  0
   60.7310   28.2940   45.8150 O   0  0  0  0  0  0  0  0  0  0  0  0
   58.4630   27.7360   46.1590 C   0  0  0  0  0  0  0  0  0  0  0  0
   57.1280   28.0420   45.9450 C   0  0  0  0  0  0  0  0  0  0  0  0
   56.4440   26.8550   46.0950 C   0  0  0  0  0  0  0  0  0  0  0  0
   55.0660   26.7120   45.9870 O   0  0  0  0  0  0  0  0  0  0  0  0
   57.2900   25.8450   46.3730 N   0  0  0  0  0  0  0  0  0  0  0  0
   56.9360   24.4590   46.6750 C   0  0  0  0  0  0  0  0  0  0  0  0
   56.8560   23.6620   45.4020 C   0  0  0  0  0  0  0  0  0  0  0  0
   57.7410   22.5970   45.1740 C   0  0  0  0  0  0  0  0  0  0  0  0
   57.6920   21.8850   43.9720 C   0  0  0  0  0  0  0  0  0  0  0  0
   56.7690   22.2410   42.9850 C   0  0  0  0  0  0  0  0  0  0  0  0
   55.8940   23.3100   43.1980 C   0  0  0  0  0  0  0  0  0  0  0  0
   55.9390   24.0230   44.3990 C   0  0  0  0  0  0  0  0  0  0  0  0
   58.5290   26.3750   46.4250 C   0  0  0  0  0  0  0  0  0  0  0  0
   59.8650   32.4810   46.5180 C   0  0  0  0  0  0  0  0  0  0  0  0
   60.6360   33.4780   46.4510 O   0  0  0  0  0  0  0  0  0  0  0  0
   58.4630   32.6720   46.7450 N   0  0  0  0  0  0  0  0  0  0  0  0
   57.5740   33.3070   45.7790 C   0  0  0  0  0  0  0  0  0  0  0  0
   57.4270   32.4240   44.5700 C   0  0  0  0  0  0  0  0  0  0  0  0
   56.6940   31.2290   44.6600 C   0  0  0  0  0  0  0  0  0  0  0  0
   56.4900   30.4410   43.5220 C   0  0  0  0  0  0  0  0  0  0  0  0
   57.0130   30.8410   42.2900 C   0  0  0  0  0  0  0  0  0  0  0  0
   57.7380   32.0320   42.1910 C   0  0  0  0  0  0  0  0  0  0  0  0
   57.9440   32.8250   43.3250 C   0  0  0  0  0  0  0  0  0  0  0  0
   63.0001   32.3545   49.2615 H   0  0  0  0  0  0  0  0  0  0  0  0
   64.0872   33.1511   48.0740 H   0  0  0  0  0  0  0  0  0  0  0  0
   62.3300   33.5238   48.0740 H   0  0  0  0  0  0  0  0  0  0  0  0
   62.8084   32.0106   46.2280 H   0  0  0  0  0  0  0  0  0  0  0  0
   63.6596   30.8722   47.3652 H   0  0  0  0  0  0  0  0  0  0  0  0
   61.7509   29.7703   47.4983 H   0  0  0  0  0  0  0  0  0  0  0  0
   61.5855   30.7934   49.6838 H   0  0  0  0  0  0  0  0  0  0  0  0
   60.8924   32.3025   48.9989 H   0  0  0  0  0  0  0  0  0  0  0  0
   59.9250   30.7890   48.9989 H   0  0  0  0  0  0  0  0  0  0  0  0
   60.9439   31.0045   45.4387 H   0  0  0  0  0  0  0  0  0  0  0  0
   58.4220   30.3950   46.7660 H   0  0  0  0  0  0  0  0  0  0  0  0
   56.7028   29.0278   45.7052 H   0  0  0  0  0  0  0  0  0  0  0  0
   57.7025   24.0216   47.3316 H   0  0  0  0  0  0  0  0  0  0  0  0
   55.9582   24.4364   47.1784 H   0  0  0  0  0  0  0  0  0  0  0  0
   58.4763   22.3213   45.9443 H   0  0  0  0  0  0  0  0  0  0  0  0
   58.3805   21.0439   43.8030 H   0  0  0  0  0  0  0  0  0  0  0  0
   56.7310   21.6796   42.0398 H   0  0  0  0  0  0  0  0  0  0  0  0
   55.1692   23.5903   42.4194 H   0  0  0  0  0  0  0  0  0  0  0  0
   55.2550   24.8692   44.5602 H   0  0  0  0  0  0  0  0  0  0  0  0
   59.4501   25.8151   46.6444 H   0  0  0  0  0  0  0  0  0  0  0  0
   56.5873   33.4651   46.2387 H   0  0  0  0  0  0  0  0  0  0  0  0
   57.9983   34.2750   45.4742 H   0  0  0  0  0  0  0  0  0  0  0  0
   56.2791   30.9118   45.6281 H   0  0  0  0  0  0  0  0  0  0  0  0
   55.9169   29.5051   43.5976 H   0  0  0  0  0  0  0  0  0  0  0  0
   56.8542   30.2183   41.3972 H   0  0  0  0  0  0  0  0  0  0  0  0
   58.1473   32.3463   41.2196 H   0  0  0  0  0  0  0  0  0  0  0  0
   58.5113   33.7638   43.2428 H   0  0  0  0  0  0  0  0  0  0  0  0
  1  2  1  0
  2  3  1  0
  3  4  1  0
  3  5  1  0
  5  6  1  0
  6  7  1  0
  7  8  2  0
  7  9  1  0
  9 10  1  0
 10 11  2  0
 11 12  1  0
 11 13  1  0
 13 14  1  0
 14 15  1  0
 15 16  2  0
 16 17  1  0
 17 18  2  0
 18 19  1  0
 19 20  2  0
 13 21  1  0
  5 22  1  0
 22 23  2  0
 22 24  1  0
 24 25  1  0
 25 26  1  0
 26 27  2  0
 27 28  1  0
 28 29  2  0
 29 30  1  0
 30 31  2  0
 21  9  2  0
 31 26  1  0
 20 15  1  0
  1 32  1  0
  1 33  1  0
  1 34  1  0
  2 35  1  0
  2 36  1  0
  3 37  1  1
  4 38  1  0
  4 39  1  0
  4 40  1  0
  5 41  1  6
  6 42  1  0
 10 43  1  0
 14 44  1  0
 14 45  1  0
 16 46  1  0
 17 47  1  0
 18 48  1  0
 19 49  1  0
 20 50  1  0
 21 51  1  0
 25 52  1  0
 25 53  1  0
 27 54  1  0
 28 55  1  0
 29 56  1  0
 30 57  1  0
 31 58  1  0
M  CHG  2  12  -1  24  -1
M  END
>  <UniqueID>  (30) 
27

>  <SMILES>  (30) 
CC[C@@H](C)[C@@H](NC(=O)c1cc([O-])n(Cc2ccccc2)c1)C(=O)[N-]Cc1ccccc1

>  <Energy>  (30) 
75.35392038944046

>  <Genealogy>  (30) 
CCC(C)C(NC(=O)c1cc([O-])n(Cc2ccccc2)c1)C(=O)[N-]Cc1ccccc1 (protonated)
CC[C@@H](C)[C@@H](NC(=O)c1cc([O-])n(Cc2ccccc2)c1)C(=O)[N-]Cc1ccccc1 (chirality)
CC[C@@H](C)[C@@H](NC(=O)c1cc([O-])n(Cc2ccccc2)c1)C(=O)[N-]Cc1ccccc1 (3D coordinates assigned)
CC[C@@H](C)[C@@H](NC(=O)c1cc([O-])n(Cc2ccccc2)c1)C(=O)[N-]Cc1ccccc1 (optimized conformer: 75.35392038944046 kcal/mol)

>  <smiles>  (30) 
CCC(C)C(NC(=O)c1cc(O)n(Cc2ccccc2)c1)C(=O)NCc1ccccc1

>  <score_type>  (30) 
oracle

>  <origin>  (30) 
adg

>  <m_score__min__energy>  (30) 
-12.699999999999999

>  <m_primary>  (30) 
energy

$$$$
30:0
     RDKit          3D

 53 56  0  0  0  0  0  0  0  0999 V2000
   62.4800   34.2100   50.6480 C   0  0  0  0  0  0  0  0  0  0  0  0
   62.3200   33.9320   49.1760 C   0  0  0  0  0  0  0  0  0  0  0  0
   63.4410   34.0710   48.3430 C   0  0  0  0  0  0  0  0  0  0  0  0
   63.3460   33.8200   46.9770 C   0  0  0  0  0  0  0  0  0  0  0  0
   62.1270   33.4500   46.4180 C   0  0  0  0  0  0  0  0  0  0  0  0
   60.9830   33.3140   47.2170 C   0  0  0  0  0  0  0  0  0  0  0  0
   59.7120   32.9830   46.5340 C   0  0  0  0  0  0  0  0  0  0  0  0
   58.7070   33.8680   46.1830 C   0  0  0  0  0  0  0  0  0  0  0  0
   57.7470   33.1140   45.5460 C   0  0  0  0  0  0  0  0  0  0  0  0
   58.2250   31.8160   45.5450 C   0  0  0  0  0  0  0  0  0  0  0  0
   57.5540   30.6340   44.9730 C   0  0  0  0  0  0  0  0  0  0  0  0
   56.3090   30.6660   44.7890 O   0  0  0  0  0  0  0  0  0  0  0  0
   58.2730   29.4340   44.6560 N   0  0  0  0  0  0  0  0  0  0  0  0
   57.9260   28.1240   45.1250 C   0  0  0  0  0  0  0  0  0  0  0  0
   58.9140   27.1730   45.4240 C   0  0  0  0  0  0  0  0  0  0  0  0
   58.5560   25.9270   45.9380 C   0  0  0  0  0  0  0  0  0  0  0  0
   57.2080   25.6130   46.1600 C   0  0  0  0  0  0  0  0  0  0  0  0
   56.8700   24.3160   46.7760 C   0  0  0  0  0  0  0  0  0  0  0  0
   57.2220   24.0940   48.1170 C   0  0  0  0  0  0  0  0  0  0  0  0
   56.8990   22.8880   48.7420 C   0  0  0  0  0  0  0  0  0  0  0  0
   56.2200   21.8950   48.0360 C   0  0  0  0  0  0  0  0  0  0  0  0
   55.8650   22.1010   46.7000 C   0  0  0  0  0  0  0  0  0  0  0  0
   56.1890   23.3060   46.0550 C   0  0  0  0  0  0  0  0  0  0  0  0
   55.7440   23.5180   44.3520 S   0  0  0  0  0  0  0  0  0  0  0  0
   54.1030   24.0510   44.2400 N   0  0  0  0  0  0  0  0  0  0  0  0
   56.6490   24.5330   43.7100 O   0  0  0  0  0  0  0  0  0  0  0  0
   55.8870   22.2170   43.6130 O   0  0  0  0  0  0  0  0  0  0  0  0
   56.2080   26.5460   45.8100 C   0  0  0  0  0  0  0  0  0  0  0  0
   54.8510   26.2740   45.9960 O   0  0  0  0  0  0  0  0  0  0  0  0
   56.5760   27.7890   45.2820 C   0  0  0  0  0  0  0  0  0  0  0  0
   59.4030   31.7730   46.1260 O   0  0  0  0  0  0  0  0  0  0  0  0
   61.0840   33.4960   48.6250 C   0  0  0  0  0  0  0  0  0  0  0  0
   59.9020   33.2290   49.5320 C   0  0  0  0  0  0  0  0  0  0  0  0
   62.0135   33.3994   51.2271 H   0  0  0  0  0  0  0  0  0  0  0  0
   63.5501   34.2688   50.8959 H   0  0  0  0  0  0  0  0  0  0  0  0
   61.9932   35.1648   50.8959 H   0  0  0  0  0  0  0  0  0  0  0  0
   64.4043   34.3814   48.7738 H   0  0  0  0  0  0  0  0  0  0  0  0
   64.2366   33.9144   46.3383 H   0  0  0  0  0  0  0  0  0  0  0  0
   62.0599   33.2619   45.3363 H   0  0  0  0  0  0  0  0  0  0  0  0
   58.6808   34.9510   46.3738 H   0  0  0  0  0  0  0  0  0  0  0  0
   56.7956   33.4706   45.1246 H   0  0  0  0  0  0  0  0  0  0  0  0
   59.9741   27.4112   45.2524 H   0  0  0  0  0  0  0  0  0  0  0  0
   59.3356   25.1866   46.1705 H   0  0  0  0  0  0  0  0  0  0  0  0
   57.7555   24.8750   48.6786 H   0  0  0  0  0  0  0  0  0  0  0  0
   57.1803   22.7208   49.7922 H   0  0  0  0  0  0  0  0  0  0  0  0
   55.9633   20.9473   48.5320 H   0  0  0  0  0  0  0  0  0  0  0  0
   55.3282   21.3141   46.1499 H   0  0  0  0  0  0  0  0  0  0  0  0
   53.8660   24.5110   45.1490 H   0  0  0  0  0  0  0  0  0  0  0  0
   54.3510   25.5880   45.4470 H   0  0  0  0  0  0  0  0  0  0  0  0
   55.7978   28.5086   44.9880 H   0  0  0  0  0  0  0  0  0  0  0  0
   60.2218   33.3012   50.5820 H   0  0  0  0  0  0  0  0  0  0  0  0
   59.1147   33.9719   49.3366 H   0  0  0  0  0  0  0  0  0  0  0  0
   59.5105   32.2198   49.3366 H   0  0  0  0  0  0  0  0  0  0  0  0
  1  2  1  0
  2  3  2  0
  3  4  1  0
  4  5  2  0
  5  6  1  0
  6  7  1  0
  7  8  2  0
  8  9  1  0
  9 10  2  0
 10 11  1  0
 11 12  2  0
 11 13  1  0
 13 14  1  0
 14 15  2  0
 15 16  1  0
 16 17  2  0
 17 18  1  0
 18 19  2  0
 19 20  1  0
 20 21  2  0
 21 22  1  0
 22 23  2  0
 23 24  1  0
 24 25  1  0
 24 26  2  0
 24 27  2  0
 17 28  1  0
 28 29  1  0
 28 30  2  0
 10 31  1  0
  6 32  2  0
 32 33  1  0
 32  2  1  0
 31  7  1  0
 30 14  1  0
 23 18  1  0
  1 34  1  0
  1 35  1  0
  1 36  1  0
  3 37  1  0
  4 38  1  0
  5 39  1  0
  8 40  1  0
  9 41  1  0
 15 42  1  0
 16 43  1  0
 19 44  1  0
 20 45  1  0
 21 46  1  0
 22 47  1  0
 25 48  1  0
 29 49  1  0
 30 50  1  0
 33 51  1  0
 33 52  1  0
 33 53  1  0
M  CHG  2  13  -1  25  -1
M  END
>  <UniqueID>  (31) 
28

>  <SMILES>  (31) 
Cc1cccc(-c2ccc(C(=O)[N-]c3ccc(-c4ccccc4S([NH-])(=O)=O)c(O)c3)o2)c1C

>  <Energy>  (31) 
104.00598906666602

>  <Genealogy>  (31) 
Cc1cccc(-c2ccc(C(=O)[N-]c3ccc(-c4ccccc4S([NH-])(=O)=O)c(O)c3)o2)c1C (protonated)
Cc1cccc(-c2ccc(C(=O)[N-]c3ccc(-c4ccccc4S([NH-])(=O)=O)c(O)c3)o2)c1C (3D coordinates assigned)
Cc1cccc(-c2ccc(C(=O)[N-]c3ccc(-c4ccccc4S([NH-])(=O)=O)c(O)c3)o2)c1C (optimized conformer: 104.00598906666602 kcal/mol)

>  <smiles>  (31) 
Cc1cccc(-c2ccc(C(=O)Nc3ccc(-c4ccccc4S(N)(=O)=O)c(O)c3)o2)c1C

>  <score_type>  (31) 
oracle

>  <origin>  (31) 
adg

>  <m_score__min__energy>  (31) 
-13.050000000000001

>  <m_primary>  (31) 
energy

$$$$
31:0
     RDKit          3D

 48 50  0  0  0  0  0  0  0  0999 V2000
   57.5200   30.7030   51.9470 C   0  0  0  0  0  0  0  0  0  0  0  0
   57.8230   30.1880   50.6570 O   0  0  0  0  0  0  0  0  0  0  0  0
   59.1350   30.0700   50.1710 C   0  0  0  0  0  0  0  0  0  0  0  0
   59.9520   29.3220   50.7840 O   0  0  0  0  0  0  0  0  0  0  0  0
   59.5060   30.7470   48.9240 N   0  0  2  0  0  0  0  0  0  0  0  0
   60.9710   30.6350   48.8630 C   0  0  0  0  0  0  0  0  0  0  0  0
   61.5060   29.4930   48.9630 O   0  0  0  0  0  0  0  0  0  0  0  0
   61.8880   31.7810   48.6840 C   0  0  0  0  0  0  0  0  0  0  0  0
   62.5030   31.9940   47.4400 C   0  0  0  0  0  0  0  0  0  0  0  0
   63.4120   33.0440   47.2740 C   0  0  0  0  0  0  0  0  0  0  0  0
   63.7310   33.8720   48.3530 C   0  0  0  0  0  0  0  0  0  0  0  0
   63.1540   33.6400   49.6050 C   0  0  0  0  0  0  0  0  0  0  0  0
   62.2470   32.5900   49.7750 C   0  0  0  0  0  0  0  0  0  0  0  0
   59.0170   32.1540   49.1040 C   0  0  0  0  0  0  0  0  0  0  0  0
   59.5130   33.1720   48.0670 C   0  0  0  0  0  0  0  0  0  0  0  0
   58.8740   33.0590   46.6950 C   0  0  0  0  0  0  0  0  0  0  0  0
   58.3230   34.2390   46.1570 C   0  0  0  0  0  0  0  0  0  0  0  0
   57.7520   34.2520   44.8860 C   0  0  0  0  0  0  0  0  0  0  0  0
   57.7320   33.0910   44.1210 C   0  0  0  0  0  0  0  0  0  0  0  0
   58.2900   31.9150   44.6180 C   0  0  0  0  0  0  0  0  0  0  0  0
   58.8860   31.8790   45.8950 C   0  0  0  0  0  0  0  0  0  0  0  0
   59.4370   30.5460   46.3680 C   0  0  0  0  0  0  0  0  0  0  0  0
   58.8770   30.0440   47.7300 C   0  0  1  0  0  0  0  0  0  0  0  0
   58.8410   28.4750   47.7890 C   0  0  0  0  0  0  0  0  0  0  0  0
   57.8090   27.9230   46.9140 N   0  0  0  0  0  0  0  0  0  0  0  0
   57.9560   27.8550   45.6530 C   0  0  0  0  0  0  0  0  0  0  0  0
   58.1410   27.7650   44.0550 S   0  0  0  0  0  0  0  0  0  0  0  0
   57.9191   30.0247   52.7156 H   0  0  0  0  0  0  0  0  0  0  0  0
   57.9774   31.6968   52.0618 H   0  0  0  0  0  0  0  0  0  0  0  0
   56.4292   30.7859   52.0618 H   0  0  0  0  0  0  0  0  0  0  0  0
   62.2691   31.3326   46.5927 H   0  0  0  0  0  0  0  0  0  0  0  0
   63.8765   33.2181   46.2922 H   0  0  0  0  0  0  0  0  0  0  0  0
   64.4356   34.7058   48.2176 H   0  0  0  0  0  0  0  0  0  0  0  0
   63.4141   34.2846   50.4576 H   0  0  0  0  0  0  0  0  0  0  0  0
   61.8127   32.3964   50.7669 H   0  0  0  0  0  0  0  0  0  0  0  0
   57.9179   32.1373   49.0615 H   0  0  0  0  0  0  0  0  0  0  0  0
   59.4226   32.4898   50.0698 H   0  0  0  0  0  0  0  0  0  0  0  0
   59.3091   34.1807   48.4555 H   0  0  0  0  0  0  0  0  0  0  0  0
   60.5838   32.9651   47.9235 H   0  0  0  0  0  0  0  0  0  0  0  0
   58.3440   35.1652   46.7501 H   0  0  0  0  0  0  0  0  0  0  0  0
   57.3171   35.1806   44.4879 H   0  0  0  0  0  0  0  0  0  0  0  0
   57.2744   33.1010   43.1207 H   0  0  0  0  0  0  0  0  0  0  0  0
   58.2651   31.0018   44.0053 H   0  0  0  0  0  0  0  0  0  0  0  0
   59.2021   29.7902   45.6040 H   0  0  0  0  0  0  0  0  0  0  0  0
   60.5160   30.6976   46.5186 H   0  0  0  0  0  0  0  0  0  0  0  0
   57.8218   30.3455   47.8048 H   0  0  0  0  0  0  0  0  0  0  0  0
   59.8202   28.0843   47.4753 H   0  0  0  0  0  0  0  0  0  0  0  0
   58.6090   28.1767   48.8221 H   0  0  0  0  0  0  0  0  0  0  0  0
  1  2  1  0
  2  3  1  0
  3  4  2  0
  5  3  1  1
  5  6  1  0
  6  7  2  0
  6  8  1  0
  8  9  2  0
  9 10  1  0
 10 11  2  0
 11 12  1  0
 12 13  2  0
  5 14  1  0
 14 15  1  0
 15 16  1  0
 16 17  2  0
 17 18  1  0
 18 19  2  0
 19 20  1  0
 20 21  2  0
 21 22  1  0
 22 23  1  0
 23 24  1  0
 24 25  1  0
 25 26  2  0
 26 27  2  0
 23  5  1  0
 13  8  1  0
 21 16  1  0
  1 28  1  0
  1 29  1  0
  1 30  1  0
  9 31  1  0
 10 32  1  0
 11 33  1  0
 12 34  1  0
 13 35  1  0
 14 36  1  0
 14 37  1  0
 15 38  1  0
 15 39  1  0
 17 40  1  0
 18 41  1  0
 19 42  1  0
 20 43  1  0
 22 44  1  0
 22 45  1  0
 23 46  1  6
 24 47  1  0
 24 48  1  0
M  CHG  1   5   1
M  END
>  <UniqueID>  (32) 
29

>  <SMILES>  (32) 
COC(=O)[N@+]1(C(=O)c2ccccc2)CCc2ccccc2C[C@H]1CN=C=S

>  <Energy>  (32) 
91.2021831599948

>  <Genealogy>  (32) 
COC(=O)[N@+]1(C(=O)c2ccccc2)CCc2ccccc2C[C@H]1CN=C=S (chirality)
COC(=O)[N@+]1(C(=O)c2ccccc2)CCc2ccccc2C[C@H]1CN=C=S (3D coordinates assigned)
COC(=O)[N@+]1(C(=O)c2ccccc2)CCc2ccccc2C[C@H]1CN=C=S (nonaromatic ring conformer: 91.2021831599948 kcal/mol)

>  <smiles>  (32) 
COC(=O)[N+]1(C(=O)c2ccccc2)CCc2ccccc2CC1CN=C=S

>  <score_type>  (32) 
oracle

>  <origin>  (32) 
adg

>  <m_score__min__energy>  (32) 
-4.4299999999999997

>  <m_primary>  (32) 
energy

$$$$
32:0
     RDKit          3D

 38 39  0  0  0  0  0  0  0  0999 V2000
   58.4861   26.0832   44.2868 H   0  0  0  0  0  0  0  0  0  0  0  0
   57.6510   25.8660   44.9690 C   0  0  0  0  0  0  0  0  0  0  0  0
   57.0290   26.9120   45.5370 C   0  0  0  0  0  0  0  0  0  0  0  0
   56.1613   26.7010   46.1793 H   0  0  0  0  0  0  0  0  0  0  0  0
   57.4240   28.3260   45.3630 C   0  0  0  0  0  0  0  0  0  0  0  0
   58.7560   28.6880   45.5950 C   0  0  0  0  0  0  0  0  0  0  0  0
   59.4830   27.9229   45.9051 H   0  0  0  0  0  0  0  0  0  0  0  0
   59.1700   30.0130   45.4360 C   0  0  0  0  0  0  0  0  0  0  0  0
   60.2235   30.2775   45.6095 H   0  0  0  0  0  0  0  0  0  0  0  0
   58.2540   31.0150   45.0560 C   0  0  0  0  0  0  0  0  0  0  0  0
   58.6840   32.3900   44.8810 N   0  0  0  0  0  0  0  0  0  0  0  0
   58.3280   33.1350   43.6660 C   0  0  0  0  0  0  0  0  0  0  0  0
   57.8693   34.0949   43.9457 H   0  0  0  0  0  0  0  0  0  0  0  0
   59.2344   33.3212   43.0713 H   0  0  0  0  0  0  0  0  0  0  0  0
   57.6137   32.5467   43.0713 H   0  0  0  0  0  0  0  0  0  0  0  0
   59.4870   33.0580   45.9120 C   0  0  0  0  0  0  0  0  0  0  0  0
   59.1275   32.7590   46.9077 H   0  0  0  0  0  0  0  0  0  0  0  0
   60.5420   32.7674   45.8005 H   0  0  0  0  0  0  0  0  0  0  0  0
   59.3933   34.1483   45.8005 H   0  0  0  0  0  0  0  0  0  0  0  0
   56.9070   30.6480   44.8590 C   0  0  0  0  0  0  0  0  0  0  0  0
   56.1727   31.4149   44.5714 H   0  0  0  0  0  0  0  0  0  0  0  0
   56.4910   29.3230   45.0240 C   0  0  0  0  0  0  0  0  0  0  0  0
   55.1430   29.0120   44.8670 O   0  0  0  0  0  0  0  0  0  0  0  0
   57.3020   24.4430   45.1880 C   0  0  0  0  0  0  0  0  0  0  0  0
   56.8650   23.6190   44.1380 C   0  0  0  0  0  0  0  0  0  0  0  0
   56.7630   24.0335   43.1242 H   0  0  0  0  0  0  0  0  0  0  0  0
   56.5590   22.2760   44.3730 C   0  0  0  0  0  0  0  0  0  0  0  0
   56.2008   21.6437   43.5473 H   0  0  0  0  0  0  0  0  0  0  0  0
   56.7070   21.7280   45.6620 C   0  0  0  0  0  0  0  0  0  0  0  0
   56.4070   20.3870   45.9450 O   0  0  0  0  0  0  0  0  0  0  0  0
   57.3760   19.3480   46.0390 C   0  0  0  0  0  0  0  0  0  0  0  0
   57.5788   19.1305   47.0980 H   0  0  0  0  0  0  0  0  0  0  0  0
   56.9921   18.4428   45.5458 H   0  0  0  0  0  0  0  0  0  0  0  0
   58.3057   19.6680   45.5458 H   0  0  0  0  0  0  0  0  0  0  0  0
   57.1740   22.5450   46.7010 C   0  0  0  0  0  0  0  0  0  0  0  0
   57.3370   22.0200   47.9780 O   0  0  0  0  0  0  0  0  0  0  0  0
   57.4790   23.8890   46.4640 C   0  0  0  0  0  0  0  0  0  0  0  0
   57.8602   24.5156   47.2838 H   0  0  0  0  0  0  0  0  0  0  0  0
  1  2  1  0
  2  3  2  0
  3  4  1  0
  3  5  1  0
  5  6  2  0
  6  7  1  0
  6  8  1  0
  8  9  1  0
  8 10  2  0
 10 11  1  0
 11 12  1  0
 12 13  1  0
 12 14  1  0
 12 15  1  0
 11 16  1  0
 16 17  1  0
 16 18  1  0
 16 19  1  0
 10 20  1  0
 20 21  1  0
 20 22  2  0
 22 23  1  0
  2 24  1  0
 24 25  2  0
 25 26  1  0
 25 27  1  0
 27 28  1  0
 27 29  2  0
 29 30  1  0
 30 31  1  0
 31 32  1  0
 31 33  1  0
 31 34  1  0
 29 35  1  0
 35 36  1  0
 35 37  2  0
 37 38  1  0
 22  5  1  0
 37 24  1  0
M  CHG  2  23  -1  36  -1
M  END
>  <UniqueID>  (33) 
30

>  <SMILES>  (33) 
COc1ccc(/C=C\c2ccc(N(C)C)cc2[O-])cc1[O-]

>  <Energy>  (33) 
50.12371544510111

>  <Genealogy>  (33) 
COc1ccc(C=Cc2ccc(N(C)C)cc2[O-])cc1[O-] (protonated)
COc1ccc(/C=C\c2ccc(N(C)C)cc2[O-])cc1[O-] (cis-trans isomerization)
COc1ccc(/C=C\c2ccc(N(C)C)cc2[O-])cc1[O-] (3D coordinates assigned)
COc1ccc(/C=C\c2ccc(N(C)C)cc2[O-])cc1[O-] (optimized conformer: 50.12371544510111 kcal/mol)

>  <smiles>  (33) 
COc1ccc(C=Cc2ccc(N(C)C)cc2O)cc1O

>  <score_type>  (33) 
oracle

>  <origin>  (33) 
adg

>  <m_score__min__energy>  (33) 
-12.52

>  <m_primary>  (33) 
energy

$$$$
33:0
     RDKit          3D

 54 56  0  0  0  0  0  0  0  0999 V2000
   59.1000   28.7350   45.0310 C   0  0  0  0  0  0  0  0  0  0  0  0
   60.2750   29.3260   45.7410 C   0  0  0  0  0  0  0  0  0  0  0  0
   61.3970   29.3460   45.1660 O   0  0  0  0  0  0  0  0  0  0  0  0
   60.1350   29.7820   47.0940 N   0  0  0  0  0  0  0  0  0  0  0  0
   61.1600   30.5060   47.8020 C   0  0  0  0  0  0  0  0  0  0  0  0
   62.0990   31.2870   47.1030 C   0  0  0  0  0  0  0  0  0  0  0  0
   63.1040   31.9730   47.7890 C   0  0  0  0  0  0  0  0  0  0  0  0
   63.1830   31.8910   49.1800 C   0  0  0  0  0  0  0  0  0  0  0  0
   62.2480   31.1350   49.8900 C   0  0  0  0  0  0  0  0  0  0  0  0
   61.2240   30.4600   49.2130 C   0  0  0  0  0  0  0  0  0  0  0  0
   60.2860   29.6940   49.9730 N   0  0  0  0  0  0  0  0  0  0  0  0
   58.8770   29.7240   49.7210 C   0  0  0  0  0  0  0  0  0  0  0  0
   58.3650   28.9110   48.9030 O   0  0  0  0  0  0  0  0  0  0  0  0
   58.0220   30.7170   50.4590 C   0  0  2  0  0  0  0  0  0  0  0  0
   58.7920   31.9630   50.9400 C   0  0  0  0  0  0  0  0  0  0  0  0
   59.1700   32.8560   49.7850 C   0  0  0  0  0  0  0  0  0  0  0  0
   60.2160   33.7840   49.9240 C   0  0  0  0  0  0  0  0  0  0  0  0
   60.5870   34.5930   48.8460 C   0  0  0  0  0  0  0  0  0  0  0  0
   59.9230   34.4770   47.6220 C   0  0  0  0  0  0  0  0  0  0  0  0
   58.8890   33.5500   47.4730 C   0  0  0  0  0  0  0  0  0  0  0  0
   58.5140   32.7400   48.5480 C   0  0  0  0  0  0  0  0  0  0  0  0
   57.2860   30.0850   51.5610 N   0  0  0  0  0  0  0  0  0  0  0  0
   56.2410   30.6020   52.4050 C   0  0  0  0  0  0  0  0  0  0  0  0
   56.3580   31.7800   52.8340 O   0  0  0  0  0  0  0  0  0  0  0  0
   54.9990   29.8300   52.7780 C   0  0  0  0  0  0  0  0  0  0  0  0
   53.7360   30.6270   52.5750 C   0  0  0  0  0  0  0  0  0  0  0  0
   53.4480   31.2100   51.3280 C   0  0  0  0  0  0  0  0  0  0  0  0
   52.2680   31.9360   51.1430 C   0  0  0  0  0  0  0  0  0  0  0  0
   51.3540   32.0670   52.1930 C   0  0  0  0  0  0  0  0  0  0  0  0
   50.1820   32.7910   52.0070 O   0  0  0  0  0  0  0  0  0  0  0  0
   51.6160   31.4630   53.4250 C   0  0  0  0  0  0  0  0  0  0  0  0
   52.7960   30.7380   53.6140 C   0  0  0  0  0  0  0  0  0  0  0  0
   58.3716   28.3687   45.7694 H   0  0  0  0  0  0  0  0  0  0  0  0
   58.6282   29.5031   44.4005 H   0  0  0  0  0  0  0  0  0  0  0  0
   59.4354   27.8983   44.4005 H   0  0  0  0  0  0  0  0  0  0  0  0
   59.2660   29.5100   47.6030 H   0  0  0  0  0  0  0  0  0  0  0  0
   62.0411   31.3579   46.0068 H   0  0  0  0  0  0  0  0  0  0  0  0
   63.8341   32.5786   47.2321 H   0  0  0  0  0  0  0  0  0  0  0  0
   63.9823   32.4223   49.7174 H   0  0  0  0  0  0  0  0  0  0  0  0
   62.3158   31.0692   50.9859 H   0  0  0  0  0  0  0  0  0  0  0  0
   57.2914   31.0813   49.7217 H   0  0  0  0  0  0  0  0  0  0  0  0
   58.1569   32.5292   51.6372 H   0  0  0  0  0  0  0  0  0  0  0  0
   59.7153   31.6293   51.4362 H   0  0  0  0  0  0  0  0  0  0  0  0
   60.7447   33.8742   50.8844 H   0  0  0  0  0  0  0  0  0  0  0  0
   61.4027   35.3219   48.9615 H   0  0  0  0  0  0  0  0  0  0  0  0
   60.2148   35.1160   46.7755 H   0  0  0  0  0  0  0  0  0  0  0  0
   58.3691   33.4575   46.5080 H   0  0  0  0  0  0  0  0  0  0  0  0
   57.7018   32.0084   48.4253 H   0  0  0  0  0  0  0  0  0  0  0  0
   54.9475   28.9243   52.1558 H   0  0  0  0  0  0  0  0  0  0  0  0
   55.0689   29.5849   53.8481 H   0  0  0  0  0  0  0  0  0  0  0  0
   54.1553   31.0940   50.4936 H   0  0  0  0  0  0  0  0  0  0  0  0
   52.0582   32.4048   50.1703 H   0  0  0  0  0  0  0  0  0  0  0  0
   50.8923   31.5581   54.2480 H   0  0  0  0  0  0  0  0  0  0  0  0
   52.9900   30.2516   54.5813 H   0  0  0  0  0  0  0  0  0  0  0  0
  1  2  1  0
  2  3  2  0
  2  4  1  0
  4  5  1  0
  5  6  2  0
  6  7  1  0
  7  8  2  0
  8  9  1  0
  9 10  2  0
 10 11  1  0
 11 12  1  0
 12 13  2  0
 12 14  1  0
 14 15  1  0
 15 16  1  0
 16 17  2  0
 17 18  1  0
 18 19  2  0
 19 20  1  0
 20 21  2  0
 14 22  1  0
 22 23  1  0
 23 24  2  0
 23 25  1  0
 25 26  1  0
 26 27  2  0
 27 28  1  0
 28 29  2  0
 29 30  1  0
 29 31  1  0
 31 32  2  0
 10  5  1  0
 21 16  1  0
 32 26  1  0
  1 33  1  0
  1 34  1  0
  1 35  1  0
  4 36  1  0
  6 37  1  0
  7 38  1  0
  8 39  1  0
  9 40  1  0
 14 41  1  6
 15 42  1  0
 15 43  1  0
 17 44  1  0
 18 45  1  0
 19 46  1  0
 20 47  1  0
 21 48  1  0
 25 49  1  0
 25 50  1  0
 27 51  1  0
 28 52  1  0
 31 53  1  0
 32 54  1  0
M  CHG  3  11  -1  22  -1  30  -1
M  END
>  <UniqueID>  (34) 
31

>  <SMILES>  (34) 
CC(=O)Nc1ccccc1[N-]C(=O)[C@H](Cc1ccccc1)[N-]C(=O)Cc1ccc([O-])cc1

>  <Energy>  (34) 
64.43972443555727

>  <Genealogy>  (34) 
CC(=O)Nc1ccccc1[N-]C(=O)C(Cc1ccccc1)[N-]C(=O)Cc1ccc([O-])cc1 (protonated)
CC(=O)Nc1ccccc1[N-]C(=O)[C@H](Cc1ccccc1)[N-]C(=O)Cc1ccc([O-])cc1 (chirality)
CC(=O)Nc1ccccc1[N-]C(=O)[C@H](Cc1ccccc1)[N-]C(=O)Cc1ccc([O-])cc1 (3D coordinates assigned)
CC(=O)Nc1ccccc1[N-]C(=O)[C@H](Cc1ccccc1)[N-]C(=O)Cc1ccc([O-])cc1 (optimized conformer: 64.43972443555727 kcal/mol)

>  <smiles>  (34) 
CC(=O)Nc1ccccc1NC(=O)C(Cc1ccccc1)NC(=O)Cc1ccc(O)cc1

>  <score_type>  (34) 
oracle

>  <origin>  (34) 
adg

>  <m_score__min__energy>  (34) 
-15.08

>  <m_primary>  (34) 
energy

$$$$
34:0
     RDKit          3D

 29 30  0  0  0  0  0  0  0  0999 V2000
   57.8480   32.5030   44.1480 C   0  0  0  0  0  0  0  0  0  0  0  0
   57.1620   31.5580   44.9640 O   0  0  0  0  0  0  0  0  0  0  0  0
   57.5110   30.2030   45.0780 C   0  0  0  0  0  0  0  0  0  0  0  0
   58.8530   29.7770   45.0850 C   0  0  0  0  0  0  0  0  0  0  0  0
   59.1640   28.4190   45.2010 C   0  0  0  0  0  0  0  0  0  0  0  0
   58.1430   27.4660   45.3210 C   0  0  0  0  0  0  0  0  0  0  0  0
   58.4780   26.0020   45.4070 C   0  0  0  0  0  0  0  0  0  0  0  0
   57.2210   25.1760   45.3510 C   0  0  0  0  0  0  0  0  0  0  0  0
   56.9000   24.4410   44.2020 C   0  0  0  0  0  0  0  0  0  0  0  0
   55.7130   23.7080   44.1490 C   0  0  0  0  0  0  0  0  0  0  0  0
   54.8500   23.7250   45.2490 C   0  0  0  0  0  0  0  0  0  0  0  0
   53.7760   23.0700   45.2200 O   0  0  0  0  0  0  0  0  0  0  0  0
   55.1680   24.4530   46.3520 N   0  0  0  0  0  0  0  0  0  0  0  0
   56.3190   25.1740   46.4260 C   0  0  0  0  0  0  0  0  0  0  0  0
   56.8050   27.8860   45.3030 C   0  0  0  0  0  0  0  0  0  0  0  0
   56.4860   29.2430   45.1860 C   0  0  0  0  0  0  0  0  0  0  0  0
   55.1440   29.6200   45.1770 O   0  0  0  0  0  0  0  0  0  0  0  0
   58.3735   33.2270   44.7881 H   0  0  0  0  0  0  0  0  0  0  0  0
   58.5769   31.9782   43.5129 H   0  0  0  0  0  0  0  0  0  0  0  0
   57.1233   33.0335   43.5129 H   0  0  0  0  0  0  0  0  0  0  0  0
   59.6619   30.5175   44.9986 H   0  0  0  0  0  0  0  0  0  0  0  0
   60.2157   28.0965   45.1981 H   0  0  0  0  0  0  0  0  0  0  0  0
   59.1301   25.7285   44.5644 H   0  0  0  0  0  0  0  0  0  0  0  0
   58.9928   25.8074   46.3594 H   0  0  0  0  0  0  0  0  0  0  0  0
   57.5842   24.4416   43.3406 H   0  0  0  0  0  0  0  0  0  0  0  0
   55.4596   23.1238   43.2521 H   0  0  0  0  0  0  0  0  0  0  0  0
   56.5434   25.7573   47.3312 H   0  0  0  0  0  0  0  0  0  0  0  0
   55.9990   27.1415   45.3816 H   0  0  0  0  0  0  0  0  0  0  0  0
   54.8190   30.4720   45.6200 H   0  0  0  0  0  0  0  0  0  0  0  0
  1  2  1  0
  2  3  1  0
  3  4  2  0
  4  5  1  0
  5  6  2  0
  6  7  1  0
  7  8  1  0
  8  9  1  0
  9 10  2  0
 10 11  1  0
 11 12  2  0
 11 13  1  0
 13 14  1  0
  6 15  1  0
 15 16  2  0
 16 17  1  0
 16  3  1  0
 14  8  2  0
  1 18  1  0
  1 19  1  0
  1 20  1  0
  4 21  1  0
  5 22  1  0
  7 23  1  0
  7 24  1  0
  9 25  1  0
 10 26  1  0
 14 27  1  0
 15 28  1  0
 17 29  1  0
M  CHG  1  13  -1
M  END
>  <UniqueID>  (35) 
32

>  <SMILES>  (35) 
COc1ccc(Cc2ccc(=O)[n-]c2)cc1O

>  <Energy>  (35) 
28.584435188298805

>  <Genealogy>  (35) 
COc1ccc(Cc2ccc(=O)[n-]c2)cc1O (protonated)
COc1ccc(Cc2ccc(=O)[n-]c2)cc1O (3D coordinates assigned)
COc1ccc(Cc2ccc(=O)[n-]c2)cc1O (optimized conformer: 28.584435188298805 kcal/mol)

>  <smiles>  (35) 
COc1ccc(Cc2ccc(=O)[nH]c2)cc1O

>  <score_type>  (35) 
oracle

>  <origin>  (35) 
adg

>  <m_score__min__energy>  (35) 
-8.2400000000000002

>  <m_primary>  (35) 
energy

$$$$
35:0
     RDKit          3D

 42 44  0  0  0  0  0  0  0  0999 V2000
   64.7736   32.3560   47.3763 H   0  0  0  0  0  0  0  0  0  0  0  0
   63.8480   32.8230   47.7440 C   0  0  0  0  0  0  0  0  0  0  0  0
   62.6150   33.4640   46.7920 S   0  0  0  0  0  0  0  0  0  0  0  0
   61.6840   33.9310   48.1110 C   0  0  0  0  0  0  0  0  0  0  0  0
   60.5320   34.5270   47.9810 N   0  0  0  0  0  0  0  0  0  0  0  0
   59.7380   34.7370   46.8010 C   0  0  0  0  0  0  0  0  0  0  0  0
   59.6760   35.8690   46.2520 O   0  0  0  0  0  0  0  0  0  0  0  0
   58.9660   33.6080   46.2260 C   0  0  0  0  0  0  0  0  0  0  0  0
   59.5360   32.3240   46.1400 C   0  0  0  0  0  0  0  0  0  0  0  0
   60.5642   32.1591   46.4944 H   0  0  0  0  0  0  0  0  0  0  0  0
   58.8080   31.2580   45.6090 C   0  0  0  0  0  0  0  0  0  0  0  0
   59.2633   30.2583   45.5518 H   0  0  0  0  0  0  0  0  0  0  0  0
   57.5010   31.4560   45.1490 C   0  0  0  0  0  0  0  0  0  0  0  0
   56.5930   30.0900   44.5040 S   0  0  0  0  0  0  0  0  0  0  0  0
   57.1980   29.6860   43.1900 O   0  0  0  0  0  0  0  0  0  0  0  0
   55.1530   30.4550   44.2820 O   0  0  0  0  0  0  0  0  0  0  0  0
   56.6860   28.7570   45.6090 N   0  0  0  0  0  0  0  0  0  0  0  0
   57.9020   28.2190   46.1500 C   0  0  0  0  0  0  0  0  0  0  0  0
   58.5480   27.1920   45.4500 C   0  0  0  0  0  0  0  0  0  0  0  0
   58.1106   26.8086   44.5164 H   0  0  0  0  0  0  0  0  0  0  0  0
   59.7440   26.6510   45.9290 C   0  0  0  0  0  0  0  0  0  0  0  0
   60.2471   25.8493   45.3685 H   0  0  0  0  0  0  0  0  0  0  0  0
   60.3020   27.1260   47.1180 C   0  0  0  0  0  0  0  0  0  0  0  0
   61.2488   26.7043   47.4865 H   0  0  0  0  0  0  0  0  0  0  0  0
   59.6580   28.1400   47.8440 C   0  0  0  0  0  0  0  0  0  0  0  0
   60.2840   28.6850   49.0940 C   0  0  0  0  0  0  0  0  0  0  0  0
   59.7854   28.2509   49.9731 H   0  0  0  0  0  0  0  0  0  0  0  0
   61.3525   28.4244   49.1126 H   0  0  0  0  0  0  0  0  0  0  0  0
   60.1730   29.7792   49.1126 H   0  0  0  0  0  0  0  0  0  0  0  0
   58.4640   28.6900   47.3520 C   0  0  0  0  0  0  0  0  0  0  0  0
   57.9635   29.4952   47.9098 H   0  0  0  0  0  0  0  0  0  0  0  0
   56.9270   32.7310   45.2230 C   0  0  0  0  0  0  0  0  0  0  0  0
   55.9019   32.8924   44.8581 H   0  0  0  0  0  0  0  0  0  0  0  0
   57.6520   33.8000   45.7590 C   0  0  0  0  0  0  0  0  0  0  0  0
   57.1923   34.7977   45.8161 H   0  0  0  0  0  0  0  0  0  0  0  0
   62.2930   33.6110   49.2800 N   0  0  0  0  0  0  0  0  0  0  0  0
   61.9370   33.8170   50.2360 H   0  0  0  0  0  0  0  0  0  0  0  0
   63.4880   32.9890   49.0790 C   0  0  0  0  0  0  0  0  0  0  0  0
   64.3750   32.5890   50.2160 C   0  0  0  0  0  0  0  0  0  0  0  0
   63.8740   32.8149   51.1689 H   0  0  0  0  0  0  0  0  0  0  0  0
   64.5823   31.5103   50.1574 H   0  0  0  0  0  0  0  0  0  0  0  0
   65.3207   33.1478   50.1574 H   0  0  0  0  0  0  0  0  0  0  0  0
  1  2  1  0
  2  3  1  0
  3  4  1  0
  4  5  2  0
  5  6  1  0
  6  7  2  0
  6  8  1  0
  8  9  2  0
  9 10  1  0
  9 11  1  0
 11 12  1  0
 11 13  2  0
 13 14  1  0
 14 15  2  0
 14 16  2  0
 14 17  1  0
 17 18  1  0
 18 19  2  0
 19 20  1  0
 19 21  1  0
 21 22  1  0
 21 23  2  0
 23 24  1  0
 23 25  1  0
 25 26  1  0
 26 27  1  0
 26 28  1  0
 26 29  1  0
 25 30  2  0
 30 31  1  0
 13 32  1  0
 32 33  1  0
 32 34  2  0
 34 35  1  0
  4 36  1  0
 36 37  1  0
 36 38  1  0
 38 39  1  0
 39 40  1  0
 39 41  1  0
 39 42  1  0
 38  2  2  0
 34  8  1  0
 30 18  1  0
M  CHG  1  17  -1
M  END
>  <UniqueID>  (36) 
33

>  <SMILES>  (36) 
Cc1cccc([N-]S(=O)(=O)c2ccc(C(=O)/N=c3\[nH]c(C)cs3)cc2)c1

>  <Energy>  (36) 
80.91217867619505

>  <Genealogy>  (36) 
Cc1cccc([N-]S(=O)(=O)c2ccc(C(=O)N=c3[nH]c(C)cs3)cc2)c1 (protonated)
Cc1cccc([N-]S(=O)(=O)c2ccc(C(=O)/N=c3\[nH]c(C)cs3)cc2)c1 (cis-trans isomerization)
Cc1cccc([N-]S(=O)(=O)c2ccc(C(=O)/N=c3\[nH]c(C)cs3)cc2)c1 (3D coordinates assigned)
Cc1cccc([N-]S(=O)(=O)c2ccc(C(=O)/N=c3\[nH]c(C)cs3)cc2)c1 (optimized conformer: 80.91217867619505 kcal/mol)

>  <smiles>  (36) 
Cc1cccc(NS(=O)(=O)c2ccc(C(=O)N=c3[nH]c(C)cs3)cc2)c1

>  <score_type>  (36) 
oracle

>  <origin>  (36) 
adg

>  <m_score__min__energy>  (36) 
-10.199999999999999

>  <m_primary>  (36) 
energy

$$$$
36:0
     RDKit          3D

 51 54  0  0  0  0  0  0  0  0999 V2000
   61.2770   33.1090   50.8060 C   0  0  0  0  0  0  0  0  0  0  0  0
   61.8160   32.4790   49.5550 C   0  0  0  0  0  0  0  0  0  0  0  0
   63.0820   32.8390   49.0730 C   0  0  0  0  0  0  0  0  0  0  0  0
   63.5690   32.2780   47.8910 C   0  0  0  0  0  0  0  0  0  0  0  0
   62.7890   31.3690   47.1710 C   0  0  0  0  0  0  0  0  0  0  0  0
   61.5040   31.0180   47.6220 C   0  0  0  0  0  0  0  0  0  0  0  0
   60.6640   30.0620   46.8580 C   0  0  0  0  0  0  0  0  0  0  0  0
   60.3190   30.3460   45.6780 O   0  0  0  0  0  0  0  0  0  0  0  0
   60.2820   28.7980   47.4270 N   0  0  0  0  0  0  0  0  0  0  0  0
   59.1850   28.0000   46.9480 C   0  0  0  0  0  0  0  0  0  0  0  0
   59.1730   26.6040   47.1030 C   0  0  0  0  0  0  0  0  0  0  0  0
   58.1080   25.8500   46.6030 C   0  0  0  0  0  0  0  0  0  0  0  0
   57.0550   26.4770   45.9330 C   0  0  0  0  0  0  0  0  0  0  0  0
   57.0610   27.8720   45.7540 C   0  0  0  0  0  0  0  0  0  0  0  0
   56.0350   28.5560   45.0810 O   0  0  0  0  0  0  0  0  0  0  0  0
   56.2140   29.4020   43.9450 C   0  0  0  0  0  0  0  0  0  0  0  0
   56.9560   30.6520   44.3190 C   0  0  0  0  0  0  0  0  0  0  0  0
   57.4770   31.4910   43.3450 C   0  0  0  0  0  0  0  0  0  0  0  0
   58.1520   32.6510   43.7300 C   0  0  0  0  0  0  0  0  0  0  0  0
   58.6030   33.3880   42.8120 O   0  0  0  0  0  0  0  0  0  0  0  0
   58.3050   32.9710   45.0700 N   0  0  0  0  0  0  0  0  0  0  0  0
   58.9690   34.1120   45.5130 C   0  0  0  0  0  0  0  0  0  0  0  0
   59.6130   35.1170   44.5830 C   0  0  0  0  0  0  0  0  0  0  0  0
   59.0690   34.3770   46.8910 C   0  0  0  0  0  0  0  0  0  0  0  0
   58.5130   33.5060   47.8150 C   0  0  0  0  0  0  0  0  0  0  0  0
   57.8600   32.3680   47.3750 C   0  0  0  0  0  0  0  0  0  0  0  0
   57.7610   32.1070   46.0070 C   0  0  0  0  0  0  0  0  0  0  0  0
   57.1040   30.9820   45.6220 N   0  0  0  0  0  0  0  0  0  0  0  0
   58.1310   28.6210   46.2580 C   0  0  0  0  0  0  0  0  0  0  0  0
   61.0260   31.5790   48.8220 C   0  0  0  0  0  0  0  0  0  0  0  0
   61.7073   32.6060   51.6846 H   0  0  0  0  0  0  0  0  0  0  0  0
   61.5468   34.1752   50.8252 H   0  0  0  0  0  0  0  0  0  0  0  0
   60.1819   33.0075   50.8252 H   0  0  0  0  0  0  0  0  0  0  0  0
   63.6937   33.5657   49.6277 H   0  0  0  0  0  0  0  0  0  0  0  0
   64.5695   32.5522   47.5253 H   0  0  0  0  0  0  0  0  0  0  0  0
   63.1829   30.9249   46.2449 H   0  0  0  0  0  0  0  0  0  0  0  0
   60.9080   28.3800   48.1520 H   0  0  0  0  0  0  0  0  0  0  0  0
   60.0047   26.1026   47.6197 H   0  0  0  0  0  0  0  0  0  0  0  0
   58.0989   24.7583   46.7376 H   0  0  0  0  0  0  0  0  0  0  0  0
   56.2184   25.8779   45.5441 H   0  0  0  0  0  0  0  0  0  0  0  0
   56.7865   28.8592   43.1785 H   0  0  0  0  0  0  0  0  0  0  0  0
   55.2238   29.6839   43.5576 H   0  0  0  0  0  0  0  0  0  0  0  0
   57.3595   31.2448   42.2794 H   0  0  0  0  0  0  0  0  0  0  0  0
   60.1129   35.8972   45.1757 H   0  0  0  0  0  0  0  0  0  0  0  0
   60.3533   34.6076   43.9486 H   0  0  0  0  0  0  0  0  0  0  0  0
   58.8409   35.5768   43.9486 H   0  0  0  0  0  0  0  0  0  0  0  0
   59.5916   35.2809   47.2373 H   0  0  0  0  0  0  0  0  0  0  0  0
   58.5904   33.7181   48.8916 H   0  0  0  0  0  0  0  0  0  0  0  0
   57.4195   31.6700   48.1021 H   0  0  0  0  0  0  0  0  0  0  0  0
   58.1465   29.7111   46.1116 H   0  0  0  0  0  0  0  0  0  0  0  0
   60.0244   31.3096   49.1885 H   0  0  0  0  0  0  0  0  0  0  0  0
  1  2  1  0
  2  3  2  0
  3  4  1  0
  4  5  2  0
  5  6  1  0
  6  7  1  0
  7  8  2  0
  7  9  1  0
  9 10  1  0
 10 11  2  0
 11 12  1  0
 12 13  2  0
 13 14  1  0
 14 15  1  0
 15 16  1  0
 16 17  1  0
 17 18  2  0
 18 19  1  0
 19 20  2  0
 19 21  1  0
 21 22  1  0
 22 23  1  0
 22 24  2  0
 24 25  1  0
 25 26  2  0
 26 27  1  0
 27 28  2  0
 14 29  2  0
  6 30  2  0
 30  2  1  0
 29 10  1  0
 28 17  1  0
 27 21  1  0
  1 31  1  0
  1 32  1  0
  1 33  1  0
  3 34  1  0
  4 35  1  0
  5 36  1  0
  9 37  1  0
 11 38  1  0
 12 39  1  0
 13 40  1  0
 16 41  1  0
 16 42  1  0
 18 43  1  0
 23 44  1  0
 23 45  1  0
 23 46  1  0
 24 47  1  0
 25 48  1  0
 26 49  1  0
 29 50  1  0
 30 51  1  0
M  END
>  <UniqueID>  (37) 
34

>  <SMILES>  (37) 
Cc1cccc(C(=O)Nc2cccc(OCc3cc(=O)n4c(C)cccc4n3)c2)c1

>  <Energy>  (37) 
71.73942762391076

>  <Genealogy>  (37) 
Cc1cccc(C(=O)Nc2cccc(OCc3cc(=O)n4c(C)cccc4n3)c2)c1 (3D coordinates assigned)
Cc1cccc(C(=O)Nc2cccc(OCc3cc(=O)n4c(C)cccc4n3)c2)c1 (optimized conformer: 71.73942762391076 kcal/mol)

>  <smiles>  (37) 
Cc1cccc(C(=O)Nc2cccc(OCc3cc(=O)n4c(C)cccc4n3)c2)c1

>  <score_type>  (37) 
oracle

>  <origin>  (37) 
adg

>  <m_score__min__energy>  (37) 
-8.5099999999999998

>  <m_primary>  (37) 
energy

$$$$
37:0
     RDKit          3D

 58 61  0  0  0  0  0  0  0  0999 V2000
   56.0793   21.0568   42.1296 H   0  0  0  0  0  0  0  0  0  0  0  0
   56.6410   21.6440   42.8710 C   0  0  0  0  0  0  0  0  0  0  0  0
   56.2140   22.8890   43.2180 N   0  0  0  0  0  0  0  0  0  0  0  0
   56.8720   23.6550   44.1300 C   0  0  0  0  0  0  0  0  0  0  0  0
   56.3910   24.8320   44.4070 N   0  0  0  0  0  0  0  0  0  0  0  0
   56.2720   25.5740   45.9730 S   0  0  0  0  0  0  0  0  0  0  0  0
   56.0750   24.5250   47.0330 O   0  0  0  0  0  0  0  0  0  0  0  0
   55.1220   26.5430   46.0060 O   0  0  0  0  0  0  0  0  0  0  0  0
   57.7790   26.4420   46.2600 C   0  0  0  0  0  0  0  0  0  0  0  0
   59.0140   25.8350   45.9900 C   0  0  0  0  0  0  0  0  0  0  0  0
   59.0509   24.7783   45.6868 H   0  0  0  0  0  0  0  0  0  0  0  0
   60.1990   26.5690   46.1050 C   0  0  0  0  0  0  0  0  0  0  0  0
   61.1665   26.0857   45.9040 H   0  0  0  0  0  0  0  0  0  0  0  0
   60.1550   27.9160   46.4750 C   0  0  0  0  0  0  0  0  0  0  0  0
   61.0858   28.4990   46.5361 H   0  0  0  0  0  0  0  0  0  0  0  0
   58.9290   28.5250   46.7680 C   0  0  0  0  0  0  0  0  0  0  0  0
   58.8850   29.9190   47.0890 N   0  0  0  0  0  0  0  0  0  0  0  0
   59.4530   30.2390   47.9040 H   0  0  0  0  0  0  0  0  0  0  0  0
   58.2150   30.8730   46.2520 C   0  0  0  0  0  0  0  0  0  0  0  0
   57.3640   30.4730   45.4090 O   0  0  0  0  0  0  0  0  0  0  0  0
   58.5580   32.3130   46.2980 C   0  0  0  0  0  0  0  0  0  0  0  0
   58.7990   32.9760   45.0810 C   0  0  0  0  0  0  0  0  0  0  0  0
   58.7109   32.4229   44.1343 H   0  0  0  0  0  0  0  0  0  0  0  0
   59.1480   34.3250   45.0600 C   0  0  0  0  0  0  0  0  0  0  0  0
   59.3315   34.8300   44.1002 H   0  0  0  0  0  0  0  0  0  0  0  0
   59.2650   35.0360   46.2550 C   0  0  0  0  0  0  0  0  0  0  0  0
   59.5558   36.0967   46.2378 H   0  0  0  0  0  0  0  0  0  0  0  0
   59.0130   34.4010   47.4720 C   0  0  0  0  0  0  0  0  0  0  0  0
   59.1056   34.9654   48.4116 H   0  0  0  0  0  0  0  0  0  0  0  0
   58.6430   33.0500   47.5060 C   0  0  0  0  0  0  0  0  0  0  0  0
   58.2130   32.3440   49.1060 S   0  0  0  0  0  0  0  0  0  0  0  0
   59.8590   32.6320   49.8330 C   0  0  0  0  0  0  0  0  0  0  0  0
   60.1384   33.6879   49.7025 H   0  0  0  0  0  0  0  0  0  0  0  0
   59.8347   32.3905   50.9059 H   0  0  0  0  0  0  0  0  0  0  0  0
   60.8600   31.7640   49.1490 C   0  0  0  0  0  0  0  0  0  0  0  0
   60.7020   30.5120   49.1310 O   0  0  0  0  0  0  0  0  0  0  0  0
   61.9690   32.3570   48.4670 N   0  0  0  0  0  0  0  0  0  0  0  0
   61.8800   32.6180   47.0300 C   0  0  0  0  0  0  0  0  0  0  0  0
   62.1612   31.7116   46.4739 H   0  0  0  0  0  0  0  0  0  0  0  0
   60.8491   32.9003   46.7701 H   0  0  0  0  0  0  0  0  0  0  0  0
   62.8310   33.7580   46.6630 C   0  0  0  0  0  0  0  0  0  0  0  0
   62.8501   33.8749   45.5694 H   0  0  0  0  0  0  0  0  0  0  0  0
   62.4749   34.6837   47.1387 H   0  0  0  0  0  0  0  0  0  0  0  0
   64.1400   33.4830   47.1240 O   0  0  0  0  0  0  0  0  0  0  0  0
   64.1570   33.4480   48.5410 C   0  0  0  0  0  0  0  0  0  0  0  0
   65.1932   33.3144   48.8851 H   0  0  0  0  0  0  0  0  0  0  0  0
   63.7440   34.3946   48.9198 H   0  0  0  0  0  0  0  0  0  0  0  0
   63.2990   32.2930   49.0730 C   0  0  0  0  0  0  0  0  0  0  0  0
   63.7737   31.3345   48.8161 H   0  0  0  0  0  0  0  0  0  0  0  0
   63.2092   32.3751   50.1663 H   0  0  0  0  0  0  0  0  0  0  0  0
   57.7420   27.7850   46.6580 C   0  0  0  0  0  0  0  0  0  0  0  0
   56.7771   28.2617   46.8854 H   0  0  0  0  0  0  0  0  0  0  0  0
   58.0410   23.1480   44.7380 C   0  0  0  0  0  0  0  0  0  0  0  0
   58.5903   23.7521   45.4751 H   0  0  0  0  0  0  0  0  0  0  0  0
   58.4940   21.8700   44.3940 C   0  0  0  0  0  0  0  0  0  0  0  0
   59.4024   21.4631   44.8623 H   0  0  0  0  0  0  0  0  0  0  0  0
   57.7920   21.1120   43.4560 C   0  0  0  0  0  0  0  0  0  0  0  0
   58.1416   20.1061   43.1803 H   0  0  0  0  0  0  0  0  0  0  0  0
  1  2  1  0
  2  3  1  0
  3  4  1  0
  4  5  2  0
  5  6  1  0
  6  7  2  0
  6  8  2  0
  6  9  1  0
  9 10  2  0
 10 11  1  0
 10 12  1  0
 12 13  1  0
 12 14  2  0
 14 15  1  0
 14 16  1  0
 16 17  1  0
 17 18  1  0
 17 19  1  0
 19 20  2  0
 19 21  1  0
 21 22  2  0
 22 23  1  0
 22 24  1  0
 24 25  1  0
 24 26  2  0
 26 27  1  0
 26 28  1  0
 28 29  1  0
 28 30  2  0
 30 31  1  0
 31 32  1  0
 32 33  1  0
 32 34  1  0
 32 35  1  0
 35 36  2  0
 35 37  1  0
 37 38  1  0
 38 39  1  0
 38 40  1  0
 38 41  1  0
 41 42  1  0
 41 43  1  0
 41 44  1  0
 44 45  1  0
 45 46  1  0
 45 47  1  0
 45 48  1  0
 48 49  1  0
 48 50  1  0
 16 51  2  0
 51 52  1  0
  4 53  1  0
 53 54  1  0
 53 55  2  0
 55 56  1  0
 55 57  1  0
 57 58  1  0
 57  2  2  0
 51  9  1  0
 30 21  1  0
 48 37  1  0
M  CHG  1   3  -1
M  END
>  <UniqueID>  (38) 
35

>  <SMILES>  (38) 
O=C(Nc1cccc(S(=O)(=O)/N=c2\cccc[n-]2)c1)c1ccccc1SCC(=O)N1CCOCC1

>  <Energy>  (38) 
82.15818876837182

>  <Genealogy>  (38) 
O=C(Nc1cccc(S(=O)(=O)N=c2cccc[n-]2)c1)c1ccccc1SCC(=O)N1CCOCC1 (protonated)
O=C(Nc1cccc(S(=O)(=O)/N=c2\cccc[n-]2)c1)c1ccccc1SCC(=O)N1CCOCC1 (cis-trans isomerization)
O=C(Nc1cccc(S(=O)(=O)/N=c2\cccc[n-]2)c1)c1ccccc1SCC(=O)N1CCOCC1 (3D coordinates assigned)
O=C(Nc1cccc(S(=O)(=O)/N=c2\cccc[n-]2)c1)c1ccccc1SCC(=O)N1CCOCC1 (nonaromatic ring conformer: 82.15818876837182 kcal/mol)

>  <smiles>  (38) 
O=C(Nc1cccc(S(=O)(=O)N=c2cccc[nH]2)c1)c1ccccc1SCC(=O)N1CCOCC1

>  <score_type>  (38) 
oracle

>  <origin>  (38) 
adg

>  <m_score__min__energy>  (38) 
-12.210000000000001

>  <m_primary>  (38) 
energy

$$$$
38:0
     RDKit          3D

 36 38  0  0  0  0  0  0  0  0999 V2000
   57.1380   22.8040   47.7830 O   0  0  0  0  0  0  0  0  0  0  0  0
   57.0120   23.8560   47.1030 C   0  0  0  0  0  0  0  0  0  0  0  0
   55.8540   24.5420   47.0190 N   0  0  0  0  0  0  0  0  0  0  0  0
   55.9930   25.6370   46.2240 C   0  0  0  0  0  0  0  0  0  0  0  0
   54.9410   26.5160   45.9920 O   0  0  0  0  0  0  0  0  0  0  0  0
   57.2600   25.8100   45.6690 C   0  0  0  0  0  0  0  0  0  0  0  0
   57.7080   26.9580   44.8200 C   0  0  0  0  0  0  0  0  0  0  0  0
   58.4080   27.9850   45.6680 C   0  0  0  0  0  0  0  0  0  0  0  0
   58.1290   28.0770   47.0400 C   0  0  0  0  0  0  0  0  0  0  0  0
   58.7530   29.0540   47.8220 C   0  0  0  0  0  0  0  0  0  0  0  0
   59.6550   29.9580   47.2480 C   0  0  0  0  0  0  0  0  0  0  0  0
   60.2490   30.9160   48.0800 O   0  0  0  0  0  0  0  0  0  0  0  0
   60.7040   32.4910   47.5860 S   0  0  0  0  0  0  0  0  0  0  0  0
   60.9130   33.3640   48.7900 O   0  0  0  0  0  0  0  0  0  0  0  0
   61.9760   32.4080   46.7900 O   0  0  0  0  0  0  0  0  0  0  0  0
   59.4320   33.1800   46.5850 C   0  0  0  0  0  0  0  0  0  0  0  0
   58.0970   32.7970   46.7770 C   0  0  0  0  0  0  0  0  0  0  0  0
   57.0870   33.3530   45.9840 C   0  0  0  0  0  0  0  0  0  0  0  0
   57.4050   34.2940   45.0020 C   0  0  0  0  0  0  0  0  0  0  0  0
   58.7350   34.6830   44.8110 C   0  0  0  0  0  0  0  0  0  0  0  0
   59.7460   34.1290   45.6020 C   0  0  0  0  0  0  0  0  0  0  0  0
   59.9270   29.8720   45.8690 C   0  0  0  0  0  0  0  0  0  0  0  0
   59.3040   28.8950   45.0870 C   0  0  0  0  0  0  0  0  0  0  0  0
   58.2520   24.5600   46.2140 S   0  0  0  0  0  0  0  0  0  0  0  0
   54.0210   26.3350   46.3750 H   0  0  0  0  0  0  0  0  0  0  0  0
   58.3998   26.5911   44.0475 H   0  0  0  0  0  0  0  0  0  0  0  0
   56.8294   27.4202   44.3462 H   0  0  0  0  0  0  0  0  0  0  0  0
   57.4166   27.3778   47.5023 H   0  0  0  0  0  0  0  0  0  0  0  0
   58.5331   29.1129   48.8982 H   0  0  0  0  0  0  0  0  0  0  0  0
   57.8433   32.0586   47.5519 H   0  0  0  0  0  0  0  0  0  0  0  0
   56.0407   33.0485   46.1343 H   0  0  0  0  0  0  0  0  0  0  0  0
   56.6097   34.7291   44.3789 H   0  0  0  0  0  0  0  0  0  0  0  0
   58.9855   35.4248   44.0384 H   0  0  0  0  0  0  0  0  0  0  0  0
   60.7909   34.4387   45.4526 H   0  0  0  0  0  0  0  0  0  0  0  0
   60.6328   30.5767   45.4051 H   0  0  0  0  0  0  0  0  0  0  0  0
   59.5176   28.8393   44.0094 H   0  0  0  0  0  0  0  0  0  0  0  0
  1  2  2  0
  2  3  1  0
  3  4  1  0
  4  5  1  0
  4  6  2  0
  6  7  1  0
  7  8  1  0
  8  9  2  0
  9 10  1  0
 10 11  2  0
 11 12  1  0
 12 13  1  0
 13 14  2  0
 13 15  2  0
 13 16  1  0
 16 17  2  0
 17 18  1  0
 18 19  2  0
 19 20  1  0
 20 21  2  0
 11 22  1  0
 22 23  2  0
  6 24  1  0
 24  2  1  0
 23  8  1  0
 21 16  1  0
  5 25  1  0
  7 26  1  0
  7 27  1  0
  9 28  1  0
 10 29  1  0
 17 30  1  0
 18 31  1  0
 19 32  1  0
 20 33  1  0
 21 34  1  0
 22 35  1  0
 23 36  1  0
M  CHG  1   3  -1
M  END
>  <UniqueID>  (39) 
36

>  <SMILES>  (39) 
O=c1[n-]c(O)c(Cc2ccc(OS(=O)(=O)c3ccccc3)cc2)s1

>  <Energy>  (39) 
67.52997487759545

>  <Genealogy>  (39) 
O=c1[n-]c(O)c(Cc2ccc(OS(=O)(=O)c3ccccc3)cc2)s1 (protonated)
O=c1[n-]c(O)c(Cc2ccc(OS(=O)(=O)c3ccccc3)cc2)s1 (3D coordinates assigned)
O=c1[n-]c(O)c(Cc2ccc(OS(=O)(=O)c3ccccc3)cc2)s1 (optimized conformer: 67.52997487759545 kcal/mol)

>  <smiles>  (39) 
O=c1[nH]c(O)c(Cc2ccc(OS(=O)(=O)c3ccccc3)cc2)s1

>  <score_type>  (39) 
oracle

>  <origin>  (39) 
adg

>  <m_score__min__energy>  (39) 
-12.44

>  <m_primary>  (39) 
energy

$$$$
39:0
     RDKit          3D

 36 37  0  0  0  0  0  0  0  0999 V2000
   59.0990   29.9720   47.8770 C   0  0  0  0  0  0  0  0  0  0  0  0
   58.1580   30.5640   46.9890 O   0  0  0  0  0  0  0  0  0  0  0  0
   58.4130   31.6910   46.1900 C   0  0  0  0  0  0  0  0  0  0  0  0
   59.4840   32.5660   46.4660 C   0  0  0  0  0  0  0  0  0  0  0  0
   59.6750   33.7160   45.6960 C   0  0  0  0  0  0  0  0  0  0  0  0
   58.7990   34.0110   44.6510 C   0  0  0  0  0  0  0  0  0  0  0  0
   57.7410   33.1480   44.3610 C   0  0  0  0  0  0  0  0  0  0  0  0
   57.5580   31.9740   45.1020 C   0  0  0  0  0  0  0  0  0  0  0  0
   56.4540   31.1220   44.7660 N   0  0  0  0  0  0  0  0  0  0  0  0
   56.4420   29.6950   44.8950 C   0  0  0  0  0  0  0  0  0  0  0  0
   55.3550   29.0600   44.8190 O   0  0  0  0  0  0  0  0  0  0  0  0
   57.6760   29.0030   45.1240 N   0  0  0  0  0  0  0  0  0  0  0  0
   57.7560   27.5930   45.4080 C   0  0  0  0  0  0  0  0  0  0  0  0
   57.6440   27.1340   46.7300 C   0  0  0  0  0  0  0  0  0  0  0  0
   57.7570   25.7740   47.0250 C   0  0  0  0  0  0  0  0  0  0  0  0
   57.9980   24.8420   46.0040 C   0  0  0  0  0  0  0  0  0  0  0  0
   58.1200   23.4410   46.3130 N   0  0  0  0  0  0  0  0  0  0  0  0
   57.3990   22.9160   47.1860 O   0  0  0  0  0  0  0  0  0  0  0  0
   59.0390   22.6560   45.6530 O   0  0  0  0  0  0  0  0  0  0  0  0
   58.1270   25.2990   44.6810 C   0  0  0  0  0  0  0  0  0  0  0  0
   58.0030   26.6650   44.3730 C   0  0  0  0  0  0  0  0  0  0  0  0
   58.1470   27.1170   42.9450 C   0  0  0  0  0  0  0  0  0  0  0  0
   58.7936   30.1641   48.9162 H   0  0  0  0  0  0  0  0  0  0  0  0
   59.1372   28.8869   47.7007 H   0  0  0  0  0  0  0  0  0  0  0  0
   60.0937   30.4073   47.7007 H   0  0  0  0  0  0  0  0  0  0  0  0
   60.1736   32.3415   47.2931 H   0  0  0  0  0  0  0  0  0  0  0  0
   60.5169   34.3895   45.9139 H   0  0  0  0  0  0  0  0  0  0  0  0
   58.9422   34.9245   44.0551 H   0  0  0  0  0  0  0  0  0  0  0  0
   57.0457   33.3919   43.5442 H   0  0  0  0  0  0  0  0  0  0  0  0
   58.5600   29.5440   45.0050 H   0  0  0  0  0  0  0  0  0  0  0  0
   57.4652   27.8538   47.5424 H   0  0  0  0  0  0  0  0  0  0  0  0
   57.6564   25.4307   48.0652 H   0  0  0  0  0  0  0  0  0  0  0  0
   58.3278   24.5776   43.8753 H   0  0  0  0  0  0  0  0  0  0  0  0
   58.4808   28.1649   42.9240 H   0  0  0  0  0  0  0  0  0  0  0  0
   58.8885   26.4856   42.4336 H   0  0  0  0  0  0  0  0  0  0  0  0
   57.1769   27.0309   42.4336 H   0  0  0  0  0  0  0  0  0  0  0  0
  1  2  1  0
  2  3  1  0
  3  4  2  0
  4  5  1  0
  5  6  2  0
  6  7  1  0
  7  8  2  0
  8  9  1  0
  9 10  1  0
 10 11  2  0
 10 12  1  0
 12 13  1  0
 13 14  2  0
 14 15  1  0
 15 16  2  0
 16 17  1  0
 17 18  2  0
 17 19  1  0
 16 20  1  0
 20 21  2  0
 21 22  1  0
  8  3  1  0
 21 13  1  0
  1 23  1  0
  1 24  1  0
  1 25  1  0
  4 26  1  0
  5 27  1  0
  6 28  1  0
  7 29  1  0
 12 30  1  0
 14 31  1  0
 15 32  1  0
 20 33  1  0
 22 34  1  0
 22 35  1  0
 22 36  1  0
M  CHG  3   9  -1  17   1  19  -1
M  END
>  <UniqueID>  (40) 
37

>  <SMILES>  (40) 
COc1ccccc1[N-]C(=O)Nc1ccc([N+](=O)[O-])cc1C

>  <Energy>  (40) 
46.423626856969264

>  <Genealogy>  (40) 
COc1ccccc1[N-]C(=O)Nc1ccc([N+](=O)[O-])cc1C (protonated)
COc1ccccc1[N-]C(=O)Nc1ccc([N+](=O)[O-])cc1C (3D coordinates assigned)
COc1ccccc1[N-]C(=O)Nc1ccc([N+](=O)[O-])cc1C (optimized conformer: 46.423626856969264 kcal/mol)

>  <smiles>  (40) 
COc1ccccc1NC(=O)Nc1ccc([N+](=O)[O-])cc1C

>  <score_type>  (40) 
oracle

>  <origin>  (40) 
adg

>  <m_score__min__energy>  (40) 
-9.0999999999999996

>  <m_primary>  (40) 
energy

$$$$
40:0
     RDKit          3D

 34 36  0  0  0  0  0  0  0  0999 V2000
   55.8190   27.2380   55.1640 O   0  0  0  0  0  0  0  0  0  0  0  0
   56.3400   27.8870   54.2160 C   0  0  0  0  0  0  0  0  0  0  0  0
   57.7160   27.6610   53.8680 N   0  0  0  0  0  0  0  0  0  0  0  0
   58.5830   26.7790   54.6430 C   0  0  0  0  0  0  0  0  0  0  0  0
   59.7200   26.2840   53.7890 C   0  0  0  0  0  0  0  0  0  0  0  0
   60.1210   24.9380   53.8390 C   0  0  0  0  0  0  0  0  0  0  0  0
   61.1650   24.4840   53.0270 C   0  0  0  0  0  0  0  0  0  0  0  0
   61.8130   25.3670   52.1580 C   0  0  0  0  0  0  0  0  0  0  0  0
   62.8230   24.9240   51.3710 F   0  0  0  0  0  0  0  0  0  0  0  0
   61.4160   26.7070   52.1010 C   0  0  0  0  0  0  0  0  0  0  0  0
   60.3730   27.1650   52.9120 C   0  0  0  0  0  0  0  0  0  0  0  0
   55.5070   28.8470   53.4530 C   0  0  0  0  0  0  0  0  0  0  0  0
   54.1860   29.0900   53.8640 C   0  0  0  0  0  0  0  0  0  0  0  0
   53.3790   29.9850   53.1540 C   0  0  0  0  0  0  0  0  0  0  0  0
   52.0520   30.2320   53.5370 C   0  0  0  0  0  0  0  0  0  0  0  0
   51.2680   31.1290   52.8040 C   0  0  0  0  0  0  0  0  0  0  0  0
   51.8030   31.7840   51.6890 C   0  0  0  0  0  0  0  0  0  0  0  0
   51.0190   32.6740   50.9650 O   0  0  0  0  0  0  0  0  0  0  0  0
   53.1250   31.5420   51.3010 C   0  0  0  0  0  0  0  0  0  0  0  0
   53.9160   30.6450   52.0290 C   0  0  0  0  0  0  0  0  0  0  0  0
   55.2020   30.4140   51.6590 N   0  0  0  0  0  0  0  0  0  0  0  0
   56.0060   29.5490   52.3340 C   0  0  0  0  0  0  0  0  0  0  0  0
   57.2010   29.4090   51.9620 O   0  0  0  0  0  0  0  0  0  0  0  0
   58.1030   28.0810   52.9930 H   0  0  0  0  0  0  0  0  0  0  0  0
   58.9888   27.3324   55.5027 H   0  0  0  0  0  0  0  0  0  0  0  0
   57.9963   25.9171   54.9935 H   0  0  0  0  0  0  0  0  0  0  0  0
   59.6119   24.2393   54.5192 H   0  0  0  0  0  0  0  0  0  0  0  0
   61.4770   23.4301   53.0720 H   0  0  0  0  0  0  0  0  0  0  0  0
   61.9252   27.4018   51.4169 H   0  0  0  0  0  0  0  0  0  0  0  0
   60.0629   28.2193   52.8628 H   0  0  0  0  0  0  0  0  0  0  0  0
   53.7842   28.5740   54.7485 H   0  0  0  0  0  0  0  0  0  0  0  0
   51.6282   29.7203   54.4137 H   0  0  0  0  0  0  0  0  0  0  0  0
   50.2274   31.3202   53.1050 H   0  0  0  0  0  0  0  0  0  0  0  0
   53.5433   32.0567   50.4235 H   0  0  0  0  0  0  0  0  0  0  0  0
  1  2  2  0
  2  3  1  0
  3  4  1  0
  4  5  1  0
  5  6  2  0
  6  7  1  0
  7  8  2  0
  8  9  1  0
  8 10  1  0
 10 11  2  0
  2 12  1  0
 12 13  2  0
 13 14  1  0
 14 15  2  0
 15 16  1  0
 16 17  2  0
 17 18  1  0
 17 19  1  0
 19 20  2  0
 20 21  1  0
 21 22  1  0
 22 23  2  0
 11  5  1  0
 22 12  1  0
 20 14  1  0
  3 24  1  0
  4 25  1  0
  4 26  1  0
  6 27  1  0
  7 28  1  0
 10 29  1  0
 11 30  1  0
 13 31  1  0
 15 32  1  0
 16 33  1  0
 19 34  1  0
M  CHG  2  18  -1  21  -1
M  END
>  <UniqueID>  (41) 
38

>  <SMILES>  (41) 
O=C(NCc1ccc(F)cc1)c1cc2ccc([O-])cc2[n-]c1=O

>  <Energy>  (41) 
42.63779058987088

>  <Genealogy>  (41) 
O=C(NCc1ccc(F)cc1)c1cc2ccc([O-])cc2[n-]c1=O (protonated)
O=C(NCc1ccc(F)cc1)c1cc2ccc([O-])cc2[n-]c1=O (3D coordinates assigned)
O=C(NCc1ccc(F)cc1)c1cc2ccc([O-])cc2[n-]c1=O (optimized conformer: 42.63779058987088 kcal/mol)

>  <smiles>  (41) 
O=C(NCc1ccc(F)cc1)c1cc2ccc(O)cc2[nH]c1=O

>  <score_type>  (41) 
oracle

>  <origin>  (41) 
adg

>  <m_score__min__energy>  (41) 
-11.050000000000001

>  <m_primary>  (41) 
energy

$$$$
41:0
     RDKit          3D

 51 54  0  0  0  0  0  0  0  0999 V2000
   54.5272   30.6352   43.8674 H   0  0  0  0  0  0  0  0  0  0  0  0
   55.5240   30.2330   44.1010 C   0  0  0  0  0  0  0  0  0  0  0  0
   55.6490   29.1670   44.9370 N   0  0  0  0  0  0  0  0  0  0  0  0
   56.8670   28.6410   45.2570 C   0  0  0  0  0  0  0  0  0  0  0  0
   56.9740   27.6030   46.0320 N   0  0  0  0  0  0  0  0  0  0  0  0
   56.2590   26.3600   45.9260 C   0  0  0  0  0  0  0  0  0  0  0  0
   55.0080   26.3250   46.0930 O   0  0  0  0  0  0  0  0  0  0  0  0
   56.9880   25.1160   45.5680 C   0  0  0  0  0  0  0  0  0  0  0  0
   56.4210   24.2360   44.6290 C   0  0  0  0  0  0  0  0  0  0  0  0
   55.4101   24.4310   44.2417 H   0  0  0  0  0  0  0  0  0  0  0  0
   57.1280   23.1170   44.1830 C   0  0  0  0  0  0  0  0  0  0  0  0
   56.6712   22.4350   43.4507 H   0  0  0  0  0  0  0  0  0  0  0  0
   58.4110   22.8630   44.6640 C   0  0  0  0  0  0  0  0  0  0  0  0
   58.9712   21.9893   44.2995 H   0  0  0  0  0  0  0  0  0  0  0  0
   58.9860   23.7150   45.6070 C   0  0  0  0  0  0  0  0  0  0  0  0
   59.9980   23.5080   45.9852 H   0  0  0  0  0  0  0  0  0  0  0  0
   58.2810   24.8360   46.0770 C   0  0  0  0  0  0  0  0  0  0  0  0
   58.8440   25.6390   47.1230 N   0  0  0  0  0  0  0  0  0  0  0  0
   59.9950   26.4780   46.9750 C   0  0  0  0  0  0  0  0  0  0  0  0
   61.0180   26.0070   46.4120 O   0  0  0  0  0  0  0  0  0  0  0  0
   60.0310   27.8500   47.5360 C   0  0  0  0  0  0  0  0  0  0  0  0
   59.6640   28.0790   48.8750 C   0  0  0  0  0  0  0  0  0  0  0  0
   59.4217   27.2274   49.5277 H   0  0  0  0  0  0  0  0  0  0  0  0
   59.6050   29.3800   49.3820 C   0  0  0  0  0  0  0  0  0  0  0  0
   59.3153   29.5459   50.4301 H   0  0  0  0  0  0  0  0  0  0  0  0
   59.9130   30.4750   48.5620 C   0  0  0  0  0  0  0  0  0  0  0  0
   59.7290   31.8800   49.0680 C   0  0  0  0  0  0  0  0  0  0  0  0
   58.6645   32.1482   48.9987 H   0  0  0  0  0  0  0  0  0  0  0  0
   60.0758   31.9191   50.1112 H   0  0  0  0  0  0  0  0  0  0  0  0
   60.7100   33.0800   48.0910 S   0  0  0  0  0  0  0  0  0  0  0  0
   59.4120   33.4590   46.9060 C   0  0  0  0  0  0  0  0  0  0  0  0
   58.1060   32.9940   47.1120 C   0  0  0  0  0  0  0  0  0  0  0  0
   57.8765   32.3688   47.9875 H   0  0  0  0  0  0  0  0  0  0  0  0
   57.0940   33.3250   46.2040 C   0  0  0  0  0  0  0  0  0  0  0  0
   56.0682   32.9637   46.3692 H   0  0  0  0  0  0  0  0  0  0  0  0
   57.3850   34.1150   45.0860 C   0  0  0  0  0  0  0  0  0  0  0  0
   56.5868   34.3811   44.3775 H   0  0  0  0  0  0  0  0  0  0  0  0
   58.6910   34.5660   44.8700 C   0  0  0  0  0  0  0  0  0  0  0  0
   58.9221   35.1795   43.9867 H   0  0  0  0  0  0  0  0  0  0  0  0
   59.7030   34.2370   45.7770 C   0  0  0  0  0  0  0  0  0  0  0  0
   60.7304   34.5897   45.6040 H   0  0  0  0  0  0  0  0  0  0  0  0
   60.3010   30.2500   47.2330 C   0  0  0  0  0  0  0  0  0  0  0  0
   60.5660   31.1018   46.5894 H   0  0  0  0  0  0  0  0  0  0  0  0
   60.3530   28.9520   46.7220 C   0  0  0  0  0  0  0  0  0  0  0  0
   60.6480   28.7892   45.6749 H   0  0  0  0  0  0  0  0  0  0  0  0
   58.0270   29.2020   44.7080 C   0  0  0  0  0  0  0  0  0  0  0  0
   59.0144   28.7847   44.9548 H   0  0  0  0  0  0  0  0  0  0  0  0
   57.9210   30.2950   43.8450 C   0  0  0  0  0  0  0  0  0  0  0  0
   58.8256   30.7429   43.4080 H   0  0  0  0  0  0  0  0  0  0  0  0
   56.6630   30.8170   43.5390 C   0  0  0  0  0  0  0  0  0  0  0  0
   56.5689   31.6792   42.8624 H   0  0  0  0  0  0  0  0  0  0  0  0
  1  2  1  0
  2  3  1  0
  3  4  1  0
  4  5  2  0
  5  6  1  0
  6  7  2  0
  6  8  1  0
  8  9  2  0
  9 10  1  0
  9 11  1  0
 11 12  1  0
 11 13  2  0
 13 14  1  0
 13 15  1  0
 15 16  1  0
 15 17  2  0
 17 18  1  0
 18 19  1  0
 19 20  2  0
 19 21  1  0
 21 22  2  0
 22 23  1  0
 22 24  1  0
 24 25  1  0
 24 26  2  0
 26 27  1  0
 27 28  1  0
 27 29  1  0
 27 30  1  0
 30 31  1  0
 31 32  2  0
 32 33  1  0
 32 34  1  0
 34 35  1  0
 34 36  2  0
 36 37  1  0
 36 38  1  0
 38 39  1  0
 38 40  2  0
 40 41  1  0
 26 42  1  0
 42 43  1  0
 42 44  2  0
 44 45  1  0
  4 46  1  0
 46 47  1  0
 46 48  2  0
 48 49  1  0
 48 50  1  0
 50 51  1  0
 50  2  2  0
 17  8  1  0
 44 21  1  0
 40 31  1  0
M  CHG  2   3  -1  18  -1
M  END
>  <UniqueID>  (42) 
39

>  <SMILES>  (42) 
O=C([N-]c1ccccc1C(=O)/N=c1/cccc[n-]1)c1ccc(CSc2ccccc2)cc1

>  <Energy>  (42) 
64.13653900339577

>  <Genealogy>  (42) 
O=C([N-]c1ccccc1C(=O)N=c1cccc[n-]1)c1ccc(CSc2ccccc2)cc1 (protonated)
O=C([N-]c1ccccc1C(=O)/N=c1/cccc[n-]1)c1ccc(CSc2ccccc2)cc1 (cis-trans isomerization)
O=C([N-]c1ccccc1C(=O)/N=c1/cccc[n-]1)c1ccc(CSc2ccccc2)cc1 (3D coordinates assigned)
O=C([N-]c1ccccc1C(=O)/N=c1/cccc[n-]1)c1ccc(CSc2ccccc2)cc1 (optimized conformer: 64.13653900339577 kcal/mol)

>  <smiles>  (42) 
O=C(Nc1ccccc1C(=O)N=c1cccc[nH]1)c1ccc(CSc2ccccc2)cc1

>  <score_type>  (42) 
oracle

>  <origin>  (42) 
adg

>  <m_score__min__energy>  (42) 
-14.33

>  <m_primary>  (42) 
energy

$$$$
42:0
     RDKit          3D

 34 36  0  0  0  0  0  0  0  0999 V2000
   55.7530   28.1240   44.7600 H   0  0  0  0  0  0  0  0  0  0  0  0
   55.5170   29.1380   44.8580 N   0  0  0  0  0  0  0  0  0  0  0  0
   56.1940   30.0690   44.2660 C   0  0  0  0  0  0  0  0  0  0  0  0
   56.8470   30.9990   45.0130 N   0  0  0  0  0  0  0  0  0  0  0  0
   57.5740   32.0070   44.4540 C   0  0  0  0  0  0  0  0  0  0  0  0
   58.2660   32.9820   45.3360 C   0  0  0  0  0  0  0  0  0  0  0  0
   58.6380   34.2410   44.8340 C   0  0  0  0  0  0  0  0  0  0  0  0
   58.4165   34.4989   43.7879 H   0  0  0  0  0  0  0  0  0  0  0  0
   59.2870   35.1670   45.6540 C   0  0  0  0  0  0  0  0  0  0  0  0
   59.5781   36.1479   45.2502 H   0  0  0  0  0  0  0  0  0  0  0  0
   59.5670   34.8510   46.9840 C   0  0  0  0  0  0  0  0  0  0  0  0
   60.0817   35.5832   47.6235 H   0  0  0  0  0  0  0  0  0  0  0  0
   59.1970   33.6090   47.5080 C   0  0  0  0  0  0  0  0  0  0  0  0
   59.5150   33.3080   48.8750 N   0  0  0  0  0  0  0  0  0  0  0  0
   60.4890   32.3590   49.3310 C   0  0  0  0  0  0  0  0  0  0  0  0
   60.0880   31.2550   49.7860 O   0  0  0  0  0  0  0  0  0  0  0  0
   61.9430   32.6180   49.2200 C   0  0  0  0  0  0  0  0  0  0  0  0
   62.6160   33.1830   50.2600 N   0  0  0  0  0  0  0  0  0  0  0  0
   63.9490   33.4290   50.1930 C   0  0  0  0  0  0  0  0  0  0  0  0
   64.4728   33.8805   51.0484 H   0  0  0  0  0  0  0  0  0  0  0  0
   64.6500   33.1050   49.0310 C   0  0  0  0  0  0  0  0  0  0  0  0
   65.7314   33.2951   48.9645 H   0  0  0  0  0  0  0  0  0  0  0  0
   63.9850   32.5520   47.9810 N   0  0  0  0  0  0  0  0  0  0  0  0
   64.5090   32.3110   47.1110 H   0  0  0  0  0  0  0  0  0  0  0  0
   62.6480   32.3040   48.0480 C   0  0  0  0  0  0  0  0  0  0  0  0
   62.1237   31.8603   47.1888 H   0  0  0  0  0  0  0  0  0  0  0  0
   58.5780   32.6630   46.6710 C   0  0  0  0  0  0  0  0  0  0  0  0
   58.3355   31.6644   47.0635 H   0  0  0  0  0  0  0  0  0  0  0  0
   57.6710   32.0850   43.0530 C   0  0  0  0  0  0  0  0  0  0  0  0
   58.2644   32.8828   42.5824 H   0  0  0  0  0  0  0  0  0  0  0  0
   57.0090   31.1430   42.2640 C   0  0  0  0  0  0  0  0  0  0  0  0
   57.0751   31.1999   41.1675 H   0  0  0  0  0  0  0  0  0  0  0  0
   56.2640   30.1300   42.8660 C   0  0  0  0  0  0  0  0  0  0  0  0
   55.7368   29.3866   42.2501 H   0  0  0  0  0  0  0  0  0  0  0  0
  1  2  1  0
  2  3  2  0
  3  4  1  0
  4  5  1  0
  5  6  1  0
  6  7  2  0
  7  8  1  0
  7  9  1  0
  9 10  1  0
  9 11  2  0
 11 12  1  0
 11 13  1  0
 13 14  1  0
 14 15  1  0
 15 16  2  0
 15 17  1  0
 17 18  2  0
 18 19  1  0
 19 20  1  0
 19 21  2  0
 21 22  1  0
 21 23  1  0
 23 24  1  0
 23 25  2  0
 25 26  1  0
 13 27  2  0
 27 28  1  0
  5 29  2  0
 29 30  1  0
 29 31  1  0
 31 32  1  0
 31 33  2  0
 33 34  1  0
 33  3  1  0
 27  6  1  0
 25 17  1  0
M  CHG  3   4  -1  14  -1  23   1
M  END
>  <UniqueID>  (43) 
40

>  <SMILES>  (43) 
[H]/N=c1\cccc(-c2cccc([N-]C(=O)c3c[nH+]ccn3)c2)[n-]1

>  <Energy>  (43) 
47.733564840453745

>  <Genealogy>  (43) 
N=c1cccc(-c2cccc([N-]C(=O)c3c[nH+]ccn3)c2)[n-]1 (protonated)
[H]/N=c1\cccc(-c2cccc([N-]C(=O)c3c[nH+]ccn3)c2)[n-]1 (cis-trans isomerization)
[H]/N=c1\cccc(-c2cccc([N-]C(=O)c3c[nH+]ccn3)c2)[n-]1 (3D coordinates assigned)
[H]/N=c1\cccc(-c2cccc([N-]C(=O)c3c[nH+]ccn3)c2)[n-]1 (optimized conformer: 47.733564840453745 kcal/mol)

>  <smiles>  (43) 
N=c1cccc(-c2cccc(NC(=O)c3cnccn3)c2)[nH]1

>  <score_type>  (43) 
oracle

>  <origin>  (43) 
adg

>  <m_score__min__energy>  (43) 
-10.140000000000001

>  <m_primary>  (43) 
energy

$$$$
43:0
     RDKit          3D

 47 50  0  0  0  0  0  0  0  0999 V2000
   61.1980   26.7460   49.7920 O   0  0  0  0  0  0  0  0  0  0  0  0
   60.6180   27.5440   49.0090 C   0  0  0  0  0  0  0  0  0  0  0  0
   60.3420   27.1200   47.6670 N   0  0  0  0  0  0  0  0  0  0  0  0
   59.6840   27.9180   46.6740 C   0  0  0  0  0  0  0  0  0  0  0  0
   60.3730   28.9090   45.9630 C   0  0  0  0  0  0  0  0  0  0  0  0
   59.7140   29.6710   45.0000 C   0  0  0  0  0  0  0  0  0  0  0  0
   58.3520   29.4570   44.7170 C   0  0  0  0  0  0  0  0  0  0  0  0
   57.6780   30.3460   43.7950 N   0  0  0  0  0  0  0  0  0  0  0  0
   56.9790   31.4290   44.5070 C   0  0  0  0  0  0  0  0  0  0  0  0
   57.9470   32.3490   45.2140 C   0  0  0  0  0  0  0  0  0  0  0  0
   58.5820   33.3910   44.5150 C   0  0  0  0  0  0  0  0  0  0  0  0
   59.4500   34.2580   45.1860 C   0  0  0  0  0  0  0  0  0  0  0  0
   59.6820   34.1000   46.5540 C   0  0  0  0  0  0  0  0  0  0  0  0
   59.0480   33.0730   47.2560 C   0  0  0  0  0  0  0  0  0  0  0  0
   58.1820   32.2000   46.5910 C   0  0  0  0  0  0  0  0  0  0  0  0
   57.6570   28.4370   45.4230 C   0  0  0  0  0  0  0  0  0  0  0  0
   56.2630   28.1760   45.2010 N   0  0  0  0  0  0  0  0  0  0  0  0
   55.7340   27.1450   45.6640 O   0  0  0  0  0  0  0  0  0  0  0  0
   55.4520   29.1800   44.7240 O   0  0  0  0  0  0  0  0  0  0  0  0
   58.3380   27.6790   46.3890 C   0  0  0  0  0  0  0  0  0  0  0  0
   60.1950   28.8750   49.5010 C   0  0  0  0  0  0  0  0  0  0  0  0
   61.0210   29.9990   49.3170 C   0  0  0  0  0  0  0  0  0  0  0  0
   60.6240   31.2570   49.7770 C   0  0  0  0  0  0  0  0  0  0  0  0
   59.4000   31.4030   50.4350 C   0  0  0  0  0  0  0  0  0  0  0  0
   59.0050   32.6170   50.9030 N   0  0  0  0  0  0  0  0  0  0  0  0
   57.8150   32.7680   51.5430 C   0  0  0  0  0  0  0  0  0  0  0  0
   56.9820   31.6610   51.7220 C   0  0  0  0  0  0  0  0  0  0  0  0
   57.3710   30.4450   51.2550 N   0  0  0  0  0  0  0  0  0  0  0  0
   58.5590   30.2860   50.6160 C   0  0  0  0  0  0  0  0  0  0  0  0
   58.9520   29.0300   50.1410 C   0  0  0  0  0  0  0  0  0  0  0  0
   61.4395   29.0866   46.1658 H   0  0  0  0  0  0  0  0  0  0  0  0
   60.2658   30.4502   44.4537 H   0  0  0  0  0  0  0  0  0  0  0  0
   56.9920   29.8180   43.2120 H   0  0  0  0  0  0  0  0  0  0  0  0
   58.3640   30.7570   43.1180 H   0  0  0  0  0  0  0  0  0  0  0  0
   56.3961   32.0148   43.7810 H   0  0  0  0  0  0  0  0  0  0  0  0
   56.3231   30.9742   45.2640 H   0  0  0  0  0  0  0  0  0  0  0  0
   58.3957   33.5242   43.4391 H   0  0  0  0  0  0  0  0  0  0  0  0
   59.9516   35.0669   44.6346 H   0  0  0  0  0  0  0  0  0  0  0  0
   60.3644   34.7849   47.0787 H   0  0  0  0  0  0  0  0  0  0  0  0
   59.2302   32.9507   48.3339 H   0  0  0  0  0  0  0  0  0  0  0  0
   57.6828   31.3935   47.1480 H   0  0  0  0  0  0  0  0  0  0  0  0
   57.8029   26.8845   46.9297 H   0  0  0  0  0  0  0  0  0  0  0  0
   61.9886   29.8862   48.8061 H   0  0  0  0  0  0  0  0  0  0  0  0
   61.2737   32.1309   49.6215 H   0  0  0  0  0  0  0  0  0  0  0  0
   57.5099   33.7562   51.9177 H   0  0  0  0  0  0  0  0  0  0  0  0
   56.0169   31.7726   52.2378 H   0  0  0  0  0  0  0  0  0  0  0  0
   58.2879   28.1624   50.2682 H   0  0  0  0  0  0  0  0  0  0  0  0
  1  2  2  0
  2  3  1  0
  3  4  1  0
  4  5  2  0
  5  6  1  0
  6  7  2  0
  7  8  1  0
  8  9  1  0
  9 10  1  0
 10 11  2  0
 11 12  1  0
 12 13  2  0
 13 14  1  0
 14 15  2  0
  7 16  1  0
 16 17  1  0
 17 18  2  0
 17 19  1  0
 16 20  2  0
  2 21  1  0
 21 22  2  0
 22 23  1  0
 23 24  2  0
 24 25  1  0
 25 26  2  0
 26 27  1  0
 27 28  2  0
 28 29  1  0
 29 30  2  0
 20  4  1  0
 30 21  1  0
 15 10  1  0
 29 24  1  0
  5 31  1  0
  6 32  1  0
  8 33  1  0
  8 34  1  0
  9 35  1  0
  9 36  1  0
 11 37  1  0
 12 38  1  0
 13 39  1  0
 14 40  1  0
 15 41  1  0
 20 42  1  0
 22 43  1  0
 23 44  1  0
 26 45  1  0
 27 46  1  0
 30 47  1  0
M  CHG  4   3  -1   8   1  17   1  19  -1
M  END
>  <UniqueID>  (44) 
41

>  <SMILES>  (44) 
O=C([N-]c1ccc([NH2+]Cc2ccccc2)c([N+](=O)[O-])c1)c1ccc2nccnc2c1

>  <Energy>  (44) 
67.9540314547552

>  <Genealogy>  (44) 
O=C([N-]c1ccc([NH2+]Cc2ccccc2)c([N+](=O)[O-])c1)c1ccc2nccnc2c1 (protonated)
O=C([N-]c1ccc([NH2+]Cc2ccccc2)c([N+](=O)[O-])c1)c1ccc2nccnc2c1 (3D coordinates assigned)
O=C([N-]c1ccc([NH2+]Cc2ccccc2)c([N+](=O)[O-])c1)c1ccc2nccnc2c1 (optimized conformer: 67.9540314547552 kcal/mol)

>  <smiles>  (44) 
O=C(Nc1ccc(NCc2ccccc2)c([N+](=O)[O-])c1)c1ccc2nccnc2c1

>  <score_type>  (44) 
oracle

>  <origin>  (44) 
adg

>  <m_score__min__energy>  (44) 
-8.8200000000000003

>  <m_primary>  (44) 
energy

$$$$
44:0
     RDKit          3D

 44 47  0  0  0  0  0  0  0  0999 V2000
   61.7210   31.7980   47.2920 C   0  0  0  0  0  0  0  0  0  0  0  0
   60.5000   32.5850   47.1500 N   0  0  0  0  0  0  0  0  0  0  0  0
   60.3580   33.9490   47.6590 C   0  0  0  0  0  0  0  0  0  0  0  0
   58.9950   34.4600   47.1410 C   0  0  0  0  0  0  0  0  0  0  0  0
   58.4870   33.3230   46.3270 C   0  0  0  0  0  0  0  0  0  0  0  0
   57.3100   33.2770   45.5780 C   0  0  0  0  0  0  0  0  0  0  0  0
   57.0220   32.1140   44.8520 C   0  0  0  0  0  0  0  0  0  0  0  0
   57.9060   31.0200   44.8860 C   0  0  0  0  0  0  0  0  0  0  0  0
   59.0920   31.0820   45.6450 C   0  0  0  0  0  0  0  0  0  0  0  0
   59.9560   29.9410   45.7210 N   0  0  0  0  0  0  0  0  0  0  0  0
   59.4840   28.6020   45.9560 C   0  0  0  0  0  0  0  0  0  0  0  0
   59.6060   28.0420   47.2370 C   0  0  0  0  0  0  0  0  0  0  0  0
   59.1710   26.7370   47.4860 C   0  0  0  0  0  0  0  0  0  0  0  0
   58.6220   25.9630   46.4470 C   0  0  0  0  0  0  0  0  0  0  0  0
   58.1670   24.6510   46.6540 O   0  0  0  0  0  0  0  0  0  0  0  0
   57.8900   23.7390   45.6280 C   0  0  0  0  0  0  0  0  0  0  0  0
   58.9000   22.8590   45.2180 C   0  0  0  0  0  0  0  0  0  0  0  0
   58.6600   21.9400   44.1930 C   0  0  0  0  0  0  0  0  0  0  0  0
   57.4060   21.8860   43.5800 C   0  0  0  0  0  0  0  0  0  0  0  0
   56.3850   22.7450   43.9990 C   0  0  0  0  0  0  0  0  0  0  0  0
   56.6180   23.6690   45.0260 C   0  0  0  0  0  0  0  0  0  0  0  0
   55.1600   24.7590   45.6260 Br  0  0  0  0  0  0  0  0  0  0  0  0
   58.5010   26.5190   45.1700 C   0  0  0  0  0  0  0  0  0  0  0  0
   58.9360   27.8240   44.9200 C   0  0  0  0  0  0  0  0  0  0  0  0
   59.3570   32.2630   46.3660 C   0  0  0  0  0  0  0  0  0  0  0  0
   61.9429   31.6550   48.3598 H   0  0  0  0  0  0  0  0  0  0  0  0
   61.5836   30.8180   46.8116 H   0  0  0  0  0  0  0  0  0  0  0  0
   62.5567   32.3279   46.8116 H   0  0  0  0  0  0  0  0  0  0  0  0
   60.3729   33.9495   48.7589 H   0  0  0  0  0  0  0  0  0  0  0  0
   61.1835   34.5923   47.3202 H   0  0  0  0  0  0  0  0  0  0  0  0
   58.3143   34.6811   47.9763 H   0  0  0  0  0  0  0  0  0  0  0  0
   59.0767   35.3955   46.5681 H   0  0  0  0  0  0  0  0  0  0  0  0
   56.6230   34.1359   45.5582 H   0  0  0  0  0  0  0  0  0  0  0  0
   56.1012   32.0559   44.2531 H   0  0  0  0  0  0  0  0  0  0  0  0
   57.6697   30.1094   44.3159 H   0  0  0  0  0  0  0  0  0  0  0  0
   60.9860   30.1110   45.6890 H   0  0  0  0  0  0  0  0  0  0  0  0
   60.0475   28.6347   48.0517 H   0  0  0  0  0  0  0  0  0  0  0  0
   59.2582   26.3138   48.4976 H   0  0  0  0  0  0  0  0  0  0  0  0
   59.8859   22.8916   45.7048 H   0  0  0  0  0  0  0  0  0  0  0  0
   59.4598   21.2581   43.8684 H   0  0  0  0  0  0  0  0  0  0  0  0
   57.2215   21.1677   42.7676 H   0  0  0  0  0  0  0  0  0  0  0  0
   55.3957   22.6950   43.5206 H   0  0  0  0  0  0  0  0  0  0  0  0
   58.0602   25.9252   44.3557 H   0  0  0  0  0  0  0  0  0  0  0  0
   58.8492   28.2448   43.9074 H   0  0  0  0  0  0  0  0  0  0  0  0
  1  2  1  0
  2  3  1  0
  3  4  1  0
  4  5  1  0
  5  6  2  0
  6  7  1  0
  7  8  2  0
  8  9  1  0
  9 10  1  0
 10 11  1  0
 11 12  2  0
 12 13  1  0
 13 14  2  0
 14 15  1  0
 15 16  1  0
 16 17  2  0
 17 18  1  0
 18 19  2  0
 19 20  1  0
 20 21  2  0
 21 22  1  0
 14 23  1  0
 23 24  2  0
  9 25  2  0
 25  2  1  0
 25  5  1  0
 24 11  1  0
 21 16  1  0
  1 26  1  0
  1 27  1  0
  1 28  1  0
  3 29  1  0
  3 30  1  0
  4 31  1  0
  4 32  1  0
  6 33  1  0
  7 34  1  0
  8 35  1  0
 10 36  1  0
 12 37  1  0
 13 38  1  0
 17 39  1  0
 18 40  1  0
 19 41  1  0
 20 42  1  0
 23 43  1  0
 24 44  1  0
M  END
>  <UniqueID>  (45) 
42

>  <SMILES>  (45) 
CN1CCc2cccc(Nc3ccc(Oc4ccccc4Br)cc3)c21

>  <Energy>  (45) 
76.60455132104606

>  <Genealogy>  (45) 
CN1CCc2cccc(Nc3ccc(Oc4ccccc4Br)cc3)c21 (3D coordinates assigned)
CN1CCc2cccc(Nc3ccc(Oc4ccccc4Br)cc3)c21 (nonaromatic ring conformer: 76.60455132104606 kcal/mol)

>  <smiles>  (45) 
CN1CCc2cccc(Nc3ccc(Oc4ccccc4Br)cc3)c21

>  <score_type>  (45) 
oracle

>  <origin>  (45) 
adg

>  <m_score__min__energy>  (45) 
-7.5

>  <m_primary>  (45) 
energy

$$$$
45:0
     RDKit          3D

 42 45  0  0  0  0  0  0  0  0999 V2000
   54.7620   27.0820   45.0890 H   0  0  0  0  0  0  0  0  0  0  0  0
   55.1620   26.7200   45.9470 O   0  0  0  0  0  0  0  0  0  0  0  0
   56.5310   26.7900   46.1900 C   0  0  0  0  0  0  0  0  0  0  0  0
   57.1580   26.0340   47.1120 N   0  0  0  0  0  0  0  0  0  0  0  0
   58.4410   26.4400   47.0220 C   0  0  0  0  0  0  0  0  0  0  0  0
   59.3530   25.9740   47.7560 O   0  0  0  0  0  0  0  0  0  0  0  0
   58.6500   27.4000   46.0910 N   0  0  0  0  0  0  0  0  0  0  0  0
   59.9020   28.1300   45.8530 C   0  0  0  0  0  0  0  0  0  0  0  0
   60.7506   27.4414   45.9782 H   0  0  0  0  0  0  0  0  0  0  0  0
   59.8857   28.5348   44.8303 H   0  0  0  0  0  0  0  0  0  0  0  0
   60.0460   29.2720   46.8220 C   0  0  0  0  0  0  0  0  0  0  0  0
   59.2480   29.3200   47.9770 C   0  0  0  0  0  0  0  0  0  0  0  0
   58.5245   28.5159   48.1771 H   0  0  0  0  0  0  0  0  0  0  0  0
   59.3700   30.3860   48.8730 C   0  0  0  0  0  0  0  0  0  0  0  0
   58.7423   30.4190   49.7757 H   0  0  0  0  0  0  0  0  0  0  0  0
   60.2880   31.4100   48.6240 C   0  0  0  0  0  0  0  0  0  0  0  0
   60.3799   32.2500   49.3282 H   0  0  0  0  0  0  0  0  0  0  0  0
   61.0890   31.3660   47.4800 C   0  0  0  0  0  0  0  0  0  0  0  0
   61.8133   32.1708   47.2859 H   0  0  0  0  0  0  0  0  0  0  0  0
   60.9720   30.3020   46.5820 C   0  0  0  0  0  0  0  0  0  0  0  0
   61.6067   30.2702   45.6841 H   0  0  0  0  0  0  0  0  0  0  0  0
   57.4310   27.6160   45.5490 C   0  0  0  0  0  0  0  0  0  0  0  0
   57.0870   28.6520   44.5580 C   0  0  0  0  0  0  0  0  0  0  0  0
   57.1375   28.3773   43.4941 H   0  0  0  0  0  0  0  0  0  0  0  0
   56.7170   29.9050   44.8600 C   0  0  0  0  0  0  0  0  0  0  0  0
   55.8758   30.0293   45.5578 H   0  0  0  0  0  0  0  0  0  0  0  0
   57.3470   31.1310   44.3320 C   0  0  0  0  0  0  0  0  0  0  0  0
   57.5390   31.4420   43.0470 C   0  0  0  0  0  0  0  0  0  0  0  0
   57.2725   30.7836   42.2071 H   0  0  0  0  0  0  0  0  0  0  0  0
   58.1640   32.8020   42.8870 C   0  0  0  0  0  0  0  0  0  0  0  0
   59.1503   32.7393   42.4041 H   0  0  0  0  0  0  0  0  0  0  0  0
   57.5925   33.4922   42.2491 H   0  0  0  0  0  0  0  0  0  0  0  0
   58.2770   33.2300   44.3090 C   0  0  0  0  0  0  0  0  0  0  0  0
   58.7910   34.4220   44.8180 C   0  0  0  0  0  0  0  0  0  0  0  0
   59.1774   35.2012   44.1445 H   0  0  0  0  0  0  0  0  0  0  0  0
   58.8040   34.6050   46.2110 C   0  0  0  0  0  0  0  0  0  0  0  0
   59.2020   35.5377   46.6372 H   0  0  0  0  0  0  0  0  0  0  0  0
   58.3090   33.5980   47.0650 C   0  0  0  0  0  0  0  0  0  0  0  0
   58.3251   33.7475   48.1547 H   0  0  0  0  0  0  0  0  0  0  0  0
   57.7960   32.4060   46.5310 C   0  0  0  0  0  0  0  0  0  0  0  0
   57.4087   31.6137   47.1885 H   0  0  0  0  0  0  0  0  0  0  0  0
   57.7900   32.2520   45.1430 C   0  0  0  0  0  0  0  0  0  0  0  0
  1  2  1  0
  2  3  1  0
  3  4  1  0
  4  5  1  0
  5  6  2  0
  5  7  1  0
  7  8  1  0
  8  9  1  0
  8 10  1  0
  8 11  1  0
 11 12  2  0
 12 13  1  0
 12 14  1  0
 14 15  1  0
 14 16  2  0
 16 17  1  0
 16 18  1  0
 18 19  1  0
 18 20  2  0
 20 21  1  0
  7 22  1  0
 22 23  1  0
 23 24  1  0
 23 25  2  0
 25 26  1  0
 25 27  1  0
 27 28  2  0
 28 29  1  0
 28 30  1  0
 30 31  1  0
 30 32  1  0
 30 33  1  0
 33 34  2  0
 34 35  1  0
 34 36  1  0
 36 37  1  0
 36 38  2  0
 38 39  1  0
 38 40  1  0
 40 41  1  0
 40 42  2  0
 22  3  2  0
 42 27  1  0
 20 11  1  0
 42 33  1  0
M  CHG  1   4  -1
M  END
>  <UniqueID>  (46) 
43

>  <SMILES>  (46) 
O=c1[n-]c(O)c(/C=C\C2=CCc3ccccc32)n1Cc1ccccc1

>  <Energy>  (46) 
102.29358965977254

>  <Genealogy>  (46) 
O=c1[n-]c(O)c(C=CC2=CCc3ccccc32)n1Cc1ccccc1 (protonated)
O=c1[n-]c(O)c(/C=C\C2=CCc3ccccc32)n1Cc1ccccc1 (cis-trans isomerization)
O=c1[n-]c(O)c(/C=C\C2=CCc3ccccc32)n1Cc1ccccc1 (3D coordinates assigned)
O=c1[n-]c(O)c(/C=C\C2=CCc3ccccc32)n1Cc1ccccc1 (nonaromatic ring conformer: 102.29358965977254 kcal/mol)

>  <smiles>  (46) 
O=c1[nH]c(O)c(C=CC2=CCc3ccccc32)n1Cc1ccccc1

>  <score_type>  (46) 
oracle

>  <origin>  (46) 
adg

>  <m_score__min__energy>  (46) 
-11.15

>  <m_primary>  (46) 
energy

$$$$
46:0
     RDKit          3D

 73 77  0  0  0  0  0  0  0  0999 V2000
   50.8460   32.6680   52.4710 C   0  0  0  0  0  0  0  0  0  0  0  0
   51.0420   32.3300   51.0700 N   0  0  0  0  0  0  0  0  0  0  0  0
   51.7100   31.1390   50.6410 C   0  0  0  0  0  0  0  0  0  0  0  0
   51.4330   30.6370   49.5170 O   0  0  0  0  0  0  0  0  0  0  0  0
   52.7230   30.4970   51.5100 C   0  0  0  0  0  0  0  0  0  0  0  0
   52.3520   29.4830   52.4100 C   0  0  0  0  0  0  0  0  0  0  0  0
   53.3080   28.8770   53.2260 C   0  0  0  0  0  0  0  0  0  0  0  0
   54.6430   29.2790   53.1640 C   0  0  0  0  0  0  0  0  0  0  0  0
   55.0350   30.3040   52.2850 C   0  0  0  0  0  0  0  0  0  0  0  0
   56.4100   30.7130   52.1740 N   0  0  0  0  0  0  0  0  0  0  0  0
   56.8790   32.0490   52.4300 C   0  0  0  0  0  0  0  0  0  0  0  0
   56.0770   33.0200   52.3680 O   0  0  0  0  0  0  0  0  0  0  0  0
   58.3130   32.2980   52.7100 C   0  0  0  0  0  0  0  0  0  0  0  0
   58.7040   33.3460   53.5610 C   0  0  0  0  0  0  0  0  0  0  0  0
   60.0560   33.5700   53.8290 C   0  0  0  0  0  0  0  0  0  0  0  0
   61.0310   32.7500   53.2590 C   0  0  0  0  0  0  0  0  0  0  0  0
   60.6600   31.6950   52.4060 C   0  0  0  0  0  0  0  0  0  0  0  0
   61.5980   30.8220   51.8320 O   0  0  0  0  0  0  0  0  0  0  0  0
   61.8080   30.6490   50.4270 C   0  0  2  0  0  0  0  0  0  0  0  0
   61.5280   31.9570   49.6970 C   0  0  0  0  0  0  0  0  0  0  0  0
   60.1550   31.7410   49.0590 C   0  0  1  0  0  0  0  0  0  0  0  0
   59.7620   32.6280   47.9240 N   0  0  0  0  0  0  0  0  0  0  0  0
   58.6170   32.2940   47.2470 C   0  0  0  0  0  0  0  0  0  0  0  0
   58.1510   33.0610   46.1770 C   0  0  0  0  0  0  0  0  0  0  0  0
   56.9870   32.6520   45.4480 N   0  0  0  0  0  0  0  0  0  0  0  0
   58.8410   34.2290   45.8560 C   0  0  0  0  0  0  0  0  0  0  0  0
   58.4770   34.9520   44.8910 O   0  0  0  0  0  0  0  0  0  0  0  0
   59.9090   34.5980   46.6030 N   0  0  0  0  0  0  0  0  0  0  0  0
   60.3590   33.8400   47.6370 C   0  0  0  0  0  0  0  0  0  0  0  0
   61.3170   34.2860   48.3200 O   0  0  0  0  0  0  0  0  0  0  0  0
   60.0790   30.2970   48.7460 N   0  0  0  0  0  0  0  0  0  0  0  0
   60.5350   29.8390   47.4000 C   0  0  0  0  0  0  0  0  0  0  0  0
   59.5230   29.0510   46.5910 C   0  0  0  0  0  0  0  0  0  0  0  0
   59.7690   27.7040   46.2710 C   0  0  0  0  0  0  0  0  0  0  0  0
   58.8510   26.9790   45.5100 C   0  0  0  0  0  0  0  0  0  0  0  0
   57.6860   27.5910   45.0450 C   0  0  0  0  0  0  0  0  0  0  0  0
   57.4320   28.9450   45.3340 C   0  0  0  0  0  0  0  0  0  0  0  0
   56.2780   29.6130   44.8930 O   0  0  0  0  0  0  0  0  0  0  0  0
   55.9480   29.8770   43.5300 C   0  0  0  0  0  0  0  0  0  0  0  0
   56.2850   31.1820   43.2100 F   0  0  0  0  0  0  0  0  0  0  0  0
   54.5880   29.7100   43.3570 F   0  0  0  0  0  0  0  0  0  0  0  0
   56.6170   28.9980   42.6930 F   0  0  0  0  0  0  0  0  0  0  0  0
   58.3640   29.6690   46.0890 C   0  0  0  0  0  0  0  0  0  0  0  0
   60.8070   29.6390   49.8420 C   0  0  0  0  0  0  0  0  0  0  0  0
   59.3030   31.4900   52.1220 C   0  0  0  0  0  0  0  0  0  0  0  0
   54.0730   30.8960   51.4510 C   0  0  0  0  0  0  0  0  0  0  0  0
   51.2977   31.8890   53.1028 H   0  0  0  0  0  0  0  0  0  0  0  0
   51.3230   33.6358   52.6849 H   0  0  0  0  0  0  0  0  0  0  0  0
   49.7691   32.7348   52.6849 H   0  0  0  0  0  0  0  0  0  0  0  0
   51.3008   29.1650   52.4715 H   0  0  0  0  0  0  0  0  0  0  0  0
   53.0081   28.0790   53.9211 H   0  0  0  0  0  0  0  0  0  0  0  0
   55.3919   28.7918   53.8057 H   0  0  0  0  0  0  0  0  0  0  0  0
   57.0920   30.0260   51.7840 H   0  0  0  0  0  0  0  0  0  0  0  0
   57.9410   33.9931   54.0183 H   0  0  0  0  0  0  0  0  0  0  0  0
   60.3537   34.3958   54.4918 H   0  0  0  0  0  0  0  0  0  0  0  0
   62.0940   32.9296   53.4778 H   0  0  0  0  0  0  0  0  0  0  0  0
   62.8458   30.3081   50.2977 H   0  0  0  0  0  0  0  0  0  0  0  0
   61.5024   32.8004   50.4027 H   0  0  0  0  0  0  0  0  0  0  0  0
   62.3039   32.2020   48.9568 H   0  0  0  0  0  0  0  0  0  0  0  0
   59.3913   32.0562   49.7852 H   0  0  0  0  0  0  0  0  0  0  0  0
   58.0525   31.4012   47.5540 H   0  0  0  0  0  0  0  0  0  0  0  0
   56.5990   31.6880   45.5470 H   0  0  0  0  0  0  0  0  0  0  0  0
   56.5040   33.3120   44.7960 H   0  0  0  0  0  0  0  0  0  0  0  0
   60.8127   30.7296   46.8171 H   0  0  0  0  0  0  0  0  0  0  0  0
   61.3697   29.1476   47.5877 H   0  0  0  0  0  0  0  0  0  0  0  0
   60.6912   27.2185   46.6229 H   0  0  0  0  0  0  0  0  0  0  0  0
   59.0462   25.9221   45.2759 H   0  0  0  0  0  0  0  0  0  0  0  0
   56.9634   27.0129   44.4503 H   0  0  0  0  0  0  0  0  0  0  0  0
   58.1867   30.7355   46.2919 H   0  0  0  0  0  0  0  0  0  0  0  0
   60.0990   29.3218   50.6219 H   0  0  0  0  0  0  0  0  0  0  0  0
   61.3375   28.7512   49.4672 H   0  0  0  0  0  0  0  0  0  0  0  0
   59.0083   30.6870   51.4304 H   0  0  0  0  0  0  0  0  0  0  0  0
   54.3770   31.6809   50.7429 H   0  0  0  0  0  0  0  0  0  0  0  0
  1  2  1  0
  2  3  1  0
  3  4  2  0
  3  5  1  0
  5  6  2  0
  6  7  1  0
  7  8  2  0
  8  9  1  0
  9 10  1  0
 10 11  1  0
 11 12  2  0
 11 13  1  0
 13 14  2  0
 14 15  1  0
 15 16  2  0
 16 17  1  0
 17 18  1  0
 18 19  1  0
 19 20  1  0
 20 21  1  0
 21 22  1  0
 22 23  1  0
 23 24  2  0
 24 25  1  0
 24 26  1  0
 26 27  2  0
 26 28  1  0
 28 29  1  0
 29 30  2  0
 21 31  1  0
 31 32  1  0
 32 33  1  0
 33 34  2  0
 34 35  1  0
 35 36  2  0
 36 37  1  0
 37 38  1  0
 38 39  1  0
 39 40  1  0
 39 41  1  0
 39 42  1  0
 37 43  2  0
 31 44  1  0
 17 45  2  0
  9 46  2  0
 46  5  1  0
 45 13  1  0
 44 19  1  0
 29 22  1  0
 43 33  1  0
  1 47  1  0
  1 48  1  0
  1 49  1  0
  6 50  1  0
  7 51  1  0
  8 52  1  0
 10 53  1  0
 14 54  1  0
 15 55  1  0
 16 56  1  0
 19 57  1  1
 20 58  1  0
 20 59  1  0
 21 60  1  1
 23 61  1  0
 25 62  1  0
 25 63  1  0
 32 64  1  0
 32 65  1  0
 34 66  1  0
 35 67  1  0
 36 68  1  0
 43 69  1  0
 44 70  1  0
 44 71  1  0
 45 72  1  0
 46 73  1  0
M  CHG  2   2  -1  28  -1
M  END
>  <UniqueID>  (47) 
44

>  <SMILES>  (47) 
C[N-]C(=O)c1cccc(NC(=O)c2cccc(O[C@@H]3C[C@@H](n4cc(N)c(=O)[n-]c4=O)N(Cc4cccc(OC(F)(F)F)c4)C3)c2)c1

>  <Energy>  (47) 
106.19734270980958

>  <Genealogy>  (47) 
C[N-]C(=O)c1cccc(NC(=O)c2cccc(OC3CC(n4cc(N)c(=O)[n-]c4=O)N(Cc4cccc(OC(F)(F)F)c4)C3)c2)c1 (protonated)
C[N-]C(=O)c1cccc(NC(=O)c2cccc(O[C@@H]3C[C@@H](n4cc(N)c(=O)[n-]c4=O)N(Cc4cccc(OC(F)(F)F)c4)C3)c2)c1 (chirality)
C[N-]C(=O)c1cccc(NC(=O)c2cccc(O[C@@H]3C[C@@H](n4cc(N)c(=O)[n-]c4=O)N(Cc4cccc(OC(F)(F)F)c4)C3)c2)c1 (3D coordinates assigned)
C[N-]C(=O)c1cccc(NC(=O)c2cccc(O[C@@H]3C[C@@H](n4cc(N)c(=O)[n-]c4=O)N(Cc4cccc(OC(F)(F)F)c4)C3)c2)c1 (nonaromatic ring conformer: 106.19734270980958 kcal/mol)

>  <smiles>  (47) 
CNC(=O)c1cccc(NC(=O)c2cccc(OC3CC(n4cc(N)c(=O)[nH]c4=O)N(Cc4cccc(OC(F)(F)F)c4)C3)c2)c1

>  <score_type>  (47) 
oracle

>  <origin>  (47) 
adg

>  <m_score__min__energy>  (47) 
-15.5

>  <m_primary>  (47) 
energy

$$$$
47:0
     RDKit          3D

 29 30  0  0  0  0  0  0  0  0999 V2000
   56.7430   30.5210   42.3220 O   0  0  0  0  0  0  0  0  0  0  0  0
   57.1330   31.0850   43.6590 S   0  0  0  0  0  0  0  0  0  0  0  0
   55.8960   31.2320   44.5020 O   0  0  0  0  0  0  0  0  0  0  0  0
   57.9250   32.6670   43.4130 C   0  0  0  0  0  0  0  0  0  0  0  0
   58.3230   33.2640   44.7320 C   0  0  0  0  0  0  0  0  0  0  0  0
   59.2080   34.3540   44.7800 C   0  0  0  0  0  0  0  0  0  0  0  0
   59.5520   34.9300   46.0070 C   0  0  0  0  0  0  0  0  0  0  0  0
   59.0100   34.4270   47.1930 C   0  0  0  0  0  0  0  0  0  0  0  0
   58.1200   33.3490   47.1530 C   0  0  0  0  0  0  0  0  0  0  0  0
   57.7730   32.7720   45.9280 C   0  0  0  0  0  0  0  0  0  0  0  0
   58.2370   29.9880   44.4230 N   0  0  0  0  0  0  0  0  0  0  0  0
   57.8900   28.7230   45.0060 C   0  0  0  0  0  0  0  0  0  0  0  0
   58.9230   27.8500   45.3710 C   0  0  0  0  0  0  0  0  0  0  0  0
   58.6340   26.6080   45.9440 C   0  0  0  0  0  0  0  0  0  0  0  0
   57.3060   26.2280   46.1560 C   0  0  0  0  0  0  0  0  0  0  0  0
   56.2670   27.0900   45.7930 C   0  0  0  0  0  0  0  0  0  0  0  0
   54.9470   26.7110   46.0030 O   0  0  0  0  0  0  0  0  0  0  0  0
   56.5540   28.3330   45.2190 C   0  0  0  0  0  0  0  0  0  0  0  0
   58.8223   32.5304   42.7915 H   0  0  0  0  0  0  0  0  0  0  0  0
   57.2185   33.3457   42.9129 H   0  0  0  0  0  0  0  0  0  0  0  0
   59.6323   34.7562   43.8482 H   0  0  0  0  0  0  0  0  0  0  0  0
   60.2498   35.7797   46.0387 H   0  0  0  0  0  0  0  0  0  0  0  0
   59.2834   34.8790   48.1578 H   0  0  0  0  0  0  0  0  0  0  0  0
   57.6925   32.9547   48.0867 H   0  0  0  0  0  0  0  0  0  0  0  0
   57.0665   31.9293   45.9000 H   0  0  0  0  0  0  0  0  0  0  0  0
   59.9699   28.1441   45.2054 H   0  0  0  0  0  0  0  0  0  0  0  0
   59.4521   25.9297   46.2280 H   0  0  0  0  0  0  0  0  0  0  0  0
   57.0784   25.2514   46.6081 H   0  0  0  0  0  0  0  0  0  0  0  0
   55.7335   29.0077   44.9332 H   0  0  0  0  0  0  0  0  0  0  0  0
  1  2  2  0
  2  3  2  0
  2  4  1  0
  4  5  1  0
  5  6  2  0
  6  7  1  0
  7  8  2  0
  8  9  1  0
  9 10  2  0
  2 11  1  0
 11 12  1  0
 12 13  2  0
 13 14  1  0
 14 15  2  0
 15 16  1  0
 16 17  1  0
 16 18  2  0
 10  5  1  0
 18 12  1  0
  4 19  1  0
  4 20  1  0
  6 21  1  0
  7 22  1  0
  8 23  1  0
  9 24  1  0
 10 25  1  0
 13 26  1  0
 14 27  1  0
 15 28  1  0
 18 29  1  0
M  CHG  2  11  -1  17  -1
M  END
>  <UniqueID>  (48) 
45

>  <SMILES>  (48) 
O=S(=O)(Cc1ccccc1)[N-]c1cccc([O-])c1

>  <Energy>  (48) 
28.06860433645521

>  <Genealogy>  (48) 
O=S(=O)(Cc1ccccc1)[N-]c1cccc([O-])c1 (protonated)
O=S(=O)(Cc1ccccc1)[N-]c1cccc([O-])c1 (3D coordinates assigned)
O=S(=O)(Cc1ccccc1)[N-]c1cccc([O-])c1 (optimized conformer: 28.06860433645521 kcal/mol)

>  <smiles>  (48) 
O=S(=O)(Cc1ccccc1)Nc1cccc(O)c1

>  <score_type>  (48) 
oracle

>  <origin>  (48) 
adg

>  <m_score__min__energy>  (48) 
-12.41

>  <m_primary>  (48) 
energy

$$$$
48:0
     RDKit          3D

 55 57  0  0  0  0  0  0  0  0999 V2000
   55.1520   26.7120   45.9930 O   0  0  0  0  0  0  0  0  0  0  0  0
   56.0540   25.8900   46.3050 C   0  0  0  0  0  0  0  0  0  0  0  0
   55.7050   24.6550   46.8370 O   0  0  0  0  0  0  0  0  0  0  0  0
   57.4960   26.2590   46.1500 C   0  0  0  0  0  0  0  0  0  0  0  0
   58.1950   26.3320   47.5080 C   0  0  0  0  0  0  0  0  0  0  0  0
   59.3650   27.1980   47.4170 N   0  0  0  0  0  0  0  0  0  0  0  0
   59.5800   28.3740   48.2060 C   0  0  0  0  0  0  0  0  0  0  0  0
   60.2380   28.2620   49.2750 O   0  0  0  0  0  0  0  0  0  0  0  0
   59.0320   29.7250   47.7880 C   0  0  2  0  0  0  0  0  0  0  0  0
   59.5170   30.1500   46.3840 C   0  0  0  0  0  0  0  0  0  0  0  0
   58.3880   30.2160   45.3870 C   0  0  0  0  0  0  0  0  0  0  0  0
   58.4600   31.0900   44.2890 C   0  0  0  0  0  0  0  0  0  0  0  0
   57.4130   31.1480   43.3640 C   0  0  0  0  0  0  0  0  0  0  0  0
   56.2850   30.3400   43.5320 C   0  0  0  0  0  0  0  0  0  0  0  0
   56.2000   29.4760   44.6260 C   0  0  0  0  0  0  0  0  0  0  0  0
   57.2470   29.4100   45.5500 C   0  0  0  0  0  0  0  0  0  0  0  0
   59.3520   30.7510   48.7890 N   0  0  0  0  0  0  0  0  0  0  0  0
   58.6810   30.8760   50.0550 C   0  0  0  0  0  0  0  0  0  0  0  0
   57.8140   30.0310   50.4030 O   0  0  0  0  0  0  0  0  0  0  0  0
   58.9290   32.0380   50.9240 C   0  0  0  0  0  0  0  0  0  0  0  0
   58.2430   32.2570   52.0600 N   0  0  0  0  0  0  0  0  0  0  0  0
   58.7140   33.4410   52.5050 C   0  0  0  0  0  0  0  0  0  0  0  0
   59.6680   33.9760   51.7150 N   0  0  0  0  0  0  0  0  0  0  0  0
   59.7990   33.0930   50.7110 C   0  0  0  0  0  0  0  0  0  0  0  0
   60.8520   33.1890   49.6830 C   0  0  0  0  0  0  0  0  0  0  0  0
   61.7250   32.2850   49.6110 O   0  0  0  0  0  0  0  0  0  0  0  0
   60.9390   34.3000   48.7830 N   0  0  0  0  0  0  0  0  0  0  0  0
   61.0460   34.1980   47.3320 C   0  0  0  0  0  0  0  0  0  0  0  0
   59.6770   34.0860   46.7180 C   0  0  0  0  0  0  0  0  0  0  0  0
   58.6270   33.5040   47.4500 C   0  0  0  0  0  0  0  0  0  0  0  0
   57.3490   33.4090   46.8930 C   0  0  0  0  0  0  0  0  0  0  0  0
   57.1090   33.8900   45.6030 C   0  0  0  0  0  0  0  0  0  0  0  0
   58.1460   34.4760   44.8720 C   0  0  0  0  0  0  0  0  0  0  0  0
   59.4260   34.5780   45.4260 C   0  0  0  0  0  0  0  0  0  0  0  0
   57.9959   25.5011   45.5290 H   0  0  0  0  0  0  0  0  0  0  0  0
   57.5539   27.2489   45.6738 H   0  0  0  0  0  0  0  0  0  0  0  0
   57.4979   26.7378   48.2559 H   0  0  0  0  0  0  0  0  0  0  0  0
   58.5135   25.3224   47.8066 H   0  0  0  0  0  0  0  0  0  0  0  0
   57.9383   29.6235   47.7287 H   0  0  0  0  0  0  0  0  0  0  0  0
   59.9842   31.1432   46.4563 H   0  0  0  0  0  0  0  0  0  0  0  0
   60.2347   29.3945   46.0317 H   0  0  0  0  0  0  0  0  0  0  0  0
   59.3438   31.7313   44.1566 H   0  0  0  0  0  0  0  0  0  0  0  0
   57.4772   31.8301   42.5034 H   0  0  0  0  0  0  0  0  0  0  0  0
   55.4634   30.3846   42.8019 H   0  0  0  0  0  0  0  0  0  0  0  0
   55.3080   28.8466   44.7608 H   0  0  0  0  0  0  0  0  0  0  0  0
   57.1782   28.7250   46.4079 H   0  0  0  0  0  0  0  0  0  0  0  0
   60.0190   31.5020   48.5010 H   0  0  0  0  0  0  0  0  0  0  0  0
   58.3539   33.9243   53.4252 H   0  0  0  0  0  0  0  0  0  0  0  0
   61.5478   35.0952   46.9405 H   0  0  0  0  0  0  0  0  0  0  0  0
   61.6290   33.3008   47.0767 H   0  0  0  0  0  0  0  0  0  0  0  0
   58.8123   33.1221   48.4648 H   0  0  0  0  0  0  0  0  0  0  0  0
   56.5305   32.9549   47.4708 H   0  0  0  0  0  0  0  0  0  0  0  0
   56.1042   33.8074   45.1631 H   0  0  0  0  0  0  0  0  0  0  0  0
   57.9549   34.8580   43.8583 H   0  0  0  0  0  0  0  0  0  0  0  0
   60.2381   35.0444   44.8490 H   0  0  0  0  0  0  0  0  0  0  0  0
  1  2  2  0
  2  3  1  0
  2  4  1  0
  4  5  1  0
  5  6  1  0
  6  7  1  0
  7  8  2  0
  7  9  1  0
  9 10  1  0
 10 11  1  0
 11 12  2  0
 12 13  1  0
 13 14  2  0
 14 15  1  0
 15 16  2  0
  9 17  1  0
 17 18  1  0
 18 19  2  0
 18 20  1  0
 20 21  1  0
 21 22  2  0
 22 23  1  0
 23 24  1  0
 24 25  1  0
 25 26  2  0
 25 27  1  0
 27 28  1  0
 28 29  1  0
 29 30  2  0
 30 31  1  0
 31 32  2  0
 32 33  1  0
 33 34  2  0
 16 11  1  0
 24 20  2  0
 34 29  1  0
  4 35  1  0
  4 36  1  0
  5 37  1  0
  5 38  1  0
  9 39  1  6
 10 40  1  0
 10 41  1  0
 12 42  1  0
 13 43  1  0
 14 44  1  0
 15 45  1  0
 16 46  1  0
 17 47  1  0
 22 48  1  0
 28 49  1  0
 28 50  1  0
 30 51  1  0
 31 52  1  0
 32 53  1  0
 33 54  1  0
 34 55  1  0
M  CHG  4   3  -1   6  -1  23  -1  27  -1
M  END
>  <UniqueID>  (49) 
46

>  <SMILES>  (49) 
O=C([O-])CC[N-]C(=O)[C@H](Cc1ccccc1)NC(=O)c1nc[n-]c1C(=O)[N-]Cc1ccccc1

>  <Energy>  (49) 
77.06191265219866

>  <Genealogy>  (49) 
O=C([O-])CC[N-]C(=O)C(Cc1ccccc1)NC(=O)c1nc[n-]c1C(=O)[N-]Cc1ccccc1 (protonated)
O=C([O-])CC[N-]C(=O)[C@H](Cc1ccccc1)NC(=O)c1nc[n-]c1C(=O)[N-]Cc1ccccc1 (chirality)
O=C([O-])CC[N-]C(=O)[C@H](Cc1ccccc1)NC(=O)c1nc[n-]c1C(=O)[N-]Cc1ccccc1 (3D coordinates assigned)
O=C([O-])CC[N-]C(=O)[C@H](Cc1ccccc1)NC(=O)c1nc[n-]c1C(=O)[N-]Cc1ccccc1 (optimized conformer: 77.06191265219866 kcal/mol)

>  <smiles>  (49) 
O=C(O)CCNC(=O)C(Cc1ccccc1)NC(=O)c1nc[nH]c1C(=O)NCc1ccccc1

>  <score_type>  (49) 
oracle

>  <origin>  (49) 
adg

>  <m_score__min__energy>  (49) 
-14.970000000000001

>  <m_primary>  (49) 
energy

$$$$
49:0
     RDKit          3D

 23 24  0  0  0  0  0  0  0  0999 V2000
   52.9100   24.3030   45.2320 H   0  0  0  0  0  0  0  0  0  0  0  0
   53.6830   23.6650   45.0770 O   0  0  0  0  0  0  0  0  0  0  0  0
   55.0120   24.0700   45.1920 C   0  0  0  0  0  0  0  0  0  0  0  0
   56.0260   23.1630   44.8720 C   0  0  0  0  0  0  0  0  0  0  0  0
   55.7673   22.1462   44.5415 H   0  0  0  0  0  0  0  0  0  0  0  0
   57.3650   23.5420   44.9700 C   0  0  0  0  0  0  0  0  0  0  0  0
   58.1583   22.8253   44.7111 H   0  0  0  0  0  0  0  0  0  0  0  0
   57.7010   24.8290   45.3960 C   0  0  0  0  0  0  0  0  0  0  0  0
   58.7590   25.1223   45.4636 H   0  0  0  0  0  0  0  0  0  0  0  0
   56.6960   25.7550   45.7400 C   0  0  0  0  0  0  0  0  0  0  0  0
   57.0270   27.1340   46.1790 C   0  0  0  0  0  0  0  0  0  0  0  0
   56.5404   27.5247   47.0849 H   0  0  0  0  0  0  0  0  0  0  0  0
   57.8890   27.9270   45.5270 C   0  0  0  0  0  0  0  0  0  0  0  0
   58.8808   27.5296   45.2656 H   0  0  0  0  0  0  0  0  0  0  0  0
   57.5560   29.3140   45.1470 C   0  0  0  0  0  0  0  0  0  0  0  0
   58.6310   30.6110   45.0040 S   0  0  0  0  0  0  0  0  0  0  0  0
   57.4150   31.6830   44.5670 C   0  0  0  0  0  0  0  0  0  0  0  0
   57.6010   32.9000   44.3080 O   0  0  0  0  0  0  0  0  0  0  0  0
   56.1990   31.1000   44.5210 N   0  0  0  0  0  0  0  0  0  0  0  0
   56.2780   29.7820   44.8440 C   0  0  0  0  0  0  0  0  0  0  0  0
   55.1510   28.9700   44.8660 O   0  0  0  0  0  0  0  0  0  0  0  0
   55.3440   25.3680   45.6230 C   0  0  0  0  0  0  0  0  0  0  0  0
   54.3280   26.2650   45.9440 O   0  0  0  0  0  0  0  0  0  0  0  0
  1  2  1  0
  2  3  1  0
  3  4  2  0
  4  5  1  0
  4  6  1  0
  6  7  1  0
  6  8  2  0
  8  9  1  0
  8 10  1  0
 10 11  1  0
 11 12  1  0
 11 13  2  0
 13 14  1  0
 13 15  1  0
 15 16  1  0
 16 17  1  0
 17 18  2  0
 17 19  1  0
 19 20  1  0
 20 21  1  0
 10 22  2  0
 22 23  1  0
 22  3  1  0
 20 15  2  0
M  CHG  3  19  -1  21  -1  23  -1
M  END
>  <UniqueID>  (50) 
47

>  <SMILES>  (50) 
O=c1[n-]c([O-])c(/C=C/c2cccc(O)c2[O-])s1

>  <Energy>  (50) 
58.21191165977126

>  <Genealogy>  (50) 
O=c1[n-]c([O-])c(C=Cc2cccc(O)c2[O-])s1 (protonated)
O=c1[n-]c([O-])c(/C=C/c2cccc(O)c2[O-])s1 (cis-trans isomerization)
O=c1[n-]c([O-])c(/C=C/c2cccc(O)c2[O-])s1 (3D coordinates assigned)
O=c1[n-]c([O-])c(/C=C/c2cccc(O)c2[O-])s1 (optimized conformer: 58.21191165977126 kcal/mol)

>  <smiles>  (50) 
O=c1[nH]c(O)c(C=Cc2cccc(O)c2O)s1

>  <score_type>  (50) 
oracle

>  <origin>  (50) 
adg

>  <m_score__min__energy>  (50) 
-15.18

>  <m_primary>  (50) 
energy

$$$$
50:0
     RDKit          3D

 39 41  0  0  0  0  0  0  0  0999 V2000
   59.2461   35.6098   46.3194 H   0  0  0  0  0  0  0  0  0  0  0  0
   58.7300   34.6460   46.1980 C   0  0  0  0  0  0  0  0  0  0  0  0
   57.8060   34.1780   44.8720 S   0  0  0  0  0  0  0  0  0  0  0  0
   57.4490   32.6640   45.5270 C   0  0  0  0  0  0  0  0  0  0  0  0
   56.6960   31.7540   44.9850 N   0  0  0  0  0  0  0  0  0  0  0  0
   57.1690   30.6010   44.2770 C   0  0  0  0  0  0  0  0  0  0  0  0
   57.7240   30.7590   43.1570 O   0  0  0  0  0  0  0  0  0  0  0  0
   56.9570   29.2340   44.7880 C   0  0  0  0  0  0  0  0  0  0  0  0
   55.7580   28.7840   45.2120 N   0  0  0  0  0  0  0  0  0  0  0  0
   55.9900   27.5240   45.6230 C   0  0  0  0  0  0  0  0  0  0  0  0
   54.9990   26.6960   46.1360 O   0  0  0  0  0  0  0  0  0  0  0  0
   57.3110   27.1650   45.4790 C   0  0  0  0  0  0  0  0  0  0  0  0
   57.7692   26.1986   45.7361 H   0  0  0  0  0  0  0  0  0  0  0  0
   57.9390   28.2680   44.9460 C   0  0  0  0  0  0  0  0  0  0  0  0
   59.0058   28.3638   44.6957 H   0  0  0  0  0  0  0  0  0  0  0  0
   58.0050   32.5030   46.7450 N   0  0  0  0  0  0  0  0  0  0  0  0
   58.7260   33.5960   47.1160 C   0  0  0  0  0  0  0  0  0  0  0  0
   59.4460   33.6590   48.4300 C   0  0  0  0  0  0  0  0  0  0  0  0
   59.2884   32.7147   48.9718 H   0  0  0  0  0  0  0  0  0  0  0  0
   59.0473   34.5065   49.0069 H   0  0  0  0  0  0  0  0  0  0  0  0
   60.8960   33.8660   48.2320 N   0  0  0  0  0  0  0  0  0  0  0  0
   61.5790   34.0600   49.5220 C   0  0  0  0  0  0  0  0  0  0  0  0
   60.8751   33.8601   50.3433 H   0  0  0  0  0  0  0  0  0  0  0  0
   62.4315   33.3685   49.5932 H   0  0  0  0  0  0  0  0  0  0  0  0
   61.9407   35.0964   49.5932 H   0  0  0  0  0  0  0  0  0  0  0  0
   61.5450   32.8220   47.4010 C   0  0  0  0  0  0  0  0  0  0  0  0
   61.3299   33.0391   46.3443 H   0  0  0  0  0  0  0  0  0  0  0  0
   62.6197   32.8562   47.6329 H   0  0  0  0  0  0  0  0  0  0  0  0
   61.0790   31.4100   47.7010 C   0  0  0  0  0  0  0  0  0  0  0  0
   60.5870   30.5900   46.6700 C   0  0  0  0  0  0  0  0  0  0  0  0
   60.5379   30.9752   45.6408 H   0  0  0  0  0  0  0  0  0  0  0  0
   60.1600   29.2880   46.9460 C   0  0  0  0  0  0  0  0  0  0  0  0
   59.7708   28.6540   46.1357 H   0  0  0  0  0  0  0  0  0  0  0  0
   60.2270   28.7910   48.2500 C   0  0  0  0  0  0  0  0  0  0  0  0
   59.8120   27.5270   48.5170 F   0  0  0  0  0  0  0  0  0  0  0  0
   60.7280   29.5930   49.2790 C   0  0  0  0  0  0  0  0  0  0  0  0
   60.7850   29.1992   50.3045 H   0  0  0  0  0  0  0  0  0  0  0  0
   61.1570   30.8960   49.0060 C   0  0  0  0  0  0  0  0  0  0  0  0
   61.5575   31.5215   49.8174 H   0  0  0  0  0  0  0  0  0  0  0  0
  1  2  1  0
  2  3  1  0
  3  4  1  0
  4  5  2  0
  5  6  1  0
  6  7  2  0
  6  8  1  0
  8  9  1  0
  9 10  1  0
 10 11  1  0
 10 12  2  0
 12 13  1  0
 12 14  1  0
 14 15  1  0
  4 16  1  0
 16 17  1  0
 17 18  1  0
 18 19  1  0
 18 20  1  0
 18 21  1  0
 21 22  1  0
 22 23  1  0
 22 24  1  0
 22 25  1  0
 21 26  1  0
 26 27  1  0
 26 28  1  0
 26 29  1  0
 29 30  2  0
 30 31  1  0
 30 32  1  0
 32 33  1  0
 32 34  2  0
 34 35  1  0
 34 36  1  0
 36 37  1  0
 36 38  2  0
 38 39  1  0
 17  2  2  0
 38 29  1  0
 14  8  2  0
M  CHG  3   9  -1  11  -1  16  -1
M  END
>  <UniqueID>  (51) 
48

>  <SMILES>  (51) 
CN(Cc1ccc(F)cc1)Cc1cs/c(=N\C(=O)c2ccc([O-])[n-]2)[n-]1

>  <Energy>  (51) 
105.46384970299194

>  <Genealogy>  (51) 
CN(Cc1ccc(F)cc1)Cc1csc(=NC(=O)c2ccc([O-])[n-]2)[n-]1 (protonated)
CN(Cc1ccc(F)cc1)Cc1cs/c(=N\C(=O)c2ccc([O-])[n-]2)[n-]1 (cis-trans isomerization)
CN(Cc1ccc(F)cc1)Cc1cs/c(=N\C(=O)c2ccc([O-])[n-]2)[n-]1 (3D coordinates assigned)
CN(Cc1ccc(F)cc1)Cc1cs/c(=N\C(=O)c2ccc([O-])[n-]2)[n-]1 (optimized conformer: 105.46384970299194 kcal/mol)

>  <smiles>  (51) 
CN(Cc1ccc(F)cc1)Cc1csc(=NC(=O)c2ccc(O)[nH]2)[nH]1

>  <score_type>  (51) 
oracle

>  <origin>  (51) 
adg

>  <m_score__min__energy>  (51) 
-14.550000000000001

>  <m_primary>  (51) 
energy

$$$$
51:0
     RDKit          3D

 46 48  0  0  0  0  0  0  0  0999 V2000
   57.8970   31.2210   50.8850 C   0  0  0  0  0  0  0  0  0  0  0  0
   58.1140   29.7770   50.7790 N   0  0  0  0  0  0  0  0  0  0  0  0
   59.5510   29.4760   50.7560 C   0  0  0  0  0  0  0  0  0  0  0  0
   60.1510   29.9560   49.4600 C   0  0  0  0  0  0  0  0  0  0  0  0
   61.1500   30.9450   49.4660 C   0  0  0  0  0  0  0  0  0  0  0  0
   61.7180   31.3810   48.2680 C   0  0  0  0  0  0  0  0  0  0  0  0
   61.3010   30.8330   47.0540 C   0  0  0  0  0  0  0  0  0  0  0  0
   60.3030   29.8540   47.0350 C   0  0  0  0  0  0  0  0  0  0  0  0
   59.7040   29.4270   48.2330 C   0  0  0  0  0  0  0  0  0  0  0  0
   58.7040   28.4430   48.2430 O   0  0  0  0  0  0  0  0  0  0  0  0
   58.4560   27.4930   47.2390 C   0  0  0  0  0  0  0  0  0  0  0  0
   58.8370   26.1460   47.3860 C   0  0  0  0  0  0  0  0  0  0  0  0
   58.6000   25.2290   46.3600 C   0  0  0  0  0  0  0  0  0  0  0  0
   58.0080   25.6500   45.1700 C   0  0  0  0  0  0  0  0  0  0  0  0
   57.6530   26.9890   45.0000 C   0  0  0  0  0  0  0  0  0  0  0  0
   57.8630   27.9210   46.0340 C   0  0  0  0  0  0  0  0  0  0  0  0
   57.5510   29.3170   45.8530 N   0  0  0  0  0  0  0  0  0  0  0  0
   56.5420   29.8160   44.9620 C   0  0  0  0  0  0  0  0  0  0  0  0
   55.5590   29.0940   44.6490 O   0  0  0  0  0  0  0  0  0  0  0  0
   56.5780   31.1730   44.5030 N   0  0  0  0  0  0  0  0  0  0  0  0
   57.4580   32.1990   44.9860 C   0  0  0  0  0  0  0  0  0  0  0  0
   58.0650   33.0590   44.0610 C   0  0  0  0  0  0  0  0  0  0  0  0
   58.9320   34.0660   44.4940 C   0  0  0  0  0  0  0  0  0  0  0  0
   59.2130   34.2100   45.8560 C   0  0  0  0  0  0  0  0  0  0  0  0
   58.6350   33.3380   46.7840 C   0  0  0  0  0  0  0  0  0  0  0  0
   58.9250   33.4640   48.1030 F   0  0  0  0  0  0  0  0  0  0  0  0
   57.7680   32.3290   46.3520 C   0  0  0  0  0  0  0  0  0  0  0  0
   57.8538   31.5084   51.9459 H   0  0  0  0  0  0  0  0  0  0  0  0
   58.7252   31.7532   50.3944 H   0  0  0  0  0  0  0  0  0  0  0  0
   56.9489   31.4863   50.3944 H   0  0  0  0  0  0  0  0  0  0  0  0
   57.7020   29.4590   49.8700 H   0  0  0  0  0  0  0  0  0  0  0  0
   60.0443   29.9844   51.5975 H   0  0  0  0  0  0  0  0  0  0  0  0
   59.6964   28.3892   50.8437 H   0  0  0  0  0  0  0  0  0  0  0  0
   61.4858   31.3776   50.4200 H   0  0  0  0  0  0  0  0  0  0  0  0
   62.4962   32.1584   48.2806 H   0  0  0  0  0  0  0  0  0  0  0  0
   61.7575   31.1713   46.1121 H   0  0  0  0  0  0  0  0  0  0  0  0
   59.9848   29.4156   46.0776 H   0  0  0  0  0  0  0  0  0  0  0  0
   59.3243   25.8138   48.3145 H   0  0  0  0  0  0  0  0  0  0  0  0
   58.8806   24.1735   46.4907 H   0  0  0  0  0  0  0  0  0  0  0  0
   57.8204   24.9256   44.3637 H   0  0  0  0  0  0  0  0  0  0  0  0
   57.2056   27.3187   44.0507 H   0  0  0  0  0  0  0  0  0  0  0  0
   58.0630   30.0190   46.4330 H   0  0  0  0  0  0  0  0  0  0  0  0
   57.8578   32.9407   42.9872 H   0  0  0  0  0  0  0  0  0  0  0  0
   59.3936   34.7458   43.7627 H   0  0  0  0  0  0  0  0  0  0  0  0
   59.8882   35.0085   46.1973 H   0  0  0  0  0  0  0  0  0  0  0  0
   57.3272   31.6349   47.0827 H   0  0  0  0  0  0  0  0  0  0  0  0
  1  2  1  0
  2  3  1  0
  3  4  1  0
  4  5  2  0
  5  6  1  0
  6  7  2  0
  7  8  1  0
  8  9  2  0
  9 10  1  0
 10 11  1  0
 11 12  2  0
 12 13  1  0
 13 14  2  0
 14 15  1  0
 15 16  2  0
 16 17  1  0
 17 18  1  0
 18 19  2  0
 18 20  1  0
 20 21  1  0
 21 22  2  0
 22 23  1  0
 23 24  2  0
 24 25  1  0
 25 26  1  0
 25 27  2  0
  9  4  1  0
 16 11  1  0
 27 21  1  0
  1 28  1  0
  1 29  1  0
  1 30  1  0
  2 31  1  0
  3 32  1  0
  3 33  1  0
  5 34  1  0
  6 35  1  0
  7 36  1  0
  8 37  1  0
 12 38  1  0
 13 39  1  0
 14 40  1  0
 15 41  1  0
 17 42  1  0
 22 43  1  0
 23 44  1  0
 24 45  1  0
 27 46  1  0
M  CHG  1  20  -1
M  END
>  <UniqueID>  (52) 
49

>  <SMILES>  (52) 
CNCc1ccccc1Oc1ccccc1NC(=O)[N-]c1cccc(F)c1

>  <Energy>  (52) 
59.318599204929896

>  <Genealogy>  (52) 
CNCc1ccccc1Oc1ccccc1NC(=O)[N-]c1cccc(F)c1 (protonated)
CNCc1ccccc1Oc1ccccc1NC(=O)[N-]c1cccc(F)c1 (3D coordinates assigned)
CNCc1ccccc1Oc1ccccc1NC(=O)[N-]c1cccc(F)c1 (optimized conformer: 59.318599204929896 kcal/mol)

>  <smiles>  (52) 
CNCc1ccccc1Oc1ccccc1NC(=O)Nc1cccc(F)c1

>  <score_type>  (52) 
oracle

>  <origin>  (52) 
adg

>  <m_score__min__energy>  (52) 
-9.4900000000000002

>  <m_primary>  (52) 
energy

$$$$
52:0
     RDKit          3D

 60 63  0  0  0  0  0  0  0  0999 V2000
   61.5350   30.6410   46.7400 N   0  0  0  0  0  0  0  0  0  0  0  0
   60.7150   30.3580   47.8790 C   0  0  0  0  0  0  0  0  0  0  0  0
   59.7210   29.3710   47.7770 C   0  0  0  0  0  0  0  0  0  0  0  0
   58.8450   29.1360   48.8370 C   0  0  0  0  0  0  0  0  0  0  0  0
   58.9500   29.8850   50.0090 C   0  0  0  0  0  0  0  0  0  0  0  0
   59.9430   30.8580   50.1290 C   0  0  0  0  0  0  0  0  0  0  0  0
   60.8460   31.0860   49.0860 C   0  0  0  0  0  0  0  0  0  0  0  0
   61.8660   32.0750   49.2760 N   0  0  0  0  0  0  0  0  0  0  0  0
   61.8970   33.3470   48.6200 C   0  0  0  0  0  0  0  0  0  0  0  0
   62.3360   33.4510   47.4440 O   0  0  0  0  0  0  0  0  0  0  0  0
   61.3920   34.5580   49.3420 C   0  0  0  0  0  0  0  0  0  0  0  0
   60.0770   34.9570   48.8370 N   0  0  0  0  0  0  0  0  0  0  0  0
   59.4550   34.4070   47.6600 C   0  0  0  0  0  0  0  0  0  0  0  0
   59.6920   34.9320   46.3750 C   0  0  0  0  0  0  0  0  0  0  0  0
   59.0800   34.3630   45.2530 C   0  0  0  0  0  0  0  0  0  0  0  0
   58.2110   33.2720   45.3960 C   0  0  0  0  0  0  0  0  0  0  0  0
   57.5880   32.6340   44.1850 C   0  0  0  0  0  0  0  0  0  0  0  0
   57.5580   31.1380   44.3450 C   0  0  0  0  0  0  0  0  0  0  0  0
   56.3330   30.4570   44.3970 C   0  0  0  0  0  0  0  0  0  0  0  0
   56.3040   29.0720   44.5830 C   0  0  0  0  0  0  0  0  0  0  0  0
   57.4930   28.3480   44.7360 C   0  0  0  0  0  0  0  0  0  0  0  0
   57.4330   26.9200   44.8930 N   0  0  0  0  0  0  0  0  0  0  0  0
   57.8480   26.2170   46.0750 C   0  0  0  0  0  0  0  0  0  0  0  0
   58.0070   26.8310   47.1640 O   0  0  0  0  0  0  0  0  0  0  0  0
   58.0930   24.7420   46.0190 C   0  0  0  0  0  0  0  0  0  0  0  0
   56.9810   24.0750   45.3480 N   0  0  0  0  0  0  0  0  0  0  0  0
   55.6470   24.5580   45.2430 C   0  0  0  0  0  0  0  0  0  0  0  0
   55.1540   25.4350   46.0000 O   0  0  0  0  0  0  0  0  0  0  0  0
   54.9460   23.9200   44.1320 C   0  0  0  0  0  0  0  0  0  0  0  0
   55.8020   23.0950   43.5360 C   0  0  0  0  0  0  0  0  0  0  0  0
   57.0760   23.1820   44.2450 C   0  0  0  0  0  0  0  0  0  0  0  0
   58.1300   22.5770   43.9180 O   0  0  0  0  0  0  0  0  0  0  0  0
   58.7210   29.0290   44.6710 C   0  0  0  0  0  0  0  0  0  0  0  0
   58.7510   30.4150   44.4910 C   0  0  0  0  0  0  0  0  0  0  0  0
   57.9750   32.7460   46.6730 C   0  0  0  0  0  0  0  0  0  0  0  0
   58.5880   33.3110   47.7930 C   0  0  0  0  0  0  0  0  0  0  0  0
   61.3790   30.1380   45.8380 H   0  0  0  0  0  0  0  0  0  0  0  0
   62.2330   31.4170   46.7470 H   0  0  0  0  0  0  0  0  0  0  0  0
   59.6325   28.7788   46.8543 H   0  0  0  0  0  0  0  0  0  0  0  0
   58.0709   28.3595   48.7485 H   0  0  0  0  0  0  0  0  0  0  0  0
   58.2499   29.7086   50.8389 H   0  0  0  0  0  0  0  0  0  0  0  0
   60.0161   31.4511   51.0525 H   0  0  0  0  0  0  0  0  0  0  0  0
   61.3117   34.3300   50.4151 H   0  0  0  0  0  0  0  0  0  0  0  0
   62.0977   35.3854   49.1767 H   0  0  0  0  0  0  0  0  0  0  0  0
   59.5670   35.6970   49.3710 H   0  0  0  0  0  0  0  0  0  0  0  0
   60.3628   35.7952   46.2526 H   0  0  0  0  0  0  0  0  0  0  0  0
   59.2817   34.7739   44.2528 H   0  0  0  0  0  0  0  0  0  0  0  0
   56.5603   33.0076   44.0653 H   0  0  0  0  0  0  0  0  0  0  0  0
   58.1852   32.8887   43.2971 H   0  0  0  0  0  0  0  0  0  0  0  0
   55.3911   31.0152   44.2910 H   0  0  0  0  0  0  0  0  0  0  0  0
   55.3384   28.5458   44.6095 H   0  0  0  0  0  0  0  0  0  0  0  0
   57.0150   26.3580   44.1180 H   0  0  0  0  0  0  0  0  0  0  0  0
   59.0224   24.5482   45.4635 H   0  0  0  0  0  0  0  0  0  0  0  0
   58.1819   24.3521   47.0437 H   0  0  0  0  0  0  0  0  0  0  0  0
   53.8991   24.0910   43.8408 H   0  0  0  0  0  0  0  0  0  0  0  0
   55.5884   22.4597   42.6637 H   0  0  0  0  0  0  0  0  0  0  0  0
   59.6631   28.4685   44.7622 H   0  0  0  0  0  0  0  0  0  0  0  0
   59.7162   30.9419   44.4637 H   0  0  0  0  0  0  0  0  0  0  0  0
   57.3032   31.8834   46.7938 H   0  0  0  0  0  0  0  0  0  0  0  0
   58.3894   32.8926   48.7908 H   0  0  0  0  0  0  0  0  0  0  0  0
  1  2  1  0
  2  3  2  0
  3  4  1  0
  4  5  2  0
  5  6  1  0
  6  7  2  0
  7  8  1  0
  8  9  1  0
  9 10  2  0
  9 11  1  0
 11 12  1  0
 12 13  1  0
 13 14  2  0
 14 15  1  0
 15 16  2  0
 16 17  1  0
 17 18  1  0
 18 19  2  0
 19 20  1  0
 20 21  2  0
 21 22  1  0
 22 23  1  0
 23 24  2  0
 23 25  1  0
 25 26  1  0
 26 27  1  0
 27 28  2  0
 27 29  1  0
 29 30  2  0
 30 31  1  0
 31 32  2  0
 21 33  1  0
 33 34  2  0
 16 35  1  0
 35 36  2  0
  7  2  1  0
 36 13  1  0
 34 18  1  0
 31 26  1  0
  1 37  1  0
  1 38  1  0
  3 39  1  0
  4 40  1  0
  5 41  1  0
  6 42  1  0
 11 43  1  0
 11 44  1  0
 12 45  1  0
 14 46  1  0
 15 47  1  0
 17 48  1  0
 17 49  1  0
 19 50  1  0
 20 51  1  0
 22 52  1  0
 25 53  1  0
 25 54  1  0
 29 55  1  0
 30 56  1  0
 33 57  1  0
 34 58  1  0
 35 59  1  0
 36 60  1  0
M  CHG  1   8  -1
M  END
>  <UniqueID>  (53) 
50

>  <SMILES>  (53) 
Nc1ccccc1[N-]C(=O)CNc1ccc(Cc2ccc(NC(=O)CN3C(=O)C=CC3=O)cc2)cc1

>  <Energy>  (53) 
94.03728534555734

>  <Genealogy>  (53) 
Nc1ccccc1[N-]C(=O)CNc1ccc(Cc2ccc(NC(=O)CN3C(=O)C=CC3=O)cc2)cc1 (protonated)
Nc1ccccc1[N-]C(=O)CNc1ccc(Cc2ccc(NC(=O)CN3C(=O)C=CC3=O)cc2)cc1 (3D coordinates assigned)
Nc1ccccc1[N-]C(=O)CNc1ccc(Cc2ccc(NC(=O)CN3C(=O)C=CC3=O)cc2)cc1 (nonaromatic ring conformer: 94.03728534555734 kcal/mol)

>  <smiles>  (53) 
Nc1ccccc1NC(=O)CNc1ccc(Cc2ccc(NC(=O)CN3C(=O)C=CC3=O)cc2)cc1

>  <score_type>  (53) 
oracle

>  <origin>  (53) 
adg

>  <m_score__min__energy>  (53) 
-12.130000000000001

>  <m_primary>  (53) 
energy

$$$$
53:0
     RDKit          3D

 58 61  0  0  0  0  0  0  0  0999 V2000
   57.7280   32.0540   43.5320 O   0  0  0  0  0  0  0  0  0  0  0  0
   57.2100   31.9060   44.6690 C   0  0  0  0  0  0  0  0  0  0  0  0
   57.0080   33.1080   45.5430 C   0  0  0  0  0  0  0  0  0  0  0  0
   58.0130   34.4930   44.9010 S   0  0  0  0  0  0  0  0  0  0  0  0
   59.3610   34.2800   46.0640 C   0  0  0  0  0  0  0  0  0  0  0  0
   59.1850   34.5810   47.4170 C   0  0  0  0  0  0  0  0  0  0  0  0
   60.2540   34.4190   48.2990 C   0  0  0  0  0  0  0  0  0  0  0  0
   61.4990   33.9730   47.8260 C   0  0  0  0  0  0  0  0  0  0  0  0
   62.6430   33.8130   48.7520 C   0  0  0  0  0  0  0  0  0  0  0  0
   62.8620   34.6970   49.6260 O   0  0  0  0  0  0  0  0  0  0  0  0
   63.5430   32.6970   48.6230 N   0  0  0  0  0  0  0  0  0  0  0  0
   64.4580   32.2790   49.6520 C   0  0  0  0  0  0  0  0  0  0  0  0
   64.1510   31.2120   50.5170 C   0  0  0  0  0  0  0  0  0  0  0  0
   65.0640   30.8160   51.5020 C   0  0  0  0  0  0  0  0  0  0  0  0
   66.2940   31.4700   51.6210 C   0  0  0  0  0  0  0  0  0  0  0  0
   67.1780   31.0860   52.5750 F   0  0  0  0  0  0  0  0  0  0  0  0
   66.6180   32.5120   50.7480 C   0  0  0  0  0  0  0  0  0  0  0  0
   65.7070   32.9110   49.7620 C   0  0  0  0  0  0  0  0  0  0  0  0
   61.6270   33.6810   46.4560 C   0  0  0  0  0  0  0  0  0  0  0  0
   60.5680   33.8420   45.6190 N   0  0  0  0  0  0  0  0  0  0  0  0
   56.9310   30.5800   45.1390 N   0  0  0  0  0  0  0  0  0  0  0  0
   57.8590   29.7380   45.8360 C   0  0  0  0  0  0  0  0  0  0  0  0
   57.9220   28.3580   45.5790 C   0  0  0  0  0  0  0  0  0  0  0  0
   58.8600   27.5640   46.2410 C   0  0  0  0  0  0  0  0  0  0  0  0
   59.7420   28.1390   47.1600 C   0  0  0  0  0  0  0  0  0  0  0  0
   59.6970   29.5170   47.4120 C   0  0  0  0  0  0  0  0  0  0  0  0
   60.8030   30.2420   48.5820 S   0  0  0  0  0  0  0  0  0  0  0  0
   61.2840   29.1770   49.5290 O   0  0  0  0  0  0  0  0  0  0  0  0
   62.0000   30.7920   47.8570 O   0  0  0  0  0  0  0  0  0  0  0  0
   60.0410   31.5260   49.4900 N   0  0  0  0  0  0  0  0  0  0  0  0
   58.6930   31.1200   49.9120 C   0  0  0  0  0  0  0  0  0  0  0  0
   58.0620   32.2410   50.7480 C   0  0  0  0  0  0  0  0  0  0  0  0
   58.8590   32.5240   51.8840 O   0  0  0  0  0  0  0  0  0  0  0  0
   60.1420   32.9630   51.4740 C   0  0  0  0  0  0  0  0  0  0  0  0
   60.8550   31.8730   50.6640 C   0  0  0  0  0  0  0  0  0  0  0  0
   58.7610   30.3140   46.7380 C   0  0  0  0  0  0  0  0  0  0  0  0
   55.9452   33.3916   45.5388 H   0  0  0  0  0  0  0  0  0  0  0  0
   57.3170   32.8729   46.5722 H   0  0  0  0  0  0  0  0  0  0  0  0
   58.2128   34.9423   47.7834 H   0  0  0  0  0  0  0  0  0  0  0  0
   60.1213   34.6413   49.3681 H   0  0  0  0  0  0  0  0  0  0  0  0
   63.6180   32.2370   47.6890 H   0  0  0  0  0  0  0  0  0  0  0  0
   63.1895   30.6868   50.4188 H   0  0  0  0  0  0  0  0  0  0  0  0
   64.8132   29.9894   52.1830 H   0  0  0  0  0  0  0  0  0  0  0  0
   67.5900   33.0196   50.8354 H   0  0  0  0  0  0  0  0  0  0  0  0
   65.9714   33.7240   49.0699 H   0  0  0  0  0  0  0  0  0  0  0  0
   62.5881   33.3209   46.0602 H   0  0  0  0  0  0  0  0  0  0  0  0
   57.2308   27.9024   44.8547 H   0  0  0  0  0  0  0  0  0  0  0  0
   58.9050   26.4837   46.0389 H   0  0  0  0  0  0  0  0  0  0  0  0
   60.4734   27.5085   47.6869 H   0  0  0  0  0  0  0  0  0  0  0  0
   58.0720   30.9302   49.0241 H   0  0  0  0  0  0  0  0  0  0  0  0
   58.7575   30.2028   50.5159 H   0  0  0  0  0  0  0  0  0  0  0  0
   57.9766   33.1478   50.1312 H   0  0  0  0  0  0  0  0  0  0  0  0
   57.0669   31.9152   51.0850 H   0  0  0  0  0  0  0  0  0  0  0  0
   60.0336   33.8631   50.8510 H   0  0  0  0  0  0  0  0  0  0  0  0
   60.7413   33.1878   52.3686 H   0  0  0  0  0  0  0  0  0  0  0  0
   61.8363   32.2441   50.3335 H   0  0  0  0  0  0  0  0  0  0  0  0
   60.9940   30.9804   51.2916 H   0  0  0  0  0  0  0  0  0  0  0  0
   58.7354   31.3987   46.9192 H   0  0  0  0  0  0  0  0  0  0  0  0
  1  2  2  0
  2  3  1  0
  3  4  1  0
  4  5  1  0
  5  6  2  0
  6  7  1  0
  7  8  2  0
  8  9  1  0
  9 10  2  0
  9 11  1  0
 11 12  1  0
 12 13  2  0
 13 14  1  0
 14 15  2  0
 15 16  1  0
 15 17  1  0
 17 18  2  0
  8 19  1  0
 19 20  2  0
  2 21  1  0
 21 22  1  0
 22 23  2  0
 23 24  1  0
 24 25  2  0
 25 26  1  0
 26 27  1  0
 27 28  2  0
 27 29  2  0
 27 30  1  0
 30 31  1  0
 31 32  1  0
 32 33  1  0
 33 34  1  0
 34 35  1  0
 26 36  2  0
 20  5  1  0
 36 22  1  0
 18 12  1  0
 35 30  1  0
  3 37  1  0
  3 38  1  0
  6 39  1  0
  7 40  1  0
 11 41  1  0
 13 42  1  0
 14 43  1  0
 17 44  1  0
 18 45  1  0
 19 46  1  0
 23 47  1  0
 24 48  1  0
 25 49  1  0
 31 50  1  0
 31 51  1  0
 32 52  1  0
 32 53  1  0
 34 54  1  0
 34 55  1  0
 35 56  1  0
 35 57  1  0
 36 58  1  0
M  CHG  1  21  -1
M  END
>  <UniqueID>  (54) 
51

>  <SMILES>  (54) 
O=C(CSc1ccc(C(=O)Nc2ccc(F)cc2)cn1)[N-]c1cccc(S(=O)(=O)N2CCOCC2)c1

>  <Energy>  (54) 
70.36302545066762

>  <Genealogy>  (54) 
O=C(CSc1ccc(C(=O)Nc2ccc(F)cc2)cn1)[N-]c1cccc(S(=O)(=O)N2CCOCC2)c1 (protonated)
O=C(CSc1ccc(C(=O)Nc2ccc(F)cc2)cn1)[N-]c1cccc(S(=O)(=O)N2CCOCC2)c1 (3D coordinates assigned)
O=C(CSc1ccc(C(=O)Nc2ccc(F)cc2)cn1)[N-]c1cccc(S(=O)(=O)N2CCOCC2)c1 (nonaromatic ring conformer: 70.36302545066762 kcal/mol)

>  <smiles>  (54) 
O=C(CSc1ccc(C(=O)Nc2ccc(F)cc2)cn1)Nc1cccc(S(=O)(=O)N2CCOCC2)c1

>  <score_type>  (54) 
oracle

>  <origin>  (54) 
adg

>  <m_score__min__energy>  (54) 
-12.359999999999999

>  <m_primary>  (54) 
energy

$$$$
54:0
     RDKit          3D

 40 41  0  0  0  0  0  0  0  0999 V2000
   63.2740   32.5910   48.0980 C   0  0  0  0  0  0  0  0  0  0  0  0
   62.2530   33.0050   47.0890 C   0  0  0  0  0  0  0  0  0  0  0  0
   62.5630   33.8510   46.2070 O   0  0  0  0  0  0  0  0  0  0  0  0
   60.9640   32.3730   47.0760 N   0  0  0  0  0  0  0  0  0  0  0  0
   59.8500   32.8360   46.2940 C   0  0  0  0  0  0  0  0  0  0  0  0
   59.7900   34.1850   45.9110 C   0  0  0  0  0  0  0  0  0  0  0  0
   58.7290   34.6530   45.1330 C   0  0  0  0  0  0  0  0  0  0  0  0
   57.7230   33.7760   44.7170 C   0  0  0  0  0  0  0  0  0  0  0  0
   57.7740   32.4230   45.0790 C   0  0  0  0  0  0  0  0  0  0  0  0
   56.7210   31.4650   44.5900 C   0  0  0  0  0  0  0  0  0  0  0  0
   57.2390   30.6530   43.3900 C   0  0  0  0  0  0  0  0  0  0  0  0
   57.0910   29.2010   43.6030 N   0  0  0  0  0  0  0  0  0  0  0  0
   56.3920   28.8620   44.8530 C   0  0  0  0  0  0  0  0  0  0  0  0
   57.0110   27.6740   45.5540 C   0  0  0  0  0  0  0  0  0  0  0  0
   58.4080   27.5920   45.6900 C   0  0  0  0  0  0  0  0  0  0  0  0
   58.9930   26.5190   46.3710 C   0  0  0  0  0  0  0  0  0  0  0  0
   60.7370   26.4300   46.5340 Cl  0  0  0  0  0  0  0  0  0  0  0  0
   58.1860   25.5220   46.9240 C   0  0  0  0  0  0  0  0  0  0  0  0
   56.7970   25.5920   46.7930 C   0  0  0  0  0  0  0  0  0  0  0  0
   56.2060   26.6610   46.1110 C   0  0  0  0  0  0  0  0  0  0  0  0
   54.8220   26.7110   45.9950 O   0  0  0  0  0  0  0  0  0  0  0  0
   58.8490   31.9530   45.8520 C   0  0  0  0  0  0  0  0  0  0  0  0
   62.8755   32.7526   49.1105 H   0  0  0  0  0  0  0  0  0  0  0  0
   63.5116   31.5255   47.9632 H   0  0  0  0  0  0  0  0  0  0  0  0
   64.1866   33.1901   47.9632 H   0  0  0  0  0  0  0  0  0  0  0  0
   60.8550   31.4790   47.6070 H   0  0  0  0  0  0  0  0  0  0  0  0
   60.5840   34.8782   46.2258 H   0  0  0  0  0  0  0  0  0  0  0  0
   58.6847   35.7142   44.8468 H   0  0  0  0  0  0  0  0  0  0  0  0
   56.8892   34.1488   44.1040 H   0  0  0  0  0  0  0  0  0  0  0  0
   56.4542   30.7754   45.4044 H   0  0  0  0  0  0  0  0  0  0  0  0
   55.8391   32.0409   44.2729 H   0  0  0  0  0  0  0  0  0  0  0  0
   56.6699   30.9407   42.4937 H   0  0  0  0  0  0  0  0  0  0  0  0
   58.3100   30.8720   43.2672 H   0  0  0  0  0  0  0  0  0  0  0  0
   56.6210   28.7370   42.7890 H   0  0  0  0  0  0  0  0  0  0  0  0
   56.4319   29.7304   45.5270 H   0  0  0  0  0  0  0  0  0  0  0  0
   55.3551   28.5984   44.5973 H   0  0  0  0  0  0  0  0  0  0  0  0
   59.0457   28.3772   45.2578 H   0  0  0  0  0  0  0  0  0  0  0  0
   58.6450   24.6804   47.4635 H   0  0  0  0  0  0  0  0  0  0  0  0
   56.1654   24.8034   47.2279 H   0  0  0  0  0  0  0  0  0  0  0  0
   58.9080   30.8861   46.1134 H   0  0  0  0  0  0  0  0  0  0  0  0
  1  2  1  0
  2  3  2  0
  2  4  1  0
  4  5  1  0
  5  6  2  0
  6  7  1  0
  7  8  2  0
  8  9  1  0
  9 10  1  0
 10 11  1  0
 11 12  1  0
 12 13  1  0
 13 14  1  0
 14 15  2  0
 15 16  1  0
 16 17  1  0
 16 18  2  0
 18 19  1  0
 19 20  2  0
 20 21  1  0
  9 22  2  0
 22  5  1  0
 20 14  1  0
  1 23  1  0
  1 24  1  0
  1 25  1  0
  4 26  1  0
  6 27  1  0
  7 28  1  0
  8 29  1  0
 10 30  1  0
 10 31  1  0
 11 32  1  0
 11 33  1  0
 12 34  1  0
 13 35  1  0
 13 36  1  0
 15 37  1  0
 18 38  1  0
 19 39  1  0
 22 40  1  0
M  CHG  1  21  -1
M  END
>  <UniqueID>  (55) 
52

>  <SMILES>  (55) 
CC(=O)Nc1cccc(CCNCc2cc(Cl)ccc2[O-])c1

>  <Energy>  (55) 
39.25496715714001

>  <Genealogy>  (55) 
CC(=O)Nc1cccc(CCNCc2cc(Cl)ccc2[O-])c1 (protonated)
CC(=O)Nc1cccc(CCNCc2cc(Cl)ccc2[O-])c1 (3D coordinates assigned)
CC(=O)Nc1cccc(CCNCc2cc(Cl)ccc2[O-])c1 (optimized conformer: 39.25496715714001 kcal/mol)

>  <smiles>  (55) 
CC(=O)Nc1cccc(CCNCc2cc(Cl)ccc2O)c1

>  <score_type>  (55) 
oracle

>  <origin>  (55) 
adg

>  <m_score__min__energy>  (55) 
-11.789999999999999

>  <m_primary>  (55) 
energy

$$$$
55:0
     RDKit          3D

 33 34  0  0  0  0  0  0  0  0999 V2000
   56.3467   31.9216   45.5241 H   0  0  0  0  0  0  0  0  0  0  0  0
   56.9700   31.3970   44.7850 C   0  0  0  0  0  0  0  0  0  0  0  0
   56.3670   30.2350   44.0990 C   0  0  0  0  0  0  0  0  0  0  0  0
   56.2720   30.1940   42.8430 O   0  0  0  0  0  0  0  0  0  0  0  0
   55.9590   29.1100   44.8880 N   0  0  0  0  0  0  0  0  0  0  0  0
   56.6820   28.1370   45.3720 C   0  0  0  0  0  0  0  0  0  0  0  0
   58.0320   28.3140   45.4090 N   0  0  0  0  0  0  0  0  0  0  0  0
   58.8850   27.3670   45.8790 C   0  0  0  0  0  0  0  0  0  0  0  0
   59.9685   27.5566   45.8837 H   0  0  0  0  0  0  0  0  0  0  0  0
   58.3880   26.1560   46.3550 C   0  0  0  0  0  0  0  0  0  0  0  0
   59.0742   25.3773   46.7194 H   0  0  0  0  0  0  0  0  0  0  0  0
   57.0110   25.9430   46.3640 C   0  0  0  0  0  0  0  0  0  0  0  0
   56.6064   24.9927   46.7425 H   0  0  0  0  0  0  0  0  0  0  0  0
   56.1410   26.9320   45.8940 C   0  0  0  0  0  0  0  0  0  0  0  0
   54.7740   26.7150   46.0100 O   0  0  0  0  0  0  0  0  0  0  0  0
   58.2110   31.8690   44.5860 C   0  0  0  0  0  0  0  0  0  0  0  0
   58.6208   31.8138   43.5667 H   0  0  0  0  0  0  0  0  0  0  0  0
   59.0670   32.4580   45.6390 C   0  0  0  0  0  0  0  0  0  0  0  0
   59.1770   33.8580   45.7780 C   0  0  0  0  0  0  0  0  0  0  0  0
   58.4710   34.7970   44.8440 C   0  0  0  0  0  0  0  0  0  0  0  0
   57.9107   35.5423   45.4276 H   0  0  0  0  0  0  0  0  0  0  0  0
   59.2103   35.3082   44.2099 H   0  0  0  0  0  0  0  0  0  0  0  0
   57.7746   34.2287   44.2099 H   0  0  0  0  0  0  0  0  0  0  0  0
   59.9480   34.3780   46.7710 N   0  0  0  0  0  0  0  0  0  0  0  0
   60.6240   33.5960   47.6540 C   0  0  0  0  0  0  0  0  0  0  0  0
   61.4430   34.2280   48.7340 C   0  0  0  0  0  0  0  0  0  0  0  0
   61.0509   33.9254   49.7162 H   0  0  0  0  0  0  0  0  0  0  0  0
   62.4890   33.9007   48.6401 H   0  0  0  0  0  0  0  0  0  0  0  0
   61.3916   35.3228   48.6401 H   0  0  0  0  0  0  0  0  0  0  0  0
   60.5230   32.2040   47.5660 C   0  0  0  0  0  0  0  0  0  0  0  0
   61.0572   31.5634   48.2831 H   0  0  0  0  0  0  0  0  0  0  0  0
   59.7390   31.6330   46.5610 C   0  0  0  0  0  0  0  0  0  0  0  0
   59.6360   30.3770   46.4940 O   0  0  0  0  0  0  0  0  0  0  0  0
  1  2  1  0
  2  3  1  0
  3  4  2  0
  3  5  1  0
  5  6  2  3
  6  7  1  0
  7  8  1  0
  8  9  1  0
  8 10  2  0
 10 11  1  0
 10 12  1  0
 12 13  1  0
 12 14  2  0
 14 15  1  0
  2 16  2  0
 16 17  1  0
 16 18  1  0
 18 19  2  0
 19 20  1  0
 20 21  1  0
 20 22  1  0
 20 23  1  0
 19 24  1  0
 24 25  1  0
 25 26  1  0
 26 27  1  0
 26 28  1  0
 26 29  1  0
 25 30  2  0
 30 31  1  0
 30 32  1  0
 32 33  2  0
 14  6  1  0
 32 18  1  0
M  CHG  3   7  -1  15  -1  24  -1
M  END
>  <UniqueID>  (56) 
53

>  <SMILES>  (56) 
Cc1cc(=O)c(/C=C\C(=O)N=c2[n-]cccc2[O-])c(C)[n-]1

>  <Energy>  (56) 
54.60303671612288

>  <Genealogy>  (56) 
Cc1cc(=O)c(C=CC(=O)N=c2[n-]cccc2[O-])c(C)[n-]1 (protonated)
Cc1cc(=O)c(/C=C\C(=O)N=c2[n-]cccc2[O-])c(C)[n-]1 (cis-trans isomerization)
Cc1cc(=O)c(/C=C\C(=O)N=c2[n-]cccc2[O-])c(C)[n-]1 (3D coordinates assigned)
Cc1cc(=O)c(/C=C\C(=O)N=c2[n-]cccc2[O-])c(C)[n-]1 (optimized conformer: 54.60303671612288 kcal/mol)

>  <smiles>  (56) 
Cc1cc(=O)c(C=CC(=O)N=c2[nH]cccc2O)c(C)[nH]1

>  <score_type>  (56) 
oracle

>  <origin>  (56) 
adg

>  <m_score__min__energy>  (56) 
-13.52

>  <m_primary>  (56) 
energy

$$$$
56:0
     RDKit          3D

 40 43  0  0  0  0  0  0  0  0999 V2000
   54.3370   29.0420   44.1290 H   0  0  0  0  0  0  0  0  0  0  0  0
   55.1420   29.3330   44.7280 N   0  0  0  0  0  0  0  0  0  0  0  0
   56.4850   29.5980   43.6730 S   0  0  0  0  0  0  0  0  0  0  0  0
   55.9810   29.9360   42.2980 O   0  0  0  0  0  0  0  0  0  0  0  0
   57.3120   28.3440   43.5880 O   0  0  0  0  0  0  0  0  0  0  0  0
   57.4680   30.9200   44.2920 C   0  0  0  0  0  0  0  0  0  0  0  0
   57.7440   32.0330   43.4860 C   0  0  0  0  0  0  0  0  0  0  0  0
   57.3517   32.0767   42.4592 H   0  0  0  0  0  0  0  0  0  0  0  0
   58.5160   33.0880   43.9820 C   0  0  0  0  0  0  0  0  0  0  0  0
   58.7459   33.9492   43.3374 H   0  0  0  0  0  0  0  0  0  0  0  0
   59.0000   33.0520   45.3030 C   0  0  0  0  0  0  0  0  0  0  0  0
   59.8270   34.0990   45.8400 N   0  0  0  0  0  0  0  0  0  0  0  0
   60.5010   34.0680   46.9520 C   0  0  0  0  0  0  0  0  0  0  0  0
   61.7930   33.6180   46.9320 N   0  0  0  0  0  0  0  0  0  0  0  0
   62.4800   33.5650   48.0980 C   0  0  0  0  0  0  0  0  0  0  0  0
   61.9240   33.9340   49.2810 C   0  0  0  0  0  0  0  0  0  0  0  0
   60.6140   34.3830   49.3210 C   0  0  0  0  0  0  0  0  0  0  0  0
   60.1454   34.6857   50.2690 H   0  0  0  0  0  0  0  0  0  0  0  0
   59.9250   34.4370   48.1450 N   0  0  0  0  0  0  0  0  0  0  0  0
   62.8730   33.7550   50.2610 C   0  0  0  0  0  0  0  0  0  0  0  0
   62.7695   33.9513   51.3384 H   0  0  0  0  0  0  0  0  0  0  0  0
   64.0000   33.2680   49.5860 C   0  0  0  0  0  0  0  0  0  0  0  0
   65.2970   32.9180   50.2190 C   0  0  0  0  0  0  0  0  0  0  0  0
   65.7720   31.5940   50.1940 C   0  0  0  0  0  0  0  0  0  0  0  0
   65.1769   30.8102   49.7026 H   0  0  0  0  0  0  0  0  0  0  0  0
   66.9950   31.2660   50.7890 C   0  0  0  0  0  0  0  0  0  0  0  0
   67.3577   30.2279   50.7617 H   0  0  0  0  0  0  0  0  0  0  0  0
   67.7580   32.2560   51.4190 C   0  0  0  0  0  0  0  0  0  0  0  0
   68.9770   31.9430   52.0160 O   0  0  0  0  0  0  0  0  0  0  0  0
   69.0250   31.5610   52.9540 H   0  0  0  0  0  0  0  0  0  0  0  0
   67.2940   33.5740   51.4500 C   0  0  0  0  0  0  0  0  0  0  0  0
   67.8919   34.3539   51.9441 H   0  0  0  0  0  0  0  0  0  0  0  0
   66.0720   33.9050   50.8550 C   0  0  0  0  0  0  0  0  0  0  0  0
   65.7144   34.9448   50.8846 H   0  0  0  0  0  0  0  0  0  0  0  0
   63.7480   33.1550   48.2550 N   0  0  0  0  0  0  0  0  0  0  0  0
   64.3820   32.8030   47.5050 H   0  0  0  0  0  0  0  0  0  0  0  0
   58.7430   31.9270   46.0950 C   0  0  0  0  0  0  0  0  0  0  0  0
   59.1514   31.8719   47.1149 H   0  0  0  0  0  0  0  0  0  0  0  0
   57.9700   30.8720   45.5980 C   0  0  0  0  0  0  0  0  0  0  0  0
   57.7559   30.0017   46.2357 H   0  0  0  0  0  0  0  0  0  0  0  0
  1  2  1  0
  2  3  1  0
  3  4  2  0
  3  5  2  0
  3  6  1  0
  6  7  2  0
  7  8  1  0
  7  9  1  0
  9 10  1  0
  9 11  2  0
 11 12  1  0
 12 13  2  0
 13 14  1  0
 14 15  2  0
 15 16  1  0
 16 17  2  0
 17 18  1  0
 17 19  1  0
 16 20  1  0
 20 21  1  0
 20 22  2  0
 22 23  1  0
 23 24  2  0
 24 25  1  0
 24 26  1  0
 26 27  1  0
 26 28  2  0
 28 29  1  0
 29 30  1  0
 28 31  1  0
 31 32  1  0
 31 33  2  0
 33 34  1  0
 22 35  1  0
 35 36  1  0
 11 37  1  0
 37 38  1  0
 37 39  2  0
 39 40  1  0
 39  6  1  0
 19 13  1  0
 33 23  1  0
 35 15  1  0
M  CHG  2   2  -1  19  -1
M  END
>  <UniqueID>  (57) 
54

>  <SMILES>  (57) 
[NH-]S(=O)(=O)c1ccc(/N=c2/nc3[nH]c(-c4ccc(O)cc4)cc3c[n-]2)cc1

>  <Energy>  (57) 
89.0679201592596

>  <Genealogy>  (57) 
[NH-]S(=O)(=O)c1ccc(N=c2nc3[nH]c(-c4ccc(O)cc4)cc3c[n-]2)cc1 (protonated)
[NH-]S(=O)(=O)c1ccc(/N=c2/nc3[nH]c(-c4ccc(O)cc4)cc3c[n-]2)cc1 (cis-trans isomerization)
[NH-]S(=O)(=O)c1ccc(/N=c2/nc3[nH]c(-c4ccc(O)cc4)cc3c[n-]2)cc1 (3D coordinates assigned)
[NH-]S(=O)(=O)c1ccc(/N=c2/nc3[nH]c(-c4ccc(O)cc4)cc3c[n-]2)cc1 (optimized conformer: 89.0679201592596 kcal/mol)

>  <smiles>  (57) 
NS(=O)(=O)c1ccc(N=c2nc3[nH]c(-c4ccc(O)cc4)cc3c[nH]2)cc1

>  <score_type>  (57) 
oracle

>  <origin>  (57) 
adg

>  <m_score__min__energy>  (57) 
-11.880000000000001

>  <m_primary>  (57) 
energy

$$$$
57:0
     RDKit          3D

 32 33  0  0  0  0  0  0  0  0999 V2000
   55.1370   26.3330   46.8810 H   0  0  0  0  0  0  0  0  0  0  0  0
   54.7620   26.2140   45.9700 O   0  0  0  0  0  0  0  0  0  0  0  0
   55.0730   24.9050   45.5760 C   0  0  0  0  0  0  0  0  0  0  0  0
   55.3964   24.9132   44.5246 H   0  0  0  0  0  0  0  0  0  0  0  0
   54.1762   24.2801   45.6990 H   0  0  0  0  0  0  0  0  0  0  0  0
   56.1960   24.3220   46.4410 C   0  0  0  0  0  0  0  0  0  0  0  0
   56.3682   23.2772   46.1433 H   0  0  0  0  0  0  0  0  0  0  0  0
   55.8845   24.3882   47.4939 H   0  0  0  0  0  0  0  0  0  0  0  0
   57.5020   25.1030   46.2830 C   0  0  0  0  0  0  0  0  0  0  0  0
   57.7795   25.1478   45.2195 H   0  0  0  0  0  0  0  0  0  0  0  0
   58.3061   24.6032   46.8430 H   0  0  0  0  0  0  0  0  0  0  0  0
   57.3070   26.4570   46.7970 N   0  0  0  0  0  0  0  0  0  0  0  0
   57.5830   27.6530   46.3330 C   0  0  0  0  0  0  0  0  0  0  0  0
   58.5460   28.5030   46.8680 N   0  0  0  0  0  0  0  0  0  0  0  0
   59.2140   28.2430   48.1590 C   0  0  0  0  0  0  0  0  0  0  0  0
   58.5349   28.5073   48.9830 H   0  0  0  0  0  0  0  0  0  0  0  0
   59.4766   27.1770   48.2279 H   0  0  0  0  0  0  0  0  0  0  0  0
   60.1281   28.8510   48.2279 H   0  0  0  0  0  0  0  0  0  0  0  0
   58.8620   29.6690   46.2000 C   0  0  0  0  0  0  0  0  0  0  0  0
   59.7890   30.4180   46.6210 O   0  0  0  0  0  0  0  0  0  0  0  0
   58.1610   30.0470   45.0450 C   0  0  0  0  0  0  0  0  0  0  0  0
   58.4440   31.2430   44.3530 C   0  0  0  0  0  0  0  0  0  0  0  0
   59.2453   31.9068   44.7099 H   0  0  0  0  0  0  0  0  0  0  0  0
   57.7090   31.5870   43.2150 C   0  0  0  0  0  0  0  0  0  0  0  0
   57.9318   32.5216   42.6794 H   0  0  0  0  0  0  0  0  0  0  0  0
   56.6930   30.7470   42.7570 C   0  0  0  0  0  0  0  0  0  0  0  0
   56.1158   31.0209   41.8616 H   0  0  0  0  0  0  0  0  0  0  0  0
   56.4080   29.5590   43.4340 C   0  0  0  0  0  0  0  0  0  0  0  0
   55.6076   28.8985   43.0693 H   0  0  0  0  0  0  0  0  0  0  0  0
   57.1410   29.2050   44.5800 C   0  0  0  0  0  0  0  0  0  0  0  0
   56.8840   28.0430   45.2280 N   0  0  0  0  0  0  0  0  0  0  0  0
   56.1430   27.4070   44.8520 H   0  0  0  0  0  0  0  0  0  0  0  0
  1  2  1  0
  2  3  1  0
  3  4  1  0
  3  5  1  0
  3  6  1  0
  6  7  1  0
  6  8  1  0
  6  9  1  0
  9 10  1  0
  9 11  1  0
  9 12  1  0
 12 13  2  0
 13 14  1  0
 14 15  1  0
 15 16  1  0
 15 17  1  0
 15 18  1  0
 14 19  1  0
 19 20  2  0
 19 21  1  0
 21 22  2  0
 22 23  1  0
 22 24  1  0
 24 25  1  0
 24 26  2  0
 26 27  1  0
 26 28  1  0
 28 29  1  0
 28 30  2  0
 30 31  1  0
 31 32  1  0
 31 13  1  0
 30 21  1  0
M  END
>  <UniqueID>  (58) 
55

>  <SMILES>  (58) 
Cn1c(=O)c2ccccc2[nH]/c1=N/CCCO

>  <Energy>  (58) 
49.54854812913444

>  <Genealogy>  (58) 
Cn1c(=O)c2ccccc2[nH]/c1=N/CCCO (cis-trans isomerization)
Cn1c(=O)c2ccccc2[nH]/c1=N/CCCO (3D coordinates assigned)
Cn1c(=O)c2ccccc2[nH]/c1=N/CCCO (optimized conformer: 49.54854812913444 kcal/mol)

>  <smiles>  (58) 
Cn1c(=NCCCO)[nH]c2ccccc2c1=O

>  <score_type>  (58) 
oracle

>  <origin>  (58) 
adg

>  <m_score__min__energy>  (58) 
-6.3700000000000001

>  <m_primary>  (58) 
energy

$$$$
58:0
     RDKit          3D

 45 47  0  0  0  0  0  0  0  0999 V2000
   63.8350   33.0200   46.9230 C   0  0  0  0  0  0  0  0  0  0  0  0
   62.9250   33.3320   48.0320 N   0  0  0  0  0  0  0  0  0  0  0  0
   63.4770   33.4650   49.3860 C   0  0  0  0  0  0  0  0  0  0  0  0
   61.5030   33.5050   47.7940 C   0  0  0  0  0  0  0  0  0  0  0  0
   60.7000   34.2210   48.7070 C   0  0  0  0  0  0  0  0  0  0  0  0
   59.3300   34.3760   48.4820 C   0  0  0  0  0  0  0  0  0  0  0  0
   58.7390   33.8330   47.3420 C   0  0  0  0  0  0  0  0  0  0  0  0
   59.5210   33.1420   46.4040 C   0  0  0  0  0  0  0  0  0  0  0  0
   58.9390   32.5480   45.2360 N   0  0  0  0  0  0  0  0  0  0  0  0
   57.5580   32.2140   45.0470 C   0  0  0  0  0  0  0  0  0  0  0  0
   56.6870   32.8330   45.7110 O   0  0  0  0  0  0  0  0  0  0  0  0
   57.1260   31.1110   44.1190 C   0  0  0  0  0  0  0  0  0  0  0  0
   57.4190   29.8070   44.7130 N   0  0  0  0  0  0  0  0  0  0  0  0
   56.5270   28.8610   45.0750 C   0  0  0  0  0  0  0  0  0  0  0  0
   55.1550   28.9600   44.8730 O   0  0  0  0  0  0  0  0  0  0  0  0
   57.1710   27.7980   45.6760 C   0  0  0  0  0  0  0  0  0  0  0  0
   58.5160   28.0930   45.6580 C   0  0  0  0  0  0  0  0  0  0  0  0
   58.6330   29.3490   45.0890 C   0  0  0  0  0  0  0  0  0  0  0  0
   59.8180   30.0650   44.9280 O   0  0  0  0  0  0  0  0  0  0  0  0
   59.5680   27.2330   46.2910 C   0  0  0  0  0  0  0  0  0  0  0  0
   59.0350   25.8010   46.5050 C   0  0  0  0  0  0  0  0  0  0  0  0
   57.6120   25.8020   47.1060 C   0  0  0  0  0  0  0  0  0  0  0  0
   56.6000   26.5080   46.1810 C   0  0  0  0  0  0  0  0  0  0  0  0
   60.8880   32.9620   46.6450 C   0  0  0  0  0  0  0  0  0  0  0  0
   64.8033   32.6880   47.3256 H   0  0  0  0  0  0  0  0  0  0  0  0
   63.4005   32.2195   46.3062 H   0  0  0  0  0  0  0  0  0  0  0  0
   63.9830   33.9187   46.3062 H   0  0  0  0  0  0  0  0  0  0  0  0
   62.6851   33.2742   50.1252 H   0  0  0  0  0  0  0  0  0  0  0  0
   64.2901   32.7371   49.5236 H   0  0  0  0  0  0  0  0  0  0  0  0
   63.8694   34.4834   49.5236 H   0  0  0  0  0  0  0  0  0  0  0  0
   61.1574   34.6616   49.6051 H   0  0  0  0  0  0  0  0  0  0  0  0
   58.7150   34.9288   49.2073 H   0  0  0  0  0  0  0  0  0  0  0  0
   57.6573   33.9465   47.1775 H   0  0  0  0  0  0  0  0  0  0  0  0
   56.0443   31.1924   43.9367 H   0  0  0  0  0  0  0  0  0  0  0  0
   57.6749   31.2046   43.1704 H   0  0  0  0  0  0  0  0  0  0  0  0
   59.8570   31.0610   45.1070 H   0  0  0  0  0  0  0  0  0  0  0  0
   60.4500   27.1971   45.6347 H   0  0  0  0  0  0  0  0  0  0  0  0
   59.8400   27.6620   47.2667 H   0  0  0  0  0  0  0  0  0  0  0  0
   59.0117   25.2813   45.5358 H   0  0  0  0  0  0  0  0  0  0  0  0
   59.7043   25.2893   47.2123 H   0  0  0  0  0  0  0  0  0  0  0  0
   57.2892   24.7615   47.2586 H   0  0  0  0  0  0  0  0  0  0  0  0
   57.6439   26.3500   48.0593 H   0  0  0  0  0  0  0  0  0  0  0  0
   56.3705   25.8535   45.3272 H   0  0  0  0  0  0  0  0  0  0  0  0
   55.6825   26.7204   46.7494 H   0  0  0  0  0  0  0  0  0  0  0  0
   61.4930   32.3882   45.9275 H   0  0  0  0  0  0  0  0  0  0  0  0
  1  2  1  0
  2  3  1  0
  2  4  1  0
  4  5  2  0
  5  6  1  0
  6  7  2  0
  7  8  1  0
  8  9  1  0
  9 10  1  0
 10 11  2  0
 10 12  1  0
 12 13  1  0
 13 14  1  0
 14 15  1  0
 14 16  2  0
 16 17  1  0
 17 18  2  0
 18 19  1  0
 17 20  1  0
 20 21  1  0
 21 22  1  0
 22 23  1  0
  8 24  2  0
 24  4  1  0
 18 13  1  0
 23 16  1  0
  1 25  1  0
  1 26  1  0
  1 27  1  0
  3 28  1  0
  3 29  1  0
  3 30  1  0
  5 31  1  0
  6 32  1  0
  7 33  1  0
 12 34  1  0
 12 35  1  0
 19 36  1  0
 20 37  1  0
 20 38  1  0
 21 39  1  0
 21 40  1  0
 22 41  1  0
 22 42  1  0
 23 43  1  0
 23 44  1  0
 24 45  1  0
M  CHG  2   9  -1  15  -1
M  END
>  <UniqueID>  (59) 
56

>  <SMILES>  (59) 
CN(C)c1cccc([N-]C(=O)Cn2c([O-])c3c(c2O)CCCC3)c1

>  <Energy>  (59) 
78.88340718155023

>  <Genealogy>  (59) 
CN(C)c1cccc([N-]C(=O)Cn2c([O-])c3c(c2O)CCCC3)c1 (protonated)
CN(C)c1cccc([N-]C(=O)Cn2c([O-])c3c(c2O)CCCC3)c1 (3D coordinates assigned)
CN(C)c1cccc([N-]C(=O)Cn2c([O-])c3c(c2O)CCCC3)c1 (nonaromatic ring conformer: 78.88340718155023 kcal/mol)

>  <smiles>  (59) 
CN(C)c1cccc(NC(=O)Cn2c(O)c3c(c2O)CCCC3)c1

>  <score_type>  (59) 
oracle

>  <origin>  (59) 
adg

>  <m_score__min__energy>  (59) 
-12.1

>  <m_primary>  (59) 
energy

$$$$
59:0
     RDKit          3D

 41 42  0  0  0  0  0  0  0  0999 V2000
   55.8780   23.8500   44.3570 C   0  0  0  0  0  0  0  0  0  0  0  0
   55.6580   23.8240   45.8660 C   0  0  0  0  0  0  0  0  0  0  0  0
   55.6620   25.1480   46.3980 O   0  0  0  0  0  0  0  0  0  0  0  0
   56.6140   26.1130   46.0580 C   0  0  0  0  0  0  0  0  0  0  0  0
   57.8460   25.8480   46.1310 O   0  0  0  0  0  0  0  0  0  0  0  0
   56.1700   27.4040   45.6170 N   0  0  0  0  0  0  0  0  0  0  0  0
   57.0510   28.4800   45.2520 C   0  0  0  0  0  0  0  0  0  0  0  0
   58.3010   28.3230   45.2940 O   0  0  0  0  0  0  0  0  0  0  0  0
   56.4970   29.7720   44.7950 C   0  0  0  0  0  0  0  0  0  0  0  0
   55.2520   29.8970   44.6550 O   0  0  0  0  0  0  0  0  0  0  0  0
   57.3440   30.8720   44.4330 N   0  0  0  0  0  0  0  0  0  0  0  0
   58.0610   31.7220   45.3400 C   0  0  0  0  0  0  0  0  0  0  0  0
   58.9220   31.1940   46.3190 C   0  0  0  0  0  0  0  0  0  0  0  0
   59.5870   32.0460   47.2050 C   0  0  0  0  0  0  0  0  0  0  0  0
   59.3830   33.4330   47.1410 C   0  0  0  0  0  0  0  0  0  0  0  0
   60.1310   34.3550   48.0670 C   0  0  0  0  0  0  0  0  0  0  0  0
   61.5900   33.9920   48.0940 C   0  0  0  0  0  0  0  0  0  0  0  0
   62.2430   33.7640   49.3140 C   0  0  0  0  0  0  0  0  0  0  0  0
   63.5890   33.3920   49.3160 C   0  0  0  0  0  0  0  0  0  0  0  0
   64.2600   33.2430   48.1420 N   0  0  0  0  0  0  0  0  0  0  0  0
   63.6460   33.4450   46.9440 C   0  0  0  0  0  0  0  0  0  0  0  0
   62.3010   33.8190   46.8980 C   0  0  0  0  0  0  0  0  0  0  0  0
   58.5120   33.9570   46.1720 C   0  0  0  0  0  0  0  0  0  0  0  0
   57.8480   33.1030   45.2870 C   0  0  0  0  0  0  0  0  0  0  0  0
   56.9499   23.9767   44.1449 H   0  0  0  0  0  0  0  0  0  0  0  0
   55.5268   22.9041   43.9189 H   0  0  0  0  0  0  0  0  0  0  0  0
   55.3160   24.6880   43.9189 H   0  0  0  0  0  0  0  0  0  0  0  0
   54.6887   23.3509   46.0817 H   0  0  0  0  0  0  0  0  0  0  0  0
   56.4734   23.2522   46.3330 H   0  0  0  0  0  0  0  0  0  0  0  0
   55.1380   27.5640   45.5790 H   0  0  0  0  0  0  0  0  0  0  0  0
   59.0725   30.1065   46.3875 H   0  0  0  0  0  0  0  0  0  0  0  0
   60.2734   31.6276   47.9559 H   0  0  0  0  0  0  0  0  0  0  0  0
   60.0208   35.3913   47.7150 H   0  0  0  0  0  0  0  0  0  0  0  0
   59.7179   34.2572   49.0818 H   0  0  0  0  0  0  0  0  0  0  0  0
   61.6985   33.8774   50.2630 H   0  0  0  0  0  0  0  0  0  0  0  0
   64.1084   33.2189   50.2701 H   0  0  0  0  0  0  0  0  0  0  0  0
   65.2660   32.9630   48.1590 H   0  0  0  0  0  0  0  0  0  0  0  0
   64.2108   33.3133   46.0093 H   0  0  0  0  0  0  0  0  0  0  0  0
   61.8029   33.9767   45.9300 H   0  0  0  0  0  0  0  0  0  0  0  0
   58.3518   35.0435   46.1093 H   0  0  0  0  0  0  0  0  0  0  0  0
   57.1529   33.5202   44.5435 H   0  0  0  0  0  0  0  0  0  0  0  0
  1  2  1  0
  2  3  1  0
  3  4  1  0
  4  5  2  0
  4  6  1  0
  6  7  1  0
  7  8  2  0
  7  9  1  0
  9 10  2  0
  9 11  1  0
 11 12  1  0
 12 13  2  0
 13 14  1  0
 14 15  2  0
 15 16  1  0
 16 17  1  0
 17 18  2  0
 18 19  1  0
 19 20  2  0
 20 21  1  0
 21 22  2  0
 15 23  1  0
 23 24  2  0
 24 12  1  0
 22 17  1  0
  1 25  1  0
  1 26  1  0
  1 27  1  0
  2 28  1  0
  2 29  1  0
  6 30  1  0
 13 31  1  0
 14 32  1  0
 16 33  1  0
 16 34  1  0
 18 35  1  0
 19 36  1  0
 20 37  1  0
 21 38  1  0
 22 39  1  0
 23 40  1  0
 24 41  1  0
M  CHG  2  11  -1  20   1
M  END
>  <UniqueID>  (60) 
57

>  <SMILES>  (60) 
CCOC(=O)NC(=O)C(=O)[N-]c1ccc(Cc2cc[nH+]cc2)cc1

>  <Energy>  (60) 
40.43934272610555

>  <Genealogy>  (60) 
CCOC(=O)NC(=O)C(=O)[N-]c1ccc(Cc2cc[nH+]cc2)cc1 (protonated)
CCOC(=O)NC(=O)C(=O)[N-]c1ccc(Cc2cc[nH+]cc2)cc1 (3D coordinates assigned)
CCOC(=O)NC(=O)C(=O)[N-]c1ccc(Cc2cc[nH+]cc2)cc1 (optimized conformer: 40.43934272610555 kcal/mol)

>  <smiles>  (60) 
CCOC(=O)NC(=O)C(=O)Nc1ccc(Cc2ccncc2)cc1

>  <score_type>  (60) 
oracle

>  <origin>  (60) 
adg

>  <m_score__min__energy>  (60) 
-8.6199999999999992

>  <m_primary>  (60) 
energy

$$$$
60:0
     RDKit          3D

 67 71  0  0  0  0  0  0  0  0999 V2000
   59.5615   33.4260   52.2795 H   0  0  0  0  0  0  0  0  0  0  0  0
   59.2760   32.3860   52.0630 C   0  0  0  0  0  0  0  0  0  0  0  0
   57.9510   31.9780   52.2350 C   0  0  0  0  0  0  0  0  0  0  0  0
   57.1995   32.6994   52.5883 H   0  0  0  0  0  0  0  0  0  0  0  0
   57.5700   30.6520   51.9600 C   0  0  0  0  0  0  0  0  0  0  0  0
   56.1540   30.2330   52.1410 C   0  0  0  0  0  0  0  0  0  0  0  0
   55.8850   29.0200   52.3650 O   0  0  0  0  0  0  0  0  0  0  0  0
   55.0200   31.2090   52.0630 C   0  0  0  0  0  0  0  0  0  0  0  0
   54.7015   31.4831   53.0796 H   0  0  0  0  0  0  0  0  0  0  0  0
   55.3488   32.1110   51.5261 H   0  0  0  0  0  0  0  0  0  0  0  0
   54.1770   30.7495   51.5261 H   0  0  0  0  0  0  0  0  0  0  0  0
   58.5510   29.7440   51.5130 C   0  0  0  0  0  0  0  0  0  0  0  0
   58.2689   28.7038   51.2931 H   0  0  0  0  0  0  0  0  0  0  0  0
   59.8850   30.1520   51.3450 C   0  0  0  0  0  0  0  0  0  0  0  0
   60.9160   29.1770   50.8330 C   0  0  0  0  0  0  0  0  0  0  0  0
   60.7443   28.1930   51.2937 H   0  0  0  0  0  0  0  0  0  0  0  0
   61.9181   29.5476   51.0947 H   0  0  0  0  0  0  0  0  0  0  0  0
   60.8210   29.0500   49.3650 N   0  0  0  0  0  0  0  0  0  0  0  0
   61.1380   30.1070   48.5560 C   0  0  0  0  0  0  0  0  0  0  0  0
   61.4790   31.2190   49.0430 O   0  0  0  0  0  0  0  0  0  0  0  0
   61.0780   29.9740   47.2150 N   0  0  0  0  0  0  0  0  0  0  0  0
   60.7050   28.8070   46.6370 C   0  0  0  0  0  0  0  0  0  0  0  0
   60.6060   28.7280   45.3390 N   0  0  0  0  0  0  0  0  0  0  0  0
   59.6760   29.4920   44.5050 C   0  0  0  0  0  0  0  0  0  0  0  0
   59.2319   28.8216   43.7544 H   0  0  0  0  0  0  0  0  0  0  0  0
   60.2315   30.3050   44.0147 H   0  0  0  0  0  0  0  0  0  0  0  0
   58.5550   30.1080   45.3540 C   0  0  0  0  0  0  0  0  0  0  0  0
   58.7598   29.9023   46.4150 H   0  0  0  0  0  0  0  0  0  0  0  0
   57.6030   29.6574   45.0367 H   0  0  0  0  0  0  0  0  0  0  0  0
   58.4510   31.5930   45.1600 C   0  0  0  0  0  0  0  0  0  0  0  0
   58.1740   32.2460   43.9620 C   0  0  0  0  0  0  0  0  0  0  0  0
   57.8744   31.7455   43.0294 H   0  0  0  0  0  0  0  0  0  0  0  0
   58.3250   33.5820   44.1060 N   0  0  0  0  0  0  0  0  0  0  0  0
   58.2100   34.3090   43.3650 H   0  0  0  0  0  0  0  0  0  0  0  0
   58.7090   33.7770   45.3790 C   0  0  0  0  0  0  0  0  0  0  0  0
   59.0670   34.9850   45.9750 C   0  0  0  0  0  0  0  0  0  0  0  0
   58.9971   35.9329   45.4213 H   0  0  0  0  0  0  0  0  0  0  0  0
   59.5200   34.9550   47.3050 C   0  0  0  0  0  0  0  0  0  0  0  0
   59.8099   35.8931   47.8009 H   0  0  0  0  0  0  0  0  0  0  0  0
   59.6080   33.7350   48.0140 C   0  0  0  0  0  0  0  0  0  0  0  0
   60.0700   33.7690   49.3380 O   0  0  0  0  0  0  0  0  0  0  0  0
   61.3960   34.1200   49.7170 C   0  0  0  0  0  0  0  0  0  0  0  0
   61.4706   34.1398   50.8143 H   0  0  0  0  0  0  0  0  0  0  0  0
   62.1010   33.3775   49.3148 H   0  0  0  0  0  0  0  0  0  0  0  0
   61.6413   35.1140   49.3148 H   0  0  0  0  0  0  0  0  0  0  0  0
   59.2380   32.5240   47.3770 C   0  0  0  0  0  0  0  0  0  0  0  0
   59.3004   31.5624   47.9075 H   0  0  0  0  0  0  0  0  0  0  0  0
   58.7920   32.5890   46.0560 C   0  0  0  0  0  0  0  0  0  0  0  0
   60.4000   27.7270   47.4240 N   0  0  0  0  0  0  0  0  0  0  0  0
   60.0330   26.4300   46.8150 C   0  0  0  0  0  0  0  0  0  0  0  0
   60.5744   26.3091   45.8651 H   0  0  0  0  0  0  0  0  0  0  0  0
   60.3030   25.6201   47.5086 H   0  0  0  0  0  0  0  0  0  0  0  0
   58.5490   26.3760   46.5520 C   0  0  0  0  0  0  0  0  0  0  0  0
   57.9250   27.3860   45.8010 C   0  0  0  0  0  0  0  0  0  0  0  0
   58.5275   28.1998   45.3712 H   0  0  0  0  0  0  0  0  0  0  0  0
   56.5410   27.3620   45.5970 C   0  0  0  0  0  0  0  0  0  0  0  0
   56.0588   28.1533   45.0043 H   0  0  0  0  0  0  0  0  0  0  0  0
   55.7710   26.3330   46.1460 C   0  0  0  0  0  0  0  0  0  0  0  0
   54.3960   26.3150   45.9500 O   0  0  0  0  0  0  0  0  0  0  0  0
   56.3840   25.3240   46.8940 C   0  0  0  0  0  0  0  0  0  0  0  0
   55.7775   24.5119   47.3213 H   0  0  0  0  0  0  0  0  0  0  0  0
   57.7660   25.3450   47.1000 C   0  0  0  0  0  0  0  0  0  0  0  0
   58.2433   24.5513   47.6935 H   0  0  0  0  0  0  0  0  0  0  0  0
   60.4600   27.8580   48.7910 C   0  0  0  0  0  0  0  0  0  0  0  0
   60.1750   26.8720   49.5280 O   0  0  0  0  0  0  0  0  0  0  0  0
   60.2380   31.4800   51.6180 C   0  0  0  0  0  0  0  0  0  0  0  0
   61.2785   31.8094   51.4807 H   0  0  0  0  0  0  0  0  0  0  0  0
  1  2  1  0
  2  3  2  0
  3  4  1  0
  3  5  1  0
  5  6  1  0
  6  7  2  0
  6  8  1  0
  8  9  1  0
  8 10  1  0
  8 11  1  0
  5 12  2  0
 12 13  1  0
 12 14  1  0
 14 15  1  0
 15 16  1  0
 15 17  1  0
 15 18  1  0
 18 19  1  0
 19 20  2  0
 19 21  1  0
 21 22  1  0
 22 23  2  0
 23 24  1  0
 24 25  1  0
 24 26  1  0
 24 27  1  0
 27 28  1  0
 27 29  1  0
 27 30  1  0
 30 31  2  0
 31 32  1  0
 31 33  1  0
 33 34  1  0
 33 35  1  0
 35 36  2  0
 36 37  1  0
 36 38  1  0
 38 39  1  0
 38 40  2  0
 40 41  1  0
 41 42  1  0
 42 43  1  0
 42 44  1  0
 42 45  1  0
 40 46  1  0
 46 47  1  0
 46 48  2  0
 22 49  1  0
 49 50  1  0
 50 51  1  0
 50 52  1  0
 50 53  1  0
 53 54  2  0
 54 55  1  0
 54 56  1  0
 56 57  1  0
 56 58  2  0
 58 59  1  0
 58 60  1  0
 60 61  1  0
 60 62  2  0
 62 63  1  0
 49 64  1  0
 64 65  2  0
 14 66  2  0
 66 67  1  0
 66  2  1  0
 64 18  1  0
 48 30  1  0
 62 53  1  0
 48 35  1  0
M  CHG  2  21  -1  59  -1
M  END
>  <UniqueID>  (61) 
58

>  <SMILES>  (61) 
COc1ccc2[nH]cc(CC/N=c3\[n-]c(=O)n(Cc4cccc(C(C)=O)c4)c(=O)n3Cc3ccc([O-])cc3)c2c1

>  <Energy>  (61) 
104.56820805440577

>  <Genealogy>  (61) 
COc1ccc2[nH]cc(CCN=c3[n-]c(=O)n(Cc4cccc(C(C)=O)c4)c(=O)n3Cc3ccc([O-])cc3)c2c1 (protonated)
COc1ccc2[nH]cc(CC/N=c3\[n-]c(=O)n(Cc4cccc(C(C)=O)c4)c(=O)n3Cc3ccc([O-])cc3)c2c1 (cis-trans isomerization)
COc1ccc2[nH]cc(CC/N=c3\[n-]c(=O)n(Cc4cccc(C(C)=O)c4)c(=O)n3Cc3ccc([O-])cc3)c2c1 (3D coordinates assigned)
COc1ccc2[nH]cc(CC/N=c3\[n-]c(=O)n(Cc4cccc(C(C)=O)c4)c(=O)n3Cc3ccc([O-])cc3)c2c1 (optimized conformer: 104.56820805440577 kcal/mol)

>  <smiles>  (61) 
COc1ccc2[nH]cc(CCN=c3[nH]c(=O)n(Cc4cccc(C(C)=O)c4)c(=O)n3Cc3ccc(O)cc3)c2c1

>  <score_type>  (61) 
oracle

>  <origin>  (61) 
adg

>  <m_score__min__energy>  (61) 
-13.48

>  <m_primary>  (61) 
energy

$$$$
61:0
     RDKit          3D

 25 26  0  0  0  0  0  0  0  0999 V2000
   57.7515   23.9845   44.9772 H   0  0  0  0  0  0  0  0  0  0  0  0
   57.1980   24.3420   45.8580 C   0  0  0  0  0  0  0  0  0  0  0  0
   57.6330   25.4640   46.4520 C   0  0  0  0  0  0  0  0  0  0  0  0
   58.0678   25.3686   47.4579 H   0  0  0  0  0  0  0  0  0  0  0  0
   57.5740   26.8220   45.8600 C   0  0  0  0  0  0  0  0  0  0  0  0
   58.7490   27.5370   45.5620 C   0  0  0  0  0  0  0  0  0  0  0  0
   59.7308   27.0789   45.7523 H   0  0  0  0  0  0  0  0  0  0  0  0
   58.6760   28.8250   45.0260 C   0  0  0  0  0  0  0  0  0  0  0  0
   59.5990   29.3711   44.7817 H   0  0  0  0  0  0  0  0  0  0  0  0
   57.4340   29.4200   44.8000 C   0  0  0  0  0  0  0  0  0  0  0  0
   57.3791   30.4315   44.3712 H   0  0  0  0  0  0  0  0  0  0  0  0
   56.2600   28.7320   45.1180 C   0  0  0  0  0  0  0  0  0  0  0  0
   55.0270   29.3360   44.9000 O   0  0  0  0  0  0  0  0  0  0  0  0
   56.3250   27.4380   45.6530 C   0  0  0  0  0  0  0  0  0  0  0  0
   55.1470   26.7660   45.9650 O   0  0  0  0  0  0  0  0  0  0  0  0
   56.0300   23.5510   46.3000 C   0  0  0  0  0  0  0  0  0  0  0  0
   56.1350   22.5320   47.2650 C   0  0  0  0  0  0  0  0  0  0  0  0
   57.3620   22.2150   47.8370 O   0  0  0  0  0  0  0  0  0  0  0  0
   55.0310   21.8290   47.6350 N   0  0  0  0  0  0  0  0  0  0  0  0
   53.8110   22.0630   47.0830 C   0  0  0  0  0  0  0  0  0  0  0  0
   52.8180   21.3890   47.4640 O   0  0  0  0  0  0  0  0  0  0  0  0
   53.6660   23.0450   46.0960 C   0  0  0  0  0  0  0  0  0  0  0  0
   51.9670   23.3940   45.2850 Br  0  0  0  0  0  0  0  0  0  0  0  0
   54.7850   23.7800   45.6990 C   0  0  0  0  0  0  0  0  0  0  0  0
   54.6888   24.5418   44.9113 H   0  0  0  0  0  0  0  0  0  0  0  0
  1  2  1  0
  2  3  2  0
  3  4  1  0
  3  5  1  0
  5  6  2  0
  6  7  1  0
  6  8  1  0
  8  9  1  0
  8 10  2  0
 10 11  1  0
 10 12  1  0
 12 13  1  0
 12 14  2  0
 14 15  1  0
  2 16  1  0
 16 17  2  0
 17 18  1  0
 17 19  1  0
 19 20  1  0
 20 21  2  0
 20 22  1  0
 22 23  1  0
 22 24  2  0
 24 25  1  0
 14  5  1  0
 24 16  1  0
M  CHG  4  13  -1  15  -1  18  -1  19  -1
M  END
>  <UniqueID>  (62) 
59

>  <SMILES>  (62) 
O=c1[n-]c([O-])c(/C=C\c2cccc([O-])c2[O-])cc1Br

>  <Energy>  (62) 
39.26168108336263

>  <Genealogy>  (62) 
O=c1[n-]c([O-])c(C=Cc2cccc([O-])c2[O-])cc1Br (protonated)
O=c1[n-]c([O-])c(/C=C\c2cccc([O-])c2[O-])cc1Br (cis-trans isomerization)
O=c1[n-]c([O-])c(/C=C\c2cccc([O-])c2[O-])cc1Br (3D coordinates assigned)
O=c1[n-]c([O-])c(/C=C\c2cccc([O-])c2[O-])cc1Br (optimized conformer: 39.26168108336263 kcal/mol)

>  <smiles>  (62) 
O=c1[nH]c(O)c(C=Cc2cccc(O)c2O)cc1Br

>  <score_type>  (62) 
oracle

>  <origin>  (62) 
adg

>  <m_score__min__energy>  (62) 
-16.91

>  <m_primary>  (62) 
energy

$$$$
62:0
     RDKit          3D

 25 27  0  0  0  0  0  0  0  0999 V2000
   56.8240   30.6310   44.3520 O   0  0  0  0  0  0  0  0  0  0  0  0
   56.5430   29.5490   44.9370 C   0  0  0  0  0  0  0  0  0  0  0  0
   55.2610   29.0570   44.7420 O   0  0  0  0  0  0  0  0  0  0  0  0
   57.5180   28.8550   45.7710 C   0  0  0  0  0  0  0  0  0  0  0  0
   58.6290   29.4490   46.2450 N   0  0  0  0  0  0  0  0  0  0  0  0
   59.5080   28.7840   47.0110 N   0  0  0  0  0  0  0  0  0  0  0  0
   59.3230   27.4930   47.3430 C   0  0  0  0  0  0  0  0  0  0  0  0
   60.4180   26.6990   48.2850 S   0  0  0  0  0  0  0  0  0  0  0  0
   58.1850   26.8510   46.8690 C   0  0  0  0  0  0  0  0  0  0  0  0
   57.9890   25.5350   47.2040 C   0  0  0  0  0  0  0  0  0  0  0  0
   56.8510   24.9140   46.7240 C   0  0  0  0  0  0  0  0  0  0  0  0
   56.5530   23.6000   46.9950 C   0  0  0  0  0  0  0  0  0  0  0  0
   57.3570   22.9470   47.7110 O   0  0  0  0  0  0  0  0  0  0  0  0
   55.4330   23.0430   46.5040 N   0  0  0  0  0  0  0  0  0  0  0  0
   54.5520   23.7200   45.7320 C   0  0  0  0  0  0  0  0  0  0  0  0
   53.5150   23.1550   45.2940 O   0  0  0  0  0  0  0  0  0  0  0  0
   54.8560   25.0050   45.4750 N   0  0  0  0  0  0  0  0  0  0  0  0
   55.9570   25.6170   45.9350 C   0  0  0  0  0  0  0  0  0  0  0  0
   56.1870   26.9140   45.6280 N   0  0  0  0  0  0  0  0  0  0  0  0
   57.2890   27.5340   46.0870 C   0  0  0  0  0  0  0  0  0  0  0  0
   55.1290   28.0560   44.8680 H   0  0  0  0  0  0  0  0  0  0  0  0
   60.3520   29.3050   47.3450 H   0  0  0  0  0  0  0  0  0  0  0  0
   58.7116   24.9934   47.8321 H   0  0  0  0  0  0  0  0  0  0  0  0
   55.2150   22.0580   46.7090 H   0  0  0  0  0  0  0  0  0  0  0  0
   54.2080   25.5710   44.8830 H   0  0  0  0  0  0  0  0  0  0  0  0
  1  2  2  0
  2  3  1  0
  2  4  1  0
  4  5  2  0
  5  6  1  0
  6  7  1  0
  7  8  2  0
  7  9  1  0
  9 10  2  0
 10 11  1  0
 11 12  1  0
 12 13  2  0
 12 14  1  0
 14 15  1  0
 15 16  2  0
 15 17  1  0
 17 18  1  0
 18 19  1  0
 19 20  2  0
 20  4  1  0
 20  9  1  0
 18 11  2  0
  3 21  1  0
  6 22  1  0
 10 23  1  0
 14 24  1  0
 17 25  1  0
M  END
>  <smiles>  (63) 
O=C(O)c1n[nH]c(=S)c2cc3c(=O)[nH]c(=O)[nH]c3nc12

>  <score_type>  (63) 
oracle

>  <origin>  (63) 
adg

>  <m_score__min__energy>  (63) 
-7.6600000000000001

>  <m_primary>  (63) 
energy

$$$$
63:0
     RDKit          3D

 26 27  0  0  0  0  0  0  0  0999 V2000
   53.7150   25.9540   46.3690 H   0  0  0  0  0  0  0  0  0  0  0  0
   54.5850   26.3080   45.9930 O   0  0  0  0  0  0  0  0  0  0  0  0
   55.8180   25.7580   46.3390 C   0  0  0  0  0  0  0  0  0  0  0  0
   55.8920   24.6620   47.1400 N   0  0  0  0  0  0  0  0  0  0  0  0
   57.1740   24.3030   47.3580 C   0  0  0  0  0  0  0  0  0  0  0  0
   57.4990   23.3180   48.0700 O   0  0  0  0  0  0  0  0  0  0  0  0
   58.2640   25.3160   46.5850 S   0  0  0  0  0  0  0  0  0  0  0  0
   57.0470   26.2640   45.9010 C   0  0  0  0  0  0  0  0  0  0  0  0
   57.2350   27.5110   45.1310 C   0  0  0  0  0  0  0  0  0  0  0  0
   56.3967   28.2230   45.1167 H   0  0  0  0  0  0  0  0  0  0  0  0
   58.3380   27.8510   44.4480 C   0  0  0  0  0  0  0  0  0  0  0  0
   58.5179   27.3323   43.4948 H   0  0  0  0  0  0  0  0  0  0  0  0
   59.3520   28.8810   44.8720 C   0  0  0  0  0  0  0  0  0  0  0  0
   59.7866   28.5739   45.8347 H   0  0  0  0  0  0  0  0  0  0  0  0
   60.1187   28.9414   44.0855 H   0  0  0  0  0  0  0  0  0  0  0  0
   58.7440   30.2540   45.0300 C   0  0  0  0  0  0  0  0  0  0  0  0
   57.9000   30.7900   44.0390 C   0  0  0  0  0  0  0  0  0  0  0  0
   57.6504   30.1902   43.1514 H   0  0  0  0  0  0  0  0  0  0  0  0
   57.3770   32.0790   44.1750 C   0  0  0  0  0  0  0  0  0  0  0  0
   56.7041   32.4830   43.4043 H   0  0  0  0  0  0  0  0  0  0  0  0
   57.7080   32.8550   45.2890 C   0  0  0  0  0  0  0  0  0  0  0  0
   57.2898   33.8665   45.3988 H   0  0  0  0  0  0  0  0  0  0  0  0
   58.5700   32.3460   46.2630 C   0  0  0  0  0  0  0  0  0  0  0  0
   58.8355   32.9596   47.1365 H   0  0  0  0  0  0  0  0  0  0  0  0
   59.0960   31.0570   46.1290 C   0  0  0  0  0  0  0  0  0  0  0  0
   59.7901   30.6687   46.8889 H   0  0  0  0  0  0  0  0  0  0  0  0
  1  2  1  0
  2  3  1  0
  3  4  1  0
  4  5  1  0
  5  6  2  0
  5  7  1  0
  7  8  1  0
  8  9  1  0
  9 10  1  0
  9 11  2  0
 11 12  1  0
 11 13  1  0
 13 14  1  0
 13 15  1  0
 13 16  1  0
 16 17  2  0
 17 18  1  0
 17 19  1  0
 19 20  1  0
 19 21  2  0
 21 22  1  0
 21 23  1  0
 23 24  1  0
 23 25  2  0
 25 26  1  0
  8  3  2  0
 25 16  1  0
M  CHG  1   4  -1
M  END
>  <UniqueID>  (64) 
60

>  <SMILES>  (64) 
O=c1[n-]c(O)c(/C=C\Cc2ccccc2)s1

>  <Energy>  (64) 
61.69289098620038

>  <Genealogy>  (64) 
O=c1[n-]c(O)c(C=CCc2ccccc2)s1 (protonated)
O=c1[n-]c(O)c(/C=C\Cc2ccccc2)s1 (cis-trans isomerization)
O=c1[n-]c(O)c(/C=C\Cc2ccccc2)s1 (3D coordinates assigned)
O=c1[n-]c(O)c(/C=C\Cc2ccccc2)s1 (optimized conformer: 61.69289098620038 kcal/mol)

>  <smiles>  (64) 
O=c1[nH]c(O)c(C=CCc2ccccc2)s1

>  <score_type>  (64) 
oracle

>  <origin>  (64) 
adg

>  <m_score__min__energy>  (64) 
-9.5600000000000005

>  <m_primary>  (64) 
energy

$$$$
64:0
     RDKit          3D

 55 57  0  0  1  0  0  0  0  0999 V2000
   57.4680   34.0340   45.4860 C   0  0  0  0  0  0  0  0  0  0  0  0
   57.8790   32.7720   46.1960 C   0  0  0  0  0  0  0  0  0  0  0  0
   57.9560   32.8630   47.5800 O   0  0  0  0  0  0  0  0  0  0  0  0
   59.0890   33.0720   48.3440 C   0  0  0  0  0  0  0  0  0  0  0  0
   60.2320   33.5260   47.7370 C   0  0  0  0  0  0  0  0  0  0  0  0
   61.3880   33.7500   48.4520 C   0  0  0  0  0  0  0  0  0  0  0  0
   62.5250   34.2030   47.8050 O   0  0  0  0  0  0  0  0  0  0  0  0
   63.3660   33.2830   47.1660 C   0  0  0  0  0  0  0  0  0  0  0  0
   61.3680   33.5040   49.8380 C   0  0  0  0  0  0  0  0  0  0  0  0
   62.5360   33.6500   50.5700 N   0  0  0  0  0  0  0  0  0  0  0  0
   63.5770   32.9630   50.6240 C   0  0  0  0  0  0  0  0  0  0  0  0
   64.7630   33.6540   50.6620 N   0  0  0  0  0  0  0  0  0  0  0  0
   65.9450   33.0400   50.7960 C   0  0  0  0  0  0  0  0  0  0  0  0
   65.9530   31.6770   50.8990 C   0  0  0  0  0  0  0  0  0  0  0  0
   64.7740   30.9720   50.8600 C   0  0  0  0  0  0  0  0  0  0  0  0
   63.5270   31.6180   50.7160 C   0  0  0  0  0  0  0  0  0  0  0  0
   62.3920   30.7370   50.6890 C   0  0  0  0  0  0  0  0  0  0  0  0
   61.6990   30.2410   51.7570 C   0  0  0  0  0  0  0  0  0  0  0  0
   60.5320   29.4830   51.6210 C   0  0  0  0  0  0  0  0  0  0  0  0
   59.8930   29.0250   52.6300 N   0  0  0  0  0  0  0  0  0  0  0  0
   60.1260   29.2720   50.3590 N   0  0  0  0  0  0  0  0  0  0  0  0
   60.7580   29.7310   49.2720 C   0  0  0  0  0  0  0  0  0  0  0  0
   60.1820   29.4120   47.9390 C   0  0  0  0  0  0  0  0  0  0  0  0
   61.8680   30.4480   49.4580 N   0  0  0  0  0  0  0  0  0  0  0  0
   60.1790   33.0410   50.4220 C   0  0  0  0  0  0  0  0  0  0  0  0
   59.0370   32.8150   49.7320 C   0  0  0  0  0  0  0  0  0  0  0  0
   57.8030   32.3430   50.2150 N   0  0  0  0  0  0  0  0  0  0  0  0
   57.4760   31.3540   51.5290 S   0  0  0  0  0  0  0  0  0  0  0  0
   55.9600   31.5430   52.3690 C   0  0  0  0  0  0  0  0  0  0  0  0
   58.5740   31.5630   52.5810 O   0  0  0  0  0  0  0  0  0  0  0  0
   57.6620   29.8650   51.1640 O   0  0  0  0  0  0  0  0  0  0  0  0
   57.2164   34.8066   46.2275 H   0  0  0  0  0  0  0  0  0  0  0  0
   58.2976   34.3870   44.8558 H   0  0  0  0  0  0  0  0  0  0  0  0
   56.5896   33.8307   44.8558 H   0  0  0  0  0  0  0  0  0  0  0  0
   57.1467   31.9896   45.9479 H   0  0  0  0  0  0  0  0  0  0  0  0
   58.8994   32.5495   45.8505 H   0  0  0  0  0  0  0  0  0  0  0  0
   60.2255   33.7158   46.6535 H   0  0  0  0  0  0  0  0  0  0  0  0
   63.9054   32.6930   47.9216 H   0  0  0  0  0  0  0  0  0  0  0  0
   62.7636   32.6108   46.5373 H   0  0  0  0  0  0  0  0  0  0  0  0
   64.0895   33.8228   46.5373 H   0  0  0  0  0  0  0  0  0  0  0  0
   64.7820   34.6960   50.5850 H   0  0  0  0  0  0  0  0  0  0  0  0
   66.8822   33.6154   50.8224 H   0  0  0  0  0  0  0  0  0  0  0  0
   66.9073   31.1421   51.0136 H   0  0  0  0  0  0  0  0  0  0  0  0
   64.8027   29.8755   50.9432 H   0  0  0  0  0  0  0  0  0  0  0  0
   62.0762   30.4473   52.7695 H   0  0  0  0  0  0  0  0  0  0  0  0
   58.9750   29.4730   52.8550 H   0  0  0  0  0  0  0  0  0  0  0  0
   59.2400   28.6990   50.2350 H   0  0  0  0  0  0  0  0  0  0  0  0
   59.2265   28.8828   48.0695 H   0  0  0  0  0  0  0  0  0  0  0  0
   60.0115   30.3443   47.3806 H   0  0  0  0  0  0  0  0  0  0  0  0
   60.8818   28.7729   47.3806 H   0  0  0  0  0  0  0  0  0  0  0  0
   60.1750   32.8504   51.5054 H   0  0  0  0  0  0  0  0  0  0  0  0
   56.9530   32.6810   49.6310 H   0  0  0  0  0  0  0  0  0  0  0  0
   56.1370   31.5209   53.4544 H   0  0  0  0  0  0  0  0  0  0  0  0
   55.5044   32.5049   52.0913 H   0  0  0  0  0  0  0  0  0  0  0  0
   55.2821   30.7224   52.0913 H   0  0  0  0  0  0  0  0  0  0  0  0
  1  2  1  0
  2  3  1  0
  3  4  1  0
  4  5  2  0
  5  6  1  0
  6  7  1  0
  7  8  1  0
  6  9  2  0
  9 10  1  0
 10 11  2  0
 11 12  1  0
 12 13  1  0
 13 14  2  0
 14 15  1  0
 15 16  2  0
 16 17  1  0
 17 18  2  0
 18 19  1  0
 19 20  2  3
 19 21  1  0
 21 22  1  0
 22 23  1  0
 22 24  2  0
  9 25  1  0
 25 26  2  0
 26 27  1  0
 27 28  1  0
 28 29  1  0
 28 30  2  0
 28 31  2  0
 26  4  1  0
 16 11  1  0
 24 17  1  0
  1 32  1  0
  1 33  1  0
  1 34  1  0
  2 35  1  0
  2 36  1  0
  5 37  1  0
  8 38  1  0
  8 39  1  0
  8 40  1  0
 12 41  1  0
 13 42  1  0
 14 43  1  0
 15 44  1  0
 18 45  1  0
 20 46  1  0
 21 47  1  0
 23 48  1  0
 23 49  1  0
 23 50  1  0
 25 51  1  0
 27 52  1  0
 29 53  1  0
 29 54  1  0
 29 55  1  0
M  END
>  <smiles>  (65) 
CCOc1cc(OC)c(N=c2[nH]cccc2-c2cc(=N)[nH]c(C)n2)cc1NS(C)(=O)=O

>  <score_type>  (65) 
oracle

>  <origin>  (65) 
adg

>  <m_score__min__energy>  (65) 
-7.8600000000000003

>  <m_primary>  (65) 
energy

$$$$
65:0
     RDKit          3D

 57 60  0  0  0  0  0  0  0  0999 V2000
   63.1580   33.9070   47.7150 C   0  0  0  0  0  0  0  0  0  0  0  0
   62.4050   32.7900   48.3750 C   0  0  0  0  0  0  0  0  0  0  0  0
   61.0050   32.7340   48.2930 C   0  0  0  0  0  0  0  0  0  0  0  0
   60.3080   31.6700   48.8760 C   0  0  0  0  0  0  0  0  0  0  0  0
   61.0030   30.6510   49.5390 C   0  0  0  0  0  0  0  0  0  0  0  0
   60.1310   29.2910   50.2390 S   0  0  0  0  0  0  0  0  0  0  0  0
   60.3190   29.2900   51.7310 O   0  0  0  0  0  0  0  0  0  0  0  0
   58.6610   29.4060   49.9460 O   0  0  0  0  0  0  0  0  0  0  0  0
   60.7580   27.8000   49.5490 C   0  0  0  0  0  0  0  0  0  0  0  0
   61.2210   26.7680   50.4440 C   0  0  0  0  0  0  0  0  0  0  0  0
   61.5920   25.9390   51.1610 N   0  0  0  0  0  0  0  0  0  0  0  0
   60.7570   27.6410   48.2180 C   0  0  0  0  0  0  0  0  0  0  0  0
   59.6830   28.1300   47.3300 C   0  0  0  0  0  0  0  0  0  0  0  0
   59.7730   29.1950   46.4350 C   0  0  0  0  0  0  0  0  0  0  0  0
   60.9980   30.0440   46.2450 C   0  0  0  0  0  0  0  0  0  0  0  0
   58.6410   29.2810   45.6830 N   0  0  0  0  0  0  0  0  0  0  0  0
   58.4160   30.1670   44.5310 C   0  0  0  0  0  0  0  0  0  0  0  0
   57.3470   31.2200   44.8480 C   0  0  0  0  0  0  0  0  0  0  0  0
   57.9630   32.5090   45.1610 N   0  0  0  0  0  0  0  0  0  0  0  0
   58.5630   33.3960   44.1810 C   0  0  0  0  0  0  0  0  0  0  0  0
   58.9580   34.6690   44.9550 C   0  0  0  0  0  0  0  0  0  0  0  0
   58.8220   34.3500   46.4530 C   0  0  0  0  0  0  0  0  0  0  0  0
   58.1490   33.0360   46.4590 C   0  0  0  0  0  0  0  0  0  0  0  0
   57.7860   32.4370   47.5070 O   0  0  0  0  0  0  0  0  0  0  0  0
   57.8440   28.2670   46.0970 C   0  0  0  0  0  0  0  0  0  0  0  0
   56.5960   27.8850   45.5890 C   0  0  0  0  0  0  0  0  0  0  0  0
   55.9920   26.7260   46.1050 C   0  0  0  0  0  0  0  0  0  0  0  0
   54.7560   26.3160   45.6210 O   0  0  0  0  0  0  0  0  0  0  0  0
   56.6390   25.9700   47.1050 C   0  0  0  0  0  0  0  0  0  0  0  0
   57.8900   26.3700   47.6010 C   0  0  0  0  0  0  0  0  0  0  0  0
   58.4560   27.5410   47.0910 C   0  0  0  0  0  0  0  0  0  0  0  0
   62.4030   30.6910   49.5990 C   0  0  0  0  0  0  0  0  0  0  0  0
   63.1010   31.7540   49.0170 C   0  0  0  0  0  0  0  0  0  0  0  0
   63.5971   34.5584   48.4850 H   0  0  0  0  0  0  0  0  0  0  0  0
   63.9593   33.4888   47.0880 H   0  0  0  0  0  0  0  0  0  0  0  0
   62.4698   34.4929   47.0880 H   0  0  0  0  0  0  0  0  0  0  0  0
   60.4541   33.5289   47.7689 H   0  0  0  0  0  0  0  0  0  0  0  0
   59.2104   31.6339   48.8133 H   0  0  0  0  0  0  0  0  0  0  0  0
   61.6072   27.1147   47.7596 H   0  0  0  0  0  0  0  0  0  0  0  0
   61.4047   30.3259   47.2274 H   0  0  0  0  0  0  0  0  0  0  0  0
   61.7547   29.4756   45.6842 H   0  0  0  0  0  0  0  0  0  0  0  0
   60.7314   30.9520   45.6842 H   0  0  0  0  0  0  0  0  0  0  0  0
   59.3582   30.6755   44.2789 H   0  0  0  0  0  0  0  0  0  0  0  0
   58.0679   29.5583   43.6835 H   0  0  0  0  0  0  0  0  0  0  0  0
   56.6875   31.3381   43.9756 H   0  0  0  0  0  0  0  0  0  0  0  0
   56.7700   30.8839   45.7222 H   0  0  0  0  0  0  0  0  0  0  0  0
   59.4524   32.9278   43.7340 H   0  0  0  0  0  0  0  0  0  0  0  0
   57.8680   33.6209   43.3586 H   0  0  0  0  0  0  0  0  0  0  0  0
   59.9967   34.9453   44.7212 H   0  0  0  0  0  0  0  0  0  0  0  0
   58.3108   35.5132   44.6749 H   0  0  0  0  0  0  0  0  0  0  0  0
   59.8092   34.2896   46.9345 H   0  0  0  0  0  0  0  0  0  0  0  0
   58.2682   35.1206   47.0093 H   0  0  0  0  0  0  0  0  0  0  0  0
   56.1010   28.4776   44.8055 H   0  0  0  0  0  0  0  0  0  0  0  0
   56.1602   25.0613   47.4987 H   0  0  0  0  0  0  0  0  0  0  0  0
   58.4096   25.7784   48.3691 H   0  0  0  0  0  0  0  0  0  0  0  0
   62.9538   29.8844   50.1050 H   0  0  0  0  0  0  0  0  0  0  0  0
   64.1998   31.7782   49.0626 H   0  0  0  0  0  0  0  0  0  0  0  0
  1  2  1  0
  2  3  2  0
  3  4  1  0
  4  5  2  0
  5  6  1  0
  6  7  2  0
  6  8  2  0
  6  9  1  0
  9 10  1  0
 10 11  3  0
  9 12  2  3
 12 13  1  0
 13 14  2  0
 14 15  1  0
 14 16  1  0
 16 17  1  0
 17 18  1  0
 18 19  1  0
 19 20  1  0
 20 21  1  0
 21 22  1  0
 22 23  1  0
 23 24  2  0
 16 25  1  0
 25 26  2  0
 26 27  1  0
 27 28  1  0
 27 29  2  0
 29 30  1  0
 30 31  2  0
  5 32  1  0
 32 33  2  0
 33  2  1  0
 31 13  1  0
 23 19  1  0
 31 25  1  0
  1 34  1  0
  1 35  1  0
  1 36  1  0
  3 37  1  0
  4 38  1  0
 12 39  1  0
 15 40  1  0
 15 41  1  0
 15 42  1  0
 17 43  1  0
 17 44  1  0
 18 45  1  0
 18 46  1  0
 20 47  1  0
 20 48  1  0
 21 49  1  0
 21 50  1  0
 22 51  1  0
 22 52  1  0
 26 53  1  0
 29 54  1  0
 30 55  1  0
 32 56  1  0
 33 57  1  0
M  CHG  1  28  -1
M  END
>  <UniqueID>  (66) 
61

>  <SMILES>  (66) 
Cc1ccc(S(=O)(=O)C(C#N)=Cc2c(C)n(CCN3CCCC3=O)c3cc([O-])ccc23)cc1

>  <Energy>  (66) 
97.8694074984341

>  <Genealogy>  (66) 
Cc1ccc(S(=O)(=O)C(C#N)=Cc2c(C)n(CCN3CCCC3=O)c3cc([O-])ccc23)cc1 (protonated)
Cc1ccc(S(=O)(=O)C(C#N)=Cc2c(C)n(CCN3CCCC3=O)c3cc([O-])ccc23)cc1 (3D coordinates assigned)
Cc1ccc(S(=O)(=O)C(C#N)=Cc2c(C)n(CCN3CCCC3=O)c3cc([O-])ccc23)cc1 (nonaromatic ring conformer: 97.8694074984341 kcal/mol)

>  <smiles>  (66) 
Cc1ccc(S(=O)(=O)C(C#N)=Cc2c(C)n(CCN3CCCC3=O)c3cc(O)ccc23)cc1

>  <score_type>  (66) 
oracle

>  <origin>  (66) 
adg

>  <m_score__min__energy>  (66) 
-12.26

>  <m_primary>  (66) 
energy

$$$$
66:0
     RDKit          3D

 42 43  0  0  0  0  0  0  0  0999 V2000
   58.8950   29.8090   49.5850 C   0  0  0  0  0  0  0  0  0  0  0  0
   58.9450   28.9380   48.3400 C   0  0  0  0  0  0  0  0  0  0  0  0
   59.9700   29.4100   47.4720 O   0  0  0  0  0  0  0  0  0  0  0  0
   60.5230   30.6880   47.5800 C   0  0  0  0  0  0  0  0  0  0  0  0
   61.5090   30.8880   48.3400 O   0  0  0  0  0  0  0  0  0  0  0  0
   59.9550   31.8090   46.7970 C   0  0  0  0  0  0  0  0  0  0  0  0
   58.9780   31.6470   45.8060 C   0  0  0  0  0  0  0  0  0  0  0  0
   58.4490   30.4110   45.3110 N   0  0  0  0  0  0  0  0  0  0  0  0
   57.1320   30.2990   44.7550 C   0  0  0  0  0  0  0  0  0  0  0  0
   56.3530   31.2910   44.7470 O   0  0  0  0  0  0  0  0  0  0  0  0
   56.6420   28.9770   44.2530 C   0  0  0  0  0  0  0  0  0  0  0  0
   57.1990   27.8960   45.0640 N   0  0  0  0  0  0  0  0  0  0  0  0
   56.5290   27.0020   45.8180 C   0  0  0  0  0  0  0  0  0  0  0  0
   55.1500   26.9960   45.9990 O   0  0  0  0  0  0  0  0  0  0  0  0
   57.4160   26.1070   46.3790 C   0  0  0  0  0  0  0  0  0  0  0  0
   58.6530   26.4350   45.9510 N   0  0  0  0  0  0  0  0  0  0  0  0
   59.9080   25.8050   46.3450 C   0  0  0  0  0  0  0  0  0  0  0  0
   58.4910   27.5210   45.1660 C   0  0  0  0  0  0  0  0  0  0  0  0
   59.4420   28.1190   44.5930 O   0  0  0  0  0  0  0  0  0  0  0  0
   58.4990   33.1490   45.2340 S   0  0  0  0  0  0  0  0  0  0  0  0
   59.5430   34.0420   46.1990 C   0  0  0  0  0  0  0  0  0  0  0  0
   59.6170   35.5370   46.1910 C   0  0  0  0  0  0  0  0  0  0  0  0
   60.2730   33.1720   47.0190 C   0  0  0  0  0  0  0  0  0  0  0  0
   61.2680   33.6430   48.0440 C   0  0  0  0  0  0  0  0  0  0  0  0
   58.9316   29.1712   50.4804 H   0  0  0  0  0  0  0  0  0  0  0  0
   59.7553   30.4945   49.5877 H   0  0  0  0  0  0  0  0  0  0  0  0
   57.9619   30.3916   49.5877 H   0  0  0  0  0  0  0  0  0  0  0  0
   59.1585   27.8981   48.6282 H   0  0  0  0  0  0  0  0  0  0  0  0
   57.9758   28.9829   47.8217 H   0  0  0  0  0  0  0  0  0  0  0  0
   58.9600   29.5340   45.5530 H   0  0  0  0  0  0  0  0  0  0  0  0
   55.5440   28.9488   44.3132 H   0  0  0  0  0  0  0  0  0  0  0  0
   56.9621   28.8464   43.2087 H   0  0  0  0  0  0  0  0  0  0  0  0
   57.1611   25.2761   47.0533 H   0  0  0  0  0  0  0  0  0  0  0  0
   59.9731   25.7723   47.4426 H   0  0  0  0  0  0  0  0  0  0  0  0
   59.9458   24.7811   45.9448 H   0  0  0  0  0  0  0  0  0  0  0  0
   60.7516   26.3865   45.9448 H   0  0  0  0  0  0  0  0  0  0  0  0
   59.6354   35.9087   47.2261 H   0  0  0  0  0  0  0  0  0  0  0  0
   60.5320   35.8560   45.6705 H   0  0  0  0  0  0  0  0  0  0  0  0
   58.7379   35.9448   45.6705 H   0  0  0  0  0  0  0  0  0  0  0  0
   60.8718   33.4554   49.0529 H   0  0  0  0  0  0  0  0  0  0  0  0
   62.2142   33.0972   47.9144 H   0  0  0  0  0  0  0  0  0  0  0  0
   61.4457   34.7208   47.9144 H   0  0  0  0  0  0  0  0  0  0  0  0
  1  2  1  0
  2  3  1  0
  3  4  1  0
  4  5  2  0
  4  6  1  0
  6  7  2  0
  7  8  1  0
  8  9  1  0
  9 10  2  0
  9 11  1  0
 11 12  1  0
 12 13  1  0
 13 14  1  0
 13 15  2  0
 15 16  1  0
 16 17  1  0
 16 18  1  0
 18 19  2  0
  7 20  1  0
 20 21  1  0
 21 22  1  0
 21 23  2  0
 23 24  1  0
 23  6  1  0
 18 12  1  0
  1 25  1  0
  1 26  1  0
  1 27  1  0
  2 28  1  0
  2 29  1  0
  8 30  1  0
 11 31  1  0
 11 32  1  0
 15 33  1  0
 17 34  1  0
 17 35  1  0
 17 36  1  0
 22 37  1  0
 22 38  1  0
 22 39  1  0
 24 40  1  0
 24 41  1  0
 24 42  1  0
M  CHG  1  14  -1
M  END
>  <UniqueID>  (67) 
62

>  <SMILES>  (67) 
CCOC(=O)c1c(NC(=O)Cn2c([O-])cn(C)c2=O)sc(C)c1C

>  <Energy>  (67) 
99.98496731406134

>  <Genealogy>  (67) 
CCOC(=O)c1c(NC(=O)Cn2c([O-])cn(C)c2=O)sc(C)c1C (protonated)
CCOC(=O)c1c(NC(=O)Cn2c([O-])cn(C)c2=O)sc(C)c1C (3D coordinates assigned)
CCOC(=O)c1c(NC(=O)Cn2c([O-])cn(C)c2=O)sc(C)c1C (optimized conformer: 99.98496731406134 kcal/mol)

>  <smiles>  (67) 
CCOC(=O)c1c(NC(=O)Cn2c(O)cn(C)c2=O)sc(C)c1C

>  <score_type>  (67) 
oracle

>  <origin>  (67) 
adg

>  <m_score__min__energy>  (67) 
-10.48

>  <m_primary>  (67) 
energy

$$$$
67:0
     RDKit          3D

 37 38  0  0  0  0  0  0  0  0999 V2000
   50.2680   23.6980   45.6740 C   0  0  0  0  0  0  0  0  0  0  0  0
   51.8820   23.3440   45.0100 S   0  0  0  0  0  0  0  0  0  0  0  0
   51.7740   23.3130   43.5110 O   0  0  0  0  0  0  0  0  0  0  0  0
   52.3670   22.0040   45.4900 O   0  0  0  0  0  0  0  0  0  0  0  0
   53.0070   24.5860   45.4580 N   0  0  0  0  0  0  0  0  0  0  0  0
   54.4280   24.5470   45.2620 C   0  0  0  0  0  0  0  0  0  0  0  0
   54.9760   23.3970   44.6810 C   0  0  0  0  0  0  0  0  0  0  0  0
   56.3470   23.3050   44.4410 C   0  0  0  0  0  0  0  0  0  0  0  0
   57.1900   24.3600   44.7920 C   0  0  0  0  0  0  0  0  0  0  0  0
   56.6720   25.5060   45.4140 C   0  0  0  0  0  0  0  0  0  0  0  0
   57.6120   26.6330   45.7650 C   0  0  0  0  0  0  0  0  0  0  0  0
   56.9260   27.9160   45.6380 N   0  0  0  0  0  0  0  0  0  0  0  0
   57.5620   29.0800   45.0970 C   0  0  0  0  0  0  0  0  0  0  0  0
   58.6930   28.9860   44.5460 O   0  0  0  0  0  0  0  0  0  0  0  0
   56.8790   30.3370   45.1400 N   0  0  0  0  0  0  0  0  0  0  0  0
   57.4960   31.6310   45.2320 C   0  0  0  0  0  0  0  0  0  0  0  0
   57.7640   32.2300   46.4780 C   0  0  0  0  0  0  0  0  0  0  0  0
   58.3440   33.5000   46.5390 C   0  0  0  0  0  0  0  0  0  0  0  0
   58.6480   34.1890   45.3640 C   0  0  0  0  0  0  0  0  0  0  0  0
   58.3640   33.6150   44.1230 C   0  0  0  0  0  0  0  0  0  0  0  0
   57.7810   32.3430   44.0530 C   0  0  0  0  0  0  0  0  0  0  0  0
   57.4320   31.6500   42.4760 Cl  0  0  0  0  0  0  0  0  0  0  0  0
   55.2850   25.5960   45.6620 C   0  0  0  0  0  0  0  0  0  0  0  0
   54.7770   26.7020   46.3320 O   0  0  0  0  0  0  0  0  0  0  0  0
   50.3134   23.6880   46.7730 H   0  0  0  0  0  0  0  0  0  0  0  0
   49.9392   24.6896   45.3296 H   0  0  0  0  0  0  0  0  0  0  0  0
   49.5544   22.9350   45.3296 H   0  0  0  0  0  0  0  0  0  0  0  0
   54.3186   22.5574   44.4110 H   0  0  0  0  0  0  0  0  0  0  0  0
   56.7639   22.4001   43.9747 H   0  0  0  0  0  0  0  0  0  0  0  0
   58.2672   24.2928   44.5798 H   0  0  0  0  0  0  0  0  0  0  0  0
   57.9600   26.5074   46.8009 H   0  0  0  0  0  0  0  0  0  0  0  0
   58.4702   26.6137   45.0772 H   0  0  0  0  0  0  0  0  0  0  0  0
   55.9500   28.0010   46.0000 H   0  0  0  0  0  0  0  0  0  0  0  0
   57.5158   31.6960   47.4071 H   0  0  0  0  0  0  0  0  0  0  0  0
   58.5614   33.9576   47.5154 H   0  0  0  0  0  0  0  0  0  0  0  0
   59.1117   35.1851   45.4155 H   0  0  0  0  0  0  0  0  0  0  0  0
   58.5986   34.1628   43.1984 H   0  0  0  0  0  0  0  0  0  0  0  0
  1  2  1  0
  2  3  2  0
  2  4  2  0
  2  5  1  0
  5  6  1  0
  6  7  2  0
  7  8  1  0
  8  9  2  0
  9 10  1  0
 10 11  1  0
 11 12  1  0
 12 13  1  0
 13 14  2  0
 13 15  1  0
 15 16  1  0
 16 17  2  0
 17 18  1  0
 18 19  2  0
 19 20  1  0
 20 21  2  0
 21 22  1  0
 10 23  2  0
 23 24  1  0
 23  6  1  0
 21 16  1  0
  1 25  1  0
  1 26  1  0
  1 27  1  0
  7 28  1  0
  8 29  1  0
  9 30  1  0
 11 31  1  0
 11 32  1  0
 12 33  1  0
 17 34  1  0
 18 35  1  0
 19 36  1  0
 20 37  1  0
M  CHG  3   5  -1  15  -1  24  -1
M  END
>  <UniqueID>  (68) 
63

>  <SMILES>  (68) 
CS(=O)(=O)[N-]c1cccc(CNC(=O)[N-]c2ccccc2Cl)c1[O-]

>  <Energy>  (68) 
41.66677598511556

>  <Genealogy>  (68) 
CS(=O)(=O)[N-]c1cccc(CNC(=O)[N-]c2ccccc2Cl)c1[O-] (protonated)
CS(=O)(=O)[N-]c1cccc(CNC(=O)[N-]c2ccccc2Cl)c1[O-] (3D coordinates assigned)
CS(=O)(=O)[N-]c1cccc(CNC(=O)[N-]c2ccccc2Cl)c1[O-] (optimized conformer: 41.66677598511556 kcal/mol)

>  <smiles>  (68) 
CS(=O)(=O)Nc1cccc(CNC(=O)Nc2ccccc2Cl)c1O

>  <score_type>  (68) 
oracle

>  <origin>  (68) 
adg

>  <m_score__min__energy>  (68) 
-15.15

>  <m_primary>  (68) 
energy

$$$$
68:0
     RDKit          3D

 28 29  0  0  0  0  0  0  0  0999 V2000
   57.7770   27.3280   43.7410 C   0  0  0  0  0  0  0  0  0  0  0  0
   57.9940   28.5300   44.5840 C   0  0  0  0  0  0  0  0  0  0  0  0
   56.8980   29.1440   45.1480 C   0  0  0  0  0  0  0  0  0  0  0  0
   55.6000   28.6670   44.9500 O   0  0  0  0  0  0  0  0  0  0  0  0
   57.0620   30.2440   45.9200 N   0  0  0  0  0  0  0  0  0  0  0  0
   58.3110   30.7400   46.1380 C   0  0  0  0  0  0  0  0  0  0  0  0
   58.4640   31.9560   46.9970 C   0  0  0  0  0  0  0  0  0  0  0  0
   59.8940   32.3970   47.0420 C   0  0  0  0  0  0  0  0  0  0  0  0
   60.3050   33.5020   46.3270 C   0  0  0  0  0  0  0  0  0  0  0  0
   59.1690   34.4070   45.3590 Cl  0  0  0  0  0  0  0  0  0  0  0  0
   61.6360   33.8470   46.4160 C   0  0  0  0  0  0  0  0  0  0  0  0
   62.5540   33.1490   47.1730 C   0  0  0  0  0  0  0  0  0  0  0  0
   62.1250   32.0350   47.8900 C   0  0  0  0  0  0  0  0  0  0  0  0
   60.7780   31.6690   47.8140 C   0  0  0  0  0  0  0  0  0  0  0  0
   60.3040   30.2610   48.7360 Cl  0  0  0  0  0  0  0  0  0  0  0  0
   59.3930   30.1400   45.5860 N   0  0  0  0  0  0  0  0  0  0  0  0
   59.2490   29.0450   44.8140 C   0  0  0  0  0  0  0  0  0  0  0  0
   60.2730   28.4900   44.3000 O   0  0  0  0  0  0  0  0  0  0  0  0
   57.6187   26.4513   44.3863 H   0  0  0  0  0  0  0  0  0  0  0  0
   56.8919   27.4804   43.1060 H   0  0  0  0  0  0  0  0  0  0  0  0
   58.6596   27.1613   43.1060 H   0  0  0  0  0  0  0  0  0  0  0  0
   55.1460   28.1920   45.7200 H   0  0  0  0  0  0  0  0  0  0  0  0
   57.8484   32.7690   46.5845 H   0  0  0  0  0  0  0  0  0  0  0  0
   58.1379   31.7102   48.0184 H   0  0  0  0  0  0  0  0  0  0  0  0
   61.9851   34.7256   45.8536 H   0  0  0  0  0  0  0  0  0  0  0  0
   63.6064   33.4668   47.2096 H   0  0  0  0  0  0  0  0  0  0  0  0
   62.8309   31.4555   48.5030 H   0  0  0  0  0  0  0  0  0  0  0  0
   60.3540   30.5120   45.7470 H   0  0  0  0  0  0  0  0  0  0  0  0
  1  2  1  0
  2  3  2  0
  3  4  1  0
  3  5  1  0
  5  6  2  0
  6  7  1  0
  7  8  1  0
  8  9  2  0
  9 10  1  0
  9 11  1  0
 11 12  2  0
 12 13  1  0
 13 14  2  0
 14 15  1  0
  6 16  1  0
 16 17  1  0
 17 18  2  0
 17  2  1  0
 14  8  1  0
  1 19  1  0
  1 20  1  0
  1 21  1  0
  4 22  1  0
  7 23  1  0
  7 24  1  0
 11 25  1  0
 12 26  1  0
 13 27  1  0
 16 28  1  0
M  END
>  <smiles>  (69) 
Cc1c(O)nc(Cc2c(Cl)cccc2Cl)[nH]c1=O

>  <score_type>  (69) 
oracle

>  <origin>  (69) 
adg

>  <m_score__min__energy>  (69) 
-7.4299999999999997

>  <m_primary>  (69) 
energy

$$$$
69:0
     RDKit          3D

 51 53  0  0  1  0  0  0  0  0999 V2000
   57.7610   33.2610   52.2980 C   0  0  0  0  0  0  0  0  0  0  0  0
   58.3550   32.5690   51.1260 C   0  0  0  0  0  0  0  0  0  0  0  0
   59.2540   33.1830   50.3020 N   0  0  0  0  0  0  0  0  0  0  0  0
   59.7990   32.5550   49.2330 C   0  0  0  0  0  0  0  0  0  0  0  0
   60.6450   33.1230   48.4410 N   0  0  0  0  0  0  0  0  0  0  0  0
   60.8540   32.7840   47.0750 C   0  0  0  0  0  0  0  0  0  0  0  0
   59.6390   32.9980   46.2270 C   0  0  0  0  0  0  0  0  0  0  0  0
   59.2790   34.3190   46.0240 C   0  0  0  0  0  0  0  0  0  0  0  0
   58.1480   34.5920   45.2730 C   0  0  0  0  0  0  0  0  0  0  0  0
   57.3920   33.5520   44.7360 C   0  0  0  0  0  0  0  0  0  0  0  0
   57.7990   32.2620   44.9700 C   0  0  0  0  0  0  0  0  0  0  0  0
   58.9210   31.9360   45.7130 C   0  0  0  0  0  0  0  0  0  0  0  0
   59.3950   30.2950   45.9510 S   0  0  0  0  0  0  0  0  0  0  0  0
   59.4270   29.2950   44.5080 C   0  0  0  0  0  0  0  0  0  0  0  0
   58.5130   29.6390   47.0100 O   0  0  0  0  0  0  0  0  0  0  0  0
   60.7900   30.2400   46.5510 O   0  0  0  0  0  0  0  0  0  0  0  0
   59.4160   31.2890   49.0100 N   0  0  0  0  0  0  0  0  0  0  0  0
   58.5460   30.6230   49.7650 C   0  0  0  0  0  0  0  0  0  0  0  0
   57.9940   31.2750   50.8580 C   0  0  0  0  0  0  0  0  0  0  0  0
   57.0320   30.5020   51.6390 C   0  0  0  0  0  0  0  0  0  0  0  0
   57.3870   29.3430   52.0300 O   0  0  0  0  0  0  0  0  0  0  0  0
   55.7500   30.9800   51.9690 N   0  0  0  0  0  0  0  0  0  0  0  0
   54.7620   30.2390   52.7290 C   0  0  0  0  0  0  0  0  0  0  0  0
   53.4150   30.8240   52.5690 C   0  0  0  0  0  0  0  0  0  0  0  0
   52.4500   30.8640   53.5430 C   0  0  0  0  0  0  0  0  0  0  0  0
   51.2290   31.4270   53.2470 C   0  0  0  0  0  0  0  0  0  0  0  0
   50.9220   31.9590   52.0050 C   0  0  0  0  0  0  0  0  0  0  0  0
   51.9050   31.9190   51.0110 C   0  0  0  0  0  0  0  0  0  0  0  0
   53.1260   31.3580   51.3070 C   0  0  0  0  0  0  0  0  0  0  0  0
   58.1474   32.8108   53.2243 H   0  0  0  0  0  0  0  0  0  0  0  0
   58.0293   34.3274   52.2689 H   0  0  0  0  0  0  0  0  0  0  0  0
   56.6663   33.1574   52.2689 H   0  0  0  0  0  0  0  0  0  0  0  0
   61.6709   33.4061   46.6804 H   0  0  0  0  0  0  0  0  0  0  0  0
   61.0984   31.7122   47.0355 H   0  0  0  0  0  0  0  0  0  0  0  0
   59.8795   35.1359   46.4508 H   0  0  0  0  0  0  0  0  0  0  0  0
   57.8449   35.6351   45.0995 H   0  0  0  0  0  0  0  0  0  0  0  0
   56.4914   33.7595   44.1394 H   0  0  0  0  0  0  0  0  0  0  0  0
   57.2012   31.4427   44.5441 H   0  0  0  0  0  0  0  0  0  0  0  0
   59.4609   28.2344   44.7976 H   0  0  0  0  0  0  0  0  0  0  0  0
   58.5224   29.4834   43.9112 H   0  0  0  0  0  0  0  0  0  0  0  0
   60.3177   29.5408   43.9112 H   0  0  0  0  0  0  0  0  0  0  0  0
   59.8190   30.7730   48.1930 H   0  0  0  0  0  0  0  0  0  0  0  0
   58.2720   29.5841   49.5290 H   0  0  0  0  0  0  0  0  0  0  0  0
   55.5000   31.9400   51.6370 H   0  0  0  0  0  0  0  0  0  0  0  0
   54.7450   29.1974   52.3757 H   0  0  0  0  0  0  0  0  0  0  0  0
   55.0365   30.2835   53.7933 H   0  0  0  0  0  0  0  0  0  0  0  0
   52.6484   30.4531   54.5439 H   0  0  0  0  0  0  0  0  0  0  0  0
   50.4608   31.4558   54.0338 H   0  0  0  0  0  0  0  0  0  0  0  0
   49.9340   32.3999   51.8066 H   0  0  0  0  0  0  0  0  0  0  0  0
   51.7055   32.3289   50.0099 H   0  0  0  0  0  0  0  0  0  0  0  0
   53.9007   31.3279   50.5267 H   0  0  0  0  0  0  0  0  0  0  0  0
  1  2  1  0
  2  3  2  0
  3  4  1  0
  4  5  2  0
  5  6  1  0
  6  7  1  0
  7  8  2  0
  8  9  1  0
  9 10  2  0
 10 11  1  0
 11 12  2  0
 12 13  1  0
 13 14  1  0
 13 15  2  0
 13 16  2  0
  4 17  1  0
 17 18  1  0
 18 19  2  0
 19 20  1  0
 20 21  2  0
 20 22  1  0
 22 23  1  0
 23 24  1  0
 24 25  2  0
 25 26  1  0
 26 27  2  0
 27 28  1  0
 28 29  2  0
 19  2  1  0
 29 24  1  0
 12  7  1  0
  1 30  1  0
  1 31  1  0
  1 32  1  0
  6 33  1  0
  6 34  1  0
  8 35  1  0
  9 36  1  0
 10 37  1  0
 11 38  1  0
 14 39  1  0
 14 40  1  0
 14 41  1  0
 17 42  1  0
 18 43  1  0
 22 44  1  0
 23 45  1  0
 23 46  1  0
 25 47  1  0
 26 48  1  0
 27 49  1  0
 28 50  1  0
 29 51  1  0
M  END
>  <smiles>  (70) 
Cc1nc(=NCc2ccccc2S(C)(=O)=O)[nH]cc1C(=O)NCc1ccccc1

>  <score_type>  (70) 
oracle

>  <origin>  (70) 
adg

>  <m_score__min__energy>  (70) 
-9.4000000000000004

>  <m_primary>  (70) 
energy

$$$$
70:0
     RDKit          3D

 44 46  0  0  0  0  0  0  0  0999 V2000
   58.9292   29.7644   43.1308 H   0  0  0  0  0  0  0  0  0  0  0  0
   58.4630   29.9060   44.1170 C   0  0  0  0  0  0  0  0  0  0  0  0
   57.3780   30.9000   44.2540 C   0  0  0  0  0  0  0  0  0  0  0  0
   56.2360   30.5050   44.6050 O   0  0  0  0  0  0  0  0  0  0  0  0
   57.5950   32.3070   44.0590 N   0  0  0  0  0  0  0  0  0  0  0  0
   58.0940   33.1490   44.9210 C   0  0  0  0  0  0  0  0  0  0  0  0
   57.7630   32.9980   46.2730 C   0  0  0  0  0  0  0  0  0  0  0  0
   57.0966   32.1821   46.5896 H   0  0  0  0  0  0  0  0  0  0  0  0
   58.2810   33.8860   47.2190 C   0  0  0  0  0  0  0  0  0  0  0  0
   58.0273   33.7639   48.2824 H   0  0  0  0  0  0  0  0  0  0  0  0
   59.0980   34.9010   46.8290 N   0  0  0  0  0  0  0  0  0  0  0  0
   59.4770   35.5570   47.5490 H   0  0  0  0  0  0  0  0  0  0  0  0
   59.4260   35.0840   45.5220 C   0  0  0  0  0  0  0  0  0  0  0  0
   60.0851   35.9164   45.2344 H   0  0  0  0  0  0  0  0  0  0  0  0
   58.9300   34.2200   44.5430 C   0  0  0  0  0  0  0  0  0  0  0  0
   59.1895   34.3738   43.4852 H   0  0  0  0  0  0  0  0  0  0  0  0
   58.9010   29.1700   45.1490 C   0  0  0  0  0  0  0  0  0  0  0  0
   59.8023   29.5086   45.6809 H   0  0  0  0  0  0  0  0  0  0  0  0
   58.2410   27.9260   45.6150 C   0  0  0  0  0  0  0  0  0  0  0  0
   58.9640   26.8000   46.0530 C   0  0  0  0  0  0  0  0  0  0  0  0
   60.0636   26.8276   46.0653 H   0  0  0  0  0  0  0  0  0  0  0  0
   58.2940   25.6480   46.4720 C   0  0  0  0  0  0  0  0  0  0  0  0
   58.8686   24.7793   46.8259 H   0  0  0  0  0  0  0  0  0  0  0  0
   56.8960   25.5930   46.4440 C   0  0  0  0  0  0  0  0  0  0  0  0
   56.0580   24.0950   46.9770 S   0  0  0  0  0  0  0  0  0  0  0  0
   56.4320   23.2150   45.4550 C   0  0  0  0  0  0  0  0  0  0  0  0
   56.0290   23.7640   44.2310 C   0  0  0  0  0  0  0  0  0  0  0  0
   55.4964   24.7263   44.2116 H   0  0  0  0  0  0  0  0  0  0  0  0
   56.3000   23.0960   43.0360 C   0  0  0  0  0  0  0  0  0  0  0  0
   55.9758   23.5286   42.0780 H   0  0  0  0  0  0  0  0  0  0  0  0
   56.9830   21.8780   43.0570 C   0  0  0  0  0  0  0  0  0  0  0  0
   57.1937   21.3502   42.1151 H   0  0  0  0  0  0  0  0  0  0  0  0
   57.3990   21.3290   44.2720 C   0  0  0  0  0  0  0  0  0  0  0  0
   57.9386   20.3705   44.2822 H   0  0  0  0  0  0  0  0  0  0  0  0
   57.1320   21.9950   45.4850 C   0  0  0  0  0  0  0  0  0  0  0  0
   57.5480   21.4820   46.7230 O   0  0  0  0  0  0  0  0  0  0  0  0
   57.5110   20.1040   47.0790 C   0  0  0  0  0  0  0  0  0  0  0  0
   57.5084   20.0083   48.1748 H   0  0  0  0  0  0  0  0  0  0  0  0
   56.6002   19.6436   46.6686 H   0  0  0  0  0  0  0  0  0  0  0  0
   58.3958   19.5954   46.6686 H   0  0  0  0  0  0  0  0  0  0  0  0
   56.1670   26.7090   46.0100 C   0  0  0  0  0  0  0  0  0  0  0  0
   54.7770   26.6850   46.0010 O   0  0  0  0  0  0  0  0  0  0  0  0
   56.8370   27.8620   45.5890 C   0  0  0  0  0  0  0  0  0  0  0  0
   56.2593   28.7280   45.2337 H   0  0  0  0  0  0  0  0  0  0  0  0
  1  2  1  0
  2  3  1  0
  3  4  2  0
  3  5  1  0
  5  6  2  3
  6  7  1  0
  7  8  1  0
  7  9  2  0
  9 10  1  0
  9 11  1  0
 11 12  1  0
 11 13  1  0
 13 14  1  0
 13 15  2  0
 15 16  1  0
  2 17  2  0
 17 18  1  0
 17 19  1  0
 19 20  2  0
 20 21  1  0
 20 22  1  0
 22 23  1  0
 22 24  2  0
 24 25  1  0
 25 26  1  0
 26 27  2  0
 27 28  1  0
 27 29  1  0
 29 30  1  0
 29 31  2  0
 31 32  1  0
 31 33  1  0
 33 34  1  0
 33 35  2  0
 35 36  1  0
 36 37  1  0
 37 38  1  0
 37 39  1  0
 37 40  1  0
 24 41  1  0
 41 42  1  0
 41 43  2  0
 43 44  1  0
 15  6  1  0
 43 19  1  0
 35 26  1  0
M  CHG  1  42  -1
M  END
>  <UniqueID>  (71) 
64

>  <SMILES>  (71) 
COc1ccccc1Sc1ccc(/C=C/C(=O)N=c2cc[nH]cc2)cc1[O-]

>  <Energy>  (71) 
53.683224217701145

>  <Genealogy>  (71) 
COc1ccccc1Sc1ccc(C=CC(=O)N=c2cc[nH]cc2)cc1[O-] (protonated)
COc1ccccc1Sc1ccc(/C=C/C(=O)N=c2cc[nH]cc2)cc1[O-] (cis-trans isomerization)
COc1ccccc1Sc1ccc(/C=C/C(=O)N=c2cc[nH]cc2)cc1[O-] (3D coordinates assigned)
COc1ccccc1Sc1ccc(/C=C/C(=O)N=c2cc[nH]cc2)cc1[O-] (optimized conformer: 53.683224217701145 kcal/mol)

>  <smiles>  (71) 
COc1ccccc1Sc1ccc(C=CC(=O)N=c2cc[nH]cc2)cc1O

>  <score_type>  (71) 
oracle

>  <origin>  (71) 
adg

>  <m_score__min__energy>  (71) 
-13.18

>  <m_primary>  (71) 
energy

$$$$
71:0
     RDKit          3D

 31 32  0  0  0  0  0  0  0  0999 V2000
   62.7200   32.4860   49.3680 N   0  0  0  0  0  0  0  0  0  0  0  0
   61.6240   33.5360   50.1950 S   0  0  0  0  0  0  0  0  0  0  0  0
   61.1460   34.6070   49.2540 O   0  0  0  0  0  0  0  0  0  0  0  0
   62.3320   34.1880   51.3480 O   0  0  0  0  0  0  0  0  0  0  0  0
   60.2510   32.6060   50.7860 C   0  0  0  0  0  0  0  0  0  0  0  0
   60.3490   31.8840   51.9830 C   0  0  0  0  0  0  0  0  0  0  0  0
   59.2620   31.1370   52.4450 C   0  0  0  0  0  0  0  0  0  0  0  0
   58.0660   31.0970   51.7100 C   0  0  0  0  0  0  0  0  0  0  0  0
   56.8830   30.3160   52.2130 C   0  0  0  0  0  0  0  0  0  0  0  0
   55.6490   30.8280   51.6200 N   0  0  0  0  0  0  0  0  0  0  0  0
   54.3710   30.2160   51.8560 C   0  0  0  0  0  0  0  0  0  0  0  0
   54.2990   29.1650   52.5500 O   0  0  0  0  0  0  0  0  0  0  0  0
   53.1390   30.8090   51.2920 C   0  0  0  0  0  0  0  0  0  0  0  0
   52.5550   30.2950   50.1240 C   0  0  0  0  0  0  0  0  0  0  0  0
   51.3910   30.8930   49.6380 C   0  0  0  0  0  0  0  0  0  0  0  0
   50.8430   30.4550   48.5920 O   0  0  0  0  0  0  0  0  0  0  0  0
   50.8460   31.9490   50.2960 N   0  0  0  0  0  0  0  0  0  0  0  0
   51.4190   32.4370   51.4250 C   0  0  0  0  0  0  0  0  0  0  0  0
   50.9000   33.4160   52.0210 O   0  0  0  0  0  0  0  0  0  0  0  0
   52.5520   31.8690   51.9130 N   0  0  0  0  0  0  0  0  0  0  0  0
   57.9710   31.8180   50.5110 C   0  0  0  0  0  0  0  0  0  0  0  0
   59.0600   32.5650   50.0480 C   0  0  0  0  0  0  0  0  0  0  0  0
   62.5810   31.5290   49.7610 H   0  0  0  0  0  0  0  0  0  0  0  0
   61.2847   31.9053   52.5609 H   0  0  0  0  0  0  0  0  0  0  0  0
   59.3436   30.5778   53.3887 H   0  0  0  0  0  0  0  0  0  0  0  0
   57.0046   29.2572   51.9407 H   0  0  0  0  0  0  0  0  0  0  0  0
   56.8245   30.4190   53.3066 H   0  0  0  0  0  0  0  0  0  0  0  0
   55.7170   31.6680   51.0010 H   0  0  0  0  0  0  0  0  0  0  0  0
   53.0055   29.4380   49.6019 H   0  0  0  0  0  0  0  0  0  0  0  0
   57.0361   31.7963   49.9317 H   0  0  0  0  0  0  0  0  0  0  0  0
   58.9812   33.1215   49.1024 H   0  0  0  0  0  0  0  0  0  0  0  0
  1  2  1  0
  2  3  2  0
  2  4  2  0
  2  5  1  0
  5  6  2  0
  6  7  1  0
  7  8  2  0
  8  9  1  0
  9 10  1  0
 10 11  1  0
 11 12  2  0
 11 13  1  0
 13 14  2  0
 14 15  1  0
 15 16  2  0
 15 17  1  0
 17 18  1  0
 18 19  2  0
 18 20  1  0
  8 21  1  0
 21 22  2  0
 22  5  1  0
 20 13  1  0
  1 23  1  0
  6 24  1  0
  7 25  1  0
  9 26  1  0
  9 27  1  0
 10 28  1  0
 14 29  1  0
 21 30  1  0
 22 31  1  0
M  CHG  3   1  -1  17  -1  20  -1
M  END
>  <UniqueID>  (72) 
65

>  <SMILES>  (72) 
[NH-]S(=O)(=O)c1ccc(CNC(=O)c2cc(=O)[n-]c(=O)[n-]2)cc1

>  <Energy>  (72) 
30.316376197097238

>  <Genealogy>  (72) 
[NH-]S(=O)(=O)c1ccc(CNC(=O)c2cc(=O)[n-]c(=O)[n-]2)cc1 (protonated)
[NH-]S(=O)(=O)c1ccc(CNC(=O)c2cc(=O)[n-]c(=O)[n-]2)cc1 (3D coordinates assigned)
[NH-]S(=O)(=O)c1ccc(CNC(=O)c2cc(=O)[n-]c(=O)[n-]2)cc1 (optimized conformer: 30.316376197097238 kcal/mol)

>  <smiles>  (72) 
NS(=O)(=O)c1ccc(CNC(=O)c2cc(=O)[nH]c(=O)[nH]2)cc1

>  <score_type>  (72) 
oracle

>  <origin>  (72) 
adg

>  <m_score__min__energy>  (72) 
-11.93

>  <m_primary>  (72) 
energy

$$$$
72:0
     RDKit          3D

 41 45  0  0  0  0  0  0  0  0999 V2000
   56.6170   28.6520   45.9970 H   0  0  0  0  0  0  0  0  0  0  0  0
   55.9160   28.0320   45.6110 O   0  0  0  0  0  0  0  0  0  0  0  0
   55.9110   26.6790   45.9350 C   0  0  0  0  0  0  0  0  0  0  0  0
   54.8030   25.9190   45.9450 N   0  0  0  0  0  0  0  0  0  0  0  0
   55.2820   24.6910   46.2380 C   0  0  0  0  0  0  0  0  0  0  0  0
   54.3230   23.3750   46.3560 S   0  0  0  0  0  0  0  0  0  0  0  0
   56.6210   24.6370   46.4030 N   0  0  0  0  0  0  0  0  0  0  0  0
   57.0140   25.9120   46.2340 C   0  0  0  0  0  0  0  0  0  0  0  0
   58.4260   26.3290   46.2540 C   0  0  0  0  0  0  0  0  0  0  0  0
   59.0840   25.9648   45.4512 H   0  0  0  0  0  0  0  0  0  0  0  0
   58.9580   27.1260   47.1920 C   0  0  0  0  0  0  0  0  0  0  0  0
   59.7920   26.7990   48.2630 C   0  0  0  0  0  0  0  0  0  0  0  0
   60.1231   25.7821   48.5203 H   0  0  0  0  0  0  0  0  0  0  0  0
   60.1320   27.9250   48.9380 N   0  0  0  0  0  0  0  0  0  0  0  0
   59.5440   28.9400   48.3250 N   0  0  0  0  0  0  0  0  0  0  0  0
   59.5850   30.2700   48.6290 C   0  0  0  0  0  0  0  0  0  0  0  0
   60.2460   30.7500   49.6440 N   0  0  0  0  0  0  0  0  0  0  0  0
   59.6930   31.1290   50.9400 C   0  0  0  0  0  0  0  0  0  0  0  0
   60.6393   31.1752   51.4989 H   0  0  0  0  0  0  0  0  0  0  0  0
   58.4610   32.0060   50.8100 C   0  0  0  0  0  0  0  0  0  0  0  0
   58.2736   32.8039   51.5437 H   0  0  0  0  0  0  0  0  0  0  0  0
   58.0349   32.6367   50.0159 H   0  0  0  0  0  0  0  0  0  0  0  0
   58.3190   30.5470   51.2190 C   0  0  0  0  0  0  0  0  0  0  0  0
   58.0290   30.2898   52.2485 H   0  0  0  0  0  0  0  0  0  0  0  0
   57.7477   29.6854   50.8432 H   0  0  0  0  0  0  0  0  0  0  0  0
   58.8910   31.1250   47.8280 N   0  0  0  0  0  0  0  0  0  0  0  0
   58.1840   30.6710   46.7510 C   0  0  0  0  0  0  0  0  0  0  0  0
   57.5190   31.5230   46.0270 N   0  0  0  0  0  0  0  0  0  0  0  0
   57.4140   31.5420   44.5930 C   0  0  0  0  0  0  0  0  0  0  0  0
   56.7140   30.5490   43.8810 C   0  0  0  0  0  0  0  0  0  0  0  0
   56.2046   29.7404   44.4257 H   0  0  0  0  0  0  0  0  0  0  0  0
   56.6640   30.5870   42.4840 C   0  0  0  0  0  0  0  0  0  0  0  0
   56.1029   29.8177   41.9332 H   0  0  0  0  0  0  0  0  0  0  0  0
   57.3260   31.6010   41.7870 C   0  0  0  0  0  0  0  0  0  0  0  0
   57.2783   31.6352   40.6886 H   0  0  0  0  0  0  0  0  0  0  0  0
   58.0490   32.5720   42.4860 C   0  0  0  0  0  0  0  0  0  0  0  0
   58.5775   33.3651   41.9367 H   0  0  0  0  0  0  0  0  0  0  0  0
   58.1010   32.5360   43.8830 C   0  0  0  0  0  0  0  0  0  0  0  0
   58.6847   33.2925   44.4279 H   0  0  0  0  0  0  0  0  0  0  0  0
   58.1510   29.3340   46.4750 N   0  0  0  0  0  0  0  0  0  0  0  0
   58.8450   28.4940   47.2790 C   0  0  0  0  0  0  0  0  0  0  0  0
  1  2  1  0
  2  3  1  0
  3  4  1  0
  4  5  1  0
  5  6  2  0
  5  7  1  0
  7  8  1  0
  8  9  1  0
  9 10  1  0
  9 11  2  0
 11 12  1  0
 12 13  1  0
 12 14  2  0
 14 15  1  0
 15 16  1  0
 16 17  2  3
 17 18  1  0
 18 19  1  0
 18 20  1  0
 20 21  1  0
 20 22  1  0
 20 23  1  0
 23 24  1  0
 23 25  1  0
 16 26  1  0
 26 27  1  0
 27 28  2  3
 28 29  1  0
 29 30  2  0
 30 31  1  0
 30 32  1  0
 32 33  1  0
 32 34  2  0
 34 35  1  0
 34 36  1  0
 36 37  1  0
 36 38  2  0
 38 39  1  0
 27 40  1  0
 40 41  2  0
  8  3  2  0
 41 11  1  0
 41 15  1  0
 23 18  1  0
 38 29  1  0
M  CHG  3   4  -1   7  -1  26  -1
M  END
>  <UniqueID>  (73) 
66

>  <SMILES>  (73) 
Oc1[n-]c(=S)[n-]c1/C=c1\cnn2c(=NC3CC3)[n-]c(=Nc3ccccc3)nc12

>  <Energy>  (73) 
391.94485340800486

>  <Genealogy>  (73) 
Oc1[n-]c(=S)[n-]c1C=c1cnn2c(=NC3CC3)[n-]c(=Nc3ccccc3)nc12 (protonated)
Oc1[n-]c(=S)[n-]c1/C=c1\cnn2c(=NC3CC3)[n-]c(=Nc3ccccc3)nc12 (cis-trans isomerization)
Oc1[n-]c(=S)[n-]c1/C=c1\cnn2c(=NC3CC3)[n-]c(=Nc3ccccc3)nc12 (3D coordinates assigned)
Oc1[n-]c(=S)[n-]c1/C=c1\cnn2c(=NC3CC3)[n-]c(=Nc3ccccc3)nc12 (nonaromatic ring conformer: 391.94485340800486 kcal/mol)

>  <smiles>  (73) 
Oc1[nH]c(=S)[nH]c1C=c1cnn2c(=NC3CC3)[nH]c(=Nc3ccccc3)nc12

>  <score_type>  (73) 
oracle

>  <origin>  (73) 
adg

>  <m_score__min__energy>  (73) 
-13.92

>  <m_primary>  (73) 
energy

$$$$
73:0
     RDKit          3D

 42 44  0  0  0  0  0  0  0  0999 V2000
   56.7780   24.7440   47.6460 H   0  0  0  0  0  0  0  0  0  0  0  0
   56.1550   23.9090   47.7360 N   0  0  0  0  0  0  0  0  0  0  0  0
   55.1920   23.6410   46.9090 C   0  0  0  0  0  0  0  0  0  0  0  0
   54.6130   22.3670   46.9340 C   0  0  0  0  0  0  0  0  0  0  0  0
   54.9698   21.6125   47.6505 H   0  0  0  0  0  0  0  0  0  0  0  0
   53.5830   22.0580   46.0480 C   0  0  0  0  0  0  0  0  0  0  0  0
   53.1197   21.0606   46.0714 H   0  0  0  0  0  0  0  0  0  0  0  0
   53.1500   22.9850   45.1560 N   0  0  0  0  0  0  0  0  0  0  0  0
   53.6860   24.2340   45.1060 C   0  0  0  0  0  0  0  0  0  0  0  0
   53.3157   24.9585   44.3658 H   0  0  0  0  0  0  0  0  0  0  0  0
   54.7110   24.6050   45.9950 C   0  0  0  0  0  0  0  0  0  0  0  0
   55.3140   25.9080   45.9420 N   0  0  0  0  0  0  0  0  0  0  0  0
   56.7180   26.2030   45.8880 C   0  0  0  0  0  0  0  0  0  0  0  0
   57.5510   25.2760   45.6940 O   0  0  0  0  0  0  0  0  0  0  0  0
   57.1850   27.6030   46.0060 C   0  0  0  0  0  0  0  0  0  0  0  0
   58.1480   27.9600   46.9650 C   0  0  0  0  0  0  0  0  0  0  0  0
   58.5661   27.1975   47.6386 H   0  0  0  0  0  0  0  0  0  0  0  0
   58.5720   29.2880   47.0590 C   0  0  0  0  0  0  0  0  0  0  0  0
   59.5520   29.6730   48.0370 C   0  0  0  0  0  0  0  0  0  0  0  0
   60.3410   29.9840   48.8240 N   0  0  0  0  0  0  0  0  0  0  0  0
   58.0550   30.2270   46.2240 N   0  0  0  0  0  0  0  0  0  0  0  0
   57.1280   29.9220   45.2750 C   0  0  0  0  0  0  0  0  0  0  0  0
   56.6290   30.8350   44.4920 N   0  0  0  0  0  0  0  0  0  0  0  0
   57.3060   31.9440   43.8740 C   0  0  0  0  0  0  0  0  0  0  0  0
   57.7920   31.7760   42.7230 O   0  0  0  0  0  0  0  0  0  0  0  0
   57.4540   33.2840   44.5550 C   0  0  0  0  0  0  0  0  0  0  0  0
   57.9172   33.9909   43.8510 H   0  0  0  0  0  0  0  0  0  0  0  0
   56.4527   33.6234   44.8585 H   0  0  0  0  0  0  0  0  0  0  0  0
   58.3110   33.1970   45.7920 C   0  0  0  0  0  0  0  0  0  0  0  0
   59.7110   33.2240   45.6910 C   0  0  0  0  0  0  0  0  0  0  0  0
   60.1867   33.3330   44.7052 H   0  0  0  0  0  0  0  0  0  0  0  0
   60.5040   33.1130   46.8380 C   0  0  0  0  0  0  0  0  0  0  0  0
   61.6003   33.1419   46.7525 H   0  0  0  0  0  0  0  0  0  0  0  0
   59.9040   32.9650   48.0960 C   0  0  0  0  0  0  0  0  0  0  0  0
   60.6830   32.8530   49.2450 O   0  0  0  0  0  0  0  0  0  0  0  0
   60.9350   31.9500   49.6270 H   0  0  0  0  0  0  0  0  0  0  0  0
   58.5100   32.9260   48.2000 C   0  0  0  0  0  0  0  0  0  0  0  0
   58.0369   32.8077   49.1860 H   0  0  0  0  0  0  0  0  0  0  0  0
   57.7150   33.0370   47.0540 C   0  0  0  0  0  0  0  0  0  0  0  0
   56.6192   32.9988   47.1415 H   0  0  0  0  0  0  0  0  0  0  0  0
   56.6730   28.6020   45.1580 C   0  0  0  0  0  0  0  0  0  0  0  0
   55.9151   28.3467   44.4028 H   0  0  0  0  0  0  0  0  0  0  0  0
  1  2  1  0
  2  3  2  3
  3  4  1  0
  4  5  1  0
  4  6  2  0
  6  7  1  0
  6  8  1  0
  8  9  1  0
  9 10  1  0
  9 11  2  0
 11 12  1  0
 12 13  1  0
 13 14  2  0
 13 15  1  0
 15 16  1  0
 16 17  1  0
 16 18  2  0
 18 19  1  0
 19 20  3  0
 18 21  1  0
 21 22  1  0
 22 23  2  0
 23 24  1  0
 24 25  2  0
 24 26  1  0
 26 27  1  0
 26 28  1  0
 26 29  1  0
 29 30  2  0
 30 31  1  0
 30 32  1  0
 32 33  1  0
 32 34  2  0
 34 35  1  0
 35 36  1  0
 34 37  1  0
 37 38  1  0
 37 39  2  0
 39 40  1  0
 22 41  1  0
 41 42  1  0
 11  3  1  0
 41 15  2  0
 39 29  1  0
M  CHG  3   8  -1  12  -1  21  -1
M  END
>  <UniqueID>  (74) 
67

>  <SMILES>  (74) 
N#Cc1cc(C(=O)[N-]c2c[n-]ccc2=N)c/c(=N/C(=O)Cc2ccc(O)cc2)[n-]1

>  <Energy>  (74) 
55.443840518845995

>  <Genealogy>  (74) 
N#Cc1cc(C(=O)[N-]c2c[n-]ccc2=N)cc(=NC(=O)Cc2ccc(O)cc2)[n-]1 (protonated)
N#Cc1cc(C(=O)[N-]c2c[n-]ccc2=N)c/c(=N/C(=O)Cc2ccc(O)cc2)[n-]1 (cis-trans isomerization)
N#Cc1cc(C(=O)[N-]c2c[n-]ccc2=N)c/c(=N/C(=O)Cc2ccc(O)cc2)[n-]1 (3D coordinates assigned)
N#Cc1cc(C(=O)[N-]c2c[n-]ccc2=N)c/c(=N/C(=O)Cc2ccc(O)cc2)[n-]1 (optimized conformer: 55.443840518845995 kcal/mol)

>  <smiles>  (74) 
N#Cc1cc(C(=O)Nc2c[nH]ccc2=N)cc(=NC(=O)Cc2ccc(O)cc2)[nH]1

>  <score_type>  (74) 
oracle

>  <origin>  (74) 
adg

>  <m_score__min__energy>  (74) 
-11.84

>  <m_primary>  (74) 
energy

$$$$
74:0
     RDKit          3D

 58 62  0  0  0  0  0  0  0  0999 V2000
   57.3400   25.7680   44.8980 O   0  0  0  0  0  0  0  0  0  0  0  0
   56.6740   26.5970   45.5720 C   0  0  0  0  0  0  0  0  0  0  0  0
   55.4620   26.1590   46.1990 N   0  0  0  0  0  0  0  0  0  0  0  0
   54.5140   25.2170   45.6140 C   0  0  0  0  0  0  0  0  0  0  0  0
   55.2550   24.0040   45.1330 C   0  0  0  0  0  0  0  0  0  0  0  0
   56.0930   23.2880   46.0010 C   0  0  0  0  0  0  0  0  0  0  0  0
   56.8030   22.1810   45.5300 C   0  0  0  0  0  0  0  0  0  0  0  0
   56.6750   21.8060   44.1920 C   0  0  0  0  0  0  0  0  0  0  0  0
   55.8720   22.5200   43.3580 N   0  0  0  0  0  0  0  0  0  0  0  0
   55.1710   23.6010   43.7920 C   0  0  0  0  0  0  0  0  0  0  0  0
   57.1470   27.9930   45.6590 C   0  0  0  0  0  0  0  0  0  0  0  0
   56.7970   28.9120   44.6590 C   0  0  0  0  0  0  0  0  0  0  0  0
   57.2500   30.2330   44.7230 C   0  0  0  0  0  0  0  0  0  0  0  0
   58.0820   30.6470   45.7780 C   0  0  0  0  0  0  0  0  0  0  0  0
   58.5470   31.9660   45.8910 O   0  0  0  0  0  0  0  0  0  0  0  0
   59.3910   32.4420   46.9020 C   0  0  0  0  0  0  0  0  0  0  0  0
   60.7620   32.1870   46.8200 C   0  0  0  0  0  0  0  0  0  0  0  0
   61.6190   32.6790   47.8140 C   0  0  0  0  0  0  0  0  0  0  0  0
   62.9980   32.4290   47.7630 C   0  0  0  0  0  0  0  0  0  0  0  0
   63.8390   32.9290   48.7610 C   0  0  0  0  0  0  0  0  0  0  0  0
   63.3190   33.6950   49.8190 C   0  0  0  0  0  0  0  0  0  0  0  0
   64.2180   34.2110   50.8770 C   0  0  0  0  0  0  0  0  0  0  0  0
   63.8530   35.1980   51.5730 O   0  0  0  0  0  0  0  0  0  0  0  0
   65.5110   33.6270   51.1090 N   0  0  0  0  0  0  0  0  0  0  0  0
   65.6420   32.1800   51.3280 C   0  0  0  0  0  0  0  0  0  0  0  0
   67.0210   31.6620   50.8550 C   0  0  0  0  0  0  0  0  0  0  0  0
   67.9350   32.6920   50.5100 O   0  0  0  0  0  0  0  0  0  0  0  0
   67.9380   33.6950   51.5030 C   0  0  0  0  0  0  0  0  0  0  0  0
   66.6460   34.5070   51.4050 C   0  0  0  0  0  0  0  0  0  0  0  0
   61.9350   33.9340   49.8780 C   0  0  0  0  0  0  0  0  0  0  0  0
   61.0850   33.4350   48.8790 C   0  0  0  0  0  0  0  0  0  0  0  0
   59.7050   33.6740   48.9180 C   0  0  0  0  0  0  0  0  0  0  0  0
   58.9020   33.1820   47.9380 N   0  0  0  0  0  0  0  0  0  0  0  0
   58.4310   29.7280   46.7750 C   0  0  0  0  0  0  0  0  0  0  0  0
   57.9800   28.4070   46.7100 C   0  0  0  0  0  0  0  0  0  0  0  0
   53.7753   24.9197   46.3729 H   0  0  0  0  0  0  0  0  0  0  0  0
   53.9957   25.6923   44.7682 H   0  0  0  0  0  0  0  0  0  0  0  0
   56.1909   23.5981   47.0518 H   0  0  0  0  0  0  0  0  0  0  0  0
   57.4563   21.6108   46.2068 H   0  0  0  0  0  0  0  0  0  0  0  0
   57.2240   20.9321   43.8114 H   0  0  0  0  0  0  0  0  0  0  0  0
   54.5362   24.1612   43.0897 H   0  0  0  0  0  0  0  0  0  0  0  0
   56.1624   28.5915   43.8196 H   0  0  0  0  0  0  0  0  0  0  0  0
   56.9542   30.9517   43.9445 H   0  0  0  0  0  0  0  0  0  0  0  0
   61.1667   31.6033   45.9800 H   0  0  0  0  0  0  0  0  0  0  0  0
   63.4185   31.8382   46.9359 H   0  0  0  0  0  0  0  0  0  0  0  0
   64.9183   32.7212   48.7183 H   0  0  0  0  0  0  0  0  0  0  0  0
   65.5288   31.9685   52.4015 H   0  0  0  0  0  0  0  0  0  0  0  0
   64.8610   31.6688   50.7459 H   0  0  0  0  0  0  0  0  0  0  0  0
   67.4630   31.0640   51.6656 H   0  0  0  0  0  0  0  0  0  0  0  0
   66.8450   31.0727   49.9430 H   0  0  0  0  0  0  0  0  0  0  0  0
   68.0040   33.2280   52.4968 H   0  0  0  0  0  0  0  0  0  0  0  0
   68.8025   34.3586   51.3539 H   0  0  0  0  0  0  0  0  0  0  0  0
   66.4670   35.0203   52.3613 H   0  0  0  0  0  0  0  0  0  0  0  0
   66.7478   35.2434   50.5942 H   0  0  0  0  0  0  0  0  0  0  0  0
   61.5157   34.5156   50.7122 H   0  0  0  0  0  0  0  0  0  0  0  0
   59.2714   34.2599   49.7418 H   0  0  0  0  0  0  0  0  0  0  0  0
   59.0646   30.0481   47.6153 H   0  0  0  0  0  0  0  0  0  0  0  0
   58.2794   27.6878   47.4866 H   0  0  0  0  0  0  0  0  0  0  0  0
  1  2  2  0
  2  3  1  0
  3  4  1  0
  4  5  1  0
  5  6  2  0
  6  7  1  0
  7  8  2  0
  8  9  1  0
  9 10  2  0
  2 11  1  0
 11 12  2  0
 12 13  1  0
 13 14  2  0
 14 15  1  0
 15 16  1  0
 16 17  2  0
 17 18  1  0
 18 19  2  0
 19 20  1  0
 20 21  2  0
 21 22  1  0
 22 23  2  0
 22 24  1  0
 24 25  1  0
 25 26  1  0
 26 27  1  0
 27 28  1  0
 28 29  1  0
 21 30  1  0
 30 31  2  0
 31 32  1  0
 32 33  2  0
 14 34  1  0
 34 35  2  0
 10  5  1  0
 35 11  1  0
 33 16  1  0
 31 18  1  0
 29 24  1  0
  4 36  1  0
  4 37  1  0
  6 38  1  0
  7 39  1  0
  8 40  1  0
 10 41  1  0
 12 42  1  0
 13 43  1  0
 17 44  1  0
 19 45  1  0
 20 46  1  0
 25 47  1  0
 25 48  1  0
 26 49  1  0
 26 50  1  0
 28 51  1  0
 28 52  1  0
 29 53  1  0
 29 54  1  0
 30 55  1  0
 32 56  1  0
 34 57  1  0
 35 58  1  0
M  CHG  1   3  -1
M  END
>  <UniqueID>  (75) 
68

>  <SMILES>  (75) 
O=C([N-]Cc1cccnc1)c1ccc(Oc2cc3ccc(C(=O)N4CCOCC4)cc3cn2)cc1

>  <Energy>  (75) 
87.4359546155692

>  <Genealogy>  (75) 
O=C([N-]Cc1cccnc1)c1ccc(Oc2cc3ccc(C(=O)N4CCOCC4)cc3cn2)cc1 (protonated)
O=C([N-]Cc1cccnc1)c1ccc(Oc2cc3ccc(C(=O)N4CCOCC4)cc3cn2)cc1 (3D coordinates assigned)
O=C([N-]Cc1cccnc1)c1ccc(Oc2cc3ccc(C(=O)N4CCOCC4)cc3cn2)cc1 (nonaromatic ring conformer: 87.4359546155692 kcal/mol)

>  <smiles>  (75) 
O=C(NCc1cccnc1)c1ccc(Oc2cc3ccc(C(=O)N4CCOCC4)cc3cn2)cc1

>  <score_type>  (75) 
oracle

>  <origin>  (75) 
adg

>  <m_score__min__energy>  (75) 
-10.800000000000001

>  <m_primary>  (75) 
energy

$$$$
75:0
     RDKit          3D

 18 18  0  0  0  0  0  0  0  0999 V2000
   58.1560   27.8270   43.5170 C   0  0  0  0  0  0  0  0  0  0  0  0
   57.5980   28.1560   44.8800 C   0  0  0  0  0  0  0  0  0  0  0  0
   57.9710   27.4750   45.9870 C   0  0  0  0  0  0  0  0  0  0  0  0
   57.3970   26.1850   46.4410 C   0  0  0  0  0  0  0  0  0  0  0  0
   58.0990   25.1680   46.9750 N   0  0  0  0  0  0  0  0  0  0  0  0
   57.1560   24.2540   47.2820 C   0  0  0  0  0  0  0  0  0  0  0  0
   57.4310   23.1430   47.8060 O   0  0  0  0  0  0  0  0  0  0  0  0
   55.8930   24.6260   46.9890 N   0  0  0  0  0  0  0  0  0  0  0  0
   56.0570   25.8510   46.4620 C   0  0  0  0  0  0  0  0  0  0  0  0
   54.9950   26.6290   46.0060 O   0  0  0  0  0  0  0  0  0  0  0  0
   56.6190   29.2710   44.9970 C   0  0  0  0  0  0  0  0  0  0  0  0
   57.0070   30.4560   45.1760 O   0  0  0  0  0  0  0  0  0  0  0  0
   55.2540   29.0230   44.9040 O   0  0  0  0  0  0  0  0  0  0  0  0
   59.0985   27.2713   43.6310 H   0  0  0  0  0  0  0  0  0  0  0  0
   57.4320   27.2113   42.9632 H   0  0  0  0  0  0  0  0  0  0  0  0
   58.3443   28.7586   42.9632 H   0  0  0  0  0  0  0  0  0  0  0  0
   58.7684   27.9154   46.6036 H   0  0  0  0  0  0  0  0  0  0  0  0
   55.1420   27.4860   45.4890 H   0  0  0  0  0  0  0  0  0  0  0  0
  1  2  1  0
  2  3  2  3
  3  4  1  0
  4  5  1  0
  5  6  1  0
  6  7  2  0
  6  8  1  0
  8  9  1  0
  9 10  1  0
  2 11  1  0
 11 12  2  0
 11 13  1  0
  9  4  2  0
  1 14  1  0
  1 15  1  0
  1 16  1  0
  3 17  1  0
 10 18  1  0
M  CHG  3   5  -1   8  -1  13  -1
M  END
>  <UniqueID>  (76) 
69

>  <SMILES>  (76) 
CC(=Cc1[n-]c(=O)[n-]c1O)C(=O)[O-]

>  <Energy>  (76) 
48.57756345539948

>  <Genealogy>  (76) 
CC(=Cc1[n-]c(=O)[n-]c1O)C(=O)[O-] (protonated)
CC(=Cc1[n-]c(=O)[n-]c1O)C(=O)[O-] (3D coordinates assigned)
CC(=Cc1[n-]c(=O)[n-]c1O)C(=O)[O-] (optimized conformer: 48.57756345539948 kcal/mol)

>  <smiles>  (76) 
CC(=Cc1[nH]c(=O)[nH]c1O)C(=O)O

>  <score_type>  (76) 
oracle

>  <origin>  (76) 
adg

>  <m_score__min__energy>  (76) 
-12.710000000000001

>  <m_primary>  (76) 
energy

$$$$
76:0
     RDKit          3D

 57 59  0  0  0  0  0  0  0  0999 V2000
   60.4830   30.0410   48.8780 C   0  0  0  0  0  0  0  0  0  0  0  0
   60.3670   31.4370   48.2620 C   0  0  1  0  0  0  0  0  0  0  0  0
   59.3930   32.2370   49.0010 N   0  0  0  0  0  0  0  0  0  0  0  0
   59.6380   33.5670   49.4690 C   0  0  0  0  0  0  0  0  0  0  0  0
   59.8450   33.7880   50.6930 O   0  0  0  0  0  0  0  0  0  0  0  0
   59.6170   34.7050   48.4990 C   0  0  0  0  0  0  0  0  0  0  0  0
   59.0530   34.2490   47.1810 C   0  0  0  0  0  0  0  0  0  0  0  0
   59.7690   34.4580   45.9920 C   0  0  0  0  0  0  0  0  0  0  0  0
   59.2220   34.0780   44.7640 C   0  0  0  0  0  0  0  0  0  0  0  0
   57.9440   33.5080   44.7000 C   0  0  0  0  0  0  0  0  0  0  0  0
   57.4380   33.1410   43.4440 O   0  0  0  0  0  0  0  0  0  0  0  0
   57.3880   31.8300   42.9450 C   0  0  0  0  0  0  0  0  0  0  0  0
   57.2020   31.6230   41.7140 O   0  0  0  0  0  0  0  0  0  0  0  0
   57.6090   30.6890   43.8610 C   0  0  0  0  0  0  0  0  0  0  0  0
   58.8220   30.5540   44.5600 C   0  0  0  0  0  0  0  0  0  0  0  0
   59.0320   29.4660   45.4110 C   0  0  0  0  0  0  0  0  0  0  0  0
   58.0340   28.4960   45.5830 C   0  0  0  0  0  0  0  0  0  0  0  0
   58.2840   27.2980   46.4610 C   0  0  0  0  0  0  0  0  0  0  0  0
   57.8740   25.9880   45.7760 C   0  0  0  0  0  0  0  0  0  0  0  0
   56.9180   25.2440   46.5940 N   0  0  0  0  0  0  0  0  0  0  0  0
   55.5160   25.1690   46.3250 C   0  0  0  0  0  0  0  0  0  0  0  0
   54.7720   26.3400   45.9960 N   0  0  0  0  0  0  0  0  0  0  0  0
   54.9350   24.0530   46.3750 O   0  0  0  0  0  0  0  0  0  0  0  0
   56.8210   28.6290   44.8890 C   0  0  0  0  0  0  0  0  0  0  0  0
   56.6100   29.7160   44.0360 C   0  0  0  0  0  0  0  0  0  0  0  0
   57.2300   33.2880   45.8910 C   0  0  0  0  0  0  0  0  0  0  0  0
   57.7780   33.6660   47.1210 C   0  0  0  0  0  0  0  0  0  0  0  0
   61.7070   32.1360   48.2760 C   0  0  0  0  0  0  0  0  0  0  0  0
   62.1750   32.7960   47.1260 C   0  0  0  0  0  0  0  0  0  0  0  0
   63.4150   33.4410   47.1350 C   0  0  0  0  0  0  0  0  0  0  0  0
   64.2040   33.4260   48.2890 C   0  0  0  0  0  0  0  0  0  0  0  0
   63.7540   32.7660   49.4340 C   0  0  0  0  0  0  0  0  0  0  0  0
   62.5130   32.1220   49.4310 C   0  0  0  0  0  0  0  0  0  0  0  0
   60.4762   30.1225   49.9750 H   0  0  0  0  0  0  0  0  0  0  0  0
   59.6330   29.4241   48.5509 H   0  0  0  0  0  0  0  0  0  0  0  0
   61.4231   29.5729   48.5509 H   0  0  0  0  0  0  0  0  0  0  0  0
   60.0313   31.3260   47.2204 H   0  0  0  0  0  0  0  0  0  0  0  0
   58.9915   35.5152   48.9019 H   0  0  0  0  0  0  0  0  0  0  0  0
   60.6443   35.0670   48.3456 H   0  0  0  0  0  0  0  0  0  0  0  0
   60.7652   34.9231   46.0273 H   0  0  0  0  0  0  0  0  0  0  0  0
   59.7995   34.2276   43.8398 H   0  0  0  0  0  0  0  0  0  0  0  0
   59.6109   31.3104   44.4358 H   0  0  0  0  0  0  0  0  0  0  0  0
   59.9863   29.3697   45.9495 H   0  0  0  0  0  0  0  0  0  0  0  0
   59.3562   27.2521   46.7023 H   0  0  0  0  0  0  0  0  0  0  0  0
   57.6759   27.4106   47.3707 H   0  0  0  0  0  0  0  0  0  0  0  0
   57.4123   26.2195   44.8048 H   0  0  0  0  0  0  0  0  0  0  0  0
   58.7729   25.3690   45.6387 H   0  0  0  0  0  0  0  0  0  0  0  0
   55.1520   27.2920   46.1990 H   0  0  0  0  0  0  0  0  0  0  0  0
   56.0320   27.8734   45.0172 H   0  0  0  0  0  0  0  0  0  0  0  0
   55.6553   29.8106   43.4979 H   0  0  0  0  0  0  0  0  0  0  0  0
   56.2367   32.8168   45.8553 H   0  0  0  0  0  0  0  0  0  0  0  0
   57.2062   33.5053   48.0468 H   0  0  0  0  0  0  0  0  0  0  0  0
   61.5612   32.8048   46.2132 H   0  0  0  0  0  0  0  0  0  0  0  0
   63.7704   33.9609   46.2331 H   0  0  0  0  0  0  0  0  0  0  0  0
   65.1795   33.9343   48.2949 H   0  0  0  0  0  0  0  0  0  0  0  0
   64.3771   32.7526   50.3404 H   0  0  0  0  0  0  0  0  0  0  0  0
   62.1643   31.6017   50.3353 H   0  0  0  0  0  0  0  0  0  0  0  0
  1  2  1  0
  2  3  1  0
  3  4  1  0
  4  5  2  0
  4  6  1  0
  6  7  1  0
  7  8  2  0
  8  9  1  0
  9 10  2  0
 10 11  1  0
 11 12  1  0
 12 13  2  0
 12 14  1  0
 14 15  2  0
 15 16  1  0
 16 17  2  0
 17 18  1  0
 18 19  1  0
 19 20  1  0
 20 21  1  0
 21 22  1  0
 21 23  2  0
 17 24  1  0
 24 25  2  0
 10 26  1  0
 26 27  2  0
  2 28  1  0
 28 29  2  0
 29 30  1  0
 30 31  2  0
 31 32  1  0
 32 33  2  0
 27  7  1  0
 33 28  1  0
 25 14  1  0
  1 34  1  0
  1 35  1  0
  1 36  1  0
  2 37  1  6
  6 38  1  0
  6 39  1  0
  8 40  1  0
  9 41  1  0
 15 42  1  0
 16 43  1  0
 18 44  1  0
 18 45  1  0
 19 46  1  0
 19 47  1  0
 22 48  1  0
 24 49  1  0
 25 50  1  0
 26 51  1  0
 27 52  1  0
 29 53  1  0
 30 54  1  0
 31 55  1  0
 32 56  1  0
 33 57  1  0
M  CHG  3   3  -1  20  -1  22  -1
M  END
>  <UniqueID>  (77) 
70

>  <SMILES>  (77) 
C[C@@H]([N-]C(=O)Cc1ccc(OC(=O)c2ccc(CC[N-]C([NH-])=O)cc2)cc1)c1ccccc1

>  <Energy>  (77) 
53.66285804801863

>  <Genealogy>  (77) 
CC([N-]C(=O)Cc1ccc(OC(=O)c2ccc(CC[N-]C([NH-])=O)cc2)cc1)c1ccccc1 (protonated)
C[C@@H]([N-]C(=O)Cc1ccc(OC(=O)c2ccc(CC[N-]C([NH-])=O)cc2)cc1)c1ccccc1 (chirality)
C[C@@H]([N-]C(=O)Cc1ccc(OC(=O)c2ccc(CC[N-]C([NH-])=O)cc2)cc1)c1ccccc1 (3D coordinates assigned)
C[C@@H]([N-]C(=O)Cc1ccc(OC(=O)c2ccc(CC[N-]C([NH-])=O)cc2)cc1)c1ccccc1 (optimized conformer: 53.66285804801863 kcal/mol)

>  <smiles>  (77) 
CC(NC(=O)Cc1ccc(OC(=O)c2ccc(CCNC(N)=O)cc2)cc1)c1ccccc1

>  <score_type>  (77) 
oracle

>  <origin>  (77) 
adg

>  <m_score__min__energy>  (77) 
-16.190000000000001

>  <m_primary>  (77) 
energy

$$$$
77:0
     RDKit          3D

 61 63  0  0  0  0  0  0  0  0999 V2000
   56.2400   29.7750   42.9390 C   0  0  0  0  0  0  0  0  0  0  0  0
   56.4110   29.3430   44.3930 C   0  0  0  0  0  0  0  0  0  0  0  0
   57.8660   29.0230   44.6960 C   0  0  0  0  0  0  0  0  0  0  0  0
   58.8290   30.0520   44.9040 C   0  0  0  0  0  0  0  0  0  0  0  0
   58.5150   31.5170   44.6910 C   0  0  0  0  0  0  0  0  0  0  0  0
   57.5100   31.9900   45.6440 N   0  0  0  0  0  0  0  0  0  0  0  0
   57.7550   32.8040   46.7990 C   0  0  0  0  0  0  0  0  0  0  0  0
   56.9590   33.7430   47.0630 O   0  0  0  0  0  0  0  0  0  0  0  0
   58.9450   32.6140   47.6520 C   0  0  0  0  0  0  0  0  0  0  0  0
   59.7210   33.7300   47.9410 C   0  0  0  0  0  0  0  0  0  0  0  0
   60.8850   33.6040   48.6910 C   0  0  0  0  0  0  0  0  0  0  0  0
   61.5680   34.6440   48.9060 O   0  0  0  0  0  0  0  0  0  0  0  0
   61.2850   32.3810   49.1860 N   0  0  0  0  0  0  0  0  0  0  0  0
   62.5250   32.3490   50.0030 C   0  0  0  0  0  0  0  0  0  0  0  0
   63.7710   32.0610   49.1480 C   0  0  0  0  0  0  0  0  0  0  0  0
   64.1750   33.2430   48.2590 C   0  0  0  0  0  0  0  0  0  0  0  0
   63.6910   33.0410   46.8190 C   0  0  0  0  0  0  0  0  0  0  0  0
   63.0250   34.1880   46.3690 O   0  0  0  0  0  0  0  0  0  0  0  0
   60.5320   31.2460   48.9170 C   0  0  0  0  0  0  0  0  0  0  0  0
   60.9110   29.9540   49.3690 C   0  0  0  0  0  0  0  0  0  0  0  0
   60.1210   28.8350   49.1070 C   0  0  0  0  0  0  0  0  0  0  0  0
   58.9370   28.9630   48.3930 C   0  0  0  0  0  0  0  0  0  0  0  0
   58.5400   30.2090   47.9200 C   0  0  0  0  0  0  0  0  0  0  0  0
   59.3300   31.3550   48.1530 C   0  0  0  0  0  0  0  0  0  0  0  0
   60.1410   29.7010   45.2700 C   0  0  0  0  0  0  0  0  0  0  0  0
   60.5220   28.3660   45.3710 C   0  0  0  0  0  0  0  0  0  0  0  0
   59.5970   27.3580   45.1270 C   0  0  0  0  0  0  0  0  0  0  0  0
   58.2710   27.6720   44.8110 C   0  0  0  0  0  0  0  0  0  0  0  0
   57.3430   26.6060   44.5880 N   0  0  0  0  0  0  0  0  0  0  0  0
   56.5620   25.8170   45.9150 S   0  0  0  0  0  0  0  0  0  0  0  0
   56.5420   24.0580   45.6400 C   0  0  0  0  0  0  0  0  0  0  0  0
   55.1440   26.3060   46.0140 O   0  0  0  0  0  0  0  0  0  0  0  0
   57.2900   26.1310   47.1920 O   0  0  0  0  0  0  0  0  0  0  0  0
   55.8353   30.7973   42.9054 H   0  0  0  0  0  0  0  0  0  0  0  0
   57.2158   29.7501   42.4319 H   0  0  0  0  0  0  0  0  0  0  0  0
   55.5456   29.0889   42.4319 H   0  0  0  0  0  0  0  0  0  0  0  0
   56.0764   30.1574   45.0525 H   0  0  0  0  0  0  0  0  0  0  0  0
   55.8091   28.4384   44.5641 H   0  0  0  0  0  0  0  0  0  0  0  0
   59.4364   32.1035   44.8215 H   0  0  0  0  0  0  0  0  0  0  0  0
   58.1147   31.6417   43.6741 H   0  0  0  0  0  0  0  0  0  0  0  0
   59.4122   34.7199   47.5739 H   0  0  0  0  0  0  0  0  0  0  0  0
   62.6505   33.3241   50.4964 H   0  0  0  0  0  0  0  0  0  0  0  0
   62.4248   31.5396   50.7411 H   0  0  0  0  0  0  0  0  0  0  0  0
   64.6097   31.8249   49.8194 H   0  0  0  0  0  0  0  0  0  0  0  0
   63.5264   31.2189   48.4839 H   0  0  0  0  0  0  0  0  0  0  0  0
   63.7293   34.1644   48.6619 H   0  0  0  0  0  0  0  0  0  0  0  0
   65.2726   33.3156   48.2517 H   0  0  0  0  0  0  0  0  0  0  0  0
   64.5561   32.8441   46.1688 H   0  0  0  0  0  0  0  0  0  0  0  0
   62.9978   32.1874   46.7889 H   0  0  0  0  0  0  0  0  0  0  0  0
   62.5460   34.5650   47.1540 H   0  0  0  0  0  0  0  0  0  0  0  0
   61.8455   29.8337   49.9366 H   0  0  0  0  0  0  0  0  0  0  0  0
   60.4376   27.8454   49.4680 H   0  0  0  0  0  0  0  0  0  0  0  0
   58.3125   28.0780   48.2013 H   0  0  0  0  0  0  0  0  0  0  0  0
   57.5992   30.3025   47.3577 H   0  0  0  0  0  0  0  0  0  0  0  0
   60.8759   30.4922   45.4793 H   0  0  0  0  0  0  0  0  0  0  0  0
   61.5560   28.1087   45.6441 H   0  0  0  0  0  0  0  0  0  0  0  0
   59.9100   26.3049   45.1828 H   0  0  0  0  0  0  0  0  0  0  0  0
   57.0770   26.3480   43.6100 H   0  0  0  0  0  0  0  0  0  0  0  0
   56.5361   23.5356   46.6080 H   0  0  0  0  0  0  0  0  0  0  0  0
   55.6407   23.7861   45.0710 H   0  0  0  0  0  0  0  0  0  0  0  0
   57.4369   23.7656   45.0710 H   0  0  0  0  0  0  0  0  0  0  0  0
  1  2  1  0
  2  3  1  0
  3  4  2  0
  4  5  1  0
  5  6  1  0
  6  7  1  0
  7  8  2  0
  7  9  1  0
  9 10  2  0
 10 11  1  0
 11 12  2  0
 11 13  1  0
 13 14  1  0
 14 15  1  0
 15 16  1  0
 16 17  1  0
 17 18  1  0
 13 19  1  0
 19 20  2  0
 20 21  1  0
 21 22  2  0
 22 23  1  0
 23 24  2  0
  4 25  1  0
 25 26  2  0
 26 27  1  0
 27 28  2  0
 28 29  1  0
 29 30  1  0
 30 31  1  0
 30 32  2  0
 30 33  2  0
 28  3  1  0
 24  9  1  0
 24 19  1  0
  1 34  1  0
  1 35  1  0
  1 36  1  0
  2 37  1  0
  2 38  1  0
  5 39  1  0
  5 40  1  0
 10 41  1  0
 14 42  1  0
 14 43  1  0
 15 44  1  0
 15 45  1  0
 16 46  1  0
 16 47  1  0
 17 48  1  0
 17 49  1  0
 18 50  1  0
 20 51  1  0
 21 52  1  0
 22 53  1  0
 23 54  1  0
 25 55  1  0
 26 56  1  0
 27 57  1  0
 29 58  1  0
 31 59  1  0
 31 60  1  0
 31 61  1  0
M  CHG  1   6  -1
M  END
>  <UniqueID>  (78) 
71

>  <SMILES>  (78) 
CCc1c(C[N-]C(=O)c2cc(=O)n(CCCCO)c3ccccc23)cccc1NS(C)(=O)=O

>  <Energy>  (78) 
72.27062548364364

>  <Genealogy>  (78) 
CCc1c(C[N-]C(=O)c2cc(=O)n(CCCCO)c3ccccc23)cccc1NS(C)(=O)=O (protonated)
CCc1c(C[N-]C(=O)c2cc(=O)n(CCCCO)c3ccccc23)cccc1NS(C)(=O)=O (3D coordinates assigned)
CCc1c(C[N-]C(=O)c2cc(=O)n(CCCCO)c3ccccc23)cccc1NS(C)(=O)=O (optimized conformer: 72.27062548364364 kcal/mol)

>  <smiles>  (78) 
CCc1c(CNC(=O)c2cc(=O)n(CCCCO)c3ccccc23)cccc1NS(C)(=O)=O

>  <score_type>  (78) 
oracle

>  <origin>  (78) 
adg

>  <m_score__min__energy>  (78) 
-11.289999999999999

>  <m_primary>  (78) 
energy

$$$$
78:0
     RDKit          3D

 68 69  0  0  0  0  0  0  0  0999 V2000
   56.7530   21.5040   42.9480 C   0  0  0  0  0  0  0  0  0  0  0  0
   57.0160   22.9440   43.3780 C   0  0  0  0  0  0  0  0  0  0  0  0
   55.7080   23.6800   43.6810 C   0  0  0  0  0  0  0  0  0  0  0  0
   55.5720   23.9480   45.1830 C   0  0  0  0  0  0  0  0  0  0  0  0
   54.2070   24.5550   45.5110 C   0  0  0  0  0  0  0  0  0  0  0  0
   54.3680   25.9590   45.8750 N   0  0  0  0  0  0  0  0  0  0  0  0
   55.6300   26.6280   46.0210 C   0  0  0  0  0  0  0  0  0  0  0  0
   56.5330   26.0920   46.7140 O   0  0  0  0  0  0  0  0  0  0  0  0
   55.8980   27.8820   45.3840 N   0  0  0  0  0  0  0  0  0  0  0  0
   57.1890   28.4890   45.2830 C   0  0  0  0  0  0  0  0  0  0  0  0
   58.3580   27.7120   45.2800 C   0  0  0  0  0  0  0  0  0  0  0  0
   59.6110   28.3380   45.2610 C   0  0  0  0  0  0  0  0  0  0  0  0
   59.6990   29.7310   45.2380 C   0  0  0  0  0  0  0  0  0  0  0  0
   58.5400   30.5180   45.2180 C   0  0  0  0  0  0  0  0  0  0  0  0
   58.7060   31.9120   45.1860 O   0  0  0  0  0  0  0  0  0  0  0  0
   58.0940   32.8680   46.0540 C   0  0  0  0  0  0  0  0  0  0  0  0
   58.4130   34.3080   45.6420 C   0  0  0  0  0  0  0  0  0  0  0  0
   59.4180   35.0130   46.5760 C   0  0  0  0  0  0  0  0  0  0  0  0
   60.2240   33.9860   47.3740 C   0  0  0  0  0  0  0  0  0  0  0  0
   59.6170   33.8230   48.6550 O   0  0  0  0  0  0  0  0  0  0  0  0
   59.3890   32.5780   49.2470 C   0  0  0  0  0  0  0  0  0  0  0  0
   59.3880   31.4130   48.4720 C   0  0  0  0  0  0  0  0  0  0  0  0
   59.1960   30.1720   49.0800 C   0  0  0  0  0  0  0  0  0  0  0  0
   59.0600   30.0860   50.4660 C   0  0  0  0  0  0  0  0  0  0  0  0
   59.1200   31.2410   51.2650 C   0  0  0  0  0  0  0  0  0  0  0  0
   59.0710   31.1300   52.7380 C   0  0  0  0  0  0  0  0  0  0  0  0
   60.1260   31.3200   53.4030 O   0  0  0  0  0  0  0  0  0  0  0  0
   57.8600   30.8490   53.4490 N   0  0  0  0  0  0  0  0  0  0  0  0
   56.3960   30.1860   52.7800 S   0  0  0  0  0  0  0  0  0  0  0  0
   55.0150   30.2860   53.9070 C   0  0  0  0  0  0  0  0  0  0  0  0
   56.0350   30.9800   51.5590 O   0  0  0  0  0  0  0  0  0  0  0  0
   56.6300   28.7620   52.3700 O   0  0  0  0  0  0  0  0  0  0  0  0
   59.2010   32.5060   50.6420 C   0  0  0  0  0  0  0  0  0  0  0  0
   59.1620   33.6650   51.4280 O   0  0  0  0  0  0  0  0  0  0  0  0
   58.1290   33.9490   52.3650 C   0  0  0  0  0  0  0  0  0  0  0  0
   57.2830   29.8870   45.2210 C   0  0  0  0  0  0  0  0  0  0  0  0
   56.6373   20.8704   43.8397 H   0  0  0  0  0  0  0  0  0  0  0  0
   55.8325   21.4631   42.3471 H   0  0  0  0  0  0  0  0  0  0  0  0
   57.5996   21.1403   42.3471 H   0  0  0  0  0  0  0  0  0  0  0  0
   57.6427   22.9396   44.2820 H   0  0  0  0  0  0  0  0  0  0  0  0
   57.5259   23.4654   42.5545 H   0  0  0  0  0  0  0  0  0  0  0  0
   55.6997   24.6384   43.1412 H   0  0  0  0  0  0  0  0  0  0  0  0
   54.8656   23.0514   43.3566 H   0  0  0  0  0  0  0  0  0  0  0  0
   55.6844   22.9997   45.7290 H   0  0  0  0  0  0  0  0  0  0  0  0
   56.3536   24.6613   45.4835 H   0  0  0  0  0  0  0  0  0  0  0  0
   53.5516   24.4782   44.6309 H   0  0  0  0  0  0  0  0  0  0  0  0
   53.7585   24.0091   46.3541 H   0  0  0  0  0  0  0  0  0  0  0  0
   58.2903   26.6142   45.2925 H   0  0  0  0  0  0  0  0  0  0  0  0
   60.5279   27.7304   45.2642 H   0  0  0  0  0  0  0  0  0  0  0  0
   60.6868   30.2150   45.2356 H   0  0  0  0  0  0  0  0  0  0  0  0
   57.0037   32.7247   46.0269 H   0  0  0  0  0  0  0  0  0  0  0  0
   58.4926   32.7095   47.0669 H   0  0  0  0  0  0  0  0  0  0  0  0
   58.8348   34.2931   44.6262 H   0  0  0  0  0  0  0  0  0  0  0  0
   57.4714   34.8740   45.6977 H   0  0  0  0  0  0  0  0  0  0  0  0
   60.1064   35.6225   45.9722 H   0  0  0  0  0  0  0  0  0  0  0  0
   58.8616   35.6506   47.2788 H   0  0  0  0  0  0  0  0  0  0  0  0
   60.2279   33.0237   46.8412 H   0  0  0  0  0  0  0  0  0  0  0  0
   61.2610   34.3335   47.4922 H   0  0  0  0  0  0  0  0  0  0  0  0
   59.5385   31.4755   47.3841 H   0  0  0  0  0  0  0  0  0  0  0  0
   59.1518   29.2604   48.4660 H   0  0  0  0  0  0  0  0  0  0  0  0
   58.9043   29.1047   50.9381 H   0  0  0  0  0  0  0  0  0  0  0  0
   55.3843   30.2593   54.9428 H   0  0  0  0  0  0  0  0  0  0  0  0
   54.4697   31.2260   53.7363 H   0  0  0  0  0  0  0  0  0  0  0  0
   54.3400   29.4344   53.7363 H   0  0  0  0  0  0  0  0  0  0  0  0
   58.5212   33.8412   53.3870 H   0  0  0  0  0  0  0  0  0  0  0  0
   57.7718   34.9787   52.2161 H   0  0  0  0  0  0  0  0  0  0  0  0
   57.2956   33.2467   52.2161 H   0  0  0  0  0  0  0  0  0  0  0  0
   56.3670   30.4943   45.1744 H   0  0  0  0  0  0  0  0  0  0  0  0
  1  2  1  0
  2  3  1  0
  3  4  1  0
  4  5  1  0
  5  6  1  0
  6  7  1  0
  7  8  2  0
  7  9  1  0
  9 10  1  0
 10 11  2  0
 11 12  1  0
 12 13  2  0
 13 14  1  0
 14 15  1  0
 15 16  1  0
 16 17  1  0
 17 18  1  0
 18 19  1  0
 19 20  1  0
 20 21  1  0
 21 22  2  0
 22 23  1  0
 23 24  2  0
 24 25  1  0
 25 26  1  0
 26 27  2  0
 26 28  1  0
 28 29  1  0
 29 30  1  0
 29 31  2  0
 29 32  2  0
 25 33  2  0
 33 34  1  0
 34 35  1  0
 14 36  2  0
 36 10  1  0
 33 21  1  0
  1 37  1  0
  1 38  1  0
  1 39  1  0
  2 40  1  0
  2 41  1  0
  3 42  1  0
  3 43  1  0
  4 44  1  0
  4 45  1  0
  5 46  1  0
  5 47  1  0
 11 48  1  0
 12 49  1  0
 13 50  1  0
 16 51  1  0
 16 52  1  0
 17 53  1  0
 17 54  1  0
 18 55  1  0
 18 56  1  0
 19 57  1  0
 19 58  1  0
 22 59  1  0
 23 60  1  0
 24 61  1  0
 30 62  1  0
 30 63  1  0
 30 64  1  0
 35 65  1  0
 35 66  1  0
 35 67  1  0
 36 68  1  0
M  CHG  3   6  -1   9  -1  28  -1
M  END
>  <UniqueID>  (79) 
72

>  <SMILES>  (79) 
CCCCC[N-]C(=O)[N-]c1cccc(OCCCCOc2cccc(C(=O)[N-]S(C)(=O)=O)c2OC)c1

>  <Energy>  (79) 
75.49545811518564

>  <Genealogy>  (79) 
CCCCC[N-]C(=O)[N-]c1cccc(OCCCCOc2cccc(C(=O)[N-]S(C)(=O)=O)c2OC)c1 (protonated)
CCCCC[N-]C(=O)[N-]c1cccc(OCCCCOc2cccc(C(=O)[N-]S(C)(=O)=O)c2OC)c1 (3D coordinates assigned)
CCCCC[N-]C(=O)[N-]c1cccc(OCCCCOc2cccc(C(=O)[N-]S(C)(=O)=O)c2OC)c1 (optimized conformer: 75.49545811518564 kcal/mol)

>  <smiles>  (79) 
CCCCCNC(=O)Nc1cccc(OCCCCOc2cccc(C(=O)NS(C)(=O)=O)c2OC)c1

>  <score_type>  (79) 
oracle

>  <origin>  (79) 
adg

>  <m_score__min__energy>  (79) 
-12.539999999999999

>  <m_primary>  (79) 
energy

$$$$
79:0
     RDKit          3D

 34 35  0  0  0  0  0  0  0  0999 V2000
   60.4530   26.4420   46.2780 C   0  0  0  0  0  0  0  0  0  0  0  0
   59.2300   27.1250   45.8640 N   0  0  0  0  0  0  0  0  0  0  0  0
   59.1750   28.3000   45.1990 C   0  0  0  0  0  0  0  0  0  0  0  0
   57.8450   28.6180   44.9900 C   0  0  0  0  0  0  0  0  0  0  0  0
   57.2020   30.0530   44.2100 S   0  0  0  0  0  0  0  0  0  0  0  0
   55.8750   30.3870   44.8310 O   0  0  0  0  0  0  0  0  0  0  0  0
   57.0060   29.7810   42.7440 O   0  0  0  0  0  0  0  0  0  0  0  0
   58.3140   31.3830   44.4210 N   0  0  0  0  0  0  0  0  0  0  0  0
   57.7740   32.6320   43.8250 C   0  0  0  0  0  0  0  0  0  0  0  0
   57.2090   33.6020   44.8730 C   0  0  0  0  0  0  0  0  0  0  0  0
   58.2810   33.9930   45.9050 C   0  0  0  0  0  0  0  0  0  0  0  0
   59.3010   32.8670   46.1570 C   0  0  0  0  0  0  0  0  0  0  0  0
   58.6960   31.4940   45.8460 C   0  0  0  0  0  0  0  0  0  0  0  0
   57.1370   27.5820   45.5590 C   0  0  0  0  0  0  0  0  0  0  0  0
   55.8820   27.4870   45.6090 O   0  0  0  0  0  0  0  0  0  0  0  0
   57.9950   26.6800   46.0710 N   0  0  0  0  0  0  0  0  0  0  0  0
   57.6460   25.4660   46.8080 C   0  0  0  0  0  0  0  0  0  0  0  0
   60.5034   26.4139   47.3765 H   0  0  0  0  0  0  0  0  0  0  0  0
   60.4504   25.4147   45.8846 H   0  0  0  0  0  0  0  0  0  0  0  0
   61.3262   26.9830   45.8846 H   0  0  0  0  0  0  0  0  0  0  0  0
   60.0393   28.9005   44.8789 H   0  0  0  0  0  0  0  0  0  0  0  0
   58.5837   33.1385   43.2792 H   0  0  0  0  0  0  0  0  0  0  0  0
   56.9454   32.3475   43.1598 H   0  0  0  0  0  0  0  0  0  0  0  0
   56.8516   34.5101   44.3655 H   0  0  0  0  0  0  0  0  0  0  0  0
   56.3835   33.1020   45.4009 H   0  0  0  0  0  0  0  0  0  0  0  0
   58.8186   34.8788   45.5358 H   0  0  0  0  0  0  0  0  0  0  0  0
   57.7681   34.1962   46.8566 H   0  0  0  0  0  0  0  0  0  0  0  0
   60.1787   33.0268   45.5135 H   0  0  0  0  0  0  0  0  0  0  0  0
   59.5901   32.8889   47.2181 H   0  0  0  0  0  0  0  0  0  0  0  0
   59.4368   30.7152   46.0797 H   0  0  0  0  0  0  0  0  0  0  0  0
   57.7908   31.3677   46.4581 H   0  0  0  0  0  0  0  0  0  0  0  0
   57.7029   25.6639   47.8885 H   0  0  0  0  0  0  0  0  0  0  0  0
   56.6231   25.1586   46.5449 H   0  0  0  0  0  0  0  0  0  0  0  0
   58.3495   24.6623   46.5449 H   0  0  0  0  0  0  0  0  0  0  0  0
  1  2  1  0
  2  3  1  0
  3  4  2  0
  4  5  1  0
  5  6  2  0
  5  7  2  0
  5  8  1  0
  8  9  1  0
  9 10  1  0
 10 11  1  0
 11 12  1  0
 12 13  1  0
  4 14  1  0
 14 15  2  0
 14 16  1  0
 16 17  1  0
 16  2  1  0
 13  8  1  0
  1 18  1  0
  1 19  1  0
  1 20  1  0
  3 21  1  0
  9 22  1  0
  9 23  1  0
 10 24  1  0
 10 25  1  0
 11 26  1  0
 11 27  1  0
 12 28  1  0
 12 29  1  0
 13 30  1  0
 13 31  1  0
 17 32  1  0
 17 33  1  0
 17 34  1  0
M  END
>  <UniqueID>  (80) 
73

>  <SMILES>  (80) 
Cn1cc(S(=O)(=O)N2CCCCC2)c(=O)n1C

>  <Energy>  (80) 
70.58211965924797

>  <Genealogy>  (80) 
Cn1cc(S(=O)(=O)N2CCCCC2)c(=O)n1C (3D coordinates assigned)
Cn1cc(S(=O)(=O)N2CCCCC2)c(=O)n1C (nonaromatic ring conformer: 70.58211965924797 kcal/mol)

>  <smiles>  (80) 
Cn1cc(S(=O)(=O)N2CCCCC2)c(=O)n1C

>  <score_type>  (80) 
oracle

>  <origin>  (80) 
adg

>  <m_score__min__energy>  (80) 
-6.8499999999999996

>  <m_primary>  (80) 
energy

$$$$
80:0
     RDKit          3D

 43 45  0  0  0  0  0  0  0  0999 V2000
   56.6060   20.9180   48.0870 C   0  0  0  0  0  0  0  0  0  0  0  0
   57.3380   21.8660   47.3170 O   0  0  0  0  0  0  0  0  0  0  0  0
   57.1080   22.1340   45.9560 C   0  0  0  0  0  0  0  0  0  0  0  0
   57.8660   21.5190   44.9400 C   0  0  0  0  0  0  0  0  0  0  0  0
   57.6170   21.8130   43.5970 C   0  0  0  0  0  0  0  0  0  0  0  0
   56.6140   22.7200   43.2530 C   0  0  0  0  0  0  0  0  0  0  0  0
   55.8550   23.3340   44.2490 C   0  0  0  0  0  0  0  0  0  0  0  0
   56.0910   23.0460   45.6040 C   0  0  0  0  0  0  0  0  0  0  0  0
   55.2770   23.7340   46.6700 C   0  0  0  0  0  0  0  0  0  0  0  0
   55.9950   24.8950   47.1840 N   0  0  0  0  0  0  0  0  0  0  0  0
   56.1560   26.1170   46.4540 C   0  0  0  0  0  0  0  0  0  0  0  0
   55.1410   26.7150   46.0040 O   0  0  0  0  0  0  0  0  0  0  0  0
   57.5090   26.6760   46.2260 C   0  0  0  0  0  0  0  0  0  0  0  0
   58.6400   25.8400   46.2570 C   0  0  0  0  0  0  0  0  0  0  0  0
   59.9150   26.3670   46.0370 C   0  0  0  0  0  0  0  0  0  0  0  0
   60.0800   27.7310   45.7950 C   0  0  0  0  0  0  0  0  0  0  0  0
   58.9660   28.5890   45.7820 C   0  0  0  0  0  0  0  0  0  0  0  0
   59.1070   29.9950   45.5150 N   0  0  0  0  0  0  0  0  0  0  0  0
   57.9990   30.8790   45.2750 C   0  0  0  0  0  0  0  0  0  0  0  0
   56.8680   30.4110   44.9730 O   0  0  0  0  0  0  0  0  0  0  0  0
   58.1710   32.3400   45.3310 C   0  0  0  0  0  0  0  0  0  0  0  0
   57.1990   33.2960   45.0930 C   0  0  0  0  0  0  0  0  0  0  0  0
   57.8280   34.5110   45.2550 C   0  0  0  0  0  0  0  0  0  0  0  0
   59.1390   34.2260   45.5770 C   0  0  0  0  0  0  0  0  0  0  0  0
   59.3120   32.9260   45.6140 O   0  0  0  0  0  0  0  0  0  0  0  0
   57.6850   28.0500   45.9810 C   0  0  0  0  0  0  0  0  0  0  0  0
   56.7603   21.1178   49.1577 H   0  0  0  0  0  0  0  0  0  0  0  0
   55.5352   21.0008   47.8491 H   0  0  0  0  0  0  0  0  0  0  0  0
   56.9570   19.9030   47.8491 H   0  0  0  0  0  0  0  0  0  0  0  0
   58.6582   20.8035   45.2056 H   0  0  0  0  0  0  0  0  0  0  0  0
   58.2128   21.3285   42.8094 H   0  0  0  0  0  0  0  0  0  0  0  0
   56.4217   22.9510   42.1949 H   0  0  0  0  0  0  0  0  0  0  0  0
   55.0661   24.0487   43.9719 H   0  0  0  0  0  0  0  0  0  0  0  0
   54.3185   24.0609   46.2404 H   0  0  0  0  0  0  0  0  0  0  0  0
   55.0988   23.0289   47.4953 H   0  0  0  0  0  0  0  0  0  0  0  0
   58.5197   24.7648   46.4557 H   0  0  0  0  0  0  0  0  0  0  0  0
   60.7924   25.7038   46.0547 H   0  0  0  0  0  0  0  0  0  0  0  0
   61.0861   28.1371   45.6135 H   0  0  0  0  0  0  0  0  0  0  0  0
   60.0740   30.3690   45.3860 H   0  0  0  0  0  0  0  0  0  0  0  0
   56.1452   33.1222   44.8297 H   0  0  0  0  0  0  0  0  0  0  0  0
   57.3758   35.5081   45.1489 H   0  0  0  0  0  0  0  0  0  0  0  0
   59.9205   34.9750   45.7729 H   0  0  0  0  0  0  0  0  0  0  0  0
   56.8067   28.7113   45.9448 H   0  0  0  0  0  0  0  0  0  0  0  0
  1  2  1  0
  2  3  1  0
  3  4  2  0
  4  5  1  0
  5  6  2  0
  6  7  1  0
  7  8  2  0
  8  9  1  0
  9 10  1  0
 10 11  1  0
 11 12  2  0
 11 13  1  0
 13 14  2  0
 14 15  1  0
 15 16  2  0
 16 17  1  0
 17 18  1  0
 18 19  1  0
 19 20  2  0
 19 21  1  0
 21 22  2  0
 22 23  1  0
 23 24  2  0
 24 25  1  0
 17 26  2  0
  8  3  1  0
 26 13  1  0
 25 21  1  0
  1 27  1  0
  1 28  1  0
  1 29  1  0
  4 30  1  0
  5 31  1  0
  6 32  1  0
  7 33  1  0
  9 34  1  0
  9 35  1  0
 14 36  1  0
 15 37  1  0
 16 38  1  0
 18 39  1  0
 22 40  1  0
 23 41  1  0
 24 42  1  0
 26 43  1  0
M  CHG  1  10  -1
M  END
>  <UniqueID>  (81) 
74

>  <SMILES>  (81) 
COc1ccccc1C[N-]C(=O)c1cccc(NC(=O)c2ccco2)c1

>  <Energy>  (81) 
72.49527994752476

>  <Genealogy>  (81) 
COc1ccccc1C[N-]C(=O)c1cccc(NC(=O)c2ccco2)c1 (protonated)
COc1ccccc1C[N-]C(=O)c1cccc(NC(=O)c2ccco2)c1 (3D coordinates assigned)
COc1ccccc1C[N-]C(=O)c1cccc(NC(=O)c2ccco2)c1 (optimized conformer: 72.49527994752476 kcal/mol)

>  <smiles>  (81) 
COc1ccccc1CNC(=O)c1cccc(NC(=O)c2ccco2)c1

>  <score_type>  (81) 
oracle

>  <origin>  (81) 
adg

>  <m_score__min__energy>  (81) 
-10

>  <m_primary>  (81) 
energy

$$$$
81:0
     RDKit          3D

 47 50  0  0  0  0  0  0  0  0999 V2000
   58.5220   34.3360   52.4500 C   0  0  0  0  0  0  0  0  0  0  0  0
   58.6400   33.0600   51.6710 C   0  0  0  0  0  0  0  0  0  0  0  0
   57.8660   31.9490   52.0290 C   0  0  0  0  0  0  0  0  0  0  0  0
   57.9510   30.7740   51.2810 C   0  0  0  0  0  0  0  0  0  0  0  0
   57.2560   29.7760   51.6180 O   0  0  0  0  0  0  0  0  0  0  0  0
   58.8050   30.7160   50.1640 C   0  0  0  0  0  0  0  0  0  0  0  0
   58.9230   29.5520   49.3800 C   0  0  0  0  0  0  0  0  0  0  0  0
   59.7810   29.5230   48.2640 C   0  0  0  0  0  0  0  0  0  0  0  0
   59.9210   28.3460   47.4440 N   0  0  0  0  0  0  0  0  0  0  0  0
   58.7830   27.5970   46.9080 C   0  0  0  0  0  0  0  0  0  0  0  0
   58.1420   28.3470   45.7710 C   0  0  0  0  0  0  0  0  0  0  0  0
   57.9620   27.7290   44.5240 C   0  0  0  0  0  0  0  0  0  0  0  0
   57.3910   28.4390   43.4650 C   0  0  0  0  0  0  0  0  0  0  0  0
   57.0170   29.7740   43.6350 C   0  0  0  0  0  0  0  0  0  0  0  0
   57.2260   30.4170   44.8600 C   0  0  0  0  0  0  0  0  0  0  0  0
   56.8390   31.7570   44.9930 O   0  0  0  0  0  0  0  0  0  0  0  0
   57.6730   32.8070   45.4070 C   0  0  0  0  0  0  0  0  0  0  0  0
   58.3920   33.5940   44.4860 C   0  0  0  0  0  0  0  0  0  0  0  0
   59.2010   34.6410   44.9390 C   0  0  0  0  0  0  0  0  0  0  0  0
   59.2900   34.9170   46.3050 C   0  0  0  0  0  0  0  0  0  0  0  0
   58.5650   34.1520   47.2220 C   0  0  0  0  0  0  0  0  0  0  0  0
   57.7540   33.1040   46.7730 C   0  0  0  0  0  0  0  0  0  0  0  0
   57.7770   29.6930   45.9340 C   0  0  0  0  0  0  0  0  0  0  0  0
   60.5180   30.6710   47.9400 C   0  0  0  0  0  0  0  0  0  0  0  0
   60.4070   31.8310   48.7090 C   0  0  0  0  0  0  0  0  0  0  0  0
   59.5570   31.8650   49.8230 C   0  0  0  0  0  0  0  0  0  0  0  0
   59.4510   32.9990   50.5750 N   0  0  0  0  0  0  0  0  0  0  0  0
   58.5428   34.1115   53.5267 H   0  0  0  0  0  0  0  0  0  0  0  0
   59.3627   34.9989   52.1974 H   0  0  0  0  0  0  0  0  0  0  0  0
   57.5740   34.8335   52.1974 H   0  0  0  0  0  0  0  0  0  0  0  0
   57.1929   32.0025   52.8974 H   0  0  0  0  0  0  0  0  0  0  0  0
   58.3394   28.6571   49.6420 H   0  0  0  0  0  0  0  0  0  0  0  0
   60.8890   28.0190   47.2180 H   0  0  0  0  0  0  0  0  0  0  0  0
   59.1328   26.6195   46.5444 H   0  0  0  0  0  0  0  0  0  0  0  0
   58.0394   27.4624   47.7074 H   0  0  0  0  0  0  0  0  0  0  0  0
   58.2712   26.6832   44.3801 H   0  0  0  0  0  0  0  0  0  0  0  0
   57.2355   27.9453   42.4944 H   0  0  0  0  0  0  0  0  0  0  0  0
   56.5555   30.3230   42.8010 H   0  0  0  0  0  0  0  0  0  0  0  0
   58.3170   33.3847   43.4087 H   0  0  0  0  0  0  0  0  0  0  0  0
   59.7682   35.2481   44.2181 H   0  0  0  0  0  0  0  0  0  0  0  0
   59.9315   35.7374   46.6593 H   0  0  0  0  0  0  0  0  0  0  0  0
   58.6318   34.3737   48.2974 H   0  0  0  0  0  0  0  0  0  0  0  0
   57.1769   32.5101   47.4970 H   0  0  0  0  0  0  0  0  0  0  0  0
   57.9226   30.1848   46.9071 H   0  0  0  0  0  0  0  0  0  0  0  0
   61.1912   30.6575   47.0702 H   0  0  0  0  0  0  0  0  0  0  0  0
   60.9902   32.7237   48.4390 H   0  0  0  0  0  0  0  0  0  0  0  0
   60.0030   33.8460   50.3070 H   0  0  0  0  0  0  0  0  0  0  0  0
  1  2  1  0
  2  3  2  0
  3  4  1  0
  4  5  2  0
  4  6  1  0
  6  7  2  0
  7  8  1  0
  8  9  1  0
  9 10  1  0
 10 11  1  0
 11 12  2  0
 12 13  1  0
 13 14  2  0
 14 15  1  0
 15 16  1  0
 16 17  1  0
 17 18  2  0
 18 19  1  0
 19 20  2  0
 20 21  1  0
 21 22  2  0
 15 23  2  0
  8 24  2  0
 24 25  1  0
 25 26  2  0
 26 27  1  0
 27  2  1  0
 26  6  1  0
 23 11  1  0
 22 17  1  0
  1 28  1  0
  1 29  1  0
  1 30  1  0
  3 31  1  0
  7 32  1  0
  9 33  1  0
 10 34  1  0
 10 35  1  0
 12 36  1  0
 13 37  1  0
 14 38  1  0
 18 39  1  0
 19 40  1  0
 20 41  1  0
 21 42  1  0
 22 43  1  0
 23 44  1  0
 24 45  1  0
 25 46  1  0
 27 47  1  0
M  END
>  <UniqueID>  (82) 
75

>  <SMILES>  (82) 
Cc1cc(=O)c2cc(NCc3cccc(Oc4ccccc4)c3)ccc2[nH]1

>  <Energy>  (82) 
61.13368470663824

>  <Genealogy>  (82) 
Cc1cc(=O)c2cc(NCc3cccc(Oc4ccccc4)c3)ccc2[nH]1 (3D coordinates assigned)
Cc1cc(=O)c2cc(NCc3cccc(Oc4ccccc4)c3)ccc2[nH]1 (optimized conformer: 61.13368470663824 kcal/mol)

>  <smiles>  (82) 
Cc1cc(=O)c2cc(NCc3cccc(Oc4ccccc4)c3)ccc2[nH]1

>  <score_type>  (82) 
oracle

>  <origin>  (82) 
adg

>  <m_score__min__energy>  (82) 
-8.9499999999999993

>  <m_primary>  (82) 
energy

$$$$
82:0
     RDKit          3D

 30 31  0  0  0  0  0  0  0  0999 V2000
   59.9070   28.5210   45.1160 C   0  0  0  0  0  0  0  0  0  0  0  0
   58.3940   28.5360   45.1320 C   0  0  0  0  0  0  0  0  0  0  0  0
   57.6690   27.4100   45.5850 C   0  0  0  0  0  0  0  0  0  0  0  0
   58.3390   26.2060   46.0230 C   0  0  0  0  0  0  0  0  0  0  0  0
   58.8750   25.2420   46.3730 N   0  0  0  0  0  0  0  0  0  0  0  0
   56.2700   27.4630   45.6220 C   0  0  0  0  0  0  0  0  0  0  0  0
   55.5330   26.3640   46.0560 O   0  0  0  0  0  0  0  0  0  0  0  0
   55.6240   28.5910   45.2310 N   0  0  0  0  0  0  0  0  0  0  0  0
   56.2840   29.7000   44.8150 C   0  0  0  0  0  0  0  0  0  0  0  0
   55.6140   30.6950   44.4400 O   0  0  0  0  0  0  0  0  0  0  0  0
   57.6960   29.7140   44.7840 C   0  0  0  0  0  0  0  0  0  0  0  0
   58.4430   30.8820   44.3970 N   0  0  0  0  0  0  0  0  0  0  0  0
   58.4540   32.4180   45.2050 S   0  0  0  0  0  0  0  0  0  0  0  0
   58.4610   33.5110   44.1770 O   0  0  0  0  0  0  0  0  0  0  0  0
   57.2150   32.5450   46.0480 O   0  0  0  0  0  0  0  0  0  0  0  0
   59.9050   32.5710   46.1920 C   0  0  0  0  0  0  0  0  0  0  0  0
   60.5280   33.8190   46.3290 C   0  0  0  0  0  0  0  0  0  0  0  0
   61.6870   33.9450   47.1010 C   0  0  0  0  0  0  0  0  0  0  0  0
   62.2260   32.8270   47.7450 C   0  0  0  0  0  0  0  0  0  0  0  0
   63.8090   33.0010   48.7980 Br  0  0  0  0  0  0  0  0  0  0  0  0
   61.6020   31.5810   47.6170 C   0  0  0  0  0  0  0  0  0  0  0  0
   60.4440   31.4520   46.8450 C   0  0  0  0  0  0  0  0  0  0  0  0
   60.2846   28.5173   46.1492 H   0  0  0  0  0  0  0  0  0  0  0  0
   60.2592   27.6193   44.5936 H   0  0  0  0  0  0  0  0  0  0  0  0
   60.2771   29.4155   44.5936 H   0  0  0  0  0  0  0  0  0  0  0  0
   55.1390   26.3370   46.9890 H   0  0  0  0  0  0  0  0  0  0  0  0
   60.1041   34.7017   45.8279 H   0  0  0  0  0  0  0  0  0  0  0  0
   62.1756   34.9254   47.2019 H   0  0  0  0  0  0  0  0  0  0  0  0
   62.0238   30.7012   48.1250 H   0  0  0  0  0  0  0  0  0  0  0  0
   59.9544   30.4717   46.7492 H   0  0  0  0  0  0  0  0  0  0  0  0
  1  2  1  0
  2  3  1  0
  3  4  1  0
  4  5  3  0
  3  6  2  0
  6  7  1  0
  6  8  1  0
  8  9  1  0
  9 10  2  0
  9 11  1  0
 11 12  1  0
 12 13  1  0
 13 14  2  0
 13 15  2  0
 13 16  1  0
 16 17  2  0
 17 18  1  0
 18 19  2  0
 19 20  1  0
 19 21  1  0
 21 22  2  0
 11  2  2  0
 22 16  1  0
  1 23  1  0
  1 24  1  0
  1 25  1  0
  7 26  1  0
 17 27  1  0
 18 28  1  0
 21 29  1  0
 22 30  1  0
M  CHG  2   8  -1  12  -1
M  END
>  <UniqueID>  (83) 
76

>  <SMILES>  (83) 
Cc1c(C#N)c(O)[n-]c(=O)c1[N-]S(=O)(=O)c1ccc(Br)cc1

>  <Energy>  (83) 
39.42476629289461

>  <Genealogy>  (83) 
Cc1c(C#N)c(O)[n-]c(=O)c1[N-]S(=O)(=O)c1ccc(Br)cc1 (protonated)
Cc1c(C#N)c(O)[n-]c(=O)c1[N-]S(=O)(=O)c1ccc(Br)cc1 (3D coordinates assigned)
Cc1c(C#N)c(O)[n-]c(=O)c1[N-]S(=O)(=O)c1ccc(Br)cc1 (optimized conformer: 39.42476629289461 kcal/mol)

>  <smiles>  (83) 
Cc1c(C#N)c(O)[nH]c(=O)c1NS(=O)(=O)c1ccc(Br)cc1

>  <score_type>  (83) 
oracle

>  <origin>  (83) 
adg

>  <m_score__min__energy>  (83) 
-12.01

>  <m_primary>  (83) 
energy

$$$$
83:0
     RDKit          3D

 25 26  0  0  0  0  0  0  0  0999 V2000
   55.6190   24.4400   47.2700 O   0  0  0  0  0  0  0  0  0  0  0  0
   55.7420   24.9250   46.1150 C   0  0  0  0  0  0  0  0  0  0  0  0
   55.5670   26.3360   45.9360 N   0  0  0  0  0  0  0  0  0  0  0  0
   56.6130   27.3160   45.8730 C   0  0  0  0  0  0  0  0  0  0  0  0
   57.9010   26.9540   46.2900 C   0  0  0  0  0  0  0  0  0  0  0  0
   58.9610   27.8770   46.2400 C   0  0  0  0  0  0  0  0  0  0  0  0
   60.2780   27.5080   46.6870 N   0  0  0  0  0  0  0  0  0  0  0  0
   60.7730   28.0270   47.7110 O   0  0  0  0  0  0  0  0  0  0  0  0
   61.0170   26.5750   45.9940 O   0  0  0  0  0  0  0  0  0  0  0  0
   58.7150   29.1700   45.7470 C   0  0  0  0  0  0  0  0  0  0  0  0
   57.4410   29.5260   45.2990 C   0  0  0  0  0  0  0  0  0  0  0  0
   56.3930   28.6030   45.3460 C   0  0  0  0  0  0  0  0  0  0  0  0
   55.1480   28.9670   44.8450 O   0  0  0  0  0  0  0  0  0  0  0  0
   55.9970   24.0210   44.9750 C   0  0  0  0  0  0  0  0  0  0  0  0
   56.5800   24.3980   43.7770 C   0  0  0  0  0  0  0  0  0  0  0  0
   56.6520   23.2580   43.0070 C   0  0  0  0  0  0  0  0  0  0  0  0
   56.1160   22.2530   43.7800 C   0  0  0  0  0  0  0  0  0  0  0  0
   55.9970   20.9280   43.3780 O   0  0  0  0  0  0  0  0  0  0  0  0
   55.7160   22.7010   44.9850 N   0  0  0  0  0  0  0  0  0  0  0  0
   58.0853   25.9350   46.6611 H   0  0  0  0  0  0  0  0  0  0  0  0
   59.5314   29.9065   45.7138 H   0  0  0  0  0  0  0  0  0  0  0  0
   57.2617   30.5381   44.9072 H   0  0  0  0  0  0  0  0  0  0  0  0
   56.9181   25.4064   43.4962 H   0  0  0  0  0  0  0  0  0  0  0  0
   57.0540   23.1693   41.9870 H   0  0  0  0  0  0  0  0  0  0  0  0
   56.7820   20.2930   43.4550 H   0  0  0  0  0  0  0  0  0  0  0  0
  1  2  2  0
  2  3  1  0
  3  4  1  0
  4  5  2  0
  5  6  1  0
  6  7  1  0
  7  8  2  0
  7  9  1  0
  6 10  2  0
 10 11  1  0
 11 12  2  0
 12 13  1  0
  2 14  1  0
 14 15  2  0
 15 16  1  0
 16 17  2  0
 17 18  1  0
 17 19  1  0
 12  4  1  0
 19 14  1  0
  5 20  1  0
 10 21  1  0
 11 22  1  0
 15 23  1  0
 16 24  1  0
 18 25  1  0
M  CHG  5   3  -1   7   1   9  -1  13  -1  19  -1
M  END
>  <UniqueID>  (84) 
77

>  <SMILES>  (84) 
O=C([N-]c1cc([N+](=O)[O-])ccc1[O-])c1ccc(O)[n-]1

>  <Energy>  (84) 
57.56915424408751

>  <Genealogy>  (84) 
O=C([N-]c1cc([N+](=O)[O-])ccc1[O-])c1ccc(O)[n-]1 (protonated)
O=C([N-]c1cc([N+](=O)[O-])ccc1[O-])c1ccc(O)[n-]1 (3D coordinates assigned)
O=C([N-]c1cc([N+](=O)[O-])ccc1[O-])c1ccc(O)[n-]1 (optimized conformer: 57.56915424408751 kcal/mol)

>  <smiles>  (84) 
O=C(Nc1cc([N+](=O)[O-])ccc1O)c1ccc(O)[nH]1

>  <score_type>  (84) 
oracle

>  <origin>  (84) 
adg

>  <m_score__min__energy>  (84) 
-13.66

>  <m_primary>  (84) 
energy

$$$$
84:0
     RDKit          3D

 31 32  0  0  0  0  0  0  0  0999 V2000
   59.0000   36.1500   47.5310 H   0  0  0  0  0  0  0  0  0  0  0  0
   59.5160   35.3520   47.1790 O   0  0  0  0  0  0  0  0  0  0  0  0
   58.8930   34.3560   46.4300 C   0  0  0  0  0  0  0  0  0  0  0  0
   58.3870   33.2060   47.0510 C   0  0  0  0  0  0  0  0  0  0  0  0
   58.4802   33.0844   48.1403 H   0  0  0  0  0  0  0  0  0  0  0  0
   57.7640   32.2130   46.2890 C   0  0  0  0  0  0  0  0  0  0  0  0
   57.3740   31.3095   46.7805 H   0  0  0  0  0  0  0  0  0  0  0  0
   57.6340   32.3640   44.8990 C   0  0  0  0  0  0  0  0  0  0  0  0
   57.0000   31.2790   44.0730 C   0  0  0  0  0  0  0  0  0  0  0  0
   57.4390   31.2857   43.0644 H   0  0  0  0  0  0  0  0  0  0  0  0
   55.9168   31.4599   44.0101 H   0  0  0  0  0  0  0  0  0  0  0  0
   57.2390   29.9440   44.7090 C   0  0  0  0  0  0  0  0  0  0  0  0
   56.2090   29.1420   45.0960 N   0  0  0  0  0  0  0  0  0  0  0  0
   56.6490   27.9700   45.6010 C   0  0  0  0  0  0  0  0  0  0  0  0
   55.8290   27.0410   45.9950 N   0  0  0  0  0  0  0  0  0  0  0  0
   55.9460   25.6280   45.7700 C   0  0  0  0  0  0  0  0  0  0  0  0
   55.1260   24.8580   46.3400 O   0  0  0  0  0  0  0  0  0  0  0  0
   57.0360   25.0430   44.9090 C   0  0  0  0  0  0  0  0  0  0  0  0
   57.7372   24.4891   45.5505 H   0  0  0  0  0  0  0  0  0  0  0  0
   57.5422   25.8706   44.3905 H   0  0  0  0  0  0  0  0  0  0  0  0
   56.4780   24.0930   43.8520 C   0  0  0  0  0  0  0  0  0  0  0  0
   55.9804   23.2458   44.3465 H   0  0  0  0  0  0  0  0  0  0  0  0
   55.7514   24.6293   43.2240 H   0  0  0  0  0  0  0  0  0  0  0  0
   57.3002   23.7195   43.2240 H   0  0  0  0  0  0  0  0  0  0  0  0
   58.3330   27.8700   45.5500 S   0  0  0  0  0  0  0  0  0  0  0  0
   58.5110   29.4000   44.8760 C   0  0  0  0  0  0  0  0  0  0  0  0
   59.4626   29.8854   44.6135 H   0  0  0  0  0  0  0  0  0  0  0  0
   58.1560   33.5110   44.2800 C   0  0  0  0  0  0  0  0  0  0  0  0
   58.0761   33.6290   43.1893 H   0  0  0  0  0  0  0  0  0  0  0  0
   58.7770   34.5040   45.0440 C   0  0  0  0  0  0  0  0  0  0  0  0
   59.1755   35.4043   44.5535 H   0  0  0  0  0  0  0  0  0  0  0  0
  1  2  1  0
  2  3  1  0
  3  4  2  0
  4  5  1  0
  4  6  1  0
  6  7  1  0
  6  8  2  0
  8  9  1  0
  9 10  1  0
  9 11  1  0
  9 12  1  0
 12 13  1  0
 13 14  1  0
 14 15  2  0
 15 16  1  0
 16 17  2  0
 16 18  1  0
 18 19  1  0
 18 20  1  0
 18 21  1  0
 21 22  1  0
 21 23  1  0
 21 24  1  0
 14 25  1  0
 25 26  1  0
 26 27  1  0
  8 28  1  0
 28 29  1  0
 28 30  2  0
 30 31  1  0
 30  3  1  0
 26 12  2  0
M  CHG  1  13  -1
M  END
>  <UniqueID>  (85) 
78

>  <SMILES>  (85) 
CCC(=O)/N=c1/[n-]c(Cc2ccc(O)cc2)cs1

>  <Energy>  (85) 
62.09201559686131

>  <Genealogy>  (85) 
CCC(=O)N=c1[n-]c(Cc2ccc(O)cc2)cs1 (protonated)
CCC(=O)/N=c1/[n-]c(Cc2ccc(O)cc2)cs1 (cis-trans isomerization)
CCC(=O)/N=c1/[n-]c(Cc2ccc(O)cc2)cs1 (3D coordinates assigned)
CCC(=O)/N=c1/[n-]c(Cc2ccc(O)cc2)cs1 (optimized conformer: 62.09201559686131 kcal/mol)

>  <smiles>  (85) 
CCC(=O)N=c1[nH]c(Cc2ccc(O)cc2)cs1

>  <score_type>  (85) 
oracle

>  <origin>  (85) 
adg

>  <m_score__min__energy>  (85) 
-8.5800000000000001

>  <m_primary>  (85) 
energy

$$$$
85:0
     RDKit          3D

 28 30  0  0  1  0  0  0  0  0999 V2000
   57.4320   31.4160   43.0380 O   0  0  0  0  0  0  0  0  0  0  0  0
   56.7840   31.1270   44.3570 S   0  0  0  0  0  0  0  0  0  0  0  0
   55.4730   30.4110   44.2850 O   0  0  0  0  0  0  0  0  0  0  0  0
   57.0190   32.2030   45.6060 N   0  0  0  0  0  0  0  0  0  0  0  0
   57.9480   33.0170   45.7170 C   0  0  0  0  0  0  0  0  0  0  0  0
   58.2940   33.6990   44.5830 N   0  0  0  0  0  0  0  0  0  0  0  0
   59.2580   34.6010   44.5140 C   0  0  0  0  0  0  0  0  0  0  0  0
   59.9420   34.8710   45.6240 N   0  0  0  0  0  0  0  0  0  0  0  0
   59.6230   34.2120   46.7650 C   0  0  0  0  0  0  0  0  0  0  0  0
   60.4150   34.4190   48.3760 S   0  0  0  0  0  0  0  0  0  0  0  0
   59.3650   33.2120   49.1390 C   0  0  0  0  0  0  0  0  0  0  0  0
   58.4690   32.7220   48.1130 C   0  0  0  0  0  0  0  0  0  0  0  0
   58.6540   33.2760   46.9200 C   0  0  0  0  0  0  0  0  0  0  0  0
   57.8420   29.7590   44.8990 C   0  0  0  0  0  0  0  0  0  0  0  0
   59.1920   29.9580   45.0320 C   0  0  0  0  0  0  0  0  0  0  0  0
   59.9900   28.9320   45.4690 C   0  0  0  0  0  0  0  0  0  0  0  0
   59.3860   27.7380   45.7570 C   0  0  0  0  0  0  0  0  0  0  0  0
   60.4700   26.3080   46.3650 Br  0  0  0  0  0  0  0  0  0  0  0  0
   58.0310   27.5080   45.6330 C   0  0  0  0  0  0  0  0  0  0  0  0
   57.2550   28.5410   45.1970 C   0  0  0  0  0  0  0  0  0  0  0  0
   57.7690   33.5090   43.6760 H   0  0  0  0  0  0  0  0  0  0  0  0
   59.4881   35.1131   43.5680 H   0  0  0  0  0  0  0  0  0  0  0  0
   59.3895   32.8954   50.1922 H   0  0  0  0  0  0  0  0  0  0  0  0
   57.7017   31.9574   48.3046 H   0  0  0  0  0  0  0  0  0  0  0  0
   59.6329   30.9361   44.7893 H   0  0  0  0  0  0  0  0  0  0  0  0
   61.0760   29.0638   45.5839 H   0  0  0  0  0  0  0  0  0  0  0  0
   57.5935   26.5286   45.8766 H   0  0  0  0  0  0  0  0  0  0  0  0
   56.1691   28.4074   45.0827 H   0  0  0  0  0  0  0  0  0  0  0  0
  1  2  2  0
  2  3  2  0
  2  4  1  0
  4  5  2  0
  5  6  1  0
  6  7  1  0
  7  8  2  0
  8  9  1  0
  9 10  1  0
 10 11  1  0
 11 12  2  0
 12 13  1  0
  2 14  1  0
 14 15  2  0
 15 16  1  0
 16 17  2  0
 17 18  1  0
 17 19  1  0
 19 20  2  0
 13  5  1  0
 20 14  1  0
 13  9  2  0
  6 21  1  0
  7 22  1  0
 11 23  1  0
 12 24  1  0
 15 25  1  0
 16 26  1  0
 19 27  1  0
 20 28  1  0
M  END
>  <smiles>  (86) 
O=S(=O)(N=c1[nH]cnc2sccc12)c1ccc(Br)cc1

>  <score_type>  (86) 
oracle

>  <origin>  (86) 
adg

>  <m_score__min__energy>  (86) 
-8.1699999999999999

>  <m_primary>  (86) 
energy

$$$$
86:0
     RDKit          3D

 63 66  0  0  0  0  0  0  0  0999 V2000
   56.5830   30.1390   43.5890 C   0  0  0  0  0  0  0  0  0  0  0  0
   56.6020   30.8460   44.8260 O   0  0  0  0  0  0  0  0  0  0  0  0
   57.7680   31.2770   45.4750 C   0  0  0  0  0  0  0  0  0  0  0  0
   58.0050   32.6300   45.7820 C   0  0  0  0  0  0  0  0  0  0  0  0
   59.1810   33.0080   46.4370 C   0  0  0  0  0  0  0  0  0  0  0  0
   60.1260   32.0440   46.8090 C   0  0  0  0  0  0  0  0  0  0  0  0
   61.6000   32.5200   47.6550 S   0  0  0  0  0  0  0  0  0  0  0  0
   62.0210   33.8770   47.1650 O   0  0  0  0  0  0  0  0  0  0  0  0
   62.6970   31.5490   47.3180 O   0  0  0  0  0  0  0  0  0  0  0  0
   61.3930   32.5810   49.3930 N   0  0  0  0  0  0  0  0  0  0  0  0
   61.4600   31.2540   50.0370 C   0  0  0  0  0  0  0  0  0  0  0  0
   60.1260   30.4810   50.0270 C   0  0  0  0  0  0  0  0  0  0  0  0
   58.8840   31.3930   50.1210 C   0  0  0  0  0  0  0  0  0  0  0  0
   57.7730   30.7340   50.9000 C   0  0  0  0  0  0  0  0  0  0  0  0
   57.9010   29.5290   51.2500 O   0  0  0  0  0  0  0  0  0  0  0  0
   56.5650   31.4510   51.2050 N   0  0  0  0  0  0  0  0  0  0  0  0
   55.6040   31.0230   52.1840 C   0  0  0  0  0  0  0  0  0  0  0  0
   56.0310   30.2560   53.2790 C   0  0  0  0  0  0  0  0  0  0  0  0
   55.1100   29.8040   54.2270 C   0  0  0  0  0  0  0  0  0  0  0  0
   53.7520   30.0950   54.0780 C   0  0  0  0  0  0  0  0  0  0  0  0
   53.3040   30.8290   52.9730 C   0  0  0  0  0  0  0  0  0  0  0  0
   51.5840   31.1540   52.7600 S   0  0  0  0  0  0  0  0  0  0  0  0
   51.0870   31.9720   53.9200 O   0  0  0  0  0  0  0  0  0  0  0  0
   51.3850   31.9620   51.5070 O   0  0  0  0  0  0  0  0  0  0  0  0
   50.6440   29.6790   52.6520 N   0  0  0  0  0  0  0  0  0  0  0  0
   50.2640   29.1960   53.9830 C   0  0  0  0  0  0  0  0  0  0  0  0
   51.2390   28.1010   54.3920 C   0  0  0  0  0  0  0  0  0  0  0  0
   51.9770   27.7100   53.1280 C   0  0  0  0  0  0  0  0  0  0  0  0
   51.4170   28.6000   52.0280 C   0  0  0  0  0  0  0  0  0  0  0  0
   54.2310   31.2930   52.0290 C   0  0  0  0  0  0  0  0  0  0  0  0
   59.2410   32.7590   50.7120 C   0  0  0  0  0  0  0  0  0  0  0  0
   60.2770   33.4590   49.8200 C   0  0  0  0  0  0  0  0  0  0  0  0
   59.9010   30.7000   46.4810 C   0  0  0  0  0  0  0  0  0  0  0  0
   58.7270   30.3210   45.8250 C   0  0  0  0  0  0  0  0  0  0  0  0
   56.5539   29.0571   43.7855 H   0  0  0  0  0  0  0  0  0  0  0  0
   55.6924   30.4312   43.0133 H   0  0  0  0  0  0  0  0  0  0  0  0
   57.4880   30.3829   43.0133 H   0  0  0  0  0  0  0  0  0  0  0  0
   57.2623   33.3929   45.5056 H   0  0  0  0  0  0  0  0  0  0  0  0
   59.3649   34.0690   46.6614 H   0  0  0  0  0  0  0  0  0  0  0  0
   62.2126   30.6509   49.5079 H   0  0  0  0  0  0  0  0  0  0  0  0
   61.7187   31.4264   51.0922 H   0  0  0  0  0  0  0  0  0  0  0  0
   60.0647   29.9048   49.0920 H   0  0  0  0  0  0  0  0  0  0  0  0
   60.1204   29.8347   50.9171 H   0  0  0  0  0  0  0  0  0  0  0  0
   58.5175   31.5575   49.0970 H   0  0  0  0  0  0  0  0  0  0  0  0
   56.3480   32.3140   50.6590 H   0  0  0  0  0  0  0  0  0  0  0  0
   57.0971   30.0094   53.3914 H   0  0  0  0  0  0  0  0  0  0  0  0
   55.4546   29.2182   55.0919 H   0  0  0  0  0  0  0  0  0  0  0  0
   53.0313   29.7460   54.8321 H   0  0  0  0  0  0  0  0  0  0  0  0
   50.3101   30.0238   54.7060 H   0  0  0  0  0  0  0  0  0  0  0  0
   49.2376   28.8008   53.9633 H   0  0  0  0  0  0  0  0  0  0  0  0
   51.9450   28.4792   55.1460 H   0  0  0  0  0  0  0  0  0  0  0  0
   50.7174   27.2413   54.8379 H   0  0  0  0  0  0  0  0  0  0  0  0
   53.0571   27.8814   53.2466 H   0  0  0  0  0  0  0  0  0  0  0  0
   51.8417   26.6437   52.8939 H   0  0  0  0  0  0  0  0  0  0  0  0
   52.2425   29.0271   51.4397 H   0  0  0  0  0  0  0  0  0  0  0  0
   50.7718   28.0120   51.3588 H   0  0  0  0  0  0  0  0  0  0  0  0
   53.8830   31.8722   51.1610 H   0  0  0  0  0  0  0  0  0  0  0  0
   58.3341   33.3785   50.7730 H   0  0  0  0  0  0  0  0  0  0  0  0
   59.6639   32.6195   51.7178 H   0  0  0  0  0  0  0  0  0  0  0  0
   59.7648   33.8305   48.9202 H   0  0  0  0  0  0  0  0  0  0  0  0
   60.7190   34.2689   50.4189 H   0  0  0  0  0  0  0  0  0  0  0  0
   60.6523   29.9399   46.7413 H   0  0  0  0  0  0  0  0  0  0  0  0
   58.5556   29.2620   45.5818 H   0  0  0  0  0  0  0  0  0  0  0  0
  1  2  1  0
  2  3  1  0
  3  4  2  0
  4  5  1  0
  5  6  2  0
  6  7  1  0
  7  8  2  0
  7  9  2  0
  7 10  1  0
 10 11  1  0
 11 12  1  0
 12 13  1  0
 13 14  1  0
 14 15  2  0
 14 16  1  0
 16 17  1  0
 17 18  2  0
 18 19  1  0
 19 20  2  0
 20 21  1  0
 21 22  1  0
 22 23  2  0
 22 24  2  0
 22 25  1  0
 25 26  1  0
 26 27  1  0
 27 28  1  0
 28 29  1  0
 21 30  2  0
 13 31  1  0
 31 32  1  0
  6 33  1  0
 33 34  2  0
 34  3  1  0
 32 10  1  0
 30 17  1  0
 29 25  1  0
  1 35  1  0
  1 36  1  0
  1 37  1  0
  4 38  1  0
  5 39  1  0
 11 40  1  0
 11 41  1  0
 12 42  1  0
 12 43  1  0
 13 44  1  0
 16 45  1  0
 18 46  1  0
 19 47  1  0
 20 48  1  0
 26 49  1  0
 26 50  1  0
 27 51  1  0
 27 52  1  0
 28 53  1  0
 28 54  1  0
 29 55  1  0
 29 56  1  0
 30 57  1  0
 31 58  1  0
 31 59  1  0
 32 60  1  0
 32 61  1  0
 33 62  1  0
 34 63  1  0
M  END
>  <UniqueID>  (87) 
79

>  <SMILES>  (87) 
COc1ccc(S(=O)(=O)N2CCC(C(=O)Nc3cccc(S(=O)(=O)N4CCCC4)c3)CC2)cc1

>  <Energy>  (87) 
74.96577275254168

>  <Genealogy>  (87) 
COc1ccc(S(=O)(=O)N2CCC(C(=O)Nc3cccc(S(=O)(=O)N4CCCC4)c3)CC2)cc1 (3D coordinates assigned)
COc1ccc(S(=O)(=O)N2CCC(C(=O)Nc3cccc(S(=O)(=O)N4CCCC4)c3)CC2)cc1 (nonaromatic ring conformer: 74.96577275254168 kcal/mol)

>  <smiles>  (87) 
COc1ccc(S(=O)(=O)N2CCC(C(=O)Nc3cccc(S(=O)(=O)N4CCCC4)c3)CC2)cc1

>  <score_type>  (87) 
oracle

>  <origin>  (87) 
adg

>  <m_score__min__energy>  (87) 
-10.529999999999999

>  <m_primary>  (87) 
energy

$$$$
87:0
     RDKit          3D

 59 61  0  0  0  0  0  0  0  0999 V2000
   64.0970   32.8910   48.4580 C   0  0  0  0  0  0  0  0  0  0  0  0
   62.8530   33.3680   48.9610 O   0  0  0  0  0  0  0  0  0  0  0  0
   61.7240   33.6380   48.1730 C   0  0  0  0  0  0  0  0  0  0  0  0
   61.8250   33.8850   46.7900 C   0  0  0  0  0  0  0  0  0  0  0  0
   60.6820   34.1500   46.0340 C   0  0  0  0  0  0  0  0  0  0  0  0
   59.4210   34.1800   46.6410 C   0  0  0  0  0  0  0  0  0  0  0  0
   58.1940   34.4430   45.8110 C   0  0  0  0  0  0  0  0  0  0  0  0
   57.2800   33.3550   45.9180 O   0  0  0  0  0  0  0  0  0  0  0  0
   57.4630   32.1300   45.2670 C   0  0  0  0  0  0  0  0  0  0  0  0
   56.5120   31.5760   44.6510 O   0  0  0  0  0  0  0  0  0  0  0  0
   58.8190   31.4990   45.2600 C   0  0  0  0  0  0  0  0  0  0  0  0
   58.7940   30.1840   44.4740 C   0  0  0  0  0  0  0  0  0  0  0  0
   58.6760   29.0280   45.3910 N   0  0  0  0  0  0  0  0  0  0  0  0
   57.4800   28.3570   45.5660 C   0  0  0  0  0  0  0  0  0  0  0  0
   56.2040   28.8480   44.9040 C   0  0  0  0  0  0  0  0  0  0  0  0
   57.4460   27.1870   46.3700 C   0  0  0  0  0  0  0  0  0  0  0  0
   56.2360   26.3300   46.4730 C   0  0  0  0  0  0  0  0  0  0  0  0
   55.1370   26.7190   45.9960 O   0  0  0  0  0  0  0  0  0  0  0  0
   56.2910   25.1060   47.1300 O   0  0  0  0  0  0  0  0  0  0  0  0
   58.6120   26.8250   47.0600 C   0  0  0  0  0  0  0  0  0  0  0  0
   58.6310   25.8040   47.8010 O   0  0  0  0  0  0  0  0  0  0  0  0
   59.7380   27.5640   46.9240 N   0  0  0  0  0  0  0  0  0  0  0  0
   59.7870   28.6380   46.0980 C   0  0  0  0  0  0  0  0  0  0  0  0
   60.8750   29.2720   45.9900 O   0  0  0  0  0  0  0  0  0  0  0  0
   59.3130   33.9310   48.0170 C   0  0  0  0  0  0  0  0  0  0  0  0
   60.4560   33.6610   48.7840 C   0  0  0  0  0  0  0  0  0  0  0  0
   60.3070   33.3620   50.5180 S   0  0  0  0  0  0  0  0  0  0  0  0
   59.2850   34.3130   51.0780 O   0  0  0  0  0  0  0  0  0  0  0  0
   61.6250   33.6110   51.1990 O   0  0  0  0  0  0  0  0  0  0  0  0
   59.7960   31.7060   50.7720 N   0  0  0  0  0  0  0  0  0  0  0  0
   58.6020   31.3670   49.9650 C   0  0  0  0  0  0  0  0  0  0  0  0
   58.9500   30.5800   48.6900 C   0  0  0  0  0  0  0  0  0  0  0  0
   60.2050   30.9840   48.1930 O   0  0  0  0  0  0  0  0  0  0  0  0
   61.2380   30.5590   49.0670 C   0  0  0  0  0  0  0  0  0  0  0  0
   60.9040   30.7570   50.5650 C   0  0  0  0  0  0  0  0  0  0  0  0
   64.7593   32.6370   49.2987 H   0  0  0  0  0  0  0  0  0  0  0  0
   63.9247   31.9951   47.8434 H   0  0  0  0  0  0  0  0  0  0  0  0
   64.5678   33.6724   47.8434 H   0  0  0  0  0  0  0  0  0  0  0  0
   62.8110   33.8689   46.3026 H   0  0  0  0  0  0  0  0  0  0  0  0
   60.7728   34.3366   44.9537 H   0  0  0  0  0  0  0  0  0  0  0  0
   57.7062   35.3626   46.1664 H   0  0  0  0  0  0  0  0  0  0  0  0
   58.4925   34.5564   44.7584 H   0  0  0  0  0  0  0  0  0  0  0  0
   59.5366   32.1879   44.7905 H   0  0  0  0  0  0  0  0  0  0  0  0
   59.1191   31.2883   46.2971 H   0  0  0  0  0  0  0  0  0  0  0  0
   57.9342   30.1898   43.7879 H   0  0  0  0  0  0  0  0  0  0  0  0
   59.7331   30.0922   43.9086 H   0  0  0  0  0  0  0  0  0  0  0  0
   55.4742   29.1288   45.6776 H   0  0  0  0  0  0  0  0  0  0  0  0
   56.4295   29.7236   44.2775 H   0  0  0  0  0  0  0  0  0  0  0  0
   55.7844   28.0471   44.2775 H   0  0  0  0  0  0  0  0  0  0  0  0
   60.5990   27.2830   47.4500 H   0  0  0  0  0  0  0  0  0  0  0  0
   58.3241   33.9476   48.4985 H   0  0  0  0  0  0  0  0  0  0  0  0
   57.9231   30.7580   50.5800 H   0  0  0  0  0  0  0  0  0  0  0  0
   58.1325   32.3119   49.6540 H   0  0  0  0  0  0  0  0  0  0  0  0
   58.9811   29.5056   48.9239 H   0  0  0  0  0  0  0  0  0  0  0  0
   58.1826   30.7776   47.9270 H   0  0  0  0  0  0  0  0  0  0  0  0
   61.4241   29.4893   48.8908 H   0  0  0  0  0  0  0  0  0  0  0  0
   62.1200   31.1791   48.8489 H   0  0  0  0  0  0  0  0  0  0  0  0
   60.6218   29.7849   50.9957 H   0  0  0  0  0  0  0  0  0  0  0  0
   61.7969   31.1711   51.0562 H   0  0  0  0  0  0  0  0  0  0  0  0
  1  2  1  0
  2  3  1  0
  3  4  2  0
  4  5  1  0
  5  6  2  0
  6  7  1  0
  7  8  1  0
  8  9  1  0
  9 10  2  0
  9 11  1  0
 11 12  1  0
 12 13  1  0
 13 14  1  0
 14 15  1  0
 14 16  2  0
 16 17  1  0
 17 18  2  0
 17 19  1  0
 16 20  1  0
 20 21  2  0
 20 22  1  0
 22 23  1  0
 23 24  2  0
  6 25  1  0
 25 26  2  0
 26 27  1  0
 27 28  2  0
 27 29  2  0
 27 30  1  0
 30 31  1  0
 31 32  1  0
 32 33  1  0
 33 34  1  0
 34 35  1  0
 26  3  1  0
 35 30  1  0
 23 13  1  0
  1 36  1  0
  1 37  1  0
  1 38  1  0
  4 39  1  0
  5 40  1  0
  7 41  1  0
  7 42  1  0
 11 43  1  0
 11 44  1  0
 12 45  1  0
 12 46  1  0
 15 47  1  0
 15 48  1  0
 15 49  1  0
 22 50  1  0
 25 51  1  0
 31 52  1  0
 31 53  1  0
 32 54  1  0
 32 55  1  0
 34 56  1  0
 34 57  1  0
 35 58  1  0
 35 59  1  0
M  CHG  1  19  -1
M  END
>  <UniqueID>  (88) 
80

>  <SMILES>  (88) 
COc1ccc(COC(=O)CCn2c(C)c(C(=O)[O-])c(=O)[nH]c2=O)cc1S(=O)(=O)N1CCOCC1

>  <Energy>  (88) 
79.03791016878365

>  <Genealogy>  (88) 
COc1ccc(COC(=O)CCn2c(C)c(C(=O)[O-])c(=O)[nH]c2=O)cc1S(=O)(=O)N1CCOCC1 (protonated)
COc1ccc(COC(=O)CCn2c(C)c(C(=O)[O-])c(=O)[nH]c2=O)cc1S(=O)(=O)N1CCOCC1 (3D coordinates assigned)
COc1ccc(COC(=O)CCn2c(C)c(C(=O)[O-])c(=O)[nH]c2=O)cc1S(=O)(=O)N1CCOCC1 (nonaromatic ring conformer: 79.03791016878365 kcal/mol)

>  <smiles>  (88) 
COc1ccc(COC(=O)CCn2c(C)c(C(=O)O)c(=O)[nH]c2=O)cc1S(=O)(=O)N1CCOCC1

>  <score_type>  (88) 
oracle

>  <origin>  (88) 
adg

>  <m_score__min__energy>  (88) 
-11.619999999999999

>  <m_primary>  (88) 
energy

$$$$
88:0
     RDKit          3D

 48 50  0  0  0  0  0  0  0  0999 V2000
   57.3280   31.6720   45.3060 N   0  0  0  0  0  0  0  0  0  0  0  0
   56.6380   30.5020   44.2370 S   0  0  0  0  0  0  0  0  0  0  0  0
   56.8490   30.9350   42.8130 O   0  0  0  0  0  0  0  0  0  0  0  0
   55.1610   30.4000   44.4950 O   0  0  0  0  0  0  0  0  0  0  0  0
   57.4030   28.9380   44.5000 C   0  0  0  0  0  0  0  0  0  0  0  0
   57.7370   28.1220   43.4110 C   0  0  0  0  0  0  0  0  0  0  0  0
   58.3440   26.8810   43.6250 C   0  0  0  0  0  0  0  0  0  0  0  0
   58.6060   26.4440   44.9260 C   0  0  0  0  0  0  0  0  0  0  0  0
   58.2380   27.2380   46.0260 C   0  0  0  0  0  0  0  0  0  0  0  0
   58.5110   26.8260   47.3710 N   0  0  0  0  0  0  0  0  0  0  0  0
   59.5920   27.2780   48.2000 C   0  0  0  0  0  0  0  0  0  0  0  0
   60.3230   26.4180   48.7600 O   0  0  0  0  0  0  0  0  0  0  0  0
   59.9570   28.7440   48.3090 C   0  0  2  0  0  0  0  0  0  0  0  0
   60.8330   29.0030   49.5630 C   0  0  0  0  0  0  0  0  0  0  0  0
   60.1990   30.0080   50.5270 C   0  0  0  0  0  0  0  0  0  0  0  0
   59.7910   31.2880   49.7810 C   0  0  0  0  0  0  0  0  0  0  0  0
   58.9710   31.0430   48.5660 N   0  0  0  0  0  0  0  0  0  0  0  0
   59.6330   31.8610   47.1660 S   0  0  0  0  0  0  0  0  0  0  0  0
   58.7490   33.0080   46.7660 O   0  0  0  0  0  0  0  0  0  0  0  0
   59.7410   30.8930   46.0190 O   0  0  0  0  0  0  0  0  0  0  0  0
   61.2350   32.4970   47.5450 C   0  0  0  0  0  0  0  0  0  0  0  0
   62.3810   31.7850   47.1580 C   0  0  0  0  0  0  0  0  0  0  0  0
   63.6530   32.2830   47.4550 C   0  0  0  0  0  0  0  0  0  0  0  0
   63.7890   33.4870   48.1510 C   0  0  0  0  0  0  0  0  0  0  0  0
   62.6530   34.1920   48.5560 C   0  0  0  0  0  0  0  0  0  0  0  0
   61.3770   33.7000   48.2580 C   0  0  0  0  0  0  0  0  0  0  0  0
   60.2860   34.3910   48.6780 F   0  0  0  0  0  0  0  0  0  0  0  0
   58.6830   29.6200   48.2880 C   0  0  0  0  0  0  0  0  0  0  0  0
   57.6590   28.4940   45.8050 C   0  0  0  0  0  0  0  0  0  0  0  0
   58.2270   31.9830   44.8760 H   0  0  0  0  0  0  0  0  0  0  0  0
   57.5730   31.1710   46.1890 H   0  0  0  0  0  0  0  0  0  0  0  0
   57.5213   28.4584   42.3862 H   0  0  0  0  0  0  0  0  0  0  0  0
   58.6158   26.2475   42.7678 H   0  0  0  0  0  0  0  0  0  0  0  0
   59.1017   25.4758   45.0899 H   0  0  0  0  0  0  0  0  0  0  0  0
   60.5619   29.0274   47.4351 H   0  0  0  0  0  0  0  0  0  0  0  0
   60.9793   28.0504   50.0933 H   0  0  0  0  0  0  0  0  0  0  0  0
   61.7880   29.4276   49.2200 H   0  0  0  0  0  0  0  0  0  0  0  0
   59.3067   29.5564   50.9851 H   0  0  0  0  0  0  0  0  0  0  0  0
   60.9341   30.2682   51.3028 H   0  0  0  0  0  0  0  0  0  0  0  0
   59.2099   31.9194   50.4692 H   0  0  0  0  0  0  0  0  0  0  0  0
   60.7205   31.7716   49.4460 H   0  0  0  0  0  0  0  0  0  0  0  0
   62.2778   30.8316   46.6190 H   0  0  0  0  0  0  0  0  0  0  0  0
   64.5480   31.7263   47.1404 H   0  0  0  0  0  0  0  0  0  0  0  0
   64.7907   33.8797   48.3800 H   0  0  0  0  0  0  0  0  0  0  0  0
   62.7616   35.1359   49.1103 H   0  0  0  0  0  0  0  0  0  0  0  0
   57.9846   29.2456   49.0510 H   0  0  0  0  0  0  0  0  0  0  0  0
   58.2502   29.5571   47.2787 H   0  0  0  0  0  0  0  0  0  0  0  0
   57.4035   29.1362   46.6607 H   0  0  0  0  0  0  0  0  0  0  0  0
  1  2  1  0
  2  3  2  0
  2  4  2  0
  2  5  1  0
  5  6  2  0
  6  7  1  0
  7  8  2  0
  8  9  1  0
  9 10  1  0
 10 11  1  0
 11 12  2  0
 11 13  1  0
 13 14  1  0
 14 15  1  0
 15 16  1  0
 16 17  1  0
 17 18  1  0
 18 19  2  0
 18 20  2  0
 18 21  1  0
 21 22  2  0
 22 23  1  0
 23 24  2  0
 24 25  1  0
 25 26  2  0
 26 27  1  0
 17 28  1  0
  9 29  2  0
 29  5  1  0
 28 13  1  0
 26 21  1  0
  1 30  1  0
  1 31  1  0
  6 32  1  0
  7 33  1  0
  8 34  1  0
 13 35  1  6
 14 36  1  0
 14 37  1  0
 15 38  1  0
 15 39  1  0
 16 40  1  0
 16 41  1  0
 22 42  1  0
 23 43  1  0
 24 44  1  0
 25 45  1  0
 28 46  1  0
 28 47  1  0
 29 48  1  0
M  CHG  1  10  -1
M  END
>  <UniqueID>  (89) 
81

>  <SMILES>  (89) 
NS(=O)(=O)c1cccc([N-]C(=O)[C@@H]2CCCN(S(=O)(=O)c3ccccc3F)C2)c1

>  <Energy>  (89) 
62.002165907623564

>  <Genealogy>  (89) 
NS(=O)(=O)c1cccc([N-]C(=O)C2CCCN(S(=O)(=O)c3ccccc3F)C2)c1 (protonated)
NS(=O)(=O)c1cccc([N-]C(=O)[C@@H]2CCCN(S(=O)(=O)c3ccccc3F)C2)c1 (chirality)
NS(=O)(=O)c1cccc([N-]C(=O)[C@@H]2CCCN(S(=O)(=O)c3ccccc3F)C2)c1 (3D coordinates assigned)
NS(=O)(=O)c1cccc([N-]C(=O)[C@@H]2CCCN(S(=O)(=O)c3ccccc3F)C2)c1 (nonaromatic ring conformer: 62.002165907623564 kcal/mol)

>  <smiles>  (89) 
NS(=O)(=O)c1cccc(NC(=O)C2CCCN(S(=O)(=O)c3ccccc3F)C2)c1

>  <score_type>  (89) 
oracle

>  <origin>  (89) 
adg

>  <m_score__min__energy>  (89) 
-11.130000000000001

>  <m_primary>  (89) 
energy

$$$$
89:0
     RDKit          3D

 49 52  0  0  0  0  0  0  0  0999 V2000
   57.7220   29.4540   43.8540 C   0  0  0  0  0  0  0  0  0  0  0  0
   58.0300   30.0880   45.1460 N   0  0  0  0  0  0  0  0  0  0  0  0
   58.2640   29.3070   46.2650 C   0  0  0  0  0  0  0  0  0  0  0  0
   58.2420   28.0480   46.1640 O   0  0  0  0  0  0  0  0  0  0  0  0
   58.5240   29.8810   47.4980 N   0  0  0  0  0  0  0  0  0  0  0  0
   58.8270   29.0200   48.6610 C   0  0  0  0  0  0  0  0  0  0  0  0
   59.8680   29.6750   49.5500 C   0  0  0  0  0  0  0  0  0  0  0  0
   61.1540   29.9050   49.0250 C   0  0  0  0  0  0  0  0  0  0  0  0
   62.1540   30.4780   49.8130 C   0  0  0  0  0  0  0  0  0  0  0  0
   61.8860   30.8330   51.1340 C   0  0  0  0  0  0  0  0  0  0  0  0
   60.6150   30.6210   51.6710 C   0  0  0  0  0  0  0  0  0  0  0  0
   59.6010   30.0450   50.8910 C   0  0  0  0  0  0  0  0  0  0  0  0
   58.3010   29.8630   51.4900 C   0  0  0  0  0  0  0  0  0  0  0  0
   57.2570   29.7170   51.9680 N   0  0  0  0  0  0  0  0  0  0  0  0
   58.5600   31.2480   47.6280 C   0  0  0  0  0  0  0  0  0  0  0  0
   58.7260   31.7870   48.7560 O   0  0  0  0  0  0  0  0  0  0  0  0
   58.3950   32.0280   46.4930 C   0  0  0  0  0  0  0  0  0  0  0  0
   58.1250   31.4500   45.2870 C   0  0  0  0  0  0  0  0  0  0  0  0
   58.0250   32.4240   44.3420 N   0  0  0  0  0  0  0  0  0  0  0  0
   57.7710   32.3420   42.9020 C   0  0  0  0  0  0  0  0  0  0  0  0
   58.2510   33.5720   45.0330 C   0  0  0  0  0  0  0  0  0  0  0  0
   58.2580   34.7140   44.4980 O   0  0  0  0  0  0  0  0  0  0  0  0
   58.4890   33.3690   46.3510 N   0  0  0  0  0  0  0  0  0  0  0  0
   58.8950   34.3770   47.3390 C   0  0  0  0  0  0  0  0  0  0  0  0
   60.3160   34.1440   47.7980 C   0  0  0  0  0  0  0  0  0  0  0  0
   61.3280   33.8820   46.8570 C   0  0  0  0  0  0  0  0  0  0  0  0
   62.6520   33.6990   47.2700 C   0  0  0  0  0  0  0  0  0  0  0  0
   63.6220   33.4670   46.3530 F   0  0  0  0  0  0  0  0  0  0  0  0
   62.9740   33.7550   48.6280 C   0  0  0  0  0  0  0  0  0  0  0  0
   61.9740   33.9840   49.5740 C   0  0  0  0  0  0  0  0  0  0  0  0
   60.6480   34.1720   49.1680 C   0  0  0  0  0  0  0  0  0  0  0  0
   59.6940   34.3770   50.1100 F   0  0  0  0  0  0  0  0  0  0  0  0
   57.2474   28.4771   44.0288 H   0  0  0  0  0  0  0  0  0  0  0  0
   57.0363   30.0980   43.2838 H   0  0  0  0  0  0  0  0  0  0  0  0
   58.6520   29.3130   43.2838 H   0  0  0  0  0  0  0  0  0  0  0  0
   57.9064   28.8574   49.2407 H   0  0  0  0  0  0  0  0  0  0  0  0
   59.2218   28.0591   48.2992 H   0  0  0  0  0  0  0  0  0  0  0  0
   61.3732   29.6303   47.9827 H   0  0  0  0  0  0  0  0  0  0  0  0
   63.1551   30.6496   49.3906 H   0  0  0  0  0  0  0  0  0  0  0  0
   62.6768   31.2806   51.7539 H   0  0  0  0  0  0  0  0  0  0  0  0
   60.4071   30.9074   52.7125 H   0  0  0  0  0  0  0  0  0  0  0  0
   56.7370   32.0082   42.7305 H   0  0  0  0  0  0  0  0  0  0  0  0
   57.9167   33.3328   42.4470 H   0  0  0  0  0  0  0  0  0  0  0  0
   58.4685   31.6234   42.4470 H   0  0  0  0  0  0  0  0  0  0  0  0
   58.8232   35.3759   46.8841 H   0  0  0  0  0  0  0  0  0  0  0  0
   58.2284   34.3017   48.2107 H   0  0  0  0  0  0  0  0  0  0  0  0
   61.0764   33.8205   45.7879 H   0  0  0  0  0  0  0  0  0  0  0  0
   64.0163   33.6185   48.9519 H   0  0  0  0  0  0  0  0  0  0  0  0
   62.2291   34.0169   50.6435 H   0  0  0  0  0  0  0  0  0  0  0  0
  1  2  1  0
  2  3  1  0
  3  4  2  0
  3  5  1  0
  5  6  1  0
  6  7  1  0
  7  8  2  0
  8  9  1  0
  9 10  2  0
 10 11  1  0
 11 12  2  0
 12 13  1  0
 13 14  3  0
  5 15  1  0
 15 16  2  0
 15 17  1  0
 17 18  2  0
 18 19  1  0
 19 20  1  0
 19 21  1  0
 21 22  2  0
 21 23  1  0
 23 24  1  0
 24 25  1  0
 25 26  2  0
 26 27  1  0
 27 28  1  0
 27 29  2  0
 29 30  1  0
 30 31  2  0
 31 32  1  0
 18  2  1  0
 31 25  1  0
 12  7  1  0
 23 17  1  0
  1 33  1  0
  1 34  1  0
  1 35  1  0
  6 36  1  0
  6 37  1  0
  8 38  1  0
  9 39  1  0
 10 40  1  0
 11 41  1  0
 20 42  1  0
 20 43  1  0
 20 44  1  0
 24 45  1  0
 24 46  1  0
 26 47  1  0
 29 48  1  0
 30 49  1  0
M  END
>  <UniqueID>  (90) 
82

>  <SMILES>  (90) 
Cn1c(=O)n(Cc2ccccc2C#N)c(=O)c2c1n(C)c(=O)n2Cc1cc(F)ccc1F

>  <Energy>  (90) 
108.85613084542103

>  <Genealogy>  (90) 
Cn1c(=O)n(Cc2ccccc2C#N)c(=O)c2c1n(C)c(=O)n2Cc1cc(F)ccc1F (3D coordinates assigned)
Cn1c(=O)n(Cc2ccccc2C#N)c(=O)c2c1n(C)c(=O)n2Cc1cc(F)ccc1F (optimized conformer: 108.85613084542103 kcal/mol)

>  <smiles>  (90) 
Cn1c(=O)n(Cc2ccccc2C#N)c(=O)c2c1n(C)c(=O)n2Cc1cc(F)ccc1F

>  <score_type>  (90) 
oracle

>  <origin>  (90) 
adg

>  <m_score__min__energy>  (90) 
-7.6600000000000001

>  <m_primary>  (90) 
energy

$$$$
90:0
     RDKit          3D

 38 40  0  0  0  0  0  0  0  0999 V2000
   57.8090   26.2880   46.2830 C   0  0  0  0  0  0  0  0  0  0  0  0
   56.7050   27.2000   45.8380 C   0  0  0  0  0  0  0  0  0  0  0  0
   55.5130   26.8170   45.9940 O   0  0  0  0  0  0  0  0  0  0  0  0
   56.9800   28.5290   45.2290 C   0  0  0  0  0  0  0  0  0  0  0  0
   58.2690   29.0970   45.2640 C   0  0  0  0  0  0  0  0  0  0  0  0
   58.5070   30.3510   44.6920 C   0  0  0  0  0  0  0  0  0  0  0  0
   57.4640   31.0600   44.0900 C   0  0  0  0  0  0  0  0  0  0  0  0
   57.7690   32.6880   43.3940 S   0  0  0  0  0  0  0  0  0  0  0  0
   57.3280   33.6030   44.9140 C   0  0  0  0  0  0  0  0  0  0  0  0
   58.4490   33.5640   45.9050 C   0  0  0  0  0  0  0  0  0  0  0  0
   58.3260   33.6860   47.2820 C   0  0  0  0  0  0  0  0  0  0  0  0
   59.5710   33.7180   47.7860 N   0  0  0  0  0  0  0  0  0  0  0  0
   59.9860   33.8420   49.0720 C   0  0  0  0  0  0  0  0  0  0  0  0
   61.3670   33.8720   49.3200 C   0  0  0  0  0  0  0  0  0  0  0  0
   62.2770   33.7930   48.2400 C   0  0  0  0  0  0  0  0  0  0  0  0
   63.7540   33.7910   48.4990 C   0  0  0  0  0  0  0  0  0  0  0  0
   61.7900   33.6540   46.9240 C   0  0  0  0  0  0  0  0  0  0  0  0
   60.4100   33.6220   46.7420 C   0  0  0  0  0  0  0  0  0  0  0  0
   59.7610   33.5260   45.5680 N   0  0  0  0  0  0  0  0  0  0  0  0
   56.1840   30.5010   44.0370 C   0  0  0  0  0  0  0  0  0  0  0  0
   55.9420   29.2460   44.6030 C   0  0  0  0  0  0  0  0  0  0  0  0
   57.8417   26.2610   47.3822 H   0  0  0  0  0  0  0  0  0  0  0  0
   57.6256   25.2746   45.8966 H   0  0  0  0  0  0  0  0  0  0  0  0
   58.7696   26.6594   45.8966 H   0  0  0  0  0  0  0  0  0  0  0  0
   59.0938   28.5504   45.7445 H   0  0  0  0  0  0  0  0  0  0  0  0
   59.5192   30.7809   44.7161 H   0  0  0  0  0  0  0  0  0  0  0  0
   57.1130   34.6501   44.6545 H   0  0  0  0  0  0  0  0  0  0  0  0
   56.4435   33.1296   45.3651 H   0  0  0  0  0  0  0  0  0  0  0  0
   57.3874   33.7453   47.8525 H   0  0  0  0  0  0  0  0  0  0  0  0
   59.2611   33.9168   49.8960 H   0  0  0  0  0  0  0  0  0  0  0  0
   61.7406   33.9567   50.3511 H   0  0  0  0  0  0  0  0  0  0  0  0
   63.9360   33.7908   49.5838 H   0  0  0  0  0  0  0  0  0  0  0  0
   64.2035   32.8922   48.0516 H   0  0  0  0  0  0  0  0  0  0  0  0
   64.2059   34.6885   48.0516 H   0  0  0  0  0  0  0  0  0  0  0  0
   62.4777   33.5735   46.0693 H   0  0  0  0  0  0  0  0  0  0  0  0
   60.1740   33.4730   44.6100 H   0  0  0  0  0  0  0  0  0  0  0  0
   55.3653   31.0499   43.5488 H   0  0  0  0  0  0  0  0  0  0  0  0
   54.9312   28.8143   44.5590 H   0  0  0  0  0  0  0  0  0  0  0  0
  1  2  1  0
  2  3  2  0
  2  4  1  0
  4  5  2  0
  5  6  1  0
  6  7  2  0
  7  8  1  0
  8  9  1  0
  9 10  1  0
 10 11  2  0
 11 12  1  0
 12 13  1  0
 13 14  2  0
 14 15  1  0
 15 16  1  0
 15 17  2  0
 17 18  1  0
 18 19  2  0
  7 20  1  0
 20 21  2  0
 21  4  1  0
 19 10  1  0
 18 12  1  0
  1 22  1  0
  1 23  1  0
  1 24  1  0
  5 25  1  0
  6 26  1  0
  9 27  1  0
  9 28  1  0
 11 29  1  0
 13 30  1  0
 14 31  1  0
 16 32  1  0
 16 33  1  0
 16 34  1  0
 17 35  1  0
 19 36  1  0
 20 37  1  0
 21 38  1  0
M  CHG  1  19   1
M  END
>  <UniqueID>  (91) 
83

>  <SMILES>  (91) 
CC(=O)c1ccc(SCc2cn3ccc(C)cc3[nH+]2)cc1

>  <Energy>  (91) 
69.05041534022644

>  <Genealogy>  (91) 
CC(=O)c1ccc(SCc2cn3ccc(C)cc3[nH+]2)cc1 (protonated)
CC(=O)c1ccc(SCc2cn3ccc(C)cc3[nH+]2)cc1 (3D coordinates assigned)
CC(=O)c1ccc(SCc2cn3ccc(C)cc3[nH+]2)cc1 (optimized conformer: 69.05041534022644 kcal/mol)

>  <smiles>  (91) 
CC(=O)c1ccc(SCc2cn3ccc(C)cc3n2)cc1

>  <score_type>  (91) 
oracle

>  <origin>  (91) 
adg

>  <m_score__min__energy>  (91) 
-7.0999999999999996

>  <m_primary>  (91) 
energy

$$$$
91:0
     RDKit          3D

 41 43  0  0  0  0  0  0  0  0999 V2000
   55.1420   29.7190   43.3920 C   0  0  0  0  0  0  0  0  0  0  0  0
   56.2620   29.7550   44.3970 C   0  0  0  0  0  0  0  0  0  0  0  0
   57.1580   30.8350   44.4200 C   0  0  0  0  0  0  0  0  0  0  0  0
   58.2030   30.8840   45.3610 C   0  0  0  0  0  0  0  0  0  0  0  0
   59.0800   32.0250   45.4030 N   0  0  0  0  0  0  0  0  0  0  0  0
   58.6190   33.3790   45.5140 C   0  0  0  0  0  0  0  0  0  0  0  0
   57.4120   33.6640   45.2900 O   0  0  0  0  0  0  0  0  0  0  0  0
   59.5780   34.4650   45.8980 C   0  0  0  0  0  0  0  0  0  0  0  0
   60.1270   34.2090   47.2860 C   0  0  0  0  0  0  0  0  0  0  0  0
   59.2670   34.4020   48.3820 C   0  0  0  0  0  0  0  0  0  0  0  0
   59.7190   34.2220   49.6880 C   0  0  0  0  0  0  0  0  0  0  0  0
   61.0400   33.8560   49.9300 C   0  0  0  0  0  0  0  0  0  0  0  0
   61.9270   33.6680   48.8630 C   0  0  0  0  0  0  0  0  0  0  0  0
   63.2610   33.3100   49.1200 C   0  0  0  0  0  0  0  0  0  0  0  0
   64.1570   33.1290   48.0670 C   0  0  0  0  0  0  0  0  0  0  0  0
   63.7330   33.3040   46.7500 C   0  0  0  0  0  0  0  0  0  0  0  0
   62.4080   33.6600   46.4750 C   0  0  0  0  0  0  0  0  0  0  0  0
   61.4810   33.8470   47.5240 C   0  0  0  0  0  0  0  0  0  0  0  0
   58.3370   29.8390   46.3020 C   0  0  0  0  0  0  0  0  0  0  0  0
   59.4300   29.8630   47.3360 C   0  0  0  0  0  0  0  0  0  0  0  0
   57.4340   28.7660   46.2760 C   0  0  0  0  0  0  0  0  0  0  0  0
   56.4050   28.7200   45.3320 C   0  0  0  0  0  0  0  0  0  0  0  0
   55.5240   27.6450   45.3320 O   0  0  0  0  0  0  0  0  0  0  0  0
   54.1771   29.6880   43.9193 H   0  0  0  0  0  0  0  0  0  0  0  0
   55.1864   30.6190   42.7611 H   0  0  0  0  0  0  0  0  0  0  0  0
   55.2441   28.8237   42.7611 H   0  0  0  0  0  0  0  0  0  0  0  0
   57.0419   31.6529   43.6937 H   0  0  0  0  0  0  0  0  0  0  0  0
   60.1090   31.8630   45.3600 H   0  0  0  0  0  0  0  0  0  0  0  0
   60.4085   34.4884   45.1771 H   0  0  0  0  0  0  0  0  0  0  0  0
   59.0497   35.4298   45.8925 H   0  0  0  0  0  0  0  0  0  0  0  0
   58.2227   34.6993   48.2059 H   0  0  0  0  0  0  0  0  0  0  0  0
   59.0286   34.3699   50.5315 H   0  0  0  0  0  0  0  0  0  0  0  0
   61.3885   33.7139   50.9636 H   0  0  0  0  0  0  0  0  0  0  0  0
   63.6004   33.1718   50.1572 H   0  0  0  0  0  0  0  0  0  0  0  0
   65.1998   32.8478   48.2754 H   0  0  0  0  0  0  0  0  0  0  0  0
   64.4440   33.1614   45.9229 H   0  0  0  0  0  0  0  0  0  0  0  0
   62.0854   33.7955   45.4321 H   0  0  0  0  0  0  0  0  0  0  0  0
   58.9839   29.8532   48.3414 H   0  0  0  0  0  0  0  0  0  0  0  0
   60.0723   28.9787   47.2112 H   0  0  0  0  0  0  0  0  0  0  0  0
   60.0328   30.7746   47.2112 H   0  0  0  0  0  0  0  0  0  0  0  0
   57.5372   27.9510   47.0075 H   0  0  0  0  0  0  0  0  0  0  0  0
  1  2  1  0
  2  3  2  0
  3  4  1  0
  4  5  1  0
  5  6  1  0
  6  7  2  0
  6  8  1  0
  8  9  1  0
  9 10  2  0
 10 11  1  0
 11 12  2  0
 12 13  1  0
 13 14  2  0
 14 15  1  0
 15 16  2  0
 16 17  1  0
 17 18  2  0
  4 19  2  0
 19 20  1  0
 19 21  1  0
 21 22  2  0
 22 23  1  0
 22  2  1  0
 18  9  1  0
 18 13  1  0
  1 24  1  0
  1 25  1  0
  1 26  1  0
  3 27  1  0
  5 28  1  0
  8 29  1  0
  8 30  1  0
 10 31  1  0
 11 32  1  0
 12 33  1  0
 14 34  1  0
 15 35  1  0
 16 36  1  0
 17 37  1  0
 20 38  1  0
 20 39  1  0
 20 40  1  0
 21 41  1  0
M  CHG  1  23  -1
M  END
>  <UniqueID>  (92) 
84

>  <SMILES>  (92) 
Cc1cc(NC(=O)Cc2cccc3ccccc23)c(C)cc1[O-]

>  <Energy>  (92) 
50.818148728680306

>  <Genealogy>  (92) 
Cc1cc(NC(=O)Cc2cccc3ccccc23)c(C)cc1[O-] (protonated)
Cc1cc(NC(=O)Cc2cccc3ccccc23)c(C)cc1[O-] (3D coordinates assigned)
Cc1cc(NC(=O)Cc2cccc3ccccc23)c(C)cc1[O-] (optimized conformer: 50.818148728680306 kcal/mol)

>  <smiles>  (92) 
Cc1cc(NC(=O)Cc2cccc3ccccc23)c(C)cc1O

>  <score_type>  (92) 
oracle

>  <origin>  (92) 
adg

>  <m_score__min__energy>  (92) 
-11.01

>  <m_primary>  (92) 
energy

$$$$
92:0
     RDKit          3D

 51 53  0  0  0  0  0  0  0  0999 V2000
   60.5710   28.9220   45.0070 C   0  0  0  0  0  0  0  0  0  0  0  0
   59.3090   28.1670   45.3290 C   0  0  0  0  0  0  0  0  0  0  0  0
   59.3990   26.7970   45.6260 C   0  0  0  0  0  0  0  0  0  0  0  0
   58.2540   26.0540   45.9160 C   0  0  0  0  0  0  0  0  0  0  0  0
   56.9900   26.6610   45.9120 C   0  0  0  0  0  0  0  0  0  0  0  0
   55.7760   25.8760   46.2270 C   0  0  0  0  0  0  0  0  0  0  0  0
   54.6340   26.3110   45.9210 O   0  0  0  0  0  0  0  0  0  0  0  0
   55.8780   24.6460   46.8670 O   0  0  0  0  0  0  0  0  0  0  0  0
   56.8920   28.0270   45.6030 C   0  0  0  0  0  0  0  0  0  0  0  0
   58.0350   28.7850   45.2980 C   0  0  0  0  0  0  0  0  0  0  0  0
   57.8340   30.5040   44.9130 S   0  0  0  0  0  0  0  0  0  0  0  0
   56.3740   30.8410   44.7990 O   0  0  0  0  0  0  0  0  0  0  0  0
   58.4960   30.8010   43.5980 O   0  0  0  0  0  0  0  0  0  0  0  0
   58.5440   31.4540   46.1780 N   0  0  0  0  0  0  0  0  0  0  0  0
   58.9490   32.8170   46.0150 C   0  0  0  0  0  0  0  0  0  0  0  0
   58.2630   33.5990   45.0750 C   0  0  0  0  0  0  0  0  0  0  0  0
   58.6010   34.9390   44.8840 C   0  0  0  0  0  0  0  0  0  0  0  0
   59.6460   35.5060   45.6120 C   0  0  0  0  0  0  0  0  0  0  0  0
   60.3630   34.7310   46.5260 C   0  0  0  0  0  0  0  0  0  0  0  0
   60.0240   33.3840   46.7450 C   0  0  0  0  0  0  0  0  0  0  0  0
   60.8820   32.5680   47.6360 C   0  0  0  0  0  0  0  0  0  0  0  0
   61.9590   32.1000   47.1770 O   0  0  0  0  0  0  0  0  0  0  0  0
   60.5350   32.3340   49.0200 N   0  0  0  0  0  0  0  0  0  0  0  0
   61.6040   32.0210   49.9840 C   0  0  0  0  0  0  0  0  0  0  0  0
   62.0130   30.5300   49.9520 C   0  0  0  0  0  0  0  0  0  0  0  0
   60.8540   29.5360   50.1460 C   0  0  0  0  0  0  0  0  0  0  0  0
   59.6000   30.1420   50.8010 C   0  0  0  0  0  0  0  0  0  0  0  0
   58.6440   30.8810   49.8470 C   0  0  0  0  0  0  0  0  0  0  0  0
   59.1150   32.2850   49.4260 C   0  0  0  0  0  0  0  0  0  0  0  0
   61.0687   29.2198   45.9417 H   0  0  0  0  0  0  0  0  0  0  0  0
   61.2443   28.2782   44.4220 H   0  0  0  0  0  0  0  0  0  0  0  0
   60.3221   29.8197   44.4220 H   0  0  0  0  0  0  0  0  0  0  0  0
   60.3826   26.3046   45.6300 H   0  0  0  0  0  0  0  0  0  0  0  0
   58.3438   24.9829   46.1498 H   0  0  0  0  0  0  0  0  0  0  0  0
   55.9045   28.5116   45.5996 H   0  0  0  0  0  0  0  0  0  0  0  0
   57.4510   33.1520   44.4828 H   0  0  0  0  0  0  0  0  0  0  0  0
   58.0425   35.5486   44.1584 H   0  0  0  0  0  0  0  0  0  0  0  0
   59.9060   36.5649   45.4663 H   0  0  0  0  0  0  0  0  0  0  0  0
   61.2012   35.1786   47.0801 H   0  0  0  0  0  0  0  0  0  0  0  0
   62.4855   32.6337   49.7443 H   0  0  0  0  0  0  0  0  0  0  0  0
   61.2203   32.2406   50.9912 H   0  0  0  0  0  0  0  0  0  0  0  0
   62.4799   30.3246   48.9774 H   0  0  0  0  0  0  0  0  0  0  0  0
   62.6948   30.3787   50.8019 H   0  0  0  0  0  0  0  0  0  0  0  0
   60.5702   29.1415   49.1592 H   0  0  0  0  0  0  0  0  0  0  0  0
   61.2201   28.7564   50.8302 H   0  0  0  0  0  0  0  0  0  0  0  0
   59.0384   29.3250   51.2775 H   0  0  0  0  0  0  0  0  0  0  0  0
   59.9661   30.9007   51.5084 H   0  0  0  0  0  0  0  0  0  0  0  0
   58.5275   30.2718   48.9386 H   0  0  0  0  0  0  0  0  0  0  0  0
   57.7019   31.0209   50.3974 H   0  0  0  0  0  0  0  0  0  0  0  0
   58.4989   32.6191   48.5782 H   0  0  0  0  0  0  0  0  0  0  0  0
   59.0071   32.9389   50.3039 H   0  0  0  0  0  0  0  0  0  0  0  0
  1  2  1  0
  2  3  2  0
  3  4  1  0
  4  5  2  0
  5  6  1  0
  6  7  2  0
  6  8  1  0
  5  9  1  0
  9 10  2  0
 10 11  1  0
 11 12  2  0
 11 13  2  0
 11 14  1  0
 14 15  1  0
 15 16  2  0
 16 17  1  0
 17 18  2  0
 18 19  1  0
 19 20  2  0
 20 21  1  0
 21 22  2  0
 21 23  1  0
 23 24  1  0
 24 25  1  0
 25 26  1  0
 26 27  1  0
 27 28  1  0
 28 29  1  0
 10  2  1  0
 20 15  1  0
 29 23  1  0
  1 30  1  0
  1 31  1  0
  1 32  1  0
  3 33  1  0
  4 34  1  0
  9 35  1  0
 16 36  1  0
 17 37  1  0
 18 38  1  0
 19 39  1  0
 24 40  1  0
 24 41  1  0
 25 42  1  0
 25 43  1  0
 26 44  1  0
 26 45  1  0
 27 46  1  0
 27 47  1  0
 28 48  1  0
 28 49  1  0
 29 50  1  0
 29 51  1  0
M  CHG  2   8  -1  14  -1
M  END
>  <UniqueID>  (93) 
85

>  <SMILES>  (93) 
Cc1ccc(C(=O)[O-])cc1S(=O)(=O)[N-]c1ccccc1C(=O)N1CCCCCC1

>  <Energy>  (93) 
72.95691598550427

>  <Genealogy>  (93) 
Cc1ccc(C(=O)[O-])cc1S(=O)(=O)[N-]c1ccccc1C(=O)N1CCCCCC1 (protonated)
Cc1ccc(C(=O)[O-])cc1S(=O)(=O)[N-]c1ccccc1C(=O)N1CCCCCC1 (3D coordinates assigned)
Cc1ccc(C(=O)[O-])cc1S(=O)(=O)[N-]c1ccccc1C(=O)N1CCCCCC1 (nonaromatic ring conformer: 72.95691598550427 kcal/mol)

>  <smiles>  (93) 
Cc1ccc(C(=O)O)cc1S(=O)(=O)Nc1ccccc1C(=O)N1CCCCCC1

>  <score_type>  (93) 
oracle

>  <origin>  (93) 
adg

>  <m_score__min__energy>  (93) 
-11.99

>  <m_primary>  (93) 
energy

$$$$
93:0
     RDKit          3D

 58 62  0  0  0  0  0  0  0  0999 V2000
   60.8220   30.5990   48.2170 C   0  0  0  0  0  0  0  0  0  0  0  0
   60.3860   29.8870   49.4930 C   0  0  0  0  0  0  0  0  0  0  0  0
   60.8530   28.5390   49.5010 O   0  0  0  0  0  0  0  0  0  0  0  0
   60.9840   27.7750   50.6650 C   0  0  0  0  0  0  0  0  0  0  0  0
   60.8800   26.5190   50.6210 O   0  0  0  0  0  0  0  0  0  0  0  0
   61.2970   28.4380   51.8950 N   0  0  0  0  0  0  0  0  0  0  0  0
   62.3420   29.3990   52.1080 C   0  0  0  0  0  0  0  0  0  0  0  0
   62.2740   30.2260   53.2340 C   0  0  0  0  0  0  0  0  0  0  0  0
   63.2810   31.1610   53.4910 C   0  0  0  0  0  0  0  0  0  0  0  0
   64.3800   31.2740   52.6340 C   0  0  0  0  0  0  0  0  0  0  0  0
   65.3630   32.2290   52.9330 O   0  0  0  0  0  0  0  0  0  0  0  0
   65.3530   33.5710   52.4550 C   0  0  0  0  0  0  0  0  0  0  0  0
   64.5550   33.6350   51.1960 C   0  0  0  0  0  0  0  0  0  0  0  0
   63.2630   34.0520   51.1670 N   0  0  0  0  0  0  0  0  0  0  0  0
   62.9380   33.8980   49.8760 C   0  0  0  0  0  0  0  0  0  0  0  0
   61.7180   34.1750   49.2660 C   0  0  0  0  0  0  0  0  0  0  0  0
   61.5950   33.9320   47.8760 C   0  0  0  0  0  0  0  0  0  0  0  0
   60.3090   34.2100   47.1930 C   0  0  0  0  0  0  0  0  0  0  0  0
   59.2790   34.4400   47.8830 O   0  0  0  0  0  0  0  0  0  0  0  0
   60.2200   34.2400   45.7590 N   0  0  0  0  0  0  0  0  0  0  0  0
   58.9280   34.3510   45.0830 C   0  0  0  0  0  0  0  0  0  0  0  0
   58.3120   32.9920   44.8900 C   0  0  0  0  0  0  0  0  0  0  0  0
   58.3440   32.0420   45.9430 C   0  0  0  0  0  0  0  0  0  0  0  0
   57.8070   30.7540   45.7580 C   0  0  0  0  0  0  0  0  0  0  0  0
   57.2630   30.4500   44.5140 C   0  0  0  0  0  0  0  0  0  0  0  0
   57.2420   31.3500   43.4990 C   0  0  0  0  0  0  0  0  0  0  0  0
   57.7610   32.6350   43.6390 C   0  0  0  0  0  0  0  0  0  0  0  0
   56.6520   30.7780   42.3880 O   0  0  0  0  0  0  0  0  0  0  0  0
   56.2800   29.4340   42.7270 C   0  0  0  0  0  0  0  0  0  0  0  0
   56.6870   29.2670   44.0920 O   0  0  0  0  0  0  0  0  0  0  0  0
   62.7060   33.3990   47.1630 C   0  0  0  0  0  0  0  0  0  0  0  0
   63.9220   33.1320   47.8200 C   0  0  0  0  0  0  0  0  0  0  0  0
   63.9950   33.4010   49.1820 C   0  0  0  0  0  0  0  0  0  0  0  0
   65.0420   33.2140   49.9990 N   0  0  0  0  0  0  0  0  0  0  0  0
   64.4660   30.4260   51.5130 C   0  0  0  0  0  0  0  0  0  0  0  0
   63.4580   29.4910   51.2560 C   0  0  0  0  0  0  0  0  0  0  0  0
   61.3800   31.5103   48.4780 H   0  0  0  0  0  0  0  0  0  0  0  0
   61.4662   29.9311   47.6263 H   0  0  0  0  0  0  0  0  0  0  0  0
   59.9343   30.8692   47.6263 H   0  0  0  0  0  0  0  0  0  0  0  0
   60.8001   30.4181   50.3627 H   0  0  0  0  0  0  0  0  0  0  0  0
   59.2869   29.8816   49.5380 H   0  0  0  0  0  0  0  0  0  0  0  0
   61.4209   30.1399   53.9231 H   0  0  0  0  0  0  0  0  0  0  0  0
   63.2082   31.8127   54.3741 H   0  0  0  0  0  0  0  0  0  0  0  0
   64.9001   34.2282   53.2119 H   0  0  0  0  0  0  0  0  0  0  0  0
   66.3834   33.9018   52.2578 H   0  0  0  0  0  0  0  0  0  0  0  0
   60.8726   34.5717   49.8474 H   0  0  0  0  0  0  0  0  0  0  0  0
   61.0960   34.2390   45.1900 H   0  0  0  0  0  0  0  0  0  0  0  0
   58.2534   34.9703   45.6923 H   0  0  0  0  0  0  0  0  0  0  0  0
   59.0827   34.8132   44.0969 H   0  0  0  0  0  0  0  0  0  0  0  0
   58.7914   32.3136   46.9105 H   0  0  0  0  0  0  0  0  0  0  0  0
   57.8171   30.0122   46.5702 H   0  0  0  0  0  0  0  0  0  0  0  0
   57.7425   33.3489   42.8024 H   0  0  0  0  0  0  0  0  0  0  0  0
   55.1929   29.2977   42.6287 H   0  0  0  0  0  0  0  0  0  0  0  0
   56.7524   28.6954   42.0626 H   0  0  0  0  0  0  0  0  0  0  0  0
   62.6132   33.1935   46.0864 H   0  0  0  0  0  0  0  0  0  0  0  0
   64.7855   32.7242   47.2740 H   0  0  0  0  0  0  0  0  0  0  0  0
   65.3301   30.4993   50.8362 H   0  0  0  0  0  0  0  0  0  0  0  0
   63.5380   28.8249   50.3843 H   0  0  0  0  0  0  0  0  0  0  0  0
  1  2  1  0
  2  3  1  0
  3  4  1  0
  4  5  2  0
  4  6  1  0
  6  7  1  0
  7  8  2  0
  8  9  1  0
  9 10  2  0
 10 11  1  0
 11 12  1  0
 12 13  1  0
 13 14  2  0
 14 15  1  0
 15 16  2  0
 16 17  1  0
 17 18  1  0
 18 19  2  0
 18 20  1  0
 20 21  1  0
 21 22  1  0
 22 23  2  0
 23 24  1  0
 24 25  2  0
 25 26  1  0
 26 27  2  0
 26 28  1  0
 28 29  1  0
 29 30  1  0
 17 31  2  0
 31 32  1  0
 32 33  2  0
 33 34  1  0
 10 35  1  0
 35 36  2  0
 36  7  1  0
 34 13  1  0
 33 15  1  0
 27 22  1  0
 30 25  1  0
  1 37  1  0
  1 38  1  0
  1 39  1  0
  2 40  1  0
  2 41  1  0
  8 42  1  0
  9 43  1  0
 12 44  1  0
 12 45  1  0
 16 46  1  0
 20 47  1  0
 21 48  1  0
 21 49  1  0
 23 50  1  0
 24 51  1  0
 27 52  1  0
 29 53  1  0
 29 54  1  0
 31 55  1  0
 32 56  1  0
 35 57  1  0
 36 58  1  0
M  CHG  2   6  -1  34  -1
M  END
>  <UniqueID>  (94) 
86

>  <SMILES>  (94) 
CCOC(=O)[N-]c1ccc(OCc2nc3cc(C(=O)NCc4ccc5c(c4)OCO5)ccc3[n-]2)cc1

>  <Energy>  (94) 
124.43712316676651

>  <Genealogy>  (94) 
CCOC(=O)[N-]c1ccc(OCc2nc3cc(C(=O)NCc4ccc5c(c4)OCO5)ccc3[n-]2)cc1 (protonated)
CCOC(=O)[N-]c1ccc(OCc2nc3cc(C(=O)NCc4ccc5c(c4)OCO5)ccc3[n-]2)cc1 (3D coordinates assigned)
CCOC(=O)[N-]c1ccc(OCc2nc3cc(C(=O)NCc4ccc5c(c4)OCO5)ccc3[n-]2)cc1 (nonaromatic ring conformer: 124.43712316676651 kcal/mol)

>  <smiles>  (94) 
CCOC(=O)Nc1ccc(OCc2nc3cc(C(=O)NCc4ccc5c(c4)OCO5)ccc3[nH]2)cc1

>  <score_type>  (94) 
oracle

>  <origin>  (94) 
adg

>  <m_score__min__energy>  (94) 
-10.49

>  <m_primary>  (94) 
energy

$$$$
94:0
     RDKit          3D

 67 70  0  0  0  0  0  0  0  0999 V2000
   59.7680   33.7920   52.4360 C   0  0  0  0  0  0  0  0  0  0  0  0
   60.4170   33.7340   51.1710 O   0  0  0  0  0  0  0  0  0  0  0  0
   59.7520   33.6640   49.9340 C   0  0  0  0  0  0  0  0  0  0  0  0
   60.0900   34.5040   48.8590 C   0  0  0  0  0  0  0  0  0  0  0  0
   59.4040   34.4070   47.6470 C   0  0  0  0  0  0  0  0  0  0  0  0
   58.3390   33.5110   47.5070 C   0  0  0  0  0  0  0  0  0  0  0  0
   57.6710   33.3690   46.2480 N   0  0  0  0  0  0  0  0  0  0  0  0
   58.3750   33.4320   45.0040 C   0  0  0  0  0  0  0  0  0  0  0  0
   58.8420   34.5320   44.6080 O   0  0  0  0  0  0  0  0  0  0  0  0
   58.4860   32.2710   44.1670 N   0  0  0  0  0  0  0  0  0  0  0  0
   57.8870   31.0050   44.4880 C   0  0  0  0  0  0  0  0  0  0  0  0
   56.6080   30.7020   44.0080 C   0  0  0  0  0  0  0  0  0  0  0  0
   55.9870   29.4960   44.3640 C   0  0  0  0  0  0  0  0  0  0  0  0
   56.6110   28.6010   45.2410 C   0  0  0  0  0  0  0  0  0  0  0  0
   55.9020   27.4470   45.6210 O   0  0  0  0  0  0  0  0  0  0  0  0
   56.4530   26.2770   46.2320 C   0  0  0  0  0  0  0  0  0  0  0  0
   57.5790   25.6910   45.3770 C   0  0  0  0  0  0  0  0  0  0  0  0
   57.8960   24.2220   45.7030 C   0  0  0  0  0  0  0  0  0  0  0  0
   57.1490   23.2760   44.8460 N   0  0  0  0  0  0  0  0  0  0  0  0
   56.5950   23.9470   43.6510 C   0  0  0  0  0  0  0  0  0  0  0  0
   55.8740   22.9270   42.7410 C   0  0  0  0  0  0  0  0  0  0  0  0
   55.9940   21.6040   43.2290 O   0  0  0  0  0  0  0  0  0  0  0  0
   57.3610   21.2760   43.3750 C   0  0  0  0  0  0  0  0  0  0  0  0
   58.0440   22.1770   44.4240 C   0  0  0  0  0  0  0  0  0  0  0  0
   57.9050   28.9020   45.7110 C   0  0  0  0  0  0  0  0  0  0  0  0
   58.5430   30.0870   45.3270 C   0  0  0  0  0  0  0  0  0  0  0  0
   57.9760   32.6920   48.5800 C   0  0  0  0  0  0  0  0  0  0  0  0
   58.7180   32.7190   49.7700 C   0  0  0  0  0  0  0  0  0  0  0  0
   58.4910   31.7050   50.7560 N   0  0  0  0  0  0  0  0  0  0  0  0
   58.7010   30.3140   50.4750 C   0  0  0  0  0  0  0  0  0  0  0  0
   57.8530   29.4710   50.8630 O   0  0  0  0  0  0  0  0  0  0  0  0
   59.8890   29.9020   49.7790 N   0  0  0  0  0  0  0  0  0  0  0  0
   60.8150   30.6850   49.0130 C   0  0  0  0  0  0  0  0  0  0  0  0
   60.6230   30.9700   47.6470 C   0  0  0  0  0  0  0  0  0  0  0  0
   61.5130   31.8150   46.9710 C   0  0  0  0  0  0  0  0  0  0  0  0
   62.6190   32.3460   47.6420 C   0  0  0  0  0  0  0  0  0  0  0  0
   63.7400   33.3940   46.7900 Cl  0  0  0  0  0  0  0  0  0  0  0  0
   62.8230   32.0520   48.9970 C   0  0  0  0  0  0  0  0  0  0  0  0
   61.9110   31.2470   49.6830 C   0  0  0  0  0  0  0  0  0  0  0  0
   60.5191   33.7249   53.2369 H   0  0  0  0  0  0  0  0  0  0  0  0
   59.2216   34.7426   52.5245 H   0  0  0  0  0  0  0  0  0  0  0  0
   59.0617   32.9534   52.5245 H   0  0  0  0  0  0  0  0  0  0  0  0
   60.8986   35.2410   48.9731 H   0  0  0  0  0  0  0  0  0  0  0  0
   59.7026   35.0387   46.7974 H   0  0  0  0  0  0  0  0  0  0  0  0
   56.0876   31.4125   43.3489 H   0  0  0  0  0  0  0  0  0  0  0  0
   54.9982   29.2505   43.9493 H   0  0  0  0  0  0  0  0  0  0  0  0
   56.8535   26.5425   47.2215 H   0  0  0  0  0  0  0  0  0  0  0  0
   55.6572   25.5237   46.3281 H   0  0  0  0  0  0  0  0  0  0  0  0
   57.2835   25.7570   44.3195 H   0  0  0  0  0  0  0  0  0  0  0  0
   58.4865   26.2736   45.5939 H   0  0  0  0  0  0  0  0  0  0  0  0
   58.9733   24.0534   45.5583 H   0  0  0  0  0  0  0  0  0  0  0  0
   57.5934   24.0387   46.7446 H   0  0  0  0  0  0  0  0  0  0  0  0
   55.8779   24.7182   43.9690 H   0  0  0  0  0  0  0  0  0  0  0  0
   57.4204   24.4053   43.0864 H   0  0  0  0  0  0  0  0  0  0  0  0
   54.8074   23.1905   42.6875 H   0  0  0  0  0  0  0  0  0  0  0  0
   56.3438   22.9666   41.7471 H   0  0  0  0  0  0  0  0  0  0  0  0
   57.4457   20.2267   43.6941 H   0  0  0  0  0  0  0  0  0  0  0  0
   57.8604   21.4297   42.4070 H   0  0  0  0  0  0  0  0  0  0  0  0
   58.3063   21.5698   45.3029 H   0  0  0  0  0  0  0  0  0  0  0  0
   58.9467   22.6152   43.9733 H   0  0  0  0  0  0  0  0  0  0  0  0
   58.4177   28.2000   46.3850 H   0  0  0  0  0  0  0  0  0  0  0  0
   59.5616   30.3010   45.6829 H   0  0  0  0  0  0  0  0  0  0  0  0
   57.1062   32.0246   48.4909 H   0  0  0  0  0  0  0  0  0  0  0  0
   59.7715   30.5277   47.1092 H   0  0  0  0  0  0  0  0  0  0  0  0
   61.3417   32.0607   45.9126 H   0  0  0  0  0  0  0  0  0  0  0  0
   63.7022   32.4556   49.5206 H   0  0  0  0  0  0  0  0  0  0  0  0
   62.0535   31.0525   50.7563 H   0  0  0  0  0  0  0  0  0  0  0  0
  1  2  1  0
  2  3  1  0
  3  4  2  0
  4  5  1  0
  5  6  2  0
  6  7  1  0
  7  8  1  0
  8  9  2  0
  8 10  1  0
 10 11  1  0
 11 12  2  0
 12 13  1  0
 13 14  2  0
 14 15  1  0
 15 16  1  0
 16 17  1  0
 17 18  1  0
 18 19  1  0
 19 20  1  0
 20 21  1  0
 21 22  1  0
 22 23  1  0
 23 24  1  0
 14 25  1  0
 25 26  2  0
  6 27  1  0
 27 28  2  0
 28 29  1  0
 29 30  1  0
 30 31  2  0
 30 32  1  0
 32 33  1  0
 33 34  2  0
 34 35  1  0
 35 36  2  0
 36 37  1  0
 36 38  1  0
 38 39  2  0
 28  3  1  0
 39 33  1  0
 26 11  1  0
 24 19  1  0
  1 40  1  0
  1 41  1  0
  1 42  1  0
  4 43  1  0
  5 44  1  0
 12 45  1  0
 13 46  1  0
 16 47  1  0
 16 48  1  0
 17 49  1  0
 17 50  1  0
 18 51  1  0
 18 52  1  0
 20 53  1  0
 20 54  1  0
 21 55  1  0
 21 56  1  0
 23 57  1  0
 23 58  1  0
 24 59  1  0
 24 60  1  0
 25 61  1  0
 26 62  1  0
 27 63  1  0
 34 64  1  0
 35 65  1  0
 38 66  1  0
 39 67  1  0
M  CHG  4   7  -1  10  -1  29  -1  32  -1
M  END
>  <UniqueID>  (95) 
87

>  <SMILES>  (95) 
COc1ccc([N-]C(=O)[N-]c2ccc(OCCCN3CCOCC3)cc2)cc1[N-]C(=O)[N-]c1ccc(Cl)cc1

>  <Energy>  (95) 
91.21310934991602

>  <Genealogy>  (95) 
COc1ccc([N-]C(=O)[N-]c2ccc(OCCCN3CCOCC3)cc2)cc1[N-]C(=O)[N-]c1ccc(Cl)cc1 (protonated)
COc1ccc([N-]C(=O)[N-]c2ccc(OCCCN3CCOCC3)cc2)cc1[N-]C(=O)[N-]c1ccc(Cl)cc1 (3D coordinates assigned)
COc1ccc([N-]C(=O)[N-]c2ccc(OCCCN3CCOCC3)cc2)cc1[N-]C(=O)[N-]c1ccc(Cl)cc1 (nonaromatic ring conformer: 91.21310934991602 kcal/mol)

>  <smiles>  (95) 
COc1ccc(NC(=O)Nc2ccc(OCCCN3CCOCC3)cc2)cc1NC(=O)Nc1ccc(Cl)cc1

>  <score_type>  (95) 
oracle

>  <origin>  (95) 
adg

>  <m_score__min__energy>  (95) 
-13.94

>  <m_primary>  (95) 
energy

$$$$
95:0
     RDKit          3D

 47 49  0  0  0  0  0  0  0  0999 V2000
   59.4340   29.6320   44.5180 C   0  0  0  0  0  0  0  0  0  0  0  0
   57.9960   29.8430   44.6790 N   0  0  0  0  0  0  0  0  0  0  0  0
   57.2780   30.9540   44.4150 C   0  0  0  0  0  0  0  0  0  0  0  0
   57.8440   32.2630   43.9490 C   0  0  0  0  0  0  0  0  0  0  0  0
   58.3540   33.0620   45.1170 C   0  0  0  0  0  0  0  0  0  0  0  0
   59.1740   34.1840   44.9110 C   0  0  0  0  0  0  0  0  0  0  0  0
   59.6270   34.9360   45.9990 C   0  0  0  0  0  0  0  0  0  0  0  0
   59.2650   34.5740   47.3000 C   0  0  0  0  0  0  0  0  0  0  0  0
   58.4490   33.4590   47.5140 C   0  0  0  0  0  0  0  0  0  0  0  0
   57.9930   32.7060   46.4270 C   0  0  0  0  0  0  0  0  0  0  0  0
   55.9560   30.7260   44.5460 N   0  0  0  0  0  0  0  0  0  0  0  0
   55.8130   29.4570   44.9000 N   0  0  0  0  0  0  0  0  0  0  0  0
   57.0490   28.9290   44.9730 C   0  0  0  0  0  0  0  0  0  0  0  0
   57.3670   27.2140   45.4050 S   0  0  0  0  0  0  0  0  0  0  0  0
   57.8390   27.5760   47.1310 C   0  0  0  0  0  0  0  0  0  0  0  0
   59.3110   27.8060   47.2400 C   0  0  0  0  0  0  0  0  0  0  0  0
   60.0980   27.2020   46.4620 O   0  0  0  0  0  0  0  0  0  0  0  0
   59.8110   28.7500   48.1910 N   0  0  0  0  0  0  0  0  0  0  0  0
   59.8690   30.1890   47.9550 C   0  0  0  0  0  0  0  0  0  0  0  0
   61.1440   30.5760   47.1990 C   0  0  0  0  0  0  0  0  0  0  0  0
   61.7530   31.8360   47.7550 C   0  0  0  0  0  0  0  0  0  0  0  0
   61.2790   32.3800   48.9600 C   0  0  0  0  0  0  0  0  0  0  0  0
   61.8680   33.5310   49.4940 C   0  0  0  0  0  0  0  0  0  0  0  0
   62.9360   34.1420   48.8320 C   0  0  0  0  0  0  0  0  0  0  0  0
   63.4210   33.6020   47.6380 C   0  0  0  0  0  0  0  0  0  0  0  0
   62.8350   32.4510   47.1010 C   0  0  0  0  0  0  0  0  0  0  0  0
   59.9075   29.5625   45.5084 H   0  0  0  0  0  0  0  0  0  0  0  0
   59.6077   28.6988   43.9622 H   0  0  0  0  0  0  0  0  0  0  0  0
   59.8685   30.4760   43.9622 H   0  0  0  0  0  0  0  0  0  0  0  0
   58.6731   32.0713   43.2519 H   0  0  0  0  0  0  0  0  0  0  0  0
   57.0503   32.8350   43.4461 H   0  0  0  0  0  0  0  0  0  0  0  0
   59.4609   34.4721   43.8889 H   0  0  0  0  0  0  0  0  0  0  0  0
   60.2689   35.8134   45.8313 H   0  0  0  0  0  0  0  0  0  0  0  0
   59.6222   35.1664   48.1553 H   0  0  0  0  0  0  0  0  0  0  0  0
   58.1654   33.1738   48.5378 H   0  0  0  0  0  0  0  0  0  0  0  0
   57.3488   31.8311   46.5988 H   0  0  0  0  0  0  0  0  0  0  0  0
   57.3069   28.4774   47.4691 H   0  0  0  0  0  0  0  0  0  0  0  0
   57.5688   26.7144   47.7591 H   0  0  0  0  0  0  0  0  0  0  0  0
   58.9940   30.4906   47.3605 H   0  0  0  0  0  0  0  0  0  0  0  0
   59.8723   30.7015   48.9283 H   0  0  0  0  0  0  0  0  0  0  0  0
   61.8737   29.7575   47.2860 H   0  0  0  0  0  0  0  0  0  0  0  0
   60.8807   30.7549   46.1461 H   0  0  0  0  0  0  0  0  0  0  0  0
   60.4412   31.8990   49.4860 H   0  0  0  0  0  0  0  0  0  0  0  0
   61.4900   33.9554   50.4358 H   0  0  0  0  0  0  0  0  0  0  0  0
   63.3956   35.0492   49.2513 H   0  0  0  0  0  0  0  0  0  0  0  0
   64.2642   34.0824   47.1200 H   0  0  0  0  0  0  0  0  0  0  0  0
   63.2222   32.0254   46.1635 H   0  0  0  0  0  0  0  0  0  0  0  0
  1  2  1  0
  2  3  1  0
  3  4  1  0
  4  5  1  0
  5  6  2  0
  6  7  1  0
  7  8  2  0
  8  9  1  0
  9 10  2  0
  3 11  2  0
 11 12  1  0
 12 13  2  0
 13 14  1  0
 14 15  1  0
 15 16  1  0
 16 17  2  0
 16 18  1  0
 18 19  1  0
 19 20  1  0
 20 21  1  0
 21 22  2  0
 22 23  1  0
 23 24  2  0
 24 25  1  0
 25 26  2  0
 13  2  1  0
 26 21  1  0
 10  5  1  0
  1 27  1  0
  1 28  1  0
  1 29  1  0
  4 30  1  0
  4 31  1  0
  6 32  1  0
  7 33  1  0
  8 34  1  0
  9 35  1  0
 10 36  1  0
 15 37  1  0
 15 38  1  0
 19 39  1  0
 19 40  1  0
 20 41  1  0
 20 42  1  0
 22 43  1  0
 23 44  1  0
 24 45  1  0
 25 46  1  0
 26 47  1  0
M  CHG  1  18  -1
M  END
>  <UniqueID>  (96) 
88

>  <SMILES>  (96) 
Cn1c(Cc2ccccc2)nnc1SCC(=O)[N-]CCc1ccccc1

>  <Energy>  (96) 
70.57854607560685

>  <Genealogy>  (96) 
Cn1c(Cc2ccccc2)nnc1SCC(=O)[N-]CCc1ccccc1 (protonated)
Cn1c(Cc2ccccc2)nnc1SCC(=O)[N-]CCc1ccccc1 (3D coordinates assigned)
Cn1c(Cc2ccccc2)nnc1SCC(=O)[N-]CCc1ccccc1 (optimized conformer: 70.57854607560685 kcal/mol)

>  <smiles>  (96) 
Cn1c(Cc2ccccc2)nnc1SCC(=O)NCCc1ccccc1

>  <score_type>  (96) 
oracle

>  <origin>  (96) 
adg

>  <m_score__min__energy>  (96) 
-11.4

>  <m_primary>  (96) 
energy

$$$$
96:0
     RDKit          3D

 60 63  0  0  0  0  0  0  0  0999 V2000
   63.5560   31.8760   48.8150 N   0  0  0  0  0  0  0  0  0  0  0  0
   62.5820   32.1770   48.2590 C   0  0  0  0  0  0  0  0  0  0  0  0
   61.3650   32.5540   47.5680 C   0  0  0  0  0  0  0  0  0  0  0  0
   60.1430   31.8830   47.7940 C   0  0  0  0  0  0  0  0  0  0  0  0
   59.9500   30.8710   48.8590 C   0  0  0  0  0  0  0  0  0  0  0  0
   59.0070   31.1080   49.8740 C   0  0  0  0  0  0  0  0  0  0  0  0
   58.8790   30.2180   50.9460 C   0  0  0  0  0  0  0  0  0  0  0  0
   59.6990   29.0910   51.0220 C   0  0  0  0  0  0  0  0  0  0  0  0
   60.6530   28.8520   50.0290 C   0  0  0  0  0  0  0  0  0  0  0  0
   60.7880   29.7410   48.9560 C   0  0  0  0  0  0  0  0  0  0  0  0
   59.0650   32.2110   47.0380 N   0  0  0  0  0  0  0  0  0  0  0  0
   59.1090   33.2100   46.1240 C   0  0  0  0  0  0  0  0  0  0  0  0
   57.6160   33.6790   45.2620 S   0  0  0  0  0  0  0  0  0  0  0  0
   57.9760   32.6740   43.7800 C   0  0  0  0  0  0  0  0  0  0  0  0
   57.5760   31.2430   44.0070 C   0  0  0  0  0  0  0  0  0  0  0  0
   56.2310   30.8970   44.2250 C   0  0  0  0  0  0  0  0  0  0  0  0
   55.8840   29.5860   44.5470 C   0  0  0  0  0  0  0  0  0  0  0  0
   56.8700   28.6010   44.6230 C   0  0  0  0  0  0  0  0  0  0  0  0
   58.2120   28.9200   44.3700 C   0  0  0  0  0  0  0  0  0  0  0  0
   59.2730   27.8570   44.4200 C   0  0  0  0  0  0  0  0  0  0  0  0
   60.5810   28.2960   45.6250 S   0  0  0  0  0  0  0  0  0  0  0  0
   59.9860   27.2460   47.0000 C   0  0  0  0  0  0  0  0  0  0  0  0
   58.5400   27.5180   47.3130 C   0  0  0  0  0  0  0  0  0  0  0  0
   58.1480   28.7010   47.4800 O   0  0  0  0  0  0  0  0  0  0  0  0
   57.6010   26.4520   47.4690 N   0  0  0  0  0  0  0  0  0  0  0  0
   57.3830   25.3940   46.5270 C   0  0  0  0  0  0  0  0  0  0  0  0
   56.1490   25.2440   45.8700 C   0  0  0  0  0  0  0  0  0  0  0  0
   55.9320   24.1530   45.0240 C   0  0  0  0  0  0  0  0  0  0  0  0
   56.9440   23.2060   44.8200 C   0  0  0  0  0  0  0  0  0  0  0  0
   56.6500   21.8270   43.7630 S   0  0  0  0  0  0  0  0  0  0  0  0
   58.1550   21.0960   43.3280 N   0  0  0  0  0  0  0  0  0  0  0  0
   55.7900   20.8220   44.4750 O   0  0  0  0  0  0  0  0  0  0  0  0
   55.9400   22.2730   42.5140 O   0  0  0  0  0  0  0  0  0  0  0  0
   58.1740   23.3520   45.4790 C   0  0  0  0  0  0  0  0  0  0  0  0
   58.3850   24.4350   46.3370 C   0  0  0  0  0  0  0  0  0  0  0  0
   58.5610   30.2460   44.0750 C   0  0  0  0  0  0  0  0  0  0  0  0
   60.2650   33.8880   45.9130 N   0  0  0  0  0  0  0  0  0  0  0  0
   61.3930   33.5720   46.5980 C   0  0  0  0  0  0  0  0  0  0  0  0
   62.4570   34.2020   46.3550 O   0  0  0  0  0  0  0  0  0  0  0  0
   58.3649   31.9998   49.8252 H   0  0  0  0  0  0  0  0  0  0  0  0
   58.1310   30.4067   51.7301 H   0  0  0  0  0  0  0  0  0  0  0  0
   59.5943   28.3907   51.8638 H   0  0  0  0  0  0  0  0  0  0  0  0
   61.2989   27.9638   50.0907 H   0  0  0  0  0  0  0  0  0  0  0  0
   61.5510   29.5573   48.1853 H   0  0  0  0  0  0  0  0  0  0  0  0
   57.4138   33.0760   42.9242 H   0  0  0  0  0  0  0  0  0  0  0  0
   59.0561   32.7143   43.5755 H   0  0  0  0  0  0  0  0  0  0  0  0
   55.4481   31.6651   44.1410 H   0  0  0  0  0  0  0  0  0  0  0  0
   54.8326   29.3275   44.7413 H   0  0  0  0  0  0  0  0  0  0  0  0
   56.5929   27.5687   44.8828 H   0  0  0  0  0  0  0  0  0  0  0  0
   58.8135   26.9032   44.7186 H   0  0  0  0  0  0  0  0  0  0  0  0
   59.7289   27.7680   43.4229 H   0  0  0  0  0  0  0  0  0  0  0  0
   60.0982   26.1889   46.7173 H   0  0  0  0  0  0  0  0  0  0  0  0
   60.5829   27.4766   47.8947 H   0  0  0  0  0  0  0  0  0  0  0  0
   55.3524   25.9872   46.0223 H   0  0  0  0  0  0  0  0  0  0  0  0
   54.9630   24.0374   44.5164 H   0  0  0  0  0  0  0  0  0  0  0  0
   58.5820   20.7290   44.2090 H   0  0  0  0  0  0  0  0  0  0  0  0
   57.9330   20.2660   42.7340 H   0  0  0  0  0  0  0  0  0  0  0  0
   58.9733   22.6132   45.3202 H   0  0  0  0  0  0  0  0  0  0  0  0
   59.3442   24.5344   46.8662 H   0  0  0  0  0  0  0  0  0  0  0  0
   59.6146   30.5063   43.8956 H   0  0  0  0  0  0  0  0  0  0  0  0
  1  2  3  0
  2  3  1  0
  3  4  2  0
  4  5  1  0
  5  6  2  0
  6  7  1  0
  7  8  2  0
  8  9  1  0
  9 10  2  0
  4 11  1  0
 11 12  1  0
 12 13  1  0
 13 14  1  0
 14 15  1  0
 15 16  2  0
 16 17  1  0
 17 18  2  0
 18 19  1  0
 19 20  1  0
 20 21  1  0
 21 22  1  0
 22 23  1  0
 23 24  2  0
 23 25  1  0
 25 26  1  0
 26 27  2  0
 27 28  1  0
 28 29  2  0
 29 30  1  0
 30 31  1  0
 30 32  2  0
 30 33  2  0
 29 34  1  0
 34 35  2  0
 19 36  2  0
 12 37  2  0
 37 38  1  0
 38 39  2  0
 38  3  1  0
 10  5  1  0
 36 15  1  0
 35 26  1  0
  6 40  1  0
  7 41  1  0
  8 42  1  0
  9 43  1  0
 10 44  1  0
 14 45  1  0
 14 46  1  0
 16 47  1  0
 17 48  1  0
 18 49  1  0
 20 50  1  0
 20 51  1  0
 22 52  1  0
 22 53  1  0
 27 54  1  0
 28 55  1  0
 31 56  1  0
 31 57  1  0
 34 58  1  0
 35 59  1  0
 36 60  1  0
M  CHG  2  11  -1  25  -1
M  END
>  <UniqueID>  (97) 
89

>  <SMILES>  (97) 
N#Cc1c(-c2ccccc2)[n-]c(SCc2cccc(CSCC(=O)[N-]c3ccc(S(N)(=O)=O)cc3)c2)nc1=O

>  <Energy>  (97) 
62.9458478968149

>  <Genealogy>  (97) 
N#Cc1c(-c2ccccc2)[n-]c(SCc2cccc(CSCC(=O)[N-]c3ccc(S(N)(=O)=O)cc3)c2)nc1=O (protonated)
N#Cc1c(-c2ccccc2)[n-]c(SCc2cccc(CSCC(=O)[N-]c3ccc(S(N)(=O)=O)cc3)c2)nc1=O (3D coordinates assigned)
N#Cc1c(-c2ccccc2)[n-]c(SCc2cccc(CSCC(=O)[N-]c3ccc(S(N)(=O)=O)cc3)c2)nc1=O (optimized conformer: 62.9458478968149 kcal/mol)

>  <smiles>  (97) 
N#Cc1c(-c2ccccc2)[nH]c(SCc2cccc(CSCC(=O)Nc3ccc(S(N)(=O)=O)cc3)c2)nc1=O

>  <score_type>  (97) 
oracle

>  <origin>  (97) 
adg

>  <m_score__min__energy>  (97) 
-12.949999999999999

>  <m_primary>  (97) 
energy

$$$$
97:0
     RDKit          3D

 35 36  0  0  0  0  0  0  0  0999 V2000
   57.7880   33.7110   46.2860 C   0  0  0  0  0  0  0  0  0  0  0  0
   57.7590   32.7340   45.1580 C   0  0  0  0  0  0  0  0  0  0  0  0
   58.1640   32.9820   43.8600 C   0  0  0  0  0  0  0  0  0  0  0  0
   58.0170   31.7710   43.2190 C   0  0  0  0  0  0  0  0  0  0  0  0
   57.5690   30.8670   44.1110 N   0  0  0  0  0  0  0  0  0  0  0  0
   57.2740   29.4640   43.8400 C   0  0  0  0  0  0  0  0  0  0  0  0
   56.2310   28.9570   44.7960 C   0  0  0  0  0  0  0  0  0  0  0  0
   55.1440   29.5810   44.9050 O   0  0  0  0  0  0  0  0  0  0  0  0
   56.4550   27.8080   45.6230 N   0  0  0  0  0  0  0  0  0  0  0  0
   57.6810   27.0210   45.6260 C   0  0  0  0  0  0  0  0  0  0  0  0
   58.8020   27.8590   46.1530 C   0  0  0  0  0  0  0  0  0  0  0  0
   59.9760   27.3990   46.1470 O   0  0  0  0  0  0  0  0  0  0  0  0
   58.5340   29.1750   46.6620 N   0  0  0  0  0  0  0  0  0  0  0  0
   59.5210   29.9840   47.3200 C   0  0  0  0  0  0  0  0  0  0  0  0
   60.5030   30.6290   46.5510 C   0  0  0  0  0  0  0  0  0  0  0  0
   61.4680   31.4310   47.1660 C   0  0  0  0  0  0  0  0  0  0  0  0
   61.4490   31.6110   48.5520 C   0  0  0  0  0  0  0  0  0  0  0  0
   60.4600   30.9960   49.3230 C   0  0  0  0  0  0  0  0  0  0  0  0
   59.4920   30.1890   48.7130 C   0  0  0  0  0  0  0  0  0  0  0  0
   58.5040   29.6550   49.4740 F   0  0  0  0  0  0  0  0  0  0  0  0
   57.4090   31.4400   45.2940 N   0  0  0  0  0  0  0  0  0  0  0  0
   57.7719   33.1676   47.2423 H   0  0  0  0  0  0  0  0  0  0  0  0
   58.7045   34.3161   46.2235 H   0  0  0  0  0  0  0  0  0  0  0  0
   56.9090   34.3694   46.2235 H   0  0  0  0  0  0  0  0  0  0  0  0
   58.5225   33.9311   43.4349 H   0  0  0  0  0  0  0  0  0  0  0  0
   58.2297   31.5757   42.1576 H   0  0  0  0  0  0  0  0  0  0  0  0
   56.9016   29.3638   42.8098 H   0  0  0  0  0  0  0  0  0  0  0  0
   58.1934   28.8737   43.9670 H   0  0  0  0  0  0  0  0  0  0  0  0
   57.5493   26.1372   46.2675 H   0  0  0  0  0  0  0  0  0  0  0  0
   57.9134   26.6950   44.6014 H   0  0  0  0  0  0  0  0  0  0  0  0
   57.6190   29.6170   46.4180 H   0  0  0  0  0  0  0  0  0  0  0  0
   60.5127   30.5022   45.4584 H   0  0  0  0  0  0  0  0  0  0  0  0
   62.2433   31.9211   46.5588 H   0  0  0  0  0  0  0  0  0  0  0  0
   62.2132   32.2372   49.0357 H   0  0  0  0  0  0  0  0  0  0  0  0
   60.4415   31.1461   50.4126 H   0  0  0  0  0  0  0  0  0  0  0  0
  1  2  1  0
  2  3  1  0
  3  4  2  0
  4  5  1  0
  5  6  1  0
  6  7  1  0
  7  8  2  0
  7  9  1  0
  9 10  1  0
 10 11  1  0
 11 12  2  0
 11 13  1  0
 13 14  1  0
 14 15  2  0
 15 16  1  0
 16 17  2  0
 17 18  1  0
 18 19  2  0
 19 20  1  0
  5 21  1  0
 21  2  2  0
 19 14  1  0
  1 22  1  0
  1 23  1  0
  1 24  1  0
  3 25  1  0
  4 26  1  0
  6 27  1  0
  6 28  1  0
 10 29  1  0
 10 30  1  0
 13 31  1  0
 15 32  1  0
 16 33  1  0
 17 34  1  0
 18 35  1  0
M  CHG  1   9  -1
M  END
>  <UniqueID>  (98) 
90

>  <SMILES>  (98) 
Cc1ccn(CC(=O)[N-]CC(=O)Nc2ccccc2F)n1

>  <Energy>  (98) 
62.34803763537807

>  <Genealogy>  (98) 
Cc1ccn(CC(=O)[N-]CC(=O)Nc2ccccc2F)n1 (protonated)
Cc1ccn(CC(=O)[N-]CC(=O)Nc2ccccc2F)n1 (3D coordinates assigned)
Cc1ccn(CC(=O)[N-]CC(=O)Nc2ccccc2F)n1 (optimized conformer: 62.34803763537807 kcal/mol)

>  <smiles>  (98) 
Cc1ccn(CC(=O)NCC(=O)Nc2ccccc2F)n1

>  <score_type>  (98) 
oracle

>  <origin>  (98) 
adg

>  <m_score__min__energy>  (98) 
-8.6400000000000006

>  <m_primary>  (98) 
energy

$$$$
