0:0
     RDKit          3D

 40 42  0  0  0  0  0  0  0  0999 V2000
   60.3740   27.5140   45.9960 C   0  0  0  0  0  0  0  0  0  0  0  0
   58.9150   27.7810   45.8140 C   0  0  0  0  0  0  0  0  0  0  0  0
   57.9790   26.7600   45.9970 C   0  0  0  0  0  0  0  0  0  0  0  0
   56.6190   27.0520   45.8130 C   0  0  0  0  0  0  0  0  0  0  0  0
   55.6230   26.0780   45.9720 O   0  0  0  0  0  0  0  0  0  0  0  0
   55.8490   24.7000   46.1100 C   0  0  0  0  0  0  0  0  0  0  0  0
   55.7700   24.0540   47.3560 C   0  0  0  0  0  0  0  0  0  0  0  0
   55.9910   22.6770   47.4500 C   0  0  0  0  0  0  0  0  0  0  0  0
   56.2750   21.9330   46.3020 C   0  0  0  0  0  0  0  0  0  0  0  0
   56.3270   22.5620   45.0520 C   0  0  0  0  0  0  0  0  0  0  0  0
   56.6910   21.6270   43.6040 S   0  0  0  0  0  0  0  0  0  0  0  0
   56.2450   19.9750   43.8520 N   0  0  0  0  0  0  0  0  0  0  0  0
   55.9270   22.1820   42.4340 O   0  0  0  0  0  0  0  0  0  0  0  0
   58.1610   21.7090   43.3010 O   0  0  0  0  0  0  0  0  0  0  0  0
   56.1130   23.9440   44.9610 C   0  0  0  0  0  0  0  0  0  0  0  0
   56.2550   28.3020   45.4240 N   0  0  0  0  0  0  0  0  0  0  0  0
   57.1750   29.2830   45.2280 C   0  0  0  0  0  0  0  0  0  0  0  0
   56.7710   30.4710   44.8850 N   0  0  0  0  0  0  0  0  0  0  0  0
   57.3930   31.7240   45.2160 C   0  0  0  0  0  0  0  0  0  0  0  0
   58.0380   31.9360   46.4510 C   0  0  0  0  0  0  0  0  0  0  0  0
   58.6600   33.1600   46.7180 C   0  0  0  0  0  0  0  0  0  0  0  0
   58.6610   34.1730   45.7540 C   0  0  0  0  0  0  0  0  0  0  0  0
   59.2670   35.3570   46.0150 F   0  0  0  0  0  0  0  0  0  0  0  0
   58.0500   33.9580   44.5160 C   0  0  0  0  0  0  0  0  0  0  0  0
   57.4270   32.7350   44.2450 C   0  0  0  0  0  0  0  0  0  0  0  0
   58.4940   29.0160   45.4340 N   0  0  0  0  0  0  0  0  0  0  0  0
   60.6077   27.4712   47.0700 H   0  0  0  0  0  0  0  0  0  0  0  0
   60.6324   26.5536   45.5260 H   0  0  0  0  0  0  0  0  0  0  0  0
   60.9558   28.3206   45.5260 H   0  0  0  0  0  0  0  0  0  0  0  0
   58.3019   25.7472   46.2798 H   0  0  0  0  0  0  0  0  0  0  0  0
   55.5334   24.6341   48.2601 H   0  0  0  0  0  0  0  0  0  0  0  0
   55.9413   22.1784   48.4292 H   0  0  0  0  0  0  0  0  0  0  0  0
   56.4581   20.8512   46.3802 H   0  0  0  0  0  0  0  0  0  0  0  0
   56.8710   19.5990   44.5980 H   0  0  0  0  0  0  0  0  0  0  0  0
   56.4810   19.4610   42.9730 H   0  0  0  0  0  0  0  0  0  0  0  0
   56.1527   24.4389   43.9794 H   0  0  0  0  0  0  0  0  0  0  0  0
   58.0523   31.1369   47.2068 H   0  0  0  0  0  0  0  0  0  0  0  0
   59.1497   33.3262   47.6889 H   0  0  0  0  0  0  0  0  0  0  0  0
   58.0588   34.7510   43.7537 H   0  0  0  0  0  0  0  0  0  0  0  0
   56.9606   32.5653   43.2633 H   0  0  0  0  0  0  0  0  0  0  0  0
  1  2  1  0
  2  3  1  0
  3  4  2  0
  4  5  1  0
  5  6  1  0
  6  7  2  0
  7  8  1  0
  8  9  2  0
  9 10  1  0
 10 11  1  0
 11 12  1  0
 11 13  2  0
 11 14  2  0
 10 15  2  0
  4 16  1  0
 16 17  1  0
 17 18  2  3
 18 19  1  0
 19 20  2  0
 20 21  1  0
 21 22  2  0
 22 23  1  0
 22 24  1  0
 24 25  2  0
 17 26  1  0
 26  2  2  0
 15  6  1  0
 25 19  1  0
  1 27  1  0
  1 28  1  0
  1 29  1  0
  3 30  1  0
  7 31  1  0
  8 32  1  0
  9 33  1  0
 12 34  1  0
 12 35  1  0
 15 36  1  0
 20 37  1  0
 21 38  1  0
 24 39  1  0
 25 40  1  0
M  CHG  1  16  -1
M  END
>  <UniqueID>  (1) 
1

>  <SMILES>  (1) 
Cc1cc(Oc2cccc(S(N)(=O)=O)c2)[n-]c(=Nc2ccc(F)cc2)n1

>  <Energy>  (1) 
53.5528348899968

>  <Genealogy>  (1) 
Cc1cc(Oc2cccc(S(N)(=O)=O)c2)[n-]c(=Nc2ccc(F)cc2)n1 (protonated)
Cc1cc(Oc2cccc(S(N)(=O)=O)c2)[n-]c(=Nc2ccc(F)cc2)n1 (3D coordinates assigned)
Cc1cc(Oc2cccc(S(N)(=O)=O)c2)[n-]c(=Nc2ccc(F)cc2)n1 (optimized conformer: 53.5528348899968 kcal/mol)

>  <smiles>  (1) 
Cc1cc(Oc2cccc(S(N)(=O)=O)c2)[nH]c(=Nc2ccc(F)cc2)n1

>  <score_type>  (1) 
oracle

>  <origin>  (1) 
adg

>  <m_score__min__energy>  (1) 
-10.76

>  <m_primary>  (1) 
energy

$$$$
1:0
     RDKit          3D

 51 54  0  0  0  0  0  0  0  0999 V2000
   54.7660   28.4080   44.5070 H   0  0  0  0  0  0  0  0  0  0  0  0
   55.1260   29.3760   44.3450 N   0  0  0  0  0  0  0  0  0  0  0  0
   56.2340   29.7820   44.8680 C   0  0  0  0  0  0  0  0  0  0  0  0
   56.9620   28.9390   45.6440 N   0  0  0  0  0  0  0  0  0  0  0  0
   58.1470   29.3480   46.1740 C   0  0  0  0  0  0  0  0  0  0  0  0
   58.9590   28.4090   46.9700 C   0  0  0  0  0  0  0  0  0  0  0  0
   59.4790   28.8870   48.1810 C   0  0  0  0  0  0  0  0  0  0  0  0
   59.1896   29.8862   48.5387 H   0  0  0  0  0  0  0  0  0  0  0  0
   60.3620   28.1100   48.9420 C   0  0  0  0  0  0  0  0  0  0  0  0
   60.8920   28.6060   50.2350 C   0  0  0  0  0  0  0  0  0  0  0  0
   61.4540   29.7340   50.2830 O   0  0  0  0  0  0  0  0  0  0  0  0
   60.7720   27.8310   51.4420 N   0  0  0  0  0  0  0  0  0  0  0  0
   60.2400   28.5030   52.6380 C   0  0  0  0  0  0  0  0  0  0  0  0
   60.8392   29.4051   52.8308 H   0  0  0  0  0  0  0  0  0  0  0  0
   59.1864   28.7496   52.4400 H   0  0  0  0  0  0  0  0  0  0  0  0
   60.2810   27.6120   53.8830 C   0  0  0  0  0  0  0  0  0  0  0  0
   61.2816   27.6717   54.3361 H   0  0  0  0  0  0  0  0  0  0  0  0
   59.5171   27.9631   54.5924 H   0  0  0  0  0  0  0  0  0  0  0  0
   60.0040   26.2690   53.5490 O   0  0  0  0  0  0  0  0  0  0  0  0
   61.0910   25.7540   52.8110 C   0  0  0  0  0  0  0  0  0  0  0  0
   62.0219   25.9405   53.3666 H   0  0  0  0  0  0  0  0  0  0  0  0
   60.9334   24.6749   52.6675 H   0  0  0  0  0  0  0  0  0  0  0  0
   61.1910   26.4170   51.4310 C   0  0  0  0  0  0  0  0  0  0  0  0
   62.2356   26.3631   51.0906 H   0  0  0  0  0  0  0  0  0  0  0  0
   60.5118   25.8767   50.7551 H   0  0  0  0  0  0  0  0  0  0  0  0
   60.7790   26.8790   48.4240 C   0  0  0  0  0  0  0  0  0  0  0  0
   61.5343   26.2861   48.9607 H   0  0  0  0  0  0  0  0  0  0  0  0
   60.2550   26.4140   47.2620 N   0  0  0  0  0  0  0  0  0  0  0  0
   59.3300   27.0980   46.5380 C   0  0  0  0  0  0  0  0  0  0  0  0
   58.8210   26.4850   45.4990 N   0  0  0  0  0  0  0  0  0  0  0  0
   57.6170   25.7110   45.3980 C   0  0  0  0  0  0  0  0  0  0  0  0
   56.5590   25.9530   46.2790 C   0  0  0  0  0  0  0  0  0  0  0  0
   56.6530   26.7326   47.0493 H   0  0  0  0  0  0  0  0  0  0  0  0
   55.4140   25.2260   46.1850 N   0  0  0  0  0  0  0  0  0  0  0  0
   55.2450   24.2640   45.2310 C   0  0  0  0  0  0  0  0  0  0  0  0
   54.0640   23.5120   45.1760 O   0  0  0  0  0  0  0  0  0  0  0  0
   53.4340   22.9790   46.3340 C   0  0  0  0  0  0  0  0  0  0  0  0
   53.9163   23.3871   47.2345 H   0  0  0  0  0  0  0  0  0  0  0  0
   52.3691   23.2545   46.3317 H   0  0  0  0  0  0  0  0  0  0  0  0
   53.5293   21.8831   46.3317 H   0  0  0  0  0  0  0  0  0  0  0  0
   56.2620   24.0280   44.2990 C   0  0  0  0  0  0  0  0  0  0  0  0
   56.0890   22.7880   43.0690 Cl  0  0  0  0  0  0  0  0  0  0  0  0
   57.4420   24.7720   44.3710 C   0  0  0  0  0  0  0  0  0  0  0  0
   58.2338   24.6215   43.6224 H   0  0  0  0  0  0  0  0  0  0  0  0
   58.5830   30.6140   45.9490 N   0  0  0  0  0  0  0  0  0  0  0  0
   57.8500   31.4640   45.1850 C   0  0  0  0  0  0  0  0  0  0  0  0
   58.3580   32.8350   44.8910 C   0  0  0  0  0  0  0  0  0  0  0  0
   58.5539   33.3638   45.8355 H   0  0  0  0  0  0  0  0  0  0  0  0
   59.2896   32.7642   44.3103 H   0  0  0  0  0  0  0  0  0  0  0  0
   57.6052   33.3883   44.3103 H   0  0  0  0  0  0  0  0  0  0  0  0
   56.6830   31.0390   44.6290 N   0  0  0  0  0  0  0  0  0  0  0  0
  1  2  1  0
  2  3  2  3
  3  4  1  0
  4  5  2  0
  5  6  1  0
  6  7  2  0
  7  8  1  0
  7  9  1  0
  9 10  1  0
 10 11  2  0
 10 12  1  0
 12 13  1  0
 13 14  1  0
 13 15  1  0
 13 16  1  0
 16 17  1  0
 16 18  1  0
 16 19  1  0
 19 20  1  0
 20 21  1  0
 20 22  1  0
 20 23  1  0
 23 24  1  0
 23 25  1  0
  9 26  2  0
 26 27  1  0
 26 28  1  0
 28 29  1  0
 29 30  2  0
 30 31  1  0
 31 32  2  0
 32 33  1  0
 32 34  1  0
 34 35  2  0
 35 36  1  0
 36 37  1  0
 37 38  1  0
 37 39  1  0
 37 40  1  0
 35 41  1  0
 41 42  1  0
 41 43  2  0
 43 44  1  0
  5 45  1  0
 45 46  1  0
 46 47  1  0
 47 48  1  0
 47 49  1  0
 47 50  1  0
 46 51  2  0
 51  3  1  0
 29  6  1  0
 43 31  1  0
 23 12  1  0
M  CHG  2  28  -1  45  -1
M  END
>  <UniqueID>  (2) 
2

>  <SMILES>  (2) 
COc1ncc(/N=c2/[n-]cc(C(=O)N3CCOCC3)cc2-c2nc(=N)nc(C)[n-]2)cc1Cl

>  <Energy>  (2) 
80.19109594633326

>  <Genealogy>  (2) 
COc1ncc(N=c2[n-]cc(C(=O)N3CCOCC3)cc2-c2nc(=N)nc(C)[n-]2)cc1Cl (protonated)
COc1ncc(/N=c2/[n-]cc(C(=O)N3CCOCC3)cc2-c2nc(=N)nc(C)[n-]2)cc1Cl (cis-trans isomerization)
COc1ncc(/N=c2/[n-]cc(C(=O)N3CCOCC3)cc2-c2nc(=N)nc(C)[n-]2)cc1Cl (3D coordinates assigned)
COc1ncc(/N=c2/[n-]cc(C(=O)N3CCOCC3)cc2-c2nc(=N)nc(C)[n-]2)cc1Cl (nonaromatic ring conformer: 80.19109594633326 kcal/mol)

>  <smiles>  (2) 
COc1ncc(N=c2[nH]cc(C(=O)N3CCOCC3)cc2-c2nc(=N)nc(C)[nH]2)cc1Cl

>  <score_type>  (2) 
oracle

>  <origin>  (2) 
adg

>  <m_score__min__energy>  (2) 
-11.300000000000001

>  <m_primary>  (2) 
energy

$$$$
2:0
     RDKit          3D

 58 61  0  0  0  0  0  0  0  0999 V2000
   55.5730   28.6530   45.1630 O   0  0  0  0  0  0  0  0  0  0  0  0
   56.6260   29.3430   45.1560 C   0  0  0  0  0  0  0  0  0  0  0  0
   57.9420   28.6580   45.4180 C   0  0  0  0  0  0  0  0  0  0  0  0
   58.4160   28.8950   46.7450 O   0  0  0  0  0  0  0  0  0  0  0  0
   59.1560   30.0120   47.1650 C   0  0  0  0  0  0  0  0  0  0  0  0
   58.9260   30.6580   48.3950 C   0  0  0  0  0  0  0  0  0  0  0  0
   59.7720   31.6880   48.8150 C   0  0  0  0  0  0  0  0  0  0  0  0
   60.8350   32.1040   48.0040 C   0  0  0  0  0  0  0  0  0  0  0  0
   61.9940   33.2820   48.6090 S   0  0  0  0  0  0  0  0  0  0  0  0
   61.2780   34.2600   49.5010 O   0  0  0  0  0  0  0  0  0  0  0  0
   62.6070   34.0380   47.4620 O   0  0  0  0  0  0  0  0  0  0  0  0
   63.2320   32.4480   49.5160 N   0  0  0  0  0  0  0  0  0  0  0  0
   64.0120   33.4170   50.3200 C   0  0  0  0  0  0  0  0  0  0  0  0
   64.7670   32.7490   51.4880 C   0  0  0  0  0  0  0  0  0  0  0  0
   64.9390   31.3150   51.2330 N   0  0  0  0  0  0  0  0  0  0  0  0
   66.2580   30.7690   51.0330 C   0  0  0  0  0  0  0  0  0  0  0  0
   67.1500   31.4810   50.4960 O   0  0  0  0  0  0  0  0  0  0  0  0
   66.5990   29.3890   51.4190 C   0  0  0  0  0  0  0  0  0  0  0  0
   67.5690   28.5830   50.8520 C   0  0  0  0  0  0  0  0  0  0  0  0
   67.5010   27.3860   51.5330 C   0  0  0  0  0  0  0  0  0  0  0  0
   66.4950   27.5300   52.4650 C   0  0  0  0  0  0  0  0  0  0  0  0
   65.9750   28.7320   52.3700 O   0  0  0  0  0  0  0  0  0  0  0  0
   63.7420   30.5150   50.9320 C   0  0  0  0  0  0  0  0  0  0  0  0
   62.6270   31.4040   50.3590 C   0  0  0  0  0  0  0  0  0  0  0  0
   61.0260   31.5050   46.7520 C   0  0  0  0  0  0  0  0  0  0  0  0
   60.1820   30.4730   46.3330 C   0  0  0  0  0  0  0  0  0  0  0  0
   56.5230   30.7440   44.8720 N   0  0  0  0  0  0  0  0  0  0  0  0
   57.4650   31.5460   44.1000 C   0  0  0  0  0  0  0  0  0  0  0  0
   57.9400   32.6900   44.9500 C   0  0  0  0  0  0  0  0  0  0  0  0
   58.9070   33.5840   44.4590 C   0  0  0  0  0  0  0  0  0  0  0  0
   59.4000   34.6050   45.2760 C   0  0  0  0  0  0  0  0  0  0  0  0
   58.9390   34.7370   46.5900 C   0  0  0  0  0  0  0  0  0  0  0  0
   57.9820   33.8470   47.0880 C   0  0  0  0  0  0  0  0  0  0  0  0
   57.4900   32.8220   46.2750 C   0  0  0  0  0  0  0  0  0  0  0  0
   57.8128   27.5749   45.2756 H   0  0  0  0  0  0  0  0  0  0  0  0
   58.6829   29.0671   44.7153 H   0  0  0  0  0  0  0  0  0  0  0  0
   58.0790   30.3513   49.0263 H   0  0  0  0  0  0  0  0  0  0  0  0
   59.6021   32.1741   49.7870 H   0  0  0  0  0  0  0  0  0  0  0  0
   64.7442   33.9103   49.6638 H   0  0  0  0  0  0  0  0  0  0  0  0
   63.3025   34.1383   50.7518 H   0  0  0  0  0  0  0  0  0  0  0  0
   65.7557   33.2189   51.5962 H   0  0  0  0  0  0  0  0  0  0  0  0
   64.1830   32.8794   52.4110 H   0  0  0  0  0  0  0  0  0  0  0  0
   68.2520   28.8425   50.0297 H   0  0  0  0  0  0  0  0  0  0  0  0
   68.1242   26.4950   51.3663 H   0  0  0  0  0  0  0  0  0  0  0  0
   66.1767   26.7561   53.1790 H   0  0  0  0  0  0  0  0  0  0  0  0
   64.0009   29.7401   50.1954 H   0  0  0  0  0  0  0  0  0  0  0  0
   63.3826   30.0509   51.8623 H   0  0  0  0  0  0  0  0  0  0  0  0
   61.9420   30.7922   49.7536 H   0  0  0  0  0  0  0  0  0  0  0  0
   62.0640   31.8701   51.1810 H   0  0  0  0  0  0  0  0  0  0  0  0
   61.8414   31.8475   46.0979 H   0  0  0  0  0  0  0  0  0  0  0  0
   60.3255   30.0195   45.3411 H   0  0  0  0  0  0  0  0  0  0  0  0
   58.3231   30.9247   43.8039 H   0  0  0  0  0  0  0  0  0  0  0  0
   56.9721   31.9327   43.1958 H   0  0  0  0  0  0  0  0  0  0  0  0
   59.2770   33.4797   43.4283 H   0  0  0  0  0  0  0  0  0  0  0  0
   60.1520   35.3062   44.8850 H   0  0  0  0  0  0  0  0  0  0  0  0
   59.3292   35.5408   47.2316 H   0  0  0  0  0  0  0  0  0  0  0  0
   57.6163   33.9537   48.1199 H   0  0  0  0  0  0  0  0  0  0  0  0
   56.7473   32.1155   46.6739 H   0  0  0  0  0  0  0  0  0  0  0  0
  1  2  2  0
  2  3  1  0
  3  4  1  0
  4  5  1  0
  5  6  2  0
  6  7  1  0
  7  8  2  0
  8  9  1  0
  9 10  2  0
  9 11  2  0
  9 12  1  0
 12 13  1  0
 13 14  1  0
 14 15  1  0
 15 16  1  0
 16 17  2  0
 16 18  1  0
 18 19  2  0
 19 20  1  0
 20 21  2  0
 21 22  1  0
 15 23  1  0
 23 24  1  0
  8 25  1  0
 25 26  2  0
  2 27  1  0
 27 28  1  0
 28 29  1  0
 29 30  2  0
 30 31  1  0
 31 32  2  0
 32 33  1  0
 33 34  2  0
 26  5  1  0
 34 29  1  0
 24 12  1  0
 22 18  1  0
  3 35  1  0
  3 36  1  0
  6 37  1  0
  7 38  1  0
 13 39  1  0
 13 40  1  0
 14 41  1  0
 14 42  1  0
 19 43  1  0
 20 44  1  0
 21 45  1  0
 23 46  1  0
 23 47  1  0
 24 48  1  0
 24 49  1  0
 25 50  1  0
 26 51  1  0
 28 52  1  0
 28 53  1  0
 30 54  1  0
 31 55  1  0
 32 56  1  0
 33 57  1  0
 34 58  1  0
M  CHG  1  27  -1
M  END
>  <UniqueID>  (3) 
3

>  <SMILES>  (3) 
O=C(COc1ccc(S(=O)(=O)N2CCN(C(=O)c3ccco3)CC2)cc1)[N-]Cc1ccccc1

>  <Energy>  (3) 
92.17521960322476

>  <Genealogy>  (3) 
O=C(COc1ccc(S(=O)(=O)N2CCN(C(=O)c3ccco3)CC2)cc1)[N-]Cc1ccccc1 (protonated)
O=C(COc1ccc(S(=O)(=O)N2CCN(C(=O)c3ccco3)CC2)cc1)[N-]Cc1ccccc1 (3D coordinates assigned)
O=C(COc1ccc(S(=O)(=O)N2CCN(C(=O)c3ccco3)CC2)cc1)[N-]Cc1ccccc1 (nonaromatic ring conformer: 92.17521960322476 kcal/mol)

>  <smiles>  (3) 
O=C(COc1ccc(S(=O)(=O)N2CCN(C(=O)c3ccco3)CC2)cc1)NCc1ccccc1

>  <score_type>  (3) 
oracle

>  <origin>  (3) 
adg

>  <m_score__min__energy>  (3) 
-11.27

>  <m_primary>  (3) 
energy

$$$$
3:0
     RDKit          3D

 57 60  0  0  0  0  0  0  0  0999 V2000
   56.7300   33.2390   45.7170 O   0  0  0  0  0  0  0  0  0  0  0  0
   57.6800   32.5980   45.1930 C   0  0  0  0  0  0  0  0  0  0  0  0
   58.9860   33.2000   45.1190 N   0  0  0  0  0  0  0  0  0  0  0  0
   59.2750   34.4890   45.7390 C   0  0  0  0  0  0  0  0  0  0  0  0
   60.1590   34.2950   46.9400 C   0  0  0  0  0  0  0  0  0  0  0  0
   59.6610   34.5830   48.2210 C   0  0  0  0  0  0  0  0  0  0  0  0
   60.4800   34.4400   49.3420 C   0  0  0  0  0  0  0  0  0  0  0  0
   61.8040   34.0220   49.1980 C   0  0  0  0  0  0  0  0  0  0  0  0
   62.3250   33.7360   47.9250 C   0  0  0  0  0  0  0  0  0  0  0  0
   63.6970   33.3350   47.7830 N   0  0  0  0  0  0  0  0  0  0  0  0
   64.4990   33.4460   48.7450 O   0  0  0  0  0  0  0  0  0  0  0  0
   64.1490   32.7700   46.6190 O   0  0  0  0  0  0  0  0  0  0  0  0
   61.4900   33.8660   46.7960 C   0  0  0  0  0  0  0  0  0  0  0  0
   57.4370   31.2200   44.7010 C   0  0  0  0  0  0  0  0  0  0  0  0
   56.7600   30.9770   43.4900 C   0  0  0  0  0  0  0  0  0  0  0  0
   56.5700   29.6680   43.0360 C   0  0  0  0  0  0  0  0  0  0  0  0
   57.0470   28.5880   43.7820 C   0  0  0  0  0  0  0  0  0  0  0  0
   57.7180   28.8110   44.9920 C   0  0  0  0  0  0  0  0  0  0  0  0
   58.3460   27.4530   45.9310 S   0  0  0  0  0  0  0  0  0  0  0  0
   57.8840   27.5890   47.3600 O   0  0  0  0  0  0  0  0  0  0  0  0
   59.8520   27.4990   45.9310 O   0  0  0  0  0  0  0  0  0  0  0  0
   57.7890   25.9160   45.3070 N   0  0  0  0  0  0  0  0  0  0  0  0
   58.4390   24.8140   46.0250 C   0  0  0  0  0  0  0  0  0  0  0  0
   58.2090   23.5190   45.2630 C   0  0  0  0  0  0  0  0  0  0  0  0
   56.8360   23.4020   44.7360 N   0  0  0  0  0  0  0  0  0  0  0  0
   56.4840   22.2360   43.9560 C   0  0  0  0  0  0  0  0  0  0  0  0
   55.5370   22.3080   43.1060 O   0  0  0  0  0  0  0  0  0  0  0  0
   57.1580   20.9080   44.1870 C   0  0  0  0  0  0  0  0  0  0  0  0
   57.3220   20.5320   45.6510 C   0  0  0  0  0  0  0  0  0  0  0  0
   56.3140   19.8120   44.7920 C   0  0  0  0  0  0  0  0  0  0  0  0
   55.8080   24.4760   44.8710 C   0  0  0  0  0  0  0  0  0  0  0  0
   56.3320   25.7920   45.4660 C   0  0  0  0  0  0  0  0  0  0  0  0
   57.8970   30.1240   45.4530 C   0  0  0  0  0  0  0  0  0  0  0  0
   59.7880   32.6640   44.7290 H   0  0  0  0  0  0  0  0  0  0  0  0
   59.7858   35.1369   45.0115 H   0  0  0  0  0  0  0  0  0  0  0  0
   58.3314   34.9567   46.0567 H   0  0  0  0  0  0  0  0  0  0  0  0
   58.6217   34.9225   48.3414 H   0  0  0  0  0  0  0  0  0  0  0  0
   60.0804   34.6577   50.3435 H   0  0  0  0  0  0  0  0  0  0  0  0
   62.4434   33.9159   50.0868 H   0  0  0  0  0  0  0  0  0  0  0  0
   61.8828   33.6301   45.7960 H   0  0  0  0  0  0  0  0  0  0  0  0
   56.3785   31.8219   42.8979 H   0  0  0  0  0  0  0  0  0  0  0  0
   56.0427   29.4883   42.0875 H   0  0  0  0  0  0  0  0  0  0  0  0
   56.8958   27.5606   43.4192 H   0  0  0  0  0  0  0  0  0  0  0  0
   59.5188   25.0099   46.1007 H   0  0  0  0  0  0  0  0  0  0  0  0
   58.0143   24.7292   47.0361 H   0  0  0  0  0  0  0  0  0  0  0  0
   58.9139   23.4775   44.4196 H   0  0  0  0  0  0  0  0  0  0  0  0
   58.3656   22.6883   45.9668 H   0  0  0  0  0  0  0  0  0  0  0  0
   57.8124   20.9750   43.3054 H   0  0  0  0  0  0  0  0  0  0  0  0
   58.2307   20.0113   45.9872 H   0  0  0  0  0  0  0  0  0  0  0  0
   57.2835   21.0789   46.6046 H   0  0  0  0  0  0  0  0  0  0  0  0
   56.4869   18.7644   44.5045 H   0  0  0  0  0  0  0  0  0  0  0  0
   55.2340   19.6161   44.8639 H   0  0  0  0  0  0  0  0  0  0  0  0
   55.4014   24.6893   43.8714 H   0  0  0  0  0  0  0  0  0  0  0  0
   55.0509   24.0963   45.5728 H   0  0  0  0  0  0  0  0  0  0  0  0
   55.8441   26.6345   44.9540 H   0  0  0  0  0  0  0  0  0  0  0  0
   56.1015   25.7991   46.5416 H   0  0  0  0  0  0  0  0  0  0  0  0
   58.4031   30.2983   46.4140 H   0  0  0  0  0  0  0  0  0  0  0  0
  1  2  2  0
  2  3  1  0
  3  4  1  0
  4  5  1  0
  5  6  2  0
  6  7  1  0
  7  8  2  0
  8  9  1  0
  9 10  1  0
 10 11  2  0
 10 12  1  0
  9 13  2  0
  2 14  1  0
 14 15  2  0
 15 16  1  0
 16 17  2  0
 17 18  1  0
 18 19  1  0
 19 20  2  0
 19 21  2  0
 19 22  1  0
 22 23  1  0
 23 24  1  0
 24 25  1  0
 25 26  1  0
 26 27  2  0
 26 28  1  0
 28 29  1  0
 29 30  1  0
 25 31  1  0
 31 32  1  0
 18 33  2  0
 13  5  1  0
 33 14  1  0
 32 22  1  0
 30 28  1  0
  3 34  1  0
  4 35  1  0
  4 36  1  0
  6 37  1  0
  7 38  1  0
  8 39  1  0
 13 40  1  0
 15 41  1  0
 16 42  1  0
 17 43  1  0
 23 44  1  0
 23 45  1  0
 24 46  1  0
 24 47  1  0
 28 48  1  0
 29 49  1  0
 29 50  1  0
 30 51  1  0
 30 52  1  0
 31 53  1  0
 31 54  1  0
 32 55  1  0
 32 56  1  0
 33 57  1  0
M  CHG  2  10   1  12  -1
M  END
>  <UniqueID>  (4) 
4

>  <SMILES>  (4) 
O=C(NCc1cccc([N+](=O)[O-])c1)c1cccc(S(=O)(=O)N2CCN(C(=O)C3CC3)CC2)c1

>  <Energy>  (4) 
329.0336579168193

>  <Genealogy>  (4) 
O=C(NCc1cccc([N+](=O)[O-])c1)c1cccc(S(=O)(=O)N2CCN(C(=O)C3CC3)CC2)c1 (3D coordinates assigned)
O=C(NCc1cccc([N+](=O)[O-])c1)c1cccc(S(=O)(=O)N2CCN(C(=O)C3CC3)CC2)c1 (nonaromatic ring conformer: 329.0336579168193 kcal/mol)

>  <smiles>  (4) 
O=C(NCc1cccc([N+](=O)[O-])c1)c1cccc(S(=O)(=O)N2CCN(C(=O)C3CC3)CC2)c1

>  <score_type>  (4) 
oracle

>  <origin>  (4) 
adg

>  <m_score__min__energy>  (4) 
-10.59

>  <m_primary>  (4) 
energy

$$$$
4:0
     RDKit          3D

 33 35  0  0  0  0  0  0  0  0999 V2000
   58.8000   30.3840   45.3180 C   0  0  0  0  0  0  0  0  0  0  0  0
   58.7870   29.8380   46.5440 C   0  0  0  0  0  0  0  0  0  0  0  0
   58.5480   28.4940   46.8780 C   0  0  0  0  0  0  0  0  0  0  0  0
   58.1140   27.4600   46.1320 C   0  0  0  0  0  0  0  0  0  0  0  0
   57.4460   26.2530   46.6430 C   0  0  0  0  0  0  0  0  0  0  0  0
   58.0760   25.2120   47.2160 N   0  0  0  0  0  0  0  0  0  0  0  0
   57.0920   24.3030   47.3820 C   0  0  0  0  0  0  0  0  0  0  0  0
   57.2890   23.1790   47.9130 O   0  0  0  0  0  0  0  0  0  0  0  0
   55.8820   24.6880   46.9240 N   0  0  0  0  0  0  0  0  0  0  0  0
   56.1270   25.9200   46.4450 C   0  0  0  0  0  0  0  0  0  0  0  0
   55.1700   26.7230   45.8350 O   0  0  0  0  0  0  0  0  0  0  0  0
   58.8240   28.3750   48.2310 C   0  0  0  0  0  0  0  0  0  0  0  0
   59.1540   29.6350   48.6850 C   0  0  0  0  0  0  0  0  0  0  0  0
   59.5110   29.9710   50.1000 C   0  0  0  0  0  0  0  0  0  0  0  0
   59.1370   30.5200   47.6670 N   0  0  0  0  0  0  0  0  0  0  0  0
   59.4570   31.9160   47.7800 C   0  0  0  0  0  0  0  0  0  0  0  0
   58.5690   32.7190   48.1720 O   0  0  0  0  0  0  0  0  0  0  0  0
   60.7980   32.4340   47.4440 C   0  0  0  0  0  0  0  0  0  0  0  0
   62.2320   31.6330   47.8050 S   0  0  0  0  0  0  0  0  0  0  0  0
   63.2710   32.7730   47.1380 C   0  0  0  0  0  0  0  0  0  0  0  0
   62.5020   33.8010   46.6100 C   0  0  0  0  0  0  0  0  0  0  0  0
   61.1230   33.6170   46.7730 C   0  0  0  0  0  0  0  0  0  0  0  0
   59.9640   34.7550   46.1060 Cl  0  0  0  0  0  0  0  0  0  0  0  0
   59.0023   31.4584   45.1965 H   0  0  0  0  0  0  0  0  0  0  0  0
   58.6084   29.7571   44.4347 H   0  0  0  0  0  0  0  0  0  0  0  0
   58.2730   27.5236   45.0454 H   0  0  0  0  0  0  0  0  0  0  0  0
   54.4000   27.1050   46.3710 H   0  0  0  0  0  0  0  0  0  0  0  0
   58.7870   27.4522   48.8285 H   0  0  0  0  0  0  0  0  0  0  0  0
   58.8848   29.3817   50.7860 H   0  0  0  0  0  0  0  0  0  0  0  0
   60.5708   29.7350   50.2767 H   0  0  0  0  0  0  0  0  0  0  0  0
   59.3397   31.0431   50.2767 H   0  0  0  0  0  0  0  0  0  0  0  0
   64.3693   32.7147   47.1225 H   0  0  0  0  0  0  0  0  0  0  0  0
   62.9357   34.6794   46.1096 H   0  0  0  0  0  0  0  0  0  0  0  0
  1  2  2  0
  2  3  1  0
  3  4  2  3
  4  5  1  0
  5  6  1  0
  6  7  1  0
  7  8  2  0
  7  9  1  0
  9 10  1  0
 10 11  1  0
  3 12  1  0
 12 13  2  0
 13 14  1  0
 13 15  1  0
 15 16  1  0
 16 17  2  0
 16 18  1  0
 18 19  1  0
 19 20  1  0
 20 21  2  0
 21 22  1  0
 22 23  1  0
 15  2  1  0
 22 18  2  0
 10  5  2  0
  1 24  1  0
  1 25  1  0
  4 26  1  0
 11 27  1  0
 12 28  1  0
 14 29  1  0
 14 30  1  0
 14 31  1  0
 20 32  1  0
 21 33  1  0
M  CHG  2   6  -1   9  -1
M  END
>  <UniqueID>  (5) 
5

>  <SMILES>  (5) 
C=c1c(=Cc2[n-]c(=O)[n-]c2O)cc(C)n1C(=O)c1sccc1Cl

>  <Energy>  (5) 
135.91360384469166

>  <Genealogy>  (5) 
C=c1c(=Cc2[n-]c(=O)[n-]c2O)cc(C)n1C(=O)c1sccc1Cl (protonated)
C=c1c(=Cc2[n-]c(=O)[n-]c2O)cc(C)n1C(=O)c1sccc1Cl (3D coordinates assigned)
C=c1c(=Cc2[n-]c(=O)[n-]c2O)cc(C)n1C(=O)c1sccc1Cl (optimized conformer: 135.91360384469166 kcal/mol)

>  <smiles>  (5) 
C=c1c(=Cc2[nH]c(=O)[nH]c2O)cc(C)n1C(=O)c1sccc1Cl

>  <score_type>  (5) 
oracle

>  <origin>  (5) 
adg

>  <m_score__min__energy>  (5) 
-12.52

>  <m_primary>  (5) 
energy

$$$$
5:0
     RDKit          3D

 45 47  0  0  0  0  0  0  0  0999 V2000
   62.8960   32.5470   47.1920 C   0  0  0  0  0  0  0  0  0  0  0  0
   61.3940   32.2930   47.1220 C   0  0  0  0  0  0  0  0  0  0  0  0
   61.1140   30.8950   47.1720 O   0  0  0  0  0  0  0  0  0  0  0  0
   61.1250   30.0940   48.3270 C   0  0  0  0  0  0  0  0  0  0  0  0
   61.8250   30.4620   49.4950 C   0  0  0  0  0  0  0  0  0  0  0  0
   61.8010   29.6350   50.6220 C   0  0  0  0  0  0  0  0  0  0  0  0
   61.0840   28.4370   50.5990 C   0  0  0  0  0  0  0  0  0  0  0  0
   60.3920   28.0600   49.4470 C   0  0  0  0  0  0  0  0  0  0  0  0
   60.4120   28.8800   48.3080 C   0  0  0  0  0  0  0  0  0  0  0  0
   59.6890   28.4790   47.1270 N   0  0  0  0  0  0  0  0  0  0  0  0
   60.1280   27.4180   46.3820 C   0  0  0  0  0  0  0  0  0  0  0  0
   61.1490   26.7650   46.7310 O   0  0  0  0  0  0  0  0  0  0  0  0
   59.4650   27.0510   45.2580 N   0  0  0  0  0  0  0  0  0  0  0  0
   58.3610   27.7100   44.8320 C   0  0  0  0  0  0  0  0  0  0  0  0
   57.7490   27.2930   43.6500 O   0  0  0  0  0  0  0  0  0  0  0  0
   57.8770   28.8010   45.5750 C   0  0  0  0  0  0  0  0  0  0  0  0
   56.6910   29.5580   45.1300 C   0  0  0  0  0  0  0  0  0  0  0  0
   55.6320   28.9340   44.8560 O   0  0  0  0  0  0  0  0  0  0  0  0
   56.7220   30.9820   44.9680 N   0  0  0  0  0  0  0  0  0  0  0  0
   57.7960   31.7420   44.3280 C   0  0  0  0  0  0  0  0  0  0  0  0
   58.2820   32.8530   45.2220 C   0  0  0  0  0  0  0  0  0  0  0  0
   57.9900   32.8380   46.5960 C   0  0  0  0  0  0  0  0  0  0  0  0
   58.4710   33.8510   47.4300 C   0  0  0  0  0  0  0  0  0  0  0  0
   59.2370   34.8920   46.8970 C   0  0  0  0  0  0  0  0  0  0  0  0
   59.5200   34.9210   45.5280 C   0  0  0  0  0  0  0  0  0  0  0  0
   59.0430   33.9070   44.6920 C   0  0  0  0  0  0  0  0  0  0  0  0
   58.5660   29.1660   46.7440 C   0  0  0  0  0  0  0  0  0  0  0  0
   58.1460   30.1340   47.4400 O   0  0  0  0  0  0  0  0  0  0  0  0
   63.2102   32.6001   48.2448 H   0  0  0  0  0  0  0  0  0  0  0  0
   63.4304   31.7265   46.6908 H   0  0  0  0  0  0  0  0  0  0  0  0
   63.1309   33.4976   46.6908 H   0  0  0  0  0  0  0  0  0  0  0  0
   60.9042   32.7896   47.9726 H   0  0  0  0  0  0  0  0  0  0  0  0
   61.0121   32.6954   46.1721 H   0  0  0  0  0  0  0  0  0  0  0  0
   62.3924   31.4040   49.5192 H   0  0  0  0  0  0  0  0  0  0  0  0
   62.3486   29.9290   51.5296 H   0  0  0  0  0  0  0  0  0  0  0  0
   61.0645   27.7904   51.4887 H   0  0  0  0  0  0  0  0  0  0  0  0
   59.8282   27.1156   49.4316 H   0  0  0  0  0  0  0  0  0  0  0  0
   56.7720   27.4650   43.4460 H   0  0  0  0  0  0  0  0  0  0  0  0
   58.6344   31.0644   44.1091 H   0  0  0  0  0  0  0  0  0  0  0  0
   57.4050   32.1858   43.4006 H   0  0  0  0  0  0  0  0  0  0  0  0
   57.3801   32.0253   47.0173 H   0  0  0  0  0  0  0  0  0  0  0  0
   58.2467   33.8292   48.5067 H   0  0  0  0  0  0  0  0  0  0  0  0
   59.6169   35.6879   47.5544 H   0  0  0  0  0  0  0  0  0  0  0  0
   60.1188   35.7427   45.1082 H   0  0  0  0  0  0  0  0  0  0  0  0
   59.2648   33.9351   43.6150 H   0  0  0  0  0  0  0  0  0  0  0  0
  1  2  1  0
  2  3  1  0
  3  4  1  0
  4  5  2  0
  5  6  1  0
  6  7  2  0
  7  8  1  0
  8  9  2  0
  9 10  1  0
 10 11  1  0
 11 12  2  0
 11 13  1  0
 13 14  1  0
 14 15  1  0
 14 16  2  0
 16 17  1  0
 17 18  2  0
 17 19  1  0
 19 20  1  0
 20 21  1  0
 21 22  2  0
 22 23  1  0
 23 24  2  0
 24 25  1  0
 25 26  2  0
 16 27  1  0
 27 28  2  0
  9  4  1  0
 27 10  1  0
 26 21  1  0
  1 29  1  0
  1 30  1  0
  1 31  1  0
  2 32  1  0
  2 33  1  0
  5 34  1  0
  6 35  1  0
  7 36  1  0
  8 37  1  0
 15 38  1  0
 20 39  1  0
 20 40  1  0
 22 41  1  0
 23 42  1  0
 24 43  1  0
 25 44  1  0
 26 45  1  0
M  CHG  2  13  -1  19  -1
M  END
>  <UniqueID>  (6) 
6

>  <SMILES>  (6) 
CCOc1ccccc1-n1c(=O)[n-]c(O)c(C(=O)[N-]Cc2ccccc2)c1=O

>  <Energy>  (6) 
58.92882272101034

>  <Genealogy>  (6) 
CCOc1ccccc1-n1c(=O)[n-]c(O)c(C(=O)[N-]Cc2ccccc2)c1=O (protonated)
CCOc1ccccc1-n1c(=O)[n-]c(O)c(C(=O)[N-]Cc2ccccc2)c1=O (3D coordinates assigned)
CCOc1ccccc1-n1c(=O)[n-]c(O)c(C(=O)[N-]Cc2ccccc2)c1=O (optimized conformer: 58.92882272101034 kcal/mol)

>  <smiles>  (6) 
CCOc1ccccc1-n1c(=O)[nH]c(O)c(C(=O)NCc2ccccc2)c1=O

>  <score_type>  (6) 
oracle

>  <origin>  (6) 
adg

>  <m_score__min__energy>  (6) 
-10.56

>  <m_primary>  (6) 
energy

$$$$
6:0
     RDKit          3D

 59 62  0  0  1  0  0  0  0  0999 V2000
   52.0650   30.0600   50.7330 C   0  0  0  0  0  0  0  0  0  0  0  0
   52.2870   29.6030   52.1600 C   0  0  0  0  0  0  0  0  0  0  0  0
   53.6440   29.9250   52.5180 N   0  0  0  0  0  0  0  0  0  0  0  0
   54.2320   30.9070   51.6260 C   0  0  0  0  0  0  0  0  0  0  0  0
   55.4800   31.4040   52.3400 C   0  0  0  0  0  0  0  0  0  0  0  0
   56.3390   30.2820   52.7090 N   0  0  0  0  0  0  0  0  0  0  0  0
   57.6820   30.1530   52.2740 C   0  0  0  0  0  0  0  0  0  0  0  0
   58.4720   29.0530   52.5530 C   0  0  0  0  0  0  0  0  0  0  0  0
   59.5960   31.0330   51.0690 C   0  0  0  0  0  0  0  0  0  0  0  0
   60.2700   32.5150   46.6920 C   0  0  0  0  0  0  0  0  0  0  0  0
   61.7030   29.8430   50.8900 N   0  0  0  0  0  0  0  0  0  0  0  0
   62.2030   30.7200   50.0870 C   0  0  0  0  0  0  0  0  0  0  0  0
   63.2450   31.4900   50.4500 N   0  0  0  0  0  0  0  0  0  0  0  0
   63.6990   32.3800   49.5410 C   0  0  0  0  0  0  0  0  0  0  0  0
   63.1230   32.5030   48.2850 C   0  0  0  0  0  0  0  0  0  0  0  0
   63.7540   33.6850   47.1280 Cl  0  0  0  0  0  0  0  0  0  0  0  0
   62.0430   31.6920   47.9320 C   0  0  0  0  0  0  0  0  0  0  0  0
   61.4900   31.7890   46.7680 N   0  0  0  0  0  0  0  0  0  0  0  0
   60.3650   29.9300   51.3570 C   0  0  0  0  0  0  0  0  0  0  0  0
   59.7790   28.9360   52.1110 C   0  0  0  0  0  0  0  0  0  0  0  0
   59.2830   34.6840   46.3570 C   0  0  0  0  0  0  0  0  0  0  0  0
   58.0220   34.1390   46.5010 C   0  0  0  0  0  0  0  0  0  0  0  0
   57.9060   32.7780   46.7390 C   0  0  0  0  0  0  0  0  0  0  0  0
   59.0310   31.9570   46.8360 C   0  0  0  0  0  0  0  0  0  0  0  0
   58.8950   30.2590   47.1340 S   0  0  0  0  0  0  0  0  0  0  0  0
   60.3450   29.4860   46.6040 N   0  0  0  0  0  0  0  0  0  0  0  0
   58.6620   29.8910   48.5490 O   0  0  0  0  0  0  0  0  0  0  0  0
   57.7600   29.6450   46.3260 O   0  0  0  0  0  0  0  0  0  0  0  0
   61.6290   30.8220   48.8730 N   0  0  0  0  0  0  0  0  0  0  0  0
   60.3910   33.8840   46.4510 C   0  0  0  0  0  0  0  0  0  0  0  0
   58.2720   31.1490   51.5170 C   0  0  0  0  0  0  0  0  0  0  0  0
   55.6860   29.2830   53.5670 C   0  0  0  0  0  0  0  0  0  0  0  0
   54.4970   28.7940   52.7260 C   0  0  0  0  0  0  0  0  0  0  0  0
   51.5844   31.0494   50.7354 H   0  0  0  0  0  0  0  0  0  0  0  0
   53.0326   30.1237   50.2136 H   0  0  0  0  0  0  0  0  0  0  0  0
   51.4168   29.3388   50.2136 H   0  0  0  0  0  0  0  0  0  0  0  0
   51.5889   30.1229   52.8326 H   0  0  0  0  0  0  0  0  0  0  0  0
   52.1121   28.5206   52.2490 H   0  0  0  0  0  0  0  0  0  0  0  0
   54.4974   30.4435   50.6644 H   0  0  0  0  0  0  0  0  0  0  0  0
   53.5339   31.7273   51.4029 H   0  0  0  0  0  0  0  0  0  0  0  0
   56.0342   32.0799   51.6722 H   0  0  0  0  0  0  0  0  0  0  0  0
   55.1787   31.9370   53.2538 H   0  0  0  0  0  0  0  0  0  0  0  0
   58.0437   28.2357   53.1519 H   0  0  0  0  0  0  0  0  0  0  0  0
   60.0313   31.8469   50.4707 H   0  0  0  0  0  0  0  0  0  0  0  0
   63.6540   31.3770   51.3940 H   0  0  0  0  0  0  0  0  0  0  0  0
   64.5498   33.0257   49.8042 H   0  0  0  0  0  0  0  0  0  0  0  0
   60.3584   28.0362   52.3654 H   0  0  0  0  0  0  0  0  0  0  0  0
   59.3976   35.7613   46.1667 H   0  0  0  0  0  0  0  0  0  0  0  0
   57.1262   34.7732   46.4282 H   0  0  0  0  0  0  0  0  0  0  0  0
   56.9056   32.3354   46.8539 H   0  0  0  0  0  0  0  0  0  0  0  0
   61.0700   29.4450   47.3540 H   0  0  0  0  0  0  0  0  0  0  0  0
   60.7810   29.9310   45.7780 H   0  0  0  0  0  0  0  0  0  0  0  0
   60.8190   30.2090   48.6190 H   0  0  0  0  0  0  0  0  0  0  0  0
   61.3909   34.3274   46.3348 H   0  0  0  0  0  0  0  0  0  0  0  0
   57.6923   32.0483   51.2617 H   0  0  0  0  0  0  0  0  0  0  0  0
   56.3721   28.4537   53.7940 H   0  0  0  0  0  0  0  0  0  0  0  0
   55.3770   29.6955   54.5388 H   0  0  0  0  0  0  0  0  0  0  0  0
   54.8512   28.4042   51.7603 H   0  0  0  0  0  0  0  0  0  0  0  0
   53.9587   27.9827   53.2380 H   0  0  0  0  0  0  0  0  0  0  0  0
  1  2  1  0
  2  3  1  0
  3  4  1  0
  4  5  1  0
  5  6  1  0
  6  7  1  0
  7  8  2  0
  8  9  1  0
  9 10  2  0
 10 11  1  0
 11 12  2  0
 12 13  1  0
 13 14  1  0
 14 15  2  0
 15 16  1  0
 15 17  1  0
 17 18  2  0
 18 19  1  0
 19 20  2  0
 20 21  1  0
 21 22  2  0
 22 23  1  0
 23 24  2  0
 24 25  1  0
 25 26  1  0
 25 27  2  0
 25 28  2  0
 17 29  1  0
 10 30  1  0
 30 31  2  0
  6 32  1  0
 32 33  1  0
 33  3  1  0
 31  7  1  0
 29 12  1  0
 24 19  1  0
  1 34  1  0
  1 35  1  0
  1 36  1  0
  2 37  1  0
  2 38  1  0
  4 39  1  0
  4 40  1  0
  5 41  1  0
  5 42  1  0
  8 43  1  0
  9 44  1  0
 13 45  1  0
 14 46  1  0
 20 47  1  0
 21 48  1  0
 22 49  1  0
 23 50  1  0
 26 51  1  0
 26 52  1  0
 29 53  1  0
 30 54  1  0
 31 55  1  0
 32 56  1  0
 32 57  1  0
 33 58  1  0
 33 59  1  0
M  END
>  <smiles>  (7) 
CCN1CCN(c2ccc(N=c3[nH]cc(Cl)c(=Nc4ccccc4S(N)(=O)=O)[nH]3)cc2)CC1

>  <score_type>  (7) 
oracle

>  <origin>  (7) 
adg

>  <m_score__min__energy>  (7) 
-10.369999999999999

>  <m_primary>  (7) 
energy

$$$$
7:0
     RDKit          3D

 36 38  0  0  0  0  0  0  0  0999 V2000
   54.4360   29.2550   44.5310 H   0  0  0  0  0  0  0  0  0  0  0  0
   55.4440   28.9860   44.5010 N   0  0  0  0  0  0  0  0  0  0  0  0
   56.3670   29.8090   44.8780 C   0  0  0  0  0  0  0  0  0  0  0  0
   56.3080   31.1360   44.6220 N   0  0  0  0  0  0  0  0  0  0  0  0
   57.4010   31.7630   45.1270 C   0  0  0  0  0  0  0  0  0  0  0  0
   57.6360   33.1320   45.0310 C   0  0  0  0  0  0  0  0  0  0  0  0
   56.9207   33.7881   44.5134 H   0  0  0  0  0  0  0  0  0  0  0  0
   58.8030   33.6600   45.6070 C   0  0  0  0  0  0  0  0  0  0  0  0
   59.0022   34.7392   45.5313 H   0  0  0  0  0  0  0  0  0  0  0  0
   59.7300   32.8260   46.2850 C   0  0  0  0  0  0  0  0  0  0  0  0
   60.9410   33.4390   46.9080 C   0  0  0  0  0  0  0  0  0  0  0  0
   61.6620   34.1880   46.1900 O   0  0  0  0  0  0  0  0  0  0  0  0
   61.2840   33.2200   48.3080 N   0  0  2  0  0  0  0  0  0  0  0  0
   60.9100   32.2710   48.5420 H   0  0  0  0  0  0  0  0  0  0  0  0
   60.5990   34.1560   49.2430 C   0  0  0  0  0  0  0  0  0  0  0  0
   61.3644   34.6119   49.8883 H   0  0  0  0  0  0  0  0  0  0  0  0
   60.0659   34.8808   48.6102 H   0  0  0  0  0  0  0  0  0  0  0  0
   59.5490   33.5290   50.1350 C   0  0  0  0  0  0  0  0  0  0  0  0
   58.5510   32.2280   49.7410 S   0  0  0  0  0  0  0  0  0  0  0  0
   57.8630   32.0660   51.2620 C   0  0  0  0  0  0  0  0  0  0  0  0
   56.6550   30.8770   51.7000 Cl  0  0  0  0  0  0  0  0  0  0  0  0
   58.4250   33.0010   52.1150 C   0  0  0  0  0  0  0  0  0  0  0  0
   58.1483   33.0984   53.1752 H   0  0  0  0  0  0  0  0  0  0  0  0
   59.3820   33.8100   51.4890 C   0  0  0  0  0  0  0  0  0  0  0  0
   59.9475   34.5924   52.0163 H   0  0  0  0  0  0  0  0  0  0  0  0
   62.7440   33.0720   48.5550 C   0  0  0  0  0  0  0  0  0  0  0  0
   63.1948   34.0752   48.5380 H   0  0  0  0  0  0  0  0  0  0  0  0
   62.8380   32.5626   49.5254 H   0  0  0  0  0  0  0  0  0  0  0  0
   63.4960   32.1970   47.5420 C   0  0  0  0  0  0  0  0  0  0  0  0
   64.1216   31.4691   48.0794 H   0  0  0  0  0  0  0  0  0  0  0  0
   62.7714   31.6621   46.9104 H   0  0  0  0  0  0  0  0  0  0  0  0
   64.1337   32.8329   46.9104 H   0  0  0  0  0  0  0  0  0  0  0  0
   59.4730   31.4360   46.3570 C   0  0  0  0  0  0  0  0  0  0  0  0
   60.1785   30.7605   46.8629 H   0  0  0  0  0  0  0  0  0  0  0  0
   58.3100   30.9410   45.7750 C   0  0  0  0  0  0  0  0  0  0  0  0
   57.7580   29.3550   45.7300 S   0  0  0  0  0  0  0  0  0  0  0  0
  1  2  1  0
  2  3  2  0
  3  4  1  0
  4  5  1  0
  5  6  2  0
  6  7  1  0
  6  8  1  0
  8  9  1  0
  8 10  2  0
 10 11  1  0
 11 12  2  0
 11 13  1  0
 13 14  1  1
 13 15  1  0
 15 16  1  0
 15 17  1  0
 15 18  1  0
 18 19  1  0
 19 20  1  0
 20 21  1  0
 20 22  2  0
 22 23  1  0
 22 24  1  0
 24 25  1  0
 13 26  1  0
 26 27  1  0
 26 28  1  0
 26 29  1  0
 29 30  1  0
 29 31  1  0
 29 32  1  0
 10 33  1  0
 33 34  1  0
 33 35  2  0
 35 36  1  0
 36  3  1  0
 35  5  1  0
 24 18  2  0
M  CHG  2   4  -1  13   1
M  END
>  <UniqueID>  (8) 
7

>  <SMILES>  (8) 
[H]/N=c1/[n-]c2ccc(C(=O)[N@@H+](CC)Cc3ccc(Cl)s3)cc2s1

>  <Energy>  (8) 
112.13924977592495

>  <Genealogy>  (8) 
CC[NH+](Cc1ccc(Cl)s1)C(=O)c1ccc2[n-]c(=N)sc2c1 (protonated)
CC[N@@H+](Cc1ccc(Cl)s1)C(=O)c1ccc2[n-]c(=N)sc2c1 (chirality)
[H]/N=c1/[n-]c2ccc(C(=O)[N@@H+](CC)Cc3ccc(Cl)s3)cc2s1 (cis-trans isomerization)
[H]/N=c1/[n-]c2ccc(C(=O)[N@@H+](CC)Cc3ccc(Cl)s3)cc2s1 (3D coordinates assigned)
[H]/N=c1/[n-]c2ccc(C(=O)[N@@H+](CC)Cc3ccc(Cl)s3)cc2s1 (optimized conformer: 112.13924977592495 kcal/mol)

>  <smiles>  (8) 
CCN(Cc1ccc(Cl)s1)C(=O)c1ccc2[nH]c(=N)sc2c1

>  <score_type>  (8) 
oracle

>  <origin>  (8) 
adg

>  <m_score__min__energy>  (8) 
-8.0299999999999994

>  <m_primary>  (8) 
energy

$$$$
8:0
     RDKit          3D

 61 64  0  0  0  0  0  0  0  0999 V2000
   56.2930   29.2610   52.1890 O   0  0  0  0  0  0  0  0  0  0  0  0
   56.1680   30.0870   53.1340 C   0  0  0  0  0  0  0  0  0  0  0  0
   54.9030   30.0900   53.9380 C   0  0  0  0  0  0  0  0  0  0  0  0
   53.7730   30.6550   53.1220 C   0  0  0  0  0  0  0  0  0  0  0  0
   52.5300   30.9160   53.7210 C   0  0  0  0  0  0  0  0  0  0  0  0
   51.4890   31.4720   52.9710 C   0  0  0  0  0  0  0  0  0  0  0  0
   51.6840   31.7790   51.6210 C   0  0  0  0  0  0  0  0  0  0  0  0
   50.6490   32.3320   50.8770 O   0  0  0  0  0  0  0  0  0  0  0  0
   52.9240   31.5340   51.0210 C   0  0  0  0  0  0  0  0  0  0  0  0
   53.9680   30.9780   51.7690 C   0  0  0  0  0  0  0  0  0  0  0  0
   57.2500   30.9600   53.4930 N   0  0  0  0  0  0  0  0  0  0  0  0
   58.4260   31.1720   52.6920 C   0  0  0  0  0  0  0  0  0  0  0  0
   59.4980   30.2730   52.8000 C   0  0  0  0  0  0  0  0  0  0  0  0
   60.6590   30.4620   52.0500 C   0  0  0  0  0  0  0  0  0  0  0  0
   60.7720   31.5590   51.1960 C   0  0  0  0  0  0  0  0  0  0  0  0
   59.7260   32.4900   51.0960 C   0  0  0  0  0  0  0  0  0  0  0  0
   59.8480   33.6820   50.1660 C   0  0  0  0  0  0  0  0  0  0  0  0
   59.4370   33.4040   48.7710 N   0  0  0  0  0  0  0  0  0  0  0  0
   59.3010   34.6280   47.9480 C   0  0  0  0  0  0  0  0  0  0  0  0
   59.0520   34.3090   46.4560 C   0  0  0  0  0  0  0  0  0  0  0  0
   58.5460   32.8670   46.2650 C   0  0  0  0  0  0  0  0  0  0  0  0
   58.1780   32.5450   44.8300 C   0  0  0  0  0  0  0  0  0  0  0  0
   58.3650   33.4400   43.9610 O   0  0  0  0  0  0  0  0  0  0  0  0
   57.5750   31.2970   44.4250 N   0  0  0  0  0  0  0  0  0  0  0  0
   56.8030   31.1840   43.1970 C   0  0  0  0  0  0  0  0  0  0  0  0
   56.5870   29.6940   42.9730 C   0  0  0  0  0  0  0  0  0  0  0  0
   56.9170   29.0200   44.3000 C   0  0  0  0  0  0  0  0  0  0  0  0
   57.7920   30.0060   45.0590 C   0  0  0  0  0  0  0  0  0  0  0  0
   59.5160   31.8270   46.8730 C   0  0  0  0  0  0  0  0  0  0  0  0
   60.2580   32.3760   48.1040 C   0  0  0  0  0  0  0  0  0  0  0  0
   58.5540   32.2880   51.8450 C   0  0  0  0  0  0  0  0  0  0  0  0
   54.6579   29.0594   54.2343 H   0  0  0  0  0  0  0  0  0  0  0  0
   55.0470   30.7128   54.8332 H   0  0  0  0  0  0  0  0  0  0  0  0
   52.3746   30.6821   54.7846 H   0  0  0  0  0  0  0  0  0  0  0  0
   50.5153   31.6681   53.4438 H   0  0  0  0  0  0  0  0  0  0  0  0
   53.0785   31.7788   49.9598 H   0  0  0  0  0  0  0  0  0  0  0  0
   54.9439   30.7934   51.2961 H   0  0  0  0  0  0  0  0  0  0  0  0
   57.2150   31.4060   54.4380 H   0  0  0  0  0  0  0  0  0  0  0  0
   59.4223   29.4127   53.4812 H   0  0  0  0  0  0  0  0  0  0  0  0
   61.4880   29.7436   52.1324 H   0  0  0  0  0  0  0  0  0  0  0  0
   61.6851   31.6953   50.5980 H   0  0  0  0  0  0  0  0  0  0  0  0
   59.2154   34.4921   50.5577 H   0  0  0  0  0  0  0  0  0  0  0  0
   60.9137   33.9528   50.1351 H   0  0  0  0  0  0  0  0  0  0  0  0
   58.4546   35.2181   48.3293 H   0  0  0  0  0  0  0  0  0  0  0  0
   60.2457   35.1870   48.0188 H   0  0  0  0  0  0  0  0  0  0  0  0
   58.2991   35.0074   46.0618 H   0  0  0  0  0  0  0  0  0  0  0  0
   60.0046   34.4153   45.9163 H   0  0  0  0  0  0  0  0  0  0  0  0
   57.6055   32.7991   46.8315 H   0  0  0  0  0  0  0  0  0  0  0  0
   55.8366   31.6984   43.3043 H   0  0  0  0  0  0  0  0  0  0  0  0
   57.3265   31.6474   42.3478 H   0  0  0  0  0  0  0  0  0  0  0  0
   55.5416   29.4967   42.6932 H   0  0  0  0  0  0  0  0  0  0  0  0
   57.2193   29.3122   42.1578 H   0  0  0  0  0  0  0  0  0  0  0  0
   55.9956   28.8126   44.8639 H   0  0  0  0  0  0  0  0  0  0  0  0
   57.4281   28.0577   44.1494 H   0  0  0  0  0  0  0  0  0  0  0  0
   57.4962   30.0445   46.1178 H   0  0  0  0  0  0  0  0  0  0  0  0
   58.8519   29.7132   45.0294 H   0  0  0  0  0  0  0  0  0  0  0  0
   58.9407   30.9387   47.1729 H   0  0  0  0  0  0  0  0  0  0  0  0
   60.2670   31.5778   46.1088 H   0  0  0  0  0  0  0  0  0  0  0  0
   60.4544   31.5536   48.8077 H   0  0  0  0  0  0  0  0  0  0  0  0
   61.2085   32.8262   47.7816 H   0  0  0  0  0  0  0  0  0  0  0  0
   57.7279   33.0103   51.7681 H   0  0  0  0  0  0  0  0  0  0  0  0
  1  2  2  0
  2  3  1  0
  3  4  1  0
  4  5  2  0
  5  6  1  0
  6  7  2  0
  7  8  1  0
  7  9  1  0
  9 10  2  0
  2 11  1  0
 11 12  1  0
 12 13  2  0
 13 14  1  0
 14 15  2  0
 15 16  1  0
 16 17  1  0
 17 18  1  0
 18 19  1  0
 19 20  1  0
 20 21  1  0
 21 22  1  0
 22 23  2  0
 22 24  1  0
 24 25  1  0
 25 26  1  0
 26 27  1  0
 27 28  1  0
 21 29  1  0
 29 30  1  0
 16 31  2  0
 10  4  1  0
 31 12  1  0
 30 18  1  0
 28 24  1  0
  3 32  1  0
  3 33  1  0
  5 34  1  0
  6 35  1  0
  9 36  1  0
 10 37  1  0
 11 38  1  0
 13 39  1  0
 14 40  1  0
 15 41  1  0
 17 42  1  0
 17 43  1  0
 19 44  1  0
 19 45  1  0
 20 46  1  0
 20 47  1  0
 21 48  1  0
 25 49  1  0
 25 50  1  0
 26 51  1  0
 26 52  1  0
 27 53  1  0
 27 54  1  0
 28 55  1  0
 28 56  1  0
 29 57  1  0
 29 58  1  0
 30 59  1  0
 30 60  1  0
 31 61  1  0
M  CHG  1   8  -1
M  END
>  <UniqueID>  (9) 
8

>  <SMILES>  (9) 
O=C(Cc1ccc([O-])cc1)Nc1cccc(CN2CCC(C(=O)N3CCCC3)CC2)c1

>  <Energy>  (9) 
74.99045558542457

>  <Genealogy>  (9) 
O=C(Cc1ccc([O-])cc1)Nc1cccc(CN2CCC(C(=O)N3CCCC3)CC2)c1 (protonated)
O=C(Cc1ccc([O-])cc1)Nc1cccc(CN2CCC(C(=O)N3CCCC3)CC2)c1 (3D coordinates assigned)
O=C(Cc1ccc([O-])cc1)Nc1cccc(CN2CCC(C(=O)N3CCCC3)CC2)c1 (nonaromatic ring conformer: 74.99045558542457 kcal/mol)

>  <smiles>  (9) 
O=C(Cc1ccc(O)cc1)Nc1cccc(CN2CCC(C(=O)N3CCCC3)CC2)c1

>  <score_type>  (9) 
oracle

>  <origin>  (9) 
adg

>  <m_score__min__energy>  (9) 
-14.449999999999999

>  <m_primary>  (9) 
energy

$$$$
9:0
     RDKit          3D

 52 55  0  0  0  0  0  0  0  0999 V2000
   56.0650   29.7350   43.8510 C   0  0  0  0  0  0  0  0  0  0  0  0
   57.0130   30.4490   44.4720 C   0  0  0  0  0  0  0  0  0  0  0  0
   57.0020   31.7940   44.2590 N   0  0  0  0  0  0  0  0  0  0  0  0
   57.7580   32.6610   44.9770 C   0  0  0  0  0  0  0  0  0  0  0  0
   58.5460   32.1970   46.0320 C   0  0  0  0  0  0  0  0  0  0  0  0
   59.3320   33.1460   46.8530 C   0  0  0  0  0  0  0  0  0  0  0  0
   58.7370   34.0990   47.4260 O   0  0  0  0  0  0  0  0  0  0  0  0
   60.7580   33.0080   47.0110 N   0  0  0  0  0  0  0  0  0  0  0  0
   61.5690   34.2150   47.2330 C   0  0  0  0  0  0  0  0  0  0  0  0
   63.0640   33.9320   47.0230 C   0  0  0  0  0  0  0  0  0  0  0  0
   63.5800   32.7110   47.8430 C   0  0  0  0  0  0  0  0  0  0  0  0
   64.3250   33.0720   49.0790 N   0  0  0  0  0  0  0  0  0  0  0  0
   64.9940   31.9500   49.7690 C   0  0  0  0  0  0  0  0  0  0  0  0
   65.8990   32.5000   50.8920 C   0  0  0  0  0  0  0  0  0  0  0  0
   65.6110   33.8490   51.2230 O   0  0  0  0  0  0  0  0  0  0  0  0
   64.2170   34.0230   51.3770 C   0  0  0  0  0  0  0  0  0  0  0  0
   63.5020   33.8570   50.0230 C   0  0  0  0  0  0  0  0  0  0  0  0
   62.4740   31.6780   48.1650 C   0  0  0  0  0  0  0  0  0  0  0  0
   61.3770   31.6760   47.0990 C   0  0  0  0  0  0  0  0  0  0  0  0
   58.6220   30.8160   46.2520 C   0  0  0  0  0  0  0  0  0  0  0  0
   57.9240   29.9050   45.4320 C   0  0  0  0  0  0  0  0  0  0  0  0
   58.1960   28.5860   45.6040 C   0  0  0  0  0  0  0  0  0  0  0  0
   57.2240   27.5420   45.9860 C   0  0  0  0  0  0  0  0  0  0  0  0
   55.9270   27.5260   45.6220 N   0  0  0  0  0  0  0  0  0  0  0  0
   55.4860   26.3410   46.0970 C   0  0  0  0  0  0  0  0  0  0  0  0
   54.2950   25.9590   45.9640 O   0  0  0  0  0  0  0  0  0  0  0  0
   56.4240   25.5940   46.7170 N   0  0  0  0  0  0  0  0  0  0  0  0
   57.5210   26.3640   46.6260 C   0  0  0  0  0  0  0  0  0  0  0  0
   58.7710   25.9990   47.1140 O   0  0  0  0  0  0  0  0  0  0  0  0
   56.0224   28.6439   43.9842 H   0  0  0  0  0  0  0  0  0  0  0  0
   55.3290   30.2397   43.2079 H   0  0  0  0  0  0  0  0  0  0  0  0
   57.7504   33.7323   44.7277 H   0  0  0  0  0  0  0  0  0  0  0  0
   61.2498   34.9956   46.5267 H   0  0  0  0  0  0  0  0  0  0  0  0
   61.4217   34.5449   48.2720 H   0  0  0  0  0  0  0  0  0  0  0  0
   63.2353   33.7330   45.9548 H   0  0  0  0  0  0  0  0  0  0  0  0
   63.6160   34.8169   47.3727 H   0  0  0  0  0  0  0  0  0  0  0  0
   64.3025   32.2359   47.1631 H   0  0  0  0  0  0  0  0  0  0  0  0
   64.2353   31.2827   50.2038 H   0  0  0  0  0  0  0  0  0  0  0  0
   65.6063   31.3896   49.0472 H   0  0  0  0  0  0  0  0  0  0  0  0
   65.7591   31.8808   51.7903 H   0  0  0  0  0  0  0  0  0  0  0  0
   66.9361   32.4641   50.5271 H   0  0  0  0  0  0  0  0  0  0  0  0
   63.8339   33.2720   52.0836 H   0  0  0  0  0  0  0  0  0  0  0  0
   64.0242   35.0359   51.7603 H   0  0  0  0  0  0  0  0  0  0  0  0
   62.5455   33.3379   50.1832 H   0  0  0  0  0  0  0  0  0  0  0  0
   63.3331   34.8551   49.5926 H   0  0  0  0  0  0  0  0  0  0  0  0
   62.9251   30.6760   48.2147 H   0  0  0  0  0  0  0  0  0  0  0  0
   62.0175   31.9518   49.1276 H   0  0  0  0  0  0  0  0  0  0  0  0
   61.8159   31.4133   46.1252 H   0  0  0  0  0  0  0  0  0  0  0  0
   60.6085   30.9383   47.3732 H   0  0  0  0  0  0  0  0  0  0  0  0
   59.2377   30.4345   47.0799 H   0  0  0  0  0  0  0  0  0  0  0  0
   59.2361   28.2656   45.4441 H   0  0  0  0  0  0  0  0  0  0  0  0
   59.6120   26.2110   46.5890 H   0  0  0  0  0  0  0  0  0  0  0  0
  1  2  2  0
  2  3  1  0
  3  4  2  0
  4  5  1  0
  5  6  1  0
  6  7  2  0
  6  8  1  0
  8  9  1  0
  9 10  1  0
 10 11  1  0
 11 12  1  0
 12 13  1  0
 13 14  1  0
 14 15  1  0
 15 16  1  0
 16 17  1  0
 11 18  1  0
 18 19  1  0
  5 20  2  0
 20 21  1  0
 21 22  2  3
 22 23  1  0
 23 24  1  0
 24 25  1  0
 25 26  2  0
 25 27  1  0
 27 28  1  0
 28 29  1  0
 21  2  1  0
 28 23  2  0
 19  8  1  0
 17 12  1  0
  1 30  1  0
  1 31  1  0
  4 32  1  0
  9 33  1  0
  9 34  1  0
 10 35  1  0
 10 36  1  0
 11 37  1  0
 13 38  1  0
 13 39  1  0
 14 40  1  0
 14 41  1  0
 16 42  1  0
 16 43  1  0
 17 44  1  0
 17 45  1  0
 18 46  1  0
 18 47  1  0
 19 48  1  0
 19 49  1  0
 20 50  1  0
 22 51  1  0
 29 52  1  0
M  CHG  2  24  -1  27  -1
M  END
>  <UniqueID>  (10) 
9

>  <SMILES>  (10) 
C=c1ncc(C(=O)N2CCC(N3CCOCC3)CC2)cc1=Cc1[n-]c(=O)[n-]c1O

>  <Energy>  (10) 
123.48424932164096

>  <Genealogy>  (10) 
C=c1ncc(C(=O)N2CCC(N3CCOCC3)CC2)cc1=Cc1[n-]c(=O)[n-]c1O (protonated)
C=c1ncc(C(=O)N2CCC(N3CCOCC3)CC2)cc1=Cc1[n-]c(=O)[n-]c1O (3D coordinates assigned)
C=c1ncc(C(=O)N2CCC(N3CCOCC3)CC2)cc1=Cc1[n-]c(=O)[n-]c1O (nonaromatic ring conformer: 123.48424932164096 kcal/mol)

>  <smiles>  (10) 
C=c1ncc(C(=O)N2CCC(N3CCOCC3)CC2)cc1=Cc1[nH]c(=O)[nH]c1O

>  <score_type>  (10) 
oracle

>  <origin>  (10) 
adg

>  <m_score__min__energy>  (10) 
-14.199999999999999

>  <m_primary>  (10) 
energy

$$$$
10:0
     RDKit          3D

 41 43  0  0  0  0  0  0  0  0999 V2000
   55.1420   29.3400   44.8360 N   0  0  0  0  0  0  0  0  0  0  0  0
   56.6110   30.1520   44.4270 S   0  0  0  0  0  0  0  0  0  0  0  0
   56.8270   30.0760   42.9420 O   0  0  0  0  0  0  0  0  0  0  0  0
   56.5170   31.5970   44.8290 O   0  0  0  0  0  0  0  0  0  0  0  0
   57.9570   29.3880   45.2680 C   0  0  0  0  0  0  0  0  0  0  0  0
   58.4980   28.1850   44.7930 C   0  0  0  0  0  0  0  0  0  0  0  0
   59.5640   27.5810   45.4660 C   0  0  0  0  0  0  0  0  0  0  0  0
   60.0910   28.1710   46.6170 C   0  0  0  0  0  0  0  0  0  0  0  0
   59.5510   29.3690   47.1090 C   0  0  0  0  0  0  0  0  0  0  0  0
   60.1250   30.0220   48.3360 C   0  0  0  0  0  0  0  0  0  0  0  0
   59.0520   30.4880   49.2070 N   0  0  0  0  0  0  0  0  0  0  0  0
   58.6350   31.8560   49.2890 C   0  0  0  0  0  0  0  0  0  0  0  0
   57.9850   32.2530   50.2940 O   0  0  0  0  0  0  0  0  0  0  0  0
   59.0060   32.7830   48.2490 N   0  0  0  0  0  0  0  0  0  0  0  0
   57.9430   33.1900   47.3110 C   0  0  0  0  0  0  0  0  0  0  0  0
   58.4310   34.2000   46.2650 C   0  0  0  0  0  0  0  0  0  0  0  0
   59.7420   33.7300   45.6380 C   0  0  0  0  0  0  0  0  0  0  0  0
   60.7810   33.5640   46.7080 C   0  0  0  0  0  0  0  0  0  0  0  0
   62.1280   33.8450   46.4350 C   0  0  0  0  0  0  0  0  0  0  0  0
   63.0880   33.7270   47.4410 C   0  0  0  0  0  0  0  0  0  0  0  0
   62.7100   33.3340   48.7250 C   0  0  0  0  0  0  0  0  0  0  0  0
   61.3740   33.0340   49.0020 C   0  0  0  0  0  0  0  0  0  0  0  0
   60.3980   33.1050   47.9880 C   0  0  0  0  0  0  0  0  0  0  0  0
   58.4810   29.9740   46.4280 C   0  0  0  0  0  0  0  0  0  0  0  0
   55.3550   28.7120   45.6430 H   0  0  0  0  0  0  0  0  0  0  0  0
   58.0828   27.7155   43.8890 H   0  0  0  0  0  0  0  0  0  0  0  0
   59.9886   26.6392   45.0883 H   0  0  0  0  0  0  0  0  0  0  0  0
   60.9331   27.6944   47.1401 H   0  0  0  0  0  0  0  0  0  0  0  0
   60.7438   29.2931   48.8798 H   0  0  0  0  0  0  0  0  0  0  0  0
   60.7390   30.8822   48.0310 H   0  0  0  0  0  0  0  0  0  0  0  0
   57.5721   32.2951   46.7898 H   0  0  0  0  0  0  0  0  0  0  0  0
   57.1504   33.6768   47.8982 H   0  0  0  0  0  0  0  0  0  0  0  0
   57.6695   34.3023   45.4778 H   0  0  0  0  0  0  0  0  0  0  0  0
   58.5997   35.1689   46.7578 H   0  0  0  0  0  0  0  0  0  0  0  0
   59.5810   32.7669   45.1316 H   0  0  0  0  0  0  0  0  0  0  0  0
   60.0860   34.4772   44.9077 H   0  0  0  0  0  0  0  0  0  0  0  0
   62.4285   34.1594   45.4246 H   0  0  0  0  0  0  0  0  0  0  0  0
   64.1437   33.9441   47.2213 H   0  0  0  0  0  0  0  0  0  0  0  0
   63.4655   33.2602   49.5211 H   0  0  0  0  0  0  0  0  0  0  0  0
   61.0813   32.7397   50.0207 H   0  0  0  0  0  0  0  0  0  0  0  0
   58.0522   30.9131   46.8078 H   0  0  0  0  0  0  0  0  0  0  0  0
  1  2  1  0
  2  3  2  0
  2  4  2  0
  2  5  1  0
  5  6  2  0
  6  7  1  0
  7  8  2  0
  8  9  1  0
  9 10  1  0
 10 11  1  0
 11 12  1  0
 12 13  2  0
 12 14  1  0
 14 15  1  0
 15 16  1  0
 16 17  1  0
 17 18  1  0
 18 19  2  0
 19 20  1  0
 20 21  2  0
 21 22  1  0
 22 23  2  0
  9 24  2  0
 24  5  1  0
 23 14  1  0
 23 18  1  0
  1 25  1  0
  6 26  1  0
  7 27  1  0
  8 28  1  0
 10 29  1  0
 10 30  1  0
 15 31  1  0
 15 32  1  0
 16 33  1  0
 16 34  1  0
 17 35  1  0
 17 36  1  0
 19 37  1  0
 20 38  1  0
 21 39  1  0
 22 40  1  0
 24 41  1  0
M  CHG  2   1  -1  11  -1
M  END
>  <UniqueID>  (11) 
10

>  <SMILES>  (11) 
[NH-]S(=O)(=O)c1cccc(C[N-]C(=O)N2CCCc3ccccc32)c1

>  <Energy>  (11) 
45.60644010147333

>  <Genealogy>  (11) 
[NH-]S(=O)(=O)c1cccc(C[N-]C(=O)N2CCCc3ccccc32)c1 (protonated)
[NH-]S(=O)(=O)c1cccc(C[N-]C(=O)N2CCCc3ccccc32)c1 (3D coordinates assigned)
[NH-]S(=O)(=O)c1cccc(C[N-]C(=O)N2CCCc3ccccc32)c1 (nonaromatic ring conformer: 45.60644010147333 kcal/mol)

>  <smiles>  (11) 
NS(=O)(=O)c1cccc(CNC(=O)N2CCCc3ccccc32)c1

>  <score_type>  (11) 
oracle

>  <origin>  (11) 
adg

>  <m_score__min__energy>  (11) 
-13.01

>  <m_primary>  (11) 
energy

$$$$
11:0
     RDKit          3D

 59 61  0  0  0  0  0  0  0  0999 V2000
   59.1440   28.3810   46.1150 O   0  0  0  0  0  0  0  0  0  0  0  0
   58.1580   27.6930   45.7250 C   0  0  0  0  0  0  0  0  0  0  0  0
   57.7320   27.7650   44.2890 C   0  0  0  0  0  0  0  0  0  0  0  0
   57.4420   29.1420   43.8920 N   0  0  0  0  0  0  0  0  0  0  0  0
   56.3440   29.8900   44.4390 C   0  0  0  0  0  0  0  0  0  0  0  0
   55.3330   29.2890   44.8870 O   0  0  0  0  0  0  0  0  0  0  0  0
   56.3690   31.3220   44.4800 N   0  0  0  0  0  0  0  0  0  0  0  0
   57.4130   32.1540   43.8870 C   0  0  0  0  0  0  0  0  0  0  0  0
   58.4210   32.5470   44.9350 C   0  0  0  0  0  0  0  0  0  0  0  0
   58.9510   31.5770   45.7980 C   0  0  0  0  0  0  0  0  0  0  0  0
   59.9650   31.9130   46.7030 C   0  0  0  0  0  0  0  0  0  0  0  0
   60.4500   33.2310   46.7760 C   0  0  0  0  0  0  0  0  0  0  0  0
   61.5350   33.5830   47.6620 N   0  0  0  0  0  0  0  0  0  0  0  0
   62.9220   33.1910   47.4360 C   0  0  0  0  0  0  0  0  0  0  0  0
   63.7050   33.5960   48.7020 C   0  0  0  0  0  0  0  0  0  0  0  0
   62.7140   34.2790   49.6570 C   0  0  0  0  0  0  0  0  0  0  0  0
   61.4250   34.1820   48.9450 C   0  0  0  0  0  0  0  0  0  0  0  0
   60.3380   34.5760   49.4350 O   0  0  0  0  0  0  0  0  0  0  0  0
   59.8940   34.2060   45.9290 C   0  0  0  0  0  0  0  0  0  0  0  0
   58.8910   33.8660   45.0150 C   0  0  0  0  0  0  0  0  0  0  0  0
   57.4590   26.8400   46.6370 N   0  0  0  0  0  0  0  0  0  0  0  0
   58.1150   25.8360   47.4790 C   0  0  0  0  0  0  0  0  0  0  0  0
   57.7630   24.4160   47.0150 C   0  0  0  0  0  0  0  0  0  0  0  0
   58.1610   24.1430   45.5560 C   0  0  0  0  0  0  0  0  0  0  0  0
   57.1370   23.3030   44.8840 N   0  0  0  0  0  0  0  0  0  0  0  0
   57.5560   21.8860   44.7300 C   0  0  0  0  0  0  0  0  0  0  0  0
   57.4810   21.3970   43.2750 C   0  0  0  0  0  0  0  0  0  0  0  0
   56.2040   21.6210   42.7090 O   0  0  0  0  0  0  0  0  0  0  0  0
   55.7660   22.9690   42.8340 C   0  0  0  0  0  0  0  0  0  0  0  0
   56.7030   23.9140   43.6110 C   0  0  0  0  0  0  0  0  0  0  0  0
   58.5400   27.3713   43.6549 H   0  0  0  0  0  0  0  0  0  0  0  0
   56.8168   27.1671   44.1667 H   0  0  0  0  0  0  0  0  0  0  0  0
   58.1170   29.6180   43.2540 H   0  0  0  0  0  0  0  0  0  0  0  0
   57.9187   31.5896   43.0897 H   0  0  0  0  0  0  0  0  0  0  0  0
   56.9548   33.0630   43.4701 H   0  0  0  0  0  0  0  0  0  0  0  0
   58.5679   30.5464   45.7637 H   0  0  0  0  0  0  0  0  0  0  0  0
   60.3858   31.1396   47.3624 H   0  0  0  0  0  0  0  0  0  0  0  0
   62.9888   32.1042   47.2796 H   0  0  0  0  0  0  0  0  0  0  0  0
   63.3326   33.6815   46.5411 H   0  0  0  0  0  0  0  0  0  0  0  0
   64.1336   32.7031   49.1806 H   0  0  0  0  0  0  0  0  0  0  0  0
   64.5302   34.2771   48.4467 H   0  0  0  0  0  0  0  0  0  0  0  0
   62.6708   33.7518   50.6215 H   0  0  0  0  0  0  0  0  0  0  0  0
   62.9944   35.3157   49.8951 H   0  0  0  0  0  0  0  0  0  0  0  0
   60.2508   35.2450   45.9856 H   0  0  0  0  0  0  0  0  0  0  0  0
   58.4684   34.6379   44.3550 H   0  0  0  0  0  0  0  0  0  0  0  0
   59.2048   25.9739   47.4209 H   0  0  0  0  0  0  0  0  0  0  0  0
   57.7657   25.9637   48.5142 H   0  0  0  0  0  0  0  0  0  0  0  0
   58.2869   23.6965   47.6614 H   0  0  0  0  0  0  0  0  0  0  0  0
   56.6702   24.3102   47.0824 H   0  0  0  0  0  0  0  0  0  0  0  0
   58.2519   25.0997   45.0209 H   0  0  0  0  0  0  0  0  0  0  0  0
   59.1221   23.6081   45.5444 H   0  0  0  0  0  0  0  0  0  0  0  0
   58.5937   21.7863   45.0811 H   0  0  0  0  0  0  0  0  0  0  0  0
   56.8635   21.2699   45.3223 H   0  0  0  0  0  0  0  0  0  0  0  0
   58.2334   21.9351   42.6796 H   0  0  0  0  0  0  0  0  0  0  0  0
   57.6716   20.3137   43.2689 H   0  0  0  0  0  0  0  0  0  0  0  0
   55.6408   23.3776   41.8204 H   0  0  0  0  0  0  0  0  0  0  0  0
   54.8359   22.9257   43.4197 H   0  0  0  0  0  0  0  0  0  0  0  0
   57.5887   24.1284   42.9949 H   0  0  0  0  0  0  0  0  0  0  0  0
   56.1558   24.8412   43.8367 H   0  0  0  0  0  0  0  0  0  0  0  0
  1  2  2  0
  2  3  1  0
  3  4  1  0
  4  5  1  0
  5  6  2  0
  5  7  1  0
  7  8  1  0
  8  9  1  0
  9 10  2  0
 10 11  1  0
 11 12  2  0
 12 13  1  0
 13 14  1  0
 14 15  1  0
 15 16  1  0
 16 17  1  0
 17 18  2  0
 12 19  1  0
 19 20  2  0
  2 21  1  0
 21 22  1  0
 22 23  1  0
 23 24  1  0
 24 25  1  0
 25 26  1  0
 26 27  1  0
 27 28  1  0
 28 29  1  0
 29 30  1  0
 20  9  1  0
 30 25  1  0
 17 13  1  0
  3 31  1  0
  3 32  1  0
  4 33  1  0
  8 34  1  0
  8 35  1  0
 10 36  1  0
 11 37  1  0
 14 38  1  0
 14 39  1  0
 15 40  1  0
 15 41  1  0
 16 42  1  0
 16 43  1  0
 19 44  1  0
 20 45  1  0
 22 46  1  0
 22 47  1  0
 23 48  1  0
 23 49  1  0
 24 50  1  0
 24 51  1  0
 26 52  1  0
 26 53  1  0
 27 54  1  0
 27 55  1  0
 29 56  1  0
 29 57  1  0
 30 58  1  0
 30 59  1  0
M  CHG  2   7  -1  21  -1
M  END
>  <UniqueID>  (12) 
11

>  <SMILES>  (12) 
O=C(CNC(=O)[N-]Cc1ccc(N2CCCC2=O)cc1)[N-]CCCN1CCOCC1

>  <Energy>  (12) 
78.5866928904215

>  <Genealogy>  (12) 
O=C(CNC(=O)[N-]Cc1ccc(N2CCCC2=O)cc1)[N-]CCCN1CCOCC1 (protonated)
O=C(CNC(=O)[N-]Cc1ccc(N2CCCC2=O)cc1)[N-]CCCN1CCOCC1 (3D coordinates assigned)
O=C(CNC(=O)[N-]Cc1ccc(N2CCCC2=O)cc1)[N-]CCCN1CCOCC1 (nonaromatic ring conformer: 78.5866928904215 kcal/mol)

>  <smiles>  (12) 
O=C(CNC(=O)NCc1ccc(N2CCCC2=O)cc1)NCCCN1CCOCC1

>  <score_type>  (12) 
oracle

>  <origin>  (12) 
adg

>  <m_score__min__energy>  (12) 
-12.5

>  <m_primary>  (12) 
energy

$$$$
12:0
     RDKit          3D

 42 44  0  0  0  0  0  0  0  0999 V2000
   55.0400   24.6297   46.1737 H   0  0  0  0  0  0  0  0  0  0  0  0
   55.7840   25.3860   45.8830 C   0  0  0  0  0  0  0  0  0  0  0  0
   55.5630   26.7220   46.0100 N   0  0  0  0  0  0  0  0  0  0  0  0
   56.6190   27.4520   45.5880 C   0  0  0  0  0  0  0  0  0  0  0  0
   56.6040   28.7530   45.6110 N   0  0  0  0  0  0  0  0  0  0  0  0
   56.5940   29.6560   44.4950 C   0  0  0  0  0  0  0  0  0  0  0  0
   56.6950   29.1770   43.3340 O   0  0  0  0  0  0  0  0  0  0  0  0
   56.3930   31.0640   44.6770 N   0  0  0  0  0  0  0  0  0  0  0  0
   57.4020   32.0400   44.9770 C   0  0  0  0  0  0  0  0  0  0  0  0
   57.8510   32.2630   46.2910 C   0  0  0  0  0  0  0  0  0  0  0  0
   57.4514   31.6525   47.1142 H   0  0  0  0  0  0  0  0  0  0  0  0
   58.8070   33.2600   46.5630 C   0  0  0  0  0  0  0  0  0  0  0  0
   59.2780   33.5010   47.9490 C   0  0  0  0  0  0  0  0  0  0  0  0
   58.6060   33.0570   48.9170 O   0  0  0  0  0  0  0  0  0  0  0  0
   60.4450   34.2900   48.2300 N   0  0  0  0  0  0  0  0  0  0  0  0
   61.6740   33.8640   48.2230 C   0  0  0  0  0  0  0  0  0  0  0  0
   62.4860   33.9800   49.2890 N   0  0  0  0  0  0  0  0  0  0  0  0
   63.6420   33.4300   48.9530 N   0  0  0  0  0  0  0  0  0  0  0  0
   64.8160   33.4130   49.8190 C   0  0  0  0  0  0  0  0  0  0  0  0
   64.5911   33.9590   50.7471 H   0  0  0  0  0  0  0  0  0  0  0  0
   65.6557   33.8933   49.2954 H   0  0  0  0  0  0  0  0  0  0  0  0
   65.1970   31.9780   50.1590 C   0  0  0  0  0  0  0  0  0  0  0  0
   65.2293   31.8563   51.2518 H   0  0  0  0  0  0  0  0  0  0  0  0
   64.4503   31.2902   49.7354 H   0  0  0  0  0  0  0  0  0  0  0  0
   66.1865   31.7512   49.7354 H   0  0  0  0  0  0  0  0  0  0  0  0
   63.5870   32.9710   47.6870 C   0  0  0  0  0  0  0  0  0  0  0  0
   64.4091   32.4788   47.1467 H   0  0  0  0  0  0  0  0  0  0  0  0
   62.3290   33.2210   47.1820 C   0  0  0  0  0  0  0  0  0  0  0  0
   61.9358   32.9695   46.1859 H   0  0  0  0  0  0  0  0  0  0  0  0
   59.3220   34.0200   45.5010 C   0  0  0  0  0  0  0  0  0  0  0  0
   60.0911   34.7818   45.6960 H   0  0  0  0  0  0  0  0  0  0  0  0
   58.8630   33.8140   44.1980 C   0  0  0  0  0  0  0  0  0  0  0  0
   59.2629   34.4226   43.3735 H   0  0  0  0  0  0  0  0  0  0  0  0
   57.8980   32.8380   43.9380 C   0  0  0  0  0  0  0  0  0  0  0  0
   57.4540   32.6580   42.6690 F   0  0  0  0  0  0  0  0  0  0  0  0
   57.8760   26.4650   45.0310 S   0  0  0  0  0  0  0  0  0  0  0  0
   57.0240   25.0550   45.3570 C   0  0  0  0  0  0  0  0  0  0  0  0
   57.6250   23.3950   45.0550 S   0  0  0  0  0  0  0  0  0  0  0  0
   56.6480   23.1960   43.5330 C   0  0  0  0  0  0  0  0  0  0  0  0
   55.6011   22.9828   43.7946 H   0  0  0  0  0  0  0  0  0  0  0  0
   56.6969   24.1225   42.9421 H   0  0  0  0  0  0  0  0  0  0  0  0
   57.0554   22.3624   42.9421 H   0  0  0  0  0  0  0  0  0  0  0  0
  1  2  1  0
  2  3  1  0
  3  4  1  0
  4  5  2  3
  5  6  1  0
  6  7  2  0
  6  8  1  0
  8  9  1  0
  9 10  2  0
 10 11  1  0
 10 12  1  0
 12 13  1  0
 13 14  2  0
 13 15  1  0
 15 16  2  0
 16 17  1  0
 17 18  1  0
 18 19  1  0
 19 20  1  0
 19 21  1  0
 19 22  1  0
 22 23  1  0
 22 24  1  0
 22 25  1  0
 18 26  1  0
 26 27  1  0
 26 28  2  0
 28 29  1  0
 12 30  2  0
 30 31  1  0
 30 32  1  0
 32 33  1  0
 32 34  2  0
 34 35  1  0
  4 36  1  0
 36 37  1  0
 37 38  1  0
 38 39  1  0
 39 40  1  0
 39 41  1  0
 39 42  1  0
 37  2  2  0
 34  9  1  0
 28 16  1  0
M  CHG  3   3  -1   8  -1  17  -1
M  END
>  <UniqueID>  (13) 
12

>  <SMILES>  (13) 
CCn1cc/c(=N\C(=O)c2ccc(F)c([N-]C(=O)N=c3[n-]cc(SC)s3)c2)[n-]1

>  <Energy>  (13) 
112.67375667256093

>  <Genealogy>  (13) 
CCn1ccc(=NC(=O)c2ccc(F)c([N-]C(=O)N=c3[n-]cc(SC)s3)c2)[n-]1 (protonated)
CCn1cc/c(=N\C(=O)c2ccc(F)c([N-]C(=O)N=c3[n-]cc(SC)s3)c2)[n-]1 (cis-trans isomerization)
CCn1cc/c(=N\C(=O)c2ccc(F)c([N-]C(=O)N=c3[n-]cc(SC)s3)c2)[n-]1 (3D coordinates assigned)
CCn1cc/c(=N\C(=O)c2ccc(F)c([N-]C(=O)N=c3[n-]cc(SC)s3)c2)[n-]1 (optimized conformer: 112.67375667256093 kcal/mol)

>  <smiles>  (13) 
CCn1ccc(=NC(=O)c2ccc(F)c(NC(=O)N=c3[nH]cc(SC)s3)c2)[nH]1

>  <score_type>  (13) 
oracle

>  <origin>  (13) 
adg

>  <m_score__min__energy>  (13) 
-11.93

>  <m_primary>  (13) 
energy

$$$$
13:0
     RDKit          3D

 74 76  0  0  0  0  0  0  0  0999 V2000
   58.4920   34.2440   52.4240 C   0  0  0  0  0  0  0  0  0  0  0  0
   58.6040   33.0910   53.4200 C   0  0  0  0  0  0  0  0  0  0  0  0
   59.2310   31.8510   52.7740 C   0  0  0  0  0  0  0  0  0  0  0  0
   58.2740   31.2000   51.8700 N   0  0  0  0  0  0  0  0  0  0  0  0
   57.1460   30.4120   52.3950 C   0  0  0  0  0  0  0  0  0  0  0  0
   55.8150   31.1770   52.3130 C   0  0  0  0  0  0  0  0  0  0  0  0
   54.6380   30.2600   52.0020 C   0  0  0  0  0  0  0  0  0  0  0  0
   58.5230   31.2480   50.4560 C   0  0  0  0  0  0  0  0  0  0  0  0
   58.1200   32.2470   49.8020 O   0  0  0  0  0  0  0  0  0  0  0  0
   59.2550   30.1550   49.7690 C   0  0  0  0  0  0  0  0  0  0  0  0
   60.0560   29.2550   50.4970 C   0  0  0  0  0  0  0  0  0  0  0  0
   60.7030   28.2010   49.8490 C   0  0  0  0  0  0  0  0  0  0  0  0
   60.5840   28.0450   48.4670 C   0  0  0  0  0  0  0  0  0  0  0  0
   59.8340   28.9620   47.7120 C   0  0  0  0  0  0  0  0  0  0  0  0
   59.7680   28.8290   46.2410 C   0  0  0  0  0  0  0  0  0  0  0  0
   60.7310   29.2450   45.5390 O   0  0  0  0  0  0  0  0  0  0  0  0
   58.6050   28.2690   45.6050 N   0  0  0  0  0  0  0  0  0  0  0  0
   58.4560   28.2250   44.1480 C   0  0  1  0  0  0  0  0  0  0  0  0
   58.1470   26.7890   43.7040 C   0  0  0  0  0  0  0  0  0  0  0  0
   57.3440   29.2050   43.7220 C   0  0  0  0  0  0  0  0  0  0  0  0
   57.6700   30.6350   44.0760 C   0  0  0  0  0  0  0  0  0  0  0  0
   57.7610   31.0350   45.4190 C   0  0  0  0  0  0  0  0  0  0  0  0
   58.0730   32.3580   45.7430 C   0  0  0  0  0  0  0  0  0  0  0  0
   58.3060   33.3010   44.7280 C   0  0  0  0  0  0  0  0  0  0  0  0
   58.6390   34.6670   45.0160 N   0  0  0  0  0  0  0  0  0  0  0  0
   59.5790   35.1330   45.9890 C   0  0  0  0  0  0  0  0  0  0  0  0
   60.0180   36.3120   45.9380 O   0  0  0  0  0  0  0  0  0  0  0  0
   59.9320   34.2710   47.0790 N   0  0  0  0  0  0  0  0  0  0  0  0
   61.2470   33.8070   47.4290 C   0  0  0  0  0  0  0  0  0  0  0  0
   62.2150   33.5210   46.4480 C   0  0  0  0  0  0  0  0  0  0  0  0
   63.4900   33.0850   46.8170 C   0  0  0  0  0  0  0  0  0  0  0  0
   63.8100   32.9110   48.1640 C   0  0  0  0  0  0  0  0  0  0  0  0
   62.8490   33.1590   49.1470 C   0  0  0  0  0  0  0  0  0  0  0  0
   61.5610   33.5940   48.7890 C   0  0  0  0  0  0  0  0  0  0  0  0
   60.5350   33.8570   49.8590 C   0  0  0  0  0  0  0  0  0  0  0  0
   58.1710   32.9100   43.3900 C   0  0  0  0  0  0  0  0  0  0  0  0
   57.8620   31.5870   43.0640 C   0  0  0  0  0  0  0  0  0  0  0  0
   59.1630   30.0080   48.3720 C   0  0  0  0  0  0  0  0  0  0  0  0
   58.3998   35.1937   52.9713 H   0  0  0  0  0  0  0  0  0  0  0  0
   59.3917   34.2711   51.7918 H   0  0  0  0  0  0  0  0  0  0  0  0
   57.6039   34.0974   51.7918 H   0  0  0  0  0  0  0  0  0  0  0  0
   59.2308   33.4090   54.2662 H   0  0  0  0  0  0  0  0  0  0  0  0
   57.5914   32.8287   53.7602 H   0  0  0  0  0  0  0  0  0  0  0  0
   60.1212   32.1521   52.2023 H   0  0  0  0  0  0  0  0  0  0  0  0
   59.5102   31.1409   53.5663 H   0  0  0  0  0  0  0  0  0  0  0  0
   57.0585   29.4851   51.8093 H   0  0  0  0  0  0  0  0  0  0  0  0
   57.3478   30.1983   53.4550 H   0  0  0  0  0  0  0  0  0  0  0  0
   55.6319   31.6724   53.2779 H   0  0  0  0  0  0  0  0  0  0  0  0
   55.8971   31.9077   51.4949 H   0  0  0  0  0  0  0  0  0  0  0  0
   54.1879   29.9093   52.9425 H   0  0  0  0  0  0  0  0  0  0  0  0
   53.8863   30.8129   51.4195 H   0  0  0  0  0  0  0  0  0  0  0  0
   54.9903   29.3959   51.4195 H   0  0  0  0  0  0  0  0  0  0  0  0
   60.1729   29.3829   51.5833 H   0  0  0  0  0  0  0  0  0  0  0  0
   61.3092   27.4904   50.4301 H   0  0  0  0  0  0  0  0  0  0  0  0
   61.0798   27.2001   47.9668 H   0  0  0  0  0  0  0  0  0  0  0  0
   57.7630   28.0640   46.1940 H   0  0  0  0  0  0  0  0  0  0  0  0
   59.3919   28.5333   43.6590 H   0  0  0  0  0  0  0  0  0  0  0  0
   58.0100   26.1525   44.5906 H   0  0  0  0  0  0  0  0  0  0  0  0
   57.2267   26.7815   43.1015 H   0  0  0  0  0  0  0  0  0  0  0  0
   58.9828   26.4036   43.1015 H   0  0  0  0  0  0  0  0  0  0  0  0
   57.2081   29.1330   42.6328 H   0  0  0  0  0  0  0  0  0  0  0  0
   56.4271   28.9267   44.2622 H   0  0  0  0  0  0  0  0  0  0  0  0
   57.5856   30.3025   46.2207 H   0  0  0  0  0  0  0  0  0  0  0  0
   58.1365   32.6626   46.7981 H   0  0  0  0  0  0  0  0  0  0  0  0
   61.9659   33.6416   45.3834 H   0  0  0  0  0  0  0  0  0  0  0  0
   64.2440   32.8782   46.0432 H   0  0  0  0  0  0  0  0  0  0  0  0
   64.8184   32.5787   48.4516 H   0  0  0  0  0  0  0  0  0  0  0  0
   63.1016   33.0130   50.2076 H   0  0  0  0  0  0  0  0  0  0  0  0
   60.9991   33.7380   50.8492 H   0  0  0  0  0  0  0  0  0  0  0  0
   60.1512   34.8826   49.7548 H   0  0  0  0  0  0  0  0  0  0  0  0
   59.7051   33.1425   49.7548 H   0  0  0  0  0  0  0  0  0  0  0  0
   58.3094   33.6509   42.5888 H   0  0  0  0  0  0  0  0  0  0  0  0
   57.7689   31.2906   42.0088 H   0  0  0  0  0  0  0  0  0  0  0  0
   58.5593   30.7194   47.7893 H   0  0  0  0  0  0  0  0  0  0  0  0
  1  2  1  0
  2  3  1  0
  3  4  1  0
  4  5  1  0
  5  6  1  0
  6  7  1  0
  4  8  1  0
  8  9  2  0
  8 10  1  0
 10 11  2  0
 11 12  1  0
 12 13  2  0
 13 14  1  0
 14 15  1  0
 15 16  2  0
 15 17  1  0
 17 18  1  0
 18 19  1  0
 18 20  1  0
 20 21  1  0
 21 22  2  0
 22 23  1  0
 23 24  2  0
 24 25  1  0
 25 26  1  0
 26 27  2  0
 26 28  1  0
 28 29  1  0
 29 30  2  0
 30 31  1  0
 31 32  2  0
 32 33  1  0
 33 34  2  0
 34 35  1  0
 24 36  1  0
 36 37  2  0
 14 38  2  0
 38 10  1  0
 37 21  1  0
 34 29  1  0
  1 39  1  0
  1 40  1  0
  1 41  1  0
  2 42  1  0
  2 43  1  0
  3 44  1  0
  3 45  1  0
  5 46  1  0
  5 47  1  0
  6 48  1  0
  6 49  1  0
  7 50  1  0
  7 51  1  0
  7 52  1  0
 11 53  1  0
 12 54  1  0
 13 55  1  0
 17 56  1  0
 18 57  1  6
 19 58  1  0
 19 59  1  0
 19 60  1  0
 20 61  1  0
 20 62  1  0
 22 63  1  0
 23 64  1  0
 30 65  1  0
 31 66  1  0
 32 67  1  0
 33 68  1  0
 35 69  1  0
 35 70  1  0
 35 71  1  0
 36 72  1  0
 37 73  1  0
 38 74  1  0
M  CHG  2  25  -1  28  -1
M  END
>  <UniqueID>  (14) 
13

>  <SMILES>  (14) 
CCCN(CCC)C(=O)c1cccc(C(=O)N[C@@H](C)Cc2ccc([N-]C(=O)[N-]c3ccccc3C)cc2)c1

>  <Energy>  (14) 
76.17156084477341

>  <Genealogy>  (14) 
CCCN(CCC)C(=O)c1cccc(C(=O)NC(C)Cc2ccc([N-]C(=O)[N-]c3ccccc3C)cc2)c1 (protonated)
CCCN(CCC)C(=O)c1cccc(C(=O)N[C@@H](C)Cc2ccc([N-]C(=O)[N-]c3ccccc3C)cc2)c1 (chirality)
CCCN(CCC)C(=O)c1cccc(C(=O)N[C@@H](C)Cc2ccc([N-]C(=O)[N-]c3ccccc3C)cc2)c1 (3D coordinates assigned)
CCCN(CCC)C(=O)c1cccc(C(=O)N[C@@H](C)Cc2ccc([N-]C(=O)[N-]c3ccccc3C)cc2)c1 (optimized conformer: 76.17156084477341 kcal/mol)

>  <smiles>  (14) 
CCCN(CCC)C(=O)c1cccc(C(=O)NC(C)Cc2ccc(NC(=O)Nc3ccccc3C)cc2)c1

>  <score_type>  (14) 
oracle

>  <origin>  (14) 
adg

>  <m_score__min__energy>  (14) 
-12.69

>  <m_primary>  (14) 
energy

$$$$
14:0
     RDKit          3D

 46 49  0  0  0  0  0  0  0  0999 V2000
   54.4030   29.3440   45.5630 H   0  0  0  0  0  0  0  0  0  0  0  0
   55.1550   29.1690   44.8610 N   0  0  0  0  0  0  0  0  0  0  0  0
   56.3100   30.0040   44.8010 C   0  0  0  0  0  0  0  0  0  0  0  0
   56.1670   31.2300   44.5410 O   0  0  0  0  0  0  0  0  0  0  0  0
   57.6610   29.4410   45.0420 C   0  0  0  0  0  0  0  0  0  0  0  0
   58.1610   28.4210   44.2160 C   0  0  0  0  0  0  0  0  0  0  0  0
   57.5491   28.0423   43.3840 H   0  0  0  0  0  0  0  0  0  0  0  0
   59.4290   27.8850   44.4440 C   0  0  0  0  0  0  0  0  0  0  0  0
   59.8097   27.0836   43.7938 H   0  0  0  0  0  0  0  0  0  0  0  0
   60.2160   28.3610   45.4930 C   0  0  0  0  0  0  0  0  0  0  0  0
   61.2121   27.9281   45.6673 H   0  0  0  0  0  0  0  0  0  0  0  0
   59.7470   29.3890   46.3290 C   0  0  0  0  0  0  0  0  0  0  0  0
   60.6060   29.8880   47.4350 C   0  0  0  0  0  0  0  0  0  0  0  0
   61.7430   30.5970   47.1830 N   0  0  0  0  0  0  0  0  0  0  0  0
   62.3680   30.9790   48.3150 C   0  0  0  0  0  0  0  0  0  0  0  0
   63.4910   31.6340   48.2960 N   0  0  0  0  0  0  0  0  0  0  0  0
   63.9170   32.6010   49.2660 C   0  0  0  0  0  0  0  0  0  0  0  0
   64.9750   32.3900   49.9170 O   0  0  0  0  0  0  0  0  0  0  0  0
   63.1940   33.9130   49.4430 C   0  0  0  0  0  0  0  0  0  0  0  0
   63.5021   34.5927   48.6349 H   0  0  0  0  0  0  0  0  0  0  0  0
   63.4625   34.3002   50.4370 H   0  0  0  0  0  0  0  0  0  0  0  0
   61.6840   33.7780   49.4080 C   0  0  0  0  0  0  0  0  0  0  0  0
   60.9090   33.7650   50.5800 C   0  0  0  0  0  0  0  0  0  0  0  0
   61.3139   33.8111   51.6017 H   0  0  0  0  0  0  0  0  0  0  0  0
   59.2750   33.6690   50.1980 S   0  0  0  0  0  0  0  0  0  0  0  0
   59.5190   33.6680   48.5450 C   0  0  0  0  0  0  0  0  0  0  0  0
   60.8740   33.7550   48.2330 C   0  0  0  0  0  0  0  0  0  0  0  0
   61.2410   33.8380   46.8630 C   0  0  0  0  0  0  0  0  0  0  0  0
   62.6590   33.9830   46.3780 C   0  0  0  0  0  0  0  0  0  0  0  0
   63.3367   34.0523   47.2417 H   0  0  0  0  0  0  0  0  0  0  0  0
   62.9295   33.1078   45.7690 H   0  0  0  0  0  0  0  0  0  0  0  0
   62.7468   34.8948   45.7690 H   0  0  0  0  0  0  0  0  0  0  0  0
   60.2130   33.7800   45.8960 C   0  0  0  0  0  0  0  0  0  0  0  0
   60.4692   33.8276   44.8273 H   0  0  0  0  0  0  0  0  0  0  0  0
   58.8650   33.6620   46.2830 C   0  0  0  0  0  0  0  0  0  0  0  0
   57.7810   33.6570   45.2460 C   0  0  0  0  0  0  0  0  0  0  0  0
   56.7992   33.6525   45.7419 H   0  0  0  0  0  0  0  0  0  0  0  0
   57.8704   34.5556   44.6178 H   0  0  0  0  0  0  0  0  0  0  0  0
   57.8786   32.7593   44.6178 H   0  0  0  0  0  0  0  0  0  0  0  0
   58.5400   33.6310   47.6060 N   0  0  0  0  0  0  0  0  0  0  0  0
   57.5390   33.5820   47.9050 H   0  0  0  0  0  0  0  0  0  0  0  0
   61.5530   30.4390   49.6870 S   0  0  0  0  0  0  0  0  0  0  0  0
   60.3330   29.7000   48.7960 C   0  0  0  0  0  0  0  0  0  0  0  0
   59.4685   29.1612   49.2110 H   0  0  0  0  0  0  0  0  0  0  0  0
   58.4600   29.9180   46.0990 C   0  0  0  0  0  0  0  0  0  0  0  0
   58.0752   30.7137   46.7539 H   0  0  0  0  0  0  0  0  0  0  0  0
  1  2  1  0
  2  3  1  0
  3  4  2  0
  3  5  1  0
  5  6  2  0
  6  7  1  0
  6  8  1  0
  8  9  1  0
  8 10  2  0
 10 11  1  0
 10 12  1  0
 12 13  1  0
 13 14  1  0
 14 15  1  0
 15 16  2  0
 16 17  1  0
 17 18  2  0
 17 19  1  0
 19 20  1  0
 19 21  1  0
 19 22  1  0
 22 23  2  0
 23 24  1  0
 23 25  1  0
 25 26  1  0
 26 27  2  0
 27 28  1  0
 28 29  1  0
 29 30  1  0
 29 31  1  0
 29 32  1  0
 28 33  2  0
 33 34  1  0
 33 35  1  0
 35 36  1  0
 36 37  1  0
 36 38  1  0
 36 39  1  0
 35 40  2  0
 40 41  1  0
 15 42  1  0
 42 43  1  0
 43 44  1  0
 12 45  2  0
 45 46  1  0
 45  5  1  0
 43 13  2  0
 27 22  1  0
 40 26  1  0
M  CHG  3   2  -1  14  -1  40   1
M  END
>  <UniqueID>  (15) 
14

>  <SMILES>  (15) 
Cc1cc(C)c2c(CC(=O)/N=c3/[n-]c(-c4cccc(C([NH-])=O)c4)cs3)csc2[nH+]1

>  <Energy>  (15) 
126.61230016266168

>  <Genealogy>  (15) 
Cc1cc(C)c2c(CC(=O)N=c3[n-]c(-c4cccc(C([NH-])=O)c4)cs3)csc2[nH+]1 (protonated)
Cc1cc(C)c2c(CC(=O)/N=c3/[n-]c(-c4cccc(C([NH-])=O)c4)cs3)csc2[nH+]1 (cis-trans isomerization)
Cc1cc(C)c2c(CC(=O)/N=c3/[n-]c(-c4cccc(C([NH-])=O)c4)cs3)csc2[nH+]1 (3D coordinates assigned)
Cc1cc(C)c2c(CC(=O)/N=c3/[n-]c(-c4cccc(C([NH-])=O)c4)cs3)csc2[nH+]1 (optimized conformer: 126.61230016266168 kcal/mol)

>  <smiles>  (15) 
Cc1cc(C)c2c(CC(=O)N=c3[nH]c(-c4cccc(C(N)=O)c4)cs3)csc2n1

>  <score_type>  (15) 
oracle

>  <origin>  (15) 
adg

>  <m_score__min__energy>  (15) 
-13.66

>  <m_primary>  (15) 
energy

$$$$
15:0
     RDKit          3D

 48 51  0  0  0  0  0  0  0  0999 V2000
   56.6670   30.5700   42.9800 C   0  0  0  0  0  0  0  0  0  0  0  0
   57.1510   30.8530   44.3310 N   0  0  0  0  0  0  0  0  0  0  0  0
   57.4650   32.0540   44.8640 C   0  0  0  0  0  0  0  0  0  0  0  0
   57.3750   33.1290   44.2100 O   0  0  0  0  0  0  0  0  0  0  0  0
   57.9390   31.9870   46.1440 N   0  0  0  0  0  0  0  0  0  0  0  0
   58.3460   33.1980   46.9140 C   0  0  0  0  0  0  0  0  0  0  0  0
   58.8780   34.3950   46.1010 C   0  0  0  0  0  0  0  0  0  0  0  0
   60.3340   34.1890   45.6250 C   0  0  0  0  0  0  0  0  0  0  0  0
   61.2290   33.8870   46.7470 N   0  0  0  0  0  0  0  0  0  0  0  0
   60.7860   32.6740   47.4440 C   0  0  0  0  0  0  0  0  0  0  0  0
   59.3770   32.8530   48.0190 C   0  0  0  0  0  0  0  0  0  0  0  0
   57.9970   30.6350   46.3760 C   0  0  0  0  0  0  0  0  0  0  0  0
   58.5320   29.8940   47.4470 C   0  0  0  0  0  0  0  0  0  0  0  0
   58.4850   28.4900   47.3900 C   0  0  0  0  0  0  0  0  0  0  0  0
   57.9420   27.8230   46.2750 C   0  0  0  0  0  0  0  0  0  0  0  0
   57.9240   26.3900   46.2750 N   0  0  0  0  0  0  0  0  0  0  0  0
   56.4900   25.4140   46.3200 S   0  0  0  0  0  0  0  0  0  0  0  0
   56.3180   24.8470   47.7020 O   0  0  0  0  0  0  0  0  0  0  0  0
   55.2990   26.2720   45.9970 O   0  0  0  0  0  0  0  0  0  0  0  0
   56.6110   24.1310   45.1200 C   0  0  0  0  0  0  0  0  0  0  0  0
   55.6880   24.0810   44.0650 C   0  0  0  0  0  0  0  0  0  0  0  0
   55.7810   23.0770   43.0950 C   0  0  0  0  0  0  0  0  0  0  0  0
   56.7990   22.1220   43.1710 C   0  0  0  0  0  0  0  0  0  0  0  0
   57.7220   22.1690   44.2210 C   0  0  0  0  0  0  0  0  0  0  0  0
   57.6280   23.1690   45.1950 C   0  0  0  0  0  0  0  0  0  0  0  0
   57.4560   28.5770   45.1890 C   0  0  0  0  0  0  0  0  0  0  0  0
   57.4980   29.9680   45.2780 C   0  0  0  0  0  0  0  0  0  0  0  0
   55.7188   30.0156   43.0389 H   0  0  0  0  0  0  0  0  0  0  0  0
   56.5058   31.5161   42.4426 H   0  0  0  0  0  0  0  0  0  0  0  0
   57.4125   29.9655   42.4426 H   0  0  0  0  0  0  0  0  0  0  0  0
   57.3899   33.5325   47.3429 H   0  0  0  0  0  0  0  0  0  0  0  0
   58.2355   34.5357   45.2193 H   0  0  0  0  0  0  0  0  0  0  0  0
   58.8635   35.2772   46.7579 H   0  0  0  0  0  0  0  0  0  0  0  0
   60.3616   33.3529   44.9108 H   0  0  0  0  0  0  0  0  0  0  0  0
   60.6771   35.1205   45.1511 H   0  0  0  0  0  0  0  0  0  0  0  0
   61.2260   34.6930   47.4160 H   0  0  0  0  0  0  0  0  0  0  0  0
   60.7806   31.8334   46.7345 H   0  0  0  0  0  0  0  0  0  0  0  0
   61.4798   32.4742   48.2739 H   0  0  0  0  0  0  0  0  0  0  0  0
   59.0718   31.9182   48.5119 H   0  0  0  0  0  0  0  0  0  0  0  0
   59.4028   33.6867   48.7361 H   0  0  0  0  0  0  0  0  0  0  0  0
   58.9788   30.4045   48.3129 H   0  0  0  0  0  0  0  0  0  0  0  0
   58.8796   27.9019   48.2317 H   0  0  0  0  0  0  0  0  0  0  0  0
   54.8884   24.8336   44.0000 H   0  0  0  0  0  0  0  0  0  0  0  0
   55.0524   23.0391   42.2718 H   0  0  0  0  0  0  0  0  0  0  0  0
   56.8741   21.3348   42.4063 H   0  0  0  0  0  0  0  0  0  0  0  0
   58.5235   21.4181   44.2811 H   0  0  0  0  0  0  0  0  0  0  0  0
   58.3535   23.2004   46.0212 H   0  0  0  0  0  0  0  0  0  0  0  0
   57.0535   28.0811   44.2934 H   0  0  0  0  0  0  0  0  0  0  0  0
  1  2  1  0
  2  3  1  0
  3  4  2  0
  3  5  1  0
  5  6  1  0
  6  7  1  0
  7  8  1  0
  8  9  1  0
  9 10  1  0
 10 11  1  0
  5 12  1  0
 12 13  2  0
 13 14  1  0
 14 15  2  0
 15 16  1  0
 16 17  1  0
 17 18  2  0
 17 19  2  0
 17 20  1  0
 20 21  2  0
 21 22  1  0
 22 23  2  0
 23 24  1  0
 24 25  2  0
 15 26  1  0
 26 27  2  0
 27  2  1  0
 11  6  1  0
 27 12  1  0
 25 20  1  0
  1 28  1  0
  1 29  1  0
  1 30  1  0
  6 31  1  0
  7 32  1  0
  7 33  1  0
  8 34  1  0
  8 35  1  0
  9 36  1  0
 10 37  1  0
 10 38  1  0
 11 39  1  0
 11 40  1  0
 13 41  1  0
 14 42  1  0
 21 43  1  0
 22 44  1  0
 23 45  1  0
 24 46  1  0
 25 47  1  0
 26 48  1  0
M  CHG  1  16  -1
M  END
>  <UniqueID>  (16) 
15

>  <SMILES>  (16) 
Cn1c(=O)n(C2CCNCC2)c2ccc([N-]S(=O)(=O)c3ccccc3)cc21

>  <Energy>  (16) 
106.2837594742335

>  <Genealogy>  (16) 
Cn1c(=O)n(C2CCNCC2)c2ccc([N-]S(=O)(=O)c3ccccc3)cc21 (protonated)
Cn1c(=O)n(C2CCNCC2)c2ccc([N-]S(=O)(=O)c3ccccc3)cc21 (3D coordinates assigned)
Cn1c(=O)n(C2CCNCC2)c2ccc([N-]S(=O)(=O)c3ccccc3)cc21 (nonaromatic ring conformer: 106.2837594742335 kcal/mol)

>  <smiles>  (16) 
Cn1c(=O)n(C2CCNCC2)c2ccc(NS(=O)(=O)c3ccccc3)cc21

>  <score_type>  (16) 
oracle

>  <origin>  (16) 
adg

>  <m_score__min__energy>  (16) 
-10.35

>  <m_primary>  (16) 
energy

$$$$
16:0
     RDKit          3D

 64 67  0  0  0  0  0  0  0  0999 V2000
   55.6310   29.4550   45.1970 O   0  0  0  0  0  0  0  0  0  0  0  0
   56.5800   28.6270   45.1670 C   0  0  0  0  0  0  0  0  0  0  0  0
   57.8130   28.9630   44.3710 C   0  0  0  0  0  0  0  0  0  0  0  0
   58.3670   30.2620   44.8060 N   0  0  0  0  0  0  0  0  0  0  0  0
   57.5480   31.3780   44.2900 C   0  0  0  0  0  0  0  0  0  0  0  0
   58.1330   32.7170   44.7470 C   0  0  0  0  0  0  0  0  0  0  0  0
   58.1810   32.7740   46.2200 N   0  0  0  0  0  0  0  0  0  0  0  0
   58.7240   34.0740   46.6630 C   0  0  0  0  0  0  0  0  0  0  0  0
   60.1760   33.9360   47.0410 C   0  0  0  0  0  0  0  0  0  0  0  0
   60.5450   33.8690   48.3940 C   0  0  0  0  0  0  0  0  0  0  0  0
   61.8890   33.7250   48.7520 C   0  0  0  0  0  0  0  0  0  0  0  0
   62.8760   33.6360   47.7600 C   0  0  0  0  0  0  0  0  0  0  0  0
   64.2180   33.4920   48.1040 O   0  0  0  0  0  0  0  0  0  0  0  0
   62.5100   33.6940   46.4110 C   0  0  0  0  0  0  0  0  0  0  0  0
   61.1670   33.8440   46.0500 C   0  0  0  0  0  0  0  0  0  0  0  0
   59.0000   31.6590   46.7380 C   0  0  0  0  0  0  0  0  0  0  0  0
   58.4160   30.3190   46.2790 C   0  0  0  0  0  0  0  0  0  0  0  0
   56.5020   27.4570   45.9920 N   0  0  0  0  0  0  0  0  0  0  0  0
   57.0290   26.1640   45.6690 C   0  0  0  0  0  0  0  0  0  0  0  0
   56.2050   25.1670   45.1220 C   0  0  0  0  0  0  0  0  0  0  0  0
   56.7220   23.8960   44.8340 C   0  0  0  0  0  0  0  0  0  0  0  0
   55.6820   22.6500   44.1390 S   0  0  0  0  0  0  0  0  0  0  0  0
   56.3370   21.3070   44.3150 O   0  0  0  0  0  0  0  0  0  0  0  0
   55.5230   22.9000   42.6640 O   0  0  0  0  0  0  0  0  0  0  0  0
   54.1100   22.6300   44.9010 N   0  0  0  0  0  0  0  0  0  0  0  0
   54.2490   22.7160   46.3630 C   0  0  0  0  0  0  0  0  0  0  0  0
   52.8940   22.4580   47.0480 C   0  0  0  0  0  0  0  0  0  0  0  0
   51.7010   22.7440   46.1200 C   0  0  0  0  0  0  0  0  0  0  0  0
   51.9870   23.9400   45.2090 C   0  0  0  0  0  0  0  0  0  0  0  0
   53.2790   23.7360   44.3820 C   0  0  0  0  0  0  0  0  0  0  0  0
   58.0650   23.6170   45.1140 C   0  0  0  0  0  0  0  0  0  0  0  0
   58.8810   24.5940   45.6860 C   0  0  0  0  0  0  0  0  0  0  0  0
   58.3660   25.8630   45.9740 C   0  0  0  0  0  0  0  0  0  0  0  0
   59.4190   27.0740   46.6900 Cl  0  0  0  0  0  0  0  0  0  0  0  0
   58.5680   28.1775   44.5228 H   0  0  0  0  0  0  0  0  0  0  0  0
   57.5445   29.0274   43.3062 H   0  0  0  0  0  0  0  0  0  0  0  0
   57.5365   31.3425   43.1906 H   0  0  0  0  0  0  0  0  0  0  0  0
   56.5236   31.2818   44.6790 H   0  0  0  0  0  0  0  0  0  0  0  0
   59.1514   32.8248   44.3456 H   0  0  0  0  0  0  0  0  0  0  0  0
   57.4956   33.5332   44.3762 H   0  0  0  0  0  0  0  0  0  0  0  0
   58.6303   34.8035   45.8451 H   0  0  0  0  0  0  0  0  0  0  0  0
   58.1577   34.4162   47.5418 H   0  0  0  0  0  0  0  0  0  0  0  0
   59.7735   33.9300   49.1757 H   0  0  0  0  0  0  0  0  0  0  0  0
   62.1726   33.6814   49.8139 H   0  0  0  0  0  0  0  0  0  0  0  0
   64.8760   33.0330   47.4860 H   0  0  0  0  0  0  0  0  0  0  0  0
   63.2819   33.6213   45.6307 H   0  0  0  0  0  0  0  0  0  0  0  0
   60.8863   33.8900   44.9874 H   0  0  0  0  0  0  0  0  0  0  0  0
   60.0282   31.7565   46.3595 H   0  0  0  0  0  0  0  0  0  0  0  0
   59.0009   31.6936   47.8375 H   0  0  0  0  0  0  0  0  0  0  0  0
   59.0478   29.5001   46.6534 H   0  0  0  0  0  0  0  0  0  0  0  0
   57.3952   30.2177   46.6761 H   0  0  0  0  0  0  0  0  0  0  0  0
   55.1463   25.3849   44.9180 H   0  0  0  0  0  0  0  0  0  0  0  0
   54.9758   21.9635   46.7027 H   0  0  0  0  0  0  0  0  0  0  0  0
   54.5967   23.7251   46.6293 H   0  0  0  0  0  0  0  0  0  0  0  0
   52.8522   21.4045   47.3618 H   0  0  0  0  0  0  0  0  0  0  0  0
   52.8192   23.1394   47.9083 H   0  0  0  0  0  0  0  0  0  0  0  0
   51.5082   21.8570   45.4987 H   0  0  0  0  0  0  0  0  0  0  0  0
   50.8237   22.9790   46.7406 H   0  0  0  0  0  0  0  0  0  0  0  0
   51.1402   24.0731   44.5196 H   0  0  0  0  0  0  0  0  0  0  0  0
   52.1236   24.8282   45.8433 H   0  0  0  0  0  0  0  0  0  0  0  0
   53.0010   23.5112   43.3417 H   0  0  0  0  0  0  0  0  0  0  0  0
   53.8706   24.6609   44.4496 H   0  0  0  0  0  0  0  0  0  0  0  0
   58.4785   22.6243   44.8824 H   0  0  0  0  0  0  0  0  0  0  0  0
   59.9332   24.3657   45.9114 H   0  0  0  0  0  0  0  0  0  0  0  0
  1  2  2  0
  2  3  1  0
  3  4  1  0
  4  5  1  0
  5  6  1  0
  6  7  1  0
  7  8  1  0
  8  9  1  0
  9 10  2  0
 10 11  1  0
 11 12  2  0
 12 13  1  0
 12 14  1  0
 14 15  2  0
  7 16  1  0
 16 17  1  0
  2 18  1  0
 18 19  1  0
 19 20  2  0
 20 21  1  0
 21 22  1  0
 22 23  2  0
 22 24  2  0
 22 25  1  0
 25 26  1  0
 26 27  1  0
 27 28  1  0
 28 29  1  0
 29 30  1  0
 21 31  2  0
 31 32  1  0
 32 33  2  0
 33 34  1  0
 17  4  1  0
 33 19  1  0
 15  9  1  0
 30 25  1  0
  3 35  1  0
  3 36  1  0
  5 37  1  0
  5 38  1  0
  6 39  1  0
  6 40  1  0
  8 41  1  0
  8 42  1  0
 10 43  1  0
 11 44  1  0
 13 45  1  0
 14 46  1  0
 15 47  1  0
 16 48  1  0
 16 49  1  0
 17 50  1  0
 17 51  1  0
 20 52  1  0
 26 53  1  0
 26 54  1  0
 27 55  1  0
 27 56  1  0
 28 57  1  0
 28 58  1  0
 29 59  1  0
 29 60  1  0
 30 61  1  0
 30 62  1  0
 31 63  1  0
 32 64  1  0
M  CHG  1  18  -1
M  END
>  <UniqueID>  (17) 
16

>  <SMILES>  (17) 
O=C(CN1CCN(Cc2ccc(O)cc2)CC1)[N-]c1cc(S(=O)(=O)N2CCCCC2)ccc1Cl

>  <Energy>  (17) 
73.06567128982398

>  <Genealogy>  (17) 
O=C(CN1CCN(Cc2ccc(O)cc2)CC1)[N-]c1cc(S(=O)(=O)N2CCCCC2)ccc1Cl (protonated)
O=C(CN1CCN(Cc2ccc(O)cc2)CC1)[N-]c1cc(S(=O)(=O)N2CCCCC2)ccc1Cl (3D coordinates assigned)
O=C(CN1CCN(Cc2ccc(O)cc2)CC1)[N-]c1cc(S(=O)(=O)N2CCCCC2)ccc1Cl (nonaromatic ring conformer: 73.06567128982398 kcal/mol)

>  <smiles>  (17) 
O=C(CN1CCN(Cc2ccc(O)cc2)CC1)Nc1cc(S(=O)(=O)N2CCCCC2)ccc1Cl

>  <score_type>  (17) 
oracle

>  <origin>  (17) 
adg

>  <m_score__min__energy>  (17) 
-12.880000000000001

>  <m_primary>  (17) 
energy

$$$$
17:0
     RDKit          3D

 34 35  0  0  0  0  0  0  0  0999 V2000
   58.5943   23.8625   45.7473 H   0  0  0  0  0  0  0  0  0  0  0  0
   58.2300   24.8930   45.8710 C   0  0  0  0  0  0  0  0  0  0  0  0
   56.8560   25.1520   45.8730 C   0  0  0  0  0  0  0  0  0  0  0  0
   56.1406   24.3257   45.7487 H   0  0  0  0  0  0  0  0  0  0  0  0
   56.3910   26.4610   46.0330 C   0  0  0  0  0  0  0  0  0  0  0  0
   55.0250   26.7160   46.0370 O   0  0  0  0  0  0  0  0  0  0  0  0
   57.3010   27.5120   46.1880 C   0  0  0  0  0  0  0  0  0  0  0  0
   56.9324   28.5401   46.3192 H   0  0  0  0  0  0  0  0  0  0  0  0
   58.6840   27.2610   46.1770 C   0  0  0  0  0  0  0  0  0  0  0  0
   59.6630   28.3800   46.4020 C   0  0  0  0  0  0  0  0  0  0  0  0
   60.0067   28.7663   45.4311 H   0  0  0  0  0  0  0  0  0  0  0  0
   60.5235   28.0027   46.9741 H   0  0  0  0  0  0  0  0  0  0  0  0
   59.0010   29.4800   47.1690 C   0  0  0  0  0  0  0  0  0  0  0  0
   58.4040   29.2170   48.2480 O   0  0  0  0  0  0  0  0  0  0  0  0
   59.0120   30.8180   46.6520 N   0  0  0  0  0  0  0  0  0  0  0  0
   59.6800   31.0510   45.8830 H   0  0  0  0  0  0  0  0  0  0  0  0
   58.1390   31.8740   47.1570 C   0  0  0  0  0  0  0  0  0  0  0  0
   58.6396   32.3837   47.9935 H   0  0  0  0  0  0  0  0  0  0  0  0
   57.1958   31.4161   47.4896 H   0  0  0  0  0  0  0  0  0  0  0  0
   57.8260   32.8830   46.0840 C   0  0  0  0  0  0  0  0  0  0  0  0
   58.2060   34.0750   46.2250 O   0  0  0  0  0  0  0  0  0  0  0  0
   57.2280   32.4900   44.8420 N   0  0  0  0  0  0  0  0  0  0  0  0
   56.9900   31.2710   44.4610 C   0  0  0  0  0  0  0  0  0  0  0  0
   55.8650   30.6110   44.7940 N   0  0  0  0  0  0  0  0  0  0  0  0
   55.9780   29.4120   44.3010 O   0  0  0  0  0  0  0  0  0  0  0  0
   57.1210   29.2660   43.6700 C   0  0  0  0  0  0  0  0  0  0  0  0
   57.5750   28.0020   43.0240 C   0  0  0  0  0  0  0  0  0  0  0  0
   57.8387   27.2680   43.7997 H   0  0  0  0  0  0  0  0  0  0  0  0
   56.7654   27.5990   42.3978 H   0  0  0  0  0  0  0  0  0  0  0  0
   58.4560   28.2062   42.3978 H   0  0  0  0  0  0  0  0  0  0  0  0
   57.8350   30.4420   43.7450 C   0  0  0  0  0  0  0  0  0  0  0  0
   58.8313   30.6664   43.3363 H   0  0  0  0  0  0  0  0  0  0  0  0
   59.1420   25.9420   46.0260 C   0  0  0  0  0  0  0  0  0  0  0  0
   60.2220   25.7331   46.0297 H   0  0  0  0  0  0  0  0  0  0  0  0
  1  2  1  0
  2  3  2  0
  3  4  1  0
  3  5  1  0
  5  6  1  0
  5  7  2  0
  7  8  1  0
  7  9  1  0
  9 10  1  0
 10 11  1  0
 10 12  1  0
 10 13  1  0
 13 14  2  0
 13 15  1  0
 15 16  1  0
 15 17  1  0
 17 18  1  0
 17 19  1  0
 17 20  1  0
 20 21  2  0
 20 22  1  0
 22 23  2  0
 23 24  1  0
 24 25  1  0
 25 26  1  0
 26 27  1  0
 27 28  1  0
 27 29  1  0
 27 30  1  0
 26 31  2  0
 31 32  1  0
  9 33  2  0
 33 34  1  0
 33  2  1  0
 31 23  1  0
M  CHG  2   6  -1  24  -1
M  END
>  <UniqueID>  (18) 
17

>  <SMILES>  (18) 
Cc1c/c(=N\C(=O)CNC(=O)Cc2cccc([O-])c2)[n-]o1

>  <Energy>  (18) 
65.24764651283303

>  <Genealogy>  (18) 
Cc1cc(=NC(=O)CNC(=O)Cc2cccc([O-])c2)[n-]o1 (protonated)
Cc1c/c(=N\C(=O)CNC(=O)Cc2cccc([O-])c2)[n-]o1 (cis-trans isomerization)
Cc1c/c(=N\C(=O)CNC(=O)Cc2cccc([O-])c2)[n-]o1 (3D coordinates assigned)
Cc1c/c(=N\C(=O)CNC(=O)Cc2cccc([O-])c2)[n-]o1 (optimized conformer: 65.24764651283303 kcal/mol)

>  <smiles>  (18) 
Cc1cc(=NC(=O)CNC(=O)Cc2cccc(O)c2)[nH]o1

>  <score_type>  (18) 
oracle

>  <origin>  (18) 
adg

>  <m_score__min__energy>  (18) 
-12.369999999999999

>  <m_primary>  (18) 
energy

$$$$
18:0
     RDKit          3D

 65 69  0  0  0  0  0  0  0  0999 V2000
   57.1120   30.4990   44.8320 O   0  0  0  0  0  0  0  0  0  0  0  0
   57.7750   30.1560   45.8510 C   0  0  0  0  0  0  0  0  0  0  0  0
   58.2210   31.1550   46.7750 N   0  0  0  0  0  0  0  0  0  0  0  0
   58.5120   32.5050   46.3790 C   0  0  0  0  0  0  0  0  0  0  0  0
   57.8140   33.0850   45.3020 C   0  0  0  0  0  0  0  0  0  0  0  0
   58.1320   34.3710   44.8610 C   0  0  0  0  0  0  0  0  0  0  0  0
   59.1560   35.0890   45.4780 C   0  0  0  0  0  0  0  0  0  0  0  0
   59.8660   34.5230   46.5390 C   0  0  0  0  0  0  0  0  0  0  0  0
   59.5500   33.2360   47.0050 C   0  0  0  0  0  0  0  0  0  0  0  0
   60.2730   32.7020   48.1760 C   0  0  0  0  0  0  0  0  0  0  0  0
   59.6800   31.9540   48.9980 O   0  0  0  0  0  0  0  0  0  0  0  0
   61.6440   33.0440   48.3990 N   0  0  0  0  0  0  0  0  0  0  0  0
   62.6670   32.4930   47.5080 C   0  0  0  0  0  0  0  0  0  0  0  0
   63.9850   33.2720   47.6350 C   0  0  0  0  0  0  0  0  0  0  0  0
   64.3760   33.4770   49.0450 N   0  0  0  0  0  0  0  0  0  0  0  0
   64.8500   32.2440   49.6970 C   0  0  0  0  0  0  0  0  0  0  0  0
   63.8960   31.9130   50.8300 C   0  0  0  0  0  0  0  0  0  0  0  0
   63.2520   33.2290   51.1880 C   0  0  0  0  0  0  0  0  0  0  0  0
   63.3280   34.0730   49.9090 C   0  0  2  0  0  0  0  0  0  0  0  0
   61.9460   34.2140   49.2220 C   0  0  0  0  0  0  0  0  0  0  0  0
   58.0320   28.7220   46.1050 C   0  0  0  0  0  0  0  0  0  0  0  0
   59.2670   28.3040   46.6250 C   0  0  0  0  0  0  0  0  0  0  0  0
   59.4990   26.9510   46.8910 C   0  0  0  0  0  0  0  0  0  0  0  0
   58.4950   26.0090   46.6580 C   0  0  0  0  0  0  0  0  0  0  0  0
   57.2530   26.4140   46.1530 C   0  0  0  0  0  0  0  0  0  0  0  0
   55.9460   25.2480   45.9500 S   0  0  0  0  0  0  0  0  0  0  0  0
   55.9070   24.3480   47.1540 O   0  0  0  0  0  0  0  0  0  0  0  0
   54.6330   25.9750   45.8510 O   0  0  0  0  0  0  0  0  0  0  0  0
   56.2440   24.3110   44.4980 N   0  0  0  0  0  0  0  0  0  0  0  0
   55.6080   22.9750   44.5640 C   0  0  0  0  0  0  0  0  0  0  0  0
   56.6010   21.8600   44.9410 C   0  0  0  0  0  0  0  0  0  0  0  0
   57.5840   22.3580   45.8210 O   0  0  0  0  0  0  0  0  0  0  0  0
   58.4330   23.2700   45.1460 C   0  0  0  0  0  0  0  0  0  0  0  0
   57.6830   24.2300   44.1900 C   0  0  0  0  0  0  0  0  0  0  0  0
   57.0280   27.7690   45.8700 C   0  0  0  0  0  0  0  0  0  0  0  0
   58.3590   30.8850   47.7750 H   0  0  0  0  0  0  0  0  0  0  0  0
   57.0119   32.5203   44.8043 H   0  0  0  0  0  0  0  0  0  0  0  0
   57.5739   34.8186   44.0254 H   0  0  0  0  0  0  0  0  0  0  0  0
   59.4046   36.1020   45.1287 H   0  0  0  0  0  0  0  0  0  0  0  0
   60.6801   35.0901   47.0141 H   0  0  0  0  0  0  0  0  0  0  0  0
   62.8446   31.4400   47.7719 H   0  0  0  0  0  0  0  0  0  0  0  0
   62.3097   32.5753   46.4709 H   0  0  0  0  0  0  0  0  0  0  0  0
   64.7803   32.7090   47.1247 H   0  0  0  0  0  0  0  0  0  0  0  0
   63.8392   34.2613   47.1767 H   0  0  0  0  0  0  0  0  0  0  0  0
   64.8648   31.4194   48.9691 H   0  0  0  0  0  0  0  0  0  0  0  0
   65.8690   32.3862   50.0861 H   0  0  0  0  0  0  0  0  0  0  0  0
   63.1379   31.1879   50.4990 H   0  0  0  0  0  0  0  0  0  0  0  0
   64.4120   31.4563   51.6874 H   0  0  0  0  0  0  0  0  0  0  0  0
   62.2048   33.0772   51.4887 H   0  0  0  0  0  0  0  0  0  0  0  0
   63.7566   33.7177   52.0345 H   0  0  0  0  0  0  0  0  0  0  0  0
   63.6109   35.1105   50.1406 H   0  0  0  0  0  0  0  0  0  0  0  0
   61.1701   34.3194   49.9946 H   0  0  0  0  0  0  0  0  0  0  0  0
   61.9685   35.1012   48.5721 H   0  0  0  0  0  0  0  0  0  0  0  0
   60.0559   29.0442   46.8242 H   0  0  0  0  0  0  0  0  0  0  0  0
   60.4742   26.6282   47.2845 H   0  0  0  0  0  0  0  0  0  0  0  0
   58.6800   24.9459   46.8717 H   0  0  0  0  0  0  0  0  0  0  0  0
   54.8081   23.0033   45.3186 H   0  0  0  0  0  0  0  0  0  0  0  0
   55.2158   22.7448   43.5624 H   0  0  0  0  0  0  0  0  0  0  0  0
   56.0566   21.0397   45.4316 H   0  0  0  0  0  0  0  0  0  0  0  0
   57.0912   21.4930   44.0272 H   0  0  0  0  0  0  0  0  0  0  0  0
   58.9625   23.8731   45.8983 H   0  0  0  0  0  0  0  0  0  0  0  0
   59.1189   22.6724   44.5276 H   0  0  0  0  0  0  0  0  0  0  0  0
   58.1218   25.2346   44.2809 H   0  0  0  0  0  0  0  0  0  0  0  0
   57.7878   23.8382   43.1675 H   0  0  0  0  0  0  0  0  0  0  0  0
   56.0579   28.0875   45.4609 H   0  0  0  0  0  0  0  0  0  0  0  0
  1  2  2  0
  2  3  1  0
  3  4  1  0
  4  5  2  0
  5  6  1  0
  6  7  2  0
  7  8  1  0
  8  9  2  0
  9 10  1  0
 10 11  2  0
 10 12  1  0
 12 13  1  0
 13 14  1  0
 14 15  1  0
 15 16  1  0
 16 17  1  0
 17 18  1  0
 18 19  1  0
 19 20  1  0
  2 21  1  0
 21 22  2  0
 22 23  1  0
 23 24  2  0
 24 25  1  0
 25 26  1  0
 26 27  2  0
 26 28  2  0
 26 29  1  0
 29 30  1  0
 30 31  1  0
 31 32  1  0
 32 33  1  0
 33 34  1  0
 25 35  2  0
  9  4  1  0
 20 12  1  0
 35 21  1  0
 19 15  1  0
 34 29  1  0
  3 36  1  0
  5 37  1  0
  6 38  1  0
  7 39  1  0
  8 40  1  0
 13 41  1  0
 13 42  1  0
 14 43  1  0
 14 44  1  0
 16 45  1  0
 16 46  1  0
 17 47  1  0
 17 48  1  0
 18 49  1  0
 18 50  1  0
 19 51  1  1
 20 52  1  0
 20 53  1  0
 22 54  1  0
 23 55  1  0
 24 56  1  0
 30 57  1  0
 30 58  1  0
 31 59  1  0
 31 60  1  0
 33 61  1  0
 33 62  1  0
 34 63  1  0
 34 64  1  0
 35 65  1  0
M  END
>  <UniqueID>  (19) 
18

>  <SMILES>  (19) 
O=C(Nc1ccccc1C(=O)N1CCN2CCC[C@@H]2C1)c1cccc(S(=O)(=O)N2CCOCC2)c1

>  <Energy>  (19) 
103.59007628511714

>  <Genealogy>  (19) 
O=C(Nc1ccccc1C(=O)N1CCN2CCC[C@@H]2C1)c1cccc(S(=O)(=O)N2CCOCC2)c1 (chirality)
O=C(Nc1ccccc1C(=O)N1CCN2CCC[C@@H]2C1)c1cccc(S(=O)(=O)N2CCOCC2)c1 (3D coordinates assigned)
O=C(Nc1ccccc1C(=O)N1CCN2CCC[C@@H]2C1)c1cccc(S(=O)(=O)N2CCOCC2)c1 (nonaromatic ring conformer: 103.59007628511714 kcal/mol)

>  <smiles>  (19) 
O=C(Nc1ccccc1C(=O)N1CCN2CCCC2C1)c1cccc(S(=O)(=O)N2CCOCC2)c1

>  <score_type>  (19) 
oracle

>  <origin>  (19) 
adg

>  <m_score__min__energy>  (19) 
-11.02

>  <m_primary>  (19) 
energy

$$$$
19:0
     RDKit          3D

 58 61  0  0  0  0  0  0  0  0999 V2000
   54.2260   28.1420   53.4850 C   0  0  0  0  0  0  0  0  0  0  0  0
   54.6880   29.2050   52.8080 C   0  0  0  0  0  0  0  0  0  0  0  0
   53.9260   30.2490   52.2580 C   0  0  0  0  0  0  0  0  0  0  0  0
   52.5970   30.3770   52.0790 C   0  0  0  0  0  0  0  0  0  0  0  0
   51.9360   30.8270   50.8440 C   0  0  0  0  0  0  0  0  0  0  0  0
   51.8070   30.0600   49.7490 N   0  0  0  0  0  0  0  0  0  0  0  0
   51.0420   30.8120   48.9280 C   0  0  0  0  0  0  0  0  0  0  0  0
   50.7090   30.4330   47.7760 O   0  0  0  0  0  0  0  0  0  0  0  0
   50.6530   31.9970   49.4450 N   0  0  0  0  0  0  0  0  0  0  0  0
   51.2130   31.9850   50.6650 C   0  0  0  0  0  0  0  0  0  0  0  0
   51.0450   32.9980   51.6000 O   0  0  0  0  0  0  0  0  0  0  0  0
   54.8270   31.2320   51.8920 C   0  0  0  0  0  0  0  0  0  0  0  0
   56.0900   30.7440   52.1600 C   0  0  0  0  0  0  0  0  0  0  0  0
   57.3340   31.5230   51.9700 C   0  0  0  0  0  0  0  0  0  0  0  0
   57.6180   32.4390   52.7880 O   0  0  0  0  0  0  0  0  0  0  0  0
   58.1860   31.2990   50.8320 N   0  0  0  0  0  0  0  0  0  0  0  0
   58.8460   32.4390   50.1840 C   0  0  0  0  0  0  0  0  0  0  0  0
   59.9450   31.9690   49.2180 C   0  0  0  0  0  0  0  0  0  0  0  0
   59.4800   30.9280   48.2650 N   0  0  0  0  0  0  0  0  0  0  0  0
   59.0030   31.5040   46.9910 C   0  0  0  0  0  0  0  0  0  0  0  0
   58.6330   30.4090   46.0120 C   0  0  0  0  0  0  0  0  0  0  0  0
   57.4590   30.5440   45.2500 C   0  0  0  0  0  0  0  0  0  0  0  0
   57.0820   29.5590   44.3290 C   0  0  0  0  0  0  0  0  0  0  0  0
   55.8500   29.7380   43.4910 C   0  0  0  0  0  0  0  0  0  0  0  0
   57.9030   28.4420   44.1420 C   0  0  0  0  0  0  0  0  0  0  0  0
   59.0700   28.2910   44.8900 C   0  0  0  0  0  0  0  0  0  0  0  0
   59.4460   29.2600   45.8360 C   0  0  0  0  0  0  0  0  0  0  0  0
   60.7210   29.0660   46.6160 C   0  0  0  0  0  0  0  0  0  0  0  0
   58.4960   29.9620   48.8230 C   0  0  0  0  0  0  0  0  0  0  0  0
   58.4810   29.9450   50.3520 C   0  0  0  0  0  0  0  0  0  0  0  0
   56.0100   29.5010   52.6940 N   0  0  0  0  0  0  0  0  0  0  0  0
   57.1400   28.6730   53.1320 C   0  0  0  0  0  0  0  0  0  0  0  0
   54.9278   27.3868   53.8686 H   0  0  0  0  0  0  0  0  0  0  0  0
   53.1456   28.0261   53.6562 H   0  0  0  0  0  0  0  0  0  0  0  0
   51.9492   30.1228   52.9309 H   0  0  0  0  0  0  0  0  0  0  0  0
   54.5832   32.2170   51.4674 H   0  0  0  0  0  0  0  0  0  0  0  0
   58.0966   33.0154   49.6218 H   0  0  0  0  0  0  0  0  0  0  0  0
   59.3099   33.0619   50.9630 H   0  0  0  0  0  0  0  0  0  0  0  0
   60.2993   32.8369   48.6424 H   0  0  0  0  0  0  0  0  0  0  0  0
   60.7455   31.5220   49.8258 H   0  0  0  0  0  0  0  0  0  0  0  0
   58.1182   32.1278   47.1859 H   0  0  0  0  0  0  0  0  0  0  0  0
   59.8098   32.1106   46.5538 H   0  0  0  0  0  0  0  0  0  0  0  0
   56.8280   31.4357   45.3792 H   0  0  0  0  0  0  0  0  0  0  0  0
   54.9759   29.8650   44.1466 H   0  0  0  0  0  0  0  0  0  0  0  0
   55.9647   30.6289   42.8561 H   0  0  0  0  0  0  0  0  0  0  0  0
   55.7064   28.8513   42.8561 H   0  0  0  0  0  0  0  0  0  0  0  0
   57.6263   27.6782   43.4004 H   0  0  0  0  0  0  0  0  0  0  0  0
   59.7029   27.4043   44.7381 H   0  0  0  0  0  0  0  0  0  0  0  0
   60.5006   29.0995   47.6932 H   0  0  0  0  0  0  0  0  0  0  0  0
   61.1614   28.0905   46.3621 H   0  0  0  0  0  0  0  0  0  0  0  0
   61.4316   29.8664   46.3621 H   0  0  0  0  0  0  0  0  0  0  0  0
   57.4927   30.2366   48.4651 H   0  0  0  0  0  0  0  0  0  0  0  0
   58.7905   28.9577   48.4844 H   0  0  0  0  0  0  0  0  0  0  0  0
   57.7068   29.2490   50.7073 H   0  0  0  0  0  0  0  0  0  0  0  0
   59.4586   29.6156   50.7338 H   0  0  0  0  0  0  0  0  0  0  0  0
   57.1726   28.6491   54.2313 H   0  0  0  0  0  0  0  0  0  0  0  0
   57.0163   27.6502   52.7465 H   0  0  0  0  0  0  0  0  0  0  0  0
   58.0780   29.0992   52.7465 H   0  0  0  0  0  0  0  0  0  0  0  0
  1  2  2  0
  2  3  1  0
  3  4  2  3
  4  5  1  0
  5  6  1  0
  6  7  1  0
  7  8  2  0
  7  9  1  0
  9 10  1  0
 10 11  1  0
  3 12  1  0
 12 13  2  0
 13 14  1  0
 14 15  2  0
 14 16  1  0
 16 17  1  0
 17 18  1  0
 18 19  1  0
 19 20  1  0
 20 21  1  0
 21 22  2  0
 22 23  1  0
 23 24  1  0
 23 25  2  0
 25 26  1  0
 26 27  2  0
 27 28  1  0
 19 29  1  0
 29 30  1  0
 13 31  1  0
 31 32  1  0
 31  2  1  0
 10  5  2  0
 30 16  1  0
 27 21  1  0
  1 33  1  0
  1 34  1  0
  4 35  1  0
 12 36  1  0
 17 37  1  0
 17 38  1  0
 18 39  1  0
 18 40  1  0
 20 41  1  0
 20 42  1  0
 22 43  1  0
 24 44  1  0
 24 45  1  0
 24 46  1  0
 25 47  1  0
 26 48  1  0
 28 49  1  0
 28 50  1  0
 28 51  1  0
 29 52  1  0
 29 53  1  0
 30 54  1  0
 30 55  1  0
 32 56  1  0
 32 57  1  0
 32 58  1  0
M  CHG  3   6  -1   9  -1  11  -1
M  END
>  <UniqueID>  (20) 
19

>  <SMILES>  (20) 
C=c1c(=Cc2[n-]c(=O)[n-]c2[O-])cc(C(=O)N2CCN(Cc3cc(C)ccc3C)CC2)n1C

>  <Energy>  (20) 
144.2126468575226

>  <Genealogy>  (20) 
C=c1c(=Cc2[n-]c(=O)[n-]c2[O-])cc(C(=O)N2CCN(Cc3cc(C)ccc3C)CC2)n1C (protonated)
C=c1c(=Cc2[n-]c(=O)[n-]c2[O-])cc(C(=O)N2CCN(Cc3cc(C)ccc3C)CC2)n1C (3D coordinates assigned)
C=c1c(=Cc2[n-]c(=O)[n-]c2[O-])cc(C(=O)N2CCN(Cc3cc(C)ccc3C)CC2)n1C (nonaromatic ring conformer: 144.2126468575226 kcal/mol)

>  <smiles>  (20) 
C=c1c(=Cc2[nH]c(=O)[nH]c2O)cc(C(=O)N2CCN(Cc3cc(C)ccc3C)CC2)n1C

>  <score_type>  (20) 
oracle

>  <origin>  (20) 
adg

>  <m_score__min__energy>  (20) 
-18.920000000000002

>  <m_primary>  (20) 
energy

$$$$
20:0
     RDKit          3D

 55 58  0  0  0  0  0  0  0  0999 V2000
   60.3740   26.8200   47.2790 C   0  0  0  0  0  0  0  0  0  0  0  0
   58.9510   26.7560   46.8100 C   0  0  0  0  0  0  0  0  0  0  0  0
   58.1900   25.5960   47.0130 C   0  0  0  0  0  0  0  0  0  0  0  0
   56.8520   25.5580   46.6180 C   0  0  0  0  0  0  0  0  0  0  0  0
   56.2600   26.6760   46.0250 C   0  0  0  0  0  0  0  0  0  0  0  0
   57.0080   27.8490   45.8130 C   0  0  0  0  0  0  0  0  0  0  0  0
   56.4220   29.0340   45.2430 N   0  0  0  0  0  0  0  0  0  0  0  0
   56.6070   29.4610   43.8540 C   0  0  0  0  0  0  0  0  0  0  0  0
   57.2870   30.7950   43.8200 C   0  0  0  0  0  0  0  0  0  0  0  0
   57.3440   31.6560   42.7390 C   0  0  0  0  0  0  0  0  0  0  0  0
   58.0420   32.7520   43.0990 N   0  0  0  0  0  0  0  0  0  0  0  0
   58.3960   32.5410   44.3810 C   0  0  0  0  0  0  0  0  0  0  0  0
   57.9720   31.3520   44.8410 N   0  0  0  0  0  0  0  0  0  0  0  0
   58.1300   30.8780   46.2130 C   0  0  0  0  0  0  0  0  0  0  0  0
   59.3290   31.5680   46.8690 C   0  0  0  0  0  0  0  0  0  0  0  0
   59.2990   33.0160   46.6040 N   0  0  0  0  0  0  0  0  0  0  0  0
   59.7060   33.9350   47.6360 C   0  0  0  0  0  0  0  0  0  0  0  0
   59.0480   34.9930   47.8370 O   0  0  0  0  0  0  0  0  0  0  0  0
   60.9090   33.6730   48.4590 C   0  0  0  0  0  0  0  0  0  0  0  0
   62.1890   33.6220   47.8510 C   0  0  0  0  0  0  0  0  0  0  0  0
   62.3670   33.8330   46.3700 C   0  0  0  0  0  0  0  0  0  0  0  0
   63.3180   33.3590   48.6410 C   0  0  0  0  0  0  0  0  0  0  0  0
   63.1940   33.1750   50.0170 C   0  0  0  0  0  0  0  0  0  0  0  0
   61.9420   33.2400   50.6230 C   0  0  0  0  0  0  0  0  0  0  0  0
   60.7890   33.4730   49.8570 C   0  0  0  0  0  0  0  0  0  0  0  0
   59.4500   33.5160   50.5460 C   0  0  0  0  0  0  0  0  0  0  0  0
   59.1980   33.4950   45.2120 C   0  0  0  0  0  0  0  0  0  0  0  0
   58.3500   27.8820   46.2290 C   0  0  0  0  0  0  0  0  0  0  0  0
   60.3979   26.8211   48.3787 H   0  0  0  0  0  0  0  0  0  0  0  0
   60.9243   25.9457   46.9011 H   0  0  0  0  0  0  0  0  0  0  0  0
   60.8436   27.7402   46.9011 H   0  0  0  0  0  0  0  0  0  0  0  0
   58.6484   24.7142   47.4845 H   0  0  0  0  0  0  0  0  0  0  0  0
   56.2608   24.6436   46.7743 H   0  0  0  0  0  0  0  0  0  0  0  0
   55.2032   26.6391   45.7221 H   0  0  0  0  0  0  0  0  0  0  0  0
   56.0580   29.7590   45.9030 H   0  0  0  0  0  0  0  0  0  0  0  0
   57.2258   28.7220   43.3240 H   0  0  0  0  0  0  0  0  0  0  0  0
   55.6251   29.5411   43.3647 H   0  0  0  0  0  0  0  0  0  0  0  0
   56.8950   31.4766   41.7509 H   0  0  0  0  0  0  0  0  0  0  0  0
   58.2560   33.5860   42.5090 H   0  0  0  0  0  0  0  0  0  0  0  0
   57.2191   31.1079   46.7853 H   0  0  0  0  0  0  0  0  0  0  0  0
   58.2991   29.7911   46.2030 H   0  0  0  0  0  0  0  0  0  0  0  0
   59.2948   31.3980   47.9552 H   0  0  0  0  0  0  0  0  0  0  0  0
   60.2548   31.1484   46.4485 H   0  0  0  0  0  0  0  0  0  0  0  0
   63.0677   34.6636   46.1996 H   0  0  0  0  0  0  0  0  0  0  0  0
   62.7681   32.9156   45.9145 H   0  0  0  0  0  0  0  0  0  0  0  0
   61.3951   34.0739   45.9145 H   0  0  0  0  0  0  0  0  0  0  0  0
   64.3102   33.2974   48.1702 H   0  0  0  0  0  0  0  0  0  0  0  0
   64.0883   32.9777   50.6264 H   0  0  0  0  0  0  0  0  0  0  0  0
   61.8557   33.1076   51.7116 H   0  0  0  0  0  0  0  0  0  0  0  0
   59.5982   33.5112   51.6360 H   0  0  0  0  0  0  0  0  0  0  0  0
   58.9159   34.4318   50.2526 H   0  0  0  0  0  0  0  0  0  0  0  0
   58.8582   32.6364   50.2526 H   0  0  0  0  0  0  0  0  0  0  0  0
   58.7091   34.4803   45.2037 H   0  0  0  0  0  0  0  0  0  0  0  0
   60.2106   33.5680   44.7886 H   0  0  0  0  0  0  0  0  0  0  0  0
   58.9367   28.8031   46.0971 H   0  0  0  0  0  0  0  0  0  0  0  0
  1  2  1  0
  2  3  2  0
  3  4  1  0
  4  5  2  0
  5  6  1  0
  6  7  1  0
  7  8  1  0
  8  9  1  0
  9 10  2  0
 10 11  1  0
 11 12  2  0
 12 13  1  0
 13 14  1  0
 14 15  1  0
 15 16  1  0
 16 17  1  0
 17 18  2  0
 17 19  1  0
 19 20  2  0
 20 21  1  0
 20 22  1  0
 22 23  2  0
 23 24  1  0
 24 25  2  0
 25 26  1  0
 16 27  1  0
  6 28  2  0
 28  2  1  0
 13  9  1  0
 25 19  1  0
 27 12  1  0
  1 29  1  0
  1 30  1  0
  1 31  1  0
  3 32  1  0
  4 33  1  0
  5 34  1  0
  7 35  1  0
  8 36  1  0
  8 37  1  0
 10 38  1  0
 11 39  1  0
 14 40  1  0
 14 41  1  0
 15 42  1  0
 15 43  1  0
 21 44  1  0
 21 45  1  0
 21 46  1  0
 22 47  1  0
 23 48  1  0
 24 49  1  0
 26 50  1  0
 26 51  1  0
 26 52  1  0
 27 53  1  0
 27 54  1  0
 28 55  1  0
M  CHG  1  11   1
M  END
>  <UniqueID>  (21) 
20

>  <SMILES>  (21) 
Cc1cccc(NCc2c[nH+]c3n2CCN(C(=O)c2c(C)cccc2C)C3)c1

>  <Energy>  (21) 
97.75848773653979

>  <Genealogy>  (21) 
Cc1cccc(NCc2c[nH+]c3n2CCN(C(=O)c2c(C)cccc2C)C3)c1 (protonated)
Cc1cccc(NCc2c[nH+]c3n2CCN(C(=O)c2c(C)cccc2C)C3)c1 (3D coordinates assigned)
Cc1cccc(NCc2c[nH+]c3n2CCN(C(=O)c2c(C)cccc2C)C3)c1 (nonaromatic ring conformer: 97.75848773653979 kcal/mol)

>  <smiles>  (21) 
Cc1cccc(NCc2cnc3n2CCN(C(=O)c2c(C)cccc2C)C3)c1

>  <score_type>  (21) 
oracle

>  <origin>  (21) 
adg

>  <m_score__min__energy>  (21) 
-6.8799999999999999

>  <m_primary>  (21) 
energy

$$$$
21:0
     RDKit          3D

 44 47  0  0  0  0  0  0  0  0999 V2000
   58.3680   29.8000   50.0010 O   0  0  0  0  0  0  0  0  0  0  0  0
   59.0280   30.2400   49.0210 C   0  0  0  0  0  0  0  0  0  0  0  0
   59.4680   29.2760   47.9580 C   0  0  0  0  0  0  0  0  0  0  0  0
   58.6830   29.4180   46.7270 N   0  0  0  0  0  0  0  0  0  0  0  0
   57.6530   28.5790   46.5310 N   0  0  0  0  0  0  0  0  0  0  0  0
   56.8500   28.6580   45.4350 C   0  0  0  0  0  0  0  0  0  0  0  0
   55.8910   27.8560   45.2870 O   0  0  0  0  0  0  0  0  0  0  0  0
   57.1200   29.6400   44.4960 C   0  0  0  0  0  0  0  0  0  0  0  0
   56.3300   29.9850   43.0550 S   0  0  0  0  0  0  0  0  0  0  0  0
   57.3520   31.2630   42.6260 C   0  0  0  0  0  0  0  0  0  0  0  0
   58.3210   31.4240   43.6150 C   0  0  0  0  0  0  0  0  0  0  0  0
   58.1810   30.5040   44.6630 C   0  0  0  0  0  0  0  0  0  0  0  0
   58.9810   30.3930   45.8020 C   0  0  0  0  0  0  0  0  0  0  0  0
   59.9570   31.1750   45.9750 O   0  0  0  0  0  0  0  0  0  0  0  0
   59.3510   31.6340   48.9350 N   0  0  0  0  0  0  0  0  0  0  0  0
   58.3470   32.6900   48.8370 C   0  0  0  0  0  0  0  0  0  0  0  0
   58.4370   33.3680   47.4890 C   0  0  0  0  0  0  0  0  0  0  0  0
   57.3800   33.1760   46.5800 C   0  0  0  0  0  0  0  0  0  0  0  0
   57.3740   33.8220   45.3440 C   0  0  0  0  0  0  0  0  0  0  0  0
   58.4190   34.6730   44.9950 C   0  0  0  0  0  0  0  0  0  0  0  0
   59.4820   34.8730   45.8760 C   0  0  0  0  0  0  0  0  0  0  0  0
   59.5150   34.2230   47.1240 C   0  0  0  0  0  0  0  0  0  0  0  0
   60.7050   34.4650   48.0260 C   0  0  0  0  0  0  0  0  0  0  0  0
   61.7620   33.4890   47.7710 N   0  0  0  0  0  0  0  0  0  0  0  0
   63.0270   33.7670   47.4020 C   0  0  0  0  0  0  0  0  0  0  0  0
   63.6800   32.5760   47.1500 C   0  0  0  0  0  0  0  0  0  0  0  0
   62.7370   31.5930   47.3860 C   0  0  0  0  0  0  0  0  0  0  0  0
   61.5840   32.1780   47.7550 N   0  0  0  0  0  0  0  0  0  0  0  0
   60.5273   29.4617   47.7269 H   0  0  0  0  0  0  0  0  0  0  0  0
   59.3167   28.2561   48.3412 H   0  0  0  0  0  0  0  0  0  0  0  0
   57.2657   31.8699   41.7126 H   0  0  0  0  0  0  0  0  0  0  0  0
   59.1097   32.1898   43.5771 H   0  0  0  0  0  0  0  0  0  0  0  0
   57.3452   32.2521   48.9579 H   0  0  0  0  0  0  0  0  0  0  0  0
   58.5280   33.4336   49.6271 H   0  0  0  0  0  0  0  0  0  0  0  0
   56.5481   32.5080   46.8477 H   0  0  0  0  0  0  0  0  0  0  0  0
   56.5418   33.6588   44.6434 H   0  0  0  0  0  0  0  0  0  0  0  0
   58.4065   35.1884   44.0233 H   0  0  0  0  0  0  0  0  0  0  0  0
   60.3040   35.5466   45.5920 H   0  0  0  0  0  0  0  0  0  0  0  0
   61.0968   35.4761   47.8412 H   0  0  0  0  0  0  0  0  0  0  0  0
   60.3788   34.3634   49.0716 H   0  0  0  0  0  0  0  0  0  0  0  0
   63.4659   34.7720   47.3159 H   0  0  0  0  0  0  0  0  0  0  0  0
   64.7238   32.4394   46.8308 H   0  0  0  0  0  0  0  0  0  0  0  0
   62.9028   30.5100   47.2880 H   0  0  0  0  0  0  0  0  0  0  0  0
   60.6870   31.6890   47.9720 H   0  0  0  0  0  0  0  0  0  0  0  0
  1  2  2  0
  2  3  1  0
  3  4  1  0
  4  5  1  0
  5  6  1  0
  6  7  2  0
  6  8  1  0
  8  9  1  0
  9 10  1  0
 10 11  2  0
 11 12  1  0
 12 13  1  0
 13 14  2  0
  2 15  1  0
 15 16  1  0
 16 17  1  0
 17 18  2  0
 18 19  1  0
 19 20  2  0
 20 21  1  0
 21 22  2  0
 22 23  1  0
 23 24  1  0
 24 25  1  0
 25 26  2  0
 26 27  1  0
 27 28  2  0
 13  4  1  0
 22 17  1  0
 28 24  1  0
 12  8  2  0
  3 29  1  0
  3 30  1  0
 10 31  1  0
 11 32  1  0
 16 33  1  0
 16 34  1  0
 18 35  1  0
 19 36  1  0
 20 37  1  0
 21 38  1  0
 23 39  1  0
 23 40  1  0
 25 41  1  0
 26 42  1  0
 27 43  1  0
 28 44  1  0
M  CHG  3   5  -1  15  -1  28   1
M  END
>  <UniqueID>  (22) 
21

>  <SMILES>  (22) 
O=C(Cn1[n-]c(=O)c2sccc2c1=O)[N-]Cc1ccccc1Cn1ccc[nH+]1

>  <Energy>  (22) 
108.04906810127369

>  <Genealogy>  (22) 
O=C(Cn1[n-]c(=O)c2sccc2c1=O)[N-]Cc1ccccc1Cn1ccc[nH+]1 (protonated)
O=C(Cn1[n-]c(=O)c2sccc2c1=O)[N-]Cc1ccccc1Cn1ccc[nH+]1 (3D coordinates assigned)
O=C(Cn1[n-]c(=O)c2sccc2c1=O)[N-]Cc1ccccc1Cn1ccc[nH+]1 (optimized conformer: 108.04906810127369 kcal/mol)

>  <smiles>  (22) 
O=C(Cn1[nH]c(=O)c2sccc2c1=O)NCc1ccccc1Cn1cccn1

>  <score_type>  (22) 
oracle

>  <origin>  (22) 
adg

>  <m_score__min__energy>  (22) 
-10.289999999999999

>  <m_primary>  (22) 
energy

$$$$
22:0
     RDKit          3D

 60 63  0  0  0  0  0  0  0  0999 V2000
   56.4690   29.3440   45.6080 O   0  0  0  0  0  0  0  0  0  0  0  0
   57.6200   29.5920   45.1530 C   0  0  0  0  0  0  0  0  0  0  0  0
   58.5390   28.5120   44.9130 N   0  0  0  0  0  0  0  0  0  0  0  0
   58.1330   27.1450   44.7320 C   0  0  0  0  0  0  0  0  0  0  0  0
   57.9970   26.2690   45.8260 C   0  0  0  0  0  0  0  0  0  0  0  0
   57.5870   24.9480   45.6250 C   0  0  0  0  0  0  0  0  0  0  0  0
   57.2990   24.4850   44.3340 C   0  0  0  0  0  0  0  0  0  0  0  0
   56.8060   22.8100   44.0830 S   0  0  0  0  0  0  0  0  0  0  0  0
   56.9230   22.4870   42.6190 O   0  0  0  0  0  0  0  0  0  0  0  0
   57.7440   21.9020   44.8290 O   0  0  0  0  0  0  0  0  0  0  0  0
   55.1630   22.5050   44.6080 N   0  0  0  0  0  0  0  0  0  0  0  0
   55.0870   22.1000   46.0240 C   0  0  0  0  0  0  0  0  0  0  0  0
   55.1170   23.3000   47.0010 C   0  0  0  0  0  0  0  0  0  0  0  0
   54.9920   24.5510   46.3540 O   0  0  0  0  0  0  0  0  0  0  0  0
   53.9090   24.5140   45.4540 C   0  0  0  0  0  0  0  0  0  0  0  0
   54.2350   23.6020   44.2590 C   0  0  0  0  0  0  0  0  0  0  0  0
   57.4020   25.3630   43.2480 C   0  0  0  0  0  0  0  0  0  0  0  0
   57.8120   26.6850   43.4460 C   0  0  0  0  0  0  0  0  0  0  0  0
   58.0250   31.0010   44.9230 C   0  0  0  0  0  0  0  0  0  0  0  0
   57.7650   31.6340   43.6940 C   0  0  0  0  0  0  0  0  0  0  0  0
   58.1500   32.9620   43.4880 C   0  0  0  0  0  0  0  0  0  0  0  0
   58.7890   33.6750   44.5020 C   0  0  0  0  0  0  0  0  0  0  0  0
   59.1600   34.9620   44.2790 F   0  0  0  0  0  0  0  0  0  0  0  0
   59.0430   33.0650   45.7390 C   0  0  0  0  0  0  0  0  0  0  0  0
   59.8600   33.9690   47.0140 S   0  0  0  0  0  0  0  0  0  0  0  0
   60.2960   35.2960   46.4580 O   0  0  0  0  0  0  0  0  0  0  0  0
   58.9220   34.2130   48.1650 O   0  0  0  0  0  0  0  0  0  0  0  0
   61.2490   33.0670   47.5680 N   0  0  0  0  0  0  0  0  0  0  0  0
   61.4130   33.1870   49.0390 C   0  0  0  0  0  0  0  0  0  0  0  0
   62.5210   34.1710   49.4410 C   0  0  0  0  0  0  0  0  0  0  0  0
   63.8760   33.7570   48.8440 C   0  0  0  0  0  0  0  0  0  0  0  0
   63.7360   33.0410   47.4880 C   0  0  0  0  0  0  0  0  0  0  0  0
   62.4410   33.4510   46.7800 C   0  0  0  0  0  0  0  0  0  0  0  0
   58.6590   31.7310   45.9450 C   0  0  0  0  0  0  0  0  0  0  0  0
   59.5620   28.7110   44.9920 H   0  0  0  0  0  0  0  0  0  0  0  0
   58.2144   26.6259   46.8435 H   0  0  0  0  0  0  0  0  0  0  0  0
   57.4899   24.2684   46.4845 H   0  0  0  0  0  0  0  0  0  0  0  0
   54.1500   21.5451   46.1796 H   0  0  0  0  0  0  0  0  0  0  0  0
   55.9718   21.4819   46.2364 H   0  0  0  0  0  0  0  0  0  0  0  0
   54.2862   23.1909   47.7137 H   0  0  0  0  0  0  0  0  0  0  0  0
   56.0965   23.2884   47.5015 H   0  0  0  0  0  0  0  0  0  0  0  0
   53.0196   24.1272   45.9730 H   0  0  0  0  0  0  0  0  0  0  0  0
   53.7180   25.5321   45.0839 H   0  0  0  0  0  0  0  0  0  0  0  0
   53.2976   23.1634   43.8864 H   0  0  0  0  0  0  0  0  0  0  0  0
   54.7290   24.2218   43.4962 H   0  0  0  0  0  0  0  0  0  0  0  0
   57.1592   25.0110   42.2345 H   0  0  0  0  0  0  0  0  0  0  0  0
   57.8834   27.3691   42.5876 H   0  0  0  0  0  0  0  0  0  0  0  0
   57.2560   31.0811   42.8907 H   0  0  0  0  0  0  0  0  0  0  0  0
   57.9480   33.4469   42.5215 H   0  0  0  0  0  0  0  0  0  0  0  0
   60.4625   33.5341   49.4705 H   0  0  0  0  0  0  0  0  0  0  0  0
   61.6993   32.1956   49.4200 H   0  0  0  0  0  0  0  0  0  0  0  0
   62.2594   35.1748   49.0751 H   0  0  0  0  0  0  0  0  0  0  0  0
   62.6082   34.1683   50.5375 H   0  0  0  0  0  0  0  0  0  0  0  0
   64.4888   34.6596   48.7034 H   0  0  0  0  0  0  0  0  0  0  0  0
   64.3452   33.0508   49.5449 H   0  0  0  0  0  0  0  0  0  0  0  0
   64.5931   33.3060   46.8514 H   0  0  0  0  0  0  0  0  0  0  0  0
   63.7085   31.9559   47.6666 H   0  0  0  0  0  0  0  0  0  0  0  0
   62.4404   34.5419   46.6390 H   0  0  0  0  0  0  0  0  0  0  0  0
   62.3972   32.9317   45.8113 H   0  0  0  0  0  0  0  0  0  0  0  0
   58.8557   31.2514   46.9152 H   0  0  0  0  0  0  0  0  0  0  0  0
  1  2  2  0
  2  3  1  0
  3  4  1  0
  4  5  2  0
  5  6  1  0
  6  7  2  0
  7  8  1  0
  8  9  2  0
  8 10  2  0
  8 11  1  0
 11 12  1  0
 12 13  1  0
 13 14  1  0
 14 15  1  0
 15 16  1  0
  7 17  1  0
 17 18  2  0
  2 19  1  0
 19 20  2  0
 20 21  1  0
 21 22  2  0
 22 23  1  0
 22 24  1  0
 24 25  1  0
 25 26  2  0
 25 27  2  0
 25 28  1  0
 28 29  1  0
 29 30  1  0
 30 31  1  0
 31 32  1  0
 32 33  1  0
 24 34  2  0
 18  4  1  0
 34 19  1  0
 16 11  1  0
 33 28  1  0
  3 35  1  0
  5 36  1  0
  6 37  1  0
 12 38  1  0
 12 39  1  0
 13 40  1  0
 13 41  1  0
 15 42  1  0
 15 43  1  0
 16 44  1  0
 16 45  1  0
 17 46  1  0
 18 47  1  0
 20 48  1  0
 21 49  1  0
 29 50  1  0
 29 51  1  0
 30 52  1  0
 30 53  1  0
 31 54  1  0
 31 55  1  0
 32 56  1  0
 32 57  1  0
 33 58  1  0
 33 59  1  0
 34 60  1  0
M  END
>  <UniqueID>  (23) 
22

>  <SMILES>  (23) 
O=C(Nc1ccc(S(=O)(=O)N2CCOCC2)cc1)c1ccc(F)c(S(=O)(=O)N2CCCCC2)c1

>  <Energy>  (23) 
83.83365506911964

>  <Genealogy>  (23) 
O=C(Nc1ccc(S(=O)(=O)N2CCOCC2)cc1)c1ccc(F)c(S(=O)(=O)N2CCCCC2)c1 (3D coordinates assigned)
O=C(Nc1ccc(S(=O)(=O)N2CCOCC2)cc1)c1ccc(F)c(S(=O)(=O)N2CCCCC2)c1 (nonaromatic ring conformer: 83.83365506911964 kcal/mol)

>  <smiles>  (23) 
O=C(Nc1ccc(S(=O)(=O)N2CCOCC2)cc1)c1ccc(F)c(S(=O)(=O)N2CCCCC2)c1

>  <score_type>  (23) 
oracle

>  <origin>  (23) 
adg

>  <m_score__min__energy>  (23) 
-10.67

>  <m_primary>  (23) 
energy

$$$$
23:0
     RDKit          3D

 56 59  0  0  0  0  0  0  0  0999 V2000
   64.5330   32.7460   47.2640 H   0  0  0  0  0  0  0  0  0  0  0  0
   64.5640   33.3370   48.0570 O   0  0  0  0  0  0  0  0  0  0  0  0
   63.4990   32.9600   48.8770 C   0  0  0  0  0  0  0  0  0  0  0  0
   63.0530   33.8558   49.3337 H   0  0  0  0  0  0  0  0  0  0  0  0
   63.8651   32.2886   49.6677 H   0  0  0  0  0  0  0  0  0  0  0  0
   62.4670   32.2510   48.0600 C   0  0  0  0  0  0  0  0  0  0  0  0
   62.4150   32.5020   46.8240 O   0  0  0  0  0  0  0  0  0  0  0  0
   61.5660   31.2830   48.6410 N   0  0  0  0  0  0  0  0  0  0  0  0
   60.5010   30.7260   47.7930 C   0  0  0  0  0  0  0  0  0  0  0  0
   60.8894   29.8454   47.2603 H   0  0  0  0  0  0  0  0  0  0  0  0
   60.1819   31.4998   47.0793 H   0  0  0  0  0  0  0  0  0  0  0  0
   59.2900   30.3090   48.6320 C   0  0  0  0  0  0  0  0  0  0  0  0
   58.5803   29.7728   47.9849 H   0  0  0  0  0  0  0  0  0  0  0  0
   58.8438   31.2226   49.0519 H   0  0  0  0  0  0  0  0  0  0  0  0
   59.6580   29.4330   49.7570 N   0  0  0  0  0  0  0  0  0  0  0  0
   58.8040   29.3500   50.3490 H   0  0  0  0  0  0  0  0  0  0  0  0
   60.0320   28.0980   49.3030 C   0  0  0  0  0  0  0  0  0  0  0  0
   60.8160   27.3910   49.9970 O   0  0  0  0  0  0  0  0  0  0  0  0
   59.5610   27.5380   48.0040 C   0  0  0  0  0  0  0  0  0  0  0  0
   60.4330   26.8820   47.1060 C   0  0  0  0  0  0  0  0  0  0  0  0
   61.4798   26.7029   47.3925 H   0  0  0  0  0  0  0  0  0  0  0  0
   59.9730   26.4600   45.8570 C   0  0  0  0  0  0  0  0  0  0  0  0
   60.6478   25.9179   45.1782 H   0  0  0  0  0  0  0  0  0  0  0  0
   58.6560   26.7250   45.4670 C   0  0  0  0  0  0  0  0  0  0  0  0
   58.3132   26.4261   44.4654 H   0  0  0  0  0  0  0  0  0  0  0  0
   57.7710   27.3670   46.3400 C   0  0  0  0  0  0  0  0  0  0  0  0
   56.4860   27.7680   45.8560 N   0  0  0  0  0  0  0  0  0  0  0  0
   56.2610   28.8370   44.9350 C   0  0  0  0  0  0  0  0  0  0  0  0
   55.1170   29.3740   44.8810 O   0  0  0  0  0  0  0  0  0  0  0  0
   57.3840   29.3900   44.1590 C   0  0  0  0  0  0  0  0  0  0  0  0
   58.1352   28.6826   43.7779 H   0  0  0  0  0  0  0  0  0  0  0  0
   57.5610   30.6930   43.8810 C   0  0  0  0  0  0  0  0  0  0  0  0
   57.9500   31.7810   44.7780 C   0  0  0  0  0  0  0  0  0  0  0  0
   57.9840   31.8320   46.1800 C   0  0  0  0  0  0  0  0  0  0  0  0
   57.7791   30.9315   46.7776 H   0  0  0  0  0  0  0  0  0  0  0  0
   58.2840   33.0520   46.8070 C   0  0  0  0  0  0  0  0  0  0  0  0
   58.3090   33.1280   48.1580 F   0  0  0  0  0  0  0  0  0  0  0  0
   58.5220   34.1990   46.0410 C   0  0  0  0  0  0  0  0  0  0  0  0
   58.7834   35.1456   46.5367 H   0  0  0  0  0  0  0  0  0  0  0  0
   58.4280   34.1440   44.6440 C   0  0  0  0  0  0  0  0  0  0  0  0
   58.5884   35.0478   44.0379 H   0  0  0  0  0  0  0  0  0  0  0  0
   58.1280   32.9260   44.0330 C   0  0  0  0  0  0  0  0  0  0  0  0
   57.8450   32.7160   42.5820 C   0  0  0  0  0  0  0  0  0  0  0  0
   58.7508   32.8808   41.9801 H   0  0  0  0  0  0  0  0  0  0  0  0
   57.0887   33.4147   42.1949 H   0  0  0  0  0  0  0  0  0  0  0  0
   57.3900   31.2450   42.4940 C   0  0  0  0  0  0  0  0  0  0  0  0
   58.0154   30.6905   41.7789 H   0  0  0  0  0  0  0  0  0  0  0  0
   56.3511   31.1575   42.1432 H   0  0  0  0  0  0  0  0  0  0  0  0
   58.2220   27.7530   47.6150 C   0  0  0  0  0  0  0  0  0  0  0  0
   57.5220   28.2285   48.3177 H   0  0  0  0  0  0  0  0  0  0  0  0
   60.6740   30.0640   50.6340 C   0  0  0  0  0  0  0  0  0  0  0  0
   61.0015   29.3192   51.3743 H   0  0  0  0  0  0  0  0  0  0  0  0
   60.1942   30.9398   51.0953 H   0  0  0  0  0  0  0  0  0  0  0  0
   61.9180   30.5820   49.8860 C   0  0  0  0  0  0  0  0  0  0  0  0
   62.5652   29.7271   49.6404 H   0  0  0  0  0  0  0  0  0  0  0  0
   62.4331   31.2983   50.5429 H   0  0  0  0  0  0  0  0  0  0  0  0
  1  2  1  0
  2  3  1  0
  3  4  1  0
  3  5  1  0
  3  6  1  0
  6  7  2  0
  6  8  1  0
  8  9  1  0
  9 10  1  0
  9 11  1  0
  9 12  1  0
 12 13  1  0
 12 14  1  0
 12 15  1  0
 15 16  1  0
 15 17  1  0
 17 18  2  0
 17 19  1  0
 19 20  2  0
 20 21  1  0
 20 22  1  0
 22 23  1  0
 22 24  2  0
 24 25  1  0
 24 26  1  0
 26 27  1  0
 27 28  1  0
 28 29  2  0
 28 30  1  0
 30 31  1  0
 30 32  2  0
 32 33  1  0
 33 34  2  0
 34 35  1  0
 34 36  1  0
 36 37  1  0
 36 38  2  0
 38 39  1  0
 38 40  1  0
 40 41  1  0
 40 42  2  0
 42 43  1  0
 43 44  1  0
 43 45  1  0
 43 46  1  0
 46 47  1  0
 46 48  1  0
 26 49  2  0
 49 50  1  0
 15 51  1  0
 51 52  1  0
 51 53  1  0
 51 54  1  0
 54 55  1  0
 54 56  1  0
 54  8  1  0
 49 19  1  0
 46 32  1  0
 42 33  1  0
M  CHG  2  15   1  27  -1
M  END
>  <UniqueID>  (24) 
23

>  <SMILES>  (24) 
O=C(/C=C1/CCc2ccc(F)cc21)[N-]c1cccc(C(=O)[NH+]2CCN(C(=O)CO)CC2)c1

>  <Energy>  (24) 
96.10176386347534

>  <Genealogy>  (24) 
O=C(C=C1CCc2ccc(F)cc21)[N-]c1cccc(C(=O)[NH+]2CCN(C(=O)CO)CC2)c1 (protonated)
O=C(/C=C1/CCc2ccc(F)cc21)[N-]c1cccc(C(=O)[NH+]2CCN(C(=O)CO)CC2)c1 (cis-trans isomerization)
O=C(/C=C1/CCc2ccc(F)cc21)[N-]c1cccc(C(=O)[NH+]2CCN(C(=O)CO)CC2)c1 (3D coordinates assigned)
O=C(/C=C1/CCc2ccc(F)cc21)[N-]c1cccc(C(=O)[NH+]2CCN(C(=O)CO)CC2)c1 (nonaromatic ring conformer: 96.10176386347534 kcal/mol)

>  <smiles>  (24) 
O=C(C=C1CCc2ccc(F)cc21)Nc1cccc(C(=O)N2CCN(C(=O)CO)CC2)c1

>  <score_type>  (24) 
oracle

>  <origin>  (24) 
adg

>  <m_score__min__energy>  (24) 
-9.5

>  <m_primary>  (24) 
energy

$$$$
24:0
     RDKit          3D

 42 44  0  0  0  0  0  0  0  0999 V2000
   59.4060   30.6130   46.8540 C   0  0  0  0  0  0  0  0  0  0  0  0
   58.7010   31.3780   46.0040 C   0  0  0  0  0  0  0  0  0  0  0  0
   58.1320   30.9870   44.7790 C   0  0  0  0  0  0  0  0  0  0  0  0
   58.0150   29.7760   44.2000 C   0  0  0  0  0  0  0  0  0  0  0  0
   57.5940   28.5340   44.8770 C   0  0  0  0  0  0  0  0  0  0  0  0
   56.2540   28.3260   45.2470 C   0  0  0  0  0  0  0  0  0  0  0  0
   55.2950   29.3100   45.0150 O   0  0  0  0  0  0  0  0  0  0  0  0
   55.8890   27.1540   45.8320 N   0  0  0  0  0  0  0  0  0  0  0  0
   56.7950   26.1690   46.0530 C   0  0  0  0  0  0  0  0  0  0  0  0
   56.3260   24.7740   46.7600 S   0  0  0  0  0  0  0  0  0  0  0  0
   58.0890   26.3370   45.6770 N   0  0  0  0  0  0  0  0  0  0  0  0
   58.5050   27.4880   45.0890 C   0  0  0  0  0  0  0  0  0  0  0  0
   59.7110   27.6080   44.7470 O   0  0  0  0  0  0  0  0  0  0  0  0
   57.6290   32.1400   44.2010 C   0  0  0  0  0  0  0  0  0  0  0  0
   57.8540   33.1680   45.0910 C   0  0  0  0  0  0  0  0  0  0  0  0
   57.4350   34.5890   44.8670 C   0  0  0  0  0  0  0  0  0  0  0  0
   58.5110   32.7130   46.1830 N   0  0  0  0  0  0  0  0  0  0  0  0
   58.9160   33.5210   47.3440 C   0  0  0  0  0  0  0  0  0  0  0  0
   59.8960   34.5790   46.9200 C   0  0  0  0  0  0  0  0  0  0  0  0
   59.5100   35.7760   46.8490 O   0  0  0  0  0  0  0  0  0  0  0  0
   61.2730   34.2800   46.6600 N   0  0  0  0  0  0  0  0  0  0  0  0
   62.1820   33.6270   47.5550 C   0  0  0  0  0  0  0  0  0  0  0  0
   62.8750   32.4620   47.1790 C   0  0  0  0  0  0  0  0  0  0  0  0
   63.7780   31.8660   48.0650 C   0  0  0  0  0  0  0  0  0  0  0  0
   64.0100   32.4330   49.3200 C   0  0  0  0  0  0  0  0  0  0  0  0
   64.8890   31.8460   50.1710 F   0  0  0  0  0  0  0  0  0  0  0  0
   63.3430   33.6090   49.6890 C   0  0  0  0  0  0  0  0  0  0  0  0
   63.6380   34.3400   51.2580 Cl  0  0  0  0  0  0  0  0  0  0  0  0
   62.4410   34.2080   48.8030 C   0  0  0  0  0  0  0  0  0  0  0  0
   59.7988   31.0450   47.7863 H   0  0  0  0  0  0  0  0  0  0  0  0
   59.5905   29.5546   46.6177 H   0  0  0  0  0  0  0  0  0  0  0  0
   58.2543   29.7070   43.1286 H   0  0  0  0  0  0  0  0  0  0  0  0
   55.2130   30.1110   45.6290 H   0  0  0  0  0  0  0  0  0  0  0  0
   57.1421   32.2204   43.2179 H   0  0  0  0  0  0  0  0  0  0  0  0
   57.2886   35.0855   45.8376 H   0  0  0  0  0  0  0  0  0  0  0  0
   58.2159   35.1164   44.2995 H   0  0  0  0  0  0  0  0  0  0  0  0
   56.4929   34.6084   44.2995 H   0  0  0  0  0  0  0  0  0  0  0  0
   58.0280   34.0015   47.7805 H   0  0  0  0  0  0  0  0  0  0  0  0
   59.3920   32.8671   48.0895 H   0  0  0  0  0  0  0  0  0  0  0  0
   62.7063   32.0191   46.1864 H   0  0  0  0  0  0  0  0  0  0  0  0
   64.3075   30.9473   47.7724 H   0  0  0  0  0  0  0  0  0  0  0  0
   61.9322   35.1407   49.0881 H   0  0  0  0  0  0  0  0  0  0  0  0
  1  2  2  0
  2  3  1  0
  3  4  2  3
  4  5  1  0
  5  6  2  0
  6  7  1  0
  6  8  1  0
  8  9  1  0
  9 10  2  0
  9 11  1  0
 11 12  1  0
 12 13  2  0
  3 14  1  0
 14 15  2  0
 15 16  1  0
 15 17  1  0
 17 18  1  0
 18 19  1  0
 19 20  2  0
 19 21  1  0
 21 22  1  0
 22 23  2  0
 23 24  1  0
 24 25  2  0
 25 26  1  0
 25 27  1  0
 27 28  1  0
 27 29  2  0
 17  2  1  0
 29 22  1  0
 12  5  1  0
  1 30  1  0
  1 31  1  0
  4 32  1  0
  7 33  1  0
 14 34  1  0
 16 35  1  0
 16 36  1  0
 16 37  1  0
 18 38  1  0
 18 39  1  0
 23 40  1  0
 24 41  1  0
 29 42  1  0
M  CHG  3   8  -1  11  -1  21  -1
M  END
>  <UniqueID>  (25) 
24

>  <SMILES>  (25) 
C=c1c(=Cc2c(O)[n-]c(=S)[n-]c2=O)cc(C)n1CC(=O)[N-]c1ccc(F)c(Cl)c1

>  <Energy>  (25) 
89.994743359541

>  <Genealogy>  (25) 
C=c1c(=Cc2c(O)[n-]c(=S)[n-]c2=O)cc(C)n1CC(=O)[N-]c1ccc(F)c(Cl)c1 (protonated)
C=c1c(=Cc2c(O)[n-]c(=S)[n-]c2=O)cc(C)n1CC(=O)[N-]c1ccc(F)c(Cl)c1 (3D coordinates assigned)
C=c1c(=Cc2c(O)[n-]c(=S)[n-]c2=O)cc(C)n1CC(=O)[N-]c1ccc(F)c(Cl)c1 (optimized conformer: 89.994743359541 kcal/mol)

>  <smiles>  (25) 
C=c1c(=Cc2c(O)[nH]c(=S)[nH]c2=O)cc(C)n1CC(=O)Nc1ccc(F)c(Cl)c1

>  <score_type>  (25) 
oracle

>  <origin>  (25) 
adg

>  <m_score__min__energy>  (25) 
-13.82

>  <m_primary>  (25) 
energy

$$$$
25:0
     RDKit          3D

 34 35  0  0  1  0  0  0  0  0999 V2000
   56.2770   29.7480   43.0790 C   0  0  0  0  0  0  0  0  0  0  0  0
   57.1280   29.7970   44.2770 C   0  0  0  0  0  0  0  0  0  0  0  0
   57.0130   28.9110   45.3430 C   0  0  0  0  0  0  0  0  0  0  0  0
   56.0080   27.8960   45.2740 N   0  0  0  0  0  0  0  0  0  0  0  0
   57.7990   28.9650   46.4310 N   0  0  0  0  0  0  0  0  0  0  0  0
   58.7520   29.9090   46.5240 C   0  0  0  0  0  0  0  0  0  0  0  0
   59.7150   29.9850   47.8430 S   0  0  0  0  0  0  0  0  0  0  0  0
   58.8780   30.7650   45.5140 N   0  0  0  0  0  0  0  0  0  0  0  0
   58.1140   30.7520   44.4010 C   0  0  0  0  0  0  0  0  0  0  0  0
   58.3540   31.6360   43.5220 N   0  0  0  0  0  0  0  0  0  0  0  0
   57.8970   32.9590   43.5890 C   0  0  0  0  0  0  0  0  0  0  0  0
   57.1530   33.3440   44.8440 C   0  0  0  0  0  0  0  0  0  0  0  0
   58.0970   33.7040   45.9340 C   0  0  0  0  0  0  0  0  0  0  0  0
   59.1160   34.5970   45.5970 C   0  0  0  0  0  0  0  0  0  0  0  0
   60.0490   34.9970   46.5380 C   0  0  0  0  0  0  0  0  0  0  0  0
   59.9460   34.4930   47.8170 C   0  0  0  0  0  0  0  0  0  0  0  0
   58.9410   33.6120   48.1490 C   0  0  0  0  0  0  0  0  0  0  0  0
   58.0030   33.2060   47.2150 C   0  0  0  0  0  0  0  0  0  0  0  0
   55.2212   29.6872   43.3815 H   0  0  0  0  0  0  0  0  0  0  0  0
   56.4350   30.6567   42.4796 H   0  0  0  0  0  0  0  0  0  0  0  0
   56.5382   28.8634   42.4796 H   0  0  0  0  0  0  0  0  0  0  0  0
   55.1440   27.9550   45.8630 H   0  0  0  0  0  0  0  0  0  0  0  0
   56.1890   27.1060   44.6090 H   0  0  0  0  0  0  0  0  0  0  0  0
   57.6800   28.2800   47.2110 H   0  0  0  0  0  0  0  0  0  0  0  0
   59.6430   31.4970   45.6250 H   0  0  0  0  0  0  0  0  0  0  0  0
   58.7711   33.6209   43.5006 H   0  0  0  0  0  0  0  0  0  0  0  0
   57.1678   33.0603   42.7717 H   0  0  0  0  0  0  0  0  0  0  0  0
   56.5066   34.2075   44.6283 H   0  0  0  0  0  0  0  0  0  0  0  0
   56.5508   32.4839   45.1720 H   0  0  0  0  0  0  0  0  0  0  0  0
   59.1782   34.9877   44.5706 H   0  0  0  0  0  0  0  0  0  0  0  0
   60.8526   35.6995   46.2719 H   0  0  0  0  0  0  0  0  0  0  0  0
   60.6755   34.7983   48.5817 H   0  0  0  0  0  0  0  0  0  0  0  0
   58.8823   33.2232   49.1763 H   0  0  0  0  0  0  0  0  0  0  0  0
   57.2025   32.5031   47.4891 H   0  0  0  0  0  0  0  0  0  0  0  0
  1  2  1  0
  2  3  2  0
  3  4  1  0
  3  5  1  0
  5  6  1  0
  6  7  2  0
  6  8  1  0
  8  9  1  0
  9 10  2  0
 10 11  1  0
 11 12  1  0
 12 13  1  0
 13 14  2  0
 14 15  1  0
 15 16  2  0
 16 17  1  0
 17 18  2  0
  9  2  1  0
 18 13  1  0
  1 19  1  0
  1 20  1  0
  1 21  1  0
  4 22  1  0
  4 23  1  0
  5 24  1  0
  8 25  1  0
 11 26  1  0
 11 27  1  0
 12 28  1  0
 12 29  1  0
 14 30  1  0
 15 31  1  0
 16 32  1  0
 17 33  1  0
 18 34  1  0
M  END
>  <smiles>  (26) 
Cc1c(N)[nH]c(=S)[nH]c1=NCCc1ccccc1

>  <score_type>  (26) 
oracle

>  <origin>  (26) 
adg

>  <m_score__min__energy>  (26) 
-6.71

>  <m_primary>  (26) 
energy

$$$$
26:0
     RDKit          3D

 61 64  0  0  0  0  0  0  0  0999 V2000
   59.8680   26.2360   46.2150 C   0  0  0  0  0  0  0  0  0  0  0  0
   59.3570   27.6460   46.0610 C   0  0  0  0  0  0  0  0  0  0  0  0
   60.2870   28.6790   45.8590 C   0  0  0  0  0  0  0  0  0  0  0  0
   59.8660   29.9970   45.6790 C   0  0  0  0  0  0  0  0  0  0  0  0
   58.5010   30.3200   45.7070 C   0  0  0  0  0  0  0  0  0  0  0  0
   58.0630   31.6890   45.5480 N   0  0  0  0  0  0  0  0  0  0  0  0
   57.8820   32.3440   44.2630 C   0  0  0  0  0  0  0  0  0  0  0  0
   57.3150   33.7220   44.5780 C   0  0  0  0  0  0  0  0  0  0  0  0
   57.6610   33.9740   46.0450 C   0  0  2  0  0  0  0  0  0  0  0  0
   58.9210   34.6450   46.1180 O   0  0  0  0  0  0  0  0  0  0  0  0
   59.9900   34.2250   46.9180 C   0  0  0  0  0  0  0  0  0  0  0  0
   59.8240   34.2020   48.3060 C   0  0  0  0  0  0  0  0  0  0  0  0
   60.8750   33.8110   49.1380 C   0  0  0  0  0  0  0  0  0  0  0  0
   62.1240   33.4630   48.5920 C   0  0  0  0  0  0  0  0  0  0  0  0
   63.2770   33.0600   49.4870 C   0  0  1  0  0  0  0  0  0  0  0  0
   63.6710   34.1980   50.4350 C   0  0  0  0  0  0  0  0  0  0  0  0
   62.9150   31.8650   50.2540 N   0  0  0  0  0  0  0  0  0  0  0  0
   62.2240   30.7510   49.6640 C   0  0  0  0  0  0  0  0  0  0  0  0
   61.9880   30.7420   48.4250 O   0  0  0  0  0  0  0  0  0  0  0  0
   61.6790   29.6410   50.5310 C   0  0  0  0  0  0  0  0  0  0  0  0
   60.7450   28.6670   49.8100 C   0  0  0  0  0  0  0  0  0  0  0  0
   59.6080   29.0660   50.7400 C   0  0  0  0  0  0  0  0  0  0  0  0
   60.5200   30.0640   51.4400 C   0  0  0  0  0  0  0  0  0  0  0  0
   62.2890   33.4910   47.1970 C   0  0  0  0  0  0  0  0  0  0  0  0
   61.2290   33.8670   46.3650 C   0  0  0  0  0  0  0  0  0  0  0  0
   57.7920   32.5870   46.6600 C   0  0  0  0  0  0  0  0  0  0  0  0
   57.5640   29.2910   45.9150 C   0  0  0  0  0  0  0  0  0  0  0  0
   57.9730   27.9580   46.1050 C   0  0  0  0  0  0  0  0  0  0  0  0
   56.9300   26.9280   46.3440 C   0  0  0  0  0  0  0  0  0  0  0  0
   55.6230   27.0910   45.7960 N   0  0  0  0  0  0  0  0  0  0  0  0
   57.1790   25.9110   47.0450 O   0  0  0  0  0  0  0  0  0  0  0  0
   59.9562   25.9927   47.2841 H   0  0  0  0  0  0  0  0  0  0  0  0
   59.1659   25.5373   45.7366 H   0  0  0  0  0  0  0  0  0  0  0  0
   60.8547   26.1493   45.7366 H   0  0  0  0  0  0  0  0  0  0  0  0
   61.3619   28.4458   45.8425 H   0  0  0  0  0  0  0  0  0  0  0  0
   60.6107   30.7896   45.5137 H   0  0  0  0  0  0  0  0  0  0  0  0
   58.8456   32.4362   43.7406 H   0  0  0  0  0  0  0  0  0  0  0  0
   57.2119   31.7701   43.6060 H   0  0  0  0  0  0  0  0  0  0  0  0
   57.7786   34.4855   43.9360 H   0  0  0  0  0  0  0  0  0  0  0  0
   56.2309   33.7707   44.3979 H   0  0  0  0  0  0  0  0  0  0  0  0
   56.9079   34.5900   46.5582 H   0  0  0  0  0  0  0  0  0  0  0  0
   58.8589   34.4939   48.7456 H   0  0  0  0  0  0  0  0  0  0  0  0
   60.7254   33.7748   50.2272 H   0  0  0  0  0  0  0  0  0  0  0  0
   64.1457   32.8367   48.8502 H   0  0  0  0  0  0  0  0  0  0  0  0
   63.5554   33.8641   51.4767 H   0  0  0  0  0  0  0  0  0  0  0  0
   64.7189   34.4795   50.2544 H   0  0  0  0  0  0  0  0  0  0  0  0
   63.0215   35.0672   50.2544 H   0  0  0  0  0  0  0  0  0  0  0  0
   63.0150   31.8990   51.2960 H   0  0  0  0  0  0  0  0  0  0  0  0
   62.6290   29.2874   50.9581 H   0  0  0  0  0  0  0  0  0  0  0  0
   60.5679   28.9143   48.7529 H   0  0  0  0  0  0  0  0  0  0  0  0
   61.0250   27.6094   49.6959 H   0  0  0  0  0  0  0  0  0  0  0  0
   58.7504   29.5261   50.2272 H   0  0  0  0  0  0  0  0  0  0  0  0
   59.0739   28.3006   51.3221 H   0  0  0  0  0  0  0  0  0  0  0  0
   60.2142   31.1137   51.3189 H   0  0  0  0  0  0  0  0  0  0  0  0
   60.6336   30.0427   52.5339 H   0  0  0  0  0  0  0  0  0  0  0  0
   63.2583   33.2154   46.7560 H   0  0  0  0  0  0  0  0  0  0  0  0
   61.3672   33.8821   45.2738 H   0  0  0  0  0  0  0  0  0  0  0  0
   58.6211   32.5643   47.3825 H   0  0  0  0  0  0  0  0  0  0  0  0
   56.8818   32.2962   47.2050 H   0  0  0  0  0  0  0  0  0  0  0  0
   56.4911   29.5333   45.9294 H   0  0  0  0  0  0  0  0  0  0  0  0
   54.7780   27.0960   46.4110 H   0  0  0  0  0  0  0  0  0  0  0  0
  1  2  1  0
  2  3  2  0
  3  4  1  0
  4  5  2  0
  5  6  1  0
  6  7  1  0
  7  8  1  0
  8  9  1  0
  9 10  1  0
 10 11  1  0
 11 12  2  0
 12 13  1  0
 13 14  2  0
 14 15  1  0
 15 16  1  0
 15 17  1  0
 17 18  1  0
 18 19  2  0
 18 20  1  0
 20 21  1  0
 21 22  1  0
 22 23  1  0
 14 24  1  0
 24 25  2  0
  9 26  1  0
  5 27  1  0
 27 28  2  0
 28 29  1  0
 29 30  1  0
 29 31  2  0
 28  2  1  0
 26  6  1  0
 25 11  1  0
 23 20  1  0
  1 32  1  0
  1 33  1  0
  1 34  1  0
  3 35  1  0
  4 36  1  0
  7 37  1  0
  7 38  1  0
  8 39  1  0
  8 40  1  0
  9 41  1  1
 12 42  1  0
 13 43  1  0
 15 44  1  6
 16 45  1  0
 16 46  1  0
 16 47  1  0
 17 48  1  0
 20 49  1  0
 21 50  1  0
 21 51  1  0
 22 52  1  0
 22 53  1  0
 23 54  1  0
 23 55  1  0
 24 56  1  0
 25 57  1  0
 26 58  1  0
 26 59  1  0
 27 60  1  0
 30 61  1  0
M  CHG  1  30  -1
M  END
>  <UniqueID>  (27) 
25

>  <SMILES>  (27) 
Cc1ccc(N2CC[C@H](Oc3ccc([C@@H](C)NC(=O)C4CCC4)cc3)C2)cc1C([NH-])=O

>  <Energy>  (27) 
131.4221032161832

>  <Genealogy>  (27) 
Cc1ccc(N2CCC(Oc3ccc(C(C)NC(=O)C4CCC4)cc3)C2)cc1C([NH-])=O (protonated)
Cc1ccc(N2CC[C@H](Oc3ccc([C@@H](C)NC(=O)C4CCC4)cc3)C2)cc1C([NH-])=O (chirality)
Cc1ccc(N2CC[C@H](Oc3ccc([C@@H](C)NC(=O)C4CCC4)cc3)C2)cc1C([NH-])=O (3D coordinates assigned)
Cc1ccc(N2CC[C@H](Oc3ccc([C@@H](C)NC(=O)C4CCC4)cc3)C2)cc1C([NH-])=O (nonaromatic ring conformer: 131.4221032161832 kcal/mol)

>  <smiles>  (27) 
Cc1ccc(N2CCC(Oc3ccc(C(C)NC(=O)C4CCC4)cc3)C2)cc1C(N)=O

>  <score_type>  (27) 
oracle

>  <origin>  (27) 
adg

>  <m_score__min__energy>  (27) 
-12.84

>  <m_primary>  (27) 
energy

$$$$
27:0
     RDKit          3D

 43 44  0  0  0  0  0  0  0  0999 V2000
   61.8270   28.2080   44.0790 H   0  0  0  0  0  0  0  0  0  0  0  0
   60.8680   28.4990   44.2180 O   0  0  0  0  0  0  0  0  0  0  0  0
   60.3030   28.7440   45.4740 C   0  0  0  0  0  0  0  0  0  0  0  0
   61.0860   29.4370   46.3960 O   0  0  0  0  0  0  0  0  0  0  0  0
   61.1230   30.4490   46.3860 H   0  0  0  0  0  0  0  0  0  0  0  0
   59.0270   28.3810   45.7900 C   0  0  0  0  0  0  0  0  0  0  0  0
   58.7920   27.0650   46.2600 C   0  0  0  0  0  0  0  0  0  0  0  0
   59.6407   26.4550   46.6029 H   0  0  0  0  0  0  0  0  0  0  0  0
   57.5090   26.5300   46.2960 C   0  0  0  0  0  0  0  0  0  0  0  0
   57.3533   25.5057   46.6655 H   0  0  0  0  0  0  0  0  0  0  0  0
   56.4240   27.2820   45.8680 C   0  0  0  0  0  0  0  0  0  0  0  0
   55.1500   26.7270   45.8740 O   0  0  0  0  0  0  0  0  0  0  0  0
   56.6060   28.6020   45.4620 C   0  0  0  0  0  0  0  0  0  0  0  0
   55.7385   29.1833   45.1162 H   0  0  0  0  0  0  0  0  0  0  0  0
   57.8870   29.2130   45.4850 C   0  0  0  0  0  0  0  0  0  0  0  0
   57.9620   30.5760   45.3570 C   0  0  0  0  0  0  0  0  0  0  0  0
   57.6690   31.2080   44.1290 C   0  0  0  0  0  0  0  0  0  0  0  0
   57.3369   30.5989   43.2754 H   0  0  0  0  0  0  0  0  0  0  0  0
   57.7920   32.5890   43.9760 C   0  0  0  0  0  0  0  0  0  0  0  0
   57.5548   33.0504   43.0060 H   0  0  0  0  0  0  0  0  0  0  0  0
   58.2140   33.3980   45.0420 C   0  0  0  0  0  0  0  0  0  0  0  0
   58.3040   34.7240   44.8550 C   0  0  0  0  0  0  0  0  0  0  0  0
   58.6329   35.3745   45.6788 H   0  0  0  0  0  0  0  0  0  0  0  0
   58.0488   35.1602   43.8780 H   0  0  0  0  0  0  0  0  0  0  0  0
   58.5190   32.7890   46.2830 C   0  0  0  0  0  0  0  0  0  0  0  0
   58.9860   33.5810   47.4460 C   0  0  0  0  0  0  0  0  0  0  0  0
   58.4011   34.4643   47.7420 H   0  0  0  0  0  0  0  0  0  0  0  0
   60.0810   33.2800   48.1560 C   0  0  0  0  0  0  0  0  0  0  0  0
   59.9519   32.9338   49.1921 H   0  0  0  0  0  0  0  0  0  0  0  0
   61.4810   33.3910   47.6090 C   0  0  0  0  0  0  0  0  0  0  0  0
   61.4474   33.8830   46.6257 H   0  0  0  0  0  0  0  0  0  0  0  0
   62.0902   33.9822   48.3085 H   0  0  0  0  0  0  0  0  0  0  0  0
   62.0870   32.0520   47.4620 N   0  0  0  0  0  0  0  0  0  0  0  0
   61.8970   31.2720   48.6960 C   0  0  0  0  0  0  0  0  0  0  0  0
   62.0554   31.9223   49.5689 H   0  0  0  0  0  0  0  0  0  0  0  0
   60.8742   30.8680   48.7206 H   0  0  0  0  0  0  0  0  0  0  0  0
   62.6194   30.4429   48.7206 H   0  0  0  0  0  0  0  0  0  0  0  0
   63.5280   32.1590   47.1680 C   0  0  0  0  0  0  0  0  0  0  0  0
   64.0925   32.2009   48.1112 H   0  0  0  0  0  0  0  0  0  0  0  0
   63.8497   31.2823   46.5868 H   0  0  0  0  0  0  0  0  0  0  0  0
   63.7167   33.0736   46.5868 H   0  0  0  0  0  0  0  0  0  0  0  0
   58.4170   31.3940   46.4180 C   0  0  0  0  0  0  0  0  0  0  0  0
   58.6981   30.9260   47.3730 H   0  0  0  0  0  0  0  0  0  0  0  0
  1  2  1  0
  2  3  1  0
  3  4  1  0
  4  5  1  0
  3  6  2  3
  6  7  1  0
  7  8  1  0
  7  9  2  0
  9 10  1  0
  9 11  1  0
 11 12  1  0
 11 13  2  0
 13 14  1  0
 13 15  1  0
 15 16  2  0
 16 17  1  0
 17 18  1  0
 17 19  2  0
 19 20  1  0
 19 21  1  0
 21 22  2  0
 22 23  1  0
 22 24  1  0
 21 25  1  0
 25 26  1  0
 26 27  1  0
 26 28  2  3
 28 29  1  0
 28 30  1  0
 30 31  1  0
 30 32  1  0
 30 33  1  0
 33 34  1  0
 34 35  1  0
 34 36  1  0
 34 37  1  0
 33 38  1  0
 38 39  1  0
 38 40  1  0
 38 41  1  0
 25 42  2  0
 42 43  1  0
 15  6  1  0
 42 16  1  0
M  CHG  1  12  -1
M  END
>  <UniqueID>  (28) 
26

>  <SMILES>  (28) 
C=c1cc/c(=c2/cc([O-])ccc2=C(O)O)cc1C=CCN(C)C

>  <Energy>  (28) 
89.17128677737585

>  <Genealogy>  (28) 
C=c1ccc(=c2cc([O-])ccc2=C(O)O)cc1C=CCN(C)C (protonated)
C=c1cc/c(=c2/cc([O-])ccc2=C(O)O)cc1C=CCN(C)C (cis-trans isomerization)
C=c1cc/c(=c2/cc([O-])ccc2=C(O)O)cc1C=CCN(C)C (3D coordinates assigned)
C=c1cc/c(=c2/cc([O-])ccc2=C(O)O)cc1C=CCN(C)C (optimized conformer: 89.17128677737585 kcal/mol)

>  <smiles>  (28) 
C=c1ccc(=c2cc(O)ccc2=C(O)O)cc1C=CCN(C)C

>  <score_type>  (28) 
oracle

>  <origin>  (28) 
adg

>  <m_score__min__energy>  (28) 
-10.300000000000001

>  <m_primary>  (28) 
energy

$$$$
28:0
     RDKit          3D

 45 47  0  0  0  0  0  0  0  0999 V2000
   57.4100   31.9060   42.3900 C   0  0  0  0  0  0  0  0  0  0  0  0
   57.7800   32.0820   43.6570 C   0  0  0  0  0  0  0  0  0  0  0  0
   57.7980   33.5700   44.4400 S   0  0  0  0  0  0  0  0  0  0  0  0
   58.3360   32.9840   45.9290 C   0  0  0  0  0  0  0  0  0  0  0  0
   58.5440   33.7000   47.0410 C   0  0  0  0  0  0  0  0  0  0  0  0
   59.4570   33.2660   48.1230 C   0  0  0  0  0  0  0  0  0  0  0  0
   58.9000   32.7820   49.3190 C   0  0  0  0  0  0  0  0  0  0  0  0
   59.7340   32.3780   50.3580 C   0  0  0  0  0  0  0  0  0  0  0  0
   61.1130   32.4580   50.2050 C   0  0  0  0  0  0  0  0  0  0  0  0
   61.6440   32.9490   49.0120 C   0  0  0  0  0  0  0  0  0  0  0  0
   60.8260   33.3620   47.9930 N   0  0  0  0  0  0  0  0  0  0  0  0
   61.4560   33.8220   46.7420 C   0  0  0  0  0  0  0  0  0  0  0  0
   62.9480   33.5050   46.7440 C   0  0  0  0  0  0  0  0  0  0  0  0
   58.5050   31.6060   45.8310 C   0  0  0  0  0  0  0  0  0  0  0  0
   58.1840   31.0950   44.5610 C   0  0  0  0  0  0  0  0  0  0  0  0
   58.3240   29.7060   44.2130 N   0  0  0  0  0  0  0  0  0  0  0  0
   58.2860   28.6340   45.1700 C   0  0  0  0  0  0  0  0  0  0  0  0
   59.3640   28.4000   46.0420 C   0  0  0  0  0  0  0  0  0  0  0  0
   59.3110   27.3610   46.9840 C   0  0  0  0  0  0  0  0  0  0  0  0
   60.4570   27.1170   47.8890 C   0  0  0  0  0  0  0  0  0  0  0  0
   61.4270   26.4050   47.5160 O   0  0  0  0  0  0  0  0  0  0  0  0
   60.4810   27.6740   49.1630 O   0  0  0  0  0  0  0  0  0  0  0  0
   58.1560   26.5630   47.0610 C   0  0  0  0  0  0  0  0  0  0  0  0
   57.0610   26.8000   46.2130 C   0  0  0  0  0  0  0  0  0  0  0  0
   55.8460   25.9600   46.3090 C   0  0  0  0  0  0  0  0  0  0  0  0
   54.7640   26.3340   45.7840 O   0  0  0  0  0  0  0  0  0  0  0  0
   55.8810   24.7440   46.9820 O   0  0  0  0  0  0  0  0  0  0  0  0
   57.1350   27.8440   45.2740 C   0  0  0  0  0  0  0  0  0  0  0  0
   57.4251   30.8991   41.9474 H   0  0  0  0  0  0  0  0  0  0  0  0
   57.0892   32.7675   41.7860 H   0  0  0  0  0  0  0  0  0  0  0  0
   58.0116   34.6557   47.1563 H   0  0  0  0  0  0  0  0  0  0  0  0
   57.8076   32.7225   49.4340 H   0  0  0  0  0  0  0  0  0  0  0  0
   59.3034   31.9972   51.2958 H   0  0  0  0  0  0  0  0  0  0  0  0
   61.7805   32.1367   51.0181 H   0  0  0  0  0  0  0  0  0  0  0  0
   62.7355   33.0055   48.8874 H   0  0  0  0  0  0  0  0  0  0  0  0
   60.9799   33.3150   45.8898 H   0  0  0  0  0  0  0  0  0  0  0  0
   61.3250   34.9110   46.6586 H   0  0  0  0  0  0  0  0  0  0  0  0
   63.3053   33.4291   47.7816 H   0  0  0  0  0  0  0  0  0  0  0  0
   63.1207   32.5501   46.2259 H   0  0  0  0  0  0  0  0  0  0  0  0
   63.4940   34.3072   46.2259 H   0  0  0  0  0  0  0  0  0  0  0  0
   58.8549   30.9790   46.6643 H   0  0  0  0  0  0  0  0  0  0  0  0
   58.5270   29.4650   43.2160 H   0  0  0  0  0  0  0  0  0  0  0  0
   60.2583   29.0380   45.9852 H   0  0  0  0  0  0  0  0  0  0  0  0
   58.1090   25.7437   47.7935 H   0  0  0  0  0  0  0  0  0  0  0  0
   56.2782   28.0423   44.6132 H   0  0  0  0  0  0  0  0  0  0  0  0
  1  2  2  0
  2  3  1  0
  3  4  1  0
  4  5  2  3
  5  6  1  0
  6  7  2  0
  7  8  1  0
  8  9  2  0
  9 10  1  0
 10 11  2  0
 11 12  1  0
 12 13  1  0
  4 14  1  0
 14 15  2  0
 15 16  1  0
 16 17  1  0
 17 18  2  0
 18 19  1  0
 19 20  1  0
 20 21  2  0
 20 22  1  0
 19 23  2  0
 23 24  1  0
 24 25  1  0
 25 26  2  0
 25 27  1  0
 24 28  2  0
 15  2  1  0
 28 17  1  0
 11  6  1  0
  1 29  1  0
  1 30  1  0
  5 31  1  0
  7 32  1  0
  8 33  1  0
  9 34  1  0
 10 35  1  0
 12 36  1  0
 12 37  1  0
 13 38  1  0
 13 39  1  0
 13 40  1  0
 14 41  1  0
 16 42  1  0
 18 43  1  0
 23 44  1  0
 28 45  1  0
M  CHG  3  11   1  22  -1  27  -1
M  END
>  <UniqueID>  (29) 
27

>  <SMILES>  (29) 
C=c1sc(=Cc2cccc[n+]2CC)cc1Nc1cc(C(=O)[O-])cc(C(=O)[O-])c1

>  <Energy>  (29) 
86.27023359279642

>  <Genealogy>  (29) 
C=c1sc(=Cc2cccc[n+]2CC)cc1Nc1cc(C(=O)[O-])cc(C(=O)[O-])c1 (protonated)
C=c1sc(=Cc2cccc[n+]2CC)cc1Nc1cc(C(=O)[O-])cc(C(=O)[O-])c1 (3D coordinates assigned)
C=c1sc(=Cc2cccc[n+]2CC)cc1Nc1cc(C(=O)[O-])cc(C(=O)[O-])c1 (optimized conformer: 86.27023359279642 kcal/mol)

>  <smiles>  (29) 
C=c1sc(=Cc2cccc[n+]2CC)cc1Nc1cc(C(=O)O)cc(C(=O)O)c1

>  <score_type>  (29) 
oracle

>  <origin>  (29) 
adg

>  <m_score__min__energy>  (29) 
-11.65

>  <m_primary>  (29) 
energy

$$$$
29:0
     RDKit          3D

 79 83  0  0  0  0  0  0  0  0999 V2000
   54.9749   21.3114   45.1310 H   0  0  0  0  0  0  0  0  0  0  0  0
   55.8840   21.7400   44.6840 C   0  0  0  0  0  0  0  0  0  0  0  0
   55.9580   23.0580   44.4300 C   0  0  0  0  0  0  0  0  0  0  0  0
   54.8370   23.9920   44.8220 C   0  0  0  0  0  0  0  0  0  0  0  0
   53.8821   23.4529   44.7345 H   0  0  0  0  0  0  0  0  0  0  0  0
   54.8751   24.8604   44.1479 H   0  0  0  0  0  0  0  0  0  0  0  0
   54.9790   24.5130   46.2630 C   0  0  0  0  0  0  0  0  0  0  0  0
   54.8144   23.6786   46.9607 H   0  0  0  0  0  0  0  0  0  0  0  0
   54.2339   25.3082   46.4130 H   0  0  0  0  0  0  0  0  0  0  0  0
   56.3180   25.0870   46.5120 N   0  0  0  0  0  0  0  0  0  0  0  0
   56.5740   26.3920   46.1730 C   0  0  0  0  0  0  0  0  0  0  0  0
   55.5670   27.1910   45.6280 O   0  0  0  0  0  0  0  0  0  0  0  0
   57.8460   26.9430   46.3830 C   0  0  0  0  0  0  0  0  0  0  0  0
   58.1460   28.3270   45.9730 C   0  0  0  0  0  0  0  0  0  0  0  0
   58.6633   28.9747   46.6961 H   0  0  0  0  0  0  0  0  0  0  0  0
   57.8290   28.8550   44.7690 C   0  0  0  0  0  0  0  0  0  0  0  0
   57.6120   30.1950   44.4190 C   0  0  0  0  0  0  0  0  0  0  0  0
   57.4000   31.3690   45.2980 C   0  0  0  0  0  0  0  0  0  0  0  0
   56.3930   32.0970   45.0960 O   0  0  0  0  0  0  0  0  0  0  0  0
   58.3710   31.7630   46.2960 N   0  0  0  0  0  0  0  0  0  0  0  0
   59.4820   30.8830   46.6770 C   0  0  0  0  0  0  0  0  0  0  0  0
   60.2509   30.9164   45.8911 H   0  0  0  0  0  0  0  0  0  0  0  0
   59.0902   29.8621   46.7961 H   0  0  0  0  0  0  0  0  0  0  0  0
   60.1100   31.3190   48.0100 C   0  0  0  0  0  0  0  0  0  0  0  0
   60.6193   30.4547   48.4612 H   0  0  0  0  0  0  0  0  0  0  0  0
   59.3028   31.6910   48.6581 H   0  0  0  0  0  0  0  0  0  0  0  0
   61.0970   32.4180   47.8330 N   0  0  0  0  0  0  0  0  0  0  0  0
   61.4060   33.1900   49.0820 C   0  0  0  0  0  0  0  0  0  0  0  0
   60.4470   33.6606   49.3443 H   0  0  0  0  0  0  0  0  0  0  0  0
   61.8680   32.3380   50.2920 C   0  0  0  0  0  0  0  0  0  0  0  0
   61.9595   32.9911   51.1724 H   0  0  0  0  0  0  0  0  0  0  0  0
   61.1195   31.5494   50.4590 H   0  0  0  0  0  0  0  0  0  0  0  0
   63.2270   31.6590   50.0320 C   0  0  0  0  0  0  0  0  0  0  0  0
   63.5353   31.1287   50.9451 H   0  0  0  0  0  0  0  0  0  0  0  0
   63.0962   30.9702   49.1844 H   0  0  0  0  0  0  0  0  0  0  0  0
   64.2870   32.6210   49.6640 N   0  0  0  0  0  0  0  0  0  0  0  0
   64.8070   33.3680   50.8250 C   0  0  0  0  0  0  0  0  0  0  0  0
   64.4699   32.8838   51.7534 H   0  0  0  0  0  0  0  0  0  0  0  0
   65.9065   33.3755   50.7936 H   0  0  0  0  0  0  0  0  0  0  0  0
   64.4323   34.4017   50.7936 H   0  0  0  0  0  0  0  0  0  0  0  0
   63.8800   33.5060   48.5530 C   0  0  0  0  0  0  0  0  0  0  0  0
   64.6574   34.2711   48.4103 H   0  0  0  0  0  0  0  0  0  0  0  0
   63.7559   32.8785   47.6581 H   0  0  0  0  0  0  0  0  0  0  0  0
   62.5370   34.2120   48.8140 C   0  0  0  0  0  0  0  0  0  0  0  0
   62.6418   34.8683   49.6906 H   0  0  0  0  0  0  0  0  0  0  0  0
   62.2724   34.7954   47.9198 H   0  0  0  0  0  0  0  0  0  0  0  0
   60.6410   33.3370   46.7520 C   0  0  0  0  0  0  0  0  0  0  0  0
   60.5476   32.7726   45.8125 H   0  0  0  0  0  0  0  0  0  0  0  0
   61.3786   34.1450   46.6373 H   0  0  0  0  0  0  0  0  0  0  0  0
   59.2860   33.9510   47.1070 C   0  0  0  0  0  0  0  0  0  0  0  0
   59.0548   34.7273   46.3627 H   0  0  0  0  0  0  0  0  0  0  0  0
   59.3804   34.3492   48.1280 H   0  0  0  0  0  0  0  0  0  0  0  0
   58.1160   32.9450   47.1340 C   0  0  0  0  0  0  0  0  0  0  0  0
   57.2092   33.4484   46.7676 H   0  0  0  0  0  0  0  0  0  0  0  0
   57.9953   32.5999   48.1715 H   0  0  0  0  0  0  0  0  0  0  0  0
   57.3110   30.1890   43.0680 C   0  0  0  0  0  0  0  0  0  0  0  0
   57.0739   31.0818   42.4708 H   0  0  0  0  0  0  0  0  0  0  0  0
   57.3500   28.9620   42.6040 O   0  0  0  0  0  0  0  0  0  0  0  0
   57.6480   28.1380   43.5820 C   0  0  0  0  0  0  0  0  0  0  0  0
   57.7680   26.8240   43.3910 C   0  0  0  0  0  0  0  0  0  0  0  0
   58.0190   26.1660   44.2360 H   0  0  0  0  0  0  0  0  0  0  0  0
   57.6160   26.3978   42.3884 H   0  0  0  0  0  0  0  0  0  0  0  0
   58.8550   26.1140   46.8840 C   0  0  0  0  0  0  0  0  0  0  0  0
   60.0350   26.5380   47.0100 O   0  0  0  0  0  0  0  0  0  0  0  0
   58.5690   24.8340   47.2170 N   0  0  0  0  0  0  0  0  0  0  0  0
   57.3240   24.3170   47.0480 C   0  0  0  0  0  0  0  0  0  0  0  0
   57.1160   23.1200   47.3810 O   0  0  0  0  0  0  0  0  0  0  0  0
   57.2000   23.5920   43.7510 C   0  0  0  0  0  0  0  0  0  0  0  0
   57.2195   24.6873   43.8510 H   0  0  0  0  0  0  0  0  0  0  0  0
   57.1691   23.2967   42.6918 H   0  0  0  0  0  0  0  0  0  0  0  0
   58.4840   23.0070   44.3810 C   0  0  0  0  0  0  0  0  0  0  0  0
   58.7404   23.6100   45.2645 H   0  0  0  0  0  0  0  0  0  0  0  0
   59.2609   23.0393   43.6029 H   0  0  0  0  0  0  0  0  0  0  0  0
   58.3570   21.5230   44.8240 C   0  0  0  0  0  0  0  0  0  0  0  0
   58.3918   21.4824   45.9227 H   0  0  0  0  0  0  0  0  0  0  0  0
   59.1901   20.9727   44.3624 H   0  0  0  0  0  0  0  0  0  0  0  0
   57.0540   20.8570   44.3520 C   0  0  0  0  0  0  0  0  0  0  0  0
   56.9352   19.8873   44.8575 H   0  0  0  0  0  0  0  0  0  0  0  0
   57.0971   20.7037   43.2636 H   0  0  0  0  0  0  0  0  0  0  0  0
  1  2  1  0
  2  3  2  0
  3  4  1  0
  4  5  1  0
  4  6  1  0
  4  7  1  0
  7  8  1  0
  7  9  1  0
  7 10  1  0
 10 11  1  0
 11 12  1  0
 11 13  2  0
 13 14  1  0
 14 15  1  0
 14 16  2  0
 16 17  1  0
 17 18  1  0
 18 19  2  0
 18 20  1  0
 20 21  1  0
 21 22  1  0
 21 23  1  0
 21 24  1  0
 24 25  1  0
 24 26  1  0
 24 27  1  0
 27 28  1  0
 28 29  1  0
 28 30  1  0
 30 31  1  0
 30 32  1  0
 30 33  1  0
 33 34  1  0
 33 35  1  0
 33 36  1  0
 36 37  1  0
 37 38  1  0
 37 39  1  0
 37 40  1  0
 36 41  1  0
 41 42  1  0
 41 43  1  0
 41 44  1  0
 44 45  1  0
 44 46  1  0
 27 47  1  0
 47 48  1  0
 47 49  1  0
 47 50  1  0
 50 51  1  0
 50 52  1  0
 50 53  1  0
 53 54  1  0
 53 55  1  0
 17 56  2  0
 56 57  1  0
 56 58  1  0
 58 59  1  0
 59 60  2  0
 60 61  1  0
 60 62  1  0
 13 63  1  0
 63 64  2  0
 63 65  1  0
 65 66  1  0
 66 67  2  0
  3 68  1  0
 68 69  1  0
 68 70  1  0
 68 71  1  0
 71 72  1  0
 71 73  1  0
 71 74  1  0
 74 75  1  0
 74 76  1  0
 74 77  1  0
 77 78  1  0
 77 79  1  0
 77  2  1  0
 66 10  1  0
 59 16  1  0
 53 20  1  0
 44 28  1  0
M  CHG  2  12  -1  65  -1
M  END
>  <UniqueID>  (30) 
28

>  <SMILES>  (30) 
C=c1occ(C(=O)N2CCCN(C3CCN(C)CC3)CC2)/c1=C\c1c([O-])n(CCC2=CCCCC2)c(=O)[n-]c1=O

>  <Energy>  (30) 
142.86095714214485

>  <Genealogy>  (30) 
C=c1occ(C(=O)N2CCCN(C3CCN(C)CC3)CC2)c1=Cc1c([O-])n(CCC2=CCCCC2)c(=O)[n-]c1=O (protonated)
C=c1occ(C(=O)N2CCCN(C3CCN(C)CC3)CC2)/c1=C\c1c([O-])n(CCC2=CCCCC2)c(=O)[n-]c1=O (cis-trans isomerization)
C=c1occ(C(=O)N2CCCN(C3CCN(C)CC3)CC2)/c1=C\c1c([O-])n(CCC2=CCCCC2)c(=O)[n-]c1=O (3D coordinates assigned)
C=c1occ(C(=O)N2CCCN(C3CCN(C)CC3)CC2)/c1=C\c1c([O-])n(CCC2=CCCCC2)c(=O)[n-]c1=O (nonaromatic ring conformer: 142.86095714214485 kcal/mol)

>  <smiles>  (30) 
C=c1occ(C(=O)N2CCCN(C3CCN(C)CC3)CC2)c1=Cc1c(O)n(CCC2=CCCCC2)c(=O)[nH]c1=O

>  <score_type>  (30) 
oracle

>  <origin>  (30) 
adg

>  <m_score__min__energy>  (30) 
-12.76

>  <m_primary>  (30) 
energy

$$$$
30:0
     RDKit          3D

 34 36  0  0  0  0  0  0  0  0999 V2000
   59.8300   35.3130   47.2910 O   0  0  0  0  0  0  0  0  0  0  0  0
   59.9950   34.0750   47.1340 C   0  0  0  0  0  0  0  0  0  0  0  0
   61.0170   33.4150   47.8920 N   0  0  0  0  0  0  0  0  0  0  0  0
   62.4180   33.8220   47.9160 C   0  0  0  0  0  0  0  0  0  0  0  0
   63.0410   33.8510   46.5330 C   0  0  0  0  0  0  0  0  0  0  0  0
   63.3830   32.7270   47.4990 C   0  0  0  0  0  0  0  0  0  0  0  0
   59.1590   33.3560   46.1500 C   0  0  0  0  0  0  0  0  0  0  0  0
   58.5210   34.0470   45.1080 C   0  0  0  0  0  0  0  0  0  0  0  0
   57.7550   33.3550   44.1690 C   0  0  0  0  0  0  0  0  0  0  0  0
   57.6190   31.9680   44.2600 C   0  0  0  0  0  0  0  0  0  0  0  0
   58.2440   31.2600   45.2960 C   0  0  0  0  0  0  0  0  0  0  0  0
   58.1120   29.8290   45.3510 N   0  0  0  0  0  0  0  0  0  0  0  0
   56.8530   29.1390   45.2710 C   0  0  0  0  0  0  0  0  0  0  0  0
   55.8250   29.7470   44.8660 O   0  0  0  0  0  0  0  0  0  0  0  0
   56.7640   27.7050   45.6260 C   0  0  0  0  0  0  0  0  0  0  0  0
   57.9130   26.9590   45.9300 C   0  0  0  0  0  0  0  0  0  0  0  0
   57.7680   25.6090   46.2530 C   0  0  0  0  0  0  0  0  0  0  0  0
   58.7800   24.9140   46.5320 O   0  0  0  0  0  0  0  0  0  0  0  0
   56.5340   25.0440   46.2680 N   0  0  0  0  0  0  0  0  0  0  0  0
   55.4290   25.7750   45.9710 C   0  0  0  0  0  0  0  0  0  0  0  0
   54.2940   25.2340   45.9880 O   0  0  0  0  0  0  0  0  0  0  0  0
   55.5500   27.0910   45.6540 N   0  0  0  0  0  0  0  0  0  0  0  0
   59.0360   31.9590   46.2250 C   0  0  0  0  0  0  0  0  0  0  0  0
   62.3570   34.5163   48.7670 H   0  0  0  0  0  0  0  0  0  0  0  0
   62.4227   33.6456   45.6467 H   0  0  0  0  0  0  0  0  0  0  0  0
   63.6226   34.5857   45.9568 H   0  0  0  0  0  0  0  0  0  0  0  0
   63.0120   31.7085   47.3117 H   0  0  0  0  0  0  0  0  0  0  0  0
   64.3142   32.3115   47.9115 H   0  0  0  0  0  0  0  0  0  0  0  0
   58.6253   35.1393   45.0312 H   0  0  0  0  0  0  0  0  0  0  0  0
   57.2573   33.9031   43.3554 H   0  0  0  0  0  0  0  0  0  0  0  0
   57.0177   31.4277   43.5140 H   0  0  0  0  0  0  0  0  0  0  0  0
   58.9880   29.2590   45.3540 H   0  0  0  0  0  0  0  0  0  0  0  0
   58.9076   27.4286   45.9141 H   0  0  0  0  0  0  0  0  0  0  0  0
   59.5634   31.4068   47.0168 H   0  0  0  0  0  0  0  0  0  0  0  0
  1  2  2  0
  2  3  1  0
  3  4  1  0
  4  5  1  0
  5  6  1  0
  2  7  1  0
  7  8  2  0
  8  9  1  0
  9 10  2  0
 10 11  1  0
 11 12  1  0
 12 13  1  0
 13 14  2  0
 13 15  1  0
 15 16  2  0
 16 17  1  0
 17 18  2  0
 17 19  1  0
 19 20  1  0
 20 21  2  0
 20 22  1  0
 11 23  2  0
  6  4  1  0
 23  7  1  0
 22 15  1  0
  4 24  1  0
  5 25  1  0
  5 26  1  0
  6 27  1  0
  6 28  1  0
  8 29  1  0
  9 30  1  0
 10 31  1  0
 12 32  1  0
 16 33  1  0
 23 34  1  0
M  CHG  3   3  -1  19  -1  22  -1
M  END
>  <UniqueID>  (31) 
29

>  <SMILES>  (31) 
O=C([N-]C1CC1)c1cccc(NC(=O)c2cc(=O)[n-]c(=O)[n-]2)c1

>  <Energy>  (31) 
308.7719168619949

>  <Genealogy>  (31) 
O=C([N-]C1CC1)c1cccc(NC(=O)c2cc(=O)[n-]c(=O)[n-]2)c1 (protonated)
O=C([N-]C1CC1)c1cccc(NC(=O)c2cc(=O)[n-]c(=O)[n-]2)c1 (3D coordinates assigned)
O=C([N-]C1CC1)c1cccc(NC(=O)c2cc(=O)[n-]c(=O)[n-]2)c1 (nonaromatic ring conformer: 308.7719168619949 kcal/mol)

>  <smiles>  (31) 
O=C(NC1CC1)c1cccc(NC(=O)c2cc(=O)[nH]c(=O)[nH]2)c1

>  <score_type>  (31) 
oracle

>  <origin>  (31) 
adg

>  <m_score__min__energy>  (31) 
-12.949999999999999

>  <m_primary>  (31) 
energy

$$$$
31:0
     RDKit          3D

 69 73  0  0  0  0  0  0  0  0999 V2000
   60.4720   27.2330   48.8620 O   0  0  0  0  0  0  0  0  0  0  0  0
   59.9480   28.1820   48.2170 C   0  0  0  0  0  0  0  0  0  0  0  0
   60.3460   29.5240   48.5310 N   0  0  0  0  0  0  0  0  0  0  0  0
   59.6430   30.4600   49.3650 C   0  0  0  0  0  0  0  0  0  0  0  0
   58.5130   30.0690   50.1040 C   0  0  0  0  0  0  0  0  0  0  0  0
   57.8190   31.0000   50.8830 C   0  0  0  0  0  0  0  0  0  0  0  0
   58.2380   32.3330   50.9220 C   0  0  0  0  0  0  0  0  0  0  0  0
   59.3340   32.7430   50.1620 C   0  0  0  0  0  0  0  0  0  0  0  0
   60.0390   31.8160   49.3740 C   0  0  0  0  0  0  0  0  0  0  0  0
   61.2040   32.2740   48.5900 C   0  0  0  0  0  0  0  0  0  0  0  0
   61.1150   32.3040   47.3290 O   0  0  0  0  0  0  0  0  0  0  0  0
   62.4410   32.6530   49.2290 N   0  0  0  0  0  0  0  0  0  0  0  0
   63.6700   32.7110   48.4270 C   0  0  0  0  0  0  0  0  0  0  0  0
   64.8690   33.1170   49.2880 C   0  0  0  0  0  0  0  0  0  0  0  0
   64.8370   32.3480   50.5480 N   0  0  0  0  0  0  0  0  0  0  0  0
   66.1010   32.5340   51.2960 C   0  0  0  0  0  0  0  0  0  0  0  0
   66.6350   33.9700   51.2350 C   0  0  0  0  0  0  0  0  0  0  0  0
   67.8810   33.4840   50.5140 C   0  0  0  0  0  0  0  0  0  0  0  0
   67.3380   32.0630   50.5240 C   0  0  0  0  0  0  0  0  0  0  0  0
   63.6710   32.7410   51.3870 C   0  0  0  0  0  0  0  0  0  0  0  0
   62.4530   33.2340   50.5780 C   0  0  0  0  0  0  0  0  0  0  0  0
   58.9090   27.8830   47.2060 C   0  0  0  0  0  0  0  0  0  0  0  0
   58.3280   26.6060   47.1200 C   0  0  0  0  0  0  0  0  0  0  0  0
   57.3580   26.3340   46.1510 C   0  0  0  0  0  0  0  0  0  0  0  0
   56.9620   27.3300   45.2550 C   0  0  0  0  0  0  0  0  0  0  0  0
   57.5370   28.6070   45.3250 C   0  0  0  0  0  0  0  0  0  0  0  0
   57.0760   29.8640   44.1760 S   0  0  0  0  0  0  0  0  0  0  0  0
   56.5430   29.2440   42.9130 O   0  0  0  0  0  0  0  0  0  0  0  0
   55.9900   30.7080   44.7840 O   0  0  0  0  0  0  0  0  0  0  0  0
   58.4480   30.8700   43.8200 N   0  0  0  0  0  0  0  0  0  0  0  0
   58.0080   32.2530   43.6140 C   0  0  0  0  0  0  0  0  0  0  0  0
   58.3000   33.0730   44.8400 C   0  0  0  0  0  0  0  0  0  0  0  0
   59.1860   34.1600   44.7700 C   0  0  0  0  0  0  0  0  0  0  0  0
   59.4810   34.9040   45.9170 C   0  0  0  0  0  0  0  0  0  0  0  0
   58.9000   34.5630   47.1420 C   0  0  0  0  0  0  0  0  0  0  0  0
   58.0290   33.4720   47.2230 C   0  0  0  0  0  0  0  0  0  0  0  0
   57.7330   32.7250   46.0780 C   0  0  0  0  0  0  0  0  0  0  0  0
   58.5140   28.8760   46.2920 C   0  0  0  0  0  0  0  0  0  0  0  0
   58.1724   29.0236   50.0693 H   0  0  0  0  0  0  0  0  0  0  0  0
   56.9418   30.6829   51.4661 H   0  0  0  0  0  0  0  0  0  0  0  0
   57.7034   33.0591   51.5521 H   0  0  0  0  0  0  0  0  0  0  0  0
   59.6482   33.7970   50.1794 H   0  0  0  0  0  0  0  0  0  0  0  0
   63.8608   31.7201   47.9891 H   0  0  0  0  0  0  0  0  0  0  0  0
   63.5365   33.4631   47.6355 H   0  0  0  0  0  0  0  0  0  0  0  0
   65.8020   32.9003   48.7471 H   0  0  0  0  0  0  0  0  0  0  0  0
   64.8216   34.1937   49.5079 H   0  0  0  0  0  0  0  0  0  0  0  0
   65.8248   32.0732   52.2559 H   0  0  0  0  0  0  0  0  0  0  0  0
   66.0120   34.6547   50.6409 H   0  0  0  0  0  0  0  0  0  0  0  0
   66.7242   34.5677   52.1542 H   0  0  0  0  0  0  0  0  0  0  0  0
   68.0103   33.9075   49.5071 H   0  0  0  0  0  0  0  0  0  0  0  0
   68.8790   33.6999   50.9231 H   0  0  0  0  0  0  0  0  0  0  0  0
   67.1162   31.6610   49.5244 H   0  0  0  0  0  0  0  0  0  0  0  0
   67.9526   31.2372   50.9119 H   0  0  0  0  0  0  0  0  0  0  0  0
   63.3617   31.8677   51.9801 H   0  0  0  0  0  0  0  0  0  0  0  0
   63.9993   33.5838   52.0131 H   0  0  0  0  0  0  0  0  0  0  0  0
   61.5315   32.9417   51.1028 H   0  0  0  0  0  0  0  0  0  0  0  0
   62.5161   34.3283   50.4854 H   0  0  0  0  0  0  0  0  0  0  0  0
   58.6385   25.8159   47.8195 H   0  0  0  0  0  0  0  0  0  0  0  0
   56.9053   25.3331   46.0938 H   0  0  0  0  0  0  0  0  0  0  0  0
   56.1983   27.1123   44.4938 H   0  0  0  0  0  0  0  0  0  0  0  0
   58.8490   30.5190   42.9210 H   0  0  0  0  0  0  0  0  0  0  0  0
   58.5428   32.6812   42.7534 H   0  0  0  0  0  0  0  0  0  0  0  0
   56.9249   32.2628   43.4223 H   0  0  0  0  0  0  0  0  0  0  0  0
   59.6500   34.4275   43.8092 H   0  0  0  0  0  0  0  0  0  0  0  0
   60.1710   35.7585   45.8552 H   0  0  0  0  0  0  0  0  0  0  0  0
   59.1280   35.1528   48.0421 H   0  0  0  0  0  0  0  0  0  0  0  0
   57.5762   33.2010   48.1881 H   0  0  0  0  0  0  0  0  0  0  0  0
   57.0541   31.8622   46.1468 H   0  0  0  0  0  0  0  0  0  0  0  0
   58.9765   29.8731   46.3368 H   0  0  0  0  0  0  0  0  0  0  0  0
  1  2  2  0
  2  3  1  0
  3  4  1  0
  4  5  2  0
  5  6  1  0
  6  7  2  0
  7  8  1  0
  8  9  2  0
  9 10  1  0
 10 11  2  0
 10 12  1  0
 12 13  1  0
 13 14  1  0
 14 15  1  0
 15 16  1  0
 16 17  1  0
 17 18  1  0
 18 19  1  0
 15 20  1  0
 20 21  1  0
  2 22  1  0
 22 23  2  0
 23 24  1  0
 24 25  2  0
 25 26  1  0
 26 27  1  0
 27 28  2  0
 27 29  2  0
 27 30  1  0
 30 31  1  0
 31 32  1  0
 32 33  2  0
 33 34  1  0
 34 35  2  0
 35 36  1  0
 36 37  2  0
 26 38  2  0
  9  4  1  0
 21 12  1  0
 38 22  1  0
 19 16  1  0
 37 32  1  0
  5 39  1  0
  6 40  1  0
  7 41  1  0
  8 42  1  0
 13 43  1  0
 13 44  1  0
 14 45  1  0
 14 46  1  0
 16 47  1  0
 17 48  1  0
 17 49  1  0
 18 50  1  0
 18 51  1  0
 19 52  1  0
 19 53  1  0
 20 54  1  0
 20 55  1  0
 21 56  1  0
 21 57  1  0
 23 58  1  0
 24 59  1  0
 25 60  1  0
 30 61  1  0
 31 62  1  0
 31 63  1  0
 33 64  1  0
 34 65  1  0
 35 66  1  0
 36 67  1  0
 37 68  1  0
 38 69  1  0
M  CHG  1   3  -1
M  END
>  <UniqueID>  (32) 
30

>  <SMILES>  (32) 
O=C([N-]c1ccccc1C(=O)N1CCN(C2CCC2)CC1)c1cccc(S(=O)(=O)NCc2ccccc2)c1

>  <Energy>  (32) 
149.86432340760828

>  <Genealogy>  (32) 
O=C([N-]c1ccccc1C(=O)N1CCN(C2CCC2)CC1)c1cccc(S(=O)(=O)NCc2ccccc2)c1 (protonated)
O=C([N-]c1ccccc1C(=O)N1CCN(C2CCC2)CC1)c1cccc(S(=O)(=O)NCc2ccccc2)c1 (3D coordinates assigned)
O=C([N-]c1ccccc1C(=O)N1CCN(C2CCC2)CC1)c1cccc(S(=O)(=O)NCc2ccccc2)c1 (nonaromatic ring conformer: 149.86432340760828 kcal/mol)

>  <smiles>  (32) 
O=C(Nc1ccccc1C(=O)N1CCN(C2CCC2)CC1)c1cccc(S(=O)(=O)NCc2ccccc2)c1

>  <score_type>  (32) 
oracle

>  <origin>  (32) 
adg

>  <m_score__min__energy>  (32) 
-11.91

>  <m_primary>  (32) 
energy

$$$$
32:0
     RDKit          3D

 52 54  0  0  0  0  0  0  0  0999 V2000
   58.2350   34.6220   44.9030 C   0  0  0  0  0  0  0  0  0  0  0  0
   57.0750   33.7950   45.4480 C   0  0  0  0  0  0  0  0  0  0  0  0
   57.3980   32.3290   45.4070 C   0  0  0  0  0  0  0  0  0  0  0  0
   56.6460   31.4410   44.7320 N   0  0  0  0  0  0  0  0  0  0  0  0
   57.2170   30.2500   45.0140 C   0  0  0  0  0  0  0  0  0  0  0  0
   56.6710   28.9480   44.5190 C   0  0  0  0  0  0  0  0  0  0  0  0
   56.7540   27.8830   45.6160 C   0  0  0  0  0  0  0  0  0  0  0  0
   55.5210   27.0950   45.6810 N   0  0  0  0  0  0  0  0  0  0  0  0
   55.8290   25.4100   46.0030 S   0  0  0  0  0  0  0  0  0  0  0  0
   56.9360   24.7720   44.7650 C   0  0  0  0  0  0  0  0  0  0  0  0
   56.4360   25.2030   47.3650 O   0  0  0  0  0  0  0  0  0  0  0  0
   54.5320   24.6570   45.9260 O   0  0  0  0  0  0  0  0  0  0  0  0
   58.2710   30.3340   45.8520 N   0  0  0  0  0  0  0  0  0  0  0  0
   58.3990   31.6520   46.0870 C   0  0  0  0  0  0  0  0  0  0  0  0
   59.4370   32.2080   46.9820 C   0  0  0  0  0  0  0  0  0  0  0  0
   59.2310   32.2000   48.3670 C   0  0  0  0  0  0  0  0  0  0  0  0
   60.2060   32.7030   49.2310 C   0  0  0  0  0  0  0  0  0  0  0  0
   61.4160   33.2090   48.7280 C   0  0  0  0  0  0  0  0  0  0  0  0
   62.4150   33.7570   49.6750 C   0  0  0  0  0  0  0  0  0  0  0  0
   62.5840   35.0050   49.7450 O   0  0  0  0  0  0  0  0  0  0  0  0
   63.1540   32.8900   50.5560 N   0  0  0  0  0  0  0  0  0  0  0  0
   63.7820   31.6720   50.0330 C   0  0  0  0  0  0  0  0  0  0  0  0
   63.9420   30.6500   51.1630 C   0  0  0  0  0  0  0  0  0  0  0  0
   64.6140   31.2250   52.2670 O   0  0  0  0  0  0  0  0  0  0  0  0
   63.8240   32.2550   52.8270 C   0  0  0  0  0  0  0  0  0  0  0  0
   63.6470   33.4100   51.8350 C   0  0  0  0  0  0  0  0  0  0  0  0
   61.6360   33.1970   47.3330 C   0  0  0  0  0  0  0  0  0  0  0  0
   63.1540   33.7390   46.6220 Cl  0  0  0  0  0  0  0  0  0  0  0  0
   60.6530   32.6910   46.4740 C   0  0  0  0  0  0  0  0  0  0  0  0
   58.8156   35.0359   45.7406 H   0  0  0  0  0  0  0  0  0  0  0  0
   58.8844   33.9819   44.2877 H   0  0  0  0  0  0  0  0  0  0  0  0
   57.8416   35.4446   44.2877 H   0  0  0  0  0  0  0  0  0  0  0  0
   56.8785   34.0918   46.4888 H   0  0  0  0  0  0  0  0  0  0  0  0
   56.1883   33.9777   44.8232 H   0  0  0  0  0  0  0  0  0  0  0  0
   55.6199   29.0841   44.2248 H   0  0  0  0  0  0  0  0  0  0  0  0
   57.2656   28.6172   43.6547 H   0  0  0  0  0  0  0  0  0  0  0  0
   57.5985   27.2115   45.4015 H   0  0  0  0  0  0  0  0  0  0  0  0
   56.8970   28.3879   46.5827 H   0  0  0  0  0  0  0  0  0  0  0  0
   57.7894   24.2802   45.2547 H   0  0  0  0  0  0  0  0  0  0  0  0
   56.4030   24.0425   44.1374 H   0  0  0  0  0  0  0  0  0  0  0  0
   57.3000   25.5988   44.1374 H   0  0  0  0  0  0  0  0  0  0  0  0
   58.2944   31.7946   48.7774 H   0  0  0  0  0  0  0  0  0  0  0  0
   60.0247   32.7030   50.3160 H   0  0  0  0  0  0  0  0  0  0  0  0
   63.1496   31.2454   49.2405 H   0  0  0  0  0  0  0  0  0  0  0  0
   64.7717   31.9193   49.6214 H   0  0  0  0  0  0  0  0  0  0  0  0
   62.9470   30.3083   51.4842 H   0  0  0  0  0  0  0  0  0  0  0  0
   64.5355   29.8019   50.7908 H   0  0  0  0  0  0  0  0  0  0  0  0
   62.8353   31.8493   53.0874 H   0  0  0  0  0  0  0  0  0  0  0  0
   64.3311   32.6378   53.7249 H   0  0  0  0  0  0  0  0  0  0  0  0
   62.9229   34.1323   52.2399 H   0  0  0  0  0  0  0  0  0  0  0  0
   64.6154   33.9075   51.6777 H   0  0  0  0  0  0  0  0  0  0  0  0
   60.8356   32.6718   45.3894 H   0  0  0  0  0  0  0  0  0  0  0  0
  1  2  1  0
  2  3  1  0
  3  4  1  0
  4  5  1  0
  5  6  1  0
  6  7  1  0
  7  8  1  0
  8  9  1  0
  9 10  1  0
  9 11  2  0
  9 12  2  0
  5 13  2  0
 13 14  1  0
 14 15  1  0
 15 16  2  0
 16 17  1  0
 17 18  2  0
 18 19  1  0
 19 20  2  0
 19 21  1  0
 21 22  1  0
 22 23  1  0
 23 24  1  0
 24 25  1  0
 25 26  1  0
 18 27  1  0
 27 28  1  0
 27 29  2  0
 14  3  2  0
 29 15  1  0
 26 21  1  0
  1 30  1  0
  1 31  1  0
  1 32  1  0
  2 33  1  0
  2 34  1  0
  6 35  1  0
  6 36  1  0
  7 37  1  0
  7 38  1  0
 10 39  1  0
 10 40  1  0
 10 41  1  0
 16 42  1  0
 17 43  1  0
 22 44  1  0
 22 45  1  0
 23 46  1  0
 23 47  1  0
 25 48  1  0
 25 49  1  0
 26 50  1  0
 26 51  1  0
 29 52  1  0
M  CHG  2   4  -1   8  -1
M  END
>  <UniqueID>  (33) 
31

>  <SMILES>  (33) 
CCc1[n-]c(CC[N-]S(C)(=O)=O)nc1-c1ccc(C(=O)N2CCOCC2)c(Cl)c1

>  <Energy>  (33) 
82.05431939616587

>  <Genealogy>  (33) 
CCc1[n-]c(CC[N-]S(C)(=O)=O)nc1-c1ccc(C(=O)N2CCOCC2)c(Cl)c1 (protonated)
CCc1[n-]c(CC[N-]S(C)(=O)=O)nc1-c1ccc(C(=O)N2CCOCC2)c(Cl)c1 (3D coordinates assigned)
CCc1[n-]c(CC[N-]S(C)(=O)=O)nc1-c1ccc(C(=O)N2CCOCC2)c(Cl)c1 (nonaromatic ring conformer: 82.05431939616587 kcal/mol)

>  <smiles>  (33) 
CCc1[nH]c(CCNS(C)(=O)=O)nc1-c1ccc(C(=O)N2CCOCC2)c(Cl)c1

>  <score_type>  (33) 
oracle

>  <origin>  (33) 
adg

>  <m_score__min__energy>  (33) 
-11.949999999999999

>  <m_primary>  (33) 
energy

$$$$
33:0
     RDKit          3D

 53 56  0  0  0  0  0  0  0  0999 V2000
   57.1280   31.1710   42.7540 C   0  0  0  0  0  0  0  0  0  0  0  0
   57.3640   31.2000   44.0760 C   0  0  0  0  0  0  0  0  0  0  0  0
   57.1830   30.1480   44.9910 C   0  0  0  0  0  0  0  0  0  0  0  0
   56.5650   28.9580   44.8610 C   0  0  0  0  0  0  0  0  0  0  0  0
   56.9940   27.7020   45.4910 C   0  0  0  0  0  0  0  0  0  0  0  0
   58.2840   27.3920   45.7400 N   0  0  0  0  0  0  0  0  0  0  0  0
   58.2090   26.2020   46.3770 C   0  0  0  0  0  0  0  0  0  0  0  0
   59.2290   25.5620   46.7480 O   0  0  0  0  0  0  0  0  0  0  0  0
   56.9460   25.7700   46.5740 N   0  0  0  0  0  0  0  0  0  0  0  0
   56.5070   24.4920   47.1310 C   0  0  0  0  0  0  0  0  0  0  0  0
   56.8650   23.3810   46.1920 C   0  0  0  0  0  0  0  0  0  0  0  0
   56.6360   23.5080   44.8130 C   0  0  0  0  0  0  0  0  0  0  0  0
   56.9260   22.4330   43.9700 C   0  0  0  0  0  0  0  0  0  0  0  0
   57.4290   21.2460   44.5050 C   0  0  0  0  0  0  0  0  0  0  0  0
   57.6320   21.1490   45.8830 C   0  0  0  0  0  0  0  0  0  0  0  0
   57.3430   22.2070   46.6900 N   0  0  0  0  0  0  0  0  0  0  0  0
   56.1790   26.7210   46.0200 C   0  0  0  0  0  0  0  0  0  0  0  0
   54.7890   26.7040   46.0000 O   0  0  0  0  0  0  0  0  0  0  0  0
   57.7780   30.5560   46.1710 C   0  0  0  0  0  0  0  0  0  0  0  0
   58.2450   31.8370   45.9650 C   0  0  0  0  0  0  0  0  0  0  0  0
   58.9310   32.6670   47.0170 C   0  0  0  0  0  0  0  0  0  0  0  0
   60.1800   31.9830   47.5090 C   0  0  0  0  0  0  0  0  0  0  0  0
   60.0780   30.8570   48.0700 O   0  0  0  0  0  0  0  0  0  0  0  0
   61.4840   32.5580   47.3120 N   0  0  0  0  0  0  0  0  0  0  0  0
   62.6920   31.9640   47.8590 C   0  0  0  0  0  0  0  0  0  0  0  0
   63.8160   32.9360   47.5220 C   0  0  0  0  0  0  0  0  0  0  0  0
   63.2690   33.8380   46.4190 C   0  0  0  0  0  0  0  0  0  0  0  0
   61.7530   33.7460   46.5210 C   0  0  0  0  0  0  0  0  0  0  0  0
   57.9670   32.2430   44.7040 N   0  0  0  0  0  0  0  0  0  0  0  0
   58.3600   33.5220   44.0990 C   0  0  0  0  0  0  0  0  0  0  0  0
   57.3110   32.0671   42.1428 H   0  0  0  0  0  0  0  0  0  0  0  0
   56.7517   30.2512   42.2825 H   0  0  0  0  0  0  0  0  0  0  0  0
   55.6642   28.9239   44.2307 H   0  0  0  0  0  0  0  0  0  0  0  0
   57.0021   24.3260   48.0992 H   0  0  0  0  0  0  0  0  0  0  0  0
   55.4162   24.5120   47.2718 H   0  0  0  0  0  0  0  0  0  0  0  0
   56.2323   24.4445   44.4006 H   0  0  0  0  0  0  0  0  0  0  0  0
   56.7583   22.5216   42.8865 H   0  0  0  0  0  0  0  0  0  0  0  0
   57.6631   20.3956   43.8477 H   0  0  0  0  0  0  0  0  0  0  0  0
   58.0254   20.2178   46.3167 H   0  0  0  0  0  0  0  0  0  0  0  0
   57.8626   29.9698   47.0980 H   0  0  0  0  0  0  0  0  0  0  0  0
   59.2001   33.6432   46.5872 H   0  0  0  0  0  0  0  0  0  0  0  0
   58.2436   32.7982   47.8657 H   0  0  0  0  0  0  0  0  0  0  0  0
   62.6016   31.8446   48.9488 H   0  0  0  0  0  0  0  0  0  0  0  0
   62.8794   30.9643   47.4401 H   0  0  0  0  0  0  0  0  0  0  0  0
   64.0847   33.5323   48.4064 H   0  0  0  0  0  0  0  0  0  0  0  0
   64.7251   32.4075   47.1992 H   0  0  0  0  0  0  0  0  0  0  0  0
   63.6009   34.8754   46.5728 H   0  0  0  0  0  0  0  0  0  0  0  0
   63.6274   33.5267   45.4267 H   0  0  0  0  0  0  0  0  0  0  0  0
   61.3472   34.6387   47.0194 H   0  0  0  0  0  0  0  0  0  0  0  0
   61.2819   33.6884   45.5286 H   0  0  0  0  0  0  0  0  0  0  0  0
   58.5836   34.2498   44.8929 H   0  0  0  0  0  0  0  0  0  0  0  0
   59.2539   33.3733   43.4754 H   0  0  0  0  0  0  0  0  0  0  0  0
   57.5369   33.9009   43.4754 H   0  0  0  0  0  0  0  0  0  0  0  0
  1  2  2  0
  2  3  1  0
  3  4  2  3
  4  5  1  0
  5  6  1  0
  6  7  1  0
  7  8  2  0
  7  9  1  0
  9 10  1  0
 10 11  1  0
 11 12  2  0
 12 13  1  0
 13 14  2  0
 14 15  1  0
 15 16  2  0
  9 17  1  0
 17 18  1  0
  3 19  1  0
 19 20  2  0
 20 21  1  0
 21 22  1  0
 22 23  2  0
 22 24  1  0
 24 25  1  0
 25 26  1  0
 26 27  1  0
 27 28  1  0
 20 29  1  0
 29 30  1  0
 29  2  1  0
 17  5  2  0
 28 24  1  0
 16 11  1  0
  1 31  1  0
  1 32  1  0
  4 33  1  0
 10 34  1  0
 10 35  1  0
 12 36  1  0
 13 37  1  0
 14 38  1  0
 15 39  1  0
 19 40  1  0
 21 41  1  0
 21 42  1  0
 25 43  1  0
 25 44  1  0
 26 45  1  0
 26 46  1  0
 27 47  1  0
 27 48  1  0
 28 49  1  0
 28 50  1  0
 30 51  1  0
 30 52  1  0
 30 53  1  0
M  CHG  2   6  -1  18  -1
M  END
>  <UniqueID>  (34) 
32

>  <SMILES>  (34) 
C=c1c(=Cc2[n-]c(=O)n(Cc3ccccn3)c2[O-])cc(CC(=O)N2CCCC2)n1C

>  <Energy>  (34) 
124.89731160790981

>  <Genealogy>  (34) 
C=c1c(=Cc2[n-]c(=O)n(Cc3ccccn3)c2[O-])cc(CC(=O)N2CCCC2)n1C (protonated)
C=c1c(=Cc2[n-]c(=O)n(Cc3ccccn3)c2[O-])cc(CC(=O)N2CCCC2)n1C (3D coordinates assigned)
C=c1c(=Cc2[n-]c(=O)n(Cc3ccccn3)c2[O-])cc(CC(=O)N2CCCC2)n1C (nonaromatic ring conformer: 124.89731160790981 kcal/mol)

>  <smiles>  (34) 
C=c1c(=Cc2[nH]c(=O)n(Cc3ccccn3)c2O)cc(CC(=O)N2CCCC2)n1C

>  <score_type>  (34) 
oracle

>  <origin>  (34) 
adg

>  <m_score__min__energy>  (34) 
-14.390000000000001

>  <m_primary>  (34) 
energy

$$$$
34:0
     RDKit          3D

 44 46  0  0  0  0  0  0  0  0999 V2000
   55.9030   27.9050   44.5820 H   0  0  0  0  0  0  0  0  0  0  0  0
   55.6620   28.8820   44.8630 N   0  0  0  0  0  0  0  0  0  0  0  0
   56.5720   29.7200   45.2450 C   0  0  0  0  0  0  0  0  0  0  0  0
   56.5370   31.0090   44.8150 N   0  0  0  0  0  0  0  0  0  0  0  0
   57.4640   31.9280   45.2000 C   0  0  0  0  0  0  0  0  0  0  0  0
   58.5160   31.5480   46.0610 C   0  0  0  0  0  0  0  0  0  0  0  0
   58.5770   30.2080   46.4900 C   0  0  0  0  0  0  0  0  0  0  0  0
   59.3986   29.8787   47.1432 H   0  0  0  0  0  0  0  0  0  0  0  0
   57.6000   29.2970   46.0900 C   0  0  0  0  0  0  0  0  0  0  0  0
   57.6388   28.2540   46.4372 H   0  0  0  0  0  0  0  0  0  0  0  0
   59.4930   32.5310   46.4820 N   0  0  0  0  0  0  0  0  0  0  0  0
   60.4320   32.2730   47.5430 C   0  0  0  0  0  0  0  0  0  0  0  0
   61.5910   31.8720   47.2520 O   0  0  0  0  0  0  0  0  0  0  0  0
   60.0710   32.5110   48.9620 C   0  0  0  0  0  0  0  0  0  0  0  0
   61.0040   33.0730   49.8460 C   0  0  0  0  0  0  0  0  0  0  0  0
   62.0070   33.3411   49.4825 H   0  0  0  0  0  0  0  0  0  0  0  0
   60.6700   33.2950   51.1840 C   0  0  0  0  0  0  0  0  0  0  0  0
   61.4145   33.7314   51.8661 H   0  0  0  0  0  0  0  0  0  0  0  0
   59.3950   32.9670   51.6660 C   0  0  0  0  0  0  0  0  0  0  0  0
   59.0630   33.2480   53.1070 C   0  0  0  0  0  0  0  0  0  0  0  0
   59.7400   32.6750   53.7577 H   0  0  0  0  0  0  0  0  0  0  0  0
   59.1834   34.3227   53.3082 H   0  0  0  0  0  0  0  0  0  0  0  0
   58.0230   32.9516   53.3082 H   0  0  0  0  0  0  0  0  0  0  0  0
   58.4590   32.3690   50.7900 C   0  0  0  0  0  0  0  0  0  0  0  0
   57.1520   31.9800   51.2370 N   0  0  0  0  0  0  0  0  0  0  0  0
   56.3570   32.6340   51.0550 H   0  0  0  0  0  0  0  0  0  0  0  0
   56.8570   30.6470   51.6750 C   0  0  0  0  0  0  0  0  0  0  0  0
   57.7450   29.7520   51.6200 O   0  0  0  0  0  0  0  0  0  0  0  0
   55.5050   30.3270   52.1680 C   0  0  0  0  0  0  0  0  0  0  0  0
   55.4015   29.6358   53.0174 H   0  0  0  0  0  0  0  0  0  0  0  0
   54.4040   30.8430   51.6240 C   0  0  0  0  0  0  0  0  0  0  0  0
   53.4152   30.5757   52.0250 H   0  0  0  0  0  0  0  0  0  0  0  0
   54.4836   31.5364   50.7738 H   0  0  0  0  0  0  0  0  0  0  0  0
   58.7930   32.1790   49.4430 C   0  0  0  0  0  0  0  0  0  0  0  0
   58.0444   31.7641   48.7520 H   0  0  0  0  0  0  0  0  0  0  0  0
   59.5800   33.8100   45.7690 C   0  0  0  0  0  0  0  0  0  0  0  0
   60.1316   33.6663   44.8282 H   0  0  0  0  0  0  0  0  0  0  0  0
   60.1057   34.5414   46.4005 H   0  0  0  0  0  0  0  0  0  0  0  0
   58.1760   34.3300   45.4590 C   0  0  0  0  0  0  0  0  0  0  0  0
   58.2551   35.2754   44.9023 H   0  0  0  0  0  0  0  0  0  0  0  0
   57.6395   34.4906   46.4058 H   0  0  0  0  0  0  0  0  0  0  0  0
   57.4000   33.3130   44.6170 C   0  0  0  0  0  0  0  0  0  0  0  0
   57.8280   33.2913   43.6039 H   0  0  0  0  0  0  0  0  0  0  0  0
   56.3450   33.6239   44.5985 H   0  0  0  0  0  0  0  0  0  0  0  0
  1  2  1  0
  2  3  2  0
  3  4  1  0
  4  5  1  0
  5  6  2  0
  6  7  1  0
  7  8  1  0
  7  9  2  0
  9 10  1  0
  6 11  1  0
 11 12  1  0
 12 13  2  0
 12 14  1  0
 14 15  2  0
 15 16  1  0
 15 17  1  0
 17 18  1  0
 17 19  2  0
 19 20  1  0
 20 21  1  0
 20 22  1  0
 20 23  1  0
 19 24  1  0
 24 25  1  0
 25 26  1  0
 25 27  1  0
 27 28  2  0
 27 29  1  0
 29 30  1  0
 29 31  2  0
 31 32  1  0
 31 33  1  0
 24 34  2  0
 34 35  1  0
 11 36  1  0
 36 37  1  0
 36 38  1  0
 36 39  1  0
 39 40  1  0
 39 41  1  0
 39 42  1  0
 42 43  1  0
 42 44  1  0
  9  3  1  0
 34 14  1  0
 42  5  1  0
M  CHG  1   4  -1
M  END
>  <UniqueID>  (35) 
33

>  <SMILES>  (35) 
[H]/N=c1/ccc2c([n-]1)CCCN2C(=O)c1ccc(C)c(NC(=O)C=C)c1

>  <Energy>  (35) 
56.12366620126702

>  <Genealogy>  (35) 
C=CC(=O)Nc1cc(C(=O)N2CCCc3[n-]c(=N)ccc32)ccc1C (protonated)
[H]/N=c1/ccc2c([n-]1)CCCN2C(=O)c1ccc(C)c(NC(=O)C=C)c1 (cis-trans isomerization)
[H]/N=c1/ccc2c([n-]1)CCCN2C(=O)c1ccc(C)c(NC(=O)C=C)c1 (3D coordinates assigned)
[H]/N=c1/ccc2c([n-]1)CCCN2C(=O)c1ccc(C)c(NC(=O)C=C)c1 (nonaromatic ring conformer: 56.12366620126702 kcal/mol)

>  <smiles>  (35) 
C=CC(=O)Nc1cc(C(=O)N2CCCc3[nH]c(=N)ccc32)ccc1C

>  <score_type>  (35) 
oracle

>  <origin>  (35) 
adg

>  <m_score__min__energy>  (35) 
-10.279999999999999

>  <m_primary>  (35) 
energy

$$$$
35:0
     RDKit          3D

 60 63  0  0  0  0  0  0  0  0999 V2000
   55.2320   29.3610   45.2390 O   0  0  0  0  0  0  0  0  0  0  0  0
   56.3450   29.6140   44.7090 C   0  0  0  0  0  0  0  0  0  0  0  0
   56.6400   30.9660   44.3460 N   0  0  0  0  0  0  0  0  0  0  0  0
   57.5620   31.8250   45.0350 C   0  0  0  0  0  0  0  0  0  0  0  0
   57.8000   31.6040   46.3960 C   0  0  0  0  0  0  0  0  0  0  0  0
   58.6160   32.4760   47.1230 C   0  0  0  0  0  0  0  0  0  0  0  0
   59.2010   33.5880   46.4980 C   0  0  0  0  0  0  0  0  0  0  0  0
   59.9600   34.6040   47.3190 C   0  0  0  0  0  0  0  0  0  0  0  0
   61.3130   34.0890   47.7360 C   0  0  0  0  0  0  0  0  0  0  0  0
   62.1860   33.5400   46.7830 C   0  0  0  0  0  0  0  0  0  0  0  0
   63.4390   33.0490   47.1720 C   0  0  0  0  0  0  0  0  0  0  0  0
   63.8300   33.1120   48.5120 C   0  0  0  0  0  0  0  0  0  0  0  0
   62.9690   33.6700   49.4650 C   0  0  0  0  0  0  0  0  0  0  0  0
   61.7180   34.1570   49.0820 C   0  0  0  0  0  0  0  0  0  0  0  0
   58.9610   33.8120   45.1280 C   0  0  0  0  0  0  0  0  0  0  0  0
   58.1520   32.9300   44.3990 C   0  0  0  0  0  0  0  0  0  0  0  0
   57.3970   28.5210   44.5710 C   0  0  0  0  0  0  0  0  0  0  0  0
   58.7520   29.1210   44.1040 C   0  0  0  0  0  0  0  0  0  0  0  0
   59.9320   28.6140   44.9460 C   0  0  0  0  0  0  0  0  0  0  0  0
   59.6650   28.8870   46.3710 N   0  0  0  0  0  0  0  0  0  0  0  0
   60.5230   29.8220   47.1000 C   0  0  0  0  0  0  0  0  0  0  0  0
   61.3790   30.4660   46.4320 O   0  0  0  0  0  0  0  0  0  0  0  0
   60.6500   29.9880   48.5920 C   0  0  0  0  0  0  0  0  0  0  0  0
   60.4260   30.9860   49.4620 C   0  0  0  0  0  0  0  0  0  0  0  0
   59.3100   31.1950   50.3900 C   0  0  0  0  0  0  0  0  0  0  0  0
   58.9220   32.5060   50.7160 C   0  0  0  0  0  0  0  0  0  0  0  0
   57.8320   32.7260   51.5630 C   0  0  0  0  0  0  0  0  0  0  0  0
   57.0420   31.6450   51.9780 C   0  0  0  0  0  0  0  0  0  0  0  0
   55.9070   31.8990   52.7520 O   0  0  0  0  0  0  0  0  0  0  0  0
   57.4120   30.3340   51.6350 C   0  0  0  0  0  0  0  0  0  0  0  0
   56.6400   29.2560   52.0540 O   0  0  0  0  0  0  0  0  0  0  0  0
   58.5630   30.1120   50.8660 C   0  0  0  0  0  0  0  0  0  0  0  0
   58.4180   28.3480   46.9190 C   0  0  0  0  0  0  0  0  0  0  0  0
   57.5250   27.6710   45.8580 C   0  0  0  0  0  0  0  0  0  0  0  0
   57.3421   30.7385   46.8973 H   0  0  0  0  0  0  0  0  0  0  0  0
   58.8006   32.2893   48.1912 H   0  0  0  0  0  0  0  0  0  0  0  0
   60.0956   35.5163   46.7196 H   0  0  0  0  0  0  0  0  0  0  0  0
   59.3780   34.8114   48.2291 H   0  0  0  0  0  0  0  0  0  0  0  0
   61.8846   33.4953   45.7260 H   0  0  0  0  0  0  0  0  0  0  0  0
   64.1156   32.6135   46.4220 H   0  0  0  0  0  0  0  0  0  0  0  0
   64.8127   32.7238   48.8178 H   0  0  0  0  0  0  0  0  0  0  0  0
   63.2794   33.7248   50.5189 H   0  0  0  0  0  0  0  0  0  0  0  0
   61.0465   34.5954   49.8349 H   0  0  0  0  0  0  0  0  0  0  0  0
   59.4105   34.6829   44.6284 H   0  0  0  0  0  0  0  0  0  0  0  0
   57.9786   33.1032   43.3267 H   0  0  0  0  0  0  0  0  0  0  0  0
   57.0645   27.8230   43.7885 H   0  0  0  0  0  0  0  0  0  0  0  0
   58.9202   28.8410   43.0536 H   0  0  0  0  0  0  0  0  0  0  0  0
   58.6967   30.2131   44.2233 H   0  0  0  0  0  0  0  0  0  0  0  0
   60.0528   27.5311   44.7954 H   0  0  0  0  0  0  0  0  0  0  0  0
   60.8537   29.1292   44.6378 H   0  0  0  0  0  0  0  0  0  0  0  0
   61.0124   29.0745   49.0861 H   0  0  0  0  0  0  0  0  0  0  0  0
   61.1995   31.7679   49.4816 H   0  0  0  0  0  0  0  0  0  0  0  0
   59.4776   33.3611   50.3035 H   0  0  0  0  0  0  0  0  0  0  0  0
   57.5948   33.7449   51.9030 H   0  0  0  0  0  0  0  0  0  0  0  0
   55.3200   31.1550   53.1070 H   0  0  0  0  0  0  0  0  0  0  0  0
   58.8796   29.0839   50.6363 H   0  0  0  0  0  0  0  0  0  0  0  0
   58.6685   27.6044   47.6899 H   0  0  0  0  0  0  0  0  0  0  0  0
   57.8498   29.1961   47.3287 H   0  0  0  0  0  0  0  0  0  0  0  0
   57.9629   26.6964   45.5965 H   0  0  0  0  0  0  0  0  0  0  0  0
   56.5189   27.5563   46.2877 H   0  0  0  0  0  0  0  0  0  0  0  0
  1  2  2  0
  2  3  1  0
  3  4  1  0
  4  5  2  0
  5  6  1  0
  6  7  2  0
  7  8  1  0
  8  9  1  0
  9 10  2  0
 10 11  1  0
 11 12  2  0
 12 13  1  0
 13 14  2  0
  7 15  1  0
 15 16  2  0
  2 17  1  0
 17 18  1  0
 18 19  1  0
 19 20  1  0
 20 21  1  0
 21 22  2  0
 21 23  1  0
 23 24  2  3
 24 25  1  0
 25 26  2  0
 26 27  1  0
 27 28  2  0
 28 29  1  0
 28 30  1  0
 30 31  1  0
 30 32  2  0
 20 33  1  0
 33 34  1  0
 16  4  1  0
 34 17  1  0
 14  9  1  0
 32 25  1  0
  5 35  1  0
  6 36  1  0
  8 37  1  0
  8 38  1  0
 10 39  1  0
 11 40  1  0
 12 41  1  0
 13 42  1  0
 14 43  1  0
 15 44  1  0
 16 45  1  0
 17 46  1  0
 18 47  1  0
 18 48  1  0
 19 49  1  0
 19 50  1  0
 23 51  1  0
 24 52  1  0
 26 53  1  0
 27 54  1  0
 29 55  1  0
 32 56  1  0
 33 57  1  0
 33 58  1  0
 34 59  1  0
 34 60  1  0
M  CHG  2   3  -1  31  -1
M  END
>  <UniqueID>  (36) 
34

>  <SMILES>  (36) 
O=C([N-]c1ccc(Cc2ccccc2)cc1)C1CCN(C(=O)C=Cc2ccc(O)c([O-])c2)CC1

>  <Energy>  (36) 
105.26070665761026

>  <Genealogy>  (36) 
O=C([N-]c1ccc(Cc2ccccc2)cc1)C1CCN(C(=O)C=Cc2ccc(O)c([O-])c2)CC1 (protonated)
O=C([N-]c1ccc(Cc2ccccc2)cc1)C1CCN(C(=O)C=Cc2ccc(O)c([O-])c2)CC1 (3D coordinates assigned)
O=C([N-]c1ccc(Cc2ccccc2)cc1)C1CCN(C(=O)C=Cc2ccc(O)c([O-])c2)CC1 (nonaromatic ring conformer: 105.26070665761026 kcal/mol)

>  <smiles>  (36) 
O=C(Nc1ccc(Cc2ccccc2)cc1)C1CCN(C(=O)C=Cc2ccc(O)c(O)c2)CC1

>  <score_type>  (36) 
oracle

>  <origin>  (36) 
adg

>  <m_score__min__energy>  (36) 
-16.109999999999999

>  <m_primary>  (36) 
energy

$$$$
36:0
     RDKit          3D

 58 61  0  0  0  0  0  0  0  0999 V2000
   56.6630   29.2560   44.6990 C   0  0  0  0  0  0  0  0  0  0  0  0
   57.5310   28.6920   43.8560 C   0  0  0  0  0  0  0  0  0  0  0  0
   58.7770   28.0230   44.3630 C   0  0  0  0  0  0  0  0  0  0  0  0
   58.4970   27.2860   45.5980 N   0  0  0  0  0  0  0  0  0  0  0  0
   57.8720   26.0990   45.7520 C   0  0  0  0  0  0  0  0  0  0  0  0
   57.3380   25.2410   44.6410 C   0  0  0  0  0  0  0  0  0  0  0  0
   55.9750   24.7120   44.9710 C   0  0  0  0  0  0  0  0  0  0  0  0
   55.4390   23.1470   44.6420 S   0  0  0  0  0  0  0  0  0  0  0  0
   53.9240   23.4370   45.3170 C   0  0  0  0  0  0  0  0  0  0  0  0
   52.9690   22.5700   45.3760 N   0  0  0  0  0  0  0  0  0  0  0  0
   53.8020   24.6910   45.8030 N   0  0  0  0  0  0  0  0  0  0  0  0
   54.9470   25.4000   45.6140 C   0  0  0  0  0  0  0  0  0  0  0  0
   55.0660   26.7170   46.0370 O   0  0  0  0  0  0  0  0  0  0  0  0
   57.7760   25.7610   47.0520 N   0  0  0  0  0  0  0  0  0  0  0  0
   58.3360   26.7370   47.7510 N   0  0  0  0  0  0  0  0  0  0  0  0
   58.7580   27.6590   46.8660 C   0  0  0  0  0  0  0  0  0  0  0  0
   59.5970   29.1750   47.3430 S   0  0  0  0  0  0  0  0  0  0  0  0
   60.3500   28.4900   48.8610 C   0  0  0  0  0  0  0  0  0  0  0  0
   60.8010   29.5900   49.7800 C   0  0  0  0  0  0  0  0  0  0  0  0
   60.0630   29.9160   50.7470 O   0  0  0  0  0  0  0  0  0  0  0  0
   61.9890   30.3560   49.5370 N   0  0  0  0  0  0  0  0  0  0  0  0
   62.1300   31.4890   48.6690 C   0  0  0  0  0  0  0  0  0  0  0  0
   63.3900   32.0090   48.3320 C   0  0  0  0  0  0  0  0  0  0  0  0
   63.4880   33.1470   47.5240 C   0  0  0  0  0  0  0  0  0  0  0  0
   62.3320   33.7840   47.0670 C   0  0  0  0  0  0  0  0  0  0  0  0
   61.0700   33.2860   47.4150 C   0  0  0  0  0  0  0  0  0  0  0  0
   59.6180   34.1270   46.8770 S   0  0  0  0  0  0  0  0  0  0  0  0
   59.2170   35.1150   47.9380 O   0  0  0  0  0  0  0  0  0  0  0  0
   59.9080   34.8780   45.6070 O   0  0  0  0  0  0  0  0  0  0  0  0
   58.3310   32.9660   46.6230 N   0  0  0  0  0  0  0  0  0  0  0  0
   57.0480   33.6340   46.3420 C   0  0  0  0  0  0  0  0  0  0  0  0
   56.9860   34.2100   44.9070 C   0  0  0  0  0  0  0  0  0  0  0  0
   57.9600   33.6650   44.0330 O   0  0  0  0  0  0  0  0  0  0  0  0
   58.0580   32.2720   44.2220 C   0  0  0  0  0  0  0  0  0  0  0  0
   58.6820   31.9620   45.5940 C   0  0  0  0  0  0  0  0  0  0  0  0
   60.9740   32.1460   48.2260 C   0  0  0  0  0  0  0  0  0  0  0  0
   55.7556   29.7416   44.3107 H   0  0  0  0  0  0  0  0  0  0  0  0
   56.8552   29.2351   45.7819 H   0  0  0  0  0  0  0  0  0  0  0  0
   57.3310   28.7175   42.7746 H   0  0  0  0  0  0  0  0  0  0  0  0
   59.1483   27.3231   43.5999 H   0  0  0  0  0  0  0  0  0  0  0  0
   59.5345   28.7928   44.5718 H   0  0  0  0  0  0  0  0  0  0  0  0
   57.2766   25.8418   43.7216 H   0  0  0  0  0  0  0  0  0  0  0  0
   58.0183   24.3878   44.5025 H   0  0  0  0  0  0  0  0  0  0  0  0
   52.4730   22.3720   46.2740 H   0  0  0  0  0  0  0  0  0  0  0  0
   59.6076   27.8674   49.3818 H   0  0  0  0  0  0  0  0  0  0  0  0
   61.2259   27.8879   48.5777 H   0  0  0  0  0  0  0  0  0  0  0  0
   64.3025   31.5203   48.7043 H   0  0  0  0  0  0  0  0  0  0  0  0
   64.4773   33.5408   47.2481 H   0  0  0  0  0  0  0  0  0  0  0  0
   62.4129   34.6788   46.4324 H   0  0  0  0  0  0  0  0  0  0  0  0
   56.2348   32.9036   46.4651 H   0  0  0  0  0  0  0  0  0  0  0  0
   56.9451   34.4733   47.0456 H   0  0  0  0  0  0  0  0  0  0  0  0
   55.9895   34.0002   44.4910 H   0  0  0  0  0  0  0  0  0  0  0  0
   57.1894   35.2883   44.9837 H   0  0  0  0  0  0  0  0  0  0  0  0
   57.0531   31.8273   44.1715 H   0  0  0  0  0  0  0  0  0  0  0  0
   58.6976   31.8480   43.4339 H   0  0  0  0  0  0  0  0  0  0  0  0
   58.3250   30.9766   45.9280 H   0  0  0  0  0  0  0  0  0  0  0  0
   59.7751   31.9800   45.4726 H   0  0  0  0  0  0  0  0  0  0  0  0
   59.9840   31.7646   48.5166 H   0  0  0  0  0  0  0  0  0  0  0  0
  1  2  2  0
  2  3  1  0
  3  4  1  0
  4  5  1  0
  5  6  1  0
  6  7  1  0
  7  8  1  0
  8  9  1  0
  9 10  2  3
  9 11  1  0
 11 12  1  0
 12 13  1  0
  5 14  2  0
 14 15  1  0
 15 16  2  0
 16 17  1  0
 17 18  1  0
 18 19  1  0
 19 20  2  0
 19 21  1  0
 21 22  1  0
 22 23  2  0
 23 24  1  0
 24 25  2  0
 25 26  1  0
 26 27  1  0
 27 28  2  0
 27 29  2  0
 27 30  1  0
 30 31  1  0
 31 32  1  0
 32 33  1  0
 33 34  1  0
 34 35  1  0
 26 36  2  0
 16  4  1  0
 36 22  1  0
 12  7  2  0
 35 30  1  0
  1 37  1  0
  1 38  1  0
  2 39  1  0
  3 40  1  0
  3 41  1  0
  6 42  1  0
  6 43  1  0
 10 44  1  0
 18 45  1  0
 18 46  1  0
 23 47  1  0
 24 48  1  0
 25 49  1  0
 31 50  1  0
 31 51  1  0
 32 52  1  0
 32 53  1  0
 34 54  1  0
 34 55  1  0
 35 56  1  0
 35 57  1  0
 36 58  1  0
M  CHG  3  11  -1  13  -1  21  -1
M  END
>  <UniqueID>  (37) 
35

>  <SMILES>  (37) 
C=CCn1c(Cc2sc(=N)[n-]c2[O-])nnc1SCC(=O)[N-]c1cccc(S(=O)(=O)N2CCOCC2)c1

>  <Energy>  (37) 
131.47489299305448

>  <Genealogy>  (37) 
C=CCn1c(Cc2sc(=N)[n-]c2[O-])nnc1SCC(=O)[N-]c1cccc(S(=O)(=O)N2CCOCC2)c1 (protonated)
C=CCn1c(Cc2sc(=N)[n-]c2[O-])nnc1SCC(=O)[N-]c1cccc(S(=O)(=O)N2CCOCC2)c1 (3D coordinates assigned)
C=CCn1c(Cc2sc(=N)[n-]c2[O-])nnc1SCC(=O)[N-]c1cccc(S(=O)(=O)N2CCOCC2)c1 (nonaromatic ring conformer: 131.47489299305448 kcal/mol)

>  <smiles>  (37) 
C=CCn1c(Cc2sc(=N)[nH]c2O)nnc1SCC(=O)Nc1cccc(S(=O)(=O)N2CCOCC2)c1

>  <score_type>  (37) 
oracle

>  <origin>  (37) 
adg

>  <m_score__min__energy>  (37) 
-17.07

>  <m_primary>  (37) 
energy

$$$$
37:0
     RDKit          3D

 68 71  0  0  0  0  0  0  0  0999 V2000
   60.8896   25.5343   47.1597 H   0  0  0  0  0  0  0  0  0  0  0  0
   59.2390   31.6870   46.6680 C   0  0  0  0  0  0  0  0  0  0  0  0
   58.2670   32.2820   45.9240 C   0  0  0  0  0  0  0  0  0  0  0  0
   60.0270   24.6407   44.8633 H   0  0  0  0  0  0  0  0  0  0  0  0
   59.4780   30.2270   46.6160 C   0  0  0  0  0  0  0  0  0  0  0  0
   58.9000   29.3720   47.5640 C   0  0  0  0  0  0  0  0  0  0  0  0
   58.2613   29.7868   48.3577 H   0  0  0  0  0  0  0  0  0  0  0  0
   57.3470   31.5800   42.3150 C   0  0  0  0  0  0  0  0  0  0  0  0
   57.4824   32.0385   41.3243 H   0  0  0  0  0  0  0  0  0  0  0  0
   55.2650   24.3470   46.0020 C   0  0  0  0  0  0  0  0  0  0  0  0
   54.1906   24.1250   46.0823 H   0  0  0  0  0  0  0  0  0  0  0  0
   55.7020   25.6720   45.9460 C   0  0  0  0  0  0  0  0  0  0  0  0
   54.7790   26.7090   46.0040 O   0  0  0  0  0  0  0  0  0  0  0  0
   60.3120   29.6900   45.6240 C   0  0  0  0  0  0  0  0  0  0  0  0
   60.7869   30.3566   44.8891 H   0  0  0  0  0  0  0  0  0  0  0  0
   60.1350   32.4830   47.5390 C   0  0  0  0  0  0  0  0  0  0  0  0
   59.7090   32.8720   48.8170 C   0  0  0  0  0  0  0  0  0  0  0  0
   58.7337   32.5323   49.1957 H   0  0  0  0  0  0  0  0  0  0  0  0
   57.0030   30.4100   44.8310 C   0  0  0  0  0  0  0  0  0  0  0  0
   56.8739   29.9424   45.8183 H   0  0  0  0  0  0  0  0  0  0  0  0
   57.7100   31.6200   44.7170 C   0  0  0  0  0  0  0  0  0  0  0  0
   60.1500   25.9780   46.4770 C   0  0  0  0  0  0  0  0  0  0  0  0
   59.4710   25.1580   45.6590 C   0  0  0  0  0  0  0  0  0  0  0  0
   59.9590   27.4490   46.5120 C   0  0  0  0  0  0  0  0  0  0  0  0
   59.1310   27.9950   47.5060 C   0  0  0  0  0  0  0  0  0  0  0  0
   58.6595   27.3322   48.2465 H   0  0  0  0  0  0  0  0  0  0  0  0
   56.1920   23.3040   45.9560 C   0  0  0  0  0  0  0  0  0  0  0  0
   55.8477   22.2605   46.0071 H   0  0  0  0  0  0  0  0  0  0  0  0
   56.6360   30.3820   42.4380 C   0  0  0  0  0  0  0  0  0  0  0  0
   56.2129   29.8995   41.5446 H   0  0  0  0  0  0  0  0  0  0  0  0
   56.4630   29.7980   43.6950 C   0  0  0  0  0  0  0  0  0  0  0  0
   55.9021   28.8567   43.7916 H   0  0  0  0  0  0  0  0  0  0  0  0
   60.5430   28.3130   45.5640 C   0  0  0  0  0  0  0  0  0  0  0  0
   61.1849   27.9008   44.7715 H   0  0  0  0  0  0  0  0  0  0  0  0
   57.7630   33.6680   46.2530 C   0  0  0  0  0  0  0  0  0  0  0  0
   57.7179   33.7921   47.3450 H   0  0  0  0  0  0  0  0  0  0  0  0
   58.4462   34.4174   45.8267 H   0  0  0  0  0  0  0  0  0  0  0  0
   56.7580   33.8035   45.8267 H   0  0  0  0  0  0  0  0  0  0  0  0
   58.0120   24.9110   45.7690 C   0  0  0  0  0  0  0  0  0  0  0  0
   57.5580   23.5840   45.8450 C   0  0  0  0  0  0  0  0  0  0  0  0
   58.2832   22.7574   45.8170 H   0  0  0  0  0  0  0  0  0  0  0  0
   60.5170   33.6890   49.6120 C   0  0  0  0  0  0  0  0  0  0  0  0
   60.1723   33.9953   50.6107 H   0  0  0  0  0  0  0  0  0  0  0  0
   61.7720   34.1220   49.1390 C   0  0  0  0  0  0  0  0  0  0  0  0
   62.5960   34.9940   49.8670 O   0  0  0  0  0  0  0  0  0  0  0  0
   63.4970   34.6060   50.9030 C   0  0  0  0  0  0  0  0  0  0  0  0
   64.5247   34.6480   50.5132 H   0  0  0  0  0  0  0  0  0  0  0  0
   63.3610   35.2987   51.7466 H   0  0  0  0  0  0  0  0  0  0  0  0
   63.2160   33.1750   51.4130 C   0  0  0  0  0  0  0  0  0  0  0  0
   63.5190   33.1245   52.4692 H   0  0  0  0  0  0  0  0  0  0  0  0
   62.1415   33.0002   51.2553 H   0  0  0  0  0  0  0  0  0  0  0  0
   63.9200   32.0950   50.6820 N   0  0  0  0  0  0  0  0  0  0  0  0
   64.9080   32.5870   49.7110 C   0  0  0  0  0  0  0  0  0  0  0  0
   65.7676   33.0151   50.2475 H   0  0  0  0  0  0  0  0  0  0  0  0
   65.2482   31.7531   49.0795 H   0  0  0  0  0  0  0  0  0  0  0  0
   64.4475   33.3610   49.0795 H   0  0  0  0  0  0  0  0  0  0  0  0
   63.0110   31.1130   50.0720 C   0  0  0  0  0  0  0  0  0  0  0  0
   62.4921   30.5525   50.8636 H   0  0  0  0  0  0  0  0  0  0  0  0
   62.2714   31.6361   49.4481 H   0  0  0  0  0  0  0  0  0  0  0  0
   63.5896   30.4159   49.4481 H   0  0  0  0  0  0  0  0  0  0  0  0
   62.2190   33.6800   47.8890 C   0  0  0  0  0  0  0  0  0  0  0  0
   63.2184   33.9703   47.5328 H   0  0  0  0  0  0  0  0  0  0  0  0
   57.0670   25.9570   45.8330 C   0  0  0  0  0  0  0  0  0  0  0  0
   57.4057   27.0028   45.7938 H   0  0  0  0  0  0  0  0  0  0  0  0
   57.8860   32.1960   43.4480 C   0  0  0  0  0  0  0  0  0  0  0  0
   58.4499   33.1349   43.3456 H   0  0  0  0  0  0  0  0  0  0  0  0
   61.4060   32.8730   47.0900 C   0  0  0  0  0  0  0  0  0  0  0  0
   61.7637   32.5415   46.1040 H   0  0  0  0  0  0  0  0  0  0  0  0
  1  2  1  0
  2  3  2  0
  3  4  1  0
  3  5  1  0
  5  6  2  0
  6  7  1  0
  6  8  1  0
  8  9  1  0
  8 10  2  0
 10 11  1  0
 10 12  1  0
 12 13  1  0
 12 14  2  0
 14 15  1  0
  2 16  1  0
 16 17  2  0
 17 18  1  0
 17 19  1  0
 19 20  1  0
 19 21  2  0
 21 22  1  0
 22 23  2  0
 23 24  1  0
 24 25  2  0
 25 26  1  0
 25 27  1  0
 27 28  1  0
 27 29  2  0
 29 30  1  0
 29 31  1  0
 31 32  1  0
 31 33  2  0
 33 34  1  0
 23 35  1  0
 35 36  1  0
 35 37  1  0
 35 38  1  0
 22 39  1  0
 39 40  2  0
 40 41  1  0
 40 42  1  0
 42 43  1  0
 42 44  2  0
 44 45  1  0
 45 46  1  0
 46 47  1  0
 46 48  1  0
 46 49  1  0
 49 50  1  0
 49 51  1  0
 49 52  1  0
 52 53  1  0
 53 54  1  0
 53 55  1  0
 53 56  1  0
 52 57  1  0
 57 58  1  0
 57 59  1  0
 57 60  1  0
 44 61  1  0
 61 62  1  0
 61 63  2  0
 63 64  1  0
 21 65  1  0
 65 66  1  0
 65 67  2  0
 67 68  1  0
 14  5  1  0
 67 16  1  0
 33 24  1  0
 63 39  1  0
M  CHG  1  13  -1
M  END
>  <UniqueID>  (38) 
36

>  <SMILES>  (38) 
C/C(=C(\c1ccc(/C=C/c2cccc([O-])c2)cc1)c1ccc(OCCN(C)C)cc1)c1ccccc1

>  <Energy>  (38) 
98.6784160902962

>  <Genealogy>  (38) 
CC(=C(c1ccc(C=Cc2cccc([O-])c2)cc1)c1ccc(OCCN(C)C)cc1)c1ccccc1 (protonated)
C/C(=C(\c1ccc(/C=C/c2cccc([O-])c2)cc1)c1ccc(OCCN(C)C)cc1)c1ccccc1 (cis-trans isomerization)
C/C(=C(\c1ccc(/C=C/c2cccc([O-])c2)cc1)c1ccc(OCCN(C)C)cc1)c1ccccc1 (3D coordinates assigned)
C/C(=C(\c1ccc(/C=C/c2cccc([O-])c2)cc1)c1ccc(OCCN(C)C)cc1)c1ccccc1 (optimized conformer: 98.6784160902962 kcal/mol)

>  <smiles>  (38) 
CC(=C(c1ccc(C=Cc2cccc(O)c2)cc1)c1ccc(OCCN(C)C)cc1)c1ccccc1

>  <score_type>  (38) 
oracle

>  <origin>  (38) 
adg

>  <m_score__min__energy>  (38) 
-13.83

>  <m_primary>  (38) 
energy

$$$$
38:0
     RDKit          3D

 43 46  0  0  0  0  0  0  0  0999 V2000
   54.5010   27.1000   46.7120 H   0  0  0  0  0  0  0  0  0  0  0  0
   55.1440   26.6830   46.0030 N   0  0  0  0  0  0  0  0  0  0  0  0
   56.5430   26.5870   46.2510 C   0  0  0  0  0  0  0  0  0  0  0  0
   57.0630   25.4540   46.4370 O   0  0  0  0  0  0  0  0  0  0  0  0
   57.3890   27.7910   46.2980 C   0  0  0  0  0  0  0  0  0  0  0  0
   58.3840   27.9580   47.1980 N   0  0  0  0  0  0  0  0  0  0  0  0
   58.8990   29.1680   47.0210 N   0  0  0  0  0  0  0  0  0  0  0  0
   59.9870   29.7020   47.8310 C   0  0  0  0  0  0  0  0  0  0  0  0
   59.7433   29.5824   48.8970 H   0  0  0  0  0  0  0  0  0  0  0  0
   60.9150   29.1570   47.6036 H   0  0  0  0  0  0  0  0  0  0  0  0
   60.1236   30.7695   47.6036 H   0  0  0  0  0  0  0  0  0  0  0  0
   58.2440   29.7820   46.0140 C   0  0  0  0  0  0  0  0  0  0  0  0
   57.2920   28.9330   45.5140 C   0  0  0  0  0  0  0  0  0  0  0  0
   56.2680   29.3590   44.5000 C   0  0  0  0  0  0  0  0  0  0  0  0
   55.3570   29.6836   45.0241 H   0  0  0  0  0  0  0  0  0  0  0  0
   56.0520   28.5046   43.8417 H   0  0  0  0  0  0  0  0  0  0  0  0
   56.7950   30.5270   43.6320 C   0  0  0  0  0  0  0  0  0  0  0  0
   55.9336   31.0413   43.1810 H   0  0  0  0  0  0  0  0  0  0  0  0
   57.4645   30.0906   42.8761 H   0  0  0  0  0  0  0  0  0  0  0  0
   57.6090   31.5470   44.4130 C   0  0  0  0  0  0  0  0  0  0  0  0
   58.3810   31.1610   45.5230 C   0  0  0  0  0  0  0  0  0  0  0  0
   59.1730   32.0690   46.1490 N   0  0  0  0  0  0  0  0  0  0  0  0
   59.2500   33.3570   45.7110 C   0  0  0  0  0  0  0  0  0  0  0  0
   59.9820   34.2360   46.3300 N   0  0  0  0  0  0  0  0  0  0  0  0
   61.0280   33.9530   47.2720 C   0  0  0  0  0  0  0  0  0  0  0  0
   60.8070   34.0220   48.6590 C   0  0  0  0  0  0  0  0  0  0  0  0
   59.8170   34.3101   49.0421 H   0  0  0  0  0  0  0  0  0  0  0  0
   61.8400   33.7260   49.5530 C   0  0  0  0  0  0  0  0  0  0  0  0
   61.6664   33.8036   50.6364 H   0  0  0  0  0  0  0  0  0  0  0  0
   63.0950   33.3310   49.0740 C   0  0  0  0  0  0  0  0  0  0  0  0
   64.3980   32.9790   50.2050 S   0  0  0  0  0  0  0  0  0  0  0  0
   64.3840   33.9840   51.3220 O   0  0  0  0  0  0  0  0  0  0  0  0
   64.2130   31.6060   50.7880 O   0  0  0  0  0  0  0  0  0  0  0  0
   65.9130   33.0520   49.3740 N   0  0  0  0  0  0  0  0  0  0  0  0
   66.3950   32.1400   49.5400 H   0  0  0  0  0  0  0  0  0  0  0  0
   65.6990   33.0990   48.3530 H   0  0  0  0  0  0  0  0  0  0  0  0
   63.3090   33.2330   47.6930 C   0  0  0  0  0  0  0  0  0  0  0  0
   64.2925   32.9217   47.3111 H   0  0  0  0  0  0  0  0  0  0  0  0
   62.2750   33.5300   46.7980 C   0  0  0  0  0  0  0  0  0  0  0  0
   62.4434   33.4304   45.7155 H   0  0  0  0  0  0  0  0  0  0  0  0
   58.5140   33.7470   44.6370 N   0  0  0  0  0  0  0  0  0  0  0  0
   57.7110   32.8720   43.9770 C   0  0  0  0  0  0  0  0  0  0  0  0
   57.1401   33.2063   43.0982 H   0  0  0  0  0  0  0  0  0  0  0  0
  1  2  1  0
  2  3  1  0
  3  4  2  0
  3  5  1  0
  5  6  2  0
  6  7  1  0
  7  8  1  0
  8  9  1  0
  8 10  1  0
  8 11  1  0
  7 12  1  0
 12 13  2  0
 13 14  1  0
 14 15  1  0
 14 16  1  0
 14 17  1  0
 17 18  1  0
 17 19  1  0
 17 20  1  0
 20 21  1  0
 21 22  2  0
 22 23  1  0
 23 24  2  0
 24 25  1  0
 25 26  2  0
 26 27  1  0
 26 28  1  0
 28 29  1  0
 28 30  2  0
 30 31  1  0
 31 32  2  0
 31 33  2  0
 31 34  1  0
 34 35  1  0
 34 36  1  0
 30 37  1  0
 37 38  1  0
 37 39  2  0
 39 40  1  0
 23 41  1  0
 41 42  1  0
 42 43  1  0
 13  5  1  0
 42 20  2  0
 21 12  1  0
 39 25  1  0
M  CHG  2   2  -1  41  -1
M  END
>  <UniqueID>  (39) 
37

>  <SMILES>  (39) 
Cn1nc(C([NH-])=O)c2c1-c1n/c(=N\c3ccc(S(N)(=O)=O)cc3)[n-]cc1CC2

>  <Energy>  (39) 
87.53142154842752

>  <Genealogy>  (39) 
Cn1nc(C([NH-])=O)c2c1-c1nc(=Nc3ccc(S(N)(=O)=O)cc3)[n-]cc1CC2 (protonated)
Cn1nc(C([NH-])=O)c2c1-c1n/c(=N\c3ccc(S(N)(=O)=O)cc3)[n-]cc1CC2 (cis-trans isomerization)
Cn1nc(C([NH-])=O)c2c1-c1n/c(=N\c3ccc(S(N)(=O)=O)cc3)[n-]cc1CC2 (3D coordinates assigned)
Cn1nc(C([NH-])=O)c2c1-c1n/c(=N\c3ccc(S(N)(=O)=O)cc3)[n-]cc1CC2 (nonaromatic ring conformer: 87.53142154842752 kcal/mol)

>  <smiles>  (39) 
Cn1nc(C(N)=O)c2c1-c1nc(=Nc3ccc(S(N)(=O)=O)cc3)[nH]cc1CC2

>  <score_type>  (39) 
oracle

>  <origin>  (39) 
adg

>  <m_score__min__energy>  (39) 
-13.18

>  <m_primary>  (39) 
energy

$$$$
39:0
     RDKit          3D

 47 49  0  0  0  0  0  0  0  0999 V2000
   56.6910   30.1080   46.2470 H   0  0  0  0  0  0  0  0  0  0  0  0
   57.3950   30.8280   46.1500 O   0  0  0  0  0  0  0  0  0  0  0  0
   57.5680   31.5360   44.9610 C   0  0  0  0  0  0  0  0  0  0  0  0
   58.0240   32.8350   44.8500 C   0  0  0  0  0  0  0  0  0  0  0  0
   58.4320   33.7350   45.9450 C   0  0  0  0  0  0  0  0  0  0  0  0
   57.7227   34.5111   46.2682 H   0  0  0  0  0  0  0  0  0  0  0  0
   59.6220   33.6630   46.5730 C   0  0  0  0  0  0  0  0  0  0  0  0
   60.8700   33.8660   45.9990 C   0  0  0  0  0  0  0  0  0  0  0  0
   61.0747   34.1456   44.9550 H   0  0  0  0  0  0  0  0  0  0  0  0
   61.8040   33.6490   46.9920 C   0  0  0  0  0  0  0  0  0  0  0  0
   63.2870   33.7430   46.7950 C   0  0  0  0  0  0  0  0  0  0  0  0
   63.7858   33.7746   47.7749 H   0  0  0  0  0  0  0  0  0  0  0  0
   63.6386   32.8653   46.2328 H   0  0  0  0  0  0  0  0  0  0  0  0
   63.5249   34.6580   46.2328 H   0  0  0  0  0  0  0  0  0  0  0  0
   61.1920   33.3180   48.1540 N   0  0  0  0  0  0  0  0  0  0  0  0
   61.8460   32.9960   49.4260 C   0  0  0  0  0  0  0  0  0  0  0  0
   61.2023   33.3129   50.2598 H   0  0  0  0  0  0  0  0  0  0  0  0
   62.0165   31.9110   49.4863 H   0  0  0  0  0  0  0  0  0  0  0  0
   62.8099   33.5225   49.4863 H   0  0  0  0  0  0  0  0  0  0  0  0
   59.8570   33.3150   47.9070 C   0  0  0  0  0  0  0  0  0  0  0  0
   58.9260   33.0270   48.8310 C   0  0  0  0  0  0  0  0  0  0  0  0
   59.2301   32.7651   49.8552 H   0  0  0  0  0  0  0  0  0  0  0  0
   57.8593   33.0530   48.5637 H   0  0  0  0  0  0  0  0  0  0  0  0
   58.1810   33.1420   43.5460 N   0  0  0  0  0  0  0  0  0  0  0  0
   57.7720   32.0290   42.9000 C   0  0  0  0  0  0  0  0  0  0  0  0
   57.7770   31.9280   41.6450 O   0  0  0  0  0  0  0  0  0  0  0  0
   57.3780   31.0350   43.7260 N   0  0  0  0  0  0  0  0  0  0  0  0
   56.9620   29.6820   43.3500 C   0  0  0  0  0  0  0  0  0  0  0  0
   56.2767   29.7405   42.4915 H   0  0  0  0  0  0  0  0  0  0  0  0
   57.8560   29.0979   43.0860 H   0  0  0  0  0  0  0  0  0  0  0  0
   56.2650   29.0060   44.4900 C   0  0  0  0  0  0  0  0  0  0  0  0
   55.1290   29.4150   44.8560 O   0  0  0  0  0  0  0  0  0  0  0  0
   56.9100   27.9360   45.1890 N   0  0  0  0  0  0  0  0  0  0  0  0
   58.3290   27.6280   45.0640 C   0  0  0  0  0  0  0  0  0  0  0  0
   58.4933   26.5669   45.3029 H   0  0  0  0  0  0  0  0  0  0  0  0
   58.6526   27.8342   44.0331 H   0  0  0  0  0  0  0  0  0  0  0  0
   59.1290   28.4810   46.0110 C   0  0  0  0  0  0  0  0  0  0  0  0
   58.9100   28.3860   47.3950 C   0  0  0  0  0  0  0  0  0  0  0  0
   58.1385   27.7041   47.7821 H   0  0  0  0  0  0  0  0  0  0  0  0
   59.6690   29.1550   48.2830 C   0  0  0  0  0  0  0  0  0  0  0  0
   59.4902   29.0802   49.3658 H   0  0  0  0  0  0  0  0  0  0  0  0
   60.6550   30.0190   47.7960 C   0  0  0  0  0  0  0  0  0  0  0  0
   61.2503   30.6244   48.4953 H   0  0  0  0  0  0  0  0  0  0  0  0
   60.8840   30.1130   46.4190 C   0  0  0  0  0  0  0  0  0  0  0  0
   61.6612   30.7910   46.0365 H   0  0  0  0  0  0  0  0  0  0  0  0
   60.1260   29.3460   45.5280 C   0  0  0  0  0  0  0  0  0  0  0  0
   60.3107   29.4200   44.4462 H   0  0  0  0  0  0  0  0  0  0  0  0
  1  2  1  0
  2  3  1  0
  3  4  2  0
  4  5  1  0
  5  6  1  0
  5  7  2  0
  7  8  1  0
  8  9  1  0
  8 10  2  0
 10 11  1  0
 11 12  1  0
 11 13  1  0
 11 14  1  0
 10 15  1  0
 15 16  1  0
 16 17  1  0
 16 18  1  0
 16 19  1  0
 15 20  1  0
 20 21  2  0
 21 22  1  0
 21 23  1  0
  4 24  1  0
 24 25  1  0
 25 26  2  0
 25 27  1  0
 27 28  1  0
 28 29  1  0
 28 30  1  0
 28 31  1  0
 31 32  2  0
 31 33  1  0
 33 34  1  0
 34 35  1  0
 34 36  1  0
 34 37  1  0
 37 38  2  0
 38 39  1  0
 38 40  1  0
 40 41  1  0
 40 42  2  0
 42 43  1  0
 42 44  1  0
 44 45  1  0
 44 46  2  0
 46 47  1  0
 27  3  1  0
 46 37  1  0
 20  7  1  0
M  CHG  2  24  -1  33  -1
M  END
>  <UniqueID>  (40) 
38

>  <SMILES>  (40) 
C=c1/c(=C/c2[n-]c(=O)n(CC(=O)[N-]Cc3ccccc3)c2O)cc(C)n1C

>  <Energy>  (40) 
111.4065786723025

>  <Genealogy>  (40) 
C=c1c(=Cc2[n-]c(=O)n(CC(=O)[N-]Cc3ccccc3)c2O)cc(C)n1C (protonated)
C=c1/c(=C/c2[n-]c(=O)n(CC(=O)[N-]Cc3ccccc3)c2O)cc(C)n1C (cis-trans isomerization)
C=c1/c(=C/c2[n-]c(=O)n(CC(=O)[N-]Cc3ccccc3)c2O)cc(C)n1C (3D coordinates assigned)
C=c1/c(=C/c2[n-]c(=O)n(CC(=O)[N-]Cc3ccccc3)c2O)cc(C)n1C (optimized conformer: 111.4065786723025 kcal/mol)

>  <smiles>  (40) 
C=c1c(=Cc2[nH]c(=O)n(CC(=O)NCc3ccccc3)c2O)cc(C)n1C

>  <score_type>  (40) 
oracle

>  <origin>  (40) 
adg

>  <m_score__min__energy>  (40) 
-12.6

>  <m_primary>  (40) 
energy

$$$$
40:0
     RDKit          3D

 56 59  0  0  0  0  0  0  0  0999 V2000
   54.3450   30.8070   51.9800 C   0  0  0  0  0  0  0  0  0  0  0  0
   55.4250   30.6210   53.0420 C   0  0  0  0  0  0  0  0  0  0  0  0
   56.7100   30.1280   52.4290 C   0  0  0  0  0  0  0  0  0  0  0  0
   56.9630   28.8930   52.5050 O   0  0  0  0  0  0  0  0  0  0  0  0
   57.6250   30.9940   51.7180 N   0  0  0  0  0  0  0  0  0  0  0  0
   58.5340   30.3890   50.7360 C   0  0  0  0  0  0  0  0  0  0  0  0
   59.3660   31.4510   50.0200 C   0  0  0  0  0  0  0  0  0  0  0  0
   59.9770   32.3440   51.0200 N   0  0  0  0  0  0  0  0  0  0  0  0
   60.9450   33.2540   50.3750 C   0  0  0  0  0  0  0  0  0  0  0  0
   60.5050   33.5930   48.9730 C   0  0  0  0  0  0  0  0  0  0  0  0
   61.2980   33.2370   47.8710 C   0  0  0  0  0  0  0  0  0  0  0  0
   60.8680   33.5180   46.5720 C   0  0  0  0  0  0  0  0  0  0  0  0
   59.6330   34.1530   46.3530 C   0  0  0  0  0  0  0  0  0  0  0  0
   59.1740   34.4490   44.9760 C   0  0  0  0  0  0  0  0  0  0  0  0
   59.3520   35.6000   44.4990 O   0  0  0  0  0  0  0  0  0  0  0  0
   58.5710   33.4440   44.1470 N   0  0  0  0  0  0  0  0  0  0  0  0
   58.3660   32.2100   44.5010 C   0  0  0  0  0  0  0  0  0  0  0  0
   59.1580   31.5330   45.3700 N   0  0  0  0  0  0  0  0  0  0  0  0
   58.6810   30.2800   45.5730 C   0  0  0  0  0  0  0  0  0  0  0  0
   59.2710   29.3420   46.4210 C   0  0  0  0  0  0  0  0  0  0  0  0
   58.6650   28.0820   46.5590 C   0  0  0  0  0  0  0  0  0  0  0  0
   57.4830   27.7700   45.8510 C   0  0  0  0  0  0  0  0  0  0  0  0
   56.7490   26.1810   46.0420 S   0  0  0  0  0  0  0  0  0  0  0  0
   55.0270   26.3310   46.0060 N   0  0  0  0  0  0  0  0  0  0  0  0
   57.1630   25.5720   47.3510 O   0  0  0  0  0  0  0  0  0  0  0  0
   57.2010   25.2820   44.9240 O   0  0  0  0  0  0  0  0  0  0  0  0
   56.9040   28.7260   44.9940 C   0  0  0  0  0  0  0  0  0  0  0  0
   57.5220   29.9680   44.8790 C   0  0  0  0  0  0  0  0  0  0  0  0
   57.0480   31.2960   43.9660 S   0  0  0  0  0  0  0  0  0  0  0  0
   58.8480   34.5230   47.4580 C   0  0  0  0  0  0  0  0  0  0  0  0
   59.2760   34.2340   48.7570 C   0  0  0  0  0  0  0  0  0  0  0  0
   58.9660   33.0890   51.8190 C   0  0  0  0  0  0  0  0  0  0  0  0
   57.5550   32.4590   51.8130 C   0  0  0  0  0  0  0  0  0  0  0  0
   53.3743   30.9742   52.4696 H   0  0  0  0  0  0  0  0  0  0  0  0
   54.5936   31.6756   51.3524 H   0  0  0  0  0  0  0  0  0  0  0  0
   54.2887   29.9053   51.3524 H   0  0  0  0  0  0  0  0  0  0  0  0
   55.6105   31.5850   53.5383 H   0  0  0  0  0  0  0  0  0  0  0  0
   55.0751   29.8728   53.7685 H   0  0  0  0  0  0  0  0  0  0  0  0
   59.2105   29.6939   51.2549 H   0  0  0  0  0  0  0  0  0  0  0  0
   57.9299   29.8579   49.9857 H   0  0  0  0  0  0  0  0  0  0  0  0
   60.1564   30.9633   49.4306 H   0  0  0  0  0  0  0  0  0  0  0  0
   58.7200   32.0356   49.3485 H   0  0  0  0  0  0  0  0  0  0  0  0
   61.0182   34.1799   50.9643 H   0  0  0  0  0  0  0  0  0  0  0  0
   61.9234   32.7536   50.3274 H   0  0  0  0  0  0  0  0  0  0  0  0
   62.2631   32.7341   48.0311 H   0  0  0  0  0  0  0  0  0  0  0  0
   61.4996   33.2407   45.7151 H   0  0  0  0  0  0  0  0  0  0  0  0
   60.1925   29.5843   46.9707 H   0  0  0  0  0  0  0  0  0  0  0  0
   59.1153   27.3311   47.2248 H   0  0  0  0  0  0  0  0  0  0  0  0
   54.7710   26.6950   45.0610 H   0  0  0  0  0  0  0  0  0  0  0  0
   55.9875   28.4972   44.4303 H   0  0  0  0  0  0  0  0  0  0  0  0
   57.8915   35.0428   47.3001 H   0  0  0  0  0  0  0  0  0  0  0  0
   58.6455   34.5108   49.6148 H   0  0  0  0  0  0  0  0  0  0  0  0
   59.3172   33.1356   52.8604 H   0  0  0  0  0  0  0  0  0  0  0  0
   58.8681   34.0810   51.3538 H   0  0  0  0  0  0  0  0  0  0  0  0
   57.0360   32.7334   52.7433 H   0  0  0  0  0  0  0  0  0  0  0  0
   57.0090   32.8382   50.9366 H   0  0  0  0  0  0  0  0  0  0  0  0
  1  2  1  0
  2  3  1  0
  3  4  2  0
  3  5  1  0
  5  6  1  0
  6  7  1  0
  7  8  1  0
  8  9  1  0
  9 10  1  0
 10 11  2  0
 11 12  1  0
 12 13  2  0
 13 14  1  0
 14 15  2  0
 14 16  1  0
 16 17  2  3
 17 18  1  0
 18 19  1  0
 19 20  2  0
 20 21  1  0
 21 22  2  0
 22 23  1  0
 23 24  1  0
 23 25  2  0
 23 26  2  0
 22 27  1  0
 27 28  2  0
 28 29  1  0
 13 30  1  0
 30 31  2  0
  8 32  1  0
 32 33  1  0
 33  5  1  0
 31 10  1  0
 29 17  1  0
 28 19  1  0
  1 34  1  0
  1 35  1  0
  1 36  1  0
  2 37  1  0
  2 38  1  0
  6 39  1  0
  6 40  1  0
  7 41  1  0
  7 42  1  0
  9 43  1  0
  9 44  1  0
 11 45  1  0
 12 46  1  0
 20 47  1  0
 21 48  1  0
 24 49  1  0
 27 50  1  0
 30 51  1  0
 31 52  1  0
 32 53  1  0
 32 54  1  0
 33 55  1  0
 33 56  1  0
M  CHG  2  18  -1  24  -1
M  END
>  <UniqueID>  (41) 
39

>  <SMILES>  (41) 
CCC(=O)N1CCN(Cc2ccc(C(=O)N=c3[n-]c4ccc(S([NH-])(=O)=O)cc4s3)cc2)CC1

>  <Energy>  (41) 
104.13887888049774

>  <Genealogy>  (41) 
CCC(=O)N1CCN(Cc2ccc(C(=O)N=c3[n-]c4ccc(S([NH-])(=O)=O)cc4s3)cc2)CC1 (protonated)
CCC(=O)N1CCN(Cc2ccc(C(=O)N=c3[n-]c4ccc(S([NH-])(=O)=O)cc4s3)cc2)CC1 (3D coordinates assigned)
CCC(=O)N1CCN(Cc2ccc(C(=O)N=c3[n-]c4ccc(S([NH-])(=O)=O)cc4s3)cc2)CC1 (nonaromatic ring conformer: 104.13887888049774 kcal/mol)

>  <smiles>  (41) 
CCC(=O)N1CCN(Cc2ccc(C(=O)N=c3[nH]c4ccc(S(N)(=O)=O)cc4s3)cc2)CC1

>  <score_type>  (41) 
oracle

>  <origin>  (41) 
adg

>  <m_score__min__energy>  (41) 
-13.75

>  <m_primary>  (41) 
energy

$$$$
41:0
     RDKit          3D

 48 50  0  0  0  0  0  0  0  0999 V2000
   57.0810   31.2480   43.6920 C   0  0  0  0  0  0  0  0  0  0  0  0
   56.5670   30.0410   43.4390 C   0  0  0  0  0  0  0  0  0  0  0  0
   55.8390   29.2560   44.4930 C   0  0  0  0  0  0  0  0  0  0  0  0
   56.8070   28.4550   45.3280 C   0  0  0  0  0  0  0  0  0  0  0  0
   58.0930   28.9580   45.5830 C   0  0  0  0  0  0  0  0  0  0  0  0
   59.0060   28.2420   46.3770 C   0  0  0  0  0  0  0  0  0  0  0  0
   60.4090   28.8110   46.5580 C   0  0  1  0  0  0  0  0  0  0  0  0
   61.0830   29.2790   45.2590 C   0  0  0  0  0  0  0  0  0  0  0  0
   60.4410   29.8840   47.5760 N   0  0  0  0  0  0  0  0  0  0  0  0
   60.1580   31.2630   47.2560 C   0  0  0  0  0  0  0  0  0  0  0  0
   61.2180   32.1510   47.0120 C   0  0  0  0  0  0  0  0  0  0  0  0
   60.9640   33.4920   46.7140 C   0  0  0  0  0  0  0  0  0  0  0  0
   59.6470   33.9570   46.6500 C   0  0  0  0  0  0  0  0  0  0  0  0
   59.3940   35.2910   46.3560 O   0  0  0  0  0  0  0  0  0  0  0  0
   58.5850   33.0790   46.8820 C   0  0  0  0  0  0  0  0  0  0  0  0
   58.8380   31.7360   47.1790 C   0  0  0  0  0  0  0  0  0  0  0  0
   60.7910   29.5620   48.9350 C   0  0  0  0  0  0  0  0  0  0  0  0
   61.4500   30.5000   49.7490 C   0  0  0  0  0  0  0  0  0  0  0  0
   61.7960   30.1740   51.0640 C   0  0  0  0  0  0  0  0  0  0  0  0
   61.4920   28.9090   51.5780 C   0  0  0  0  0  0  0  0  0  0  0  0
   61.8410   28.5990   52.8910 O   0  0  0  0  0  0  0  0  0  0  0  0
   60.8440   27.9670   50.7690 C   0  0  0  0  0  0  0  0  0  0  0  0
   60.4990   28.2910   49.4540 C   0  0  0  0  0  0  0  0  0  0  0  0
   58.6130   26.9990   46.9100 C   0  0  0  0  0  0  0  0  0  0  0  0
   57.3290   26.5010   46.6710 C   0  0  0  0  0  0  0  0  0  0  0  0
   56.4250   27.2240   45.8910 C   0  0  0  0  0  0  0  0  0  0  0  0
   55.1500   26.7100   45.6750 O   0  0  0  0  0  0  0  0  0  0  0  0
   57.6088   31.7983   42.8991 H   0  0  0  0  0  0  0  0  0  0  0  0
   56.9764   31.6915   44.6932 H   0  0  0  0  0  0  0  0  0  0  0  0
   56.6798   29.6109   42.4329 H   0  0  0  0  0  0  0  0  0  0  0  0
   55.2894   29.9508   45.1450 H   0  0  0  0  0  0  0  0  0  0  0  0
   55.1423   28.5631   43.9986 H   0  0  0  0  0  0  0  0  0  0  0  0
   58.3905   29.9267   45.1551 H   0  0  0  0  0  0  0  0  0  0  0  0
   61.0056   27.9590   46.9161 H   0  0  0  0  0  0  0  0  0  0  0  0
   61.9641   29.8908   45.5029 H   0  0  0  0  0  0  0  0  0  0  0  0
   61.3960   28.4029   44.6721 H   0  0  0  0  0  0  0  0  0  0  0  0
   60.3715   29.8784   44.6721 H   0  0  0  0  0  0  0  0  0  0  0  0
   62.2555   31.7882   47.0558 H   0  0  0  0  0  0  0  0  0  0  0  0
   61.8004   34.1823   46.5297 H   0  0  0  0  0  0  0  0  0  0  0  0
   57.5488   33.4446   46.8310 H   0  0  0  0  0  0  0  0  0  0  0  0
   57.9987   31.0466   47.3532 H   0  0  0  0  0  0  0  0  0  0  0  0
   61.6946   31.4952   49.3494 H   0  0  0  0  0  0  0  0  0  0  0  0
   62.3086   30.9142   51.6959 H   0  0  0  0  0  0  0  0  0  0  0  0
   62.6440   29.0230   53.3400 H   0  0  0  0  0  0  0  0  0  0  0  0
   60.6062   26.9704   51.1694 H   0  0  0  0  0  0  0  0  0  0  0  0
   59.9953   27.5451   48.8216 H   0  0  0  0  0  0  0  0  0  0  0  0
   59.3208   26.4166   47.5181 H   0  0  0  0  0  0  0  0  0  0  0  0
   57.0292   25.5336   47.1002 H   0  0  0  0  0  0  0  0  0  0  0  0
  1  2  2  0
  2  3  1  0
  3  4  1  0
  4  5  2  0
  5  6  1  0
  6  7  1  0
  7  8  1  0
  7  9  1  0
  9 10  1  0
 10 11  2  0
 11 12  1  0
 12 13  2  0
 13 14  1  0
 13 15  1  0
 15 16  2  0
  9 17  1  0
 17 18  2  0
 18 19  1  0
 19 20  2  0
 20 21  1  0
 20 22  1  0
 22 23  2  0
  6 24  2  0
 24 25  1  0
 25 26  2  0
 26 27  1  0
 26  4  1  0
 16 10  1  0
 23 17  1  0
  1 28  1  0
  1 29  1  0
  2 30  1  0
  3 31  1  0
  3 32  1  0
  5 33  1  0
  7 34  1  1
  8 35  1  0
  8 36  1  0
  8 37  1  0
 11 38  1  0
 12 39  1  0
 15 40  1  0
 16 41  1  0
 18 42  1  0
 19 43  1  0
 21 44  1  0
 22 45  1  0
 23 46  1  0
 24 47  1  0
 25 48  1  0
M  CHG  2  14  -1  27  -1
M  END
>  <UniqueID>  (42) 
40

>  <SMILES>  (42) 
C=CCc1cc([C@@H](C)N(c2ccc([O-])cc2)c2ccc(O)cc2)ccc1[O-]

>  <Energy>  (42) 
58.741077314890546

>  <Genealogy>  (42) 
C=CCc1cc(C(C)N(c2ccc([O-])cc2)c2ccc(O)cc2)ccc1[O-] (protonated)
C=CCc1cc([C@@H](C)N(c2ccc([O-])cc2)c2ccc(O)cc2)ccc1[O-] (chirality)
C=CCc1cc([C@@H](C)N(c2ccc([O-])cc2)c2ccc(O)cc2)ccc1[O-] (3D coordinates assigned)
C=CCc1cc([C@@H](C)N(c2ccc([O-])cc2)c2ccc(O)cc2)ccc1[O-] (optimized conformer: 58.741077314890546 kcal/mol)

>  <smiles>  (42) 
C=CCc1cc(C(C)N(c2ccc(O)cc2)c2ccc(O)cc2)ccc1O

>  <score_type>  (42) 
oracle

>  <origin>  (42) 
adg

>  <m_score__min__energy>  (42) 
-10.68

>  <m_primary>  (42) 
energy

$$$$
42:0
     RDKit          3D

 47 50  0  0  0  0  0  0  0  0999 V2000
   56.8730   23.9200   44.2530 C   0  0  0  0  0  0  0  0  0  0  0  0
   56.9750   24.7090   45.3230 C   0  0  0  0  0  0  0  0  0  0  0  0
   57.3140   26.1540   45.2570 C   0  0  0  0  0  0  0  0  0  0  0  0
   58.5930   26.6000   44.8640 C   0  0  0  0  0  0  0  0  0  0  0  0
   58.8890   27.9650   44.8240 C   0  0  0  0  0  0  0  0  0  0  0  0
   57.9220   28.9120   45.1880 C   0  0  0  0  0  0  0  0  0  0  0  0
   58.2340   30.3610   45.1360 C   0  0  0  0  0  0  0  0  0  0  0  0
   57.4760   31.1660   44.3710 C   0  0  0  0  0  0  0  0  0  0  0  0
   57.7650   32.6380   44.2460 C   0  0  0  0  0  0  0  0  0  0  0  0
   58.4630   33.1400   45.3880 O   0  0  0  0  0  0  0  0  0  0  0  0
   59.3680   32.3510   46.1000 C   0  0  0  0  0  0  0  0  0  0  0  0
   60.3140   32.9530   46.9350 C   0  0  0  0  0  0  0  0  0  0  0  0
   61.2550   32.1690   47.6250 C   0  0  0  0  0  0  0  0  0  0  0  0
   62.2350   32.7910   48.4830 N   0  0  0  0  0  0  0  0  0  0  0  0
   63.5940   32.2330   48.5390 C   0  0  0  0  0  0  0  0  0  0  0  0
   64.5070   33.1080   49.4030 C   0  0  0  0  0  0  0  0  0  0  0  0
   63.8350   33.4370   50.6640 N   0  0  0  0  0  0  0  0  0  0  0  0
   62.6070   34.2410   50.4770 C   0  0  0  0  0  0  0  0  0  0  0  0
   61.9660   34.1060   49.0790 C   0  0  0  0  0  0  0  0  0  0  0  0
   61.2290   30.7730   47.4620 C   0  0  0  0  0  0  0  0  0  0  0  0
   60.2710   30.1690   46.6430 C   0  0  0  0  0  0  0  0  0  0  0  0
   59.3160   30.9540   45.9720 C   0  0  0  0  0  0  0  0  0  0  0  0
   56.6490   28.4750   45.5830 C   0  0  0  0  0  0  0  0  0  0  0  0
   56.3470   27.1100   45.6240 C   0  0  0  0  0  0  0  0  0  0  0  0
   55.0740   26.7150   46.0230 O   0  0  0  0  0  0  0  0  0  0  0  0
   56.6180   22.8570   44.3758 H   0  0  0  0  0  0  0  0  0  0  0  0
   57.0438   24.3321   43.2475 H   0  0  0  0  0  0  0  0  0  0  0  0
   56.7977   24.2637   46.3131 H   0  0  0  0  0  0  0  0  0  0  0  0
   59.3645   25.8666   44.5865 H   0  0  0  0  0  0  0  0  0  0  0  0
   59.8874   28.2985   44.5048 H   0  0  0  0  0  0  0  0  0  0  0  0
   56.6236   30.7383   43.8229 H   0  0  0  0  0  0  0  0  0  0  0  0
   58.3810   32.8053   43.3501 H   0  0  0  0  0  0  0  0  0  0  0  0
   56.8052   33.1700   44.1703 H   0  0  0  0  0  0  0  0  0  0  0  0
   60.3221   34.0466   47.0528 H   0  0  0  0  0  0  0  0  0  0  0  0
   63.5510   31.2217   48.9696 H   0  0  0  0  0  0  0  0  0  0  0  0
   64.0027   32.1979   47.5183 H   0  0  0  0  0  0  0  0  0  0  0  0
   65.4383   32.5632   49.6173 H   0  0  0  0  0  0  0  0  0  0  0  0
   64.7364   34.0376   48.8614 H   0  0  0  0  0  0  0  0  0  0  0  0
   63.5970   32.5480   51.1660 H   0  0  0  0  0  0  0  0  0  0  0  0
   64.5030   33.9690   51.2700 H   0  0  0  0  0  0  0  0  0  0  0  0
   61.8685   33.9214   51.2269 H   0  0  0  0  0  0  0  0  0  0  0  0
   62.9007   35.2952   50.5884 H   0  0  0  0  0  0  0  0  0  0  0  0
   60.8781   34.2398   49.1712 H   0  0  0  0  0  0  0  0  0  0  0  0
   62.4037   34.8749   48.4253 H   0  0  0  0  0  0  0  0  0  0  0  0
   61.9699   30.1499   47.9842 H   0  0  0  0  0  0  0  0  0  0  0  0
   60.2638   29.0756   46.5227 H   0  0  0  0  0  0  0  0  0  0  0  0
   55.8818   29.2120   45.8628 H   0  0  0  0  0  0  0  0  0  0  0  0
  1  2  2  0
  2  3  1  0
  3  4  2  0
  4  5  1  0
  5  6  2  0
  6  7  1  0
  7  8  2  0
  8  9  1  0
  9 10  1  0
 10 11  1  0
 11 12  2  0
 12 13  1  0
 13 14  1  0
 14 15  1  0
 15 16  1  0
 16 17  1  0
 17 18  1  0
 18 19  1  0
 13 20  2  0
 20 21  1  0
 21 22  2  0
  6 23  1  0
 23 24  2  0
 24 25  1  0
 24  3  1  0
 22  7  1  0
 22 11  1  0
 19 14  1  0
  1 26  1  0
  1 27  1  0
  2 28  1  0
  4 29  1  0
  5 30  1  0
  8 31  1  0
  9 32  1  0
  9 33  1  0
 12 34  1  0
 15 35  1  0
 15 36  1  0
 16 37  1  0
 16 38  1  0
 17 39  1  0
 17 40  1  0
 18 41  1  0
 18 42  1  0
 19 43  1  0
 19 44  1  0
 20 45  1  0
 21 46  1  0
 23 47  1  0
M  CHG  2  17   1  25  -1
M  END
>  <UniqueID>  (43) 
41

>  <SMILES>  (43) 
C=Cc1ccc(C2=CCOc3cc(N4CC[NH2+]CC4)ccc32)cc1[O-]

>  <Energy>  (43) 
70.41103303506736

>  <Genealogy>  (43) 
C=Cc1ccc(C2=CCOc3cc(N4CC[NH2+]CC4)ccc32)cc1[O-] (protonated)
C=Cc1ccc(C2=CCOc3cc(N4CC[NH2+]CC4)ccc32)cc1[O-] (3D coordinates assigned)
C=Cc1ccc(C2=CCOc3cc(N4CC[NH2+]CC4)ccc32)cc1[O-] (nonaromatic ring conformer: 70.41103303506736 kcal/mol)

>  <smiles>  (43) 
C=Cc1ccc(C2=CCOc3cc(N4CCNCC4)ccc32)cc1O

>  <score_type>  (43) 
oracle

>  <origin>  (43) 
adg

>  <m_score__min__energy>  (43) 
-10.210000000000001

>  <m_primary>  (43) 
energy

$$$$
43:0
     RDKit          3D

 51 54  0  0  0  0  0  0  0  0999 V2000
   52.6673   30.0569   55.3810 H   0  0  0  0  0  0  0  0  0  0  0  0
   53.7630   29.9630   55.3550 C   0  0  0  0  0  0  0  0  0  0  0  0
   54.3139   29.6955   56.2687 H   0  0  0  0  0  0  0  0  0  0  0  0
   54.4250   30.1740   54.2130 C   0  0  0  0  0  0  0  0  0  0  0  0
   53.8840   30.5270   52.9750 C   0  0  0  0  0  0  0  0  0  0  0  0
   52.5820   30.6820   52.6680 C   0  0  0  0  0  0  0  0  0  0  0  0
   51.8548   30.6952   53.4933 H   0  0  0  0  0  0  0  0  0  0  0  0
   52.0720   30.8350   51.2940 C   0  0  0  0  0  0  0  0  0  0  0  0
   52.1020   29.8420   50.3790 N   0  0  0  0  0  0  0  0  0  0  0  0
   51.4600   30.3660   49.3110 C   0  0  0  0  0  0  0  0  0  0  0  0
   51.2720   29.7220   48.2450 O   0  0  0  0  0  0  0  0  0  0  0  0
   51.0260   31.6270   49.5060 N   0  0  0  0  0  0  0  0  0  0  0  0
   50.1940   32.4330   48.6180 C   0  0  0  0  0  0  0  0  0  0  0  0
   49.5318   33.0745   49.2180 H   0  0  0  0  0  0  0  0  0  0  0  0
   50.8365   33.0611   47.9834 H   0  0  0  0  0  0  0  0  0  0  0  0
   49.5867   31.7709   47.9834 H   0  0  0  0  0  0  0  0  0  0  0  0
   51.3800   31.9110   50.7690 C   0  0  0  0  0  0  0  0  0  0  0  0
   51.0330   33.0790   51.4390 O   0  0  0  0  0  0  0  0  0  0  0  0
   54.9610   30.6290   52.1010 C   0  0  0  0  0  0  0  0  0  0  0  0
   54.9185   30.8825   51.0314 H   0  0  0  0  0  0  0  0  0  0  0  0
   56.0970   30.3490   52.8410 C   0  0  0  0  0  0  0  0  0  0  0  0
   57.4880   30.3190   52.3350 C   0  0  0  0  0  0  0  0  0  0  0  0
   57.7300   29.6480   51.2940 O   0  0  0  0  0  0  0  0  0  0  0  0
   58.5430   31.0800   52.9850 N   0  0  0  0  0  0  0  0  0  0  0  0
   58.5600   30.8000   53.9930 H   0  0  0  0  0  0  0  0  0  0  0  0
   58.2950   32.5270   52.9360 C   0  0  0  0  0  0  0  0  0  0  0  0
   57.3215   32.7357   53.4036 H   0  0  0  0  0  0  0  0  0  0  0  0
   59.1130   33.0284   53.4740 H   0  0  0  0  0  0  0  0  0  0  0  0
   58.2780   33.0610   51.5050 C   0  0  0  0  0  0  0  0  0  0  0  0
   57.3134   32.7959   51.0476 H   0  0  0  0  0  0  0  0  0  0  0  0
   58.4302   34.1486   51.5676 H   0  0  0  0  0  0  0  0  0  0  0  0
   59.3600   32.5240   50.6540 N   0  0  0  0  0  0  0  0  0  0  0  0
   59.5460   33.0860   49.3180 C   0  0  0  0  0  0  0  0  0  0  0  0
   60.7740   33.6760   48.9330 C   0  0  0  0  0  0  0  0  0  0  0  0
   61.6050   33.7139   49.6527 H   0  0  0  0  0  0  0  0  0  0  0  0
   60.9480   34.2110   47.6540 C   0  0  0  0  0  0  0  0  0  0  0  0
   61.9099   34.6673   47.3775 H   0  0  0  0  0  0  0  0  0  0  0  0
   59.9080   34.1690   46.7270 C   0  0  0  0  0  0  0  0  0  0  0  0
   60.0487   34.5927   45.7217 H   0  0  0  0  0  0  0  0  0  0  0  0
   58.6890   33.5890   47.0760 C   0  0  0  0  0  0  0  0  0  0  0  0
   57.3830   33.5300   45.9050 Cl  0  0  0  0  0  0  0  0  0  0  0  0
   58.5070   33.0510   48.3550 C   0  0  0  0  0  0  0  0  0  0  0  0
   57.5416   32.5935   48.6171 H   0  0  0  0  0  0  0  0  0  0  0  0
   60.1740   31.3560   51.0580 C   0  0  0  0  0  0  0  0  0  0  0  0
   59.9955   30.5527   50.3281 H   0  0  0  0  0  0  0  0  0  0  0  0
   61.2134   31.7148   51.0872 H   0  0  0  0  0  0  0  0  0  0  0  0
   59.8900   30.7870   52.4660 C   0  0  0  0  0  0  0  0  0  0  0  0
   60.0121   29.6945   52.4257 H   0  0  0  0  0  0  0  0  0  0  0  0
   60.6006   31.2754   53.1490 H   0  0  0  0  0  0  0  0  0  0  0  0
   55.7650   30.0740   54.1190 N   0  0  0  0  0  0  0  0  0  0  0  0
   56.4250   29.8250   54.8900 H   0  0  0  0  0  0  0  0  0  0  0  0
  1  2  1  0
  2  3  1  0
  2  4  2  0
  4  5  1  0
  5  6  2  0
  6  7  1  0
  6  8  1  0
  8  9  1  0
  9 10  1  0
 10 11  2  0
 10 12  1  0
 12 13  1  0
 13 14  1  0
 13 15  1  0
 13 16  1  0
 12 17  1  0
 17 18  1  0
  5 19  1  0
 19 20  1  0
 19 21  2  0
 21 22  1  0
 22 23  2  0
 22 24  1  0
 24 25  1  0
 24 26  1  0
 26 27  1  0
 26 28  1  0
 26 29  1  0
 29 30  1  0
 29 31  1  0
 29 32  1  0
 32 33  1  0
 33 34  2  0
 34 35  1  0
 34 36  1  0
 36 37  1  0
 36 38  2  0
 38 39  1  0
 38 40  1  0
 40 41  1  0
 40 42  2  0
 42 43  1  0
 32 44  1  0
 44 45  1  0
 44 46  1  0
 44 47  1  0
 47 48  1  0
 47 49  1  0
 21 50  1  0
 50 51  1  0
 50  4  1  0
 17  8  2  0
 47 24  1  0
 42 33  1  0
M  CHG  3   9  -1  18  -1  24   1
M  END
>  <UniqueID>  (44) 
42

>  <SMILES>  (44) 
C=c1[nH]c(C(=O)[NH+]2CCN(c3cccc(Cl)c3)CC2)c/c1=C\c1[n-]c(=O)n(C)c1[O-]

>  <Energy>  (44) 
133.14970396394926

>  <Genealogy>  (44) 
C=c1[nH]c(C(=O)[NH+]2CCN(c3cccc(Cl)c3)CC2)cc1=Cc1[n-]c(=O)n(C)c1[O-] (protonated)
C=c1[nH]c(C(=O)[NH+]2CCN(c3cccc(Cl)c3)CC2)c/c1=C\c1[n-]c(=O)n(C)c1[O-] (cis-trans isomerization)
C=c1[nH]c(C(=O)[NH+]2CCN(c3cccc(Cl)c3)CC2)c/c1=C\c1[n-]c(=O)n(C)c1[O-] (3D coordinates assigned)
C=c1[nH]c(C(=O)[NH+]2CCN(c3cccc(Cl)c3)CC2)c/c1=C\c1[n-]c(=O)n(C)c1[O-] (nonaromatic ring conformer: 133.14970396394926 kcal/mol)

>  <smiles>  (44) 
C=c1[nH]c(C(=O)N2CCN(c3cccc(Cl)c3)CC2)cc1=Cc1[nH]c(=O)n(C)c1O

>  <score_type>  (44) 
oracle

>  <origin>  (44) 
adg

>  <m_score__min__energy>  (44) 
-14.880000000000001

>  <m_primary>  (44) 
energy

$$$$
44:0
     RDKit          3D

 27 28  0  0  0  0  0  0  0  0999 V2000
   55.9680   27.6300   44.8060 H   0  0  0  0  0  0  0  0  0  0  0  0
   55.6270   28.6150   44.8830 N   0  0  0  0  0  0  0  0  0  0  0  0
   56.4230   29.6080   45.1180 C   0  0  0  0  0  0  0  0  0  0  0  0
   56.2120   30.8000   44.5010 N   0  0  0  0  0  0  0  0  0  0  0  0
   57.0260   31.8660   44.7180 C   0  0  0  0  0  0  0  0  0  0  0  0
   56.8338   32.8212   44.2075 H   0  0  0  0  0  0  0  0  0  0  0  0
   58.1160   31.7420   45.5990 C   0  0  0  0  0  0  0  0  0  0  0  0
   59.0360   32.8750   45.8800 C   0  0  0  0  0  0  0  0  0  0  0  0
   58.6550   34.2060   45.6370 C   0  0  0  0  0  0  0  0  0  0  0  0
   57.6553   34.4302   45.2364 H   0  0  0  0  0  0  0  0  0  0  0  0
   59.5500   35.2410   45.9060 C   0  0  0  0  0  0  0  0  0  0  0  0
   59.2532   36.2842   45.7224 H   0  0  0  0  0  0  0  0  0  0  0  0
   60.7870   34.9650   46.3940 N   0  0  0  0  0  0  0  0  0  0  0  0
   61.2020   33.6910   46.6350 C   0  0  0  0  0  0  0  0  0  0  0  0
   62.5630   33.4520   47.1650 C   0  0  0  0  0  0  0  0  0  0  0  0
   63.5440   33.3860   46.3730 O   0  0  0  0  0  0  0  0  0  0  0  0
   62.7800   33.2940   48.5760 N   0  0  0  0  0  0  0  0  0  0  0  0
   61.9740   33.3480   49.2390 H   0  0  0  0  0  0  0  0  0  0  0  0
   64.1100   33.0590   49.1230 C   0  0  0  0  0  0  0  0  0  0  0  0
   64.0613   33.0676   50.2219 H   0  0  0  0  0  0  0  0  0  0  0  0
   64.4801   32.0816   48.7800 H   0  0  0  0  0  0  0  0  0  0  0  0
   64.7926   33.8504   48.7800 H   0  0  0  0  0  0  0  0  0  0  0  0
   60.3270   32.6230   46.3750 C   0  0  0  0  0  0  0  0  0  0  0  0
   60.6527   31.5886   46.5590 H   0  0  0  0  0  0  0  0  0  0  0  0
   58.3140   30.5460   46.2220 N   0  0  0  0  0  0  0  0  0  0  0  0
   57.5000   29.4800   46.0030 C   0  0  0  0  0  0  0  0  0  0  0  0
   57.6858   28.5252   46.5166 H   0  0  0  0  0  0  0  0  0  0  0  0
  1  2  1  0
  2  3  2  0
  3  4  1  0
  4  5  1  0
  5  6  1  0
  5  7  2  0
  7  8  1  0
  8  9  2  0
  9 10  1  0
  9 11  1  0
 11 12  1  0
 11 13  2  0
 13 14  1  0
 14 15  1  0
 15 16  2  0
 15 17  1  0
 17 18  1  0
 17 19  1  0
 19 20  1  0
 19 21  1  0
 19 22  1  0
 14 23  2  0
 23 24  1  0
  7 25  1  0
 25 26  2  0
 26 27  1  0
 26  3  1  0
 23  8  1  0
M  CHG  1   4  -1
M  END
>  <UniqueID>  (45) 
43

>  <SMILES>  (45) 
[H]/N=c1\cnc(-c2ccnc(C(=O)NC)c2)c[n-]1

>  <Energy>  (45) 
31.61779827241684

>  <Genealogy>  (45) 
CNC(=O)c1cc(-c2c[n-]c(=N)cn2)ccn1 (protonated)
[H]/N=c1\cnc(-c2ccnc(C(=O)NC)c2)c[n-]1 (cis-trans isomerization)
[H]/N=c1\cnc(-c2ccnc(C(=O)NC)c2)c[n-]1 (3D coordinates assigned)
[H]/N=c1\cnc(-c2ccnc(C(=O)NC)c2)c[n-]1 (optimized conformer: 31.61779827241684 kcal/mol)

>  <smiles>  (45) 
CNC(=O)c1cc(-c2c[nH]c(=N)cn2)ccn1

>  <score_type>  (45) 
oracle

>  <origin>  (45) 
adg

>  <m_score__min__energy>  (45) 
-7.8200000000000003

>  <m_primary>  (45) 
energy

$$$$
45:0
     RDKit          3D

 54 57  0  0  0  0  0  0  0  0999 V2000
   55.5340   30.4720   44.0310 C   0  0  0  0  0  0  0  0  0  0  0  0
   56.3370   29.7660   44.8350 C   0  0  0  0  0  0  0  0  0  0  0  0
   56.0930   28.4670   45.1280 N   0  0  0  0  0  0  0  0  0  0  0  0
   57.0650   28.1300   46.0030 C   0  0  0  0  0  0  0  0  0  0  0  0
   57.1810   26.9300   46.5880 C   0  0  0  0  0  0  0  0  0  0  0  0
   56.7420   25.6730   45.9380 C   0  0  0  0  0  0  0  0  0  0  0  0
   55.3840   25.4100   45.6690 C   0  0  0  0  0  0  0  0  0  0  0  0
   54.3980   26.3390   45.9890 O   0  0  0  0  0  0  0  0  0  0  0  0
   55.0280   24.2490   45.0630 N   0  0  0  0  0  0  0  0  0  0  0  0
   55.9600   23.3340   44.6930 C   0  0  0  0  0  0  0  0  0  0  0  0
   55.6030   22.2610   44.1380 O   0  0  0  0  0  0  0  0  0  0  0  0
   57.2780   23.5750   44.9160 N   0  0  0  0  0  0  0  0  0  0  0  0
   57.6890   24.7210   45.5210 C   0  0  0  0  0  0  0  0  0  0  0  0
   58.9210   24.9090   45.7130 O   0  0  0  0  0  0  0  0  0  0  0  0
   57.8670   29.2270   46.2260 C   0  0  0  0  0  0  0  0  0  0  0  0
   58.8740   29.2690   46.9850 O   0  0  0  0  0  0  0  0  0  0  0  0
   57.4260   30.2600   45.4860 N   0  0  0  0  0  0  0  0  0  0  0  0
   58.0080   31.5760   45.4090 C   0  0  0  0  0  0  0  0  0  0  0  0
   57.9700   32.3000   44.2070 C   0  0  0  0  0  0  0  0  0  0  0  0
   58.5460   33.5710   44.1320 C   0  0  0  0  0  0  0  0  0  0  0  0
   59.1770   34.1230   45.2490 C   0  0  0  0  0  0  0  0  0  0  0  0
   59.2320   33.4080   46.4580 C   0  0  0  0  0  0  0  0  0  0  0  0
   59.9990   33.9530   47.6040 C   0  0  0  0  0  0  0  0  0  0  0  0
   59.5110   34.9130   48.2630 O   0  0  0  0  0  0  0  0  0  0  0  0
   61.3570   33.5110   47.8630 N   0  0  0  0  0  0  0  0  0  0  0  0
   61.3690   32.0570   48.0890 C   0  0  0  0  0  0  0  0  0  0  0  0
   62.7610   31.5850   48.5590 C   0  0  0  0  0  0  0  0  0  0  0  0
   63.8630   32.4760   48.1230 N   0  0  0  0  0  0  0  0  0  0  0  0
   64.2890   33.4740   49.1350 C   0  0  0  0  0  0  0  0  0  0  0  0
   64.6310   32.7610   50.4350 C   0  0  0  0  0  0  0  0  0  0  0  0
   63.6040   33.0840   46.8030 C   0  0  0  0  0  0  0  0  0  0  0  0
   62.2770   33.8840   46.7620 C   0  0  0  0  0  0  0  0  0  0  0  0
   58.6090   32.1520   46.5400 C   0  0  0  0  0  0  0  0  0  0  0  0
   55.7618   31.5260   43.8138 H   0  0  0  0  0  0  0  0  0  0  0  0
   54.6459   29.9985   43.5871 H   0  0  0  0  0  0  0  0  0  0  0  0
   57.6213   26.8758   47.5946 H   0  0  0  0  0  0  0  0  0  0  0  0
   57.4849   31.8652   43.3206 H   0  0  0  0  0  0  0  0  0  0  0  0
   58.5023   34.1383   43.1906 H   0  0  0  0  0  0  0  0  0  0  0  0
   59.6330   35.1218   45.1824 H   0  0  0  0  0  0  0  0  0  0  0  0
   61.6950   33.9680   48.7380 H   0  0  0  0  0  0  0  0  0  0  0  0
   60.6245   31.8059   48.8589 H   0  0  0  0  0  0  0  0  0  0  0  0
   61.1274   31.5518   47.1422 H   0  0  0  0  0  0  0  0  0  0  0  0
   62.7618   31.5417   49.6581 H   0  0  0  0  0  0  0  0  0  0  0  0
   62.9406   30.5998   48.1040 H   0  0  0  0  0  0  0  0  0  0  0  0
   65.1747   34.0135   48.7683 H   0  0  0  0  0  0  0  0  0  0  0  0
   63.4724   34.1894   49.3121 H   0  0  0  0  0  0  0  0  0  0  0  0
   64.3302   33.3881   51.2872 H   0  0  0  0  0  0  0  0  0  0  0  0
   64.0952   31.8013   50.4788 H   0  0  0  0  0  0  0  0  0  0  0  0
   65.7148   32.5782   50.4788 H   0  0  0  0  0  0  0  0  0  0  0  0
   64.4330   33.7652   46.5607 H   0  0  0  0  0  0  0  0  0  0  0  0
   63.5215   32.2666   46.0715 H   0  0  0  0  0  0  0  0  0  0  0  0
   62.5085   34.9563   46.8433 H   0  0  0  0  0  0  0  0  0  0  0  0
   61.7743   33.6506   45.8118 H   0  0  0  0  0  0  0  0  0  0  0  0
   58.5916   31.6142   47.4994 H   0  0  0  0  0  0  0  0  0  0  0  0
  1  2  2  0
  2  3  1  0
  3  4  1  0
  4  5  2  3
  5  6  1  0
  6  7  2  0
  7  8  1  0
  7  9  1  0
  9 10  1  0
 10 11  2  0
 10 12  1  0
 12 13  1  0
 13 14  2  0
  4 15  1  0
 15 16  2  0
 15 17  1  0
 17 18  1  0
 18 19  2  0
 19 20  1  0
 20 21  2  0
 21 22  1  0
 22 23  1  0
 23 24  2  0
 23 25  1  0
 25 26  1  0
 26 27  1  0
 27 28  1  0
 28 29  1  0
 29 30  1  0
 28 31  1  0
 31 32  1  0
 22 33  2  0
 17  2  1  0
 33 18  1  0
 13  6  1  0
 32 25  1  0
  1 34  1  0
  1 35  1  0
  5 36  1  0
 19 37  1  0
 20 38  1  0
 21 39  1  0
 25 40  1  0
 26 41  1  0
 26 42  1  0
 27 43  1  0
 27 44  1  0
 29 45  1  0
 29 46  1  0
 30 47  1  0
 30 48  1  0
 30 49  1  0
 31 50  1  0
 31 51  1  0
 32 52  1  0
 32 53  1  0
 33 54  1  0
M  CHG  5   3  -1   8  -1   9  -1  12  -1  25   1
M  END
>  <UniqueID>  (46) 
44

>  <SMILES>  (46) 
C=c1[n-]c(=Cc2c([O-])[n-]c(=O)[n-]c2=O)c(=O)n1-c1cccc(C(=O)[NH+]2CCN(CC)CC2)c1

>  <Energy>  (46) 
123.1486608213115

>  <Genealogy>  (46) 
C=c1[n-]c(=Cc2c([O-])[n-]c(=O)[n-]c2=O)c(=O)n1-c1cccc(C(=O)[NH+]2CCN(CC)CC2)c1 (protonated)
C=c1[n-]c(=Cc2c([O-])[n-]c(=O)[n-]c2=O)c(=O)n1-c1cccc(C(=O)[NH+]2CCN(CC)CC2)c1 (3D coordinates assigned)
C=c1[n-]c(=Cc2c([O-])[n-]c(=O)[n-]c2=O)c(=O)n1-c1cccc(C(=O)[NH+]2CCN(CC)CC2)c1 (nonaromatic ring conformer: 123.1486608213115 kcal/mol)

>  <smiles>  (46) 
C=c1[nH]c(=Cc2c(O)[nH]c(=O)[nH]c2=O)c(=O)n1-c1cccc(C(=O)N2CCN(CC)CC2)c1

>  <score_type>  (46) 
oracle

>  <origin>  (46) 
adg

>  <m_score__min__energy>  (46) 
-16.899999999999999

>  <m_primary>  (46) 
energy

$$$$
46:0
     RDKit          3D

 49 52  0  0  0  0  0  0  0  0999 V2000
   58.2030   32.2340   47.1890 O   0  0  0  0  0  0  0  0  0  0  0  0
   58.3710   32.3320   45.9440 C   0  0  0  0  0  0  0  0  0  0  0  0
   59.0300   33.4910   45.4050 N   0  0  0  0  0  0  0  0  0  0  0  0
   59.4230   34.6240   46.2400 C   0  0  0  0  0  0  0  0  0  0  0  0
   60.6630   34.2870   47.0280 C   0  0  0  0  0  0  0  0  0  0  0  0
   61.8120   33.8430   46.3540 C   0  0  0  0  0  0  0  0  0  0  0  0
   62.9670   33.5100   47.0670 C   0  0  0  0  0  0  0  0  0  0  0  0
   62.9840   33.6160   48.4600 C   0  0  0  0  0  0  0  0  0  0  0  0
   61.8450   34.0560   49.1410 C   0  0  0  0  0  0  0  0  0  0  0  0
   60.6860   34.3900   48.4330 C   0  0  0  0  0  0  0  0  0  0  0  0
   59.5940   34.8120   49.1180 F   0  0  0  0  0  0  0  0  0  0  0  0
   57.9020   31.2370   45.0610 C   0  0  0  0  0  0  0  0  0  0  0  0
   57.3120   31.5410   43.8230 C   0  0  0  0  0  0  0  0  0  0  0  0
   56.8650   30.5210   42.9820 C   0  0  0  0  0  0  0  0  0  0  0  0
   57.0080   29.1860   43.3610 C   0  0  0  0  0  0  0  0  0  0  0  0
   57.6080   28.8500   44.5880 C   0  0  0  0  0  0  0  0  0  0  0  0
   57.7720   27.4650   44.9720 N   0  0  0  0  0  0  0  0  0  0  0  0
   57.8350   27.1170   46.4050 C   0  0  0  0  0  0  0  0  0  0  0  0
   58.5690   25.7950   46.6370 C   0  0  0  0  0  0  0  0  0  0  0  0
   57.9730   24.7280   45.7790 C   0  0  0  0  0  0  0  0  0  0  0  0
   57.8480   23.4580   46.2460 N   0  0  0  0  0  0  0  0  0  0  0  0
   57.3380   22.4710   45.4620 C   0  0  0  0  0  0  0  0  0  0  0  0
   57.1730   21.0920   46.0090 C   0  0  0  0  0  0  0  0  0  0  0  0
   56.9210   21.1730   47.7690 S   0  0  0  0  0  0  0  0  0  0  0  0
   56.9410   22.7530   44.1920 N   0  0  0  0  0  0  0  0  0  0  0  0
   57.0570   24.0060   43.6830 C   0  0  0  0  0  0  0  0  0  0  0  0
   57.5730   25.0370   44.4750 C   0  0  0  0  0  0  0  0  0  0  0  0
   57.7740   26.4240   43.9210 C   0  0  0  0  0  0  0  0  0  0  0  0
   58.0560   29.8870   45.4300 C   0  0  0  0  0  0  0  0  0  0  0  0
   59.3030   33.5150   44.3970 H   0  0  0  0  0  0  0  0  0  0  0  0
   59.6258   35.4944   45.5987 H   0  0  0  0  0  0  0  0  0  0  0  0
   58.6057   34.8539   46.9394 H   0  0  0  0  0  0  0  0  0  0  0  0
   61.8030   33.7567   45.2574 H   0  0  0  0  0  0  0  0  0  0  0  0
   63.8632   33.1642   46.5311 H   0  0  0  0  0  0  0  0  0  0  0  0
   63.8932   33.3534   49.0207 H   0  0  0  0  0  0  0  0  0  0  0  0
   61.8605   34.1398   50.2377 H   0  0  0  0  0  0  0  0  0  0  0  0
   57.2015   32.5909   43.5141 H   0  0  0  0  0  0  0  0  0  0  0  0
   56.3986   30.7703   42.0175 H   0  0  0  0  0  0  0  0  0  0  0  0
   56.6482   28.3887   42.6940 H   0  0  0  0  0  0  0  0  0  0  0  0
   58.3644   27.9173   46.9428 H   0  0  0  0  0  0  0  0  0  0  0  0
   56.8052   27.0058   46.7754 H   0  0  0  0  0  0  0  0  0  0  0  0
   59.6319   25.9178   46.3816 H   0  0  0  0  0  0  0  0  0  0  0  0
   58.4727   25.5069   47.6942 H   0  0  0  0  0  0  0  0  0  0  0  0
   56.3030   20.6125   45.5365 H   0  0  0  0  0  0  0  0  0  0  0  0
   58.0783   20.5044   45.7966 H   0  0  0  0  0  0  0  0  0  0  0  0
   56.7453   24.2105   42.6481 H   0  0  0  0  0  0  0  0  0  0  0  0
   58.7399   26.4564   43.3956 H   0  0  0  0  0  0  0  0  0  0  0  0
   56.9343   26.6355   43.2427 H   0  0  0  0  0  0  0  0  0  0  0  0
   58.5330   29.6383   46.3895 H   0  0  0  0  0  0  0  0  0  0  0  0
  1  2  2  0
  2  3  1  0
  3  4  1  0
  4  5  1  0
  5  6  2  0
  6  7  1  0
  7  8  2  0
  8  9  1  0
  9 10  2  0
 10 11  1  0
  2 12  1  0
 12 13  2  0
 13 14  1  0
 14 15  2  0
 15 16  1  0
 16 17  1  0
 17 18  1  0
 18 19  1  0
 19 20  1  0
 20 21  2  0
 21 22  1  0
 22 23  1  0
 23 24  1  0
 22 25  2  0
 25 26  1  0
 26 27  2  0
 27 28  1  0
 16 29  2  0
 10  5  1  0
 29 12  1  0
 28 17  1  0
 27 20  1  0
  3 30  1  0
  4 31  1  0
  4 32  1  0
  6 33  1  0
  7 34  1  0
  8 35  1  0
  9 36  1  0
 13 37  1  0
 14 38  1  0
 15 39  1  0
 18 40  1  0
 18 41  1  0
 19 42  1  0
 19 43  1  0
 23 44  1  0
 23 45  1  0
 26 46  1  0
 28 47  1  0
 28 48  1  0
 29 49  1  0
M  CHG  1  24  -1
M  END
>  <UniqueID>  (47) 
45

>  <SMILES>  (47) 
O=C(NCc1ccccc1F)c1cccc(N2CCc3nc(C[S-])ncc3C2)c1

>  <Energy>  (47) 
58.40643356940231

>  <Genealogy>  (47) 
O=C(NCc1ccccc1F)c1cccc(N2CCc3nc(C[S-])ncc3C2)c1 (protonated)
O=C(NCc1ccccc1F)c1cccc(N2CCc3nc(C[S-])ncc3C2)c1 (3D coordinates assigned)
O=C(NCc1ccccc1F)c1cccc(N2CCc3nc(C[S-])ncc3C2)c1 (nonaromatic ring conformer: 58.40643356940231 kcal/mol)

>  <smiles>  (47) 
O=C(NCc1ccccc1F)c1cccc(N2CCc3nc(CS)ncc3C2)c1

>  <score_type>  (47) 
oracle

>  <origin>  (47) 
adg

>  <m_score__min__energy>  (47) 
-9.8900000000000006

>  <m_primary>  (47) 
energy

$$$$
47:0
     RDKit          3D

 36 37  0  0  0  0  0  0  0  0999 V2000
   57.8100   31.2270   45.4890 C   0  0  0  0  0  0  0  0  0  0  0  0
   58.3230   32.3340   46.3530 C   0  0  0  0  0  0  0  0  0  0  0  0
   58.7670   33.5330   45.7840 C   0  0  0  0  0  0  0  0  0  0  0  0
   59.2700   34.5240   46.6270 C   0  0  0  0  0  0  0  0  0  0  0  0
   59.6720   35.6170   46.1510 O   0  0  0  0  0  0  0  0  0  0  0  0
   59.3330   34.3060   47.9670 N   0  0  0  0  0  0  0  0  0  0  0  0
   58.9100   33.1310   48.5020 C   0  0  0  0  0  0  0  0  0  0  0  0
   59.0440   32.8530   50.2650 S   0  0  0  0  0  0  0  0  0  0  0  0
   58.3490   31.1670   50.1980 C   0  0  0  0  0  0  0  0  0  0  0  0
   58.0930   30.6490   51.5870 C   0  0  0  0  0  0  0  0  0  0  0  0
   58.8600   31.0160   52.5150 O   0  0  0  0  0  0  0  0  0  0  0  0
   56.9830   29.7990   51.9140 N   0  0  0  0  0  0  0  0  0  0  0  0
   55.7830   30.1560   52.6700 C   0  0  0  0  0  0  0  0  0  0  0  0
   54.5290   29.5420   52.0360 C   0  0  0  0  0  0  0  0  0  0  0  0
   53.3650   30.4970   52.0460 C   0  0  0  0  0  0  0  0  0  0  0  0
   53.0320   31.2170   50.8860 C   0  0  0  0  0  0  0  0  0  0  0  0
   51.9220   32.0680   50.8810 C   0  0  0  0  0  0  0  0  0  0  0  0
   51.1380   32.2050   52.0290 C   0  0  0  0  0  0  0  0  0  0  0  0
   50.0340   33.0490   52.0210 O   0  0  0  0  0  0  0  0  0  0  0  0
   51.4630   31.4910   53.1870 C   0  0  0  0  0  0  0  0  0  0  0  0
   52.5720   30.6390   53.1970 C   0  0  0  0  0  0  0  0  0  0  0  0
   58.4110   32.1570   47.6990 N   0  0  0  0  0  0  0  0  0  0  0  0
   57.4322   30.4117   46.1235 H   0  0  0  0  0  0  0  0  0  0  0  0
   56.9953   31.6050   44.8539 H   0  0  0  0  0  0  0  0  0  0  0  0
   58.6251   30.8498   44.8539 H   0  0  0  0  0  0  0  0  0  0  0  0
   58.7204   33.6904   44.6963 H   0  0  0  0  0  0  0  0  0  0  0  0
   57.4020   31.1874   49.6387 H   0  0  0  0  0  0  0  0  0  0  0  0
   59.0699   30.5038   49.6974 H   0  0  0  0  0  0  0  0  0  0  0  0
   55.8835   29.7843   53.7004 H   0  0  0  0  0  0  0  0  0  0  0  0
   55.6781   31.2510   52.6629 H   0  0  0  0  0  0  0  0  0  0  0  0
   54.7552   29.2690   50.9947 H   0  0  0  0  0  0  0  0  0  0  0  0
   54.2478   28.6583   52.6276 H   0  0  0  0  0  0  0  0  0  0  0  0
   53.6460   31.1110   49.9795 H   0  0  0  0  0  0  0  0  0  0  0  0
   51.6659   32.6306   49.9711 H   0  0  0  0  0  0  0  0  0  0  0  0
   50.8456   31.5997   54.0909 H   0  0  0  0  0  0  0  0  0  0  0  0
   52.8242   30.0782   54.1091 H   0  0  0  0  0  0  0  0  0  0  0  0
  1  2  1  0
  2  3  2  0
  3  4  1  0
  4  5  2  0
  4  6  1  0
  6  7  1  0
  7  8  1  0
  8  9  1  0
  9 10  1  0
 10 11  2  0
 10 12  1  0
 12 13  1  0
 13 14  1  0
 14 15  1  0
 15 16  2  0
 16 17  1  0
 17 18  2  0
 18 19  1  0
 18 20  1  0
 20 21  2  0
  7 22  2  0
 22  2  1  0
 21 15  1  0
  1 23  1  0
  1 24  1  0
  1 25  1  0
  3 26  1  0
  9 27  1  0
  9 28  1  0
 13 29  1  0
 13 30  1  0
 14 31  1  0
 14 32  1  0
 16 33  1  0
 17 34  1  0
 20 35  1  0
 21 36  1  0
M  CHG  3   6  -1  12  -1  19  -1
M  END
>  <UniqueID>  (48) 
46

>  <SMILES>  (48) 
Cc1cc(=O)[n-]c(SCC(=O)[N-]CCc2ccc([O-])cc2)n1

>  <Energy>  (48) 
26.863403383710203

>  <Genealogy>  (48) 
Cc1cc(=O)[n-]c(SCC(=O)[N-]CCc2ccc([O-])cc2)n1 (protonated)
Cc1cc(=O)[n-]c(SCC(=O)[N-]CCc2ccc([O-])cc2)n1 (3D coordinates assigned)
Cc1cc(=O)[n-]c(SCC(=O)[N-]CCc2ccc([O-])cc2)n1 (optimized conformer: 26.863403383710203 kcal/mol)

>  <smiles>  (48) 
Cc1cc(=O)[nH]c(SCC(=O)NCCc2ccc(O)cc2)n1

>  <score_type>  (48) 
oracle

>  <origin>  (48) 
adg

>  <m_score__min__energy>  (48) 
-12.91

>  <m_primary>  (48) 
energy

$$$$
48:0
     RDKit          3D

 51 53  0  0  0  0  0  0  0  0999 V2000
   64.0640   33.0470   46.8200 C   0  0  0  0  0  0  0  0  0  0  0  0
   63.1060   33.2850   47.9020 N   0  0  0  0  0  0  0  0  0  0  0  0
   63.5650   33.8400   49.1810 C   0  0  0  0  0  0  0  0  0  0  0  0
   61.6990   33.1030   47.6460 C   0  0  0  0  0  0  0  0  0  0  0  0
   61.2640   33.2000   46.4660 O   0  0  0  0  0  0  0  0  0  0  0  0
   60.7410   32.8140   48.7350 C   0  0  0  0  0  0  0  0  0  0  0  0
   60.2720   33.8550   49.5510 C   0  0  0  0  0  0  0  0  0  0  0  0
   59.3590   33.5920   50.5740 C   0  0  0  0  0  0  0  0  0  0  0  0
   58.8960   32.2900   50.7840 C   0  0  0  0  0  0  0  0  0  0  0  0
   59.3350   31.2360   49.9640 C   0  0  0  0  0  0  0  0  0  0  0  0
   58.8320   29.8580   50.1730 C   0  0  0  0  0  0  0  0  0  0  0  0
   57.8280   29.6600   50.9100 O   0  0  0  0  0  0  0  0  0  0  0  0
   59.4540   28.7560   49.4960 N   0  0  0  0  0  0  0  0  0  0  0  0
   59.0780   28.2120   48.2230 C   0  0  0  0  0  0  0  0  0  0  0  0
   59.5980   26.9940   47.7510 C   0  0  0  0  0  0  0  0  0  0  0  0
   59.2230   26.5100   46.4960 C   0  0  0  0  0  0  0  0  0  0  0  0
   58.3390   27.2380   45.6970 C   0  0  0  0  0  0  0  0  0  0  0  0
   57.8260   28.4690   46.1400 C   0  0  0  0  0  0  0  0  0  0  0  0
   56.8980   29.2490   45.2890 C   0  0  0  0  0  0  0  0  0  0  0  0
   55.6890   28.9010   45.1870 O   0  0  0  0  0  0  0  0  0  0  0  0
   57.3680   30.3990   44.5760 N   0  0  0  0  0  0  0  0  0  0  0  0
   56.6500   31.6680   44.5200 C   0  0  0  0  0  0  0  0  0  0  0  0
   57.4880   32.7690   45.1110 C   0  0  0  0  0  0  0  0  0  0  0  0
   58.3610   33.5170   44.3020 C   0  0  0  0  0  0  0  0  0  0  0  0
   59.1210   34.5510   44.8570 C   0  0  0  0  0  0  0  0  0  0  0  0
   59.0140   34.8480   46.2190 C   0  0  0  0  0  0  0  0  0  0  0  0
   59.7520   35.8520   46.7550 F   0  0  0  0  0  0  0  0  0  0  0  0
   58.1440   34.1110   47.0290 C   0  0  0  0  0  0  0  0  0  0  0  0
   57.3810   33.0770   46.4770 C   0  0  0  0  0  0  0  0  0  0  0  0
   58.2110   28.9500   47.4060 C   0  0  0  0  0  0  0  0  0  0  0  0
   60.2540   31.5120   48.9340 C   0  0  0  0  0  0  0  0  0  0  0  0
   65.0474   32.8027   47.2481 H   0  0  0  0  0  0  0  0  0  0  0  0
   63.7155   32.2081   46.1996 H   0  0  0  0  0  0  0  0  0  0  0  0
   64.1486   33.9514   46.1996 H   0  0  0  0  0  0  0  0  0  0  0  0
   63.1037   33.2823   50.0094 H   0  0  0  0  0  0  0  0  0  0  0  0
   64.6597   33.7544   49.2461 H   0  0  0  0  0  0  0  0  0  0  0  0
   63.2755   34.8992   49.2461 H   0  0  0  0  0  0  0  0  0  0  0  0
   60.6254   34.8832   49.3838 H   0  0  0  0  0  0  0  0  0  0  0  0
   59.0033   34.4112   51.2161 H   0  0  0  0  0  0  0  0  0  0  0  0
   58.1828   32.0886   51.5969 H   0  0  0  0  0  0  0  0  0  0  0  0
   60.3021   26.4208   48.3720 H   0  0  0  0  0  0  0  0  0  0  0  0
   59.6254   25.5518   46.1355 H   0  0  0  0  0  0  0  0  0  0  0  0
   58.0420   26.8450   44.7135 H   0  0  0  0  0  0  0  0  0  0  0  0
   56.4210   31.9093   43.4715 H   0  0  0  0  0  0  0  0  0  0  0  0
   55.7186   31.5778   45.0982 H   0  0  0  0  0  0  0  0  0  0  0  0
   58.4464   33.2882   43.2295 H   0  0  0  0  0  0  0  0  0  0  0  0
   59.8046   35.1321   44.2207 H   0  0  0  0  0  0  0  0  0  0  0  0
   58.0598   34.3447   48.1006 H   0  0  0  0  0  0  0  0  0  0  0  0
   56.6940   32.5024   47.1157 H   0  0  0  0  0  0  0  0  0  0  0  0
   57.8260   29.9182   47.7586 H   0  0  0  0  0  0  0  0  0  0  0  0
   60.5947   30.6981   48.2772 H   0  0  0  0  0  0  0  0  0  0  0  0
  1  2  1  0
  2  3  1  0
  2  4  1  0
  4  5  2  0
  4  6  1  0
  6  7  2  0
  7  8  1  0
  8  9  2  0
  9 10  1  0
 10 11  1  0
 11 12  2  0
 11 13  1  0
 13 14  1  0
 14 15  2  0
 15 16  1  0
 16 17  2  0
 17 18  1  0
 18 19  1  0
 19 20  2  0
 19 21  1  0
 21 22  1  0
 22 23  1  0
 23 24  2  0
 24 25  1  0
 25 26  2  0
 26 27  1  0
 26 28  1  0
 28 29  2  0
 18 30  2  0
 10 31  2  0
 31  6  1  0
 30 14  1  0
 29 23  1  0
  1 32  1  0
  1 33  1  0
  1 34  1  0
  3 35  1  0
  3 36  1  0
  3 37  1  0
  7 38  1  0
  8 39  1  0
  9 40  1  0
 15 41  1  0
 16 42  1  0
 17 43  1  0
 22 44  1  0
 22 45  1  0
 24 46  1  0
 25 47  1  0
 28 48  1  0
 29 49  1  0
 30 50  1  0
 31 51  1  0
M  CHG  2  13  -1  21  -1
M  END
>  <UniqueID>  (49) 
47

>  <SMILES>  (49) 
CN(C)C(=O)c1cccc(C(=O)[N-]c2cccc(C(=O)[N-]Cc3ccc(F)cc3)c2)c1

>  <Energy>  (49) 
59.485019580550265

>  <Genealogy>  (49) 
CN(C)C(=O)c1cccc(C(=O)[N-]c2cccc(C(=O)[N-]Cc3ccc(F)cc3)c2)c1 (protonated)
CN(C)C(=O)c1cccc(C(=O)[N-]c2cccc(C(=O)[N-]Cc3ccc(F)cc3)c2)c1 (3D coordinates assigned)
CN(C)C(=O)c1cccc(C(=O)[N-]c2cccc(C(=O)[N-]Cc3ccc(F)cc3)c2)c1 (optimized conformer: 59.485019580550265 kcal/mol)

>  <smiles>  (49) 
CN(C)C(=O)c1cccc(C(=O)Nc2cccc(C(=O)NCc3ccc(F)cc3)c2)c1

>  <score_type>  (49) 
oracle

>  <origin>  (49) 
adg

>  <m_score__min__energy>  (49) 
-12.619999999999999

>  <m_primary>  (49) 
energy

$$$$
49:0
     RDKit          3D

 50 52  0  0  0  0  0  0  0  0999 V2000
   55.3103   31.1435   43.9985 H   0  0  0  0  0  0  0  0  0  0  0  0
   55.9980   30.3450   44.3140 C   0  0  0  0  0  0  0  0  0  0  0  0
   55.5030   29.1850   44.8190 N   0  0  0  0  0  0  0  0  0  0  0  0
   56.3040   28.1680   45.2420 C   0  0  0  0  0  0  0  0  0  0  0  0
   55.7340   27.0890   45.7030 N   0  0  0  0  0  0  0  0  0  0  0  0
   56.2940   25.7800   45.8890 C   0  0  0  0  0  0  0  0  0  0  0  0
   55.9380   25.0460   46.8500 O   0  0  0  0  0  0  0  0  0  0  0  0
   57.1950   25.2200   44.8400 C   0  0  0  0  0  0  0  0  0  0  0  0
   58.0358   24.6974   45.3196 H   0  0  0  0  0  0  0  0  0  0  0  0
   56.6327   24.5120   44.2135 H   0  0  0  0  0  0  0  0  0  0  0  0
   57.5809   26.0376   44.2135 H   0  0  0  0  0  0  0  0  0  0  0  0
   57.7030   28.3160   45.1330 C   0  0  0  0  0  0  0  0  0  0  0  0
   58.3723   27.5036   45.4526 H   0  0  0  0  0  0  0  0  0  0  0  0
   58.2320   29.5000   44.6170 C   0  0  0  0  0  0  0  0  0  0  0  0
   59.3222   29.6263   44.5426 H   0  0  0  0  0  0  0  0  0  0  0  0
   57.3810   30.5270   44.1940 C   0  0  0  0  0  0  0  0  0  0  0  0
   57.9440   31.8160   43.6690 C   0  0  0  0  0  0  0  0  0  0  0  0
   58.6822   31.6010   42.8824 H   0  0  0  0  0  0  0  0  0  0  0  0
   57.1322   32.4288   43.2500 H   0  0  0  0  0  0  0  0  0  0  0  0
   58.5890   32.5390   44.7570 N   0  0  0  0  0  0  0  0  0  0  0  0
   58.0730   33.7230   45.3780 C   0  0  0  0  0  0  0  0  0  0  0  0
   57.1410   34.3460   44.8020 O   0  0  0  0  0  0  0  0  0  0  0  0
   58.6510   34.2720   46.6620 C   0  0  2  0  0  0  0  0  0  0  0  0
   57.9582   35.0146   47.0846 H   0  0  0  0  0  0  0  0  0  0  0  0
   59.9540   34.9760   46.3960 C   0  0  0  0  0  0  0  0  0  0  0  0
   59.9460   36.1660   45.9800 O   0  0  0  0  0  0  0  0  0  0  0  0
   61.2000   34.2960   46.5710 N   0  0  0  0  0  0  0  0  0  0  0  0
   62.0670   34.7560   46.2090 H   0  0  0  0  0  0  0  0  0  0  0  0
   61.2380   32.8850   46.9490 C   0  0  1  0  0  0  0  0  0  0  0  0
   61.0254   32.3035   46.0398 H   0  0  0  0  0  0  0  0  0  0  0  0
   62.6060   32.4870   47.4560 C   0  0  0  0  0  0  0  0  0  0  0  0
   63.2520   31.6240   46.8020 O   0  0  0  0  0  0  0  0  0  0  0  0
   63.1640   32.9990   48.6850 N   0  0  0  0  0  0  0  0  0  0  0  0
   62.6900   34.1680   49.4120 C   0  0  0  0  0  0  0  0  0  0  0  0
   62.8894   35.0846   48.8374 H   0  0  0  0  0  0  0  0  0  0  0  0
   61.6045   34.1273   49.5854 H   0  0  0  0  0  0  0  0  0  0  0  0
   63.4700   34.1800   50.7200 C   0  0  0  0  0  0  0  0  0  0  0  0
   63.7699   35.2062   50.9789 H   0  0  0  0  0  0  0  0  0  0  0  0
   62.8663   33.8005   51.5576 H   0  0  0  0  0  0  0  0  0  0  0  0
   64.6990   33.3130   50.4720 C   0  0  0  0  0  0  0  0  0  0  0  0
   65.5630   33.9394   50.2053 H   0  0  0  0  0  0  0  0  0  0  0  0
   64.9802   32.7408   51.3684 H   0  0  0  0  0  0  0  0  0  0  0  0
   64.3290   32.3970   49.3130 C   0  0  0  0  0  0  0  0  0  0  0  0
   65.1603   32.3332   48.5954 H   0  0  0  0  0  0  0  0  0  0  0  0
   64.1181   31.3741   49.6583 H   0  0  0  0  0  0  0  0  0  0  0  0
   60.1560   32.5450   47.9910 C   0  0  0  0  0  0  0  0  0  0  0  0
   60.4844   32.9186   48.9721 H   0  0  0  0  0  0  0  0  0  0  0  0
   60.0292   31.4523   47.9894 H   0  0  0  0  0  0  0  0  0  0  0  0
   58.8140   33.1560   47.6680 C   0  0  0  0  0  0  0  0  0  0  0  0
   57.8250   32.7370   48.2490 O   0  0  0  0  0  0  0  0  0  0  0  0
  1  2  1  0
  2  3  1  0
  3  4  1  0
  4  5  2  0
  5  6  1  0
  6  7  2  0
  6  8  1  0
  8  9  1  0
  8 10  1  0
  8 11  1  0
  4 12  1  0
 12 13  1  0
 12 14  2  0
 14 15  1  0
 14 16  1  0
 16 17  1  0
 17 18  1  0
 17 19  1  0
 17 20  1  0
 20 21  1  0
 21 22  2  0
 21 23  1  0
 23 24  1  1
 23 25  1  0
 25 26  2  0
 25 27  1  0
 27 28  1  0
 27 29  1  0
 29 30  1  6
 29 31  1  0
 31 32  2  0
 31 33  1  0
 33 34  1  0
 34 35  1  0
 34 36  1  0
 34 37  1  0
 37 38  1  0
 37 39  1  0
 37 40  1  0
 40 41  1  0
 40 42  1  0
 40 43  1  0
 43 44  1  0
 43 45  1  0
 29 46  1  0
 46 47  1  0
 46 48  1  0
 46 49  1  0
 49 50  2  0
 16  2  2  0
 49 23  1  0
 43 33  1  0
M  CHG  2   3  -1  20  -1
M  END
>  <UniqueID>  (50) 
48

>  <SMILES>  (50) 
CC(=O)/N=c1\ccc(C[N-]C(=O)[C@H]2C(=O)C[C@H](C(=O)N3CCCC3)NC2=O)c[n-]1

>  <Energy>  (50) 
53.2935900681389

>  <Genealogy>  (50) 
CC(=O)N=c1ccc(C[N-]C(=O)C2C(=O)CC(C(=O)N3CCCC3)NC2=O)c[n-]1 (protonated)
CC(=O)N=c1ccc(C[N-]C(=O)[C@H]2C(=O)C[C@H](C(=O)N3CCCC3)NC2=O)c[n-]1 (chirality)
CC(=O)/N=c1\ccc(C[N-]C(=O)[C@H]2C(=O)C[C@H](C(=O)N3CCCC3)NC2=O)c[n-]1 (cis-trans isomerization)
CC(=O)/N=c1\ccc(C[N-]C(=O)[C@H]2C(=O)C[C@H](C(=O)N3CCCC3)NC2=O)c[n-]1 (3D coordinates assigned)
CC(=O)/N=c1\ccc(C[N-]C(=O)[C@H]2C(=O)C[C@H](C(=O)N3CCCC3)NC2=O)c[n-]1 (nonaromatic ring conformer: 53.2935900681389 kcal/mol)

>  <smiles>  (50) 
CC(=O)N=c1ccc(CNC(=O)C2C(=O)CC(C(=O)N3CCCC3)NC2=O)c[nH]1

>  <score_type>  (50) 
oracle

>  <origin>  (50) 
adg

>  <m_score__min__energy>  (50) 
-11.99

>  <m_primary>  (50) 
energy

$$$$
50:0
     RDKit          3D

 43 44  0  0  0  0  0  0  0  0999 V2000
   63.4020   31.6480   47.4500 C   0  0  0  0  0  0  0  0  0  0  0  0
   62.8660   33.0180   47.5040 N   0  0  0  0  0  0  0  0  0  0  0  0
   63.3980   33.7990   46.3750 C   0  0  0  0  0  0  0  0  0  0  0  0
   63.2100   33.6480   48.7970 C   0  0  0  0  0  0  0  0  0  0  0  0
   61.9560   34.1740   49.5090 C   0  0  0  0  0  0  0  0  0  0  0  0
   61.0010   34.6670   48.5700 O   0  0  0  0  0  0  0  0  0  0  0  0
   60.2400   33.8460   47.7300 C   0  0  0  0  0  0  0  0  0  0  0  0
   59.7050   32.6830   48.1910 N   0  0  0  0  0  0  0  0  0  0  0  0
   58.9650   31.8790   47.3850 C   0  0  0  0  0  0  0  0  0  0  0  0
   58.7390   32.2390   46.0490 C   0  0  0  0  0  0  0  0  0  0  0  0
   57.9350   31.3760   45.1450 C   0  0  0  0  0  0  0  0  0  0  0  0
   57.7880   31.7070   43.7870 C   0  0  0  0  0  0  0  0  0  0  0  0
   57.0340   30.8930   42.9390 C   0  0  0  0  0  0  0  0  0  0  0  0
   56.4210   29.7410   43.4350 C   0  0  0  0  0  0  0  0  0  0  0  0
   56.5550   29.3910   44.7820 C   0  0  0  0  0  0  0  0  0  0  0  0
   55.9080   28.1970   45.2440 N   0  0  0  0  0  0  0  0  0  0  0  0
   56.6960   26.8250   45.9550 S   0  0  0  0  0  0  0  0  0  0  0  0
   57.7370   26.0230   44.7530 C   0  0  0  0  0  0  0  0  0  0  0  0
   57.5050   27.2550   47.1460 O   0  0  0  0  0  0  0  0  0  0  0  0
   55.6480   25.8490   46.4100 O   0  0  0  0  0  0  0  0  0  0  0  0
   57.3100   30.2150   45.6370 C   0  0  0  0  0  0  0  0  0  0  0  0
   59.3000   33.4440   45.5970 C   0  0  0  0  0  0  0  0  0  0  0  0
   60.0320   34.2180   46.4400 N   0  0  0  0  0  0  0  0  0  0  0  0
   63.5494   31.2713   48.4729 H   0  0  0  0  0  0  0  0  0  0  0  0
   62.6922   30.9972   46.9184 H   0  0  0  0  0  0  0  0  0  0  0  0
   64.3650   31.6517   46.9184 H   0  0  0  0  0  0  0  0  0  0  0  0
   63.9782   34.6508   46.7595 H   0  0  0  0  0  0  0  0  0  0  0  0
   64.0489   33.1592   45.7610 H   0  0  0  0  0  0  0  0  0  0  0  0
   62.5643   34.1705   45.7610 H   0  0  0  0  0  0  0  0  0  0  0  0
   63.7016   32.9028   49.4397 H   0  0  0  0  0  0  0  0  0  0  0  0
   63.8824   34.4967   48.6031 H   0  0  0  0  0  0  0  0  0  0  0  0
   61.5018   33.3562   50.0877 H   0  0  0  0  0  0  0  0  0  0  0  0
   62.2516   34.9996   50.1730 H   0  0  0  0  0  0  0  0  0  0  0  0
   58.5422   30.9438   47.7808 H   0  0  0  0  0  0  0  0  0  0  0  0
   58.2697   32.6126   43.3897 H   0  0  0  0  0  0  0  0  0  0  0  0
   56.9228   31.1602   41.8777 H   0  0  0  0  0  0  0  0  0  0  0  0
   55.8285   29.1043   42.7615 H   0  0  0  0  0  0  0  0  0  0  0  0
   58.5058   25.4307   45.2708 H   0  0  0  0  0  0  0  0  0  0  0  0
   57.1259   25.3600   44.1229 H   0  0  0  0  0  0  0  0  0  0  0  0
   58.2222   26.7830   44.1229 H   0  0  0  0  0  0  0  0  0  0  0  0
   57.4126   29.9493   46.6995 H   0  0  0  0  0  0  0  0  0  0  0  0
   59.1461   33.7629   44.5555 H   0  0  0  0  0  0  0  0  0  0  0  0
   60.4390   35.1140   46.0890 H   0  0  0  0  0  0  0  0  0  0  0  0
  1  2  1  0
  2  3  1  0
  2  4  1  0
  4  5  1  0
  5  6  1  0
  6  7  1  0
  7  8  2  0
  8  9  1  0
  9 10  2  0
 10 11  1  0
 11 12  2  0
 12 13  1  0
 13 14  2  0
 14 15  1  0
 15 16  1  0
 16 17  1  0
 17 18  1  0
 17 19  2  0
 17 20  2  0
 15 21  2  0
 10 22  1  0
 22 23  2  0
 23  7  1  0
 21 11  1  0
  1 24  1  0
  1 25  1  0
  1 26  1  0
  3 27  1  0
  3 28  1  0
  3 29  1  0
  4 30  1  0
  4 31  1  0
  5 32  1  0
  5 33  1  0
  9 34  1  0
 12 35  1  0
 13 36  1  0
 14 37  1  0
 18 38  1  0
 18 39  1  0
 18 40  1  0
 21 41  1  0
 22 42  1  0
 23 43  1  0
M  CHG  2  16  -1  23   1
M  END
>  <UniqueID>  (51) 
49

>  <SMILES>  (51) 
CN(C)CCOc1ncc(-c2cccc([N-]S(C)(=O)=O)c2)c[nH+]1

>  <Energy>  (51) 
44.52954771903526

>  <Genealogy>  (51) 
CN(C)CCOc1ncc(-c2cccc([N-]S(C)(=O)=O)c2)c[nH+]1 (protonated)
CN(C)CCOc1ncc(-c2cccc([N-]S(C)(=O)=O)c2)c[nH+]1 (3D coordinates assigned)
CN(C)CCOc1ncc(-c2cccc([N-]S(C)(=O)=O)c2)c[nH+]1 (optimized conformer: 44.52954771903526 kcal/mol)

>  <smiles>  (51) 
CN(C)CCOc1ncc(-c2cccc(NS(C)(=O)=O)c2)cn1

>  <score_type>  (51) 
oracle

>  <origin>  (51) 
adg

>  <m_score__min__energy>  (51) 
-7.9199999999999999

>  <m_primary>  (51) 
energy

$$$$
51:0
     RDKit          3D

 64 67  0  0  0  0  0  0  0  0999 V2000
   55.1470   29.3550   44.8730 N   0  0  0  0  0  0  0  0  0  0  0  0
   56.6570   29.3180   44.0370 S   0  0  0  0  0  0  0  0  0  0  0  0
   56.4210   28.9800   42.5920 O   0  0  0  0  0  0  0  0  0  0  0  0
   57.5410   28.2640   44.6440 O   0  0  0  0  0  0  0  0  0  0  0  0
   57.4340   30.8910   44.1610 C   0  0  0  0  0  0  0  0  0  0  0  0
   57.7460   31.6160   43.0060 C   0  0  0  0  0  0  0  0  0  0  0  0
   58.3370   32.8750   43.1100 C   0  0  0  0  0  0  0  0  0  0  0  0
   58.6180   33.4180   44.3670 C   0  0  0  0  0  0  0  0  0  0  0  0
   58.3140   32.7050   45.5420 C   0  0  0  0  0  0  0  0  0  0  0  0
   58.6090   33.3250   46.8670 C   0  0  0  0  0  0  0  0  0  0  0  0
   57.7230   34.0470   47.4010 O   0  0  0  0  0  0  0  0  0  0  0  0
   59.9120   33.1470   47.6220 C   0  0  0  0  0  0  0  0  0  0  0  0
   60.9780   32.3890   46.7910 C   0  0  0  0  0  0  0  0  0  0  0  0
   62.3960   32.9250   47.0340 C   0  0  0  0  0  0  0  0  0  0  0  0
   62.5910   33.1790   48.4720 N   0  0  0  0  0  0  0  0  0  0  0  0
   64.0040   33.2610   48.9110 C   0  0  0  0  0  0  0  0  0  0  0  0
   64.3080   32.6790   50.3120 C   0  0  0  0  0  0  0  0  0  0  0  0
   63.5520   31.3790   50.6220 C   0  0  0  0  0  0  0  0  0  0  0  0
   62.1350   31.6630   50.9000 N   0  0  0  0  0  0  0  0  0  0  0  0
   61.1640   30.9630   50.2390 C   0  0  0  0  0  0  0  0  0  0  0  0
   59.8060   31.2280   50.4660 C   0  0  0  0  0  0  0  0  0  0  0  0
   58.7580   30.4440   49.7730 C   0  0  0  0  0  0  0  0  0  0  0  0
   57.8210   29.9360   50.4430 O   0  0  0  0  0  0  0  0  0  0  0  0
   58.7470   30.2830   48.3470 N   0  0  0  0  0  0  0  0  0  0  0  0
   59.2930   29.1840   47.6010 C   0  0  0  0  0  0  0  0  0  0  0  0
   59.2420   27.9010   48.1590 C   0  0  0  0  0  0  0  0  0  0  0  0
   59.7690   26.8060   47.4660 C   0  0  0  0  0  0  0  0  0  0  0  0
   60.3700   26.9920   46.2180 C   0  0  0  0  0  0  0  0  0  0  0  0
   60.4590   28.2730   45.6710 C   0  0  0  0  0  0  0  0  0  0  0  0
   59.9340   29.3700   46.3610 C   0  0  0  0  0  0  0  0  0  0  0  0
   59.4810   32.2530   51.3670 C   0  0  0  0  0  0  0  0  0  0  0  0
   58.2790   32.5420   51.6100 O   0  0  0  0  0  0  0  0  0  0  0  0
   60.4680   32.9300   52.0010 N   0  0  0  0  0  0  0  0  0  0  0  0
   61.7770   32.6490   51.7850 C   0  0  0  0  0  0  0  0  0  0  0  0
   62.6550   33.3090   52.4040 O   0  0  0  0  0  0  0  0  0  0  0  0
   61.7140   34.2270   49.0470 C   0  0  0  0  0  0  0  0  0  0  0  0
   60.4380   34.4700   48.2160 C   0  0  0  0  0  0  0  0  0  0  0  0
   57.7120   31.4370   45.4210 C   0  0  0  0  0  0  0  0  0  0  0  0
   55.1990   28.6300   45.6240 H   0  0  0  0  0  0  0  0  0  0  0  0
   57.5250   31.1928   42.0150 H   0  0  0  0  0  0  0  0  0  0  0  0
   58.5827   33.4423   42.2002 H   0  0  0  0  0  0  0  0  0  0  0  0
   59.0816   34.4130   44.4387 H   0  0  0  0  0  0  0  0  0  0  0  0
   59.6868   32.5018   48.4840 H   0  0  0  0  0  0  0  0  0  0  0  0
   60.9502   31.3245   47.0668 H   0  0  0  0  0  0  0  0  0  0  0  0
   60.7411   32.5348   45.7268 H   0  0  0  0  0  0  0  0  0  0  0  0
   63.1314   32.1824   46.6908 H   0  0  0  0  0  0  0  0  0  0  0  0
   62.5312   33.8636   46.4766 H   0  0  0  0  0  0  0  0  0  0  0  0
   64.6173   32.7157   48.1785 H   0  0  0  0  0  0  0  0  0  0  0  0
   64.2350   34.3345   48.9766 H   0  0  0  0  0  0  0  0  0  0  0  0
   65.3872   32.4760   50.3762 H   0  0  0  0  0  0  0  0  0  0  0  0
   63.9748   33.4258   51.0477 H   0  0  0  0  0  0  0  0  0  0  0  0
   63.6232   30.7033   49.7569 H   0  0  0  0  0  0  0  0  0  0  0  0
   64.0018   30.9075   51.5082 H   0  0  0  0  0  0  0  0  0  0  0  0
   61.4520   30.1820   49.5199 H   0  0  0  0  0  0  0  0  0  0  0  0
   58.7847   27.7530   49.1484 H   0  0  0  0  0  0  0  0  0  0  0  0
   59.7104   25.7984   47.9034 H   0  0  0  0  0  0  0  0  0  0  0  0
   60.7727   26.1292   45.6671 H   0  0  0  0  0  0  0  0  0  0  0  0
   60.9435   28.4200   44.6944 H   0  0  0  0  0  0  0  0  0  0  0  0
   60.0218   30.3801   45.9344 H   0  0  0  0  0  0  0  0  0  0  0  0
   61.4183   33.9188   50.0607 H   0  0  0  0  0  0  0  0  0  0  0  0
   62.2858   35.1667   49.0529 H   0  0  0  0  0  0  0  0  0  0  0  0
   59.6638   34.9079   48.8633 H   0  0  0  0  0  0  0  0  0  0  0  0
   60.6795   35.1561   47.3908 H   0  0  0  0  0  0  0  0  0  0  0  0
   57.4570   30.8683   46.3274 H   0  0  0  0  0  0  0  0  0  0  0  0
  1  2  1  0
  2  3  2  0
  2  4  2  0
  2  5  1  0
  5  6  2  0
  6  7  1  0
  7  8  2  0
  8  9  1  0
  9 10  1  0
 10 11  2  0
 10 12  1  0
 12 13  1  0
 13 14  1  0
 14 15  1  0
 15 16  1  0
 16 17  1  0
 17 18  1  0
 18 19  1  0
 19 20  1  0
 20 21  2  0
 21 22  1  0
 22 23  2  0
 22 24  1  0
 24 25  1  0
 25 26  2  0
 26 27  1  0
 27 28  2  0
 28 29  1  0
 29 30  2  0
 21 31  1  0
 31 32  2  0
 31 33  1  0
 33 34  1  0
 34 35  2  0
 15 36  1  0
 36 37  1  0
  9 38  2  0
 38  5  1  0
 37 12  1  0
 34 19  1  0
 30 25  1  0
  1 39  1  0
  6 40  1  0
  7 41  1  0
  8 42  1  0
 12 43  1  0
 13 44  1  0
 13 45  1  0
 14 46  1  0
 14 47  1  0
 16 48  1  0
 16 49  1  0
 17 50  1  0
 17 51  1  0
 18 52  1  0
 18 53  1  0
 20 54  1  0
 26 55  1  0
 27 56  1  0
 28 57  1  0
 29 58  1  0
 30 59  1  0
 36 60  1  0
 36 61  1  0
 37 62  1  0
 37 63  1  0
 38 64  1  0
M  CHG  3   1  -1  24  -1  33  -1
M  END
>  <UniqueID>  (52) 
50

>  <SMILES>  (52) 
[NH-]S(=O)(=O)c1cccc(C(=O)C2CCN(CCCn3cc(C(=O)[N-]c4ccccc4)c(=O)[n-]c3=O)CC2)c1

>  <Energy>  (52) 
88.97146023447348

>  <Genealogy>  (52) 
[NH-]S(=O)(=O)c1cccc(C(=O)C2CCN(CCCn3cc(C(=O)[N-]c4ccccc4)c(=O)[n-]c3=O)CC2)c1 (protonated)
[NH-]S(=O)(=O)c1cccc(C(=O)C2CCN(CCCn3cc(C(=O)[N-]c4ccccc4)c(=O)[n-]c3=O)CC2)c1 (3D coordinates assigned)
[NH-]S(=O)(=O)c1cccc(C(=O)C2CCN(CCCn3cc(C(=O)[N-]c4ccccc4)c(=O)[n-]c3=O)CC2)c1 (nonaromatic ring conformer: 88.97146023447348 kcal/mol)

>  <smiles>  (52) 
NS(=O)(=O)c1cccc(C(=O)C2CCN(CCCn3cc(C(=O)Nc4ccccc4)c(=O)[nH]c3=O)CC2)c1

>  <score_type>  (52) 
oracle

>  <origin>  (52) 
adg

>  <m_score__min__energy>  (52) 
-15.970000000000001

>  <m_primary>  (52) 
energy

$$$$
52:0
     RDKit          3D

 26 27  0  0  0  0  0  0  0  0999 V2000
   57.6140   31.8320   42.2790 C   0  0  0  0  0  0  0  0  0  0  0  0
   57.0940   31.4910   43.6100 N   0  0  0  0  0  0  0  0  0  0  0  0
   56.0530   30.4590   43.7270 C   0  0  0  0  0  0  0  0  0  0  0  0
   56.6050   29.2470   44.4080 C   0  0  0  0  0  0  0  0  0  0  0  0
   57.8760   28.7360   44.2390 C   0  0  0  0  0  0  0  0  0  0  0  0
   57.9320   27.6130   45.0360 C   0  0  0  0  0  0  0  0  0  0  0  0
   56.6930   27.5080   45.6380 C   0  0  0  0  0  0  0  0  0  0  0  0
   55.9240   28.4970   45.2420 O   0  0  0  0  0  0  0  0  0  0  0  0
   57.5480   32.1930   44.7930 C   0  0  0  0  0  0  0  0  0  0  0  0
   57.7700   33.5850   44.7910 C   0  0  0  0  0  0  0  0  0  0  0  0
   58.2050   34.2180   45.9580 C   0  0  0  0  0  0  0  0  0  0  0  0
   58.4190   33.4720   47.1160 C   0  0  0  0  0  0  0  0  0  0  0  0
   58.1940   32.0960   47.0900 C   0  0  0  0  0  0  0  0  0  0  0  0
   57.7710   31.4970   45.9460 N   0  0  0  0  0  0  0  0  0  0  0  0
   58.5295   32.4324   42.3858 H   0  0  0  0  0  0  0  0  0  0  0  0
   57.8434   30.9084   41.7273 H   0  0  0  0  0  0  0  0  0  0  0  0
   56.8584   32.4105   41.7273 H   0  0  0  0  0  0  0  0  0  0  0  0
   55.2121   30.8554   44.3150 H   0  0  0  0  0  0  0  0  0  0  0  0
   55.7074   30.1804   42.7205 H   0  0  0  0  0  0  0  0  0  0  0  0
   58.6764   29.1403   43.6018 H   0  0  0  0  0  0  0  0  0  0  0  0
   58.7899   26.9369   45.1664 H   0  0  0  0  0  0  0  0  0  0  0  0
   56.3955   26.7167   46.3418 H   0  0  0  0  0  0  0  0  0  0  0  0
   57.6015   34.1701   43.8749 H   0  0  0  0  0  0  0  0  0  0  0  0
   58.3785   35.3042   45.9631 H   0  0  0  0  0  0  0  0  0  0  0  0
   58.7612   33.9628   48.0391 H   0  0  0  0  0  0  0  0  0  0  0  0
   58.3591   31.4950   47.9964 H   0  0  0  0  0  0  0  0  0  0  0  0
  1  2  1  0
  2  3  1  0
  3  4  1  0
  4  5  2  0
  5  6  1  0
  6  7  2  0
  7  8  1  0
  2  9  1  0
  9 10  2  0
 10 11  1  0
 11 12  2  0
 12 13  1  0
 13 14  2  0
  8  4  1  0
 14  9  1  0
  1 15  1  0
  1 16  1  0
  1 17  1  0
  3 18  1  0
  3 19  1  0
  5 20  1  0
  6 21  1  0
  7 22  1  0
 10 23  1  0
 11 24  1  0
 12 25  1  0
 13 26  1  0
M  END
>  <UniqueID>  (53) 
51

>  <SMILES>  (53) 
CN(Cc1ccco1)c1ccccn1

>  <Energy>  (53) 
51.21348037337754

>  <Genealogy>  (53) 
CN(Cc1ccco1)c1ccccn1 (3D coordinates assigned)
CN(Cc1ccco1)c1ccccn1 (optimized conformer: 51.21348037337754 kcal/mol)

>  <smiles>  (53) 
CN(Cc1ccco1)c1ccccn1

>  <score_type>  (53) 
oracle

>  <origin>  (53) 
adg

>  <m_score__min__energy>  (53) 
-5.4500000000000002

>  <m_primary>  (53) 
energy

$$$$
53:0
     RDKit          3D

 21 22  0  0  0  0  0  0  0  0999 V2000
   55.2420   26.5270   45.9950 N   0  0  0  0  0  0  0  0  0  0  0  0
   56.6470   26.3560   46.1640 C   0  0  0  0  0  0  0  0  0  0  0  0
   57.1600   25.2120   46.0410 O   0  0  0  0  0  0  0  0  0  0  0  0
   57.5160   27.5410   46.4390 C   0  0  0  0  0  0  0  0  0  0  0  0
   57.0760   28.6980   45.6030 C   0  0  0  0  0  0  0  0  0  0  0  0
   55.9120   28.7630   44.9370 N   0  0  0  0  0  0  0  0  0  0  0  0
   55.8870   29.9160   44.2900 N   0  0  0  0  0  0  0  0  0  0  0  0
   57.0590   30.5150   44.5860 C   0  0  0  0  0  0  0  0  0  0  0  0
   57.4590   31.8650   44.0810 C   0  0  0  0  0  0  0  0  0  0  0  0
   57.1440   33.0110   45.0300 C   0  0  0  0  0  0  0  0  0  0  0  0
   58.5760   32.5270   44.8720 C   0  0  0  0  0  0  0  0  0  0  0  0
   57.7910   29.7770   45.3910 O   0  0  0  0  0  0  0  0  0  0  0  0
   54.8350   26.7070   45.0520 H   0  0  0  0  0  0  0  0  0  0  0  0
   57.4403   27.8099   47.5029 H   0  0  0  0  0  0  0  0  0  0  0  0
   58.5584   27.2911   46.1923 H   0  0  0  0  0  0  0  0  0  0  0  0
   55.1520   28.0470   44.9130 H   0  0  0  0  0  0  0  0  0  0  0  0
   57.2721   31.6593   43.0167 H   0  0  0  0  0  0  0  0  0  0  0  0
   56.8474   33.9914   44.6290 H   0  0  0  0  0  0  0  0  0  0  0  0
   56.4597   33.1515   45.8797 H   0  0  0  0  0  0  0  0  0  0  0  0
   59.3158   33.1573   44.3568 H   0  0  0  0  0  0  0  0  0  0  0  0
   59.3573   32.1722   45.5602 H   0  0  0  0  0  0  0  0  0  0  0  0
  1  2  1  0
  2  3  2  0
  2  4  1  0
  4  5  1  0
  5  6  2  0
  6  7  1  0
  7  8  2  0
  8  9  1  0
  9 10  1  0
 10 11  1  0
  8 12  1  0
 12  5  1  0
 11  9  1  0
  1 13  1  0
  4 14  1  0
  4 15  1  0
  6 16  1  0
  9 17  1  0
 10 18  1  0
 10 19  1  0
 11 20  1  0
 11 21  1  0
M  CHG  2   1  -1   6   1
M  END
>  <UniqueID>  (54) 
52

>  <SMILES>  (54) 
[NH-]C(=O)Cc1[nH+]nc(C2CC2)o1

>  <Energy>  (54) 
314.7519985704291

>  <Genealogy>  (54) 
[NH-]C(=O)Cc1[nH+]nc(C2CC2)o1 (protonated)
[NH-]C(=O)Cc1[nH+]nc(C2CC2)o1 (3D coordinates assigned)
[NH-]C(=O)Cc1[nH+]nc(C2CC2)o1 (nonaromatic ring conformer: 314.7519985704291 kcal/mol)

>  <smiles>  (54) 
NC(=O)Cc1nnc(C2CC2)o1

>  <score_type>  (54) 
oracle

>  <origin>  (54) 
adg

>  <m_score__min__energy>  (54) 
-7.25

>  <m_primary>  (54) 
energy

$$$$
54:0
     RDKit          3D

 58 60  0  0  0  0  0  0  0  0999 V2000
   58.5210   31.3670   49.4350 C   0  0  0  0  0  0  0  0  0  0  0  0
   58.5410   30.2080   50.0910 C   0  0  0  0  0  0  0  0  0  0  0  0
   58.8680   29.0170   49.3610 N   0  0  0  0  0  0  0  0  0  0  0  0
   60.1870   28.5950   49.0040 C   0  0  0  0  0  0  0  0  0  0  0  0
   60.5430   27.3980   49.1730 O   0  0  0  0  0  0  0  0  0  0  0  0
   61.1150   29.5680   48.5080 N   0  0  0  0  0  0  0  0  0  0  0  0
   60.8720   30.5180   47.4150 C   0  0  2  0  0  0  0  0  0  0  0  0
   60.6990   29.7970   46.0620 C   0  0  0  0  0  0  0  0  0  0  0  0
   59.2460   29.5700   45.7320 C   0  0  0  0  0  0  0  0  0  0  0  0
   58.6240   28.3520   46.0570 C   0  0  0  0  0  0  0  0  0  0  0  0
   57.2690   28.1550   45.7710 C   0  0  0  0  0  0  0  0  0  0  0  0
   56.5260   29.1700   45.1610 C   0  0  0  0  0  0  0  0  0  0  0  0
   55.1810   28.9710   44.8770 O   0  0  0  0  0  0  0  0  0  0  0  0
   57.1380   30.3850   44.8380 C   0  0  0  0  0  0  0  0  0  0  0  0
   58.4910   30.5880   45.1250 C   0  0  0  0  0  0  0  0  0  0  0  0
   61.9520   31.5710   47.3440 C   0  0  0  0  0  0  0  0  0  0  0  0
   63.1410   31.2230   47.1070 O   0  0  0  0  0  0  0  0  0  0  0  0
   61.6290   32.9600   47.4910 N   0  0  0  0  0  0  0  0  0  0  0  0
   61.2880   33.8350   46.3750 C   0  0  0  0  0  0  0  0  0  0  0  0
   59.8020   33.8280   46.1440 C   0  0  0  0  0  0  0  0  0  0  0  0
   58.9300   33.4830   47.1900 C   0  0  0  0  0  0  0  0  0  0  0  0
   57.5480   33.4590   46.9760 C   0  0  0  0  0  0  0  0  0  0  0  0
   57.0290   33.7720   45.7170 C   0  0  0  0  0  0  0  0  0  0  0  0
   57.8900   34.1090   44.6700 C   0  0  0  0  0  0  0  0  0  0  0  0
   59.2720   34.1360   44.8800 C   0  0  0  0  0  0  0  0  0  0  0  0
   58.1510   30.1550   51.5180 C   0  0  0  0  0  0  0  0  0  0  0  0
   57.0360   29.6680   51.8460 O   0  0  0  0  0  0  0  0  0  0  0  0
   59.0090   30.6750   52.4970 O   0  0  0  0  0  0  0  0  0  0  0  0
   59.4150   32.0420   52.5350 C   0  0  0  0  0  0  0  0  0  0  0  0
   60.6910   32.2290   51.7590 C   0  0  0  0  0  0  0  0  0  0  0  0
   61.5770   31.1510   51.6030 C   0  0  0  0  0  0  0  0  0  0  0  0
   62.7540   31.3090   50.8640 C   0  0  0  0  0  0  0  0  0  0  0  0
   63.0500   32.5410   50.2730 C   0  0  0  0  0  0  0  0  0  0  0  0
   62.1700   33.6160   50.4180 C   0  0  0  0  0  0  0  0  0  0  0  0
   60.9910   33.4630   51.1570 C   0  0  0  0  0  0  0  0  0  0  0  0
   58.2737   32.2967   49.9684 H   0  0  0  0  0  0  0  0  0  0  0  0
   58.7518   31.3945   48.3598 H   0  0  0  0  0  0  0  0  0  0  0  0
   59.9249   31.0318   47.6363 H   0  0  0  0  0  0  0  0  0  0  0  0
   61.1524   30.4115   45.2703 H   0  0  0  0  0  0  0  0  0  0  0  0
   61.1918   28.8160   46.1312 H   0  0  0  0  0  0  0  0  0  0  0  0
   59.2048   27.5511   46.5379 H   0  0  0  0  0  0  0  0  0  0  0  0
   56.7872   27.1997   46.0265 H   0  0  0  0  0  0  0  0  0  0  0  0
   56.5534   31.1830   44.3569 H   0  0  0  0  0  0  0  0  0  0  0  0
   58.9663   31.5479   44.8748 H   0  0  0  0  0  0  0  0  0  0  0  0
   61.6152   34.8600   46.6039 H   0  0  0  0  0  0  0  0  0  0  0  0
   61.7937   33.4728   45.4678 H   0  0  0  0  0  0  0  0  0  0  0  0
   59.3356   33.2308   48.1809 H   0  0  0  0  0  0  0  0  0  0  0  0
   56.8690   33.1934   47.7997 H   0  0  0  0  0  0  0  0  0  0  0  0
   55.9419   33.7530   45.5503 H   0  0  0  0  0  0  0  0  0  0  0  0
   57.4802   34.3535   43.6789 H   0  0  0  0  0  0  0  0  0  0  0  0
   59.9469   34.3994   44.0523 H   0  0  0  0  0  0  0  0  0  0  0  0
   58.6259   32.6675   52.0922 H   0  0  0  0  0  0  0  0  0  0  0  0
   59.5858   32.3359   53.5812 H   0  0  0  0  0  0  0  0  0  0  0  0
   61.3448   30.1793   52.0633 H   0  0  0  0  0  0  0  0  0  0  0  0
   63.4475   30.4631   50.7477 H   0  0  0  0  0  0  0  0  0  0  0  0
   63.9767   32.6638   49.6933 H   0  0  0  0  0  0  0  0  0  0  0  0
   62.4037   34.5841   49.9509 H   0  0  0  0  0  0  0  0  0  0  0  0
   60.2980   34.3102   51.2667 H   0  0  0  0  0  0  0  0  0  0  0  0
  1  2  2  0
  2  3  1  0
  3  4  1  0
  4  5  2  0
  4  6  1  0
  6  7  1  0
  7  8  1  0
  8  9  1  0
  9 10  2  0
 10 11  1  0
 11 12  2  0
 12 13  1  0
 12 14  1  0
 14 15  2  0
  7 16  1  0
 16 17  2  0
 16 18  1  0
 18 19  1  0
 19 20  1  0
 20 21  2  0
 21 22  1  0
 22 23  2  0
 23 24  1  0
 24 25  2  0
  2 26  1  0
 26 27  2  0
 26 28  1  0
 28 29  1  0
 29 30  1  0
 30 31  2  0
 31 32  1  0
 32 33  2  0
 33 34  1  0
 34 35  2  0
 15  9  1  0
 25 20  1  0
 35 30  1  0
  1 36  1  0
  1 37  1  0
  7 38  1  1
  8 39  1  0
  8 40  1  0
 10 41  1  0
 11 42  1  0
 14 43  1  0
 15 44  1  0
 19 45  1  0
 19 46  1  0
 21 47  1  0
 22 48  1  0
 23 49  1  0
 24 50  1  0
 25 51  1  0
 29 52  1  0
 29 53  1  0
 31 54  1  0
 32 55  1  0
 33 56  1  0
 34 57  1  0
 35 58  1  0
M  CHG  4   3  -1   6  -1  13  -1  18  -1
M  END
>  <UniqueID>  (55) 
53

>  <SMILES>  (55) 
C=C([N-]C(=O)[N-][C@H](Cc1ccc([O-])cc1)C(=O)[N-]Cc1ccccc1)C(=O)OCc1ccccc1

>  <Energy>  (55) 
55.85251207446343

>  <Genealogy>  (55) 
C=C([N-]C(=O)[N-]C(Cc1ccc([O-])cc1)C(=O)[N-]Cc1ccccc1)C(=O)OCc1ccccc1 (protonated)
C=C([N-]C(=O)[N-][C@H](Cc1ccc([O-])cc1)C(=O)[N-]Cc1ccccc1)C(=O)OCc1ccccc1 (chirality)
C=C([N-]C(=O)[N-][C@H](Cc1ccc([O-])cc1)C(=O)[N-]Cc1ccccc1)C(=O)OCc1ccccc1 (3D coordinates assigned)
C=C([N-]C(=O)[N-][C@H](Cc1ccc([O-])cc1)C(=O)[N-]Cc1ccccc1)C(=O)OCc1ccccc1 (optimized conformer: 55.85251207446343 kcal/mol)

>  <smiles>  (55) 
C=C(NC(=O)NC(Cc1ccc(O)cc1)C(=O)NCc1ccccc1)C(=O)OCc1ccccc1

>  <score_type>  (55) 
oracle

>  <origin>  (55) 
adg

>  <m_score__min__energy>  (55) 
-15.75

>  <m_primary>  (55) 
energy

$$$$
55:0
     RDKit          3D

 76 81  0  0  1  0  0  0  0  0999 V2000
   53.1830   20.8770   51.7110 C   0  0  0  0  0  0  0  0  0  0  0  0
   52.2960   21.7550   50.9780 N   0  0  0  0  0  0  0  0  0  0  0  0
   51.0050   21.8570   51.6330 C   0  0  0  0  0  0  0  0  0  0  0  0
   51.1420   22.5620   52.9730 C   0  0  0  0  0  0  0  0  0  0  0  0
   51.5210   23.9420   52.6330 N   0  0  0  0  0  0  0  0  0  0  0  0
   51.3230   24.9750   53.6130 C   0  0  0  0  0  0  0  0  0  0  0  0
   50.8390   24.6530   54.7000 O   0  0  0  0  0  0  0  0  0  0  0  0
   51.7050   26.3630   53.2680 C   0  0  0  0  0  0  0  0  0  0  0  0
   50.7610   27.1830   52.7490 C   0  0  0  0  0  0  0  0  0  0  0  0
   51.0920   28.4640   52.4310 C   0  0  0  0  0  0  0  0  0  0  0  0
   52.4000   28.9170   52.6450 C   0  0  0  0  0  0  0  0  0  0  0  0
   52.6360   30.1900   52.2750 F   0  0  0  0  0  0  0  0  0  0  0  0
   53.3810   28.1170   53.1680 C   0  0  0  0  0  0  0  0  0  0  0  0
   54.6950   28.4860   53.4830 N   0  0  0  0  0  0  0  0  0  0  0  0
   55.5260   29.4120   52.8520 C   0  0  0  0  0  0  0  0  0  0  0  0
   55.1510   30.0700   51.8730 O   0  0  0  0  0  0  0  0  0  0  0  0
   56.8830   29.6830   53.2860 N   0  0  0  0  0  0  0  0  0  0  0  0
   57.5530   30.6840   52.5150 C   0  0  0  0  0  0  0  0  0  0  0  0
   57.4290   32.0390   52.7460 C   0  0  0  0  0  0  0  0  0  0  0  0
   58.1720   32.9270   51.9460 C   0  0  0  0  0  0  0  0  0  0  0  0
   59.0060   32.4680   50.9570 C   0  0  0  0  0  0  0  0  0  0  0  0
   59.8590   33.2930   50.0890 C   0  0  0  0  0  0  0  0  0  0  0  0
   59.4520   33.4330   48.6930 C   0  0  0  0  0  0  0  0  0  0  0  0
   58.6960   32.5710   47.9530 N   0  0  0  0  0  0  0  0  0  0  0  0
   58.5540   33.0730   46.7370 C   0  0  0  0  0  0  0  0  0  0  0  0
   57.8970   32.6830   45.5800 C   0  0  0  0  0  0  0  0  0  0  0  0
   57.2370   31.5880   45.5600 N   0  0  0  0  0  0  0  0  0  0  0  0
   57.6330   30.3830   44.8800 C   0  0  0  0  0  0  0  0  0  0  0  0
   58.5220   29.4970   45.6270 C   0  0  0  0  0  0  0  0  0  0  0  0
   58.5230   29.3770   47.0140 C   0  0  0  0  0  0  0  0  0  0  0  0
   59.3820   28.5360   47.6870 C   0  0  0  0  0  0  0  0  0  0  0  0
   60.2830   27.7740   47.0080 C   0  0  0  0  0  0  0  0  0  0  0  0
   60.3180   27.8600   45.6370 C   0  0  0  0  0  0  0  0  0  0  0  0
   59.4610   28.6980   44.9610 C   0  0  0  0  0  0  0  0  0  0  0  0
   57.9300   33.4480   44.4790 N   0  0  0  0  0  0  0  0  0  0  0  0
   58.6100   34.6090   44.4990 C   0  0  0  0  0  0  0  0  0  0  0  0
   59.2720   35.0540   45.5830 N   0  0  0  0  0  0  0  0  0  0  0  0
   59.2380   34.2810   46.7000 C   0  0  0  0  0  0  0  0  0  0  0  0
   59.7950   34.4970   47.9220 N   0  0  0  0  0  0  0  0  0  0  0  0
   59.1090   31.0830   50.7450 C   0  0  0  0  0  0  0  0  0  0  0  0
   58.3840   30.2250   51.5240 C   0  0  0  0  0  0  0  0  0  0  0  0
   52.9800   26.8090   53.4730 C   0  0  0  0  0  0  0  0  0  0  0  0
   52.0720   24.1790   51.3210 C   0  0  0  0  0  0  0  0  0  0  0  0
   52.9430   23.0280   50.8370 C   0  0  0  0  0  0  0  0  0  0  0  0
   53.0344   21.0241   52.7910 H   0  0  0  0  0  0  0  0  0  0  0  0
   52.9625   19.8315   51.4496 H   0  0  0  0  0  0  0  0  0  0  0  0
   54.2262   21.1081   51.4496 H   0  0  0  0  0  0  0  0  0  0  0  0
   50.3179   22.4286   50.9918 H   0  0  0  0  0  0  0  0  0  0  0  0
   50.6111   20.8440   51.8026 H   0  0  0  0  0  0  0  0  0  0  0  0
   50.1873   22.5455   53.5192 H   0  0  0  0  0  0  0  0  0  0  0  0
   51.8829   22.0759   53.6247 H   0  0  0  0  0  0  0  0  0  0  0  0
   49.7365   26.8173   52.5860 H   0  0  0  0  0  0  0  0  0  0  0  0
   50.3354   29.1410   52.0076 H   0  0  0  0  0  0  0  0  0  0  0  0
   55.1330   27.9800   54.3200 H   0  0  0  0  0  0  0  0  0  0  0  0
   57.3070   29.1820   54.0870 H   0  0  0  0  0  0  0  0  0  0  0  0
   56.7646   32.4163   53.5373 H   0  0  0  0  0  0  0  0  0  0  0  0
   58.0827   34.0100   52.1165 H   0  0  0  0  0  0  0  0  0  0  0  0
   59.8979   34.3020   50.5254 H   0  0  0  0  0  0  0  0  0  0  0  0
   60.8227   32.7640   50.0522 H   0  0  0  0  0  0  0  0  0  0  0  0
   56.7214   29.8184   44.6344 H   0  0  0  0  0  0  0  0  0  0  0  0
   58.2060   30.7100   43.9998 H   0  0  0  0  0  0  0  0  0  0  0  0
   57.8090   29.9780   47.5962 H   0  0  0  0  0  0  0  0  0  0  0  0
   59.3394   28.4796   48.7847 H   0  0  0  0  0  0  0  0  0  0  0  0
   60.9690   27.1031   47.5459 H   0  0  0  0  0  0  0  0  0  0  0  0
   61.0401   27.2514   45.0729 H   0  0  0  0  0  0  0  0  0  0  0  0
   59.5147   28.7421   43.8632 H   0  0  0  0  0  0  0  0  0  0  0  0
   57.4500   33.1740   43.6180 H   0  0  0  0  0  0  0  0  0  0  0  0
   58.6255   35.2232   43.5866 H   0  0  0  0  0  0  0  0  0  0  0  0
   60.3700   35.3300   48.1790 H   0  0  0  0  0  0  0  0  0  0  0  0
   59.7690   30.6914   49.9570 H   0  0  0  0  0  0  0  0  0  0  0  0
   58.4686   29.1417   51.3526 H   0  0  0  0  0  0  0  0  0  0  0  0
   53.7213   26.1140   53.8942 H   0  0  0  0  0  0  0  0  0  0  0  0
   51.2438   24.3174   50.6105 H   0  0  0  0  0  0  0  0  0  0  0  0
   52.7068   25.0752   51.3824 H   0  0  0  0  0  0  0  0  0  0  0  0
   53.1809   23.1875   49.7750 H   0  0  0  0  0  0  0  0  0  0  0  0
   53.8521   23.0123   51.4561 H   0  0  0  0  0  0  0  0  0  0  0  0
  1  2  1  0
  2  3  1  0
  3  4  1  0
  4  5  1  0
  5  6  1  0
  6  7  2  0
  6  8  1  0
  8  9  2  0
  9 10  1  0
 10 11  2  0
 11 12  1  0
 11 13  1  0
 13 14  1  0
 14 15  1  0
 15 16  2  0
 15 17  1  0
 17 18  1  0
 18 19  2  0
 19 20  1  0
 20 21  2  0
 21 22  1  0
 22 23  1  0
 23 24  2  0
 24 25  1  0
 25 26  1  0
 26 27  2  0
 27 28  1  0
 28 29  1  0
 29 30  2  0
 30 31  1  0
 31 32  2  0
 32 33  1  0
 33 34  2  0
 26 35  1  0
 35 36  1  0
 36 37  2  0
 37 38  1  0
 38 39  1  0
 21 40  1  0
 40 41  2  0
 13 42  2  0
  5 43  1  0
 43 44  1  0
 44  2  1  0
 42  8  1  0
 41 18  1  0
 39 23  1  0
 38 25  2  0
 34 29  1  0
  1 45  1  0
  1 46  1  0
  1 47  1  0
  3 48  1  0
  3 49  1  0
  4 50  1  0
  4 51  1  0
  9 52  1  0
 10 53  1  0
 14 54  1  0
 17 55  1  0
 19 56  1  0
 20 57  1  0
 22 58  1  0
 22 59  1  0
 28 60  1  0
 28 61  1  0
 30 62  1  0
 31 63  1  0
 32 64  1  0
 33 65  1  0
 34 66  1  0
 35 67  1  0
 36 68  1  0
 39 69  1  0
 40 70  1  0
 41 71  1  0
 42 72  1  0
 43 73  1  0
 43 74  1  0
 44 75  1  0
 44 76  1  0
M  END
>  <smiles>  (56) 
CN1CCN(C(=O)c2ccc(F)c(NC(=O)Nc3ccc(Cc4nc5c(=NCc6ccccc6)[nH]cnc5[nH]4)cc3)c2)CC1

>  <score_type>  (56) 
oracle

>  <origin>  (56) 
adg

>  <m_score__min__energy>  (56) 
-10.18

>  <m_primary>  (56) 
energy

$$$$
56:0
     RDKit          3D

 51 53  0  0  0  0  0  0  0  0999 V2000
   57.7980   26.1460   44.9140 C   0  0  0  0  0  0  0  0  0  0  0  0
   58.1270   26.6180   43.5020 C   0  0  0  0  0  0  0  0  0  0  0  0
   58.7560   27.8990   43.5300 O   0  0  0  0  0  0  0  0  0  0  0  0
   59.1230   28.6120   44.6870 C   0  0  0  0  0  0  0  0  0  0  0  0
   60.3720   28.4300   45.3120 C   0  0  0  0  0  0  0  0  0  0  0  0
   60.7170   29.1790   46.4380 C   0  0  0  0  0  0  0  0  0  0  0  0
   59.8300   30.1340   46.9540 C   0  0  0  0  0  0  0  0  0  0  0  0
   60.2140   30.9370   48.1350 C   0  0  0  0  0  0  0  0  0  0  0  0
   59.7190   30.6480   49.2580 O   0  0  0  0  0  0  0  0  0  0  0  0
   61.1560   32.0230   48.0300 N   0  0  0  0  0  0  0  0  0  0  0  0
   62.3150   31.9750   47.1490 C   0  0  0  0  0  0  0  0  0  0  0  0
   63.3360   32.9260   47.7580 C   0  0  0  0  0  0  0  0  0  0  0  0
   62.5340   33.8550   48.6610 C   0  0  0  0  0  0  0  0  0  0  0  0
   61.2760   33.0670   49.0410 C   0  0  1  0  0  0  0  0  0  0  0  0
   60.0200   33.9540   49.0710 C   0  0  0  0  0  0  0  0  0  0  0  0
   59.5610   34.2390   47.7140 N   0  0  0  0  0  0  0  0  0  0  0  0
   58.4450   33.7560   47.1360 C   0  0  0  0  0  0  0  0  0  0  0  0
   58.4140   34.2120   45.8360 C   0  0  0  0  0  0  0  0  0  0  0  0
   57.4180   33.8650   44.7790 C   0  0  0  0  0  0  0  0  0  0  0  0
   59.5670   34.9560   45.6790 C   0  0  0  0  0  0  0  0  0  0  0  0
   60.2500   34.9580   46.8410 N   0  0  0  0  0  0  0  0  0  0  0  0
   58.5730   30.2960   46.3540 C   0  0  0  0  0  0  0  0  0  0  0  0
   58.2140   29.5430   45.2260 C   0  0  0  0  0  0  0  0  0  0  0  0
   56.6380   29.7910   44.4600 S   0  0  0  0  0  0  0  0  0  0  0  0
   56.6450   29.2840   42.8050 N   0  0  0  0  0  0  0  0  0  0  0  0
   56.2870   31.2520   44.5020 O   0  0  0  0  0  0  0  0  0  0  0  0
   55.6000   29.0080   45.2110 O   0  0  0  0  0  0  0  0  0  0  0  0
   58.2681   26.8204   45.6449 H   0  0  0  0  0  0  0  0  0  0  0  0
   56.7075   26.1521   45.0579 H   0  0  0  0  0  0  0  0  0  0  0  0
   58.1811   25.1250   45.0579 H   0  0  0  0  0  0  0  0  0  0  0  0
   58.8055   25.8933   43.0283 H   0  0  0  0  0  0  0  0  0  0  0  0
   57.1911   26.6969   42.9293 H   0  0  0  0  0  0  0  0  0  0  0  0
   61.0812   27.6917   44.9095 H   0  0  0  0  0  0  0  0  0  0  0  0
   61.6910   29.0189   46.9236 H   0  0  0  0  0  0  0  0  0  0  0  0
   62.7210   30.9536   47.1048 H   0  0  0  0  0  0  0  0  0  0  0  0
   62.0547   32.2639   46.1200 H   0  0  0  0  0  0  0  0  0  0  0  0
   64.0806   32.3675   48.3442 H   0  0  0  0  0  0  0  0  0  0  0  0
   63.8890   33.4818   46.9865 H   0  0  0  0  0  0  0  0  0  0  0  0
   63.1132   34.1123   49.5601 H   0  0  0  0  0  0  0  0  0  0  0  0
   62.2873   34.8018   48.1582 H   0  0  0  0  0  0  0  0  0  0  0  0
   61.3619   32.6537   50.0568 H   0  0  0  0  0  0  0  0  0  0  0  0
   59.2223   33.4331   49.6208 H   0  0  0  0  0  0  0  0  0  0  0  0
   60.2672   34.9031   49.5690 H   0  0  0  0  0  0  0  0  0  0  0  0
   57.6927   33.1126   47.6156 H   0  0  0  0  0  0  0  0  0  0  0  0
   56.4802   33.5383   45.2520 H   0  0  0  0  0  0  0  0  0  0  0  0
   57.2246   34.7487   44.1532 H   0  0  0  0  0  0  0  0  0  0  0  0
   57.8155   33.0524   44.1532 H   0  0  0  0  0  0  0  0  0  0  0  0
   59.8778   35.4649   44.7546 H   0  0  0  0  0  0  0  0  0  0  0  0
   57.8602   31.0218   46.7725 H   0  0  0  0  0  0  0  0  0  0  0  0
   57.6010   29.4660   42.4240 H   0  0  0  0  0  0  0  0  0  0  0  0
   56.4880   28.2510   42.7880 H   0  0  0  0  0  0  0  0  0  0  0  0
  1  2  1  0
  2  3  1  0
  3  4  1  0
  4  5  2  0
  5  6  1  0
  6  7  2  0
  7  8  1  0
  8  9  2  0
  8 10  1  0
 10 11  1  0
 11 12  1  0
 12 13  1  0
 13 14  1  0
 14 15  1  0
 15 16  1  0
 16 17  1  0
 17 18  2  0
 18 19  1  0
 18 20  1  0
 20 21  2  0
  7 22  1  0
 22 23  2  0
 23 24  1  0
 24 25  1  0
 24 26  2  0
 24 27  2  0
 23  4  1  0
 14 10  1  0
 21 16  1  0
  1 28  1  0
  1 29  1  0
  1 30  1  0
  2 31  1  0
  2 32  1  0
  5 33  1  0
  6 34  1  0
 11 35  1  0
 11 36  1  0
 12 37  1  0
 12 38  1  0
 13 39  1  0
 13 40  1  0
 14 41  1  1
 15 42  1  0
 15 43  1  0
 17 44  1  0
 19 45  1  0
 19 46  1  0
 19 47  1  0
 20 48  1  0
 22 49  1  0
 25 50  1  0
 25 51  1  0
M  END
>  <UniqueID>  (57) 
54

>  <SMILES>  (57) 
CCOc1ccc(C(=O)N2CCC[C@H]2Cn2cc(C)cn2)cc1S(N)(=O)=O

>  <Energy>  (57) 
79.80772390672247

>  <Genealogy>  (57) 
CCOc1ccc(C(=O)N2CCC[C@H]2Cn2cc(C)cn2)cc1S(N)(=O)=O (chirality)
CCOc1ccc(C(=O)N2CCC[C@H]2Cn2cc(C)cn2)cc1S(N)(=O)=O (3D coordinates assigned)
CCOc1ccc(C(=O)N2CCC[C@H]2Cn2cc(C)cn2)cc1S(N)(=O)=O (nonaromatic ring conformer: 79.80772390672247 kcal/mol)

>  <smiles>  (57) 
CCOc1ccc(C(=O)N2CCCC2Cn2cc(C)cn2)cc1S(N)(=O)=O

>  <score_type>  (57) 
oracle

>  <origin>  (57) 
adg

>  <m_score__min__energy>  (57) 
-9.1799999999999997

>  <m_primary>  (57) 
energy

$$$$
57:0
     RDKit          3D

 43 45  0  0  0  0  0  0  0  0999 V2000
   59.6380   28.4080   46.2180 C   0  0  0  0  0  0  0  0  0  0  0  0
   58.3950   28.4880   45.7180 C   0  0  0  0  0  0  0  0  0  0  0  0
   57.3750   27.5280   45.7760 C   0  0  0  0  0  0  0  0  0  0  0  0
   57.4210   26.2340   46.1430 C   0  0  0  0  0  0  0  0  0  0  0  0
   56.5170   25.1750   45.6650 C   0  0  0  0  0  0  0  0  0  0  0  0
   56.9250   24.0120   45.1090 N   0  0  0  0  0  0  0  0  0  0  0  0
   55.7730   23.4250   44.7140 C   0  0  0  0  0  0  0  0  0  0  0  0
   55.7370   22.2900   44.1720 O   0  0  0  0  0  0  0  0  0  0  0  0
   54.6760   24.1720   44.9550 N   0  0  0  0  0  0  0  0  0  0  0  0
   53.2800   23.8130   44.7250 C   0  0  0  0  0  0  0  0  0  0  0  0
   55.1490   25.2760   45.5550 C   0  0  0  0  0  0  0  0  0  0  0  0
   54.3640   26.3380   45.9910 O   0  0  0  0  0  0  0  0  0  0  0  0
   56.2220   28.0860   45.3480 N   0  0  0  0  0  0  0  0  0  0  0  0
   56.5670   29.3370   44.9900 C   0  0  0  0  0  0  0  0  0  0  0  0
   55.7400   30.1610   44.5150 O   0  0  0  0  0  0  0  0  0  0  0  0
   57.8700   29.6190   45.1880 N   0  0  0  0  0  0  0  0  0  0  0  0
   58.5480   30.8840   44.8820 C   0  0  0  0  0  0  0  0  0  0  0  0
   57.9910   31.9780   45.7360 C   0  0  0  0  0  0  0  0  0  0  0  0
   56.9060   32.5350   45.4160 O   0  0  0  0  0  0  0  0  0  0  0  0
   58.7130   32.4060   46.8950 N   0  0  0  0  0  0  0  0  0  0  0  0
   60.1390   32.5370   46.9720 C   0  0  0  0  0  0  0  0  0  0  0  0
   60.8860   31.4440   47.4310 C   0  0  0  0  0  0  0  0  0  0  0  0
   62.2750   31.5290   47.5340 C   0  0  0  0  0  0  0  0  0  0  0  0
   62.9300   32.7130   47.1950 C   0  0  0  0  0  0  0  0  0  0  0  0
   62.1960   33.8220   46.7690 C   0  0  0  0  0  0  0  0  0  0  0  0
   60.7910   33.7540   46.6680 C   0  0  0  0  0  0  0  0  0  0  0  0
   60.0230   34.8720   46.3040 O   0  0  0  0  0  0  0  0  0  0  0  0
   59.2290   34.9620   45.1270 C   0  0  0  0  0  0  0  0  0  0  0  0
   60.3359   29.2492   46.0941 H   0  0  0  0  0  0  0  0  0  0  0  0
   59.9589   27.5012   46.7517 H   0  0  0  0  0  0  0  0  0  0  0  0
   58.2010   25.9427   46.8618 H   0  0  0  0  0  0  0  0  0  0  0  0
   52.7711   23.6821   45.6914 H   0  0  0  0  0  0  0  0  0  0  0  0
   52.7848   24.6130   44.1552 H   0  0  0  0  0  0  0  0  0  0  0  0
   53.2321   22.8733   44.1552 H   0  0  0  0  0  0  0  0  0  0  0  0
   59.6248   30.7783   45.0805 H   0  0  0  0  0  0  0  0  0  0  0  0
   58.3887   31.1340   43.8227 H   0  0  0  0  0  0  0  0  0  0  0  0
   60.3737   30.5121   47.7122 H   0  0  0  0  0  0  0  0  0  0  0  0
   62.8541   30.6613   47.8829 H   0  0  0  0  0  0  0  0  0  0  0  0
   64.0262   32.7732   47.2633 H   0  0  0  0  0  0  0  0  0  0  0  0
   62.7175   34.7554   46.5103 H   0  0  0  0  0  0  0  0  0  0  0  0
   58.1718   35.0818   45.4062 H   0  0  0  0  0  0  0  0  0  0  0  0
   59.5518   35.8293   44.5324 H   0  0  0  0  0  0  0  0  0  0  0  0
   59.3495   34.0444   44.5324 H   0  0  0  0  0  0  0  0  0  0  0  0
  1  2  2  0
  2  3  1  0
  3  4  2  3
  4  5  1  0
  5  6  1  0
  6  7  1  0
  7  8  2  0
  7  9  1  0
  9 10  1  0
  9 11  1  0
 11 12  1  0
  3 13  1  0
 13 14  1  0
 14 15  2  0
 14 16  1  0
 16 17  1  0
 17 18  1  0
 18 19  2  0
 18 20  1  0
 20 21  1  0
 21 22  2  0
 22 23  1  0
 23 24  2  0
 24 25  1  0
 25 26  2  0
 26 27  1  0
 27 28  1  0
 16  2  1  0
 26 21  1  0
 11  5  2  0
  1 29  1  0
  1 30  1  0
  4 31  1  0
 10 32  1  0
 10 33  1  0
 10 34  1  0
 17 35  1  0
 17 36  1  0
 22 37  1  0
 23 38  1  0
 24 39  1  0
 25 40  1  0
 28 41  1  0
 28 42  1  0
 28 43  1  0
M  CHG  4   6  -1  12  -1  13  -1  20  -1
M  END
>  <UniqueID>  (58) 
55

>  <SMILES>  (58) 
C=c1c(=Cc2[n-]c(=O)n(C)c2[O-])[n-]c(=O)n1CC(=O)[N-]c1ccccc1OC

>  <Energy>  (58) 
122.20911471958064

>  <Genealogy>  (58) 
C=c1c(=Cc2[n-]c(=O)n(C)c2[O-])[n-]c(=O)n1CC(=O)[N-]c1ccccc1OC (protonated)
C=c1c(=Cc2[n-]c(=O)n(C)c2[O-])[n-]c(=O)n1CC(=O)[N-]c1ccccc1OC (3D coordinates assigned)
C=c1c(=Cc2[n-]c(=O)n(C)c2[O-])[n-]c(=O)n1CC(=O)[N-]c1ccccc1OC (optimized conformer: 122.20911471958064 kcal/mol)

>  <smiles>  (58) 
C=c1c(=Cc2[nH]c(=O)n(C)c2O)[nH]c(=O)n1CC(=O)Nc1ccccc1OC

>  <score_type>  (58) 
oracle

>  <origin>  (58) 
adg

>  <m_score__min__energy>  (58) 
-16.359999999999999

>  <m_primary>  (58) 
energy

$$$$
58:0
     RDKit          3D

 54 57  0  0  0  0  0  0  0  0999 V2000
   56.7310   32.0690   51.9850 C   0  0  0  0  0  0  0  0  0  0  0  0
   57.8550   31.3080   51.3560 C   0  0  0  0  0  0  0  0  0  0  0  0
   57.7820   29.9960   51.0460 N   0  0  0  0  0  0  0  0  0  0  0  0
   58.9760   29.7360   50.4790 C   0  0  0  0  0  0  0  0  0  0  0  0
   59.3010   28.5870   50.0760 O   0  0  0  0  0  0  0  0  0  0  0  0
   59.7920   30.8110   50.4110 N   0  0  0  0  0  0  0  0  0  0  0  0
   61.1480   30.8460   49.9400 C   0  0  0  0  0  0  0  0  0  0  0  0
   62.0850   31.0950   50.7470 O   0  0  0  0  0  0  0  0  0  0  0  0
   61.4600   30.6620   48.4830 C   0  0  0  0  0  0  0  0  0  0  0  0
   62.2490   31.8400   47.9840 C   0  0  0  0  0  0  0  0  0  0  0  0
   61.7990   32.5790   46.8760 C   0  0  0  0  0  0  0  0  0  0  0  0
   62.5010   33.7150   46.4580 C   0  0  0  0  0  0  0  0  0  0  0  0
   63.6450   34.1270   47.1470 C   0  0  0  0  0  0  0  0  0  0  0  0
   64.0920   33.4020   48.2550 C   0  0  0  0  0  0  0  0  0  0  0  0
   63.3980   32.2640   48.6750 C   0  0  0  0  0  0  0  0  0  0  0  0
   59.0840   31.8190   50.9670 C   0  0  0  0  0  0  0  0  0  0  0  0
   59.5130   33.2300   51.0340 C   0  0  0  0  0  0  0  0  0  0  0  0
   59.2140   33.9330   52.0360 O   0  0  0  0  0  0  0  0  0  0  0  0
   60.2370   33.8060   49.9410 N   0  0  0  0  0  0  0  0  0  0  0  0
   59.6620   34.7630   49.0060 C   0  0  0  0  0  0  0  0  0  0  0  0
   59.2000   34.0490   47.7660 C   0  0  0  0  0  0  0  0  0  0  0  0
   59.2920   34.6820   46.5180 C   0  0  0  0  0  0  0  0  0  0  0  0
   58.8130   34.0520   45.3680 C   0  0  0  0  0  0  0  0  0  0  0  0
   58.2210   32.7770   45.4440 C   0  0  0  0  0  0  0  0  0  0  0  0
   57.7230   32.1330   44.2540 N   0  0  0  0  0  0  0  0  0  0  0  0
   57.8090   32.6910   42.9120 C   0  0  0  0  0  0  0  0  0  0  0  0
   57.3310   31.5840   41.9560 C   0  0  0  0  0  0  0  0  0  0  0  0
   56.6650   30.5020   42.8180 C   0  0  0  0  0  0  0  0  0  0  0  0
   57.0090   30.9060   44.1950 C   0  0  0  0  0  0  0  0  0  0  0  0
   56.6430   30.2650   45.2160 O   0  0  0  0  0  0  0  0  0  0  0  0
   58.1470   32.1390   46.6960 C   0  0  0  0  0  0  0  0  0  0  0  0
   58.6240   32.7730   47.8470 C   0  0  0  0  0  0  0  0  0  0  0  0
   56.8166   32.0111   53.0801 H   0  0  0  0  0  0  0  0  0  0  0  0
   56.7785   33.1215   51.6687 H   0  0  0  0  0  0  0  0  0  0  0  0
   55.7714   31.6340   51.6687 H   0  0  0  0  0  0  0  0  0  0  0  0
   62.0492   29.7430   48.3479 H   0  0  0  0  0  0  0  0  0  0  0  0
   60.5211   30.5840   47.9152 H   0  0  0  0  0  0  0  0  0  0  0  0
   60.8936   32.2637   46.3367 H   0  0  0  0  0  0  0  0  0  0  0  0
   62.1515   34.2853   45.5847 H   0  0  0  0  0  0  0  0  0  0  0  0
   64.1934   35.0217   46.8173 H   0  0  0  0  0  0  0  0  0  0  0  0
   64.9918   33.7277   48.7975 H   0  0  0  0  0  0  0  0  0  0  0  0
   63.7518   31.6979   49.5493 H   0  0  0  0  0  0  0  0  0  0  0  0
   58.8053   35.2656   49.4786 H   0  0  0  0  0  0  0  0  0  0  0  0
   60.4245   35.5076   48.7336 H   0  0  0  0  0  0  0  0  0  0  0  0
   59.7447   35.6818   46.4447 H   0  0  0  0  0  0  0  0  0  0  0  0
   58.8989   34.5561   44.3941 H   0  0  0  0  0  0  0  0  0  0  0  0
   57.1617   33.5761   42.8247 H   0  0  0  0  0  0  0  0  0  0  0  0
   58.8347   33.0101   42.6753 H   0  0  0  0  0  0  0  0  0  0  0  0
   56.6061   31.9931   41.2369 H   0  0  0  0  0  0  0  0  0  0  0  0
   58.1742   31.1672   41.3857 H   0  0  0  0  0  0  0  0  0  0  0  0
   55.5750   30.4956   42.6698 H   0  0  0  0  0  0  0  0  0  0  0  0
   57.0037   29.4852   42.5703 H   0  0  0  0  0  0  0  0  0  0  0  0
   57.7099   31.1323   46.7697 H   0  0  0  0  0  0  0  0  0  0  0  0
   58.5471   32.2683   48.8214 H   0  0  0  0  0  0  0  0  0  0  0  0
  1  2  1  0
  2  3  1  0
  3  4  1  0
  4  5  2  0
  4  6  1  0
  6  7  1  0
  7  8  2  0
  7  9  1  0
  9 10  1  0
 10 11  2  0
 11 12  1  0
 12 13  2  0
 13 14  1  0
 14 15  2  0
  6 16  1  0
 16 17  1  0
 17 18  2  0
 17 19  1  0
 19 20  1  0
 20 21  1  0
 21 22  2  0
 22 23  1  0
 23 24  2  0
 24 25  1  0
 25 26  1  0
 26 27  1  0
 27 28  1  0
 28 29  1  0
 29 30  2  0
 24 31  1  0
 31 32  2  0
 16  2  2  0
 32 21  1  0
 15 10  1  0
 29 25  1  0
  1 33  1  0
  1 34  1  0
  1 35  1  0
  9 36  1  0
  9 37  1  0
 11 38  1  0
 12 39  1  0
 13 40  1  0
 14 41  1  0
 15 42  1  0
 20 43  1  0
 20 44  1  0
 22 45  1  0
 23 46  1  0
 26 47  1  0
 26 48  1  0
 27 49  1  0
 27 50  1  0
 28 51  1  0
 28 52  1  0
 31 53  1  0
 32 54  1  0
M  CHG  2   3  -1  19  -1
M  END
>  <UniqueID>  (59) 
56

>  <SMILES>  (59) 
Cc1[n-]c(=O)n(C(=O)Cc2ccccc2)c1C(=O)[N-]Cc1ccc(N2CCCC2=O)cc1

>  <Energy>  (59) 
98.38870044651811

>  <Genealogy>  (59) 
Cc1[n-]c(=O)n(C(=O)Cc2ccccc2)c1C(=O)[N-]Cc1ccc(N2CCCC2=O)cc1 (protonated)
Cc1[n-]c(=O)n(C(=O)Cc2ccccc2)c1C(=O)[N-]Cc1ccc(N2CCCC2=O)cc1 (3D coordinates assigned)
Cc1[n-]c(=O)n(C(=O)Cc2ccccc2)c1C(=O)[N-]Cc1ccc(N2CCCC2=O)cc1 (nonaromatic ring conformer: 98.38870044651811 kcal/mol)

>  <smiles>  (59) 
Cc1[nH]c(=O)n(C(=O)Cc2ccccc2)c1C(=O)NCc1ccc(N2CCCC2=O)cc1

>  <score_type>  (59) 
oracle

>  <origin>  (59) 
adg

>  <m_score__min__energy>  (59) 
-11.859999999999999

>  <m_primary>  (59) 
energy

$$$$
59:0
     RDKit          3D

 59 62  0  0  0  0  0  0  0  0999 V2000
   57.0250   24.3310   43.5970 C   0  0  0  0  0  0  0  0  0  0  0  0
   57.7730   24.8790   44.6760 O   0  0  0  0  0  0  0  0  0  0  0  0
   58.1230   26.2310   44.7400 C   0  0  0  0  0  0  0  0  0  0  0  0
   58.9110   26.6410   45.6350 O   0  0  0  0  0  0  0  0  0  0  0  0
   57.6100   27.1310   43.7490 N   0  0  0  0  0  0  0  0  0  0  0  0
   57.7410   28.5620   43.8090 C   0  0  0  0  0  0  0  0  0  0  0  0
   58.7940   29.1750   44.5120 C   0  0  0  0  0  0  0  0  0  0  0  0
   58.8840   30.5690   44.5740 C   0  0  0  0  0  0  0  0  0  0  0  0
   57.9230   31.3710   43.9430 C   0  0  0  0  0  0  0  0  0  0  0  0
   57.9980   32.8710   44.0470 C   0  0  0  0  0  0  0  0  0  0  0  0
   58.4500   33.2740   45.4240 C   0  0  0  0  0  0  0  0  0  0  0  0
   57.7900   32.7750   46.5590 C   0  0  0  0  0  0  0  0  0  0  0  0
   58.1830   33.1790   47.8380 C   0  0  0  0  0  0  0  0  0  0  0  0
   59.2510   34.0770   48.0000 C   0  0  0  0  0  0  0  0  0  0  0  0
   59.6580   34.5340   49.2970 N   0  0  0  0  0  0  0  0  0  0  0  0
   59.6540   33.7760   50.5150 C   0  0  0  0  0  0  0  0  0  0  0  0
   60.3560   34.1800   51.4800 O   0  0  0  0  0  0  0  0  0  0  0  0
   58.9050   32.4670   50.6410 C   0  0  2  0  0  0  0  0  0  0  0  0
   58.3240   32.2990   52.0470 C   0  0  0  0  0  0  0  0  0  0  0  0
   59.3010   31.3940   52.7910 C   0  0  0  0  0  0  0  0  0  0  0  0
   60.0380   30.6110   51.7130 C   0  0  0  0  0  0  0  0  0  0  0  0
   59.8170   31.3420   50.4730 N   0  0  0  0  0  0  0  0  0  0  0  0
   60.4920   31.0510   49.2320 C   0  0  0  0  0  0  0  0  0  0  0  0
   60.0140   30.1860   48.4500 O   0  0  0  0  0  0  0  0  0  0  0  0
   61.7250   31.7580   48.8350 C   0  0  0  0  0  0  0  0  0  0  0  0
   62.0070   32.0220   47.4870 C   0  0  0  0  0  0  0  0  0  0  0  0
   63.1710   32.7110   47.1400 C   0  0  0  0  0  0  0  0  0  0  0  0
   64.0370   33.1410   48.1460 C   0  0  0  0  0  0  0  0  0  0  0  0
   63.7400   32.8990   49.4510 N   0  0  0  0  0  0  0  0  0  0  0  0
   62.6130   32.2300   49.8140 C   0  0  0  0  0  0  0  0  0  0  0  0
   59.8810   34.6050   46.8680 C   0  0  0  0  0  0  0  0  0  0  0  0
   59.4870   34.2050   45.5870 C   0  0  0  0  0  0  0  0  0  0  0  0
   56.8530   30.7620   43.2710 C   0  0  0  0  0  0  0  0  0  0  0  0
   56.7620   29.3680   43.2090 C   0  0  0  0  0  0  0  0  0  0  0  0
   56.1977   23.7249   43.9949 H   0  0  0  0  0  0  0  0  0  0  0  0
   56.6187   25.1467   42.9809 H   0  0  0  0  0  0  0  0  0  0  0  0
   57.6803   23.6977   42.9809 H   0  0  0  0  0  0  0  0  0  0  0  0
   57.1900   26.7080   42.8910 H   0  0  0  0  0  0  0  0  0  0  0  0
   59.5502   28.5547   45.0154 H   0  0  0  0  0  0  0  0  0  0  0  0
   59.7142   31.0393   45.1214 H   0  0  0  0  0  0  0  0  0  0  0  0
   58.7140   33.2515   43.3036 H   0  0  0  0  0  0  0  0  0  0  0  0
   57.0004   33.2943   43.8583 H   0  0  0  0  0  0  0  0  0  0  0  0
   56.9600   32.0629   46.4407 H   0  0  0  0  0  0  0  0  0  0  0  0
   57.6538   32.7922   48.7214 H   0  0  0  0  0  0  0  0  0  0  0  0
   58.1163   32.4845   49.8744 H   0  0  0  0  0  0  0  0  0  0  0  0
   58.2463   33.2746   52.5491 H   0  0  0  0  0  0  0  0  0  0  0  0
   57.3119   31.8689   52.0197 H   0  0  0  0  0  0  0  0  0  0  0  0
   60.0089   31.9956   53.3800 H   0  0  0  0  0  0  0  0  0  0  0  0
   58.7818   30.7268   53.4948 H   0  0  0  0  0  0  0  0  0  0  0  0
   61.1127   30.5613   51.9424 H   0  0  0  0  0  0  0  0  0  0  0  0
   59.6741   29.5753   51.6436 H   0  0  0  0  0  0  0  0  0  0  0  0
   61.3117   31.6866   46.7034 H   0  0  0  0  0  0  0  0  0  0  0  0
   63.4029   32.9128   46.0838 H   0  0  0  0  0  0  0  0  0  0  0  0
   64.9612   33.6765   47.8833 H   0  0  0  0  0  0  0  0  0  0  0  0
   62.3966   32.0582   50.8787 H   0  0  0  0  0  0  0  0  0  0  0  0
   60.6914   35.3394   46.9861 H   0  0  0  0  0  0  0  0  0  0  0  0
   59.9923   34.6221   44.7034 H   0  0  0  0  0  0  0  0  0  0  0  0
   56.0826   31.3833   42.7910 H   0  0  0  0  0  0  0  0  0  0  0  0
   55.9157   28.8995   42.6854 H   0  0  0  0  0  0  0  0  0  0  0  0
  1  2  1  0
  2  3  1  0
  3  4  2  0
  3  5  1  0
  5  6  1  0
  6  7  2  0
  7  8  1  0
  8  9  2  0
  9 10  1  0
 10 11  1  0
 11 12  2  0
 12 13  1  0
 13 14  2  0
 14 15  1  0
 15 16  1  0
 16 17  2  0
 16 18  1  0
 18 19  1  0
 19 20  1  0
 20 21  1  0
 21 22  1  0
 22 23  1  0
 23 24  2  0
 23 25  1  0
 25 26  2  0
 26 27  1  0
 27 28  2  0
 28 29  1  0
 29 30  2  0
 14 31  1  0
 31 32  2  0
  9 33  1  0
 33 34  2  0
 34  6  1  0
 32 11  1  0
 22 18  1  0
 30 25  1  0
  1 35  1  0
  1 36  1  0
  1 37  1  0
  5 38  1  0
  7 39  1  0
  8 40  1  0
 10 41  1  0
 10 42  1  0
 12 43  1  0
 13 44  1  0
 18 45  1  6
 19 46  1  0
 19 47  1  0
 20 48  1  0
 20 49  1  0
 21 50  1  0
 21 51  1  0
 26 52  1  0
 27 53  1  0
 28 54  1  0
 30 55  1  0
 31 56  1  0
 32 57  1  0
 33 58  1  0
 34 59  1  0
M  CHG  1  15  -1
M  END
>  <UniqueID>  (60) 
57

>  <SMILES>  (60) 
COC(=O)Nc1ccc(Cc2ccc([N-]C(=O)[C@@H]3CCCN3C(=O)c3cccnc3)cc2)cc1

>  <Energy>  (60) 
72.46614139628467

>  <Genealogy>  (60) 
COC(=O)Nc1ccc(Cc2ccc([N-]C(=O)C3CCCN3C(=O)c3cccnc3)cc2)cc1 (protonated)
COC(=O)Nc1ccc(Cc2ccc([N-]C(=O)[C@@H]3CCCN3C(=O)c3cccnc3)cc2)cc1 (chirality)
COC(=O)Nc1ccc(Cc2ccc([N-]C(=O)[C@@H]3CCCN3C(=O)c3cccnc3)cc2)cc1 (3D coordinates assigned)
COC(=O)Nc1ccc(Cc2ccc([N-]C(=O)[C@@H]3CCCN3C(=O)c3cccnc3)cc2)cc1 (nonaromatic ring conformer: 72.46614139628467 kcal/mol)

>  <smiles>  (60) 
COC(=O)Nc1ccc(Cc2ccc(NC(=O)C3CCCN3C(=O)c3cccnc3)cc2)cc1

>  <score_type>  (60) 
oracle

>  <origin>  (60) 
adg

>  <m_score__min__energy>  (60) 
-11.67

>  <m_primary>  (60) 
energy

$$$$
60:0
     RDKit          3D

 60 64  0  0  0  0  0  0  0  0999 V2000
   63.7600   33.7720   46.8430 C   0  0  0  0  0  0  0  0  0  0  0  0
   62.4410   33.8100   47.5370 C   0  0  0  0  0  0  0  0  0  0  0  0
   61.2600   33.8950   46.8890 N   0  0  0  0  0  0  0  0  0  0  0  0
   60.2070   33.9820   47.7480 C   0  0  0  0  0  0  0  0  0  0  0  0
   58.7930   34.0390   47.2380 C   0  0  0  0  0  0  0  0  0  0  0  0
   58.5170   32.9120   46.3200 N   0  0  0  0  0  0  0  0  0  0  0  0
   58.5290   31.6260   46.8120 C   0  0  0  0  0  0  0  0  0  0  0  0
   58.7900   31.3870   48.0240 O   0  0  0  0  0  0  0  0  0  0  0  0
   58.2530   30.5820   45.9450 C   0  0  0  0  0  0  0  0  0  0  0  0
   58.2180   29.2650   46.2080 N   0  0  0  0  0  0  0  0  0  0  0  0
   57.9120   28.6680   45.0300 C   0  0  0  0  0  0  0  0  0  0  0  0
   57.7580   27.2140   44.8550 C   0  0  0  0  0  0  0  0  0  0  0  0
   57.5480   26.2780   45.8670 C   0  0  0  0  0  0  0  0  0  0  0  0
   57.4190   24.9980   45.4300 N   0  0  0  0  0  0  0  0  0  0  0  0
   57.5160   24.8950   44.0880 C   0  0  0  0  0  0  0  0  0  0  0  0
   57.3900   23.6760   43.4130 O   0  0  0  0  0  0  0  0  0  0  0  0
   56.2250   22.8520   43.4720 C   0  0  0  0  0  0  0  0  0  0  0  0
   55.7810   22.6420   44.8930 C   0  0  0  0  0  0  0  0  0  0  0  0
   56.5980   22.1450   45.7140 O   0  0  0  0  0  0  0  0  0  0  0  0
   54.4430   22.9600   45.3230 N   0  0  0  0  0  0  0  0  0  0  0  0
   53.8650   22.2230   46.4530 C   0  0  0  0  0  0  0  0  0  0  0  0
   52.3640   22.4980   46.5530 C   0  0  0  0  0  0  0  0  0  0  0  0
   51.8090   22.5320   45.2550 O   0  0  0  0  0  0  0  0  0  0  0  0
   52.1960   23.7200   44.5810 C   0  0  0  0  0  0  0  0  0  0  0  0
   53.6890   24.0870   44.7560 C   0  0  0  0  0  0  0  0  0  0  0  0
   57.7800   26.4010   43.3770 S   0  0  0  0  0  0  0  0  0  0  0  0
   57.7550   29.6160   44.0200 C   0  0  0  0  0  0  0  0  0  0  0  0
   57.9780   30.8310   44.6410 C   0  0  0  0  0  0  0  0  0  0  0  0
   57.9600   32.0920   44.1280 N   0  0  0  0  0  0  0  0  0  0  0  0
   57.6880   32.3020   42.6980 C   0  0  0  0  0  0  0  0  0  0  0  0
   58.2560   33.1390   44.9760 C   0  0  0  0  0  0  0  0  0  0  0  0
   58.2950   34.3160   44.5190 O   0  0  0  0  0  0  0  0  0  0  0  0
   60.5630   33.9820   49.1010 C   0  0  0  0  0  0  0  0  0  0  0  0
   59.6440   34.0290   50.2780 C   0  0  0  0  0  0  0  0  0  0  0  0
   62.2380   33.8610   49.2050 S   0  0  0  0  0  0  0  0  0  0  0  0
   64.5669   33.7488   47.5902 H   0  0  0  0  0  0  0  0  0  0  0  0
   63.8172   32.8718   46.2134 H   0  0  0  0  0  0  0  0  0  0  0  0
   63.8690   34.6674   46.2134 H   0  0  0  0  0  0  0  0  0  0  0  0
   58.1002   33.9868   48.0908 H   0  0  0  0  0  0  0  0  0  0  0  0
   58.6554   34.9818   46.6883 H   0  0  0  0  0  0  0  0  0  0  0  0
   58.3920   28.8060   47.1310 H   0  0  0  0  0  0  0  0  0  0  0  0
   57.4915   26.5530   46.9306 H   0  0  0  0  0  0  0  0  0  0  0  0
   57.2500   24.1850   46.0630 H   0  0  0  0  0  0  0  0  0  0  0  0
   55.4132   23.3371   42.9101 H   0  0  0  0  0  0  0  0  0  0  0  0
   56.4676   21.8727   43.0338 H   0  0  0  0  0  0  0  0  0  0  0  0
   54.0275   21.1452   46.3047 H   0  0  0  0  0  0  0  0  0  0  0  0
   54.3522   22.5528   47.3824 H   0  0  0  0  0  0  0  0  0  0  0  0
   51.8824   21.7006   47.1379 H   0  0  0  0  0  0  0  0  0  0  0  0
   52.1986   23.4651   47.0503 H   0  0  0  0  0  0  0  0  0  0  0  0
   51.9959   23.5890   43.5073 H   0  0  0  0  0  0  0  0  0  0  0  0
   51.6132   24.5408   45.0244 H   0  0  0  0  0  0  0  0  0  0  0  0
   54.1133   24.3471   43.7750 H   0  0  0  0  0  0  0  0  0  0  0  0
   53.7625   24.9413   45.4451 H   0  0  0  0  0  0  0  0  0  0  0  0
   57.5083   29.4370   42.9631 H   0  0  0  0  0  0  0  0  0  0  0  0
   56.8220   32.9706   42.5838 H   0  0  0  0  0  0  0  0  0  0  0  0
   58.5681   32.7572   42.2203 H   0  0  0  0  0  0  0  0  0  0  0  0
   57.4704   31.3353   42.2203 H   0  0  0  0  0  0  0  0  0  0  0  0
   60.2344   33.9988   51.2056 H   0  0  0  0  0  0  0  0  0  0  0  0
   59.0564   34.9584   50.2475 H   0  0  0  0  0  0  0  0  0  0  0  0
   58.9646   33.1644   50.2475 H   0  0  0  0  0  0  0  0  0  0  0  0
  1  2  1  0
  2  3  2  0
  3  4  1  0
  4  5  1  0
  5  6  1  0
  6  7  1  0
  7  8  2  0
  7  9  1  0
  9 10  1  0
 10 11  1  0
 11 12  1  0
 12 13  2  0
 13 14  1  0
 14 15  2  0
 15 16  1  0
 16 17  1  0
 17 18  1  0
 18 19  2  0
 18 20  1  0
 20 21  1  0
 21 22  1  0
 22 23  1  0
 23 24  1  0
 24 25  1  0
 15 26  1  0
 11 27  2  0
 27 28  1  0
 28 29  1  0
 29 30  1  0
 29 31  1  0
 31 32  2  0
  4 33  2  0
 33 34  1  0
 33 35  1  0
 35  2  1  0
 31  6  1  0
 28  9  2  0
 26 12  1  0
 25 20  1  0
  1 36  1  0
  1 37  1  0
  1 38  1  0
  5 39  1  0
  5 40  1  0
 10 41  1  0
 13 42  1  0
 14 43  1  0
 17 44  1  0
 17 45  1  0
 21 46  1  0
 21 47  1  0
 22 48  1  0
 22 49  1  0
 24 50  1  0
 24 51  1  0
 25 52  1  0
 25 53  1  0
 27 54  1  0
 30 55  1  0
 30 56  1  0
 30 57  1  0
 34 58  1  0
 34 59  1  0
 34 60  1  0
M  CHG  1  14   1
M  END
>  <UniqueID>  (61) 
58

>  <SMILES>  (61) 
Cc1nc(Cn2c(=O)c3[nH]c(-c4c[nH+]c(OCC(=O)N5CCOCC5)s4)cc3n(C)c2=O)c(C)s1

>  <Energy>  (61) 
166.74477995358617

>  <Genealogy>  (61) 
Cc1nc(Cn2c(=O)c3[nH]c(-c4c[nH+]c(OCC(=O)N5CCOCC5)s4)cc3n(C)c2=O)c(C)s1 (protonated)
Cc1nc(Cn2c(=O)c3[nH]c(-c4c[nH+]c(OCC(=O)N5CCOCC5)s4)cc3n(C)c2=O)c(C)s1 (3D coordinates assigned)
Cc1nc(Cn2c(=O)c3[nH]c(-c4c[nH+]c(OCC(=O)N5CCOCC5)s4)cc3n(C)c2=O)c(C)s1 (nonaromatic ring conformer: 166.74477995358617 kcal/mol)

>  <smiles>  (61) 
Cc1nc(Cn2c(=O)c3[nH]c(-c4cnc(OCC(=O)N5CCOCC5)s4)cc3n(C)c2=O)c(C)s1

>  <score_type>  (61) 
oracle

>  <origin>  (61) 
adg

>  <m_score__min__energy>  (61) 
-7.75

>  <m_primary>  (61) 
energy

$$$$
61:0
     RDKit          3D

 39 41  0  0  0  0  0  0  0  0999 V2000
   64.5100   32.9910   48.2430 N   0  0  0  0  0  0  0  0  0  0  0  0
   63.2170   33.2530   48.7920 C   0  0  0  0  0  0  0  0  0  0  0  0
   63.1180   34.0020   49.8000 O   0  0  0  0  0  0  0  0  0  0  0  0
   62.0000   32.6650   48.2020 C   0  0  0  0  0  0  0  0  0  0  0  0
   60.7200   33.1770   48.3090 C   0  0  0  0  0  0  0  0  0  0  0  0
   59.8540   32.3890   47.6470 N   0  0  0  0  0  0  0  0  0  0  0  0
   60.5640   31.3730   47.1160 C   0  0  0  0  0  0  0  0  0  0  0  0
   59.9770   30.2750   46.3060 C   0  0  0  0  0  0  0  0  0  0  0  0
   60.8070   29.3390   45.6640 C   0  0  0  0  0  0  0  0  0  0  0  0
   60.2550   28.3090   44.8990 C   0  0  0  0  0  0  0  0  0  0  0  0
   58.8700   28.1970   44.7660 C   0  0  0  0  0  0  0  0  0  0  0  0
   58.0240   29.1160   45.4040 C   0  0  0  0  0  0  0  0  0  0  0  0
   56.5300   29.0190   45.2450 C   0  0  0  0  0  0  0  0  0  0  0  0
   55.9970   30.2670   44.7100 N   0  0  0  0  0  0  0  0  0  0  0  0
   56.7590   31.1790   43.9110 C   0  0  0  0  0  0  0  0  0  0  0  0
   56.8650   30.9860   42.6690 O   0  0  0  0  0  0  0  0  0  0  0  0
   57.4210   32.3450   44.5390 C   0  0  0  0  0  0  0  0  0  0  0  0
   58.4700   33.0170   43.8870 C   0  0  0  0  0  0  0  0  0  0  0  0
   59.0830   34.1160   44.4920 C   0  0  0  0  0  0  0  0  0  0  0  0
   58.6440   34.5390   45.7480 C   0  0  0  0  0  0  0  0  0  0  0  0
   57.6290   33.8840   46.3690 N   0  0  0  0  0  0  0  0  0  0  0  0
   57.0160   32.8110   45.8020 C   0  0  0  0  0  0  0  0  0  0  0  0
   58.5810   30.1520   46.1690 C   0  0  0  0  0  0  0  0  0  0  0  0
   61.9050   31.5130   47.4420 C   0  0  0  0  0  0  0  0  0  0  0  0
   65.3580   33.4210   48.6760 H   0  0  0  0  0  0  0  0  0  0  0  0
   64.6400   32.3740   47.4120 H   0  0  0  0  0  0  0  0  0  0  0  0
   60.4500   34.0931   48.8547 H   0  0  0  0  0  0  0  0  0  0  0  0
   58.8240   32.5410   47.5900 H   0  0  0  0  0  0  0  0  0  0  0  0
   61.8995   29.4186   45.7650 H   0  0  0  0  0  0  0  0  0  0  0  0
   60.9140   27.5835   44.3996 H   0  0  0  0  0  0  0  0  0  0  0  0
   58.4409   27.3859   44.1593 H   0  0  0  0  0  0  0  0  0  0  0  0
   56.2909   28.1966   44.5547 H   0  0  0  0  0  0  0  0  0  0  0  0
   56.0765   28.8282   46.2289 H   0  0  0  0  0  0  0  0  0  0  0  0
   58.8087   32.6760   42.8976 H   0  0  0  0  0  0  0  0  0  0  0  0
   59.9038   34.6434   43.9840 H   0  0  0  0  0  0  0  0  0  0  0  0
   59.1202   35.4029   46.2348 H   0  0  0  0  0  0  0  0  0  0  0  0
   56.1979   32.3043   46.3349 H   0  0  0  0  0  0  0  0  0  0  0  0
   57.9197   30.8762   46.6673 H   0  0  0  0  0  0  0  0  0  0  0  0
   62.7280   30.8424   47.1539 H   0  0  0  0  0  0  0  0  0  0  0  0
  1  2  1  0
  2  3  2  0
  2  4  1  0
  4  5  2  0
  5  6  1  0
  6  7  1  0
  7  8  1  0
  8  9  2  0
  9 10  1  0
 10 11  2  0
 11 12  1  0
 12 13  1  0
 13 14  1  0
 14 15  1  0
 15 16  2  0
 15 17  1  0
 17 18  2  0
 18 19  1  0
 19 20  2  0
 20 21  1  0
 21 22  2  0
 12 23  2  0
  7 24  2  0
 24  4  1  0
 23  8  1  0
 22 17  1  0
  1 25  1  0
  1 26  1  0
  5 27  1  0
  6 28  1  0
  9 29  1  0
 10 30  1  0
 11 31  1  0
 13 32  1  0
 13 33  1  0
 18 34  1  0
 19 35  1  0
 20 36  1  0
 22 37  1  0
 23 38  1  0
 24 39  1  0
M  CHG  1  14  -1
M  END
>  <UniqueID>  (62) 
59

>  <SMILES>  (62) 
NC(=O)c1c[nH]c(-c2cccc(C[N-]C(=O)c3cccnc3)c2)c1

>  <Energy>  (62) 
67.32306378529606

>  <Genealogy>  (62) 
NC(=O)c1c[nH]c(-c2cccc(C[N-]C(=O)c3cccnc3)c2)c1 (protonated)
NC(=O)c1c[nH]c(-c2cccc(C[N-]C(=O)c3cccnc3)c2)c1 (3D coordinates assigned)
NC(=O)c1c[nH]c(-c2cccc(C[N-]C(=O)c3cccnc3)c2)c1 (optimized conformer: 67.32306378529606 kcal/mol)

>  <smiles>  (62) 
NC(=O)c1c[nH]c(-c2cccc(CNC(=O)c3cccnc3)c2)c1

>  <score_type>  (62) 
oracle

>  <origin>  (62) 
adg

>  <m_score__min__energy>  (62) 
-9.8599999999999994

>  <m_primary>  (62) 
energy

$$$$
62:0
     RDKit          3D

 59 63  0  0  0  0  0  0  0  0999 V2000
   55.1220   29.3280   44.5120 N   0  0  0  0  0  0  0  0  0  0  0  0
   56.7800   28.9620   44.8430 S   0  0  0  0  0  0  0  0  0  0  0  0
   56.8520   28.0560   46.0400 O   0  0  0  0  0  0  0  0  0  0  0  0
   57.3840   28.2730   43.6520 O   0  0  0  0  0  0  0  0  0  0  0  0
   57.6610   30.4400   45.1730 C   0  0  0  0  0  0  0  0  0  0  0  0
   57.5260   31.6310   44.4720 C   0  0  0  0  0  0  0  0  0  0  0  0
   58.3550   32.6480   44.9590 C   0  0  0  0  0  0  0  0  0  0  0  0
   59.1260   32.2460   46.0400 C   0  0  0  0  0  0  0  0  0  0  0  0
   60.3090   33.2420   46.8700 S   0  0  0  0  0  0  0  0  0  0  0  0
   60.4400   34.5580   46.1520 O   0  0  0  0  0  0  0  0  0  0  0  0
   61.6360   32.5390   46.8210 O   0  0  0  0  0  0  0  0  0  0  0  0
   59.8560   33.5050   48.5430 N   0  0  0  0  0  0  0  0  0  0  0  0
   60.9910   33.3110   49.4650 C   0  0  0  0  0  0  0  0  0  0  0  0
   61.4240   31.8390   49.5340 C   0  0  0  0  0  0  0  0  0  0  0  0
   60.2620   30.9390   49.5880 N   0  0  0  0  0  0  0  0  0  0  0  0
   60.4290   29.5000   49.5210 C   0  0  0  0  0  0  0  0  0  0  0  0
   60.8360   28.7470   50.6390 C   0  0  0  0  0  0  0  0  0  0  0  0
   60.9950   27.3560   50.5340 C   0  0  0  0  0  0  0  0  0  0  0  0
   61.4300   26.5470   51.6980 C   0  0  0  0  0  0  0  0  0  0  0  0
   60.7530   26.4990   52.8690 N   0  0  0  0  0  0  0  0  0  0  0  0
   61.3510   25.6840   53.7790 C   0  0  0  0  0  0  0  0  0  0  0  0
   62.5180   25.0680   53.3440 C   0  0  0  0  0  0  0  0  0  0  0  0
   62.8010   25.5680   51.7650 S   0  0  0  0  0  0  0  0  0  0  0  0
   60.7370   26.7340   49.3040 C   0  0  0  0  0  0  0  0  0  0  0  0
   60.3290   27.5020   48.2050 C   0  0  0  0  0  0  0  0  0  0  0  0
   60.0470   26.8760   46.8940 C   0  0  0  0  0  0  0  0  0  0  0  0
   60.9840   26.7050   46.0670 O   0  0  0  0  0  0  0  0  0  0  0  0
   58.7160   26.4610   46.5550 N   0  0  0  0  0  0  0  0  0  0  0  0
   58.4210   25.8310   45.2690 C   0  0  0  0  0  0  0  0  0  0  0  0
   57.0670   25.1930   45.2910 C   0  0  0  0  0  0  0  0  0  0  0  0
   56.5840   24.2940   44.3610 C   0  0  0  0  0  0  0  0  0  0  0  0
   55.3220   23.9540   44.7970 C   0  0  0  0  0  0  0  0  0  0  0  0
   55.1170   24.6610   45.9660 C   0  0  0  0  0  0  0  0  0  0  0  0
   56.1770   25.3880   46.2360 O   0  0  0  0  0  0  0  0  0  0  0  0
   60.1910   28.8470   48.3490 N   0  0  0  0  0  0  0  0  0  0  0  0
   58.9410   31.5300   49.8550 C   0  0  0  0  0  0  0  0  0  0  0  0
   58.6570   32.7130   48.9080 C   0  0  0  0  0  0  0  0  0  0  0  0
   58.7990   30.6350   46.3970 S   0  0  0  0  0  0  0  0  0  0  0  0
   54.6230   29.3410   45.4300 H   0  0  0  0  0  0  0  0  0  0  0  0
   56.8393   31.7615   43.6227 H   0  0  0  0  0  0  0  0  0  0  0  0
   58.3914   33.6601   44.5296 H   0  0  0  0  0  0  0  0  0  0  0  0
   61.8407   33.9162   49.1161 H   0  0  0  0  0  0  0  0  0  0  0  0
   60.6716   33.6212   50.4709 H   0  0  0  0  0  0  0  0  0  0  0  0
   62.0209   31.5995   48.6416 H   0  0  0  0  0  0  0  0  0  0  0  0
   62.0158   31.6951   50.4500 H   0  0  0  0  0  0  0  0  0  0  0  0
   61.0300   29.2502   51.5977 H   0  0  0  0  0  0  0  0  0  0  0  0
   60.9403   25.5240   54.7868 H   0  0  0  0  0  0  0  0  0  0  0  0
   63.1439   24.3774   53.9281 H   0  0  0  0  0  0  0  0  0  0  0  0
   60.8547   25.6451   49.2019 H   0  0  0  0  0  0  0  0  0  0  0  0
   57.9410   26.6110   47.2420 H   0  0  0  0  0  0  0  0  0  0  0  0
   58.4474   26.5950   44.4780 H   0  0  0  0  0  0  0  0  0  0  0  0
   59.1751   25.0541   45.0743 H   0  0  0  0  0  0  0  0  0  0  0  0
   57.0987   23.9264   43.4610 H   0  0  0  0  0  0  0  0  0  0  0  0
   54.6197   23.2599   44.3123 H   0  0  0  0  0  0  0  0  0  0  0  0
   54.2040   24.6211   46.5782 H   0  0  0  0  0  0  0  0  0  0  0  0
   58.1680   30.7609   49.7100 H   0  0  0  0  0  0  0  0  0  0  0  0
   58.9290   31.9021   50.8901 H   0  0  0  0  0  0  0  0  0  0  0  0
   58.2127   32.3152   47.9837 H   0  0  0  0  0  0  0  0  0  0  0  0
   57.9829   33.3938   49.4485 H   0  0  0  0  0  0  0  0  0  0  0  0
  1  2  1  0
  2  3  2  0
  2  4  2  0
  2  5  1  0
  5  6  2  0
  6  7  1  0
  7  8  2  0
  8  9  1  0
  9 10  2  0
  9 11  2  0
  9 12  1  0
 12 13  1  0
 13 14  1  0
 14 15  1  0
 15 16  1  0
 16 17  2  0
 17 18  1  0
 18 19  1  0
 19 20  2  0
 20 21  1  0
 21 22  2  0
 22 23  1  0
 18 24  2  0
 24 25  1  0
 25 26  1  0
 26 27  2  0
 26 28  1  0
 28 29  1  0
 29 30  1  0
 30 31  2  0
 31 32  1  0
 32 33  2  0
 33 34  1  0
 25 35  2  0
 15 36  1  0
 36 37  1  0
  8 38  1  0
 38  5  1  0
 37 12  1  0
 35 16  1  0
 23 19  1  0
 34 30  1  0
  1 39  1  0
  6 40  1  0
  7 41  1  0
 13 42  1  0
 13 43  1  0
 14 44  1  0
 14 45  1  0
 17 46  1  0
 21 47  1  0
 22 48  1  0
 24 49  1  0
 28 50  1  0
 29 51  1  0
 29 52  1  0
 31 53  1  0
 32 54  1  0
 33 55  1  0
 36 56  1  0
 36 57  1  0
 37 58  1  0
 37 59  1  0
M  CHG  1   1  -1
M  END
>  <UniqueID>  (63) 
60

>  <SMILES>  (63) 
[NH-]S(=O)(=O)c1ccc(S(=O)(=O)N2CCN(c3cc(-c4nccs4)cc(C(=O)NCc4ccco4)n3)CC2)s1

>  <Energy>  (63) 
152.82067108820453

>  <Genealogy>  (63) 
[NH-]S(=O)(=O)c1ccc(S(=O)(=O)N2CCN(c3cc(-c4nccs4)cc(C(=O)NCc4ccco4)n3)CC2)s1 (protonated)
[NH-]S(=O)(=O)c1ccc(S(=O)(=O)N2CCN(c3cc(-c4nccs4)cc(C(=O)NCc4ccco4)n3)CC2)s1 (3D coordinates assigned)
[NH-]S(=O)(=O)c1ccc(S(=O)(=O)N2CCN(c3cc(-c4nccs4)cc(C(=O)NCc4ccco4)n3)CC2)s1 (nonaromatic ring conformer: 152.82067108820453 kcal/mol)

>  <smiles>  (63) 
NS(=O)(=O)c1ccc(S(=O)(=O)N2CCN(c3cc(-c4nccs4)cc(C(=O)NCc4ccco4)n3)CC2)s1

>  <score_type>  (63) 
oracle

>  <origin>  (63) 
adg

>  <m_score__min__energy>  (63) 
-12.5

>  <m_primary>  (63) 
energy

$$$$
63:0
     RDKit          3D

 50 53  0  0  0  0  0  0  0  0999 V2000
   55.9030   28.6360   44.9000 O   0  0  0  0  0  0  0  0  0  0  0  0
   56.7650   29.4940   45.2220 C   0  0  0  0  0  0  0  0  0  0  0  0
   56.7300   30.7720   44.5740 N   0  0  0  0  0  0  0  0  0  0  0  0
   57.7000   31.3050   43.6170 C   0  0  0  0  0  0  0  0  0  0  0  0
   57.7800   32.8400   43.6340 C   0  0  0  0  0  0  0  0  0  0  0  0
   58.3410   33.3940   44.9190 C   0  0  0  0  0  0  0  0  0  0  0  0
   57.8500   32.9500   46.1590 C   0  0  0  0  0  0  0  0  0  0  0  0
   58.3500   33.4920   47.3480 C   0  0  0  0  0  0  0  0  0  0  0  0
   59.3320   34.4860   47.3060 C   0  0  0  0  0  0  0  0  0  0  0  0
   59.8190   34.9360   46.0760 C   0  0  0  0  0  0  0  0  0  0  0  0
   59.3330   34.3880   44.8870 C   0  0  0  0  0  0  0  0  0  0  0  0
   57.7870   29.1520   46.2260 C   0  0  0  0  0  0  0  0  0  0  0  0
   58.3560   30.0810   47.0360 N   0  0  0  0  0  0  0  0  0  0  0  0
   59.1810   29.4330   47.8370 N   0  0  0  0  0  0  0  0  0  0  0  0
   59.9480   29.9660   48.8180 C   0  0  0  0  0  0  0  0  0  0  0  0
   60.7480   29.0930   49.5700 C   0  0  0  0  0  0  0  0  0  0  0  0
   61.8600   29.7590   50.9720 Br  0  0  0  0  0  0  0  0  0  0  0  0
   60.7130   27.7150   49.2730 C   0  0  0  0  0  0  0  0  0  0  0  0
   59.9150   27.2430   48.2720 N   0  0  0  0  0  0  0  0  0  0  0  0
   59.1600   28.1240   47.5700 C   0  0  0  0  0  0  0  0  0  0  0  0
   58.2860   27.8730   46.5330 C   0  0  0  0  0  0  0  0  0  0  0  0
   57.9530   26.5510   45.9580 C   0  0  0  0  0  0  0  0  0  0  0  0
   58.3550   26.2610   44.8000 O   0  0  0  0  0  0  0  0  0  0  0  0
   57.1510   25.6180   46.6870 N   0  0  0  0  0  0  0  0  0  0  0  0
   57.0100   24.2130   46.3230 C   0  0  0  0  0  0  0  0  0  0  0  0
   55.5610   23.8600   46.1120 C   0  0  0  0  0  0  0  0  0  0  0  0
   55.1490   22.5260   46.2760 C   0  0  0  0  0  0  0  0  0  0  0  0
   53.8200   22.1600   46.0520 C   0  0  0  0  0  0  0  0  0  0  0  0
   52.8870   23.1190   45.6570 C   0  0  0  0  0  0  0  0  0  0  0  0
   53.2790   24.4490   45.4980 C   0  0  0  0  0  0  0  0  0  0  0  0
   54.6020   24.8360   45.7420 C   0  0  0  0  0  0  0  0  0  0  0  0
   54.9270   26.1890   45.6190 O   0  0  0  0  0  0  0  0  0  0  0  0
   58.6928   30.8996   43.8618 H   0  0  0  0  0  0  0  0  0  0  0  0
   57.3697   31.0040   42.6118 H   0  0  0  0  0  0  0  0  0  0  0  0
   58.4235   33.1652   42.8033 H   0  0  0  0  0  0  0  0  0  0  0  0
   56.7526   33.2208   43.5363 H   0  0  0  0  0  0  0  0  0  0  0  0
   57.0707   32.1745   46.1947 H   0  0  0  0  0  0  0  0  0  0  0  0
   57.9700   33.1356   48.3168 H   0  0  0  0  0  0  0  0  0  0  0  0
   59.7215   34.9140   48.2415 H   0  0  0  0  0  0  0  0  0  0  0  0
   60.5866   35.7233   46.0442 H   0  0  0  0  0  0  0  0  0  0  0  0
   59.7286   34.7362   43.9215 H   0  0  0  0  0  0  0  0  0  0  0  0
   59.9437   31.0476   49.0183 H   0  0  0  0  0  0  0  0  0  0  0  0
   61.3335   27.0156   49.8525 H   0  0  0  0  0  0  0  0  0  0  0  0
   57.5668   24.0233   45.3935 H   0  0  0  0  0  0  0  0  0  0  0  0
   57.4091   23.5944   47.1403 H   0  0  0  0  0  0  0  0  0  0  0  0
   55.8799   21.7636   46.5835 H   0  0  0  0  0  0  0  0  0  0  0  0
   53.5083   21.1138   46.1872 H   0  0  0  0  0  0  0  0  0  0  0  0
   51.8429   22.8271   45.4710 H   0  0  0  0  0  0  0  0  0  0  0  0
   52.5417   25.2000   45.1780 H   0  0  0  0  0  0  0  0  0  0  0  0
   55.8070   26.5160   45.2430 H   0  0  0  0  0  0  0  0  0  0  0  0
  1  2  2  0
  2  3  1  0
  3  4  1  0
  4  5  1  0
  5  6  1  0
  6  7  2  0
  7  8  1  0
  8  9  2  0
  9 10  1  0
 10 11  2  0
  2 12  1  0
 12 13  2  0
 13 14  1  0
 14 15  1  0
 15 16  2  0
 16 17  1  0
 16 18  1  0
 18 19  2  0
 19 20  1  0
 20 21  2  0
 21 22  1  0
 22 23  2  0
 22 24  1  0
 24 25  1  0
 25 26  1  0
 26 27  2  0
 27 28  1  0
 28 29  2  0
 29 30  1  0
 30 31  2  0
 31 32  1  0
 11  6  1  0
 21 12  1  0
 31 26  1  0
 20 14  1  0
  4 33  1  0
  4 34  1  0
  5 35  1  0
  5 36  1  0
  7 37  1  0
  8 38  1  0
  9 39  1  0
 10 40  1  0
 11 41  1  0
 15 42  1  0
 18 43  1  0
 25 44  1  0
 25 45  1  0
 27 46  1  0
 28 47  1  0
 29 48  1  0
 30 49  1  0
 32 50  1  0
M  CHG  2   3  -1  24  -1
M  END
>  <UniqueID>  (64) 
61

>  <SMILES>  (64) 
O=C([N-]CCc1ccccc1)c1nn2cc(Br)cnc2c1C(=O)[N-]Cc1ccccc1O

>  <Energy>  (64) 
90.49701250517218

>  <Genealogy>  (64) 
O=C([N-]CCc1ccccc1)c1nn2cc(Br)cnc2c1C(=O)[N-]Cc1ccccc1O (protonated)
O=C([N-]CCc1ccccc1)c1nn2cc(Br)cnc2c1C(=O)[N-]Cc1ccccc1O (3D coordinates assigned)
O=C([N-]CCc1ccccc1)c1nn2cc(Br)cnc2c1C(=O)[N-]Cc1ccccc1O (optimized conformer: 90.49701250517218 kcal/mol)

>  <smiles>  (64) 
O=C(NCCc1ccccc1)c1nn2cc(Br)cnc2c1C(=O)NCc1ccccc1O

>  <score_type>  (64) 
oracle

>  <origin>  (64) 
adg

>  <m_score__min__energy>  (64) 
-12.130000000000001

>  <m_primary>  (64) 
energy

$$$$
64:0
     RDKit          3D

 67 70  0  0  0  0  0  0  0  0999 V2000
   63.0350   31.3050   49.8180 C   0  0  0  0  0  0  0  0  0  0  0  0
   63.8500   32.2810   49.0730 N   0  0  0  0  0  0  0  0  0  0  0  0
   63.5750   32.2490   47.6160 C   0  0  0  0  0  0  0  0  0  0  0  0
   62.6290   33.3690   47.1470 C   0  0  0  0  0  0  0  0  0  0  0  0
   61.6610   33.6830   48.2140 N   0  0  0  0  0  0  0  0  0  0  0  0
   60.6010   34.5890   47.7260 C   0  0  0  0  0  0  0  0  0  0  0  0
   59.5700   33.8240   46.9360 C   0  0  0  0  0  0  0  0  0  0  0  0
   59.7820   33.5280   45.5800 C   0  0  0  0  0  0  0  0  0  0  0  0
   58.8110   32.8400   44.8470 C   0  0  0  0  0  0  0  0  0  0  0  0
   57.6170   32.4260   45.4640 C   0  0  0  0  0  0  0  0  0  0  0  0
   56.5570   31.8020   44.7230 N   0  0  0  0  0  0  0  0  0  0  0  0
   56.6900   30.6800   43.8400 C   0  0  0  0  0  0  0  0  0  0  0  0
   56.3030   30.7750   42.6430 O   0  0  0  0  0  0  0  0  0  0  0  0
   57.2950   29.4630   44.3150 N   0  0  0  0  0  0  0  0  0  0  0  0
   57.4670   28.3110   43.4210 C   0  0  0  0  0  0  0  0  0  0  0  0
   58.7350   27.5180   43.7910 C   0  0  0  0  0  0  0  0  0  0  0  0
   58.9320   27.3160   45.2560 N   0  0  0  0  0  0  0  0  0  0  0  0
   60.2550   27.7860   45.7220 C   0  0  0  0  0  0  0  0  0  0  0  0
   60.0900   28.6230   46.9600 C   0  0  0  0  0  0  0  0  0  0  0  0
   59.8390   28.0010   48.1920 C   0  0  0  0  0  0  0  0  0  0  0  0
   59.6950   28.7640   49.3530 C   0  0  0  0  0  0  0  0  0  0  0  0
   59.8120   30.1590   49.3000 C   0  0  0  0  0  0  0  0  0  0  0  0
   59.5890   31.1210   50.7560 S   0  0  0  0  0  0  0  0  0  0  0  0
   59.8280   32.7910   50.3790 N   0  0  0  0  0  0  0  0  0  0  0  0
   58.1980   30.9210   51.2920 O   0  0  0  0  0  0  0  0  0  0  0  0
   60.5760   30.6950   51.8060 O   0  0  0  0  0  0  0  0  0  0  0  0
   60.0720   30.7840   48.0730 C   0  0  0  0  0  0  0  0  0  0  0  0
   60.2190   30.0200   46.9110 C   0  0  0  0  0  0  0  0  0  0  0  0
   57.8290   27.8330   46.0920 C   0  0  0  0  0  0  0  0  0  0  0  0
   57.5070   29.2920   45.7560 C   0  0  0  0  0  0  0  0  0  0  0  0
   57.4100   32.7160   46.8190 C   0  0  0  0  0  0  0  0  0  0  0  0
   58.3850   33.4000   47.5540 C   0  0  0  0  0  0  0  0  0  0  0  0
   62.3510   34.2770   49.3810 C   0  0  0  0  0  0  0  0  0  0  0  0
   63.7370   33.6400   49.6410 C   0  0  0  0  0  0  0  0  0  0  0  0
   63.1683   31.4646   50.8982 H   0  0  0  0  0  0  0  0  0  0  0  0
   61.9748   31.4366   49.5560 H   0  0  0  0  0  0  0  0  0  0  0  0
   63.3536   30.2853   49.5560 H   0  0  0  0  0  0  0  0  0  0  0  0
   64.5295   32.3512   47.0788 H   0  0  0  0  0  0  0  0  0  0  0  0
   63.0768   31.2922   47.4008 H   0  0  0  0  0  0  0  0  0  0  0  0
   63.2165   34.2684   46.9104 H   0  0  0  0  0  0  0  0  0  0  0  0
   62.0863   33.0350   46.2504 H   0  0  0  0  0  0  0  0  0  0  0  0
   60.1129   35.0705   48.5862 H   0  0  0  0  0  0  0  0  0  0  0  0
   61.0566   35.3477   47.0726 H   0  0  0  0  0  0  0  0  0  0  0  0
   60.7173   33.8392   45.0919 H   0  0  0  0  0  0  0  0  0  0  0  0
   58.9815   32.6213   43.7825 H   0  0  0  0  0  0  0  0  0  0  0  0
   56.5907   27.6520   43.5088 H   0  0  0  0  0  0  0  0  0  0  0  0
   57.5679   28.6770   42.3886 H   0  0  0  0  0  0  0  0  0  0  0  0
   58.6738   26.5292   43.3129 H   0  0  0  0  0  0  0  0  0  0  0  0
   59.5905   28.1133   43.4391 H   0  0  0  0  0  0  0  0  0  0  0  0
   60.8915   26.9183   45.9498 H   0  0  0  0  0  0  0  0  0  0  0  0
   60.7241   28.3923   44.9331 H   0  0  0  0  0  0  0  0  0  0  0  0
   59.7551   26.9054   48.2441 H   0  0  0  0  0  0  0  0  0  0  0  0
   59.4889   28.2676   50.3127 H   0  0  0  0  0  0  0  0  0  0  0  0
   60.0630   32.8470   49.3610 H   0  0  0  0  0  0  0  0  0  0  0  0
   60.6670   33.1110   50.9100 H   0  0  0  0  0  0  0  0  0  0  0  0
   60.1608   31.8793   48.0237 H   0  0  0  0  0  0  0  0  0  0  0  0
   60.4368   30.5162   45.9537 H   0  0  0  0  0  0  0  0  0  0  0  0
   56.9320   27.2201   45.9195 H   0  0  0  0  0  0  0  0  0  0  0  0
   58.1411   27.7821   47.1456 H   0  0  0  0  0  0  0  0  0  0  0  0
   56.5947   29.5921   46.2923 H   0  0  0  0  0  0  0  0  0  0  0  0
   58.3571   29.9190   46.0629 H   0  0  0  0  0  0  0  0  0  0  0  0
   56.4754   32.4042   47.3082 H   0  0  0  0  0  0  0  0  0  0  0  0
   58.2208   33.6060   48.6220 H   0  0  0  0  0  0  0  0  0  0  0  0
   62.4865   35.3535   49.1997 H   0  0  0  0  0  0  0  0  0  0  0  0
   61.7270   34.0900   50.2674 H   0  0  0  0  0  0  0  0  0  0  0  0
   64.5093   34.2778   49.1864 H   0  0  0  0  0  0  0  0  0  0  0  0
   63.8690   33.5593   50.7301 H   0  0  0  0  0  0  0  0  0  0  0  0
  1  2  1  0
  2  3  1  0
  3  4  1  0
  4  5  1  0
  5  6  1  0
  6  7  1  0
  7  8  2  0
  8  9  1  0
  9 10  2  0
 10 11  1  0
 11 12  1  0
 12 13  2  0
 12 14  1  0
 14 15  1  0
 15 16  1  0
 16 17  1  0
 17 18  1  0
 18 19  1  0
 19 20  2  0
 20 21  1  0
 21 22  2  0
 22 23  1  0
 23 24  1  0
 23 25  2  0
 23 26  2  0
 22 27  1  0
 27 28  2  0
 17 29  1  0
 29 30  1  0
 10 31  1  0
 31 32  2  0
  5 33  1  0
 33 34  1  0
 34  2  1  0
 32  7  1  0
 30 14  1  0
 28 19  1  0
  1 35  1  0
  1 36  1  0
  1 37  1  0
  3 38  1  0
  3 39  1  0
  4 40  1  0
  4 41  1  0
  6 42  1  0
  6 43  1  0
  8 44  1  0
  9 45  1  0
 15 46  1  0
 15 47  1  0
 16 48  1  0
 16 49  1  0
 18 50  1  0
 18 51  1  0
 20 52  1  0
 21 53  1  0
 24 54  1  0
 24 55  1  0
 27 56  1  0
 28 57  1  0
 29 58  1  0
 29 59  1  0
 30 60  1  0
 30 61  1  0
 31 62  1  0
 32 63  1  0
 33 64  1  0
 33 65  1  0
 34 66  1  0
 34 67  1  0
M  CHG  1  11  -1
M  END
>  <UniqueID>  (65) 
62

>  <SMILES>  (65) 
CN1CCN(Cc2ccc([N-]C(=O)N3CCN(Cc4ccc(S(N)(=O)=O)cc4)CC3)cc2)CC1

>  <Energy>  (65) 
90.25838764424726

>  <Genealogy>  (65) 
CN1CCN(Cc2ccc([N-]C(=O)N3CCN(Cc4ccc(S(N)(=O)=O)cc4)CC3)cc2)CC1 (protonated)
CN1CCN(Cc2ccc([N-]C(=O)N3CCN(Cc4ccc(S(N)(=O)=O)cc4)CC3)cc2)CC1 (3D coordinates assigned)
CN1CCN(Cc2ccc([N-]C(=O)N3CCN(Cc4ccc(S(N)(=O)=O)cc4)CC3)cc2)CC1 (nonaromatic ring conformer: 90.25838764424726 kcal/mol)

>  <smiles>  (65) 
CN1CCN(Cc2ccc(NC(=O)N3CCN(Cc4ccc(S(N)(=O)=O)cc4)CC3)cc2)CC1

>  <score_type>  (65) 
oracle

>  <origin>  (65) 
adg

>  <m_score__min__energy>  (65) 
-10.49

>  <m_primary>  (65) 
energy

$$$$
65:0
     RDKit          3D

 52 55  0  0  0  0  0  0  0  0999 V2000
   60.5098   35.6706   45.7715 H   0  0  0  0  0  0  0  0  0  0  0  0
   59.6510   35.0140   45.9750 C   0  0  0  0  0  0  0  0  0  0  0  0
   59.5883   34.4703   46.9292 H   0  0  0  0  0  0  0  0  0  0  0  0
   58.6850   34.8770   45.0640 C   0  0  0  0  0  0  0  0  0  0  0  0
   58.7618   35.4272   44.1146 H   0  0  0  0  0  0  0  0  0  0  0  0
   57.4960   33.9910   45.3020 C   0  0  0  0  0  0  0  0  0  0  0  0
   56.9382   34.3607   46.1750 H   0  0  0  0  0  0  0  0  0  0  0  0
   56.8557   34.0075   44.4077 H   0  0  0  0  0  0  0  0  0  0  0  0
   57.9240   32.6140   45.5520 N   0  0  0  0  0  0  0  0  0  0  0  0
   58.1950   31.6450   44.6370 C   0  0  0  0  0  0  0  0  0  0  0  0
   58.0320   31.7970   43.3960 O   0  0  0  0  0  0  0  0  0  0  0  0
   58.7010   30.5120   45.1910 N   0  0  0  0  0  0  0  0  0  0  0  0
   59.3010   29.3690   44.5050 C   0  0  0  0  0  0  0  0  0  0  0  0
   58.8447   29.2583   43.5102 H   0  0  0  0  0  0  0  0  0  0  0  0
   60.3832   29.5345   44.3975 H   0  0  0  0  0  0  0  0  0  0  0  0
   59.0640   28.1170   45.3070 C   0  0  0  0  0  0  0  0  0  0  0  0
   60.1220   27.5060   45.9940 C   0  0  0  0  0  0  0  0  0  0  0  0
   61.1406   27.9115   45.9039 H   0  0  0  0  0  0  0  0  0  0  0  0
   59.8880   26.3850   46.7920 C   0  0  0  0  0  0  0  0  0  0  0  0
   60.7260   25.8975   47.3116 H   0  0  0  0  0  0  0  0  0  0  0  0
   58.5930   25.8800   46.9330 C   0  0  0  0  0  0  0  0  0  0  0  0
   58.4171   24.9942   47.5611 H   0  0  0  0  0  0  0  0  0  0  0  0
   57.5130   26.4970   46.2770 C   0  0  0  0  0  0  0  0  0  0  0  0
   56.1370   25.9760   46.4580 C   0  0  0  0  0  0  0  0  0  0  0  0
   55.1570   26.6380   46.0220 O   0  0  0  0  0  0  0  0  0  0  0  0
   55.8930   24.7210   47.1000 N   0  0  0  0  0  0  0  0  0  0  0  0
   56.6690   24.0630   47.3300 H   0  0  0  0  0  0  0  0  0  0  0  0
   54.9130   24.4030   47.2670 H   0  0  0  0  0  0  0  0  0  0  0  0
   57.7630   27.6080   45.4500 C   0  0  0  0  0  0  0  0  0  0  0  0
   56.9305   28.0827   44.9099 H   0  0  0  0  0  0  0  0  0  0  0  0
   58.7730   30.8090   46.5020 C   0  0  0  0  0  0  0  0  0  0  0  0
   59.3360   30.0620   47.4810 N   0  0  0  0  0  0  0  0  0  0  0  0
   59.4300   30.5980   48.7350 C   0  0  0  0  0  0  0  0  0  0  0  0
   59.9810   29.8980   49.6810 N   0  0  0  0  0  0  0  0  0  0  0  0
   61.3560   30.0620   50.1480 C   0  0  0  0  0  0  0  0  0  0  0  0
   61.3969   29.8748   51.2312 H   0  0  0  0  0  0  0  0  0  0  0  0
   62.0031   29.3466   49.6194 H   0  0  0  0  0  0  0  0  0  0  0  0
   61.8360   31.4620   49.8660 C   0  0  0  0  0  0  0  0  0  0  0  0
   61.7240   32.4690   50.8400 C   0  0  0  0  0  0  0  0  0  0  0  0
   61.3108   32.2300   51.8310 H   0  0  0  0  0  0  0  0  0  0  0  0
   62.1360   33.7730   50.5530 C   0  0  0  0  0  0  0  0  0  0  0  0
   62.0500   34.5571   51.3197 H   0  0  0  0  0  0  0  0  0  0  0  0
   62.6570   34.0830   49.2940 C   0  0  0  0  0  0  0  0  0  0  0  0
   62.9803   35.1106   49.0712 H   0  0  0  0  0  0  0  0  0  0  0  0
   62.7680   33.0890   48.3170 C   0  0  0  0  0  0  0  0  0  0  0  0
   63.4110   33.4810   46.7330 Cl  0  0  0  0  0  0  0  0  0  0  0  0
   62.3600   31.7800   48.6020 C   0  0  0  0  0  0  0  0  0  0  0  0
   62.4501   30.9982   47.8335 H   0  0  0  0  0  0  0  0  0  0  0  0
   58.9700   31.8720   48.9740 N   0  0  0  0  0  0  0  0  0  0  0  0
   58.4100   32.6310   47.9870 C   0  0  0  0  0  0  0  0  0  0  0  0
   58.0484   33.6505   48.1868 H   0  0  0  0  0  0  0  0  0  0  0  0
   58.3140   32.0680   46.7220 C   0  0  0  0  0  0  0  0  0  0  0  0
  1  2  1  0
  2  3  1  0
  2  4  2  0
  4  5  1  0
  4  6  1  0
  6  7  1  0
  6  8  1  0
  6  9  1  0
  9 10  1  0
 10 11  2  0
 10 12  1  0
 12 13  1  0
 13 14  1  0
 13 15  1  0
 13 16  1  0
 16 17  2  0
 17 18  1  0
 17 19  1  0
 19 20  1  0
 19 21  2  0
 21 22  1  0
 21 23  1  0
 23 24  1  0
 24 25  2  0
 24 26  1  0
 26 27  1  0
 26 28  1  0
 23 29  2  0
 29 30  1  0
 12 31  1  0
 31 32  1  0
 32 33  1  0
 33 34  2  0
 34 35  1  0
 35 36  1  0
 35 37  1  0
 35 38  1  0
 38 39  2  0
 39 40  1  0
 39 41  1  0
 41 42  1  0
 41 43  2  0
 43 44  1  0
 43 45  1  0
 45 46  1  0
 45 47  2  0
 47 48  1  0
 33 49  1  0
 49 50  2  0
 50 51  1  0
 50 52  1  0
 52  9  1  0
 29 16  1  0
 52 31  2  0
 47 38  1  0
M  CHG  1  32  -1
M  END
>  <UniqueID>  (66) 
63

>  <SMILES>  (66) 
C=CCn1c(=O)n(Cc2cccc(C(N)=O)c2)c2[n-]/c(=N/Cc3cccc(Cl)c3)ncc21

>  <Energy>  (66) 
93.95778046330221

>  <Genealogy>  (66) 
C=CCn1c(=O)n(Cc2cccc(C(N)=O)c2)c2[n-]c(=NCc3cccc(Cl)c3)ncc21 (protonated)
C=CCn1c(=O)n(Cc2cccc(C(N)=O)c2)c2[n-]/c(=N/Cc3cccc(Cl)c3)ncc21 (cis-trans isomerization)
C=CCn1c(=O)n(Cc2cccc(C(N)=O)c2)c2[n-]/c(=N/Cc3cccc(Cl)c3)ncc21 (3D coordinates assigned)
C=CCn1c(=O)n(Cc2cccc(C(N)=O)c2)c2[n-]/c(=N/Cc3cccc(Cl)c3)ncc21 (optimized conformer: 93.95778046330221 kcal/mol)

>  <smiles>  (66) 
C=CCn1c(=O)n(Cc2cccc(C(N)=O)c2)c2[nH]c(=NCc3cccc(Cl)c3)ncc21

>  <score_type>  (66) 
oracle

>  <origin>  (66) 
adg

>  <m_score__min__energy>  (66) 
-11.210000000000001

>  <m_primary>  (66) 
energy

$$$$
66:0
     RDKit          3D

 59 62  0  0  0  0  0  0  0  0999 V2000
   55.1430   27.4820   45.3780 H   0  0  0  0  0  0  0  0  0  0  0  0
   55.1450   26.6920   46.0120 O   0  0  0  0  0  0  0  0  0  0  0  0
   55.0420   25.3890   45.5330 C   0  0  0  0  0  0  0  0  0  0  0  0
   53.8600   24.7250   45.6470 N   0  0  0  0  0  0  0  0  0  0  0  0
   53.7130   23.4670   45.1600 C   0  0  0  0  0  0  0  0  0  0  0  0
   52.6120   22.8720   45.2810 O   0  0  0  0  0  0  0  0  0  0  0  0
   54.7500   22.8540   44.5360 N   0  0  0  0  0  0  0  0  0  0  0  0
   55.9520   23.4720   44.3980 C   0  0  0  0  0  0  0  0  0  0  0  0
   56.8910   22.8730   43.8090 O   0  0  0  0  0  0  0  0  0  0  0  0
   56.1400   24.7620   44.9210 C   0  0  0  0  0  0  0  0  0  0  0  0
   57.4390   25.4540   44.7590 C   0  0  0  0  0  0  0  0  0  0  0  0
   58.3094   25.0514   45.2978 H   0  0  0  0  0  0  0  0  0  0  0  0
   57.6140   26.5110   44.0170 N   0  0  0  0  0  0  0  0  0  0  0  0
   57.7330   27.8750   44.4540 C   0  0  0  0  0  0  0  0  0  0  0  0
   56.6880   28.5030   44.7690 O   0  0  0  0  0  0  0  0  0  0  0  0
   59.0620   28.5860   44.4880 C   0  0  0  0  0  0  0  0  0  0  0  0
   59.8379   27.9202   44.0822 H   0  0  0  0  0  0  0  0  0  0  0  0
   58.9884   29.5012   43.8821 H   0  0  0  0  0  0  0  0  0  0  0  0
   59.4270   28.9680   45.8980 C   0  0  0  0  0  0  0  0  0  0  0  0
   60.2110   28.1130   46.6860 C   0  0  0  0  0  0  0  0  0  0  0  0
   60.5819   27.1670   46.2647 H   0  0  0  0  0  0  0  0  0  0  0  0
   60.5230   28.4570   48.0030 C   0  0  0  0  0  0  0  0  0  0  0  0
   61.1533   27.7883   48.6077 H   0  0  0  0  0  0  0  0  0  0  0  0
   60.0370   29.6520   48.5610 C   0  0  0  0  0  0  0  0  0  0  0  0
   60.3420   30.0160   49.9170 N   0  0  0  0  0  0  0  0  0  0  0  0
   61.4540   30.8140   50.3460 C   0  0  0  0  0  0  0  0  0  0  0  0
   61.9540   30.5930   51.4800 O   0  0  0  0  0  0  0  0  0  0  0  0
   62.0600   31.8480   49.4730 C   0  0  0  0  0  0  0  0  0  0  0  0
   62.0690   33.2020   49.8580 C   0  0  0  0  0  0  0  0  0  0  0  0
   61.6233   33.5005   50.8183 H   0  0  0  0  0  0  0  0  0  0  0  0
   62.6410   34.1690   49.0270 C   0  0  0  0  0  0  0  0  0  0  0  0
   62.6519   35.2238   49.3390 H   0  0  0  0  0  0  0  0  0  0  0  0
   63.1990   33.7990   47.8010 C   0  0  0  0  0  0  0  0  0  0  0  0
   63.6520   34.5610   47.1498 H   0  0  0  0  0  0  0  0  0  0  0  0
   63.1810   32.4600   47.4030 C   0  0  0  0  0  0  0  0  0  0  0  0
   63.6174   32.1695   46.4360 H   0  0  0  0  0  0  0  0  0  0  0  0
   62.6100   31.4880   48.2300 C   0  0  0  0  0  0  0  0  0  0  0  0
   62.5909   30.4367   47.9068 H   0  0  0  0  0  0  0  0  0  0  0  0
   59.2700   30.5210   47.7650 C   0  0  0  0  0  0  0  0  0  0  0  0
   58.6340   32.0670   48.4310 S   0  0  0  0  0  0  0  0  0  0  0  0
   58.9350   33.0400   46.9070 C   0  0  0  0  0  0  0  0  0  0  0  0
   59.4692   32.4118   46.1790 H   0  0  0  0  0  0  0  0  0  0  0  0
   59.8290   34.2680   47.2030 C   0  0  0  0  0  0  0  0  0  0  0  0
   59.6134   34.6179   48.2233 H   0  0  0  0  0  0  0  0  0  0  0  0
   60.8736   33.9439   47.0854 H   0  0  0  0  0  0  0  0  0  0  0  0
   59.6050   35.4410   46.2270 C   0  0  0  0  0  0  0  0  0  0  0  0
   58.8498   36.1183   46.6523 H   0  0  0  0  0  0  0  0  0  0  0  0
   60.5665   35.9569   46.0875 H   0  0  0  0  0  0  0  0  0  0  0  0
   59.1220   34.9590   44.8570 C   0  0  0  0  0  0  0  0  0  0  0  0
   58.9942   35.8295   44.1967 H   0  0  0  0  0  0  0  0  0  0  0  0
   59.8734   34.2658   44.4510 H   0  0  0  0  0  0  0  0  0  0  0  0
   57.7780   34.2080   44.9620 C   0  0  0  0  0  0  0  0  0  0  0  0
   56.9617   34.9364   44.8476 H   0  0  0  0  0  0  0  0  0  0  0  0
   57.7693   33.4457   44.1690 H   0  0  0  0  0  0  0  0  0  0  0  0
   57.5910   33.4710   46.3040 C   0  0  0  0  0  0  0  0  0  0  0  0
   57.0818   34.1421   47.0113 H   0  0  0  0  0  0  0  0  0  0  0  0
   56.9928   32.5668   46.1182 H   0  0  0  0  0  0  0  0  0  0  0  0
   58.9540   30.1680   46.4480 C   0  0  0  0  0  0  0  0  0  0  0  0
   58.3291   30.8378   45.8390 H   0  0  0  0  0  0  0  0  0  0  0  0
  1  2  1  0
  2  3  1  0
  3  4  1  0
  4  5  1  0
  5  6  2  0
  5  7  1  0
  7  8  1  0
  8  9  2  0
  8 10  1  0
 10 11  1  0
 11 12  1  0
 11 13  2  0
 13 14  1  0
 14 15  2  0
 14 16  1  0
 16 17  1  0
 16 18  1  0
 16 19  1  0
 19 20  2  0
 20 21  1  0
 20 22  1  0
 22 23  1  0
 22 24  2  0
 24 25  1  0
 25 26  1  0
 26 27  2  0
 26 28  1  0
 28 29  2  0
 29 30  1  0
 29 31  1  0
 31 32  1  0
 31 33  2  0
 33 34  1  0
 33 35  1  0
 35 36  1  0
 35 37  2  0
 37 38  1  0
 24 39  1  0
 39 40  1  0
 40 41  1  0
 41 42  1  0
 41 43  1  0
 43 44  1  0
 43 45  1  0
 43 46  1  0
 46 47  1  0
 46 48  1  0
 46 49  1  0
 49 50  1  0
 49 51  1  0
 49 52  1  0
 52 53  1  0
 52 54  1  0
 52 55  1  0
 55 56  1  0
 55 57  1  0
 39 58  2  0
 58 59  1  0
 10  3  2  0
 58 19  1  0
 37 28  1  0
 55 41  1  0
M  CHG  3   4  -1   7  -1  25  -1
M  END
>  <UniqueID>  (67) 
64

>  <SMILES>  (67) 
O=C(Cc1ccc([N-]C(=O)c2ccccc2)c(SC2CCCCC2)c1)/N=C\c1c(O)[n-]c(=O)[n-]c1=O

>  <Energy>  (67) 
79.02137696333217

>  <Genealogy>  (67) 
O=C(Cc1ccc([N-]C(=O)c2ccccc2)c(SC2CCCCC2)c1)N=Cc1c(O)[n-]c(=O)[n-]c1=O (protonated)
O=C(Cc1ccc([N-]C(=O)c2ccccc2)c(SC2CCCCC2)c1)/N=C\c1c(O)[n-]c(=O)[n-]c1=O (cis-trans isomerization)
O=C(Cc1ccc([N-]C(=O)c2ccccc2)c(SC2CCCCC2)c1)/N=C\c1c(O)[n-]c(=O)[n-]c1=O (3D coordinates assigned)
O=C(Cc1ccc([N-]C(=O)c2ccccc2)c(SC2CCCCC2)c1)/N=C\c1c(O)[n-]c(=O)[n-]c1=O (nonaromatic ring conformer: 79.02137696333217 kcal/mol)

>  <smiles>  (67) 
O=C(Cc1ccc(NC(=O)c2ccccc2)c(SC2CCCCC2)c1)N=Cc1c(O)[nH]c(=O)[nH]c1=O

>  <score_type>  (67) 
oracle

>  <origin>  (67) 
adg

>  <m_score__min__energy>  (67) 
-16.27

>  <m_primary>  (67) 
energy

$$$$
67:0
     RDKit          3D

 72 75  0  0  0  0  0  0  0  0999 V2000
   63.6310   31.4210   50.5370 C   0  0  0  0  0  0  0  0  0  0  0  0
   63.9830   32.8640   50.8760 C   0  0  0  0  0  0  0  0  0  0  0  0
   63.3100   33.7650   49.9970 O   0  0  0  0  0  0  0  0  0  0  0  0
   63.1820   33.5480   48.6180 C   0  0  0  0  0  0  0  0  0  0  0  0
   64.1370   33.0350   47.9630 O   0  0  0  0  0  0  0  0  0  0  0  0
   61.9690   33.9540   47.9510 N   0  0  0  0  0  0  0  0  0  0  0  0
   60.8450   34.0300   48.9040 C   0  0  0  0  0  0  0  0  0  0  0  0
   59.5830   34.5410   48.2020 C   0  0  0  0  0  0  0  0  0  0  0  0
   59.3100   33.7650   46.9850 N   0  0  0  0  0  0  0  0  0  0  0  0
   57.9510   33.7240   46.5070 C   0  0  0  0  0  0  0  0  0  0  0  0
   57.0180   33.4740   47.3170 O   0  0  0  0  0  0  0  0  0  0  0  0
   57.6330   33.9530   45.0780 C   0  0  0  0  0  0  0  0  0  0  0  0
   57.7810   33.0370   44.1080 C   0  0  0  0  0  0  0  0  0  0  0  0
   57.6430   31.5730   44.2830 C   0  0  0  0  0  0  0  0  0  0  0  0
   56.5700   30.8610   43.7150 C   0  0  0  0  0  0  0  0  0  0  0  0
   56.4980   29.4710   43.8500 C   0  0  0  0  0  0  0  0  0  0  0  0
   57.5030   28.7770   44.5260 C   0  0  0  0  0  0  0  0  0  0  0  0
   58.5940   29.4730   45.0660 C   0  0  0  0  0  0  0  0  0  0  0  0
   59.9150   28.6130   45.8490 S   0  0  0  0  0  0  0  0  0  0  0  0
   61.2170   29.3330   45.6210 O   0  0  0  0  0  0  0  0  0  0  0  0
   60.0120   27.2450   45.2280 O   0  0  0  0  0  0  0  0  0  0  0  0
   59.5590   28.4690   47.5560 N   0  0  0  0  0  0  0  0  0  0  0  0
   58.5150   29.4100   48.0040 C   0  0  0  0  0  0  0  0  0  0  0  0
   59.0550   30.8230   48.3000 C   0  0  0  0  0  0  0  0  0  0  0  0
   60.2250   30.8070   49.2010 N   0  0  0  0  0  0  0  0  0  0  0  0
   59.8410   30.5000   50.5970 C   0  0  0  0  0  0  0  0  0  0  0  0
   59.3800   31.7330   51.3310 C   0  0  0  0  0  0  0  0  0  0  0  0
   58.0100   31.9390   51.5820 C   0  0  0  0  0  0  0  0  0  0  0  0
   57.5810   33.0940   52.2460 C   0  0  0  0  0  0  0  0  0  0  0  0
   58.5150   34.0420   52.6720 C   0  0  0  0  0  0  0  0  0  0  0  0
   59.8800   33.8390   52.4330 C   0  0  0  0  0  0  0  0  0  0  0  0
   60.3120   32.6900   51.7650 C   0  0  0  0  0  0  0  0  0  0  0  0
   61.2790   29.9220   48.6620 C   0  0  0  0  0  0  0  0  0  0  0  0
   60.7710   28.4950   48.3970 C   0  0  0  0  0  0  0  0  0  0  0  0
   58.6640   30.8660   44.9350 C   0  0  0  0  0  0  0  0  0  0  0  0
   60.4250   33.4690   46.0780 C   0  0  0  0  0  0  0  0  0  0  0  0
   61.6590   33.0070   46.8630 C   0  0  0  0  0  0  0  0  0  0  0  0
   63.4916   30.8495   51.4665 H   0  0  0  0  0  0  0  0  0  0  0  0
   62.7011   31.3987   49.9499 H   0  0  0  0  0  0  0  0  0  0  0  0
   64.4462   30.9730   49.9499 H   0  0  0  0  0  0  0  0  0  0  0  0
   63.6805   33.0761   51.9121 H   0  0  0  0  0  0  0  0  0  0  0  0
   65.0684   33.0007   50.7610 H   0  0  0  0  0  0  0  0  0  0  0  0
   62.1310   34.9080   47.5410 H   0  0  0  0  0  0  0  0  0  0  0  0
   60.6505   33.0286   49.3156 H   0  0  0  0  0  0  0  0  0  0  0  0
   61.1099   34.7265   49.7132 H   0  0  0  0  0  0  0  0  0  0  0  0
   58.7274   34.4492   48.8872 H   0  0  0  0  0  0  0  0  0  0  0  0
   59.7386   35.5930   47.9207 H   0  0  0  0  0  0  0  0  0  0  0  0
   57.2487   34.9432   44.7920 H   0  0  0  0  0  0  0  0  0  0  0  0
   58.0249   33.4041   43.1001 H   0  0  0  0  0  0  0  0  0  0  0  0
   55.7856   31.3996   43.1631 H   0  0  0  0  0  0  0  0  0  0  0  0
   55.6461   28.9224   43.4218 H   0  0  0  0  0  0  0  0  0  0  0  0
   57.4391   27.6843   44.6351 H   0  0  0  0  0  0  0  0  0  0  0  0
   57.7516   29.4859   47.2157 H   0  0  0  0  0  0  0  0  0  0  0  0
   58.1019   29.0153   48.9440 H   0  0  0  0  0  0  0  0  0  0  0  0
   59.3482   31.2941   47.3502 H   0  0  0  0  0  0  0  0  0  0  0  0
   58.2552   31.3866   48.8027 H   0  0  0  0  0  0  0  0  0  0  0  0
   59.0240   29.7635   50.5885 H   0  0  0  0  0  0  0  0  0  0  0  0
   60.7248   30.1013   51.1166 H   0  0  0  0  0  0  0  0  0  0  0  0
   57.2742   31.1895   51.2551 H   0  0  0  0  0  0  0  0  0  0  0  0
   56.5090   33.2554   52.4324 H   0  0  0  0  0  0  0  0  0  0  0  0
   58.1778   34.9487   53.1956 H   0  0  0  0  0  0  0  0  0  0  0  0
   60.6135   34.5855   52.7718 H   0  0  0  0  0  0  0  0  0  0  0  0
   61.3849   32.5347   51.5786 H   0  0  0  0  0  0  0  0  0  0  0  0
   61.6468   30.3468   47.7164 H   0  0  0  0  0  0  0  0  0  0  0  0
   62.0787   29.8578   49.4146 H   0  0  0  0  0  0  0  0  0  0  0  0
   61.5645   27.9278   47.8884 H   0  0  0  0  0  0  0  0  0  0  0  0
   60.5110   28.0492   49.3684 H   0  0  0  0  0  0  0  0  0  0  0  0
   59.5269   31.4099   45.3469 H   0  0  0  0  0  0  0  0  0  0  0  0
   60.1218   32.6731   45.3819 H   0  0  0  0  0  0  0  0  0  0  0  0
   60.6818   34.3846   45.5251 H   0  0  0  0  0  0  0  0  0  0  0  0
   61.4623   32.0141   47.2935 H   0  0  0  0  0  0  0  0  0  0  0  0
   62.5181   32.9621   46.1775 H   0  0  0  0  0  0  0  0  0  0  0  0
  1  2  1  0
  2  3  1  0
  3  4  1  0
  4  5  2  0
  4  6  1  0
  6  7  1  0
  7  8  1  0
  8  9  1  0
  9 10  1  0
 10 11  2  0
 10 12  1  0
 12 13  2  3
 13 14  1  0
 14 15  2  0
 15 16  1  0
 16 17  2  0
 17 18  1  0
 18 19  1  0
 19 20  2  0
 19 21  2  0
 19 22  1  0
 22 23  1  0
 23 24  1  0
 24 25  1  0
 25 26  1  0
 26 27  1  0
 27 28  2  0
 28 29  1  0
 29 30  2  0
 30 31  1  0
 31 32  2  0
 25 33  1  0
 33 34  1  0
 18 35  2  0
  9 36  1  0
 36 37  1  0
 37  6  1  0
 35 14  1  0
 34 22  1  0
 32 27  1  0
  1 38  1  0
  1 39  1  0
  1 40  1  0
  2 41  1  0
  2 42  1  0
  6 43  1  0
  7 44  1  0
  7 45  1  0
  8 46  1  0
  8 47  1  0
 12 48  1  0
 13 49  1  0
 15 50  1  0
 16 51  1  0
 17 52  1  0
 23 53  1  0
 23 54  1  0
 24 55  1  0
 24 56  1  0
 26 57  1  0
 26 58  1  0
 28 59  1  0
 29 60  1  0
 30 61  1  0
 31 62  1  0
 32 63  1  0
 33 64  1  0
 33 65  1  0
 34 66  1  0
 34 67  1  0
 35 68  1  0
 36 69  1  0
 36 70  1  0
 37 71  1  0
 37 72  1  0
M  CHG  1   6   1
M  END
>  <UniqueID>  (68) 
65

>  <SMILES>  (68) 
CCOC(=O)[NH+]1CCN(C(=O)C=Cc2cccc(S(=O)(=O)N3CCN(Cc4ccccc4)CC3)c2)CC1

>  <Energy>  (68) 
89.42399699673079

>  <Genealogy>  (68) 
CCOC(=O)[NH+]1CCN(C(=O)C=Cc2cccc(S(=O)(=O)N3CCN(Cc4ccccc4)CC3)c2)CC1 (protonated)
CCOC(=O)[NH+]1CCN(C(=O)C=Cc2cccc(S(=O)(=O)N3CCN(Cc4ccccc4)CC3)c2)CC1 (3D coordinates assigned)
CCOC(=O)[NH+]1CCN(C(=O)C=Cc2cccc(S(=O)(=O)N3CCN(Cc4ccccc4)CC3)c2)CC1 (nonaromatic ring conformer: 89.42399699673079 kcal/mol)

>  <smiles>  (68) 
CCOC(=O)N1CCN(C(=O)C=Cc2cccc(S(=O)(=O)N3CCN(Cc4ccccc4)CC3)c2)CC1

>  <score_type>  (68) 
oracle

>  <origin>  (68) 
adg

>  <m_score__min__energy>  (68) 
-8.5600000000000005

>  <m_primary>  (68) 
energy

$$$$
68:0
     RDKit          3D

 46 47  0  0  0  0  0  0  0  0999 V2000
   58.1240   26.7170   42.3560 C   0  0  0  0  0  0  0  0  0  0  0  0
   57.8520   26.5200   43.8430 C   0  0  0  0  0  0  0  0  0  0  0  0
   58.1620   27.7480   44.5940 N   0  0  0  0  0  0  0  0  0  0  0  0
   57.7480   29.0420   44.0270 C   0  0  0  0  0  0  0  0  0  0  0  0
   56.8410   29.7640   44.9770 C   0  0  0  0  0  0  0  0  0  0  0  0
   55.5930   29.6310   44.8630 O   0  0  0  0  0  0  0  0  0  0  0  0
   57.3980   30.6790   45.9310 N   0  0  0  0  0  0  0  0  0  0  0  0
   57.9260   31.9860   45.6670 C   0  0  0  0  0  0  0  0  0  0  0  0
   58.1400   32.4620   44.3590 C   0  0  0  0  0  0  0  0  0  0  0  0
   58.6430   33.7510   44.1540 C   0  0  0  0  0  0  0  0  0  0  0  0
   58.9190   34.5790   45.2460 C   0  0  0  0  0  0  0  0  0  0  0  0
   58.6830   34.1230   46.5460 C   0  0  0  0  0  0  0  0  0  0  0  0
   58.9390   34.9280   47.6060 F   0  0  0  0  0  0  0  0  0  0  0  0
   58.1810   32.8340   46.7540 C   0  0  0  0  0  0  0  0  0  0  0  0
   58.8420   27.7160   45.8730 C   0  0  0  0  0  0  0  0  0  0  0  0
   58.2530   27.2430   46.8830 O   0  0  0  0  0  0  0  0  0  0  0  0
   60.2450   28.2260   46.0460 C   0  0  0  0  0  0  0  0  0  0  0  0
   60.2300   29.6850   46.1410 N   0  0  0  0  0  0  0  0  0  0  0  0
   60.4200   30.1780   47.7960 S   0  0  0  0  0  0  0  0  0  0  0  0
   61.0510   29.0710   48.5970 O   0  0  0  0  0  0  0  0  0  0  0  0
   59.0700   30.4840   48.3820 O   0  0  0  0  0  0  0  0  0  0  0  0
   61.4190   31.6260   47.8570 C   0  0  0  0  0  0  0  0  0  0  0  0
   61.0340   32.7300   48.6320 C   0  0  0  0  0  0  0  0  0  0  0  0
   61.8570   33.8580   48.7050 C   0  0  0  0  0  0  0  0  0  0  0  0
   63.0660   33.8900   48.0050 C   0  0  0  0  0  0  0  0  0  0  0  0
   63.4580   32.7890   47.2370 C   0  0  0  0  0  0  0  0  0  0  0  0
   62.6380   31.6590   47.1620 C   0  0  0  0  0  0  0  0  0  0  0  0
   59.0087   27.3578   42.2268 H   0  0  0  0  0  0  0  0  0  0  0  0
   58.3066   25.7403   41.8841 H   0  0  0  0  0  0  0  0  0  0  0  0
   57.2529   27.1951   41.8841 H   0  0  0  0  0  0  0  0  0  0  0  0
   56.7911   26.2670   43.9860 H   0  0  0  0  0  0  0  0  0  0  0  0
   58.4911   25.7058   44.2155 H   0  0  0  0  0  0  0  0  0  0  0  0
   58.6403   29.6575   43.8397 H   0  0  0  0  0  0  0  0  0  0  0  0
   57.2077   28.8621   43.0859 H   0  0  0  0  0  0  0  0  0  0  0  0
   57.9111   31.8187   43.4966 H   0  0  0  0  0  0  0  0  0  0  0  0
   58.8218   34.1140   43.1311 H   0  0  0  0  0  0  0  0  0  0  0  0
   59.3219   35.5894   45.0822 H   0  0  0  0  0  0  0  0  0  0  0  0
   57.9849   32.4831   47.7779 H   0  0  0  0  0  0  0  0  0  0  0  0
   60.6768   27.8040   46.9655 H   0  0  0  0  0  0  0  0  0  0  0  0
   60.8524   27.9232   45.1803 H   0  0  0  0  0  0  0  0  0  0  0  0
   59.2950   30.0260   45.8200 H   0  0  0  0  0  0  0  0  0  0  0  0
   60.0825   32.7083   49.1835 H   0  0  0  0  0  0  0  0  0  0  0  0
   61.5523   34.7216   49.3144 H   0  0  0  0  0  0  0  0  0  0  0  0
   63.7091   34.7808   48.0580 H   0  0  0  0  0  0  0  0  0  0  0  0
   64.4127   32.8120   46.6912 H   0  0  0  0  0  0  0  0  0  0  0  0
   62.9488   30.7943   46.5572 H   0  0  0  0  0  0  0  0  0  0  0  0
  1  2  1  0
  2  3  1  0
  3  4  1  0
  4  5  1  0
  5  6  2  0
  5  7  1  0
  7  8  1  0
  8  9  2  0
  9 10  1  0
 10 11  2  0
 11 12  1  0
 12 13  1  0
 12 14  2  0
  3 15  1  0
 15 16  2  0
 15 17  1  0
 17 18  1  0
 18 19  1  0
 19 20  2  0
 19 21  2  0
 19 22  1  0
 22 23  2  0
 23 24  1  0
 24 25  2  0
 25 26  1  0
 26 27  2  0
 14  8  1  0
 27 22  1  0
  1 28  1  0
  1 29  1  0
  1 30  1  0
  2 31  1  0
  2 32  1  0
  4 33  1  0
  4 34  1  0
  9 35  1  0
 10 36  1  0
 11 37  1  0
 14 38  1  0
 17 39  1  0
 17 40  1  0
 18 41  1  0
 23 42  1  0
 24 43  1  0
 25 44  1  0
 26 45  1  0
 27 46  1  0
M  CHG  1   7  -1
M  END
>  <UniqueID>  (69) 
66

>  <SMILES>  (69) 
CCN(CC(=O)[N-]c1cccc(F)c1)C(=O)CNS(=O)(=O)c1ccccc1

>  <Energy>  (69) 
41.185700540918084

>  <Genealogy>  (69) 
CCN(CC(=O)[N-]c1cccc(F)c1)C(=O)CNS(=O)(=O)c1ccccc1 (protonated)
CCN(CC(=O)[N-]c1cccc(F)c1)C(=O)CNS(=O)(=O)c1ccccc1 (3D coordinates assigned)
CCN(CC(=O)[N-]c1cccc(F)c1)C(=O)CNS(=O)(=O)c1ccccc1 (optimized conformer: 41.185700540918084 kcal/mol)

>  <smiles>  (69) 
CCN(CC(=O)Nc1cccc(F)c1)C(=O)CNS(=O)(=O)c1ccccc1

>  <score_type>  (69) 
oracle

>  <origin>  (69) 
adg

>  <m_score__min__energy>  (69) 
-10.94

>  <m_primary>  (69) 
energy

$$$$
69:0
     RDKit          3D

 62 65  0  0  0  0  0  0  0  0999 V2000
   56.4740   31.0510   44.8030 O   0  0  0  0  0  0  0  0  0  0  0  0
   57.3750   31.8440   45.1930 C   0  0  0  0  0  0  0  0  0  0  0  0
   57.0360   33.2010   45.6550 C   0  0  0  0  0  0  0  0  0  0  0  0
   57.9530   34.1750   45.7510 C   0  0  0  0  0  0  0  0  0  0  0  0
   59.2450   34.0220   46.4620 C   0  0  0  0  0  0  0  0  0  0  0  0
   60.4750   33.9660   45.7920 C   0  0  0  0  0  0  0  0  0  0  0  0
   61.6570   33.8330   46.5220 C   0  0  0  0  0  0  0  0  0  0  0  0
   61.6430   33.7620   47.8920 N   0  0  0  0  0  0  0  0  0  0  0  0
   62.9200   33.6070   48.6320 C   0  0  0  0  0  0  0  0  0  0  0  0
   63.1380   32.1700   49.1360 C   0  0  0  0  0  0  0  0  0  0  0  0
   63.3460   32.2630   50.6430 C   0  0  0  0  0  0  0  0  0  0  0  0
   63.6940   33.7140   50.9340 C   0  0  0  0  0  0  0  0  0  0  0  0
   62.9900   34.5240   49.8610 C   0  0  0  0  0  0  0  0  0  0  0  0
   60.4420   33.8220   48.5620 C   0  0  0  0  0  0  0  0  0  0  0  0
   60.3970   33.7560   49.8200 O   0  0  0  0  0  0  0  0  0  0  0  0
   59.2420   33.9610   47.8590 C   0  0  0  0  0  0  0  0  0  0  0  0
   58.7450   31.4350   45.1860 N   0  0  0  0  0  0  0  0  0  0  0  0
   59.1760   30.0490   45.3340 C   0  0  0  0  0  0  0  0  0  0  0  0
   59.4410   29.7350   46.7810 C   0  0  0  0  0  0  0  0  0  0  0  0
   60.2700   28.6560   47.1250 C   0  0  0  0  0  0  0  0  0  0  0  0
   60.5350   28.3710   48.4680 C   0  0  0  0  0  0  0  0  0  0  0  0
   59.9810   29.1650   49.4760 C   0  0  0  0  0  0  0  0  0  0  0  0
   59.1520   30.2470   49.1470 C   0  0  0  0  0  0  0  0  0  0  0  0
   58.4400   31.2430   50.4190 S   0  0  0  0  0  0  0  0  0  0  0  0
   57.6260   32.3370   49.7880 O   0  0  0  0  0  0  0  0  0  0  0  0
   57.5140   30.3960   51.2460 O   0  0  0  0  0  0  0  0  0  0  0  0
   59.6590   31.9450   51.4550 N   0  0  0  0  0  0  0  0  0  0  0  0
   59.0580   32.9320   52.3690 C   0  0  0  0  0  0  0  0  0  0  0  0
   60.1170   33.4990   53.3420 C   0  0  0  0  0  0  0  0  0  0  0  0
   61.3890   32.9060   53.1550 O   0  0  0  0  0  0  0  0  0  0  0  0
   61.2850   31.5020   53.2910 C   0  0  0  0  0  0  0  0  0  0  0  0
   60.3660   30.8940   52.2100 C   0  0  0  0  0  0  0  0  0  0  0  0
   58.8880   30.5320   47.7990 C   0  0  0  0  0  0  0  0  0  0  0  0
   55.9946   33.4232   45.9308 H   0  0  0  0  0  0  0  0  0  0  0  0
   57.7341   35.1423   45.2752 H   0  0  0  0  0  0  0  0  0  0  0  0
   60.5085   34.0267   44.6942 H   0  0  0  0  0  0  0  0  0  0  0  0
   62.6179   33.7842   45.9889 H   0  0  0  0  0  0  0  0  0  0  0  0
   63.6990   33.8758   47.9034 H   0  0  0  0  0  0  0  0  0  0  0  0
   62.2563   31.5516   48.9122 H   0  0  0  0  0  0  0  0  0  0  0  0
   64.0050   31.7048   48.6442 H   0  0  0  0  0  0  0  0  0  0  0  0
   62.4255   31.9778   51.1734 H   0  0  0  0  0  0  0  0  0  0  0  0
   64.1430   31.5841   50.9804 H   0  0  0  0  0  0  0  0  0  0  0  0
   63.3333   34.0029   51.9322 H   0  0  0  0  0  0  0  0  0  0  0  0
   64.7810   33.8823   50.9244 H   0  0  0  0  0  0  0  0  0  0  0  0
   61.9781   34.8016   50.1912 H   0  0  0  0  0  0  0  0  0  0  0  0
   63.5243   35.4600   49.6409 H   0  0  0  0  0  0  0  0  0  0  0  0
   58.2905   34.0227   48.4074 H   0  0  0  0  0  0  0  0  0  0  0  0
   58.3871   29.3817   44.9567 H   0  0  0  0  0  0  0  0  0  0  0  0
   60.1028   29.8999   44.7605 H   0  0  0  0  0  0  0  0  0  0  0  0
   60.7131   28.0320   46.3349 H   0  0  0  0  0  0  0  0  0  0  0  0
   61.1807   27.5204   48.7317 H   0  0  0  0  0  0  0  0  0  0  0  0
   60.1961   28.9403   50.5311 H   0  0  0  0  0  0  0  0  0  0  0  0
   60.3460   32.4340   50.8330 H   0  0  0  0  0  0  0  0  0  0  0  0
   58.6326   33.7571   51.7789 H   0  0  0  0  0  0  0  0  0  0  0  0
   58.2719   32.4345   52.9560 H   0  0  0  0  0  0  0  0  0  0  0  0
   60.2043   34.5831   53.1776 H   0  0  0  0  0  0  0  0  0  0  0  0
   59.7876   33.2740   54.3671 H   0  0  0  0  0  0  0  0  0  0  0  0
   62.2875   31.0589   53.1980 H   0  0  0  0  0  0  0  0  0  0  0  0
   60.8491   31.2827   54.2769 H   0  0  0  0  0  0  0  0  0  0  0  0
   60.9763   30.3010   51.5129 H   0  0  0  0  0  0  0  0  0  0  0  0
   59.6170   30.2602   52.7073 H   0  0  0  0  0  0  0  0  0  0  0  0
   58.2442   31.3845   47.5367 H   0  0  0  0  0  0  0  0  0  0  0  0
  1  2  2  0
  2  3  1  0
  3  4  2  3
  4  5  1  0
  5  6  1  0
  6  7  2  0
  7  8  1  0
  8  9  1  0
  9 10  1  0
 10 11  1  0
 11 12  1  0
 12 13  1  0
  8 14  1  0
 14 15  2  0
 14 16  1  0
  2 17  1  0
 17 18  1  0
 18 19  1  0
 19 20  2  0
 20 21  1  0
 21 22  2  0
 22 23  1  0
 23 24  1  0
 24 25  2  0
 24 26  2  0
 24 27  1  0
 27 28  1  0
 28 29  1  0
 29 30  1  0
 30 31  1  0
 31 32  1  0
 23 33  2  0
 16  5  2  0
 33 19  1  0
 13  9  1  0
 32 27  1  0
  3 34  1  0
  4 35  1  0
  6 36  1  0
  7 37  1  0
  9 38  1  0
 10 39  1  0
 10 40  1  0
 11 41  1  0
 11 42  1  0
 12 43  1  0
 12 44  1  0
 13 45  1  0
 13 46  1  0
 16 47  1  0
 18 48  1  0
 18 49  1  0
 20 50  1  0
 21 51  1  0
 22 52  1  0
 27 53  1  0
 28 54  1  0
 28 55  1  0
 29 56  1  0
 29 57  1  0
 31 58  1  0
 31 59  1  0
 32 60  1  0
 32 61  1  0
 33 62  1  0
M  CHG  2  17  -1  27   1
M  END
>  <UniqueID>  (70) 
67

>  <SMILES>  (70) 
O=C(C=Cc1ccn(C2CCCC2)c(=O)c1)[N-]Cc1cccc(S(=O)(=O)[NH+]2CCOCC2)c1

>  <Energy>  (70) 
75.52500836018257

>  <Genealogy>  (70) 
O=C(C=Cc1ccn(C2CCCC2)c(=O)c1)[N-]Cc1cccc(S(=O)(=O)[NH+]2CCOCC2)c1 (protonated)
O=C(C=Cc1ccn(C2CCCC2)c(=O)c1)[N-]Cc1cccc(S(=O)(=O)[NH+]2CCOCC2)c1 (3D coordinates assigned)
O=C(C=Cc1ccn(C2CCCC2)c(=O)c1)[N-]Cc1cccc(S(=O)(=O)[NH+]2CCOCC2)c1 (nonaromatic ring conformer: 75.52500836018257 kcal/mol)

>  <smiles>  (70) 
O=C(C=Cc1ccn(C2CCCC2)c(=O)c1)NCc1cccc(S(=O)(=O)N2CCOCC2)c1

>  <score_type>  (70) 
oracle

>  <origin>  (70) 
adg

>  <m_score__min__energy>  (70) 
-10.609999999999999

>  <m_primary>  (70) 
energy

$$$$
70:0
     RDKit          3D

 60 63  0  0  0  0  0  0  0  0999 V2000
   56.7890   30.7470   43.0940 O   0  0  0  0  0  0  0  0  0  0  0  0
   56.8750   30.7960   44.3510 C   0  0  0  0  0  0  0  0  0  0  0  0
   56.3140   29.7210   45.1190 N   0  0  0  0  0  0  0  0  0  0  0  0
   57.0160   28.5810   45.6370 C   0  0  0  0  0  0  0  0  0  0  0  0
   56.3790   27.3360   45.6280 C   0  0  0  0  0  0  0  0  0  0  0  0
   57.0440   26.1970   46.0920 C   0  0  0  0  0  0  0  0  0  0  0  0
   58.3560   26.2940   46.5610 C   0  0  0  0  0  0  0  0  0  0  0  0
   59.0130   27.5340   46.5690 C   0  0  0  0  0  0  0  0  0  0  0  0
   60.4400   27.6430   47.0480 C   0  0  0  0  0  0  0  0  0  0  0  0
   60.5400   27.9110   48.5320 C   0  0  0  0  0  0  0  0  0  0  0  0
   60.6530   26.9780   49.3210 O   0  0  0  0  0  0  0  0  0  0  0  0
   60.5200   29.2760   49.0190 N   0  0  0  0  0  0  0  0  0  0  0  0
   59.1360   29.8120   49.0300 C   0  0  0  0  0  0  0  0  0  0  0  0
   58.9210   30.9610   50.0430 C   0  0  0  0  0  0  0  0  0  0  0  0
   60.1810   31.6230   50.4090 N   0  0  0  0  0  0  0  0  0  0  0  0
   60.1830   33.0380   50.6910 C   0  0  0  0  0  0  0  0  0  0  0  0
   59.1020   33.6220   50.9730 O   0  0  0  0  0  0  0  0  0  0  0  0
   61.4420   33.8570   50.6020 C   0  0  0  0  0  0  0  0  0  0  0  0
   62.1220   33.6410   49.2750 C   0  0  0  0  0  0  0  0  0  0  0  0
   61.4050   33.7720   48.0740 C   0  0  0  0  0  0  0  0  0  0  0  0
   62.0460   33.5800   46.8460 C   0  0  0  0  0  0  0  0  0  0  0  0
   63.4020   33.2440   46.8080 C   0  0  0  0  0  0  0  0  0  0  0  0
   64.1210   33.0980   47.9980 C   0  0  0  0  0  0  0  0  0  0  0  0
   63.4840   33.2930   49.2280 C   0  0  0  0  0  0  0  0  0  0  0  0
   61.3600   30.8090   50.7430 C   0  0  0  0  0  0  0  0  0  0  0  0
   61.1500   29.3440   50.3500 C   0  0  0  0  0  0  0  0  0  0  0  0
   58.3470   28.6710   46.0850 C   0  0  0  0  0  0  0  0  0  0  0  0
   57.5070   31.9750   44.9890 C   0  0  0  0  0  0  0  0  0  0  0  0
   57.7940   31.9590   46.3650 C   0  0  0  0  0  0  0  0  0  0  0  0
   58.3700   33.0740   46.9790 C   0  0  0  0  0  0  0  0  0  0  0  0
   58.6690   34.2140   46.2270 C   0  0  0  0  0  0  0  0  0  0  0  0
   59.2210   35.2970   46.8270 F   0  0  0  0  0  0  0  0  0  0  0  0
   58.4090   34.2320   44.8530 C   0  0  0  0  0  0  0  0  0  0  0  0
   57.8340   33.1160   44.2360 C   0  0  0  0  0  0  0  0  0  0  0  0
   55.3481   27.2523   45.2534 H   0  0  0  0  0  0  0  0  0  0  0  0
   56.5330   25.2229   46.0877 H   0  0  0  0  0  0  0  0  0  0  0  0
   58.8759   25.3957   46.9252 H   0  0  0  0  0  0  0  0  0  0  0  0
   60.9586   26.6988   46.8255 H   0  0  0  0  0  0  0  0  0  0  0  0
   60.9009   28.4943   46.5256 H   0  0  0  0  0  0  0  0  0  0  0  0
   61.0870   29.8660   48.3640 H   0  0  0  0  0  0  0  0  0  0  0  0
   58.9016   30.1884   48.0233 H   0  0  0  0  0  0  0  0  0  0  0  0
   58.4749   28.9874   49.3349 H   0  0  0  0  0  0  0  0  0  0  0  0
   58.2467   31.7060   49.5955 H   0  0  0  0  0  0  0  0  0  0  0  0
   58.4896   30.5279   50.9575 H   0  0  0  0  0  0  0  0  0  0  0  0
   61.1889   34.9221   50.7094 H   0  0  0  0  0  0  0  0  0  0  0  0
   62.1254   33.5455   51.4057 H   0  0  0  0  0  0  0  0  0  0  0  0
   60.3352   34.0266   48.0996 H   0  0  0  0  0  0  0  0  0  0  0  0
   61.4820   33.6936   45.9085 H   0  0  0  0  0  0  0  0  0  0  0  0
   63.9041   33.0943   45.8408 H   0  0  0  0  0  0  0  0  0  0  0  0
   65.1874   32.8299   47.9671 H   0  0  0  0  0  0  0  0  0  0  0  0
   64.0510   33.1736   50.1630 H   0  0  0  0  0  0  0  0  0  0  0  0
   62.2333   31.2038   50.2032 H   0  0  0  0  0  0  0  0  0  0  0  0
   61.5213   30.8587   51.8300 H   0  0  0  0  0  0  0  0  0  0  0  0
   62.1217   28.8293   50.3221 H   0  0  0  0  0  0  0  0  0  0  0  0
   60.4971   28.8568   51.0892 H   0  0  0  0  0  0  0  0  0  0  0  0
   58.8690   29.6388   46.0557 H   0  0  0  0  0  0  0  0  0  0  0  0
   57.5639   31.0639   46.9615 H   0  0  0  0  0  0  0  0  0  0  0  0
   58.5888   33.0548   48.0569 H   0  0  0  0  0  0  0  0  0  0  0  0
   58.6565   35.1233   44.2578 H   0  0  0  0  0  0  0  0  0  0  0  0
   57.6364   33.1314   43.1540 H   0  0  0  0  0  0  0  0  0  0  0  0
  1  2  2  0
  2  3  1  0
  3  4  1  0
  4  5  2  0
  5  6  1  0
  6  7  2  0
  7  8  1  0
  8  9  1  0
  9 10  1  0
 10 11  2  0
 10 12  1  0
 12 13  1  0
 13 14  1  0
 14 15  1  0
 15 16  1  0
 16 17  2  0
 16 18  1  0
 18 19  1  0
 19 20  2  0
 20 21  1  0
 21 22  2  0
 22 23  1  0
 23 24  2  0
 15 25  1  0
 25 26  1  0
  8 27  2  0
  2 28  1  0
 28 29  2  0
 29 30  1  0
 30 31  2  0
 31 32  1  0
 31 33  1  0
 33 34  2  0
 27  4  1  0
 34 28  1  0
 26 12  1  0
 24 19  1  0
  5 35  1  0
  6 36  1  0
  7 37  1  0
  9 38  1  0
  9 39  1  0
 12 40  1  0
 13 41  1  0
 13 42  1  0
 14 43  1  0
 14 44  1  0
 18 45  1  0
 18 46  1  0
 20 47  1  0
 21 48  1  0
 22 49  1  0
 23 50  1  0
 24 51  1  0
 25 52  1  0
 25 53  1  0
 26 54  1  0
 26 55  1  0
 27 56  1  0
 29 57  1  0
 30 58  1  0
 33 59  1  0
 34 60  1  0
M  CHG  2   3  -1  12   1
M  END
>  <UniqueID>  (71) 
68

>  <SMILES>  (71) 
O=C([N-]c1cccc(CC(=O)[NH+]2CCN(C(=O)Cc3ccccc3)CC2)c1)c1ccc(F)cc1

>  <Energy>  (71) 
75.92964173594116

>  <Genealogy>  (71) 
O=C([N-]c1cccc(CC(=O)[NH+]2CCN(C(=O)Cc3ccccc3)CC2)c1)c1ccc(F)cc1 (protonated)
O=C([N-]c1cccc(CC(=O)[NH+]2CCN(C(=O)Cc3ccccc3)CC2)c1)c1ccc(F)cc1 (3D coordinates assigned)
O=C([N-]c1cccc(CC(=O)[NH+]2CCN(C(=O)Cc3ccccc3)CC2)c1)c1ccc(F)cc1 (nonaromatic ring conformer: 75.92964173594116 kcal/mol)

>  <smiles>  (71) 
O=C(Nc1cccc(CC(=O)N2CCN(C(=O)Cc3ccccc3)CC2)c1)c1ccc(F)cc1

>  <score_type>  (71) 
oracle

>  <origin>  (71) 
adg

>  <m_score__min__energy>  (71) 
-10.5

>  <m_primary>  (71) 
energy

$$$$
71:0
     RDKit          3D

 49 51  0  0  0  0  0  0  0  0999 V2000
   54.4580   23.6570   45.1370 C   0  0  0  0  0  0  0  0  0  0  0  0
   55.7410   24.2630   45.4670 N   0  0  0  0  0  0  0  0  0  0  0  0
   55.8540   25.6520   45.8090 C   0  0  0  0  0  0  0  0  0  0  0  0
   54.8150   26.3400   45.9930 O   0  0  0  0  0  0  0  0  0  0  0  0
   57.1340   26.2610   46.0110 N   0  0  0  0  0  0  0  0  0  0  0  0
   57.4070   27.6680   46.0100 C   0  0  0  0  0  0  0  0  0  0  0  0
   58.1740   28.2720   47.0200 C   0  0  0  0  0  0  0  0  0  0  0  0
   58.4480   29.6410   46.9740 C   0  0  0  0  0  0  0  0  0  0  0  0
   57.9770   30.4290   45.9080 C   0  0  0  0  0  0  0  0  0  0  0  0
   58.2710   31.8840   45.8550 C   0  0  0  0  0  0  0  0  0  0  0  0
   57.6280   32.7070   44.9160 C   0  0  0  0  0  0  0  0  0  0  0  0
   57.8980   34.0750   44.8740 C   0  0  0  0  0  0  0  0  0  0  0  0
   58.8140   34.6370   45.7670 C   0  0  0  0  0  0  0  0  0  0  0  0
   59.4760   33.8400   46.7070 C   0  0  0  0  0  0  0  0  0  0  0  0
   60.3860   34.4790   47.5720 O   0  0  0  0  0  0  0  0  0  0  0  0
   61.6690   34.0180   48.0160 C   0  0  0  0  0  0  0  0  0  0  0  0
   62.5590   33.5730   46.8450 C   0  0  0  0  0  0  0  0  0  0  0  0
   63.9560   33.1550   47.3470 C   0  0  0  0  0  0  0  0  0  0  0  0
   63.9430   32.3650   48.6080 N   0  0  0  0  0  0  0  0  0  0  0  0
   64.5880   33.0850   49.7190 C   0  0  0  0  0  0  0  0  0  0  0  0
   62.6120   31.8450   48.9900 C   0  0  0  0  0  0  0  0  0  0  0  0
   61.5660   32.9640   49.1410 C   0  0  0  0  0  0  0  0  0  0  0  0
   59.1960   32.4590   46.7470 C   0  0  0  0  0  0  0  0  0  0  0  0
   57.2320   29.8130   44.8870 C   0  0  0  0  0  0  0  0  0  0  0  0
   56.9600   28.4430   44.9350 C   0  0  0  0  0  0  0  0  0  0  0  0
   53.9227   23.4041   46.0641 H   0  0  0  0  0  0  0  0  0  0  0  0
   53.8577   24.3668   44.5489 H   0  0  0  0  0  0  0  0  0  0  0  0
   54.6249   22.7425   44.5489 H   0  0  0  0  0  0  0  0  0  0  0  0
   56.5890   23.6540   45.4880 H   0  0  0  0  0  0  0  0  0  0  0  0
   58.5607   27.6640   47.8511 H   0  0  0  0  0  0  0  0  0  0  0  0
   59.0369   30.1067   47.7779 H   0  0  0  0  0  0  0  0  0  0  0  0
   56.9070   32.2702   44.2093 H   0  0  0  0  0  0  0  0  0  0  0  0
   57.3887   34.7126   44.1363 H   0  0  0  0  0  0  0  0  0  0  0  0
   59.0167   35.7175   45.7305 H   0  0  0  0  0  0  0  0  0  0  0  0
   62.1764   34.8809   48.4720 H   0  0  0  0  0  0  0  0  0  0  0  0
   62.0873   32.7183   46.3381 H   0  0  0  0  0  0  0  0  0  0  0  0
   62.6726   34.4165   46.1481 H   0  0  0  0  0  0  0  0  0  0  0  0
   64.4355   32.5478   46.5651 H   0  0  0  0  0  0  0  0  0  0  0  0
   64.5038   34.0841   47.5632 H   0  0  0  0  0  0  0  0  0  0  0  0
   64.2265   32.6815   50.6764 H   0  0  0  0  0  0  0  0  0  0  0  0
   65.6786   32.9564   49.6553 H   0  0  0  0  0  0  0  0  0  0  0  0
   64.3406   34.1549   49.6553 H   0  0  0  0  0  0  0  0  0  0  0  0
   62.2703   31.1445   48.2138 H   0  0  0  0  0  0  0  0  0  0  0  0
   62.7138   31.3472   49.9656 H   0  0  0  0  0  0  0  0  0  0  0  0
   60.5619   32.5156   49.1149 H   0  0  0  0  0  0  0  0  0  0  0  0
   61.7535   33.4733   50.0978 H   0  0  0  0  0  0  0  0  0  0  0  0
   59.7068   31.8225   47.4846 H   0  0  0  0  0  0  0  0  0  0  0  0
   56.8604   30.4140   44.0440 H   0  0  0  0  0  0  0  0  0  0  0  0
   56.3901   27.9707   44.1212 H   0  0  0  0  0  0  0  0  0  0  0  0
  1  2  1  0
  2  3  1  0
  3  4  2  0
  3  5  1  0
  5  6  1  0
  6  7  2  0
  7  8  1  0
  8  9  2  0
  9 10  1  0
 10 11  2  0
 11 12  1  0
 12 13  2  0
 13 14  1  0
 14 15  1  0
 15 16  1  0
 16 17  1  0
 17 18  1  0
 18 19  1  0
 19 20  1  0
 19 21  1  0
 21 22  1  0
 14 23  2  0
  9 24  1  0
 24 25  2  0
 25  6  1  0
 23 10  1  0
 22 16  1  0
  1 26  1  0
  1 27  1  0
  1 28  1  0
  2 29  1  0
  7 30  1  0
  8 31  1  0
 11 32  1  0
 12 33  1  0
 13 34  1  0
 16 35  1  0
 17 36  1  0
 17 37  1  0
 18 38  1  0
 18 39  1  0
 20 40  1  0
 20 41  1  0
 20 42  1  0
 21 43  1  0
 21 44  1  0
 22 45  1  0
 22 46  1  0
 23 47  1  0
 24 48  1  0
 25 49  1  0
M  CHG  1   5  -1
M  END
>  <UniqueID>  (72) 
69

>  <SMILES>  (72) 
CNC(=O)[N-]c1ccc(-c2cccc(OC3CCN(C)CC3)c2)cc1

>  <Energy>  (72) 
68.37319035563446

>  <Genealogy>  (72) 
CNC(=O)[N-]c1ccc(-c2cccc(OC3CCN(C)CC3)c2)cc1 (protonated)
CNC(=O)[N-]c1ccc(-c2cccc(OC3CCN(C)CC3)c2)cc1 (3D coordinates assigned)
CNC(=O)[N-]c1ccc(-c2cccc(OC3CCN(C)CC3)c2)cc1 (nonaromatic ring conformer: 68.37319035563446 kcal/mol)

>  <smiles>  (72) 
CNC(=O)Nc1ccc(-c2cccc(OC3CCN(C)CC3)c2)cc1

>  <score_type>  (72) 
oracle

>  <origin>  (72) 
adg

>  <m_score__min__energy>  (72) 
-10.06

>  <m_primary>  (72) 
energy

$$$$
72:0
     RDKit          3D

 40 42  0  0  0  0  0  0  0  0999 V2000
   60.1520   27.4200   46.4050 C   0  0  0  0  0  0  0  0  0  0  0  0
   59.2660   28.1490   45.7060 C   0  0  0  0  0  0  0  0  0  0  0  0
   58.2520   27.6530   44.8710 C   0  0  0  0  0  0  0  0  0  0  0  0
   57.7640   26.4060   44.7190 C   0  0  0  0  0  0  0  0  0  0  0  0
   57.1740   25.5840   45.7880 C   0  0  0  0  0  0  0  0  0  0  0  0
   57.7580   24.4820   46.2880 N   0  0  0  0  0  0  0  0  0  0  0  0
   56.8310   24.0000   47.1450 C   0  0  0  0  0  0  0  0  0  0  0  0
   57.0190   22.9650   47.8340 O   0  0  0  0  0  0  0  0  0  0  0  0
   55.6840   24.7110   47.1980 N   0  0  0  0  0  0  0  0  0  0  0  0
   55.9120   25.7040   46.3240 C   0  0  0  0  0  0  0  0  0  0  0  0
   54.9780   26.6820   46.0060 O   0  0  0  0  0  0  0  0  0  0  0  0
   57.7880   28.7330   44.1440 C   0  0  0  0  0  0  0  0  0  0  0  0
   58.4600   29.8490   44.6010 C   0  0  0  0  0  0  0  0  0  0  0  0
   58.3100   31.2210   43.9910 C   0  0  0  0  0  0  0  0  0  0  0  0
   57.5450   32.1420   44.9050 C   0  0  0  0  0  0  0  0  0  0  0  0
   56.2880   32.0170   44.9560 O   0  0  0  0  0  0  0  0  0  0  0  0
   58.2050   33.1410   45.7230 N   0  0  0  0  0  0  0  0  0  0  0  0
   57.8590   33.2360   47.1540 C   0  0  0  0  0  0  0  0  0  0  0  0
   59.0700   33.6790   47.9700 C   0  0  0  0  0  0  0  0  0  0  0  0
   59.5570   34.9470   47.4560 N   0  0  0  0  0  0  0  0  0  0  0  0
   59.5730   35.1950   46.0520 C   0  0  0  0  0  0  0  0  0  0  0  0
   60.0180   36.2900   45.6190 O   0  0  0  0  0  0  0  0  0  0  0  0
   59.0690   34.1580   45.0850 C   0  0  0  0  0  0  0  0  0  0  0  0
   59.3430   29.5010   45.5700 N   0  0  0  0  0  0  0  0  0  0  0  0
   60.3130   30.3990   46.2130 C   0  0  0  0  0  0  0  0  0  0  0  0
   60.9060   27.9215   47.0294 H   0  0  0  0  0  0  0  0  0  0  0  0
   60.1234   26.3216   46.3529 H   0  0  0  0  0  0  0  0  0  0  0  0
   57.8105   25.9657   43.7120 H   0  0  0  0  0  0  0  0  0  0  0  0
   57.0265   28.7080   43.3506 H   0  0  0  0  0  0  0  0  0  0  0  0
   59.3089   31.6441   43.8092 H   0  0  0  0  0  0  0  0  0  0  0  0
   57.7527   31.1241   43.0476 H   0  0  0  0  0  0  0  0  0  0  0  0
   57.0487   33.9688   47.2823 H   0  0  0  0  0  0  0  0  0  0  0  0
   57.5355   32.2459   47.5076 H   0  0  0  0  0  0  0  0  0  0  0  0
   58.7794   33.7971   49.0243 H   0  0  0  0  0  0  0  0  0  0  0  0
   59.8634   32.9210   47.8933 H   0  0  0  0  0  0  0  0  0  0  0  0
   58.4909   34.6647   44.2982 H   0  0  0  0  0  0  0  0  0  0  0  0
   59.9469   33.6343   44.6786 H   0  0  0  0  0  0  0  0  0  0  0  0
   60.2221   30.3148   47.3060 H   0  0  0  0  0  0  0  0  0  0  0  0
   61.3316   30.1180   45.9071 H   0  0  0  0  0  0  0  0  0  0  0  0
   60.1113   31.4362   45.9071 H   0  0  0  0  0  0  0  0  0  0  0  0
  1  2  2  0
  2  3  1  0
  3  4  2  3
  4  5  1  0
  5  6  1  0
  6  7  1  0
  7  8  2  0
  7  9  1  0
  9 10  1  0
 10 11  1  0
  3 12  1  0
 12 13  2  0
 13 14  1  0
 14 15  1  0
 15 16  2  0
 15 17  1  0
 17 18  1  0
 18 19  1  0
 19 20  1  0
 20 21  1  0
 21 22  2  0
 21 23  1  0
 13 24  1  0
 24 25  1  0
 24  2  1  0
 10  5  2  0
 23 17  1  0
  1 26  1  0
  1 27  1  0
  4 28  1  0
 12 29  1  0
 14 30  1  0
 14 31  1  0
 18 32  1  0
 18 33  1  0
 19 34  1  0
 19 35  1  0
 23 36  1  0
 23 37  1  0
 25 38  1  0
 25 39  1  0
 25 40  1  0
M  CHG  4   6  -1   9  -1  11  -1  20  -1
M  END
>  <UniqueID>  (73) 
70

>  <SMILES>  (73) 
C=c1c(=Cc2[n-]c(=O)[n-]c2[O-])cc(CC(=O)N2CC[N-]C(=O)C2)n1C

>  <Energy>  (73) 
111.29904526637517

>  <Genealogy>  (73) 
C=c1c(=Cc2[n-]c(=O)[n-]c2[O-])cc(CC(=O)N2CC[N-]C(=O)C2)n1C (protonated)
C=c1c(=Cc2[n-]c(=O)[n-]c2[O-])cc(CC(=O)N2CC[N-]C(=O)C2)n1C (3D coordinates assigned)
C=c1c(=Cc2[n-]c(=O)[n-]c2[O-])cc(CC(=O)N2CC[N-]C(=O)C2)n1C (nonaromatic ring conformer: 111.29904526637517 kcal/mol)

>  <smiles>  (73) 
C=c1c(=Cc2[nH]c(=O)[nH]c2O)cc(CC(=O)N2CCNC(=O)C2)n1C

>  <score_type>  (73) 
oracle

>  <origin>  (73) 
adg

>  <m_score__min__energy>  (73) 
-16.989999999999998

>  <m_primary>  (73) 
energy

$$$$
73:0
     RDKit          3D

 49 52  0  0  0  0  0  0  0  0999 V2000
   60.0340   29.9090   50.3790 C   0  0  0  0  0  0  0  0  0  0  0  0
   60.8200   29.3230   49.3460 O   0  0  0  0  0  0  0  0  0  0  0  0
   60.3220   28.9370   48.0910 C   0  0  0  0  0  0  0  0  0  0  0  0
   59.3810   27.8990   47.9440 C   0  0  0  0  0  0  0  0  0  0  0  0
   58.9120   27.5450   46.6770 C   0  0  0  0  0  0  0  0  0  0  0  0
   59.3820   28.2110   45.5360 C   0  0  0  0  0  0  0  0  0  0  0  0
   58.8490   27.8540   44.1790 C   0  0  0  0  0  0  0  0  0  0  0  0
   57.3930   27.8980   44.2070 N   0  0  0  0  0  0  0  0  0  0  0  0
   56.6150   29.0660   44.4990 C   0  0  0  0  0  0  0  0  0  0  0  0
   55.3600   28.9610   44.5480 O   0  0  0  0  0  0  0  0  0  0  0  0
   57.2310   30.3910   44.7050 C   0  0  0  0  0  0  0  0  0  0  0  0
   57.3530   31.3050   43.6290 C   0  0  0  0  0  0  0  0  0  0  0  0
   57.9550   32.5620   43.8200 C   0  0  0  0  0  0  0  0  0  0  0  0
   58.4320   32.8740   45.0900 C   0  0  0  0  0  0  0  0  0  0  0  0
   58.3350   31.9820   46.1350 C   0  0  0  0  0  0  0  0  0  0  0  0
   57.7500   30.7280   45.9740 C   0  0  0  0  0  0  0  0  0  0  0  0
   58.9550   32.5990   47.3020 C   0  0  0  0  0  0  0  0  0  0  0  0
   59.0850   32.0620   48.4330 O   0  0  0  0  0  0  0  0  0  0  0  0
   59.4220   33.9120   46.9740 N   0  0  0  0  0  0  0  0  0  0  0  0
   60.3810   34.7040   47.7390 C   0  0  0  0  0  0  0  0  0  0  0  0
   61.6380   33.9110   47.9730 C   0  0  0  0  0  0  0  0  0  0  0  0
   62.6330   33.8410   46.9870 C   0  0  0  0  0  0  0  0  0  0  0  0
   63.7760   33.0690   47.2010 C   0  0  0  0  0  0  0  0  0  0  0  0
   63.9110   32.3650   48.3990 C   0  0  0  0  0  0  0  0  0  0  0  0
   62.9340   32.4320   49.3420 N   0  0  0  0  0  0  0  0  0  0  0  0
   61.8120   33.1770   49.1560 C   0  0  0  0  0  0  0  0  0  0  0  0
   59.1150   34.0630   45.5860 C   0  0  0  0  0  0  0  0  0  0  0  0
   59.4160   35.0750   44.8990 O   0  0  0  0  0  0  0  0  0  0  0  0
   60.3070   29.2560   45.6810 C   0  0  0  0  0  0  0  0  0  0  0  0
   60.7800   29.6140   46.9530 C   0  0  0  0  0  0  0  0  0  0  0  0
   61.7060   30.6450   47.0900 O   0  0  0  0  0  0  0  0  0  0  0  0
   60.4347   29.6102   51.3589 H   0  0  0  0  0  0  0  0  0  0  0  0
   60.0669   31.0047   50.2880 H   0  0  0  0  0  0  0  0  0  0  0  0
   58.9933   29.5646   50.2880 H   0  0  0  0  0  0  0  0  0  0  0  0
   59.0135   27.3642   48.8322 H   0  0  0  0  0  0  0  0  0  0  0  0
   58.1700   26.7395   46.5736 H   0  0  0  0  0  0  0  0  0  0  0  0
   59.2242   28.5731   43.4360 H   0  0  0  0  0  0  0  0  0  0  0  0
   59.1820   26.8416   43.9068 H   0  0  0  0  0  0  0  0  0  0  0  0
   56.9731   31.0288   42.6343 H   0  0  0  0  0  0  0  0  0  0  0  0
   58.0462   33.2777   42.9897 H   0  0  0  0  0  0  0  0  0  0  0  0
   57.6939   30.0192   46.8133 H   0  0  0  0  0  0  0  0  0  0  0  0
   60.6268   35.6181   47.1786 H   0  0  0  0  0  0  0  0  0  0  0  0
   59.9362   34.9677   48.7099 H   0  0  0  0  0  0  0  0  0  0  0  0
   62.5125   34.3949   46.0443 H   0  0  0  0  0  0  0  0  0  0  0  0
   64.5623   33.0158   46.4336 H   0  0  0  0  0  0  0  0  0  0  0  0
   64.8087   31.7556   48.5801 H   0  0  0  0  0  0  0  0  0  0  0  0
   61.0373   33.2044   49.9364 H   0  0  0  0  0  0  0  0  0  0  0  0
   60.6635   29.7978   44.7926 H   0  0  0  0  0  0  0  0  0  0  0  0
   62.0110   30.9680   48.0010 H   0  0  0  0  0  0  0  0  0  0  0  0
  1  2  1  0
  2  3  1  0
  3  4  2  0
  4  5  1  0
  5  6  2  0
  6  7  1  0
  7  8  1  0
  8  9  1  0
  9 10  2  0
  9 11  1  0
 11 12  2  0
 12 13  1  0
 13 14  2  0
 14 15  1  0
 15 16  2  0
 15 17  1  0
 17 18  2  0
 17 19  1  0
 19 20  1  0
 20 21  1  0
 21 22  2  0
 22 23  1  0
 23 24  2  0
 24 25  1  0
 25 26  2  0
 19 27  1  0
 27 28  2  0
  6 29  1  0
 29 30  2  0
 30 31  1  0
 30  3  1  0
 16 11  1  0
 26 21  1  0
 27 14  1  0
  1 32  1  0
  1 33  1  0
  1 34  1  0
  4 35  1  0
  5 36  1  0
  7 37  1  0
  7 38  1  0
 12 39  1  0
 13 40  1  0
 16 41  1  0
 20 42  1  0
 20 43  1  0
 22 44  1  0
 23 45  1  0
 24 46  1  0
 26 47  1  0
 29 48  1  0
 31 49  1  0
M  CHG  1   8  -1
M  END
>  <UniqueID>  (74) 
71

>  <SMILES>  (74) 
COc1ccc(C[N-]C(=O)c2ccc3c(c2)C(=O)N(Cc2cccnc2)C3=O)cc1O

>  <Energy>  (74) 
87.02177579146223

>  <Genealogy>  (74) 
COc1ccc(C[N-]C(=O)c2ccc3c(c2)C(=O)N(Cc2cccnc2)C3=O)cc1O (protonated)
COc1ccc(C[N-]C(=O)c2ccc3c(c2)C(=O)N(Cc2cccnc2)C3=O)cc1O (3D coordinates assigned)
COc1ccc(C[N-]C(=O)c2ccc3c(c2)C(=O)N(Cc2cccnc2)C3=O)cc1O (nonaromatic ring conformer: 87.02177579146223 kcal/mol)

>  <smiles>  (74) 
COc1ccc(CNC(=O)c2ccc3c(c2)C(=O)N(Cc2cccnc2)C3=O)cc1O

>  <score_type>  (74) 
oracle

>  <origin>  (74) 
adg

>  <m_score__min__energy>  (74) 
-11.26

>  <m_primary>  (74) 
energy

$$$$
74:0
     RDKit          3D

 40 42  0  0  0  0  0  0  0  0999 V2000
   58.1520   27.0010   43.0920 C   0  0  0  0  0  0  0  0  0  0  0  0
   57.6920   28.3400   43.4540 N   0  0  0  0  0  0  0  0  0  0  0  0
   56.8150   29.0700   42.7360 C   0  0  0  0  0  0  0  0  0  0  0  0
   56.5030   30.2340   43.4070 C   0  0  0  0  0  0  0  0  0  0  0  0
   57.2240   30.2060   44.5800 C   0  0  0  0  0  0  0  0  0  0  0  0
   57.1570   31.2130   45.5470 O   0  0  0  0  0  0  0  0  0  0  0  0
   57.7580   32.7960   45.3120 S   0  0  0  0  0  0  0  0  0  0  0  0
   58.3130   32.9310   43.9220 O   0  0  0  0  0  0  0  0  0  0  0  0
   56.6610   33.8040   45.5170 O   0  0  0  0  0  0  0  0  0  0  0  0
   59.0660   33.1090   46.4920 C   0  0  0  0  0  0  0  0  0  0  0  0
   59.9180   31.8730   46.7430 C   0  0  0  0  0  0  0  0  0  0  0  0
   61.2820   32.4010   47.1700 C   0  0  0  0  0  0  0  0  0  0  0  0
   61.3610   33.8550   46.7020 C   0  0  0  0  0  0  0  0  0  0  0  0
   60.0450   34.1640   45.9990 C   0  0  0  0  0  0  0  0  0  0  0  0
   57.9470   29.0160   44.6000 C   0  0  0  0  0  0  0  0  0  0  0  0
   58.7060   28.4370   45.7670 C   0  0  0  0  0  0  0  0  0  0  0  0
   58.0320   27.1990   46.2760 C   0  0  0  0  0  0  0  0  0  0  0  0
   58.7990   25.9500   47.1090 S   0  0  0  0  0  0  0  0  0  0  0  0
   57.3780   25.0630   47.2530 C   0  0  0  0  0  0  0  0  0  0  0  0
   57.2960   23.9440   47.8230 O   0  0  0  0  0  0  0  0  0  0  0  0
   56.3200   25.6800   46.6890 N   0  0  0  0  0  0  0  0  0  0  0  0
   56.6830   26.8730   46.1450 C   0  0  0  0  0  0  0  0  0  0  0  0
   55.7640   27.6980   45.5080 O   0  0  0  0  0  0  0  0  0  0  0  0
   58.3509   26.4221   44.0059 H   0  0  0  0  0  0  0  0  0  0  0  0
   57.3763   26.4947   42.4988 H   0  0  0  0  0  0  0  0  0  0  0  0
   59.0751   27.0783   42.4988 H   0  0  0  0  0  0  0  0  0  0  0  0
   56.4072   28.7793   41.7566 H   0  0  0  0  0  0  0  0  0  0  0  0
   55.8163   31.0255   43.0724 H   0  0  0  0  0  0  0  0  0  0  0  0
   58.5411   33.4353   47.4020 H   0  0  0  0  0  0  0  0  0  0  0  0
   59.4769   31.2571   47.5406 H   0  0  0  0  0  0  0  0  0  0  0  0
   59.9877   31.2360   45.8489 H   0  0  0  0  0  0  0  0  0  0  0  0
   61.3820   32.3497   48.2642 H   0  0  0  0  0  0  0  0  0  0  0  0
   62.0922   31.8009   46.7302 H   0  0  0  0  0  0  0  0  0  0  0  0
   61.4953   34.5237   47.5650 H   0  0  0  0  0  0  0  0  0  0  0  0
   62.2147   34.0056   46.0249 H   0  0  0  0  0  0  0  0  0  0  0  0
   59.6928   35.1710   46.2670 H   0  0  0  0  0  0  0  0  0  0  0  0
   60.1514   34.1436   44.9043 H   0  0  0  0  0  0  0  0  0  0  0  0
   59.7271   28.1855   45.4445 H   0  0  0  0  0  0  0  0  0  0  0  0
   58.7336   29.1823   46.5755 H   0  0  0  0  0  0  0  0  0  0  0  0
   55.8320   27.8800   44.5140 H   0  0  0  0  0  0  0  0  0  0  0  0
  1  2  1  0
  2  3  1  0
  3  4  2  0
  4  5  1  0
  5  6  1  0
  6  7  1  0
  7  8  2  0
  7  9  2  0
  7 10  1  0
 10 11  1  0
 11 12  1  0
 12 13  1  0
 13 14  1  0
  5 15  2  0
 15 16  1  0
 16 17  1  0
 17 18  1  0
 18 19  1  0
 19 20  2  0
 19 21  1  0
 21 22  1  0
 22 23  1  0
 15  2  1  0
 22 17  2  0
 14 10  1  0
  1 24  1  0
  1 25  1  0
  1 26  1  0
  3 27  1  0
  4 28  1  0
 10 29  1  0
 11 30  1  0
 11 31  1  0
 12 32  1  0
 12 33  1  0
 13 34  1  0
 13 35  1  0
 14 36  1  0
 14 37  1  0
 16 38  1  0
 16 39  1  0
 23 40  1  0
M  CHG  1  21  -1
M  END
>  <UniqueID>  (75) 
72

>  <SMILES>  (75) 
Cn1ccc(OS(=O)(=O)C2CCCC2)c1Cc1sc(=O)[n-]c1O

>  <Energy>  (75) 
96.65630214918147

>  <Genealogy>  (75) 
Cn1ccc(OS(=O)(=O)C2CCCC2)c1Cc1sc(=O)[n-]c1O (protonated)
Cn1ccc(OS(=O)(=O)C2CCCC2)c1Cc1sc(=O)[n-]c1O (3D coordinates assigned)
Cn1ccc(OS(=O)(=O)C2CCCC2)c1Cc1sc(=O)[n-]c1O (nonaromatic ring conformer: 96.65630214918147 kcal/mol)

>  <smiles>  (75) 
Cn1ccc(OS(=O)(=O)C2CCCC2)c1Cc1sc(=O)[nH]c1O

>  <score_type>  (75) 
oracle

>  <origin>  (75) 
adg

>  <m_score__min__energy>  (75) 
-11.1

>  <m_primary>  (75) 
energy

$$$$
75:0
     RDKit          3D

 44 46  0  0  0  0  0  0  0  0999 V2000
   64.0126   34.7513   48.5932 H   0  0  0  0  0  0  0  0  0  0  0  0
   63.3200   33.9030   48.6970 C   0  0  0  0  0  0  0  0  0  0  0  0
   62.0610   34.0950   49.2700 C   0  0  0  0  0  0  0  0  0  0  0  0
   61.7622   35.0958   49.6153 H   0  0  0  0  0  0  0  0  0  0  0  0
   61.1790   33.0180   49.4060 C   0  0  0  0  0  0  0  0  0  0  0  0
   60.1891   33.1761   49.8589 H   0  0  0  0  0  0  0  0  0  0  0  0
   61.5500   31.7330   48.9670 C   0  0  0  0  0  0  0  0  0  0  0  0
   60.6170   30.5920   49.1030 C   0  0  0  0  0  0  0  0  0  0  0  0
   60.0500   30.3710   50.2080 O   0  0  0  0  0  0  0  0  0  0  0  0
   60.3100   29.7780   47.9600 N   0  0  0  0  0  0  0  0  0  0  0  0
   59.9960   30.1740   46.7580 C   0  0  0  0  0  0  0  0  0  0  0  0
   59.7940   31.6020   46.4010 C   0  0  0  0  0  0  0  0  0  0  0  0
   60.8150   32.3380   46.2970 O   0  0  0  0  0  0  0  0  0  0  0  0
   58.4790   32.1060   46.0370 N   0  0  0  0  0  0  0  0  0  0  0  0
   57.8460   31.2830   45.9140 H   0  0  0  0  0  0  0  0  0  0  0  0
   58.5120   32.8120   44.7320 C   0  0  0  0  0  0  0  0  0  0  0  0
   59.3415   32.4054   44.1348 H   0  0  0  0  0  0  0  0  0  0  0  0
   57.5379   32.6509   44.2471 H   0  0  0  0  0  0  0  0  0  0  0  0
   58.7090   34.3330   44.8730 C   0  0  0  0  0  0  0  0  0  0  0  0
   59.3216   34.6965   44.0348 H   0  0  0  0  0  0  0  0  0  0  0  0
   57.7219   34.8184   44.8649 H   0  0  0  0  0  0  0  0  0  0  0  0
   59.3550   34.6440   46.0860 O   0  0  0  0  0  0  0  0  0  0  0  0
   58.4910   34.3640   47.1690 C   0  0  0  0  0  0  0  0  0  0  0  0
   59.0601   34.4602   48.1054 H   0  0  0  0  0  0  0  0  0  0  0  0
   57.6581   35.0808   47.1194 H   0  0  0  0  0  0  0  0  0  0  0  0
   57.8820   32.9400   47.1050 C   0  0  0  0  0  0  0  0  0  0  0  0
   58.0480   32.4434   48.0724 H   0  0  0  0  0  0  0  0  0  0  0  0
   56.8109   33.0486   46.8794 H   0  0  0  0  0  0  0  0  0  0  0  0
   59.7370   29.1240   45.7150 C   0  0  0  0  0  0  0  0  0  0  0  0
   60.1776   29.4461   44.7599 H   0  0  0  0  0  0  0  0  0  0  0  0
   60.1918   28.1775   46.0425 H   0  0  0  0  0  0  0  0  0  0  0  0
   58.2610   28.9160   45.5330 C   0  0  0  0  0  0  0  0  0  0  0  0
   57.4930   29.9340   45.0590 N   0  0  0  0  0  0  0  0  0  0  0  0
   56.1570   29.7760   44.8670 C   0  0  0  0  0  0  0  0  0  0  0  0
   55.4690   30.7320   44.4260 O   0  0  0  0  0  0  0  0  0  0  0  0
   55.5650   28.5860   45.1480 N   0  0  0  0  0  0  0  0  0  0  0  0
   56.2910   27.5420   45.6250 C   0  0  0  0  0  0  0  0  0  0  0  0
   55.7220   26.4480   45.8770 O   0  0  0  0  0  0  0  0  0  0  0  0
   57.6640   27.6840   45.8310 C   0  0  0  0  0  0  0  0  0  0  0  0
   58.2640   26.8475   46.2186 H   0  0  0  0  0  0  0  0  0  0  0  0
   62.8210   31.5530   48.3880 C   0  0  0  0  0  0  0  0  0  0  0  0
   63.1254   30.5558   48.0372 H   0  0  0  0  0  0  0  0  0  0  0  0
   63.6990   32.6340   48.2560 C   0  0  0  0  0  0  0  0  0  0  0  0
   64.6904   32.4837   47.8036 H   0  0  0  0  0  0  0  0  0  0  0  0
  1  2  1  0
  2  3  2  0
  3  4  1  0
  3  5  1  0
  5  6  1  0
  5  7  2  0
  7  8  1  0
  8  9  2  0
  8 10  1  0
 10 11  2  0
 11 12  1  0
 12 13  2  0
 12 14  1  0
 14 15  1  0
 14 16  1  0
 16 17  1  0
 16 18  1  0
 16 19  1  0
 19 20  1  0
 19 21  1  0
 19 22  1  0
 22 23  1  0
 23 24  1  0
 23 25  1  0
 23 26  1  0
 26 27  1  0
 26 28  1  0
 11 29  1  0
 29 30  1  0
 29 31  1  0
 29 32  1  0
 32 33  1  0
 33 34  1  0
 34 35  2  0
 34 36  1  0
 36 37  1  0
 37 38  2  0
 37 39  1  0
 39 40  1  0
  7 41  1  0
 41 42  1  0
 41 43  2  0
 43 44  1  0
 43  2  1  0
 26 14  1  0
 39 32  2  0
M  CHG  3  14   1  33  -1  36  -1
M  END
>  <UniqueID>  (76) 
73

>  <SMILES>  (76) 
O=C(/N=C(/Cc1cc(=O)[n-]c(=O)[n-]1)C(=O)[NH+]1CCOCC1)c1ccccc1

>  <Energy>  (76) 
68.49518003198614

>  <Genealogy>  (76) 
O=C(N=C(Cc1cc(=O)[n-]c(=O)[n-]1)C(=O)[NH+]1CCOCC1)c1ccccc1 (protonated)
O=C(/N=C(/Cc1cc(=O)[n-]c(=O)[n-]1)C(=O)[NH+]1CCOCC1)c1ccccc1 (cis-trans isomerization)
O=C(/N=C(/Cc1cc(=O)[n-]c(=O)[n-]1)C(=O)[NH+]1CCOCC1)c1ccccc1 (3D coordinates assigned)
O=C(/N=C(/Cc1cc(=O)[n-]c(=O)[n-]1)C(=O)[NH+]1CCOCC1)c1ccccc1 (nonaromatic ring conformer: 68.49518003198614 kcal/mol)

>  <smiles>  (76) 
O=C(N=C(Cc1cc(=O)[nH]c(=O)[nH]1)C(=O)N1CCOCC1)c1ccccc1

>  <score_type>  (76) 
oracle

>  <origin>  (76) 
adg

>  <m_score__min__energy>  (76) 
-9.8000000000000007

>  <m_primary>  (76) 
energy

$$$$
76:0
     RDKit          3D

 50 53  0  0  0  0  0  0  0  0999 V2000
   52.9660   28.4750   53.4060 C   0  0  0  0  0  0  0  0  0  0  0  0
   54.0860   29.1720   53.1550 C   0  0  0  0  0  0  0  0  0  0  0  0
   54.1690   30.4530   52.5840 C   0  0  0  0  0  0  0  0  0  0  0  0
   53.2180   31.3730   52.3310 C   0  0  0  0  0  0  0  0  0  0  0  0
   52.2670   31.3410   51.2110 C   0  0  0  0  0  0  0  0  0  0  0  0
   52.3110   30.4290   50.2250 N   0  0  0  0  0  0  0  0  0  0  0  0
   51.3550   30.8480   49.3680 C   0  0  0  0  0  0  0  0  0  0  0  0
   51.0790   30.2320   48.3060 O   0  0  0  0  0  0  0  0  0  0  0  0
   50.7260   31.9870   49.7320 N   0  0  0  0  0  0  0  0  0  0  0  0
   51.3250   32.2940   50.8930 C   0  0  0  0  0  0  0  0  0  0  0  0
   51.0360   33.4360   51.6310 O   0  0  0  0  0  0  0  0  0  0  0  0
   55.5040   30.6540   52.2820 C   0  0  0  0  0  0  0  0  0  0  0  0
   56.1910   29.5430   52.7280 C   0  0  0  0  0  0  0  0  0  0  0  0
   57.6440   29.3420   52.5360 C   0  0  0  0  0  0  0  0  0  0  0  0
   58.1920   28.3020   52.9920 O   0  0  0  0  0  0  0  0  0  0  0  0
   58.4280   30.2790   51.7750 N   0  0  0  0  0  0  0  0  0  0  0  0
   59.5580   29.7800   50.9760 C   0  0  0  0  0  0  0  0  0  0  0  0
   60.1410   30.8750   50.0720 C   0  0  0  0  0  0  0  0  0  0  0  0
   59.0040   31.7210   49.4780 C   0  0  0  0  0  0  0  0  0  0  0  0
   59.5250   32.6610   48.4750 N   0  0  0  0  0  0  0  0  0  0  0  0
   60.9300   32.8150   48.0880 C   0  0  0  0  0  0  0  0  0  0  0  0
   60.9250   33.5890   46.7460 C   0  0  0  0  0  0  0  0  0  0  0  0
   59.5240   33.8030   46.4180 N   0  0  0  0  0  0  0  0  0  0  0  0
   58.7450   33.2350   47.4430 C   0  0  0  0  0  0  0  0  0  0  0  0
   57.4860   33.2230   47.4270 O   0  0  0  0  0  0  0  0  0  0  0  0
   58.1980   32.4510   50.5830 C   0  0  0  0  0  0  0  0  0  0  0  0
   58.2430   31.7280   51.9440 C   0  0  0  0  0  0  0  0  0  0  0  0
   55.3360   28.6520   53.2840 N   0  0  0  0  0  0  0  0  0  0  0  0
   55.6920   27.3450   53.8480 C   0  0  0  0  0  0  0  0  0  0  0  0
   53.0306   27.4747   53.8591 H   0  0  0  0  0  0  0  0  0  0  0  0
   51.9839   28.9043   53.1585 H   0  0  0  0  0  0  0  0  0  0  0  0
   53.1470   32.2239   53.0245 H   0  0  0  0  0  0  0  0  0  0  0  0
   55.9362   31.5329   51.7812 H   0  0  0  0  0  0  0  0  0  0  0  0
   60.3452   29.4225   51.6561 H   0  0  0  0  0  0  0  0  0  0  0  0
   59.1913   28.9649   50.3347 H   0  0  0  0  0  0  0  0  0  0  0  0
   60.8060   31.5212   50.6638 H   0  0  0  0  0  0  0  0  0  0  0  0
   60.7095   30.4065   49.2551 H   0  0  0  0  0  0  0  0  0  0  0  0
   58.3050   31.0399   48.9706 H   0  0  0  0  0  0  0  0  0  0  0  0
   61.4767   33.3838   48.8545 H   0  0  0  0  0  0  0  0  0  0  0  0
   61.4277   31.8393   47.9867 H   0  0  0  0  0  0  0  0  0  0  0  0
   61.4440   34.5525   46.8574 H   0  0  0  0  0  0  0  0  0  0  0  0
   61.4458   33.0305   45.9542 H   0  0  0  0  0  0  0  0  0  0  0  0
   59.1600   34.2800   45.5640 H   0  0  0  0  0  0  0  0  0  0  0  0
   58.6140   33.4614   50.7097 H   0  0  0  0  0  0  0  0  0  0  0  0
   57.1469   32.4751   50.2597 H   0  0  0  0  0  0  0  0  0  0  0  0
   59.0794   32.1292   52.5351 H   0  0  0  0  0  0  0  0  0  0  0  0
   57.2855   31.8975   52.4583 H   0  0  0  0  0  0  0  0  0  0  0  0
   55.6762   27.4030   54.9464 H   0  0  0  0  0  0  0  0  0  0  0  0
   54.9668   26.5901   53.5102 H   0  0  0  0  0  0  0  0  0  0  0  0
   56.6999   27.0621   53.5102 H   0  0  0  0  0  0  0  0  0  0  0  0
  1  2  2  0
  2  3  1  0
  3  4  2  3
  4  5  1  0
  5  6  1  0
  6  7  1  0
  7  8  2  0
  7  9  1  0
  9 10  1  0
 10 11  1  0
  3 12  1  0
 12 13  2  0
 13 14  1  0
 14 15  2  0
 14 16  1  0
 16 17  1  0
 17 18  1  0
 18 19  1  0
 19 20  1  0
 20 21  1  0
 21 22  1  0
 22 23  1  0
 23 24  1  0
 24 25  2  0
 19 26  1  0
 26 27  1  0
 13 28  1  0
 28 29  1  0
 28  2  1  0
 10  5  2  0
 27 16  1  0
 24 20  1  0
  1 30  1  0
  1 31  1  0
  4 32  1  0
 12 33  1  0
 17 34  1  0
 17 35  1  0
 18 36  1  0
 18 37  1  0
 19 38  1  0
 21 39  1  0
 21 40  1  0
 22 41  1  0
 22 42  1  0
 23 43  1  0
 26 44  1  0
 26 45  1  0
 27 46  1  0
 27 47  1  0
 29 48  1  0
 29 49  1  0
 29 50  1  0
M  CHG  3   6  -1   9  -1  11  -1
M  END
>  <UniqueID>  (77) 
74

>  <SMILES>  (77) 
C=c1c(=Cc2[n-]c(=O)[n-]c2[O-])cc(C(=O)N2CCC(N3CCNC3=O)CC2)n1C

>  <Energy>  (77) 
141.96258632549316

>  <Genealogy>  (77) 
C=c1c(=Cc2[n-]c(=O)[n-]c2[O-])cc(C(=O)N2CCC(N3CCNC3=O)CC2)n1C (protonated)
C=c1c(=Cc2[n-]c(=O)[n-]c2[O-])cc(C(=O)N2CCC(N3CCNC3=O)CC2)n1C (3D coordinates assigned)
C=c1c(=Cc2[n-]c(=O)[n-]c2[O-])cc(C(=O)N2CCC(N3CCNC3=O)CC2)n1C (nonaromatic ring conformer: 141.96258632549316 kcal/mol)

>  <smiles>  (77) 
C=c1c(=Cc2[nH]c(=O)[nH]c2O)cc(C(=O)N2CCC(N3CCNC3=O)CC2)n1C

>  <score_type>  (77) 
oracle

>  <origin>  (77) 
adg

>  <m_score__min__energy>  (77) 
-17.120000000000001

>  <m_primary>  (77) 
energy

$$$$
77:0
     RDKit          3D

 62 65  0  0  0  0  0  0  0  0999 V2000
   55.9010   26.2540   46.1790 O   0  0  0  0  0  0  0  0  0  0  0  0
   57.1470   26.4420   46.2110 C   0  0  0  0  0  0  0  0  0  0  0  0
   57.7910   26.9500   47.4710 C   0  0  0  0  0  0  0  0  0  0  0  0
   59.2810   26.5850   47.5680 C   0  0  0  0  0  0  0  0  0  0  0  0
   60.2200   27.5860   46.8690 C   0  0  0  0  0  0  0  0  0  0  0  0
   59.5800   28.9090   46.6810 N   0  0  0  0  0  0  0  0  0  0  0  0
   59.1680   29.2870   45.4320 C   0  0  0  0  0  0  0  0  0  0  0  0
   59.3000   28.4940   44.4560 O   0  0  0  0  0  0  0  0  0  0  0  0
   58.5870   30.5430   45.2290 C   0  0  0  0  0  0  0  0  0  0  0  0
   58.1360   30.9390   43.9520 C   0  0  0  0  0  0  0  0  0  0  0  0
   57.5430   32.1850   43.7680 C   0  0  0  0  0  0  0  0  0  0  0  0
   57.3850   33.0470   44.8470 C   0  0  0  0  0  0  0  0  0  0  0  0
   57.8290   32.6740   46.1160 C   0  0  0  0  0  0  0  0  0  0  0  0
   58.4500   31.4180   46.3310 C   0  0  0  0  0  0  0  0  0  0  0  0
   58.9020   31.0240   47.5740 N   0  0  0  0  0  0  0  0  0  0  0  0
   58.8260   31.9310   48.7440 C   0  0  0  0  0  0  0  0  0  0  0  0
   59.7330   33.1220   48.5720 C   0  0  0  0  0  0  0  0  0  0  0  0
   59.2960   34.2730   48.8550 O   0  0  0  0  0  0  0  0  0  0  0  0
   61.0900   32.9670   48.1090 N   0  0  0  0  0  0  0  0  0  0  0  0
   61.8880   31.8000   48.5100 C   0  0  0  0  0  0  0  0  0  0  0  0
   62.9960   31.5470   47.4810 C   0  0  0  0  0  0  0  0  0  0  0  0
   63.7470   32.7220   47.2510 O   0  0  0  0  0  0  0  0  0  0  0  0
   62.9240   33.7020   46.6480 C   0  0  0  0  0  0  0  0  0  0  0  0
   61.8100   34.1410   47.6050 C   0  0  0  0  0  0  0  0  0  0  0  0
   59.4130   29.7570   47.7480 C   0  0  0  0  0  0  0  0  0  0  0  0
   59.7240   29.3640   48.9080 O   0  0  0  0  0  0  0  0  0  0  0  0
   57.9420   26.2160   45.0390 N   0  0  0  0  0  0  0  0  0  0  0  0
   57.3930   25.6210   43.8220 C   0  0  0  0  0  0  0  0  0  0  0  0
   57.3950   24.1220   43.9250 C   0  0  0  0  0  0  0  0  0  0  0  0
   58.2080   23.4830   44.8760 C   0  0  0  0  0  0  0  0  0  0  0  0
   58.2240   22.0880   44.9670 C   0  0  0  0  0  0  0  0  0  0  0  0
   57.4320   21.3210   44.1070 C   0  0  0  0  0  0  0  0  0  0  0  0
   56.6230   21.9500   43.1560 C   0  0  0  0  0  0  0  0  0  0  0  0
   56.6040   23.3450   43.0620 C   0  0  0  0  0  0  0  0  0  0  0  0
   57.6952   28.0455   47.4975 H   0  0  0  0  0  0  0  0  0  0  0  0
   57.2778   26.4745   48.3199 H   0  0  0  0  0  0  0  0  0  0  0  0
   59.5566   26.5377   48.6319 H   0  0  0  0  0  0  0  0  0  0  0  0
   59.4057   25.6206   47.0538 H   0  0  0  0  0  0  0  0  0  0  0  0
   61.1241   27.7128   47.4826 H   0  0  0  0  0  0  0  0  0  0  0  0
   60.4667   27.1836   45.8754 H   0  0  0  0  0  0  0  0  0  0  0  0
   58.2538   30.2584   43.0959 H   0  0  0  0  0  0  0  0  0  0  0  0
   57.1992   32.4877   42.7679 H   0  0  0  0  0  0  0  0  0  0  0  0
   56.9080   34.0272   44.6998 H   0  0  0  0  0  0  0  0  0  0  0  0
   57.6952   33.3645   46.9618 H   0  0  0  0  0  0  0  0  0  0  0  0
   57.7901   32.2828   48.8582 H   0  0  0  0  0  0  0  0  0  0  0  0
   59.1482   31.3747   49.6366 H   0  0  0  0  0  0  0  0  0  0  0  0
   62.3408   31.9886   49.4946 H   0  0  0  0  0  0  0  0  0  0  0  0
   61.2353   30.9162   48.5641 H   0  0  0  0  0  0  0  0  0  0  0  0
   63.6652   30.7597   47.8582 H   0  0  0  0  0  0  0  0  0  0  0  0
   62.5320   31.2348   46.5338 H   0  0  0  0  0  0  0  0  0  0  0  0
   63.5379   34.5758   46.3841 H   0  0  0  0  0  0  0  0  0  0  0  0
   62.4646   33.2705   45.7465 H   0  0  0  0  0  0  0  0  0  0  0  0
   62.2512   34.6885   48.4509 H   0  0  0  0  0  0  0  0  0  0  0  0
   61.1063   34.7919   47.0655 H   0  0  0  0  0  0  0  0  0  0  0  0
   58.9650   26.4310   45.0650 H   0  0  0  0  0  0  0  0  0  0  0  0
   56.3606   25.9732   43.6802 H   0  0  0  0  0  0  0  0  0  0  0  0
   58.0155   25.9207   42.9660 H   0  0  0  0  0  0  0  0  0  0  0  0
   58.8348   24.0830   45.5521 H   0  0  0  0  0  0  0  0  0  0  0  0
   58.8602   21.5934   45.7158 H   0  0  0  0  0  0  0  0  0  0  0  0
   57.4455   20.2234   44.1787 H   0  0  0  0  0  0  0  0  0  0  0  0
   55.9999   21.3460   42.4800 H   0  0  0  0  0  0  0  0  0  0  0  0
   55.9680   23.8355   42.3103 H   0  0  0  0  0  0  0  0  0  0  0  0
  1  2  2  0
  2  3  1  0
  3  4  1  0
  4  5  1  0
  5  6  1  0
  6  7  1  0
  7  8  2  0
  7  9  1  0
  9 10  2  0
 10 11  1  0
 11 12  2  0
 12 13  1  0
 13 14  2  0
 14 15  1  0
 15 16  1  0
 16 17  1  0
 17 18  2  0
 17 19  1  0
 19 20  1  0
 20 21  1  0
 21 22  1  0
 22 23  1  0
 23 24  1  0
 15 25  1  0
 25 26  2  0
  2 27  1  0
 27 28  1  0
 28 29  1  0
 29 30  2  0
 30 31  1  0
 31 32  2  0
 32 33  1  0
 33 34  2  0
 25  6  1  0
 34 29  1  0
 14  9  1  0
 24 19  1  0
  3 35  1  0
  3 36  1  0
  4 37  1  0
  4 38  1  0
  5 39  1  0
  5 40  1  0
 10 41  1  0
 11 42  1  0
 12 43  1  0
 13 44  1  0
 16 45  1  0
 16 46  1  0
 20 47  1  0
 20 48  1  0
 21 49  1  0
 21 50  1  0
 23 51  1  0
 23 52  1  0
 24 53  1  0
 24 54  1  0
 27 55  1  0
 28 56  1  0
 28 57  1  0
 30 58  1  0
 31 59  1  0
 32 60  1  0
 33 61  1  0
 34 62  1  0
M  END
>  <UniqueID>  (78) 
75

>  <SMILES>  (78) 
O=C(CCCn1c(=O)c2ccccc2n(CC(=O)N2CCOCC2)c1=O)NCc1ccccc1

>  <Energy>  (78) 
75.7665699343796

>  <Genealogy>  (78) 
O=C(CCCn1c(=O)c2ccccc2n(CC(=O)N2CCOCC2)c1=O)NCc1ccccc1 (3D coordinates assigned)
O=C(CCCn1c(=O)c2ccccc2n(CC(=O)N2CCOCC2)c1=O)NCc1ccccc1 (nonaromatic ring conformer: 75.7665699343796 kcal/mol)

>  <smiles>  (78) 
O=C(CCCn1c(=O)c2ccccc2n(CC(=O)N2CCOCC2)c1=O)NCc1ccccc1

>  <score_type>  (78) 
oracle

>  <origin>  (78) 
adg

>  <m_score__min__energy>  (78) 
-9.2200000000000006

>  <m_primary>  (78) 
energy

$$$$
78:0
     RDKit          3D

 19 19  0  0  0  0  0  0  0  0999 V2000
   56.7140   30.2370   42.4560 N   0  0  0  0  0  0  0  0  0  0  0  0
   57.2670   30.5390   44.0660 S   0  0  0  0  0  0  0  0  0  0  0  0
   56.2640   31.4020   44.7830 O   0  0  0  0  0  0  0  0  0  0  0  0
   58.5740   31.2810   44.0140 O   0  0  0  0  0  0  0  0  0  0  0  0
   57.4720   28.9990   44.9200 C   0  0  0  0  0  0  0  0  0  0  0  0
   58.7790   28.6310   45.2390 C   0  0  0  0  0  0  0  0  0  0  0  0
   59.2300   27.4930   45.8890 C   0  0  0  0  0  0  0  0  0  0  0  0
   58.4980   26.4270   46.3910 C   0  0  0  0  0  0  0  0  0  0  0  0
   57.1200   26.2250   46.4020 C   0  0  0  0  0  0  0  0  0  0  0  0
   56.7230   25.1540   46.9390 O   0  0  0  0  0  0  0  0  0  0  0  0
   56.1350   27.0780   45.8930 C   0  0  0  0  0  0  0  0  0  0  0  0
   54.8130   26.6630   46.0450 O   0  0  0  0  0  0  0  0  0  0  0  0
   56.3070   28.3010   45.2420 C   0  0  0  0  0  0  0  0  0  0  0  0
   55.8070   29.7250   42.5370 H   0  0  0  0  0  0  0  0  0  0  0  0
   57.3950   29.5750   42.0200 H   0  0  0  0  0  0  0  0  0  0  0  0
   59.5599   29.3424   44.9322 H   0  0  0  0  0  0  0  0  0  0  0  0
   60.3194   27.4258   46.0258 H   0  0  0  0  0  0  0  0  0  0  0  0
   59.0936   25.6228   46.8476 H   0  0  0  0  0  0  0  0  0  0  0  0
   55.3736   28.7942   44.9329 H   0  0  0  0  0  0  0  0  0  0  0  0
  1  2  1  0
  2  3  2  0
  2  4  2  0
  2  5  1  0
  5  6  2  0
  6  7  1  0
  7  8  2  0
  8  9  1  0
  9 10  2  0
  9 11  1  0
 11 12  1  0
 11 13  2  0
 13  5  1  0
  1 14  1  0
  1 15  1  0
  6 16  1  0
  7 17  1  0
  8 18  1  0
 13 19  1  0
M  CHG  1  12  -1
M  END
>  <UniqueID>  (79) 
76

>  <SMILES>  (79) 
NS(=O)(=O)c1cccc(=O)c([O-])c1

>  <Energy>  (79) 
35.95878192120566

>  <Genealogy>  (79) 
NS(=O)(=O)c1cccc(=O)c([O-])c1 (protonated)
NS(=O)(=O)c1cccc(=O)c([O-])c1 (3D coordinates assigned)
NS(=O)(=O)c1cccc(=O)c([O-])c1 (optimized conformer: 35.95878192120566 kcal/mol)

>  <smiles>  (79) 
NS(=O)(=O)c1cccc(=O)c(O)c1

>  <score_type>  (79) 
oracle

>  <origin>  (79) 
adg

>  <m_score__min__energy>  (79) 
-9.4000000000000004

>  <m_primary>  (79) 
energy

$$$$
79:0
     RDKit          3D

 58 62  0  0  0  0  0  0  0  0999 V2000
   57.2220   31.9210   52.1800 O   0  0  0  0  0  0  0  0  0  0  0  0
   57.5830   30.7180   52.2620 C   0  0  0  0  0  0  0  0  0  0  0  0
   56.7730   29.7360   51.7040 O   0  0  0  0  0  0  0  0  0  0  0  0
   58.8290   30.3590   52.9870 C   0  0  0  0  0  0  0  0  0  0  0  0
   58.8270   30.4120   54.3940 C   0  0  0  0  0  0  0  0  0  0  0  0
   59.9460   30.0120   55.1250 C   0  0  0  0  0  0  0  0  0  0  0  0
   61.0850   29.5530   54.4660 C   0  0  0  0  0  0  0  0  0  0  0  0
   61.1160   29.5090   53.0720 C   0  0  0  0  0  0  0  0  0  0  0  0
   60.0030   29.9200   52.3170 C   0  0  0  0  0  0  0  0  0  0  0  0
   60.1310   29.9370   50.8430 C   0  0  0  0  0  0  0  0  0  0  0  0
   60.4140   28.7540   50.1440 C   0  0  0  0  0  0  0  0  0  0  0  0
   60.5430   28.7710   48.7530 C   0  0  0  0  0  0  0  0  0  0  0  0
   60.3910   29.9700   48.0390 C   0  0  0  0  0  0  0  0  0  0  0  0
   60.5130   29.9820   46.5370 C   0  0  0  0  0  0  0  0  0  0  0  0
   59.2780   30.4880   45.9220 N   0  0  0  0  0  0  0  0  0  0  0  0
   58.4020   29.8270   45.1100 C   0  0  0  0  0  0  0  0  0  0  0  0
   58.4810   28.3580   44.7660 C   0  0  0  0  0  0  0  0  0  0  0  0
   57.7030   27.4030   45.7360 C   0  0  0  0  0  0  0  0  0  0  0  0
   56.2050   27.6560   45.6150 C   0  0  0  0  0  0  0  0  0  0  0  0
   55.7580   28.7540   45.1840 O   0  0  0  0  0  0  0  0  0  0  0  0
   55.3000   26.6740   46.0060 O   0  0  0  0  0  0  0  0  0  0  0  0
   58.1460   27.6010   47.2040 C   0  0  0  0  0  0  0  0  0  0  0  0
   59.0560   26.4280   47.5740 C   0  0  0  0  0  0  0  0  0  0  0  0
   59.1380   25.5110   46.3600 C   0  0  0  0  0  0  0  0  0  0  0  0
   58.0070   25.9220   45.4310 C   0  0  0  0  0  0  0  0  0  0  0  0
   57.4290   30.6310   44.6050 N   0  0  0  0  0  0  0  0  0  0  0  0
   57.7120   31.8310   45.1380 C   0  0  0  0  0  0  0  0  0  0  0  0
   57.0210   33.0240   44.9430 C   0  0  0  0  0  0  0  0  0  0  0  0
   57.5070   34.1750   45.5900 C   0  0  0  0  0  0  0  0  0  0  0  0
   58.6600   34.1060   46.4040 C   0  0  0  0  0  0  0  0  0  0  0  0
   59.1310   35.2500   47.0350 O   0  0  0  0  0  0  0  0  0  0  0  0
   59.3350   32.8820   46.5800 C   0  0  0  0  0  0  0  0  0  0  0  0
   58.8220   31.7560   45.9260 C   0  0  0  0  0  0  0  0  0  0  0  0
   60.1360   31.1590   48.7420 C   0  0  0  0  0  0  0  0  0  0  0  0
   60.0080   31.1420   50.1340 C   0  0  0  0  0  0  0  0  0  0  0  0
   57.9327   30.7730   54.9231 H   0  0  0  0  0  0  0  0  0  0  0  0
   59.9292   30.0590   56.2239 H   0  0  0  0  0  0  0  0  0  0  0  0
   61.9605   29.2251   55.0456 H   0  0  0  0  0  0  0  0  0  0  0  0
   62.0198   29.1493   52.5584 H   0  0  0  0  0  0  0  0  0  0  0  0
   60.5349   27.8088   50.6936 H   0  0  0  0  0  0  0  0  0  0  0  0
   60.7652   27.8384   48.2136 H   0  0  0  0  0  0  0  0  0  0  0  0
   61.3530   30.6306   46.2477 H   0  0  0  0  0  0  0  0  0  0  0  0
   60.6881   28.9539   46.1871 H   0  0  0  0  0  0  0  0  0  0  0  0
   58.0713   28.2228   43.7541 H   0  0  0  0  0  0  0  0  0  0  0  0
   59.5422   28.0811   44.8507 H   0  0  0  0  0  0  0  0  0  0  0  0
   58.6953   28.5486   47.3056 H   0  0  0  0  0  0  0  0  0  0  0  0
   57.2715   27.6370   47.8703 H   0  0  0  0  0  0  0  0  0  0  0  0
   60.0589   26.7980   47.8335 H   0  0  0  0  0  0  0  0  0  0  0  0
   58.6548   25.8855   48.4428 H   0  0  0  0  0  0  0  0  0  0  0  0
   60.1078   25.6342   45.8556 H   0  0  0  0  0  0  0  0  0  0  0  0
   59.0480   24.4545   46.6529 H   0  0  0  0  0  0  0  0  0  0  0  0
   58.3165   25.8063   44.3818 H   0  0  0  0  0  0  0  0  0  0  0  0
   57.1174   25.2940   45.5867 H   0  0  0  0  0  0  0  0  0  0  0  0
   56.1259   33.0652   44.3050 H   0  0  0  0  0  0  0  0  0  0  0  0
   56.9859   35.1351   45.4613 H   0  0  0  0  0  0  0  0  0  0  0  0
   60.2343   32.8137   47.2098 H   0  0  0  0  0  0  0  0  0  0  0  0
   60.0366   32.1080   48.1947 H   0  0  0  0  0  0  0  0  0  0  0  0
   59.8098   32.0781   50.6766 H   0  0  0  0  0  0  0  0  0  0  0  0
  1  2  2  0
  2  3  1  0
  2  4  1  0
  4  5  2  0
  5  6  1  0
  6  7  2  0
  7  8  1  0
  8  9  2  0
  9 10  1  0
 10 11  2  0
 11 12  1  0
 12 13  2  0
 13 14  1  0
 14 15  1  0
 15 16  1  0
 16 17  1  0
 17 18  1  0
 18 19  1  0
 19 20  2  0
 19 21  1  0
 18 22  1  0
 22 23  1  0
 23 24  1  0
 24 25  1  0
 16 26  2  0
 26 27  1  0
 27 28  2  0
 28 29  1  0
 29 30  2  0
 30 31  1  0
 30 32  1  0
 32 33  2  0
 13 34  1  0
 34 35  2  0
  9  4  1  0
 35 10  1  0
 33 15  1  0
 25 18  1  0
 33 27  1  0
  5 36  1  0
  6 37  1  0
  7 38  1  0
  8 39  1  0
 11 40  1  0
 12 41  1  0
 14 42  1  0
 14 43  1  0
 17 44  1  0
 17 45  1  0
 22 46  1  0
 22 47  1  0
 23 48  1  0
 23 49  1  0
 24 50  1  0
 24 51  1  0
 25 52  1  0
 25 53  1  0
 28 54  1  0
 29 55  1  0
 32 56  1  0
 34 57  1  0
 35 58  1  0
M  CHG  3   3  -1  21  -1  31  -1
M  END
>  <UniqueID>  (80) 
77

>  <SMILES>  (80) 
O=C([O-])c1ccccc1-c1ccc(Cn2c(CC3(C(=O)[O-])CCCC3)nc3ccc([O-])cc32)cc1

>  <Energy>  (80) 
115.474892221558

>  <Genealogy>  (80) 
O=C([O-])c1ccccc1-c1ccc(Cn2c(CC3(C(=O)[O-])CCCC3)nc3ccc([O-])cc32)cc1 (protonated)
O=C([O-])c1ccccc1-c1ccc(Cn2c(CC3(C(=O)[O-])CCCC3)nc3ccc([O-])cc32)cc1 (3D coordinates assigned)
O=C([O-])c1ccccc1-c1ccc(Cn2c(CC3(C(=O)[O-])CCCC3)nc3ccc([O-])cc32)cc1 (nonaromatic ring conformer: 115.474892221558 kcal/mol)

>  <smiles>  (80) 
O=C(O)c1ccccc1-c1ccc(Cn2c(CC3(C(=O)O)CCCC3)nc3ccc(O)cc32)cc1

>  <score_type>  (80) 
oracle

>  <origin>  (80) 
adg

>  <m_score__min__energy>  (80) 
-16.030000000000001

>  <m_primary>  (80) 
energy

$$$$
80:0
     RDKit          3D

 67 71  0  0  0  0  0  0  0  0999 V2000
   57.9630   31.6090   43.5290 C   0  0  0  0  0  0  0  0  0  0  0  0
   56.9550   30.7450   42.7690 C   0  0  0  0  0  0  0  0  0  0  0  0
   56.3860   29.6250   43.6080 C   0  0  0  0  0  0  0  0  0  0  0  0
   55.1480   29.3810   43.5580 O   0  0  0  0  0  0  0  0  0  0  0  0
   57.2450   28.8000   44.4270 N   0  0  0  0  0  0  0  0  0  0  0  0
   58.7040   28.8000   44.2020 C   0  0  0  0  0  0  0  0  0  0  0  0
   59.4060   27.7760   45.0960 C   0  0  0  0  0  0  0  0  0  0  0  0
   58.9080   27.9190   46.4690 N   0  0  0  0  0  0  0  0  0  0  0  0
   59.7870   28.2920   47.5500 C   0  0  0  0  0  0  0  0  0  0  0  0
   60.0300   27.3990   48.6080 C   0  0  0  0  0  0  0  0  0  0  0  0
   60.8180   27.7880   49.6970 C   0  0  0  0  0  0  0  0  0  0  0  0
   61.3610   29.0760   49.7560 C   0  0  0  0  0  0  0  0  0  0  0  0
   62.1220   29.4470   50.9130 N   0  0  0  0  0  0  0  0  0  0  0  0
   62.5600   30.7660   51.2770 C   0  0  0  0  0  0  0  0  0  0  0  0
   61.6920   31.6100   51.6240 O   0  0  0  0  0  0  0  0  0  0  0  0
   63.9870   31.1810   51.2340 C   0  0  0  0  0  0  0  0  0  0  0  0
   64.8270   30.7580   52.2800 C   0  0  0  0  0  0  0  0  0  0  0  0
   66.1940   31.0450   52.2600 C   0  0  0  0  0  0  0  0  0  0  0  0
   66.7410   31.7660   51.2010 C   0  0  0  0  0  0  0  0  0  0  0  0
   65.9200   32.2160   50.1640 C   0  0  0  0  0  0  0  0  0  0  0  0
   64.5390   31.9520   50.1740 C   0  0  0  0  0  0  0  0  0  0  0  0
   63.7160   32.5140   49.0820 C   0  0  0  0  0  0  0  0  0  0  0  0
   64.2470   32.6940   47.9520 O   0  0  0  0  0  0  0  0  0  0  0  0
   62.3330   32.8410   49.3060 N   0  0  0  0  0  0  0  0  0  0  0  0
   61.4110   33.2380   48.2760 C   0  0  0  0  0  0  0  0  0  0  0  0
   61.9120   33.8420   47.1130 C   0  0  0  0  0  0  0  0  0  0  0  0
   61.0560   34.1970   46.0680 C   0  0  0  0  0  0  0  0  0  0  0  0
   59.6790   33.9550   46.1700 C   0  0  0  0  0  0  0  0  0  0  0  0
   58.8120   34.2990   45.1210 C   0  0  0  0  0  0  0  0  0  0  0  0
   57.4410   34.0460   45.2340 C   0  0  0  0  0  0  0  0  0  0  0  0
   56.9270   33.4560   46.3910 C   0  0  0  0  0  0  0  0  0  0  0  0
   57.7830   33.1010   47.4390 C   0  0  0  0  0  0  0  0  0  0  0  0
   59.1620   33.3450   47.3380 C   0  0  0  0  0  0  0  0  0  0  0  0
   60.0340   32.9720   48.3730 C   0  0  0  0  0  0  0  0  0  0  0  0
   61.1530   29.9600   48.6860 C   0  0  0  0  0  0  0  0  0  0  0  0
   60.3610   29.5770   47.6000 C   0  0  0  0  0  0  0  0  0  0  0  0
   57.4560   27.8570   46.7080 C   0  0  0  0  0  0  0  0  0  0  0  0
   56.6580   27.8580   45.3950 C   0  0  0  0  0  0  0  0  0  0  0  0
   57.8134   31.4808   44.6112 H   0  0  0  0  0  0  0  0  0  0  0  0
   58.9847   31.3018   43.2611 H   0  0  0  0  0  0  0  0  0  0  0  0
   57.8157   32.6657   43.2611 H   0  0  0  0  0  0  0  0  0  0  0  0
   56.1270   31.3864   42.4326 H   0  0  0  0  0  0  0  0  0  0  0  0
   57.4877   30.2848   41.9238 H   0  0  0  0  0  0  0  0  0  0  0  0
   58.9039   28.5526   43.1490 H   0  0  0  0  0  0  0  0  0  0  0  0
   59.0926   29.7992   44.4484 H   0  0  0  0  0  0  0  0  0  0  0  0
   59.1936   26.7604   44.7306 H   0  0  0  0  0  0  0  0  0  0  0  0
   60.4924   27.9475   45.0751 H   0  0  0  0  0  0  0  0  0  0  0  0
   59.5979   26.3878   48.5797 H   0  0  0  0  0  0  0  0  0  0  0  0
   61.0119   27.0759   50.5126 H   0  0  0  0  0  0  0  0  0  0  0  0
   64.4024   30.1944   53.1239 H   0  0  0  0  0  0  0  0  0  0  0  0
   66.8394   30.7012   53.0817 H   0  0  0  0  0  0  0  0  0  0  0  0
   67.8196   31.9811   51.1812 H   0  0  0  0  0  0  0  0  0  0  0  0
   66.3590   32.7834   49.3301 H   0  0  0  0  0  0  0  0  0  0  0  0
   61.9430   32.6760   50.2590 H   0  0  0  0  0  0  0  0  0  0  0  0
   62.9906   34.0381   47.0232 H   0  0  0  0  0  0  0  0  0  0  0  0
   61.4639   34.6682   45.1616 H   0  0  0  0  0  0  0  0  0  0  0  0
   59.2111   34.7679   44.2095 H   0  0  0  0  0  0  0  0  0  0  0  0
   56.7649   34.3128   44.4084 H   0  0  0  0  0  0  0  0  0  0  0  0
   55.8464   33.2700   46.4784 H   0  0  0  0  0  0  0  0  0  0  0  0
   57.3745   32.6293   48.3449 H   0  0  0  0  0  0  0  0  0  0  0  0
   59.6369   32.4679   49.2664 H   0  0  0  0  0  0  0  0  0  0  0  0
   61.6151   30.9581   48.7021 H   0  0  0  0  0  0  0  0  0  0  0  0
   60.1845   30.2854   46.7772 H   0  0  0  0  0  0  0  0  0  0  0  0
   57.2261   26.9355   47.2630 H   0  0  0  0  0  0  0  0  0  0  0  0
   57.1670   28.7492   47.2829 H   0  0  0  0  0  0  0  0  0  0  0  0
   56.6694   26.8455   44.9653 H   0  0  0  0  0  0  0  0  0  0  0  0
   55.6256   28.1710   45.6101 H   0  0  0  0  0  0  0  0  0  0  0  0
  1  2  1  0
  2  3  1  0
  3  4  2  0
  3  5  1  0
  5  6  1  0
  6  7  1  0
  7  8  1  0
  8  9  1  0
  9 10  2  0
 10 11  1  0
 11 12  2  0
 12 13  1  0
 13 14  1  0
 14 15  2  0
 14 16  1  0
 16 17  2  0
 17 18  1  0
 18 19  2  0
 19 20  1  0
 20 21  2  0
 21 22  1  0
 22 23  2  0
 22 24  1  0
 24 25  1  0
 25 26  2  0
 26 27  1  0
 27 28  2  0
 28 29  1  0
 29 30  2  0
 30 31  1  0
 31 32  2  0
 32 33  1  0
 33 34  2  0
 12 35  1  0
 35 36  2  0
  8 37  1  0
 37 38  1  0
 38  5  1  0
 36  9  1  0
 21 16  1  0
 34 25  1  0
 33 28  1  0
  1 39  1  0
  1 40  1  0
  1 41  1  0
  2 42  1  0
  2 43  1  0
  6 44  1  0
  6 45  1  0
  7 46  1  0
  7 47  1  0
 10 48  1  0
 11 49  1  0
 17 50  1  0
 18 51  1  0
 19 52  1  0
 20 53  1  0
 24 54  1  0
 26 55  1  0
 27 56  1  0
 29 57  1  0
 30 58  1  0
 31 59  1  0
 32 60  1  0
 34 61  1  0
 35 62  1  0
 36 63  1  0
 37 64  1  0
 37 65  1  0
 38 66  1  0
 38 67  1  0
M  CHG  1  13  -1
M  END
>  <UniqueID>  (81) 
78

>  <SMILES>  (81) 
CCC(=O)N1CCN(c2ccc([N-]C(=O)c3ccccc3C(=O)Nc3ccc4ccccc4c3)cc2)CC1

>  <Energy>  (81) 
94.4759459364181

>  <Genealogy>  (81) 
CCC(=O)N1CCN(c2ccc([N-]C(=O)c3ccccc3C(=O)Nc3ccc4ccccc4c3)cc2)CC1 (protonated)
CCC(=O)N1CCN(c2ccc([N-]C(=O)c3ccccc3C(=O)Nc3ccc4ccccc4c3)cc2)CC1 (3D coordinates assigned)
CCC(=O)N1CCN(c2ccc([N-]C(=O)c3ccccc3C(=O)Nc3ccc4ccccc4c3)cc2)CC1 (nonaromatic ring conformer: 94.4759459364181 kcal/mol)

>  <smiles>  (81) 
CCC(=O)N1CCN(c2ccc(NC(=O)c3ccccc3C(=O)Nc3ccc4ccccc4c3)cc2)CC1

>  <score_type>  (81) 
oracle

>  <origin>  (81) 
adg

>  <m_score__min__energy>  (81) 
-10.9

>  <m_primary>  (81) 
energy

$$$$
81:0
     RDKit          3D

 38 40  0  0  0  0  0  0  0  0999 V2000
   58.2377   20.8976   44.1917 H   0  0  0  0  0  0  0  0  0  0  0  0
   58.0390   21.9770   44.2660 C   0  0  0  0  0  0  0  0  0  0  0  0
   58.7570   22.7590   45.1750 C   0  0  0  0  0  0  0  0  0  0  0  0
   59.5203   22.2939   45.8161 H   0  0  0  0  0  0  0  0  0  0  0  0
   58.5070   24.1310   45.2710 C   0  0  0  0  0  0  0  0  0  0  0  0
   59.0745   24.7429   45.9876 H   0  0  0  0  0  0  0  0  0  0  0  0
   57.5330   24.7310   44.4550 C   0  0  0  0  0  0  0  0  0  0  0  0
   57.2730   26.1480   44.5530 N   0  0  0  0  0  0  0  0  0  0  0  0
   56.5010   26.6420   45.5690 C   0  0  0  0  0  0  0  0  0  0  0  0
   56.0150   25.8740   46.4440 O   0  0  0  0  0  0  0  0  0  0  0  0
   56.2610   27.9730   45.6540 N   0  0  0  0  0  0  0  0  0  0  0  0
   56.7760   28.8330   44.7450 C   0  0  0  0  0  0  0  0  0  0  0  0
   56.5150   30.1030   44.8670 N   0  0  0  0  0  0  0  0  0  0  0  0
   56.7860   31.1350   43.8690 C   0  0  0  0  0  0  0  0  0  0  0  0
   56.5348   30.7495   42.8699 H   0  0  0  0  0  0  0  0  0  0  0  0
   56.1746   32.0215   44.0935 H   0  0  0  0  0  0  0  0  0  0  0  0
   58.2650   31.5260   43.9030 C   0  0  0  0  0  0  0  0  0  0  0  0
   58.8662   30.6329   44.1290 H   0  0  0  0  0  0  0  0  0  0  0  0
   58.5360   31.9408   42.9209 H   0  0  0  0  0  0  0  0  0  0  0  0
   58.5330   32.5770   44.9530 C   0  0  0  0  0  0  0  0  0  0  0  0
   58.8340   33.8930   44.5640 C   0  0  0  0  0  0  0  0  0  0  0  0
   58.8970   34.1460   43.4953 H   0  0  0  0  0  0  0  0  0  0  0  0
   59.0540   34.8830   45.5260 C   0  0  0  0  0  0  0  0  0  0  0  0
   59.2966   35.9093   45.2131 H   0  0  0  0  0  0  0  0  0  0  0  0
   58.9660   34.5700   46.8840 C   0  0  0  0  0  0  0  0  0  0  0  0
   59.1406   35.3495   47.6403 H   0  0  0  0  0  0  0  0  0  0  0  0
   58.6560   33.2660   47.2830 C   0  0  0  0  0  0  0  0  0  0  0  0
   58.5857   33.0218   48.3532 H   0  0  0  0  0  0  0  0  0  0  0  0
   58.4350   32.2710   46.3240 C   0  0  0  0  0  0  0  0  0  0  0  0
   58.1250   31.0150   46.7340 F   0  0  0  0  0  0  0  0  0  0  0  0
   57.5500   28.3490   43.7300 N   0  0  0  0  0  0  0  0  0  0  0  0
   57.9630   28.9830   43.0100 H   0  0  0  0  0  0  0  0  0  0  0  0
   57.7960   27.0150   43.6320 C   0  0  0  0  0  0  0  0  0  0  0  0
   58.5000   26.5870   42.6760 O   0  0  0  0  0  0  0  0  0  0  0  0
   56.8140   23.9400   43.5450 C   0  0  0  0  0  0  0  0  0  0  0  0
   56.0484   24.4010   42.9037 H   0  0  0  0  0  0  0  0  0  0  0  0
   57.0680   22.5670   43.4510 C   0  0  0  0  0  0  0  0  0  0  0  0
   56.5033   21.9514   42.7354 H   0  0  0  0  0  0  0  0  0  0  0  0
  1  2  1  0
  2  3  2  0
  3  4  1  0
  3  5  1  0
  5  6  1  0
  5  7  2  0
  7  8  1  0
  8  9  1  0
  9 10  2  0
  9 11  1  0
 11 12  1  0
 12 13  2  0
 13 14  1  0
 14 15  1  0
 14 16  1  0
 14 17  1  0
 17 18  1  0
 17 19  1  0
 17 20  1  0
 20 21  2  0
 21 22  1  0
 21 23  1  0
 23 24  1  0
 23 25  2  0
 25 26  1  0
 25 27  1  0
 27 28  1  0
 27 29  2  0
 29 30  1  0
 12 31  1  0
 31 32  1  0
 31 33  1  0
 33 34  2  0
  7 35  1  0
 35 36  1  0
 35 37  2  0
 37 38  1  0
 37  2  1  0
 33  8  1  0
 29 20  1  0
M  CHG  1  11  -1
M  END
>  <UniqueID>  (82) 
79

>  <SMILES>  (82) 
O=c1[n-]/c(=N/CCc2ccccc2F)[nH]c(=O)n1-c1ccccc1

>  <Energy>  (82) 
49.534518054513065

>  <Genealogy>  (82) 
O=c1[n-]c(=NCCc2ccccc2F)[nH]c(=O)n1-c1ccccc1 (protonated)
O=c1[n-]/c(=N/CCc2ccccc2F)[nH]c(=O)n1-c1ccccc1 (cis-trans isomerization)
O=c1[n-]/c(=N/CCc2ccccc2F)[nH]c(=O)n1-c1ccccc1 (3D coordinates assigned)
O=c1[n-]/c(=N/CCc2ccccc2F)[nH]c(=O)n1-c1ccccc1 (optimized conformer: 49.534518054513065 kcal/mol)

>  <smiles>  (82) 
O=c1[nH]c(=NCCc2ccccc2F)[nH]c(=O)n1-c1ccccc1

>  <score_type>  (82) 
oracle

>  <origin>  (82) 
adg

>  <m_score__min__energy>  (82) 
-9.5600000000000005

>  <m_primary>  (82) 
energy

$$$$
82:0
     RDKit          3D

 60 63  0  0  0  0  0  0  0  0999 V2000
   58.7720   30.3490   47.6570 C   0  0  0  0  0  0  0  0  0  0  0  0
   58.5170   30.5980   46.3610 C   0  0  0  0  0  0  0  0  0  0  0  0
   58.4690   29.6390   45.3450 C   0  0  0  0  0  0  0  0  0  0  0  0
   58.6180   28.3040   45.4670 C   0  0  0  0  0  0  0  0  0  0  0  0
   57.5330   27.3990   45.8850 C   0  0  0  0  0  0  0  0  0  0  0  0
   57.7540   26.1950   46.4420 N   0  0  0  0  0  0  0  0  0  0  0  0
   56.5110   25.6990   46.6200 C   0  0  0  0  0  0  0  0  0  0  0  0
   56.2980   24.5720   47.1370 O   0  0  0  0  0  0  0  0  0  0  0  0
   55.5140   26.5020   46.1930 N   0  0  0  0  0  0  0  0  0  0  0  0
   56.1730   27.5710   45.7160 C   0  0  0  0  0  0  0  0  0  0  0  0
   55.5390   28.6470   45.1020 O   0  0  0  0  0  0  0  0  0  0  0  0
   58.2130   30.3250   44.1710 C   0  0  0  0  0  0  0  0  0  0  0  0
   58.1030   31.6650   44.5010 C   0  0  0  0  0  0  0  0  0  0  0  0
   57.9510   32.7870   43.4980 C   0  0  0  0  0  0  0  0  0  0  0  0
   57.7710   32.2850   42.0670 C   0  0  0  0  0  0  0  0  0  0  0  0
   58.3000   31.8360   45.8350 N   0  0  0  0  0  0  0  0  0  0  0  0
   58.3830   33.1360   46.5250 C   0  0  0  0  0  0  0  0  0  0  0  0
   59.6550   33.2250   47.3280 C   0  0  0  0  0  0  0  0  0  0  0  0
   59.6040   33.5170   48.7000 C   0  0  0  0  0  0  0  0  0  0  0  0
   60.7790   33.5720   49.4550 C   0  0  0  0  0  0  0  0  0  0  0  0
   62.0280   33.3370   48.8540 C   0  0  0  0  0  0  0  0  0  0  0  0
   63.2400   33.3950   49.6370 N   0  0  0  0  0  0  0  0  0  0  0  0
   64.5400   33.0760   49.0320 C   0  0  0  0  0  0  0  0  0  0  0  0
   65.4740   32.4260   50.0680 C   0  0  0  0  0  0  0  0  0  0  0  0
   65.5010   33.1110   51.3920 N   0  0  0  0  0  0  0  0  0  0  0  0
   66.8730   33.4660   51.8120 C   0  0  0  0  0  0  0  0  0  0  0  0
   67.8240   33.4560   50.6160 C   0  0  0  0  0  0  0  0  0  0  0  0
   64.6120   34.2870   51.4830 C   0  0  0  0  0  0  0  0  0  0  0  0
   63.2040   33.9350   51.0020 C   0  0  0  0  0  0  0  0  0  0  0  0
   62.0750   33.0570   47.4760 C   0  0  0  0  0  0  0  0  0  0  0  0
   60.8990   33.0020   46.7210 C   0  0  0  0  0  0  0  0  0  0  0  0
   58.7878   31.1752   48.3831 H   0  0  0  0  0  0  0  0  0  0  0  0
   58.9649   29.3190   47.9916 H   0  0  0  0  0  0  0  0  0  0  0  0
   59.6024   27.8675   45.2424 H   0  0  0  0  0  0  0  0  0  0  0  0
   54.7400   28.5180   44.4930 H   0  0  0  0  0  0  0  0  0  0  0  0
   58.1154   29.8885   43.1661 H   0  0  0  0  0  0  0  0  0  0  0  0
   57.0707   33.3866   43.7729 H   0  0  0  0  0  0  0  0  0  0  0  0
   58.8761   33.3815   43.5252 H   0  0  0  0  0  0  0  0  0  0  0  0
   57.3998   31.2497   42.0856 H   0  0  0  0  0  0  0  0  0  0  0  0
   57.0463   32.9250   41.5423 H   0  0  0  0  0  0  0  0  0  0  0  0
   58.7372   32.3187   41.5423 H   0  0  0  0  0  0  0  0  0  0  0  0
   58.3684   33.9439   45.7786 H   0  0  0  0  0  0  0  0  0  0  0  0
   57.5243   33.2340   47.2054 H   0  0  0  0  0  0  0  0  0  0  0  0
   58.6339   33.7036   49.1837 H   0  0  0  0  0  0  0  0  0  0  0  0
   60.7259   33.8013   50.5295 H   0  0  0  0  0  0  0  0  0  0  0  0
   64.3879   32.3790   48.1947 H   0  0  0  0  0  0  0  0  0  0  0  0
   65.0022   34.0072   48.6725 H   0  0  0  0  0  0  0  0  0  0  0  0
   65.1441   31.3884   50.2247 H   0  0  0  0  0  0  0  0  0  0  0  0
   66.4925   32.4964   49.6586 H   0  0  0  0  0  0  0  0  0  0  0  0
   66.8651   34.4712   52.2586 H   0  0  0  0  0  0  0  0  0  0  0  0
   67.2208   32.7246   52.5464 H   0  0  0  0  0  0  0  0  0  0  0  0
   68.8639   33.4451   50.9745 H   0  0  0  0  0  0  0  0  0  0  0  0
   67.6369   32.5598   50.0063 H   0  0  0  0  0  0  0  0  0  0  0  0
   67.6558   34.3560   50.0063 H   0  0  0  0  0  0  0  0  0  0  0  0
   64.5632   34.6233   52.5292 H   0  0  0  0  0  0  0  0  0  0  0  0
   65.0154   35.0870   50.8448 H   0  0  0  0  0  0  0  0  0  0  0  0
   62.7700   33.1822   51.6765 H   0  0  0  0  0  0  0  0  0  0  0  0
   62.5916   34.8488   51.0040 H   0  0  0  0  0  0  0  0  0  0  0  0
   63.0449   32.8798   46.9883 H   0  0  0  0  0  0  0  0  0  0  0  0
   60.9504   32.7824   45.6444 H   0  0  0  0  0  0  0  0  0  0  0  0
  1  2  2  0
  2  3  1  0
  3  4  2  3
  4  5  1  0
  5  6  1  0
  6  7  1  0
  7  8  2  0
  7  9  1  0
  9 10  1  0
 10 11  1  0
  3 12  1  0
 12 13  2  0
 13 14  1  0
 14 15  1  0
 13 16  1  0
 16 17  1  0
 17 18  1  0
 18 19  2  0
 19 20  1  0
 20 21  2  0
 21 22  1  0
 22 23  1  0
 23 24  1  0
 24 25  1  0
 25 26  1  0
 26 27  1  0
 25 28  1  0
 28 29  1  0
 21 30  1  0
 30 31  2  0
 16  2  1  0
 31 18  1  0
 10  5  2  0
 29 22  1  0
  1 32  1  0
  1 33  1  0
  4 34  1  0
 11 35  1  0
 12 36  1  0
 14 37  1  0
 14 38  1  0
 15 39  1  0
 15 40  1  0
 15 41  1  0
 17 42  1  0
 17 43  1  0
 19 44  1  0
 20 45  1  0
 23 46  1  0
 23 47  1  0
 24 48  1  0
 24 49  1  0
 26 50  1  0
 26 51  1  0
 27 52  1  0
 27 53  1  0
 27 54  1  0
 28 55  1  0
 28 56  1  0
 29 57  1  0
 29 58  1  0
 30 59  1  0
 31 60  1  0
M  CHG  2   6  -1   9  -1
M  END
>  <UniqueID>  (83) 
80

>  <SMILES>  (83) 
C=c1c(=Cc2[n-]c(=O)[n-]c2O)cc(CC)n1Cc1ccc(N2CCN(CC)CC2)cc1

>  <Energy>  (83) 
134.35824407671072

>  <Genealogy>  (83) 
C=c1c(=Cc2[n-]c(=O)[n-]c2O)cc(CC)n1Cc1ccc(N2CCN(CC)CC2)cc1 (protonated)
C=c1c(=Cc2[n-]c(=O)[n-]c2O)cc(CC)n1Cc1ccc(N2CCN(CC)CC2)cc1 (3D coordinates assigned)
C=c1c(=Cc2[n-]c(=O)[n-]c2O)cc(CC)n1Cc1ccc(N2CCN(CC)CC2)cc1 (nonaromatic ring conformer: 134.35824407671072 kcal/mol)

>  <smiles>  (83) 
C=c1c(=Cc2[nH]c(=O)[nH]c2O)cc(CC)n1Cc1ccc(N2CCN(CC)CC2)cc1

>  <score_type>  (83) 
oracle

>  <origin>  (83) 
adg

>  <m_score__min__energy>  (83) 
-13.31

>  <m_primary>  (83) 
energy

$$$$
83:0
     RDKit          3D

 48 51  0  0  0  0  0  0  0  0999 V2000
   53.7500   21.7760   45.7990 O   0  0  0  0  0  0  0  0  0  0  0  0
   54.0470   23.0010   45.8480 C   0  0  0  0  0  0  0  0  0  0  0  0
   55.3200   23.4290   46.5120 C   0  0  0  0  0  0  0  0  0  0  0  0
   56.0200   24.3620   45.6920 O   0  0  0  0  0  0  0  0  0  0  0  0
   55.8540   25.7500   45.7920 C   0  0  0  0  0  0  0  0  0  0  0  0
   54.7050   26.2360   45.9820 O   0  0  0  0  0  0  0  0  0  0  0  0
   57.0260   26.6410   45.6580 C   0  0  0  0  0  0  0  0  0  0  0  0
   58.3280   26.1230   45.7630 C   0  0  0  0  0  0  0  0  0  0  0  0
   59.4370   26.9590   45.6100 C   0  0  0  0  0  0  0  0  0  0  0  0
   59.2600   28.3200   45.3480 C   0  0  0  0  0  0  0  0  0  0  0  0
   57.9680   28.8540   45.2490 C   0  0  0  0  0  0  0  0  0  0  0  0
   57.7360   30.5580   44.8680 S   0  0  0  0  0  0  0  0  0  0  0  0
   56.2700   30.8450   44.7060 O   0  0  0  0  0  0  0  0  0  0  0  0
   58.4450   30.8770   43.5810 O   0  0  0  0  0  0  0  0  0  0  0  0
   58.3810   31.5330   46.1480 N   0  0  0  0  0  0  0  0  0  0  0  0
   58.5830   31.0800   47.5210 C   0  0  0  0  0  0  0  0  0  0  0  0
   59.1620   32.2980   48.2850 C   0  0  0  0  0  0  0  0  0  0  0  0
   59.2330   33.3590   47.2410 C   0  0  0  0  0  0  0  0  0  0  0  0
   59.6810   34.6750   47.3780 C   0  0  0  0  0  0  0  0  0  0  0  0
   59.6570   35.5110   46.2490 C   0  0  0  0  0  0  0  0  0  0  0  0
   59.1890   35.0210   45.0140 C   0  0  0  0  0  0  0  0  0  0  0  0
   58.7450   33.6940   44.9010 C   0  0  0  0  0  0  0  0  0  0  0  0
   58.7810   32.8850   46.0410 C   0  0  0  0  0  0  0  0  0  0  0  0
   56.8560   28.0150   45.4010 C   0  0  0  0  0  0  0  0  0  0  0  0
   53.1770   23.9800   45.2680 N   0  0  0  0  0  0  0  0  0  0  0  0
   51.8640   23.6190   44.7410 C   0  0  0  0  0  0  0  0  0  0  0  0
   50.9910   24.8260   44.4420 C   0  0  0  0  0  0  0  0  0  0  0  0
   51.6370   24.0540   43.3030 C   0  0  0  0  0  0  0  0  0  0  0  0
   55.0842   23.9007   47.4774 H   0  0  0  0  0  0  0  0  0  0  0  0
   55.9554   22.5447   46.6680 H   0  0  0  0  0  0  0  0  0  0  0  0
   58.4751   25.0521   45.9670 H   0  0  0  0  0  0  0  0  0  0  0  0
   60.4523   26.5445   45.6961 H   0  0  0  0  0  0  0  0  0  0  0  0
   60.1357   28.9731   45.2193 H   0  0  0  0  0  0  0  0  0  0  0  0
   57.6269   30.7675   47.9661 H   0  0  0  0  0  0  0  0  0  0  0  0
   59.2594   30.2137   47.5668 H   0  0  0  0  0  0  0  0  0  0  0  0
   58.4966   32.5992   49.1076 H   0  0  0  0  0  0  0  0  0  0  0  0
   60.1360   32.0888   48.7514 H   0  0  0  0  0  0  0  0  0  0  0  0
   60.0441   35.0480   48.3470 H   0  0  0  0  0  0  0  0  0  0  0  0
   60.0048   36.5515   46.3297 H   0  0  0  0  0  0  0  0  0  0  0  0
   59.1714   35.6811   44.1342 H   0  0  0  0  0  0  0  0  0  0  0  0
   58.3785   33.3011   43.9412 H   0  0  0  0  0  0  0  0  0  0  0  0
   55.8419   28.4332   45.3189 H   0  0  0  0  0  0  0  0  0  0  0  0
   53.5020   24.9700   45.1880 H   0  0  0  0  0  0  0  0  0  0  0  0
   51.7397   22.6773   45.2958 H   0  0  0  0  0  0  0  0  0  0  0  0
   49.9034   24.7702   44.5971 H   0  0  0  0  0  0  0  0  0  0  0  0
   50.9826   25.8784   44.7621 H   0  0  0  0  0  0  0  0  0  0  0  0
   51.0169   23.4394   42.6338 H   0  0  0  0  0  0  0  0  0  0  0  0
   52.2897   24.3162   42.4573 H   0  0  0  0  0  0  0  0  0  0  0  0
  1  2  2  0
  2  3  1  0
  3  4  1  0
  4  5  1  0
  5  6  2  0
  5  7  1  0
  7  8  2  0
  8  9  1  0
  9 10  2  0
 10 11  1  0
 11 12  1  0
 12 13  2  0
 12 14  2  0
 12 15  1  0
 15 16  1  0
 16 17  1  0
 17 18  1  0
 18 19  2  0
 19 20  1  0
 20 21  2  0
 21 22  1  0
 22 23  2  0
 11 24  2  0
  2 25  1  0
 25 26  1  0
 26 27  1  0
 27 28  1  0
 24  7  1  0
 28 26  1  0
 23 15  1  0
 23 18  1  0
  3 29  1  0
  3 30  1  0
  8 31  1  0
  9 32  1  0
 10 33  1  0
 16 34  1  0
 16 35  1  0
 17 36  1  0
 17 37  1  0
 19 38  1  0
 20 39  1  0
 21 40  1  0
 22 41  1  0
 24 42  1  0
 25 43  1  0
 26 44  1  0
 27 45  1  0
 27 46  1  0
 28 47  1  0
 28 48  1  0
M  END
>  <UniqueID>  (84) 
81

>  <SMILES>  (84) 
O=C(COC(=O)c1cccc(S(=O)(=O)N2CCc3ccccc32)c1)NC1CC1

>  <Energy>  (84) 
326.3825999822546

>  <Genealogy>  (84) 
O=C(COC(=O)c1cccc(S(=O)(=O)N2CCc3ccccc32)c1)NC1CC1 (3D coordinates assigned)
O=C(COC(=O)c1cccc(S(=O)(=O)N2CCc3ccccc32)c1)NC1CC1 (nonaromatic ring conformer: 326.3825999822546 kcal/mol)

>  <smiles>  (84) 
O=C(COC(=O)c1cccc(S(=O)(=O)N2CCc3ccccc32)c1)NC1CC1

>  <score_type>  (84) 
oracle

>  <origin>  (84) 
adg

>  <m_score__min__energy>  (84) 
-9.2200000000000006

>  <m_primary>  (84) 
energy

$$$$
84:0
     RDKit          3D

 36 38  0  0  0  0  0  0  0  0999 V2000
   57.3047   32.8385   41.9888 H   0  0  0  0  0  0  0  0  0  0  0  0
   57.7730   32.0430   42.5870 C   0  0  0  0  0  0  0  0  0  0  0  0
   58.6061   31.4588   42.1692 H   0  0  0  0  0  0  0  0  0  0  0  0
   57.3310   31.7870   43.8180 C   0  0  0  0  0  0  0  0  0  0  0  0
   56.4967   32.3848   44.2136 H   0  0  0  0  0  0  0  0  0  0  0  0
   57.9200   30.7250   44.6800 C   0  0  0  0  0  0  0  0  0  0  0  0
   57.6300   29.3870   44.3600 C   0  0  0  0  0  0  0  0  0  0  0  0
   57.0977   29.1636   43.4236 H   0  0  0  0  0  0  0  0  0  0  0  0
   58.0010   28.3310   45.2020 C   0  0  0  0  0  0  0  0  0  0  0  0
   57.6630   27.0680   44.8600 C   0  0  0  0  0  0  0  0  0  0  0  0
   57.7657   26.7861   43.8017 H   0  0  0  0  0  0  0  0  0  0  0  0
   57.1670   26.0360   45.7920 C   0  0  0  0  0  0  0  0  0  0  0  0
   55.8820   25.8670   46.2680 C   0  0  0  0  0  0  0  0  0  0  0  0
   54.7980   26.6930   45.9990 O   0  0  0  0  0  0  0  0  0  0  0  0
   55.7970   24.7460   47.0090 N   0  0  0  0  0  0  0  0  0  0  0  0
   57.0500   24.2460   46.9430 C   0  0  0  0  0  0  0  0  0  0  0  0
   57.3900   23.1760   47.5120 O   0  0  0  0  0  0  0  0  0  0  0  0
   57.8980   24.9870   46.2040 N   0  0  0  0  0  0  0  0  0  0  0  0
   58.9020   24.7880   45.9950 H   0  0  0  0  0  0  0  0  0  0  0  0
   58.7620   28.6250   46.3430 C   0  0  0  0  0  0  0  0  0  0  0  0
   59.0945   27.8022   46.9930 H   0  0  0  0  0  0  0  0  0  0  0  0
   59.1090   29.9420   46.6750 C   0  0  0  0  0  0  0  0  0  0  0  0
   60.1730   30.1000   47.7410 C   0  0  0  0  0  0  0  0  0  0  0  0
   59.7085   30.0310   48.7357 H   0  0  0  0  0  0  0  0  0  0  0  0
   60.9236   29.3035   47.6308 H   0  0  0  0  0  0  0  0  0  0  0  0
   60.6597   31.0803   47.6308 H   0  0  0  0  0  0  0  0  0  0  0  0
   58.6070   31.0310   45.8950 C   0  0  0  0  0  0  0  0  0  0  0  0
   58.8410   32.3270   46.2460 C   0  0  0  0  0  0  0  0  0  0  0  0
   59.2460   33.2660   45.3670 N   0  0  0  0  0  0  0  0  0  0  0  0
   59.4130   34.3730   46.1170 C   0  0  0  0  0  0  0  0  0  0  0  0
   59.8050   35.4670   45.6360 O   0  0  0  0  0  0  0  0  0  0  0  0
   59.1120   34.2170   47.4200 N   0  0  0  0  0  0  0  0  0  0  0  0
   58.7330   32.9280   47.5040 C   0  0  0  0  0  0  0  0  0  0  0  0
   58.1720   32.4240   48.6050 C   0  0  0  0  0  0  0  0  0  0  0  0
   57.8754   31.3652   48.6358 H   0  0  0  0  0  0  0  0  0  0  0  0
   58.0062   33.0674   49.4817 H   0  0  0  0  0  0  0  0  0  0  0  0
  1  2  1  0
  2  3  1  0
  2  4  2  0
  4  5  1  0
  4  6  1  0
  6  7  2  0
  7  8  1  0
  7  9  1  0
  9 10  2  0
 10 11  1  0
 10 12  1  0
 12 13  2  0
 13 14  1  0
 13 15  1  0
 15 16  1  0
 16 17  2  0
 16 18  1  0
 18 19  1  0
  9 20  1  0
 20 21  1  0
 20 22  2  0
 22 23  1  0
 23 24  1  0
 23 25  1  0
 23 26  1  0
 22 27  1  0
 27 28  2  3
 28 29  1  0
 29 30  1  0
 30 31  2  0
 30 32  1  0
 32 33  1  0
 33 34  2  0
 34 35  1  0
 34 36  1  0
 27  6  1  0
 33 28  1  0
 18 12  1  0
M  CHG  4  14  -1  15  -1  29  -1  32  -1
M  END
>  <UniqueID>  (85) 
82

>  <SMILES>  (85) 
C=Cc1c/c(=C/c2[nH]c(=O)[n-]c2[O-])cc(C)c1=c1[n-]c(=O)[n-]c1=C

>  <Energy>  (85) 
140.60280275122753

>  <Genealogy>  (85) 
C=Cc1cc(=Cc2[nH]c(=O)[n-]c2[O-])cc(C)c1=c1[n-]c(=O)[n-]c1=C (protonated)
C=Cc1c/c(=C/c2[nH]c(=O)[n-]c2[O-])cc(C)c1=c1[n-]c(=O)[n-]c1=C (cis-trans isomerization)
C=Cc1c/c(=C/c2[nH]c(=O)[n-]c2[O-])cc(C)c1=c1[n-]c(=O)[n-]c1=C (3D coordinates assigned)
C=Cc1c/c(=C/c2[nH]c(=O)[n-]c2[O-])cc(C)c1=c1[n-]c(=O)[n-]c1=C (optimized conformer: 140.60280275122753 kcal/mol)

>  <smiles>  (85) 
C=Cc1cc(=Cc2[nH]c(=O)[nH]c2O)cc(C)c1=c1[nH]c(=O)[nH]c1=C

>  <score_type>  (85) 
oracle

>  <origin>  (85) 
adg

>  <m_score__min__energy>  (85) 
-15.050000000000001

>  <m_primary>  (85) 
energy

$$$$
85:0
     RDKit          3D

 50 53  0  0  0  0  0  0  0  0999 V2000
   54.9075   29.9843   56.0324 H   0  0  0  0  0  0  0  0  0  0  0  0
   54.2150   30.1740   55.1990 C   0  0  0  0  0  0  0  0  0  0  0  0
   53.1286   30.1294   55.3656 H   0  0  0  0  0  0  0  0  0  0  0  0
   54.6960   30.4600   53.9780 C   0  0  0  0  0  0  0  0  0  0  0  0
   53.9440   30.7240   52.8230 C   0  0  0  0  0  0  0  0  0  0  0  0
   52.6350   31.0020   52.6660 C   0  0  0  0  0  0  0  0  0  0  0  0
   52.0387   31.1364   53.5805 H   0  0  0  0  0  0  0  0  0  0  0  0
   51.9310   31.1420   51.3810 C   0  0  0  0  0  0  0  0  0  0  0  0
   52.0260   30.2450   50.3840 N   0  0  0  0  0  0  0  0  0  0  0  0
   51.3560   30.8290   49.3700 C   0  0  0  0  0  0  0  0  0  0  0  0
   51.2100   30.2790   48.2470 O   0  0  0  0  0  0  0  0  0  0  0  0
   50.8620   32.0550   49.6470 N   0  0  0  0  0  0  0  0  0  0  0  0
   51.2490   32.2470   50.9180 C   0  0  0  0  0  0  0  0  0  0  0  0
   51.0190   33.4210   51.6250 O   0  0  0  0  0  0  0  0  0  0  0  0
   54.8320   30.6770   51.7660 C   0  0  0  0  0  0  0  0  0  0  0  0
   54.5860   30.7876   50.6996 H   0  0  0  0  0  0  0  0  0  0  0  0
   56.0860   30.4650   52.3010 C   0  0  0  0  0  0  0  0  0  0  0  0
   57.3490   30.4360   51.4830 C   0  0  0  0  0  0  0  0  0  0  0  0
   58.0519   29.7123   51.9212 H   0  0  0  0  0  0  0  0  0  0  0  0
   57.1083   30.1390   50.4516 H   0  0  0  0  0  0  0  0  0  0  0  0
   57.9800   31.8050   51.4740 C   0  0  0  0  0  0  0  0  0  0  0  0
   57.2760   32.7710   51.7320 O   0  0  0  0  0  0  0  0  0  0  0  0
   59.3980   31.9770   51.1920 N   0  0  0  0  0  0  0  0  0  0  0  0
   59.9280   31.7070   52.0530 H   0  0  0  0  0  0  0  0  0  0  0  0
   59.8780   31.0710   50.1250 C   0  0  0  0  0  0  0  0  0  0  0  0
   60.9737   31.0017   50.1926 H   0  0  0  0  0  0  0  0  0  0  0  0
   59.3905   30.0973   50.2808 H   0  0  0  0  0  0  0  0  0  0  0  0
   59.5050   31.5460   48.7090 C   0  0  0  0  0  0  0  0  0  0  0  0
   60.0089   30.9069   47.9689 H   0  0  0  0  0  0  0  0  0  0  0  0
   58.4136   31.4798   48.5889 H   0  0  0  0  0  0  0  0  0  0  0  0
   59.9220   32.9470   48.5040 N   0  0  0  0  0  0  0  0  0  0  0  0
   59.7630   33.5130   47.1370 C   0  0  0  0  0  0  0  0  0  0  0  0
   60.5999   32.9210   46.7381 H   0  0  0  0  0  0  0  0  0  0  0  0
   59.2910   34.9630   47.0750 C   0  0  0  0  0  0  0  0  0  0  0  0
   59.0672   35.5079   48.0040 H   0  0  0  0  0  0  0  0  0  0  0  0
   59.6818   35.8877   46.6254 H   0  0  0  0  0  0  0  0  0  0  0  0
   58.3660   33.8480   46.6060 C   0  0  0  0  0  0  0  0  0  0  0  0
   57.4757   33.5868   47.1968 H   0  0  0  0  0  0  0  0  0  0  0  0
   57.8137   33.6333   45.6792 H   0  0  0  0  0  0  0  0  0  0  0  0
   59.3320   33.8400   49.5140 C   0  0  0  0  0  0  0  0  0  0  0  0
   59.6885   34.8665   49.3433 H   0  0  0  0  0  0  0  0  0  0  0  0
   58.2360   33.8024   49.4282 H   0  0  0  0  0  0  0  0  0  0  0  0
   59.7380   33.3910   50.9250 C   0  0  0  0  0  0  0  0  0  0  0  0
   60.8248   33.5190   51.0363 H   0  0  0  0  0  0  0  0  0  0  0  0
   59.1807   34.0090   51.6444 H   0  0  0  0  0  0  0  0  0  0  0  0
   56.0130   30.3720   53.6510 N   0  0  0  0  0  0  0  0  0  0  0  0
   57.1320   30.1090   54.5610 C   0  0  0  0  0  0  0  0  0  0  0  0
   56.7852   30.1905   55.6017 H   0  0  0  0  0  0  0  0  0  0  0  0
   57.5197   29.0953   54.3820 H   0  0  0  0  0  0  0  0  0  0  0  0
   57.9307   30.8439   54.3820 H   0  0  0  0  0  0  0  0  0  0  0  0
  1  2  1  0
  2  3  1  0
  2  4  2  0
  4  5  1  0
  5  6  2  0
  6  7  1  0
  6  8  1  0
  8  9  1  0
  9 10  1  0
 10 11  2  0
 10 12  1  0
 12 13  1  0
 13 14  1  0
  5 15  1  0
 15 16  1  0
 15 17  2  0
 17 18  1  0
 18 19  1  0
 18 20  1  0
 18 21  1  0
 21 22  2  0
 21 23  1  0
 23 24  1  0
 23 25  1  0
 25 26  1  0
 25 27  1  0
 25 28  1  0
 28 29  1  0
 28 30  1  0
 28 31  1  0
 31 32  1  0
 32 33  1  0
 32 34  1  0
 34 35  1  0
 34 36  1  0
 34 37  1  0
 37 38  1  0
 37 39  1  0
 31 40  1  0
 40 41  1  0
 40 42  1  0
 40 43  1  0
 43 44  1  0
 43 45  1  0
 17 46  1  0
 46 47  1  0
 47 48  1  0
 47 49  1  0
 47 50  1  0
 46  4  1  0
 13  8  2  0
 43 23  1  0
 37 32  1  0
M  CHG  4   9  -1  12  -1  14  -1  23   1
M  END
>  <UniqueID>  (86) 
83

>  <SMILES>  (86) 
C=c1/c(=C\c2[n-]c(=O)[n-]c2[O-])cc(CC(=O)[NH+]2CCN(C3CC3)CC2)n1C

>  <Energy>  (86) 
399.571230997733

>  <Genealogy>  (86) 
C=c1c(=Cc2[n-]c(=O)[n-]c2[O-])cc(CC(=O)[NH+]2CCN(C3CC3)CC2)n1C (protonated)
C=c1/c(=C\c2[n-]c(=O)[n-]c2[O-])cc(CC(=O)[NH+]2CCN(C3CC3)CC2)n1C (cis-trans isomerization)
C=c1/c(=C\c2[n-]c(=O)[n-]c2[O-])cc(CC(=O)[NH+]2CCN(C3CC3)CC2)n1C (3D coordinates assigned)
C=c1/c(=C\c2[n-]c(=O)[n-]c2[O-])cc(CC(=O)[NH+]2CCN(C3CC3)CC2)n1C (nonaromatic ring conformer: 399.571230997733 kcal/mol)

>  <smiles>  (86) 
C=c1c(=Cc2[nH]c(=O)[nH]c2O)cc(CC(=O)N2CCN(C3CC3)CC2)n1C

>  <score_type>  (86) 
oracle

>  <origin>  (86) 
adg

>  <m_score__min__energy>  (86) 
-16.170000000000002

>  <m_primary>  (86) 
energy

$$$$
86:0
     RDKit          3D

 62 66  0  0  0  0  0  0  0  0999 V2000
   59.0420   30.0190   44.4290 C   0  0  0  0  0  0  0  0  0  0  0  0
   58.9630   29.7910   45.7490 C   0  0  0  0  0  0  0  0  0  0  0  0
   58.7890   28.5510   46.3840 C   0  0  0  0  0  0  0  0  0  0  0  0
   58.4520   27.3420   45.8890 C   0  0  0  0  0  0  0  0  0  0  0  0
   57.1380   26.6920   46.0510 C   0  0  0  0  0  0  0  0  0  0  0  0
   56.9680   25.3980   46.3790 N   0  0  0  0  0  0  0  0  0  0  0  0
   55.6340   25.2180   46.2750 C   0  0  0  0  0  0  0  0  0  0  0  0
   55.0780   24.1180   46.5240 O   0  0  0  0  0  0  0  0  0  0  0  0
   54.9470   26.3050   45.8660 N   0  0  0  0  0  0  0  0  0  0  0  0
   55.9120   27.2270   45.7140 C   0  0  0  0  0  0  0  0  0  0  0  0
   55.6680   28.5190   45.2620 O   0  0  0  0  0  0  0  0  0  0  0  0
   58.9370   28.7860   47.7410 C   0  0  0  0  0  0  0  0  0  0  0  0
   59.1210   30.1440   47.8940 C   0  0  0  0  0  0  0  0  0  0  0  0
   59.1440   30.8500   49.2180 C   0  0  0  0  0  0  0  0  0  0  0  0
   59.1440   30.7560   46.6890 N   0  0  0  0  0  0  0  0  0  0  0  0
   59.2970   32.1730   46.4710 C   0  0  0  0  0  0  0  0  0  0  0  0
   58.2370   32.8980   45.9000 C   0  0  0  0  0  0  0  0  0  0  0  0
   57.0830   32.2700   45.5620 F   0  0  0  0  0  0  0  0  0  0  0  0
   58.3700   34.2630   45.6450 C   0  0  0  0  0  0  0  0  0  0  0  0
   59.5660   34.9180   45.9410 C   0  0  0  0  0  0  0  0  0  0  0  0
   59.6940   36.2420   45.6840 F   0  0  0  0  0  0  0  0  0  0  0  0
   60.6330   34.2080   46.4930 C   0  0  0  0  0  0  0  0  0  0  0  0
   60.5070   32.8390   46.7790 C   0  0  0  0  0  0  0  0  0  0  0  0
   61.6700   32.1230   47.3390 C   0  0  0  0  0  0  0  0  0  0  0  0
   62.0310   31.0400   46.8000 O   0  0  0  0  0  0  0  0  0  0  0  0
   62.3960   32.6330   48.4730 N   0  0  0  0  0  0  0  0  0  0  0  0
   62.9730   31.6740   49.4290 C   0  0  0  0  0  0  0  0  0  0  0  0
   64.0420   32.3230   50.3090 C   0  0  0  0  0  0  0  0  0  0  0  0
   63.5530   33.6040   50.8260 N   0  0  0  0  0  0  0  0  0  0  0  0
   63.8000   33.9850   52.1930 C   0  0  0  0  0  0  0  0  0  0  0  0
   64.2590   35.1340   52.4420 O   0  0  0  0  0  0  0  0  0  0  0  0
   63.5140   33.0600   53.3140 C   0  0  0  0  0  0  0  0  0  0  0  0
   64.5650   32.4790   54.0460 C   0  0  0  0  0  0  0  0  0  0  0  0
   64.2910   31.5940   55.0930 C   0  0  0  0  0  0  0  0  0  0  0  0
   62.9700   31.2770   55.4160 C   0  0  0  0  0  0  0  0  0  0  0  0
   61.9190   31.8380   54.6850 C   0  0  0  0  0  0  0  0  0  0  0  0
   62.1880   32.7200   53.6330 C   0  0  0  0  0  0  0  0  0  0  0  0
   62.9390   34.5780   49.9190 C   0  0  0  0  0  0  0  0  0  0  0  0
   62.8160   34.0420   48.4850 C   0  0  0  0  0  0  0  0  0  0  0  0
   59.1800   31.0443   44.0552 H   0  0  0  0  0  0  0  0  0  0  0  0
   58.9688   29.1806   43.7207 H   0  0  0  0  0  0  0  0  0  0  0  0
   59.2189   26.7973   45.3188 H   0  0  0  0  0  0  0  0  0  0  0  0
   54.7660   28.9610   45.3850 H   0  0  0  0  0  0  0  0  0  0  0  0
   58.9125   28.0335   48.5430 H   0  0  0  0  0  0  0  0  0  0  0  0
   59.1198   30.1080   50.0297 H   0  0  0  0  0  0  0  0  0  0  0  0
   60.0622   31.4505   49.2974 H   0  0  0  0  0  0  0  0  0  0  0  0
   58.2669   31.5090   49.2974 H   0  0  0  0  0  0  0  0  0  0  0  0
   57.5301   34.8243   45.2096 H   0  0  0  0  0  0  0  0  0  0  0  0
   61.5804   34.7249   46.7058 H   0  0  0  0  0  0  0  0  0  0  0  0
   62.1698   31.2856   50.0724 H   0  0  0  0  0  0  0  0  0  0  0  0
   63.4474   30.8636   48.8562 H   0  0  0  0  0  0  0  0  0  0  0  0
   64.2757   31.6552   51.1513 H   0  0  0  0  0  0  0  0  0  0  0  0
   64.9477   32.4967   49.7094 H   0  0  0  0  0  0  0  0  0  0  0  0
   65.6077   32.7221   53.7935 H   0  0  0  0  0  0  0  0  0  0  0  0
   65.1180   31.1463   55.6637 H   0  0  0  0  0  0  0  0  0  0  0  0
   62.7567   30.5863   56.2451 H   0  0  0  0  0  0  0  0  0  0  0  0
   60.8785   31.5855   54.9374 H   0  0  0  0  0  0  0  0  0  0  0  0
   61.3580   33.1494   53.0528 H   0  0  0  0  0  0  0  0  0  0  0  0
   61.9339   34.8242   50.2921 H   0  0  0  0  0  0  0  0  0  0  0  0
   63.5862   35.4670   49.8917 H   0  0  0  0  0  0  0  0  0  0  0  0
   62.0714   34.6420   47.9413 H   0  0  0  0  0  0  0  0  0  0  0  0
   63.8022   34.1133   48.0030 H   0  0  0  0  0  0  0  0  0  0  0  0
  1  2  2  0
  2  3  1  0
  3  4  2  3
  4  5  1  0
  5  6  1  0
  6  7  1  0
  7  8  2  0
  7  9  1  0
  9 10  1  0
 10 11  1  0
  3 12  1  0
 12 13  2  0
 13 14  1  0
 13 15  1  0
 15 16  1  0
 16 17  2  0
 17 18  1  0
 17 19  1  0
 19 20  2  0
 20 21  1  0
 20 22  1  0
 22 23  2  0
 23 24  1  0
 24 25  2  0
 24 26  1  0
 26 27  1  0
 27 28  1  0
 28 29  1  0
 29 30  1  0
 30 31  2  0
 30 32  1  0
 32 33  2  0
 33 34  1  0
 34 35  2  0
 35 36  1  0
 36 37  2  0
 29 38  1  0
 38 39  1  0
 15  2  1  0
 23 16  1  0
 39 26  1  0
 10  5  2  0
 37 32  1  0
  1 40  1  0
  1 41  1  0
  4 42  1  0
 11 43  1  0
 12 44  1  0
 14 45  1  0
 14 46  1  0
 14 47  1  0
 19 48  1  0
 22 49  1  0
 27 50  1  0
 27 51  1  0
 28 52  1  0
 28 53  1  0
 33 54  1  0
 34 55  1  0
 35 56  1  0
 36 57  1  0
 37 58  1  0
 38 59  1  0
 38 60  1  0
 39 61  1  0
 39 62  1  0
M  CHG  2   6  -1   9  -1
M  END
>  <UniqueID>  (87) 
84

>  <SMILES>  (87) 
C=c1c(=Cc2[n-]c(=O)[n-]c2O)cc(C)n1-c1c(F)cc(F)cc1C(=O)N1CCN(C(=O)c2ccccc2)CC1

>  <Energy>  (87) 
150.4932131414416

>  <Genealogy>  (87) 
C=c1c(=Cc2[n-]c(=O)[n-]c2O)cc(C)n1-c1c(F)cc(F)cc1C(=O)N1CCN(C(=O)c2ccccc2)CC1 (protonated)
C=c1c(=Cc2[n-]c(=O)[n-]c2O)cc(C)n1-c1c(F)cc(F)cc1C(=O)N1CCN(C(=O)c2ccccc2)CC1 (3D coordinates assigned)
C=c1c(=Cc2[n-]c(=O)[n-]c2O)cc(C)n1-c1c(F)cc(F)cc1C(=O)N1CCN(C(=O)c2ccccc2)CC1 (nonaromatic ring conformer: 150.4932131414416 kcal/mol)

>  <smiles>  (87) 
C=c1c(=Cc2[nH]c(=O)[nH]c2O)cc(C)n1-c1c(F)cc(F)cc1C(=O)N1CCN(C(=O)c2ccccc2)CC1

>  <score_type>  (87) 
oracle

>  <origin>  (87) 
adg

>  <m_score__min__energy>  (87) 
-13.59

>  <m_primary>  (87) 
energy

$$$$
87:0
     RDKit          3D

 67 71  0  0  0  0  0  0  0  0999 V2000
   60.4497   31.3709   51.6475 H   0  0  0  0  0  0  0  0  0  0  0  0
   59.6250   31.3460   50.9200 C   0  0  0  0  0  0  0  0  0  0  0  0
   58.8266   32.1012   50.9676 H   0  0  0  0  0  0  0  0  0  0  0  0
   59.5930   30.3990   49.9790 C   0  0  0  0  0  0  0  0  0  0  0  0
   60.5330   29.3950   49.7890 C   0  0  0  0  0  0  0  0  0  0  0  0
   61.7340   29.1370   50.6090 C   0  0  0  0  0  0  0  0  0  0  0  0
   62.7100   29.9320   50.5260 O   0  0  0  0  0  0  0  0  0  0  0  0
   61.8110   28.0020   51.4930 N   0  0  0  0  0  0  0  0  0  0  0  0
   62.7820   28.0010   52.5910 C   0  0  0  0  0  0  0  0  0  0  0  0
   63.7735   27.7305   52.1990 H   0  0  0  0  0  0  0  0  0  0  0  0
   62.8169   29.0044   53.0403 H   0  0  0  0  0  0  0  0  0  0  0  0
   62.3670   26.9860   53.6640 C   0  0  0  0  0  0  0  0  0  0  0  0
   63.1521   26.9501   54.4336 H   0  0  0  0  0  0  0  0  0  0  0  0
   61.4020   27.3193   54.0736 H   0  0  0  0  0  0  0  0  0  0  0  0
   62.1690   25.6150   53.1270 N   0  0  0  0  0  0  0  0  0  0  0  0
   63.3350   24.7600   53.4040 C   0  0  0  0  0  0  0  0  0  0  0  0
   63.4680   24.6624   54.4916 H   0  0  0  0  0  0  0  0  0  0  0  0
   63.1730   23.7651   52.9637 H   0  0  0  0  0  0  0  0  0  0  0  0
   64.2352   25.2136   52.9637 H   0  0  0  0  0  0  0  0  0  0  0  0
   61.8150   25.5560   51.6880 C   0  0  0  0  0  0  0  0  0  0  0  0
   62.7414   25.4898   51.0986 H   0  0  0  0  0  0  0  0  0  0  0  0
   61.1766   24.6733   51.5352 H   0  0  0  0  0  0  0  0  0  0  0  0
   61.0270   26.7880   51.2300 C   0  0  0  0  0  0  0  0  0  0  0  0
   60.8221   26.7112   50.1520 H   0  0  0  0  0  0  0  0  0  0  0  0
   60.0776   26.8400   51.7832 H   0  0  0  0  0  0  0  0  0  0  0  0
   60.0890   28.6470   48.7050 C   0  0  0  0  0  0  0  0  0  0  0  0
   60.7130   27.3980   48.1520 C   0  0  0  0  0  0  0  0  0  0  0  0
   61.0360   26.7514   48.9812 H   0  0  0  0  0  0  0  0  0  0  0  0
   59.9766   26.8625   47.5349 H   0  0  0  0  0  0  0  0  0  0  0  0
   61.5835   27.6653   47.5349 H   0  0  0  0  0  0  0  0  0  0  0  0
   58.9110   29.2470   48.2700 C   0  0  0  0  0  0  0  0  0  0  0  0
   58.1420   28.8080   47.2590 C   0  0  0  0  0  0  0  0  0  0  0  0
   57.9363   27.7294   47.1939 H   0  0  0  0  0  0  0  0  0  0  0  0
   57.5590   29.6900   46.2330 C   0  0  0  0  0  0  0  0  0  0  0  0
   56.5320   29.4090   45.3360 C   0  0  0  0  0  0  0  0  0  0  0  0
   55.8840   28.1840   45.2290 O   0  0  0  0  0  0  0  0  0  0  0  0
   56.1940   30.4860   44.5880 N   0  0  0  0  0  0  0  0  0  0  0  0
   57.0070   31.4620   45.0360 C   0  0  0  0  0  0  0  0  0  0  0  0
   57.0480   32.7790   44.5860 C   0  0  0  0  0  0  0  0  0  0  0  0
   56.3804   33.1230   43.7823 H   0  0  0  0  0  0  0  0  0  0  0  0
   57.9670   33.6570   45.1880 C   0  0  0  0  0  0  0  0  0  0  0  0
   58.0250   34.7020   44.8495 H   0  0  0  0  0  0  0  0  0  0  0  0
   58.8180   33.2070   46.2260 C   0  0  0  0  0  0  0  0  0  0  0  0
   59.9890   34.2990   46.9630 S   0  0  0  0  0  0  0  0  0  0  0  0
   59.3430   34.9620   48.1480 O   0  0  0  0  0  0  0  0  0  0  0  0
   60.3900   35.3630   45.9770 O   0  0  0  0  0  0  0  0  0  0  0  0
   61.3980   33.4080   47.4800 N   0  0  0  0  0  0  0  0  0  0  0  0
   61.2160   32.3930   47.2950 H   0  0  0  0  0  0  0  0  0  0  0  0
   62.5790   33.8480   46.7060 C   0  0  0  0  0  0  0  0  0  0  0  0
   62.3777   33.7064   45.6339 H   0  0  0  0  0  0  0  0  0  0  0  0
   62.7655   34.9086   46.9306 H   0  0  0  0  0  0  0  0  0  0  0  0
   63.8290   33.0450   47.0900 C   0  0  0  0  0  0  0  0  0  0  0  0
   63.7225   32.0112   46.7295 H   0  0  0  0  0  0  0  0  0  0  0  0
   64.7126   33.5120   46.6305 H   0  0  0  0  0  0  0  0  0  0  0  0
   63.9970   33.0360   48.5800 C   0  0  0  0  0  0  0  0  0  0  0  0
   65.1070   33.1360   49.0770 O   0  0  0  0  0  0  0  0  0  0  0  0
   62.7960   32.7970   49.4460 C   0  0  0  0  0  0  0  0  0  0  0  0
   62.5386   31.7277   49.4254 H   0  0  0  0  0  0  0  0  0  0  0  0
   63.0261   33.1046   50.4768 H   0  0  0  0  0  0  0  0  0  0  0  0
   61.6060   33.6170   48.9280 C   0  0  0  0  0  0  0  0  0  0  0  0
   60.6979   33.3108   49.4681 H   0  0  0  0  0  0  0  0  0  0  0  0
   61.8195   34.6827   49.0973 H   0  0  0  0  0  0  0  0  0  0  0  0
   58.7530   31.8680   46.6600 C   0  0  0  0  0  0  0  0  0  0  0  0
   59.4078   31.5003   47.4637 H   0  0  0  0  0  0  0  0  0  0  0  0
   57.8340   31.0240   46.0400 C   0  0  0  0  0  0  0  0  0  0  0  0
   58.6150   30.3070   49.0560 N   0  0  0  0  0  0  0  0  0  0  0  0
   57.7700   30.9190   49.0030 H   0  0  0  0  0  0  0  0  0  0  0  0
  1  2  1  0
  2  3  1  0
  2  4  2  0
  4  5  1  0
  5  6  1  0
  6  7  2  0
  6  8  1  0
  8  9  1  0
  9 10  1  0
  9 11  1  0
  9 12  1  0
 12 13  1  0
 12 14  1  0
 12 15  1  0
 15 16  1  0
 16 17  1  0
 16 18  1  0
 16 19  1  0
 15 20  1  0
 20 21  1  0
 20 22  1  0
 20 23  1  0
 23 24  1  0
 23 25  1  0
  5 26  2  0
 26 27  1  0
 27 28  1  0
 27 29  1  0
 27 30  1  0
 26 31  1  0
 31 32  2  0
 32 33  1  0
 32 34  1  0
 34 35  2  0
 35 36  1  0
 35 37  1  0
 37 38  1  0
 38 39  2  0
 39 40  1  0
 39 41  1  0
 41 42  1  0
 41 43  2  0
 43 44  1  0
 44 45  2  0
 44 46  2  0
 44 47  1  0
 47 48  1  0
 47 49  1  0
 49 50  1  0
 49 51  1  0
 49 52  1  0
 52 53  1  0
 52 54  1  0
 52 55  1  0
 55 56  2  0
 55 57  1  0
 57 58  1  0
 57 59  1  0
 57 60  1  0
 60 61  1  0
 60 62  1  0
 43 63  1  0
 63 64  1  0
 63 65  2  0
 31 66  1  0
 66 67  1  0
 66  4  1  0
 23  8  1  0
 65 34  1  0
 65 38  1  0
 60 47  1  0
M  CHG  3  36  -1  37  -1  47   1
M  END
>  <UniqueID>  (88) 
85

>  <SMILES>  (88) 
C=c1[nH]/c(=C\c2c([O-])[n-]c3ccc(S(=O)(=O)[NH+]4CCC(=O)CC4)cc23)c(C)c1C(=O)N1CCN(C)CC1

>  <Energy>  (88) 
144.70557663369584

>  <Genealogy>  (88) 
C=c1[nH]c(=Cc2c([O-])[n-]c3ccc(S(=O)(=O)[NH+]4CCC(=O)CC4)cc23)c(C)c1C(=O)N1CCN(C)CC1 (protonated)
C=c1[nH]/c(=C\c2c([O-])[n-]c3ccc(S(=O)(=O)[NH+]4CCC(=O)CC4)cc23)c(C)c1C(=O)N1CCN(C)CC1 (cis-trans isomerization)
C=c1[nH]/c(=C\c2c([O-])[n-]c3ccc(S(=O)(=O)[NH+]4CCC(=O)CC4)cc23)c(C)c1C(=O)N1CCN(C)CC1 (3D coordinates assigned)
C=c1[nH]/c(=C\c2c([O-])[n-]c3ccc(S(=O)(=O)[NH+]4CCC(=O)CC4)cc23)c(C)c1C(=O)N1CCN(C)CC1 (nonaromatic ring conformer: 144.70557663369584 kcal/mol)

>  <smiles>  (88) 
C=c1[nH]c(=Cc2c(O)[nH]c3ccc(S(=O)(=O)N4CCC(=O)CC4)cc23)c(C)c1C(=O)N1CCN(C)CC1

>  <score_type>  (88) 
oracle

>  <origin>  (88) 
adg

>  <m_score__min__energy>  (88) 
-11.73

>  <m_primary>  (88) 
energy

$$$$
88:0
     RDKit          3D

 24 25  0  0  0  0  0  0  0  0999 V2000
   59.7910   33.1364   48.0951 H   0  0  0  0  0  0  0  0  0  0  0  0
   59.2560   33.1150   49.0560 C   0  0  0  0  0  0  0  0  0  0  0  0
   58.3677   32.4776   49.1769 H   0  0  0  0  0  0  0  0  0  0  0  0
   59.6850   33.8630   50.0760 C   0  0  0  0  0  0  0  0  0  0  0  0
   60.5749   34.4946   49.9377 H   0  0  0  0  0  0  0  0  0  0  0  0
   58.9880   33.8670   51.4060 C   0  0  0  0  0  0  0  0  0  0  0  0
   59.1862   34.8208   51.9169 H   0  0  0  0  0  0  0  0  0  0  0  0
   57.9069   33.7443   51.2443 H   0  0  0  0  0  0  0  0  0  0  0  0
   59.5940   32.4920   52.4410 S   0  0  0  0  0  0  0  0  0  0  0  0
   58.1410   31.4730   52.1960 C   0  0  0  0  0  0  0  0  0  0  0  0
   58.1900   30.1900   51.7800 N   0  0  0  0  0  0  0  0  0  0  0  0
   56.9860   29.6300   51.6620 N   0  0  0  0  0  0  0  0  0  0  0  0
   55.9760   30.4670   51.9810 C   0  0  0  0  0  0  0  0  0  0  0  0
   54.7300   30.0930   51.9270 N   0  0  0  0  0  0  0  0  0  0  0  0
   53.6270   30.6090   52.6910 C   0  0  0  0  0  0  0  0  0  0  0  0
   53.5520   30.4330   53.9370 O   0  0  0  0  0  0  0  0  0  0  0  0
   52.5680   31.3570   52.0000 C   0  0  0  0  0  0  0  0  0  0  0  0
   52.5140   31.5240   50.6670 N   0  0  0  0  0  0  0  0  0  0  0  0
   51.3960   32.2580   50.4980 C   0  0  0  0  0  0  0  0  0  0  0  0
   50.9920   32.6290   49.3650 O   0  0  0  0  0  0  0  0  0  0  0  0
   50.7440   32.5620   51.6380 N   0  0  0  0  0  0  0  0  0  0  0  0
   51.4950   31.9850   52.5920 C   0  0  0  0  0  0  0  0  0  0  0  0
   51.2860   32.0104   53.6717 H   0  0  0  0  0  0  0  0  0  0  0  0
   56.5570   31.9900   52.4340 S   0  0  0  0  0  0  0  0  0  0  0  0
  1  2  1  0
  2  3  1  0
  2  4  2  0
  4  5  1  0
  4  6  1  0
  6  7  1  0
  6  8  1  0
  6  9  1  0
  9 10  1  0
 10 11  2  0
 11 12  1  0
 12 13  1  0
 13 14  2  0
 14 15  1  0
 15 16  2  0
 15 17  1  0
 17 18  1  0
 18 19  1  0
 19 20  2  0
 19 21  1  0
 21 22  1  0
 22 23  1  0
 13 24  1  0
 24 10  1  0
 22 17  2  0
M  CHG  3  12  -1  18  -1  21  -1
M  END
>  <UniqueID>  (89) 
86

>  <SMILES>  (89) 
C=CCSc1n[n-]/c(=N/C(=O)c2c[n-]c(=O)[n-]2)s1

>  <Energy>  (89) 
83.26353448796264

>  <Genealogy>  (89) 
C=CCSc1n[n-]c(=NC(=O)c2c[n-]c(=O)[n-]2)s1 (protonated)
C=CCSc1n[n-]/c(=N/C(=O)c2c[n-]c(=O)[n-]2)s1 (cis-trans isomerization)
C=CCSc1n[n-]/c(=N/C(=O)c2c[n-]c(=O)[n-]2)s1 (3D coordinates assigned)
C=CCSc1n[n-]/c(=N/C(=O)c2c[n-]c(=O)[n-]2)s1 (optimized conformer: 83.26353448796264 kcal/mol)

>  <smiles>  (89) 
C=CCSc1n[nH]c(=NC(=O)c2c[nH]c(=O)[nH]2)s1

>  <score_type>  (89) 
oracle

>  <origin>  (89) 
adg

>  <m_score__min__energy>  (89) 
-12.17

>  <m_primary>  (89) 
energy

$$$$
