0:0
     RDKit          3D

 67 71  0  0  0  0  0  0  0  0999 V2000
   62.3983   32.5125   52.7826 H   0  0  0  0  0  0  0  0  0  0  0  0
   61.8640   31.5800   53.0170 C   0  0  0  0  0  0  0  0  0  0  0  0
   61.3350   30.7470   52.0930 N   0  0  0  0  0  0  0  0  0  0  0  0
   60.7350   29.6650   52.6630 C   0  0  0  0  0  0  0  0  0  0  0  0
   60.0300   28.6290   51.8390 C   0  0  0  0  0  0  0  0  0  0  0  0
   58.9990   28.5158   52.2055 H   0  0  0  0  0  0  0  0  0  0  0  0
   60.5723   27.6761   51.9278 H   0  0  0  0  0  0  0  0  0  0  0  0
   59.9990   29.0240   50.4320 N   0  0  0  0  0  0  0  0  0  0  0  0
   59.9720   30.0460   50.2190 H   0  0  0  0  0  0  0  0  0  0  0  0
   60.1560   28.0780   49.3610 C   0  0  0  0  0  0  0  0  0  0  0  0
   60.4230   26.8730   49.6230 O   0  0  0  0  0  0  0  0  0  0  0  0
   60.0480   28.5120   47.9480 C   0  0  0  0  0  0  0  0  0  0  0  0
   60.9120   29.5050   47.4530 C   0  0  0  0  0  0  0  0  0  0  0  0
   61.6806   29.9375   48.1105 H   0  0  0  0  0  0  0  0  0  0  0  0
   60.8010   29.9460   46.1320 C   0  0  0  0  0  0  0  0  0  0  0  0
   61.4781   30.7265   45.7549 H   0  0  0  0  0  0  0  0  0  0  0  0
   59.8310   29.3970   45.2890 C   0  0  0  0  0  0  0  0  0  0  0  0
   59.7469   29.7487   44.2501 H   0  0  0  0  0  0  0  0  0  0  0  0
   58.9640   28.4000   45.7600 C   0  0  0  0  0  0  0  0  0  0  0  0
   57.9810   27.7440   44.8170 C   0  0  0  0  0  0  0  0  0  0  0  0
   58.1584   26.6585   44.8067 H   0  0  0  0  0  0  0  0  0  0  0  0
   58.1225   28.1607   43.8089 H   0  0  0  0  0  0  0  0  0  0  0  0
   56.5720   28.0100   45.2590 C   0  0  0  0  0  0  0  0  0  0  0  0
   55.9270   27.1230   45.8860 O   0  0  0  0  0  0  0  0  0  0  0  0
   55.9720   29.2830   45.0010 N   0  0  0  0  0  0  0  0  0  0  0  0
   56.7160   30.4050   44.5090 C   0  0  0  0  0  0  0  0  0  0  0  0
   56.7100   30.7110   43.1450 C   0  0  0  0  0  0  0  0  0  0  0  0
   56.1277   30.0936   42.4452 H   0  0  0  0  0  0  0  0  0  0  0  0
   57.4450   31.8030   42.6700 C   0  0  0  0  0  0  0  0  0  0  0  0
   57.4457   32.0378   41.5954 H   0  0  0  0  0  0  0  0  0  0  0  0
   58.1790   32.5970   43.5580 C   0  0  0  0  0  0  0  0  0  0  0  0
   58.7641   33.4464   43.1755 H   0  0  0  0  0  0  0  0  0  0  0  0
   58.1740   32.3180   44.9300 C   0  0  0  0  0  0  0  0  0  0  0  0
   58.9020   33.1450   45.7990 O   0  0  0  0  0  0  0  0  0  0  0  0
   59.3620   32.7630   47.0680 C   0  0  0  0  0  0  0  0  0  0  0  0
   58.5370   32.1260   47.9430 N   0  0  0  0  0  0  0  0  0  0  0  0
   58.9510   31.7810   49.1890 C   0  0  0  0  0  0  0  0  0  0  0  0
   58.1170   31.1770   49.9840 N   0  0  0  0  0  0  0  0  0  0  0  0
   57.9820   31.3870   51.3980 C   0  0  0  0  0  0  0  0  0  0  0  0
   57.3230   30.4600   52.2260 C   0  0  0  0  0  0  0  0  0  0  0  0
   56.8882   29.5477   51.7918 H   0  0  0  0  0  0  0  0  0  0  0  0
   57.2200   30.6970   53.6010 C   0  0  0  0  0  0  0  0  0  0  0  0
   56.6891   29.9788   54.2431 H   0  0  0  0  0  0  0  0  0  0  0  0
   57.7900   31.8440   54.1610 C   0  0  0  0  0  0  0  0  0  0  0  0
   57.6873   32.0382   55.2388 H   0  0  0  0  0  0  0  0  0  0  0  0
   58.4930   32.7480   53.3500 C   0  0  0  0  0  0  0  0  0  0  0  0
   59.2290   34.1800   54.0570 S   0  0  0  0  0  0  0  0  0  0  0  0
   58.5870   35.4140   53.4860 O   0  0  0  0  0  0  0  0  0  0  0  0
   60.6960   34.2000   53.7350 O   0  0  0  0  0  0  0  0  0  0  0  0
   59.0120   34.1680   55.8200 C   0  0  0  0  0  0  0  0  0  0  0  0
   59.9949   34.2224   56.3108 H   0  0  0  0  0  0  0  0  0  0  0  0
   58.4037   35.0339   56.1205 H   0  0  0  0  0  0  0  0  0  0  0  0
   58.5029   33.2403   56.1205 H   0  0  0  0  0  0  0  0  0  0  0  0
   58.5930   32.5100   51.9710 C   0  0  0  0  0  0  0  0  0  0  0  0
   59.1550   33.2100   51.3353 H   0  0  0  0  0  0  0  0  0  0  0  0
   60.2350   32.0400   49.5640 N   0  0  0  0  0  0  0  0  0  0  0  0
   61.1040   32.6470   48.7150 C   0  0  0  0  0  0  0  0  0  0  0  0
   62.1386   32.8417   49.0339 H   0  0  0  0  0  0  0  0  0  0  0  0
   60.6850   33.0240   47.4380 C   0  0  0  0  0  0  0  0  0  0  0  0
   61.7950   33.8350   46.3420 Cl  0  0  0  0  0  0  0  0  0  0  0  0
   57.4100   31.2360   45.4020 C   0  0  0  0  0  0  0  0  0  0  0  0
   57.3557   31.0388   46.4828 H   0  0  0  0  0  0  0  0  0  0  0  0
   59.0870   27.9500   47.0850 C   0  0  0  0  0  0  0  0  0  0  0  0
   58.4263   27.1509   47.4523 H   0  0  0  0  0  0  0  0  0  0  0  0
   60.7800   29.6250   54.0530 C   0  0  0  0  0  0  0  0  0  0  0  0
   60.3585   28.8373   54.6948 H   0  0  0  0  0  0  0  0  0  0  0  0
   61.5960   31.0000   54.5730 S   0  0  0  0  0  0  0  0  0  0  0  0
  1  2  1  0
  2  3  2  0
  3  4  1  0
  4  5  1  0
  5  6  1  0
  5  7  1  0
  5  8  1  0
  8  9  1  0
  8 10  1  0
 10 11  2  0
 10 12  1  0
 12 13  2  0
 13 14  1  0
 13 15  1  0
 15 16  1  0
 15 17  2  0
 17 18  1  0
 17 19  1  0
 19 20  1  0
 20 21  1  0
 20 22  1  0
 20 23  1  0
 23 24  2  0
 23 25  1  0
 25 26  1  0
 26 27  2  0
 27 28  1  0
 27 29  1  0
 29 30  1  0
 29 31  2  0
 31 32  1  0
 31 33  1  0
 33 34  1  0
 34 35  1  0
 35 36  2  0
 36 37  1  0
 37 38  2  0
 38 39  1  0
 39 40  2  0
 40 41  1  0
 40 42  1  0
 42 43  1  0
 42 44  2  0
 44 45  1  0
 44 46  1  0
 46 47  1  0
 47 48  2  0
 47 49  2  0
 47 50  1  0
 50 51  1  0
 50 52  1  0
 50 53  1  0
 46 54  2  0
 54 55  1  0
 37 56  1  0
 56 57  1  0
 57 58  1  0
 57 59  2  0
 59 60  1  0
 33 61  2  0
 61 62  1  0
 19 63  2  0
 63 64  1  0
  4 65  2  0
 65 66  1  0
 65 67  1  0
 67  2  1  0
 63 12  1  0
 61 26  1  0
 59 35  1  0
 54 39  1  0
M  CHG  2  25  -1  56  -1
M  END
>  <UniqueID>  (1) 
1

>  <SMILES>  (1) 
CS(=O)(=O)c1cccc(/N=c2/nc(Oc3cccc([N-]C(=O)Cc4cccc(C(=O)NCc5cscn5)c4)c3)c(Cl)c[n-]2)c1

>  <Energy>  (1) 
109.58057546344587

>  <Genealogy>  (1) 
CS(=O)(=O)c1cccc(N=c2nc(Oc3cccc([N-]C(=O)Cc4cccc(C(=O)NCc5cscn5)c4)c3)c(Cl)c[n-]2)c1 (protonated)
CS(=O)(=O)c1cccc(/N=c2/nc(Oc3cccc([N-]C(=O)Cc4cccc(C(=O)NCc5cscn5)c4)c3)c(Cl)c[n-]2)c1 (cis-trans isomerization)
CS(=O)(=O)c1cccc(/N=c2/nc(Oc3cccc([N-]C(=O)Cc4cccc(C(=O)NCc5cscn5)c4)c3)c(Cl)c[n-]2)c1 (3D coordinates assigned)
CS(=O)(=O)c1cccc(/N=c2/nc(Oc3cccc([N-]C(=O)Cc4cccc(C(=O)NCc5cscn5)c4)c3)c(Cl)c[n-]2)c1 (optimized conformer: 109.58057546344587 kcal/mol)

>  <smiles>  (1) 
CS(=O)(=O)c1cccc(N=c2nc(Oc3cccc(NC(=O)Cc4cccc(C(=O)NCc5cscn5)c4)c3)c(Cl)c[nH]2)c1

>  <score_type>  (1) 
oracle

>  <origin>  (1) 
adg

>  <m_score__min__energy>  (1) 
-14.82

>  <m_primary>  (1) 
energy

$$$$
1:0
     RDKit          3D

 79 83  0  0  0  0  0  0  0  0999 V2000
   56.7700   20.4460   46.4400 C   0  0  0  0  0  0  0  0  0  0  0  0
   55.9870   20.9750   45.2410 C   0  0  0  0  0  0  0  0  0  0  0  0
   55.6170   22.3890   45.4510 N   0  0  0  0  0  0  0  0  0  0  0  0
   54.3020   22.7340   45.6390 C   0  0  0  0  0  0  0  0  0  0  0  0
   53.3990   21.8530   45.6600 O   0  0  0  0  0  0  0  0  0  0  0  0
   53.9520   24.0360   45.8050 N   0  0  0  0  0  0  0  0  0  0  0  0
   54.8700   25.0300   45.7770 C   0  0  0  0  0  0  0  0  0  0  0  0
   54.4530   26.3410   45.9850 O   0  0  0  0  0  0  0  0  0  0  0  0
   56.2210   24.7270   45.5630 C   0  0  0  0  0  0  0  0  0  0  0  0
   57.2440   25.7980   45.5110 C   0  0  0  0  0  0  0  0  0  0  0  0
   58.4630   25.5000   45.6160 O   0  0  0  0  0  0  0  0  0  0  0  0
   56.8520   27.1610   45.2830 N   0  0  0  0  0  0  0  0  0  0  0  0
   57.7260   28.2880   45.4570 C   0  0  0  0  0  0  0  0  0  0  0  0
   57.3320   29.5440   44.9740 C   0  0  0  0  0  0  0  0  0  0  0  0
   58.1520   30.6610   45.1500 C   0  0  0  0  0  0  0  0  0  0  0  0
   59.3600   30.5490   45.8460 C   0  0  0  0  0  0  0  0  0  0  0  0
   60.1500   31.6940   46.0150 O   0  0  0  0  0  0  0  0  0  0  0  0
   59.8280   32.7930   46.8310 C   0  0  0  0  0  0  0  0  0  0  0  0
   59.5870   34.0670   46.2860 C   0  0  0  0  0  0  0  0  0  0  0  0
   59.3020   35.1420   47.1280 C   0  0  0  0  0  0  0  0  0  0  0  0
   59.2810   34.9660   48.4740 N   0  0  0  0  0  0  0  0  0  0  0  0
   59.5240   33.7560   49.0440 C   0  0  0  0  0  0  0  0  0  0  0  0
   59.5170   33.6310   50.4360 C   0  0  0  0  0  0  0  0  0  0  0  0
   59.7720   32.3890   51.0450 C   0  0  0  0  0  0  0  0  0  0  0  0
   59.8060   32.2150   52.4410 O   0  0  0  0  0  0  0  0  0  0  0  0
   60.2140   33.1780   53.4150 C   0  0  0  0  0  0  0  0  0  0  0  0
   61.6150   33.7150   53.1140 C   0  0  0  0  0  0  0  0  0  0  0  0
   62.5000   32.6890   52.3820 C   0  0  0  0  0  0  0  0  0  0  0  0
   63.4030   33.3040   51.3850 N   0  0  0  0  0  0  0  0  0  0  0  0
   64.3910   32.3940   50.7620 C   0  0  0  0  0  0  0  0  0  0  0  0
   63.9400   31.8130   49.4030 C   0  0  0  0  0  0  0  0  0  0  0  0
   63.0450   32.7620   48.5730 C   0  0  0  0  0  0  0  0  0  0  0  0
   63.3470   32.6460   47.0750 C   0  0  0  0  0  0  0  0  0  0  0  0
   63.1900   34.2140   49.0460 C   0  0  0  0  0  0  0  0  0  0  0  0
   62.7650   34.3200   50.5140 C   0  0  0  0  0  0  0  0  0  0  0  0
   60.0240   31.2630   50.2420 C   0  0  0  0  0  0  0  0  0  0  0  0
   60.2610   30.0340   50.8790 O   0  0  0  0  0  0  0  0  0  0  0  0
   59.3100   29.3450   51.6820 C   0  0  0  0  0  0  0  0  0  0  0  0
   60.0400   31.3900   48.8390 C   0  0  0  0  0  0  0  0  0  0  0  0
   59.7970   32.6340   48.2320 C   0  0  0  0  0  0  0  0  0  0  0  0
   59.7650   29.2900   46.3280 C   0  0  0  0  0  0  0  0  0  0  0  0
   60.9630   29.1410   46.9470 F   0  0  0  0  0  0  0  0  0  0  0  0
   58.9460   28.1710   46.1450 C   0  0  0  0  0  0  0  0  0  0  0  0
   56.5750   23.3730   45.3970 C   0  0  0  0  0  0  0  0  0  0  0  0
   57.7810   23.0680   45.1760 O   0  0  0  0  0  0  0  0  0  0  0  0
   56.2831   20.7749   47.3699 H   0  0  0  0  0  0  0  0  0  0  0  0
   56.7927   19.3467   46.4070 H   0  0  0  0  0  0  0  0  0  0  0  0
   57.7983   20.8352   46.4070 H   0  0  0  0  0  0  0  0  0  0  0  0
   56.6090   20.8935   44.3374 H   0  0  0  0  0  0  0  0  0  0  0  0
   55.0695   20.3798   45.1233 H   0  0  0  0  0  0  0  0  0  0  0  0
   55.9160   27.3310   44.8520 H   0  0  0  0  0  0  0  0  0  0  0  0
   56.3695   29.6505   44.4523 H   0  0  0  0  0  0  0  0  0  0  0  0
   57.8460   31.6343   44.7389 H   0  0  0  0  0  0  0  0  0  0  0  0
   59.6232   34.2156   45.1967 H   0  0  0  0  0  0  0  0  0  0  0  0
   59.0939   36.1340   46.7007 H   0  0  0  0  0  0  0  0  0  0  0  0
   59.3101   34.5121   51.0612 H   0  0  0  0  0  0  0  0  0  0  0  0
   59.5009   34.0155   53.4112 H   0  0  0  0  0  0  0  0  0  0  0  0
   60.2344   32.6882   54.3997 H   0  0  0  0  0  0  0  0  0  0  0  0
   61.5204   34.6114   52.4836 H   0  0  0  0  0  0  0  0  0  0  0  0
   62.0971   33.9434   54.0760 H   0  0  0  0  0  0  0  0  0  0  0  0
   63.1113   32.1597   53.1277 H   0  0  0  0  0  0  0  0  0  0  0  0
   61.8290   32.0076   51.8385 H   0  0  0  0  0  0  0  0  0  0  0  0
   65.3258   32.9525   50.6064 H   0  0  0  0  0  0  0  0  0  0  0  0
   64.5157   31.5423   51.4469 H   0  0  0  0  0  0  0  0  0  0  0  0
   64.8382   31.5813   48.8119 H   0  0  0  0  0  0  0  0  0  0  0  0
   63.3344   30.9221   49.6257 H   0  0  0  0  0  0  0  0  0  0  0  0
   62.0011   32.4537   48.7317 H   0  0  0  0  0  0  0  0  0  0  0  0
   64.3656   32.2548   46.9355 H   0  0  0  0  0  0  0  0  0  0  0  0
   62.6241   31.9616   46.6071 H   0  0  0  0  0  0  0  0  0  0  0  0
   63.2681   33.6384   46.6071 H   0  0  0  0  0  0  0  0  0  0  0  0
   64.2390   34.5292   48.9447 H   0  0  0  0  0  0  0  0  0  0  0  0
   62.5497   34.8644   48.4320 H   0  0  0  0  0  0  0  0  0  0  0  0
   63.0381   35.3188   50.8851 H   0  0  0  0  0  0  0  0  0  0  0  0
   61.6796   34.1457   50.5519 H   0  0  0  0  0  0  0  0  0  0  0  0
   59.5389   29.5109   52.7451 H   0  0  0  0  0  0  0  0  0  0  0  0
   58.3009   29.7230   51.4609 H   0  0  0  0  0  0  0  0  0  0  0  0
   59.3548   28.2684   51.4609 H   0  0  0  0  0  0  0  0  0  0  0  0
   60.2443   30.5084   48.2137 H   0  0  0  0  0  0  0  0  0  0  0  0
   59.2585   27.1938   46.5418 H   0  0  0  0  0  0  0  0  0  0  0  0
  1  2  1  0
  2  3  1  0
  3  4  1  0
  4  5  2  0
  4  6  1  0
  6  7  1  0
  7  8  1  0
  7  9  2  0
  9 10  1  0
 10 11  2  0
 10 12  1  0
 12 13  1  0
 13 14  2  0
 14 15  1  0
 15 16  2  0
 16 17  1  0
 17 18  1  0
 18 19  2  0
 19 20  1  0
 20 21  2  0
 21 22  1  0
 22 23  2  0
 23 24  1  0
 24 25  1  0
 25 26  1  0
 26 27  1  0
 27 28  1  0
 28 29  1  0
 29 30  1  0
 30 31  1  0
 31 32  1  0
 32 33  1  0
 32 34  1  0
 34 35  1  0
 24 36  2  0
 36 37  1  0
 37 38  1  0
 36 39  1  0
 39 40  2  0
 16 41  1  0
 41 42  1  0
 41 43  2  0
  9 44  1  0
 44 45  2  0
 44  3  1  0
 43 13  1  0
 40 18  1  0
 40 22  1  0
 35 29  1  0
  1 46  1  0
  1 47  1  0
  1 48  1  0
  2 49  1  0
  2 50  1  0
 12 51  1  0
 14 52  1  0
 15 53  1  0
 19 54  1  0
 20 55  1  0
 23 56  1  0
 26 57  1  0
 26 58  1  0
 27 59  1  0
 27 60  1  0
 28 61  1  0
 28 62  1  0
 30 63  1  0
 30 64  1  0
 31 65  1  0
 31 66  1  0
 32 67  1  0
 33 68  1  0
 33 69  1  0
 33 70  1  0
 34 71  1  0
 34 72  1  0
 35 73  1  0
 35 74  1  0
 38 75  1  0
 38 76  1  0
 38 77  1  0
 39 78  1  0
 43 79  1  0
M  CHG  2   6  -1   8  -1
M  END
>  <UniqueID>  (2) 
2

>  <SMILES>  (2) 
CCn1c(=O)[n-]c([O-])c(C(=O)Nc2ccc(Oc3ccnc4cc(OCCCN5CCC(C)CC5)c(OC)cc34)c(F)c2)c1=O

>  <Energy>  (2) 
115.96195424877627

>  <Genealogy>  (2) 
CCn1c(=O)[n-]c([O-])c(C(=O)Nc2ccc(Oc3ccnc4cc(OCCCN5CCC(C)CC5)c(OC)cc34)c(F)c2)c1=O (protonated)
CCn1c(=O)[n-]c([O-])c(C(=O)Nc2ccc(Oc3ccnc4cc(OCCCN5CCC(C)CC5)c(OC)cc34)c(F)c2)c1=O (3D coordinates assigned)
CCn1c(=O)[n-]c([O-])c(C(=O)Nc2ccc(Oc3ccnc4cc(OCCCN5CCC(C)CC5)c(OC)cc34)c(F)c2)c1=O (nonaromatic ring conformer: 115.96195424877627 kcal/mol)

>  <smiles>  (2) 
CCn1c(=O)[nH]c(O)c(C(=O)Nc2ccc(Oc3ccnc4cc(OCCCN5CCC(C)CC5)c(OC)cc34)c(F)c2)c1=O

>  <score_type>  (2) 
oracle

>  <origin>  (2) 
adg

>  <m_score__min__energy>  (2) 
-14.02

>  <m_primary>  (2) 
energy

$$$$
2:0
     RDKit          3D

 52 54  0  0  0  0  0  0  0  0999 V2000
   54.4060   22.0070   45.7700 C   0  0  0  0  0  0  0  0  0  0  0  0
   54.7230   23.7500   45.9520 S   0  0  0  0  0  0  0  0  0  0  0  0
   54.9500   24.0480   47.4070 O   0  0  0  0  0  0  0  0  0  0  0  0
   53.5450   24.5500   45.4720 O   0  0  0  0  0  0  0  0  0  0  0  0
   56.1450   24.1960   45.0650 N   0  0  0  0  0  0  0  0  0  0  0  0
   57.0630   25.2450   45.4100 C   0  0  0  0  0  0  0  0  0  0  0  0
   58.4550   25.0820   45.2830 C   0  0  0  0  0  0  0  0  0  0  0  0
   59.3230   26.1210   45.6200 C   0  0  0  0  0  0  0  0  0  0  0  0
   58.8220   27.3490   46.0770 C   0  0  0  0  0  0  0  0  0  0  0  0
   59.7530   28.4560   46.3970 C   0  0  0  0  0  0  0  0  0  0  0  0
   60.5810   28.8350   45.5280 O   0  0  0  0  0  0  0  0  0  0  0  0
   59.7780   29.0870   47.6860 N   0  0  0  0  0  0  0  0  0  0  0  0
   60.5040   30.2670   48.0730 C   0  0  0  0  0  0  0  0  0  0  0  0
   61.0610   30.3100   49.3510 C   0  0  0  0  0  0  0  0  0  0  0  0
   61.8090   31.4110   49.7530 C   0  0  0  0  0  0  0  0  0  0  0  0
   62.0110   32.4660   48.8650 C   0  0  0  0  0  0  0  0  0  0  0  0
   61.4860   32.4260   47.6020 N   0  0  0  0  0  0  0  0  0  0  0  0
   61.7460   33.5470   46.6800 C   0  0  0  0  0  0  0  0  0  0  0  0
   60.5390   34.4260   46.5800 C   0  0  0  0  0  0  0  0  0  0  0  0
   60.0540   34.9460   47.6210 O   0  0  0  0  0  0  0  0  0  0  0  0
   59.9780   34.7140   45.2950 N   0  0  0  0  0  0  0  0  0  0  0  0
   58.5450   34.6930   45.0290 C   0  0  0  0  0  0  0  0  0  0  0  0
   58.1210   33.2940   44.6580 C   0  0  0  0  0  0  0  0  0  0  0  0
   58.1460   32.8980   43.3090 C   0  0  0  0  0  0  0  0  0  0  0  0
   57.8320   31.5850   42.9500 C   0  0  0  0  0  0  0  0  0  0  0  0
   57.4950   30.6520   43.9310 C   0  0  0  0  0  0  0  0  0  0  0  0
   57.4700   31.0300   45.2750 C   0  0  0  0  0  0  0  0  0  0  0  0
   57.7850   32.3430   45.6470 C   0  0  0  0  0  0  0  0  0  0  0  0
   57.7900   32.7450   47.3620 Cl  0  0  0  0  0  0  0  0  0  0  0  0
   60.7480   31.3420   47.1900 C   0  0  0  0  0  0  0  0  0  0  0  0
   60.3110   31.2940   46.0080 O   0  0  0  0  0  0  0  0  0  0  0  0
   57.4340   27.5080   46.2200 C   0  0  0  0  0  0  0  0  0  0  0  0
   56.5590   26.4690   45.8870 C   0  0  0  0  0  0  0  0  0  0  0  0
   55.1870   26.6790   46.0380 O   0  0  0  0  0  0  0  0  0  0  0  0
   54.3218   21.5439   46.7642 H   0  0  0  0  0  0  0  0  0  0  0  0
   53.4666   21.8610   45.2167 H   0  0  0  0  0  0  0  0  0  0  0  0
   55.2339   21.5396   45.2167 H   0  0  0  0  0  0  0  0  0  0  0  0
   58.8617   24.1284   44.9153 H   0  0  0  0  0  0  0  0  0  0  0  0
   60.4094   25.9760   45.5266 H   0  0  0  0  0  0  0  0  0  0  0  0
   60.9079   29.4694   50.0438 H   0  0  0  0  0  0  0  0  0  0  0  0
   62.2384   31.4491   50.7650 H   0  0  0  0  0  0  0  0  0  0  0  0
   62.5986   33.3399   49.1827 H   0  0  0  0  0  0  0  0  0  0  0  0
   62.5948   34.1371   47.0560 H   0  0  0  0  0  0  0  0  0  0  0  0
   61.9799   33.1445   45.6833 H   0  0  0  0  0  0  0  0  0  0  0  0
   58.0006   35.0142   45.9293 H   0  0  0  0  0  0  0  0  0  0  0  0
   58.3171   35.3768   44.1981 H   0  0  0  0  0  0  0  0  0  0  0  0
   58.4148   33.6274   42.5307 H   0  0  0  0  0  0  0  0  0  0  0  0
   57.8505   31.2861   41.8916 H   0  0  0  0  0  0  0  0  0  0  0  0
   57.2490   29.6185   43.6457 H   0  0  0  0  0  0  0  0  0  0  0  0
   57.2015   30.2926   46.0458 H   0  0  0  0  0  0  0  0  0  0  0  0
   57.0310   28.4593   46.5977 H   0  0  0  0  0  0  0  0  0  0  0  0
   54.5600   25.9560   46.3700 H   0  0  0  0  0  0  0  0  0  0  0  0
  1  2  1  0
  2  3  2  0
  2  4  2  0
  2  5  1  0
  5  6  1  0
  6  7  2  0
  7  8  1  0
  8  9  2  0
  9 10  1  0
 10 11  2  0
 10 12  1  0
 12 13  1  0
 13 14  2  0
 14 15  1  0
 15 16  2  0
 16 17  1  0
 17 18  1  0
 18 19  1  0
 19 20  2  0
 19 21  1  0
 21 22  1  0
 22 23  1  0
 23 24  2  0
 24 25  1  0
 25 26  2  0
 26 27  1  0
 27 28  2  0
 28 29  1  0
 17 30  1  0
 30 31  2  0
  9 32  1  0
 32 33  2  0
 33 34  1  0
 33  6  1  0
 30 13  1  0
 28 23  1  0
  1 35  1  0
  1 36  1  0
  1 37  1  0
  7 38  1  0
  8 39  1  0
 14 40  1  0
 15 41  1  0
 16 42  1  0
 18 43  1  0
 18 44  1  0
 22 45  1  0
 22 46  1  0
 24 47  1  0
 25 48  1  0
 26 49  1  0
 27 50  1  0
 32 51  1  0
 34 52  1  0
M  CHG  3   5  -1  12  -1  21  -1
M  END
>  <UniqueID>  (3) 
3

>  <SMILES>  (3) 
CS(=O)(=O)[N-]c1ccc(C(=O)[N-]c2cccn(CC(=O)[N-]Cc3ccccc3Cl)c2=O)cc1O

>  <Energy>  (3) 
59.728295485626184

>  <Genealogy>  (3) 
CS(=O)(=O)[N-]c1ccc(C(=O)[N-]c2cccn(CC(=O)[N-]Cc3ccccc3Cl)c2=O)cc1O (protonated)
CS(=O)(=O)[N-]c1ccc(C(=O)[N-]c2cccn(CC(=O)[N-]Cc3ccccc3Cl)c2=O)cc1O (3D coordinates assigned)
CS(=O)(=O)[N-]c1ccc(C(=O)[N-]c2cccn(CC(=O)[N-]Cc3ccccc3Cl)c2=O)cc1O (optimized conformer: 59.728295485626184 kcal/mol)

>  <smiles>  (3) 
CS(=O)(=O)Nc1ccc(C(=O)Nc2cccn(CC(=O)NCc3ccccc3Cl)c2=O)cc1O

>  <score_type>  (3) 
oracle

>  <origin>  (3) 
adg

>  <m_score__min__energy>  (3) 
-13.1

>  <m_primary>  (3) 
energy

$$$$
3:0
     RDKit          3D

 62 65  0  0  0  0  0  0  0  0999 V2000
   59.5700   33.8450   50.7790 C   0  0  0  0  0  0  0  0  0  0  0  0
   59.6740   34.4760   49.5070 O   0  0  0  0  0  0  0  0  0  0  0  0
   59.2510   33.9000   48.3000 C   0  0  0  0  0  0  0  0  0  0  0  0
   58.6760   32.6160   48.2360 C   0  0  0  0  0  0  0  0  0  0  0  0
   58.2720   32.0850   47.0070 C   0  0  0  0  0  0  0  0  0  0  0  0
   58.4440   32.8220   45.8260 C   0  0  0  0  0  0  0  0  0  0  0  0
   57.9710   32.2690   44.5110 C   0  0  0  0  0  0  0  0  0  0  0  0
   56.6000   31.7750   44.6550 N   0  0  0  0  0  0  0  0  0  0  0  0
   56.5000   30.0640   44.3320 S   0  0  0  0  0  0  0  0  0  0  0  0
   55.1770   29.5720   44.8490 O   0  0  0  0  0  0  0  0  0  0  0  0
   56.5360   29.8300   42.8450 O   0  0  0  0  0  0  0  0  0  0  0  0
   57.7650   29.1400   45.1130 N   0  0  0  0  0  0  0  0  0  0  0  0
   58.9690   29.0570   44.2780 C   0  0  0  0  0  0  0  0  0  0  0  0
   60.1570   28.5640   45.1220 C   0  0  0  0  0  0  0  0  0  0  0  0
   59.7520   27.5120   46.1890 C   0  0  0  0  0  0  0  0  0  0  0  0
   59.6760   28.1220   47.5780 C   0  0  0  0  0  0  0  0  0  0  0  0
   58.6050   27.9970   48.2330 O   0  0  0  0  0  0  0  0  0  0  0  0
   60.7660   28.8120   48.2160 N   0  0  0  0  0  0  0  0  0  0  0  0
   61.0590   30.2380   48.3900 C   0  0  2  0  0  0  0  0  0  0  0  0
   61.8430   30.8200   47.2050 C   0  0  0  0  0  0  0  0  0  0  0  0
   61.9120   32.3450   47.3260 C   0  0  0  0  0  0  0  0  0  0  0  0
   62.3580   32.7970   48.6970 C   0  0  0  0  0  0  0  0  0  0  0  0
   62.8450   34.1060   48.8510 C   0  0  0  0  0  0  0  0  0  0  0  0
   63.2060   34.5860   50.1110 C   0  0  0  0  0  0  0  0  0  0  0  0
   63.0740   33.7700   51.2340 C   0  0  0  0  0  0  0  0  0  0  0  0
   62.5770   32.4710   51.1010 C   0  0  0  0  0  0  0  0  0  0  0  0
   62.2000   31.9760   49.8420 C   0  0  0  0  0  0  0  0  0  0  0  0
   61.7290   30.5430   49.7410 C   0  0  0  0  0  0  0  0  0  0  0  0
   58.4260   26.8170   45.8250 C   0  0  0  0  0  0  0  0  0  0  0  0
   57.2790   27.8150   45.5520 C   0  0  0  0  0  0  0  0  0  0  0  0
   59.0000   34.1080   45.8920 C   0  0  0  0  0  0  0  0  0  0  0  0
   59.4090   34.6370   47.1210 C   0  0  0  0  0  0  0  0  0  0  0  0
   59.6939   34.5967   51.5724 H   0  0  0  0  0  0  0  0  0  0  0  0
   58.5817   33.3714   50.8737 H   0  0  0  0  0  0  0  0  0  0  0  0
   60.3541   33.0793   50.8737 H   0  0  0  0  0  0  0  0  0  0  0  0
   58.5441   32.0284   49.1565 H   0  0  0  0  0  0  0  0  0  0  0  0
   57.8170   31.0843   46.9662 H   0  0  0  0  0  0  0  0  0  0  0  0
   57.9971   33.0618   43.7489 H   0  0  0  0  0  0  0  0  0  0  0  0
   58.6284   31.4427   44.2025 H   0  0  0  0  0  0  0  0  0  0  0  0
   56.2760   31.9470   45.6330 H   0  0  0  0  0  0  0  0  0  0  0  0
   58.7919   28.3535   43.4511 H   0  0  0  0  0  0  0  0  0  0  0  0
   59.1998   30.0539   43.8743 H   0  0  0  0  0  0  0  0  0  0  0  0
   60.9004   28.1117   44.4492 H   0  0  0  0  0  0  0  0  0  0  0  0
   60.5620   29.4351   45.6579 H   0  0  0  0  0  0  0  0  0  0  0  0
   60.5427   26.7474   46.2002 H   0  0  0  0  0  0  0  0  0  0  0  0
   60.0871   30.7529   48.4061 H   0  0  0  0  0  0  0  0  0  0  0  0
   62.8627   30.4074   47.2041 H   0  0  0  0  0  0  0  0  0  0  0  0
   61.3338   30.5532   46.2671 H   0  0  0  0  0  0  0  0  0  0  0  0
   62.6246   32.7262   46.5797 H   0  0  0  0  0  0  0  0  0  0  0  0
   60.8993   32.7399   47.1569 H   0  0  0  0  0  0  0  0  0  0  0  0
   62.9426   34.7583   47.9707 H   0  0  0  0  0  0  0  0  0  0  0  0
   63.5951   35.6093   50.2182 H   0  0  0  0  0  0  0  0  0  0  0  0
   63.3615   34.1494   52.2257 H   0  0  0  0  0  0  0  0  0  0  0  0
   62.4802   31.8305   51.9901 H   0  0  0  0  0  0  0  0  0  0  0  0
   62.5959   29.8771   49.8634 H   0  0  0  0  0  0  0  0  0  0  0  0
   60.9802   30.3804   50.5302 H   0  0  0  0  0  0  0  0  0  0  0  0
   58.5847   26.2092   44.9220 H   0  0  0  0  0  0  0  0  0  0  0  0
   58.1291   26.2008   46.6865 H   0  0  0  0  0  0  0  0  0  0  0  0
   56.6316   27.3998   44.7655 H   0  0  0  0  0  0  0  0  0  0  0  0
   56.7332   27.9586   46.4962 H   0  0  0  0  0  0  0  0  0  0  0  0
   59.1149   34.7030   44.9740 H   0  0  0  0  0  0  0  0  0  0  0  0
   59.8583   35.6402   47.1608 H   0  0  0  0  0  0  0  0  0  0  0  0
  1  2  1  0
  2  3  1  0
  3  4  2  0
  4  5  1  0
  5  6  2  0
  6  7  1  0
  7  8  1  0
  8  9  1  0
  9 10  2  0
  9 11  2  0
  9 12  1  0
 12 13  1  0
 13 14  1  0
 14 15  1  0
 15 16  1  0
 16 17  2  0
 16 18  1  0
 18 19  1  0
 19 20  1  0
 20 21  1  0
 21 22  1  0
 22 23  2  0
 23 24  1  0
 24 25  2  0
 25 26  1  0
 26 27  2  0
 27 28  1  0
 15 29  1  0
 29 30  1  0
  6 31  1  0
 31 32  2  0
 32  3  1  0
 30 12  1  0
 28 19  1  0
 27 22  1  0
  1 33  1  0
  1 34  1  0
  1 35  1  0
  4 36  1  0
  5 37  1  0
  7 38  1  0
  7 39  1  0
  8 40  1  0
 13 41  1  0
 13 42  1  0
 14 43  1  0
 14 44  1  0
 15 45  1  0
 19 46  1  1
 20 47  1  0
 20 48  1  0
 21 49  1  0
 21 50  1  0
 23 51  1  0
 24 52  1  0
 25 53  1  0
 26 54  1  0
 28 55  1  0
 28 56  1  0
 29 57  1  0
 29 58  1  0
 30 59  1  0
 30 60  1  0
 31 61  1  0
 32 62  1  0
M  CHG  1  18  -1
M  END
>  <UniqueID>  (4) 
4

>  <SMILES>  (4) 
COc1ccc(CNS(=O)(=O)N2CCC(C(=O)[N-][C@@H]3CCc4ccccc4C3)CC2)cc1

>  <Energy>  (4) 
71.12648154246209

>  <Genealogy>  (4) 
COc1ccc(CNS(=O)(=O)N2CCC(C(=O)[N-]C3CCc4ccccc4C3)CC2)cc1 (protonated)
COc1ccc(CNS(=O)(=O)N2CCC(C(=O)[N-][C@@H]3CCc4ccccc4C3)CC2)cc1 (chirality)
COc1ccc(CNS(=O)(=O)N2CCC(C(=O)[N-][C@@H]3CCc4ccccc4C3)CC2)cc1 (3D coordinates assigned)
COc1ccc(CNS(=O)(=O)N2CCC(C(=O)[N-][C@@H]3CCc4ccccc4C3)CC2)cc1 (nonaromatic ring conformer: 71.12648154246209 kcal/mol)

>  <smiles>  (4) 
COc1ccc(CNS(=O)(=O)N2CCC(C(=O)NC3CCc4ccccc4C3)CC2)cc1

>  <score_type>  (4) 
oracle

>  <origin>  (4) 
adg

>  <m_score__min__energy>  (4) 
-11.67

>  <m_primary>  (4) 
energy

$$$$
4:0
     RDKit          3D

 48 50  0  0  0  0  0  0  0  0999 V2000
   59.6859   35.6186   44.3583 H   0  0  0  0  0  0  0  0  0  0  0  0
   59.2490   34.7520   44.8760 C   0  0  0  0  0  0  0  0  0  0  0  0
   59.2980   34.6760   46.2710 C   0  0  0  0  0  0  0  0  0  0  0  0
   59.7770   35.4810   46.8476 H   0  0  0  0  0  0  0  0  0  0  0  0
   58.7360   33.5720   46.9400 C   0  0  0  0  0  0  0  0  0  0  0  0
   58.7540   33.4510   48.3370 O   0  0  0  0  0  0  0  0  0  0  0  0
   58.2030   32.3520   49.0570 C   0  0  0  0  0  0  0  0  0  0  0  0
   58.2961   32.5377   50.1372 H   0  0  0  0  0  0  0  0  0  0  0  0
   57.1409   32.2374   48.7948 H   0  0  0  0  0  0  0  0  0  0  0  0
   58.7466   31.4324   48.7948 H   0  0  0  0  0  0  0  0  0  0  0  0
   58.1340   32.5530   46.1920 C   0  0  0  0  0  0  0  0  0  0  0  0
   57.6863   31.6914   46.7088 H   0  0  0  0  0  0  0  0  0  0  0  0
   58.0950   32.6180   44.7890 C   0  0  0  0  0  0  0  0  0  0  0  0
   57.4370   31.5220   43.9900 C   0  0  0  0  0  0  0  0  0  0  0  0
   56.7548   31.9725   43.2541 H   0  0  0  0  0  0  0  0  0  0  0  0
   58.2192   30.9391   43.4817 H   0  0  0  0  0  0  0  0  0  0  0  0
   56.6770   30.6250   44.8620 N   0  0  0  0  0  0  0  0  0  0  0  0
   57.0890   29.5030   45.3850 C   0  0  0  0  0  0  0  0  0  0  0  0
   58.1150   29.5470   46.3370 C   0  0  0  0  0  0  0  0  0  0  0  0
   58.5632   30.5116   46.6175 H   0  0  0  0  0  0  0  0  0  0  0  0
   58.5700   28.3670   46.9310 C   0  0  0  0  0  0  0  0  0  0  0  0
   59.6000   28.4450   47.8800 O   0  0  0  0  0  0  0  0  0  0  0  0
   60.4290   29.5620   48.0530 C   0  0  0  0  0  0  0  0  0  0  0  0
   61.1450   30.0620   46.9490 C   0  0  0  0  0  0  0  0  0  0  0  0
   61.0340   29.3890   45.6090 C   0  0  0  0  0  0  0  0  0  0  0  0
   60.8565   28.3130   45.7527 H   0  0  0  0  0  0  0  0  0  0  0  0
   60.1960   29.8270   45.0470 H   0  0  0  0  0  0  0  0  0  0  0  0
   61.9683   29.5347   45.0470 H   0  0  0  0  0  0  0  0  0  0  0  0
   62.0110   31.1530   47.1170 C   0  0  0  0  0  0  0  0  0  0  0  0
   62.5861   31.5321   46.2593 H   0  0  0  0  0  0  0  0  0  0  0  0
   62.1470   31.7610   48.3690 C   0  0  0  0  0  0  0  0  0  0  0  0
   63.0400   32.8770   48.5340 C   0  0  0  0  0  0  0  0  0  0  0  0
   63.7590   33.7750   48.6670 N   0  0  0  0  0  0  0  0  0  0  0  0
   61.4130   31.2850   49.4600 C   0  0  0  0  0  0  0  0  0  0  0  0
   61.5243   31.7643   50.4438 H   0  0  0  0  0  0  0  0  0  0  0  0
   60.5360   30.2010   49.3090 C   0  0  0  0  0  0  0  0  0  0  0  0
   59.7520   29.7170   50.4990 C   0  0  0  0  0  0  0  0  0  0  0  0
   60.2588   30.0298   51.4238 H   0  0  0  0  0  0  0  0  0  0  0  0
   58.7403   30.1479   50.4715 H   0  0  0  0  0  0  0  0  0  0  0  0
   59.6839   28.6195   50.4715 H   0  0  0  0  0  0  0  0  0  0  0  0
   57.9990   27.1450   46.5450 C   0  0  0  0  0  0  0  0  0  0  0  0
   58.3509   26.2033   46.9916 H   0  0  0  0  0  0  0  0  0  0  0  0
   56.9820   27.1330   45.5910 C   0  0  0  0  0  0  0  0  0  0  0  0
   56.5277   26.1779   45.2885 H   0  0  0  0  0  0  0  0  0  0  0  0
   56.5480   28.2950   45.0320 N   0  0  0  0  0  0  0  0  0  0  0  0
   55.7910   28.2260   44.3180 H   0  0  0  0  0  0  0  0  0  0  0  0
   58.6470   33.7310   44.1380 C   0  0  0  0  0  0  0  0  0  0  0  0
   58.6054   33.7998   43.0409 H   0  0  0  0  0  0  0  0  0  0  0  0
  1  2  1  0
  2  3  2  0
  3  4  1  0
  3  5  1  0
  5  6  1  0
  6  7  1  0
  7  8  1  0
  7  9  1  0
  7 10  1  0
  5 11  2  0
 11 12  1  0
 11 13  1  0
 13 14  1  0
 14 15  1  0
 14 16  1  0
 14 17  1  0
 17 18  2  0
 18 19  1  0
 19 20  1  0
 19 21  2  0
 21 22  1  0
 22 23  1  0
 23 24  2  0
 24 25  1  0
 25 26  1  0
 25 27  1  0
 25 28  1  0
 24 29  1  0
 29 30  1  0
 29 31  2  0
 31 32  1  0
 32 33  3  0
 31 34  1  0
 34 35  1  0
 34 36  2  0
 36 37  1  0
 37 38  1  0
 37 39  1  0
 37 40  1  0
 21 41  1  0
 41 42  1  0
 41 43  2  0
 43 44  1  0
 43 45  1  0
 45 46  1  0
 13 47  2  0
 47 48  1  0
 47  2  1  0
 45 18  1  0
 36 23  1  0
M  END
>  <UniqueID>  (5) 
5

>  <SMILES>  (5) 
COc1cccc(C/N=c2/cc(Oc3c(C)cc(C#N)cc3C)cc[nH]2)c1

>  <Energy>  (5) 
57.58586885269511

>  <Genealogy>  (5) 
COc1cccc(C/N=c2/cc(Oc3c(C)cc(C#N)cc3C)cc[nH]2)c1 (cis-trans isomerization)
COc1cccc(C/N=c2/cc(Oc3c(C)cc(C#N)cc3C)cc[nH]2)c1 (3D coordinates assigned)
COc1cccc(C/N=c2/cc(Oc3c(C)cc(C#N)cc3C)cc[nH]2)c1 (optimized conformer: 57.58586885269511 kcal/mol)

>  <smiles>  (5) 
COc1cccc(CN=c2cc(Oc3c(C)cc(C#N)cc3C)cc[nH]2)c1

>  <score_type>  (5) 
oracle

>  <origin>  (5) 
adg

>  <m_score__min__energy>  (5) 
-8.2400000000000002

>  <m_primary>  (5) 
energy

$$$$
5:0
     RDKit          3D

 46 48  0  0  0  0  0  0  0  0999 V2000
   55.5400   29.7120   46.0100 H   0  0  0  0  0  0  0  0  0  0  0  0
   55.2600   29.4770   45.0870 O   0  0  0  0  0  0  0  0  0  0  0  0
   56.0180   30.2760   44.2220 C   0  0  0  0  0  0  0  0  0  0  0  0
   55.4418   31.1755   43.9595 H   0  0  0  0  0  0  0  0  0  0  0  0
   56.2509   29.7010   43.3136 H   0  0  0  0  0  0  0  0  0  0  0  0
   57.3040   30.6860   44.8870 C   0  0  0  0  0  0  0  0  0  0  0  0
   58.0770   29.7330   45.5670 C   0  0  0  0  0  0  0  0  0  0  0  0
   57.7394   28.6872   45.6157 H   0  0  0  0  0  0  0  0  0  0  0  0
   59.2730   30.1070   46.1820 C   0  0  0  0  0  0  0  0  0  0  0  0
   59.8668   29.3593   46.7282 H   0  0  0  0  0  0  0  0  0  0  0  0
   59.7170   31.4290   46.1050 C   0  0  0  0  0  0  0  0  0  0  0  0
   60.6533   31.7204   46.6034 H   0  0  0  0  0  0  0  0  0  0  0  0
   58.9790   32.3860   45.3980 C   0  0  0  0  0  0  0  0  0  0  0  0
   59.4630   33.7370   45.3600 N   0  0  0  0  0  0  0  0  0  0  0  0
   59.7690   34.5660   46.4900 C   0  0  0  0  0  0  0  0  0  0  0  0
   59.6830   35.8190   46.3940 O   0  0  0  0  0  0  0  0  0  0  0  0
   60.2740   33.9420   47.7400 C   0  0  0  0  0  0  0  0  0  0  0  0
   59.3520   33.6990   48.7750 C   0  0  0  0  0  0  0  0  0  0  0  0
   58.3024   34.0033   48.6493 H   0  0  0  0  0  0  0  0  0  0  0  0
   59.7510   33.0780   49.9570 C   0  0  0  0  0  0  0  0  0  0  0  0
   58.4710   32.7340   51.3340 Br  0  0  0  0  0  0  0  0  0  0  0  0
   61.0800   32.7030   50.1330 C   0  0  0  0  0  0  0  0  0  0  0  0
   61.3854   32.1975   51.0610 H   0  0  0  0  0  0  0  0  0  0  0  0
   62.0300   32.9630   49.1410 C   0  0  0  0  0  0  0  0  0  0  0  0
   63.3890   32.5820   49.3890 N   0  0  0  0  0  0  0  0  0  0  0  0
   63.6870   31.6120   49.1380 H   0  0  0  0  0  0  0  0  0  0  0  0
   64.2570   33.3730   50.2070 C   0  0  0  0  0  0  0  0  0  0  0  0
   63.8510   34.4730   50.6760 O   0  0  0  0  0  0  0  0  0  0  0  0
   65.5840   32.8960   50.4810 N   0  0  0  0  0  0  0  0  0  0  0  0
   65.9180   31.7160   50.9190 C   0  0  0  0  0  0  0  0  0  0  0  0
   64.9770   30.7630   51.1830 N   0  0  0  0  0  0  0  0  0  0  0  0
   65.3130   29.5270   51.6380 C   0  0  0  0  0  0  0  0  0  0  0  0
   64.5279   28.7829   51.8378 H   0  0  0  0  0  0  0  0  0  0  0  0
   66.6530   29.2010   51.8520 C   0  0  0  0  0  0  0  0  0  0  0  0
   66.9307   28.2025   52.2206 H   0  0  0  0  0  0  0  0  0  0  0  0
   67.6360   30.1560   51.5930 C   0  0  0  0  0  0  0  0  0  0  0  0
   68.6962   29.9146   51.7595 H   0  0  0  0  0  0  0  0  0  0  0  0
   67.2720   31.4190   51.1220 C   0  0  0  0  0  0  0  0  0  0  0  0
   68.0427   32.1753   50.9119 H   0  0  0  0  0  0  0  0  0  0  0  0
   61.6400   33.5830   47.9260 C   0  0  0  0  0  0  0  0  0  0  0  0
   62.6560   33.8240   46.8320 C   0  0  0  0  0  0  0  0  0  0  0  0
   63.6323   34.0556   47.2828 H   0  0  0  0  0  0  0  0  0  0  0  0
   62.7446   32.9220   46.2087 H   0  0  0  0  0  0  0  0  0  0  0  0
   62.3301   34.6698   46.2087 H   0  0  0  0  0  0  0  0  0  0  0  0
   57.7610   32.0120   44.8020 C   0  0  0  0  0  0  0  0  0  0  0  0
   57.1621   32.7628   44.2657 H   0  0  0  0  0  0  0  0  0  0  0  0
  1  2  1  0
  2  3  1  0
  3  4  1  0
  3  5  1  0
  3  6  1  0
  6  7  2  0
  7  8  1  0
  7  9  1  0
  9 10  1  0
  9 11  2  0
 11 12  1  0
 11 13  1  0
 13 14  1  0
 14 15  1  0
 15 16  2  0
 15 17  1  0
 17 18  2  0
 18 19  1  0
 18 20  1  0
 20 21  1  0
 20 22  2  0
 22 23  1  0
 22 24  1  0
 24 25  1  0
 25 26  1  0
 25 27  1  0
 27 28  2  0
 27 29  1  0
 29 30  2  0
 30 31  1  0
 31 32  1  0
 32 33  1  0
 32 34  2  0
 34 35  1  0
 34 36  1  0
 36 37  1  0
 36 38  2  0
 38 39  1  0
 24 40  2  0
 40 41  1  0
 41 42  1  0
 41 43  1  0
 41 44  1  0
 13 45  2  0
 45 46  1  0
 45  6  1  0
 40 17  1  0
 38 30  1  0
M  CHG  2  14  -1  31  -1
M  END
>  <UniqueID>  (6) 
6

>  <SMILES>  (6) 
Cc1c(NC(=O)/N=c2/cccc[n-]2)cc(Br)cc1C(=O)[N-]c1cccc(CO)c1

>  <Energy>  (6) 
67.18641484462628

>  <Genealogy>  (6) 
Cc1c(NC(=O)N=c2cccc[n-]2)cc(Br)cc1C(=O)[N-]c1cccc(CO)c1 (protonated)
Cc1c(NC(=O)/N=c2/cccc[n-]2)cc(Br)cc1C(=O)[N-]c1cccc(CO)c1 (cis-trans isomerization)
Cc1c(NC(=O)/N=c2/cccc[n-]2)cc(Br)cc1C(=O)[N-]c1cccc(CO)c1 (3D coordinates assigned)
Cc1c(NC(=O)/N=c2/cccc[n-]2)cc(Br)cc1C(=O)[N-]c1cccc(CO)c1 (optimized conformer: 67.18641484462628 kcal/mol)

>  <smiles>  (6) 
Cc1c(NC(=O)N=c2cccc[nH]2)cc(Br)cc1C(=O)Nc1cccc(CO)c1

>  <score_type>  (6) 
oracle

>  <origin>  (6) 
adg

>  <m_score__min__energy>  (6) 
-11.789999999999999

>  <m_primary>  (6) 
energy

$$$$
6:0
     RDKit          3D

 52 55  0  0  0  0  0  0  0  0999 V2000
   61.1770   33.9740   46.4460 O   0  0  0  0  0  0  0  0  0  0  0  0
   60.0650   33.6910   46.9710 C   0  0  0  0  0  0  0  0  0  0  0  0
   58.8570   33.7790   46.2120 N   0  0  0  0  0  0  0  0  0  0  0  0
   58.8210   33.7060   44.7590 C   0  0  0  0  0  0  0  0  0  0  0  0
   57.9740   32.5400   44.3400 C   0  0  0  0  0  0  0  0  0  0  0  0
   57.7820   32.2580   42.9800 C   0  0  0  0  0  0  0  0  0  0  0  0
   57.0150   31.1560   42.5990 C   0  0  0  0  0  0  0  0  0  0  0  0
   56.4540   30.3380   43.5830 C   0  0  0  0  0  0  0  0  0  0  0  0
   56.6600   30.6160   44.8980 N   0  0  0  0  0  0  0  0  0  0  0  0
   57.4030   31.6850   45.2950 C   0  0  0  0  0  0  0  0  0  0  0  0
   60.0100   33.2780   48.3750 C   0  0  0  0  0  0  0  0  0  0  0  0
   59.6410   34.2190   49.3490 C   0  0  0  0  0  0  0  0  0  0  0  0
   59.6290   33.8680   50.7000 C   0  0  0  0  0  0  0  0  0  0  0  0
   59.9820   32.5760   51.0910 C   0  0  0  0  0  0  0  0  0  0  0  0
   60.3310   31.6250   50.1290 C   0  0  0  0  0  0  0  0  0  0  0  0
   60.3430   31.9620   48.7650 C   0  0  0  0  0  0  0  0  0  0  0  0
   60.5780   30.9350   47.7860 N   0  0  0  0  0  0  0  0  0  0  0  0
   61.8700   30.9350   47.0850 C   0  0  0  0  0  0  0  0  0  0  0  0
   62.9170   31.6620   47.8680 C   0  0  0  0  0  0  0  0  0  0  0  0
   63.5990   32.7900   47.4560 C   0  0  0  0  0  0  0  0  0  0  0  0
   64.4400   33.1160   48.4980 C   0  0  0  0  0  0  0  0  0  0  0  0
   64.2180   32.1690   49.4790 C   0  0  0  0  0  0  0  0  0  0  0  0
   63.3050   31.3170   49.0750 O   0  0  0  0  0  0  0  0  0  0  0  0
   59.7440   29.4220   48.0340 S   0  0  0  0  0  0  0  0  0  0  0  0
   58.5340   29.6490   48.8970 O   0  0  0  0  0  0  0  0  0  0  0  0
   60.6740   28.4800   48.7490 O   0  0  0  0  0  0  0  0  0  0  0  0
   59.2050   28.6850   46.5260 C   0  0  0  0  0  0  0  0  0  0  0  0
   57.9790   28.0010   46.4800 C   0  0  0  0  0  0  0  0  0  0  0  0
   57.5350   27.4340   45.2800 C   0  0  0  0  0  0  0  0  0  0  0  0
   58.3080   27.5530   44.1200 C   0  0  0  0  0  0  0  0  0  0  0  0
   59.5270   28.2380   44.1600 C   0  0  0  0  0  0  0  0  0  0  0  0
   59.9720   28.8040   45.3580 C   0  0  0  0  0  0  0  0  0  0  0  0
   58.3923   34.6351   44.3552 H   0  0  0  0  0  0  0  0  0  0  0  0
   59.8425   33.5764   44.3719 H   0  0  0  0  0  0  0  0  0  0  0  0
   58.2354   32.9046   42.2142 H   0  0  0  0  0  0  0  0  0  0  0  0
   56.8537   30.9335   41.5339 H   0  0  0  0  0  0  0  0  0  0  0  0
   55.8453   29.4686   43.2938 H   0  0  0  0  0  0  0  0  0  0  0  0
   57.5562   31.8792   46.3668 H   0  0  0  0  0  0  0  0  0  0  0  0
   59.3598   35.2384   49.0461 H   0  0  0  0  0  0  0  0  0  0  0  0
   59.3407   34.6114   51.4578 H   0  0  0  0  0  0  0  0  0  0  0  0
   59.9855   32.3061   52.1574 H   0  0  0  0  0  0  0  0  0  0  0  0
   60.5984   30.6048   50.4417 H   0  0  0  0  0  0  0  0  0  0  0  0
   62.1946   29.8950   46.9332 H   0  0  0  0  0  0  0  0  0  0  0  0
   61.7403   31.4487   46.1210 H   0  0  0  0  0  0  0  0  0  0  0  0
   63.4931   33.3179   46.4968 H   0  0  0  0  0  0  0  0  0  0  0  0
   65.1451   33.9593   48.5400 H   0  0  0  0  0  0  0  0  0  0  0  0
   64.7294   32.1342   50.4523 H   0  0  0  0  0  0  0  0  0  0  0  0
   57.3665   27.9108   47.3892 H   0  0  0  0  0  0  0  0  0  0  0  0
   56.5771   26.8941   45.2488 H   0  0  0  0  0  0  0  0  0  0  0  0
   57.9574   27.1082   43.1770 H   0  0  0  0  0  0  0  0  0  0  0  0
   60.1355   28.3312   43.2484 H   0  0  0  0  0  0  0  0  0  0  0  0
   60.9290   29.3457   45.3848 H   0  0  0  0  0  0  0  0  0  0  0  0
  1  2  2  0
  2  3  1  0
  3  4  1  0
  4  5  1  0
  5  6  2  0
  6  7  1  0
  7  8  2  0
  8  9  1  0
  9 10  2  0
  2 11  1  0
 11 12  2  0
 12 13  1  0
 13 14  2  0
 14 15  1  0
 15 16  2  0
 16 17  1  0
 17 18  1  0
 18 19  1  0
 19 20  2  0
 20 21  1  0
 21 22  2  0
 22 23  1  0
 17 24  1  0
 24 25  2  0
 24 26  2  0
 24 27  1  0
 27 28  2  0
 28 29  1  0
 29 30  2  0
 30 31  1  0
 31 32  2  0
 10  5  1  0
 16 11  1  0
 23 19  1  0
 32 27  1  0
  4 33  1  0
  4 34  1  0
  6 35  1  0
  7 36  1  0
  8 37  1  0
 10 38  1  0
 12 39  1  0
 13 40  1  0
 14 41  1  0
 15 42  1  0
 18 43  1  0
 18 44  1  0
 20 45  1  0
 21 46  1  0
 22 47  1  0
 28 48  1  0
 29 49  1  0
 30 50  1  0
 31 51  1  0
 32 52  1  0
M  CHG  1   3  -1
M  END
>  <UniqueID>  (7) 
7

>  <SMILES>  (7) 
O=C([N-]Cc1cccnc1)c1ccccc1N(Cc1ccco1)S(=O)(=O)c1ccccc1

>  <Energy>  (7) 
89.88809723381141

>  <Genealogy>  (7) 
O=C([N-]Cc1cccnc1)c1ccccc1N(Cc1ccco1)S(=O)(=O)c1ccccc1 (protonated)
O=C([N-]Cc1cccnc1)c1ccccc1N(Cc1ccco1)S(=O)(=O)c1ccccc1 (3D coordinates assigned)
O=C([N-]Cc1cccnc1)c1ccccc1N(Cc1ccco1)S(=O)(=O)c1ccccc1 (optimized conformer: 89.88809723381141 kcal/mol)

>  <smiles>  (7) 
O=C(NCc1cccnc1)c1ccccc1N(Cc1ccco1)S(=O)(=O)c1ccccc1

>  <score_type>  (7) 
oracle

>  <origin>  (7) 
adg

>  <m_score__min__energy>  (7) 
-10.48

>  <m_primary>  (7) 
energy

$$$$
7:0
     RDKit          3D

 53 55  0  0  0  0  0  0  0  0999 V2000
   55.4860   29.3470   44.8360 N   0  0  0  0  0  0  0  0  0  0  0  0
   56.8810   29.5720   44.6440 C   0  0  0  0  0  0  0  0  0  0  0  0
   57.2630   30.3030   43.6920 O   0  0  0  0  0  0  0  0  0  0  0  0
   57.8610   28.9820   45.5810 C   0  0  0  0  0  0  0  0  0  0  0  0
   58.7730   29.7680   46.3070 C   0  0  0  0  0  0  0  0  0  0  0  0
   59.6850   29.0240   47.0590 C   0  0  0  0  0  0  0  0  0  0  0  0
   60.8450   29.5420   47.8670 C   0  0  0  0  0  0  0  0  0  0  0  0
   60.6300   29.4510   49.3920 C   0  0  0  0  0  0  0  0  0  0  0  0
   59.5660   30.3900   49.8880 C   0  0  0  0  0  0  0  0  0  0  0  0
   58.4390   30.4290   49.3240 O   0  0  0  0  0  0  0  0  0  0  0  0
   59.8050   31.1360   51.0900 N   0  0  0  0  0  0  0  0  0  0  0  0
   59.0760   32.0920   51.5950 C   0  0  0  0  0  0  0  0  0  0  0  0
   59.4370   33.5310   51.5620 C   0  0  0  0  0  0  0  0  0  0  0  0
   59.5160   34.1890   52.6310 O   0  0  0  0  0  0  0  0  0  0  0  0
   59.6230   34.2190   50.3200 N   0  0  0  0  0  0  0  0  0  0  0  0
   59.6610   33.5710   49.0150 C   0  0  0  0  0  0  0  0  0  0  0  0
   61.0790   33.5370   48.5200 C   0  0  0  0  0  0  0  0  0  0  0  0
   62.1410   33.4340   49.4340 C   0  0  0  0  0  0  0  0  0  0  0  0
   63.4610   33.3700   48.9760 C   0  0  0  0  0  0  0  0  0  0  0  0
   63.7290   33.4000   47.6040 C   0  0  0  0  0  0  0  0  0  0  0  0
   62.6770   33.4880   46.6870 C   0  0  0  0  0  0  0  0  0  0  0  0
   61.3540   33.5500   47.1410 C   0  0  0  0  0  0  0  0  0  0  0  0
   59.3850   27.3890   46.7980 S   0  0  0  0  0  0  0  0  0  0  0  0
   58.0700   27.6120   45.7790 C   0  0  0  0  0  0  0  0  0  0  0  0
   57.3060   26.5320   45.2360 N   0  0  0  0  0  0  0  0  0  0  0  0
   56.1540   25.9680   45.8710 C   0  0  0  0  0  0  0  0  0  0  0  0
   55.2250   26.7160   46.2790 O   0  0  0  0  0  0  0  0  0  0  0  0
   56.0230   24.5510   46.0300 N   0  0  0  0  0  0  0  0  0  0  0  0
   56.6900   23.5390   45.2600 C   0  0  0  0  0  0  0  0  0  0  0  0
   58.0930   23.4010   45.2680 C   0  0  0  0  0  0  0  0  0  0  0  0
   58.7050   22.3820   44.5330 C   0  0  0  0  0  0  0  0  0  0  0  0
   57.9270   21.4830   43.8000 C   0  0  0  0  0  0  0  0  0  0  0  0
   56.5350   21.5940   43.8080 C   0  0  0  0  0  0  0  0  0  0  0  0
   55.9160   22.6130   44.5410 C   0  0  0  0  0  0  0  0  0  0  0  0
   54.5280   22.7060   44.5490 O   0  0  0  0  0  0  0  0  0  0  0  0
   55.1420   28.7470   45.6180 H   0  0  0  0  0  0  0  0  0  0  0  0
   58.7687   30.8678   46.2848 H   0  0  0  0  0  0  0  0  0  0  0  0
   61.7385   28.9555   47.6069 H   0  0  0  0  0  0  0  0  0  0  0  0
   60.9561   30.6085   47.6217 H   0  0  0  0  0  0  0  0  0  0  0  0
   60.3356   28.4216   49.6445 H   0  0  0  0  0  0  0  0  0  0  0  0
   61.5752   29.7361   49.8770 H   0  0  0  0  0  0  0  0  0  0  0  0
   58.1284   31.8126   52.0787 H   0  0  0  0  0  0  0  0  0  0  0  0
   59.2777   32.5437   49.1033 H   0  0  0  0  0  0  0  0  0  0  0  0
   59.0359   34.1331   48.3056 H   0  0  0  0  0  0  0  0  0  0  0  0
   61.9336   33.4036   50.5138 H   0  0  0  0  0  0  0  0  0  0  0  0
   64.2893   33.2960   49.6960 H   0  0  0  0  0  0  0  0  0  0  0  0
   64.7680   33.3544   47.2458 H   0  0  0  0  0  0  0  0  0  0  0  0
   62.8891   33.5085   45.6078 H   0  0  0  0  0  0  0  0  0  0  0  0
   60.5277   33.6090   46.4173 H   0  0  0  0  0  0  0  0  0  0  0  0
   58.7086   24.0983   45.8552 H   0  0  0  0  0  0  0  0  0  0  0  0
   59.8010   22.2878   44.5318 H   0  0  0  0  0  0  0  0  0  0  0  0
   58.4113   20.6867   43.2158 H   0  0  0  0  0  0  0  0  0  0  0  0
   55.9239   20.8793   43.2372 H   0  0  0  0  0  0  0  0  0  0  0  0
  1  2  1  0
  2  3  2  0
  2  4  1  0
  4  5  1  0
  5  6  2  0
  6  7  1  0
  7  8  1  0
  8  9  1  0
  9 10  2  0
  9 11  1  0
 11 12  2  3
 12 13  1  0
 13 14  2  0
 13 15  1  0
 15 16  1  0
 16 17  1  0
 17 18  2  0
 18 19  1  0
 19 20  2  0
 20 21  1  0
 21 22  2  0
  6 23  1  0
 23 24  1  0
 24 25  1  0
 25 26  1  0
 26 27  2  0
 26 28  1  0
 28 29  1  0
 29 30  2  0
 30 31  1  0
 31 32  2  0
 32 33  1  0
 33 34  2  0
 34 35  1  0
 24  4  2  0
 34 29  1  0
 22 17  1  0
  1 36  1  0
  5 37  1  0
  7 38  1  0
  7 39  1  0
  8 40  1  0
  8 41  1  0
 12 42  1  0
 16 43  1  0
 16 44  1  0
 18 45  1  0
 19 46  1  0
 20 47  1  0
 21 48  1  0
 22 49  1  0
 30 50  1  0
 31 51  1  0
 32 52  1  0
 33 53  1  0
M  CHG  5   1  -1  15  -1  25  -1  28  -1  35  -1
M  END
>  <UniqueID>  (8) 
8

>  <SMILES>  (8) 
[NH-]C(=O)c1cc(CCC(=O)N=CC(=O)[N-]Cc2ccccc2)sc1[N-]C(=O)[N-]c1ccccc1[O-]

>  <Energy>  (8) 
98.0153219627804

>  <Genealogy>  (8) 
[NH-]C(=O)c1cc(CCC(=O)N=CC(=O)[N-]Cc2ccccc2)sc1[N-]C(=O)[N-]c1ccccc1[O-] (protonated)
[NH-]C(=O)c1cc(CCC(=O)N=CC(=O)[N-]Cc2ccccc2)sc1[N-]C(=O)[N-]c1ccccc1[O-] (3D coordinates assigned)
[NH-]C(=O)c1cc(CCC(=O)N=CC(=O)[N-]Cc2ccccc2)sc1[N-]C(=O)[N-]c1ccccc1[O-] (optimized conformer: 98.0153219627804 kcal/mol)

>  <smiles>  (8) 
NC(=O)c1cc(CCC(=O)N=CC(=O)NCc2ccccc2)sc1NC(=O)Nc1ccccc1O

>  <score_type>  (8) 
oracle

>  <origin>  (8) 
adg

>  <m_score__min__energy>  (8) 
-19.239999999999998

>  <m_primary>  (8) 
energy

$$$$
8:0
     RDKit          3D

 44 46  0  0  0  0  0  0  0  0999 V2000
   63.4203   30.9203   47.2676 H   0  0  0  0  0  0  0  0  0  0  0  0
   62.8790   31.8180   47.6010 C   0  0  0  0  0  0  0  0  0  0  0  0
   61.7870   31.6760   48.3710 C   0  0  0  0  0  0  0  0  0  0  0  0
   61.3540   30.3110   48.7540 C   0  0  0  0  0  0  0  0  0  0  0  0
   61.5430   29.9030   50.0400 N   0  0  0  0  0  0  0  0  0  0  0  0
   61.1130   28.6940   50.4880 C   0  0  0  0  0  0  0  0  0  0  0  0
   61.3016   28.3948   51.5296 H   0  0  0  0  0  0  0  0  0  0  0  0
   60.4330   27.8330   49.6280 C   0  0  0  0  0  0  0  0  0  0  0  0
   60.0713   26.8588   49.9888 H   0  0  0  0  0  0  0  0  0  0  0  0
   60.2160   28.2190   48.3060 C   0  0  0  0  0  0  0  0  0  0  0  0
   59.6673   27.5530   47.6239 H   0  0  0  0  0  0  0  0  0  0  0  0
   60.6930   29.4490   47.8440 C   0  0  0  0  0  0  0  0  0  0  0  0
   60.4710   29.7900   46.5000 O   0  0  0  0  0  0  0  0  0  0  0  0
   59.3090   30.4010   46.0120 C   0  0  0  0  0  0  0  0  0  0  0  0
   59.0950   31.7140   46.2840 N   0  0  0  0  0  0  0  0  0  0  0  0
   57.9930   32.3640   45.8180 C   0  0  0  0  0  0  0  0  0  0  0  0
   57.8050   33.6240   46.0720 N   0  0  0  0  0  0  0  0  0  0  0  0
   58.8840   34.5840   46.2770 C   0  0  0  0  0  0  0  0  0  0  0  0
   59.0463   34.7284   47.3553 H   0  0  0  0  0  0  0  0  0  0  0  0
   59.8067   34.2027   45.8151 H   0  0  0  0  0  0  0  0  0  0  0  0
   58.6127   35.5448   45.8151 H   0  0  0  0  0  0  0  0  0  0  0  0
   57.0830   31.6930   45.0680 N   0  0  0  0  0  0  0  0  0  0  0  0
   57.2380   30.3730   44.7740 C   0  0  0  0  0  0  0  0  0  0  0  0
   56.2280   29.6840   43.9420 C   0  0  0  0  0  0  0  0  0  0  0  0
   55.1300   29.3250   44.4470 O   0  0  0  0  0  0  0  0  0  0  0  0
   56.4820   29.4080   42.5630 N   0  0  0  0  0  0  0  0  0  0  0  0
   57.3800   29.6850   42.1080 H   0  0  0  0  0  0  0  0  0  0  0  0
   55.7620   28.9180   41.9860 H   0  0  0  0  0  0  0  0  0  0  0  0
   58.3600   29.6920   45.2610 C   0  0  0  0  0  0  0  0  0  0  0  0
   58.4950   28.6193   45.0582 H   0  0  0  0  0  0  0  0  0  0  0  0
   61.0840   32.8480   48.8630 N   0  0  0  0  0  0  0  0  0  0  0  0
   59.7980   32.7150   49.5540 C   0  0  0  0  0  0  0  0  0  0  0  0
   59.9626   32.7320   50.6415 H   0  0  0  0  0  0  0  0  0  0  0  0
   59.1408   33.5500   49.2695 H   0  0  0  0  0  0  0  0  0  0  0  0
   59.3256   31.7632   49.2695 H   0  0  0  0  0  0  0  0  0  0  0  0
   61.5830   34.2070   48.5870 C   0  0  0  0  0  0  0  0  0  0  0  0
   61.4095   34.8373   49.4716 H   0  0  0  0  0  0  0  0  0  0  0  0
   61.0440   34.6000   47.7123 H   0  0  0  0  0  0  0  0  0  0  0  0
   63.0800   34.2040   48.2650 C   0  0  0  0  0  0  0  0  0  0  0  0
   63.6479   33.9567   49.1740 H   0  0  0  0  0  0  0  0  0  0  0  0
   63.3738   35.1999   47.9018 H   0  0  0  0  0  0  0  0  0  0  0  0
   63.3780   33.1680   47.1850 C   0  0  0  0  0  0  0  0  0  0  0  0
   64.4646   33.1177   47.0216 H   0  0  0  0  0  0  0  0  0  0  0  0
   62.8683   33.4652   46.2566 H   0  0  0  0  0  0  0  0  0  0  0  0
  1  2  1  0
  2  3  2  0
  3  4  1  0
  4  5  2  0
  5  6  1  0
  6  7  1  0
  6  8  2  0
  8  9  1  0
  8 10  1  0
 10 11  1  0
 10 12  2  0
 12 13  1  0
 13 14  1  0
 14 15  1  0
 15 16  1  0
 16 17  2  0
 17 18  1  0
 18 19  1  0
 18 20  1  0
 18 21  1  0
 16 22  1  0
 22 23  2  0
 23 24  1  0
 24 25  2  0
 24 26  1  0
 26 27  1  0
 26 28  1  0
 23 29  1  0
 29 30  1  0
  3 31  1  0
 31 32  1  0
 32 33  1  0
 32 34  1  0
 32 35  1  0
 31 36  1  0
 36 37  1  0
 36 38  1  0
 36 39  1  0
 39 40  1  0
 39 41  1  0
 39 42  1  0
 42 43  1  0
 42 44  1  0
 42  2  1  0
 12  4  1  0
 29 14  2  0
M  CHG  1  15  -1
M  END
>  <UniqueID>  (9) 
9

>  <SMILES>  (9) 
C/N=c1/nc(C(N)=O)cc(Oc2cccnc2C2=CCCCN2C)[n-]1

>  <Energy>  (9) 
52.64487607219039

>  <Genealogy>  (9) 
CN=c1nc(C(N)=O)cc(Oc2cccnc2C2=CCCCN2C)[n-]1 (protonated)
C/N=c1/nc(C(N)=O)cc(Oc2cccnc2C2=CCCCN2C)[n-]1 (cis-trans isomerization)
C/N=c1/nc(C(N)=O)cc(Oc2cccnc2C2=CCCCN2C)[n-]1 (3D coordinates assigned)
C/N=c1/nc(C(N)=O)cc(Oc2cccnc2C2=CCCCN2C)[n-]1 (nonaromatic ring conformer: 52.64487607219039 kcal/mol)

>  <smiles>  (9) 
CN=c1nc(C(N)=O)cc(Oc2cccnc2C2=CCCCN2C)[nH]1

>  <score_type>  (9) 
oracle

>  <origin>  (9) 
adg

>  <m_score__min__energy>  (9) 
-9.2599999999999998

>  <m_primary>  (9) 
energy

$$$$
9:0
     RDKit          3D

 45 47  0  0  0  0  0  0  0  0999 V2000
   62.3590   30.8800   50.9200 C   0  0  0  0  0  0  0  0  0  0  0  0
   61.7770   29.7940   51.8180 C   0  0  0  0  0  0  0  0  0  0  0  0
   62.3840   28.5330   51.5420 O   0  0  0  0  0  0  0  0  0  0  0  0
   61.6950   27.4520   50.9810 C   0  0  0  0  0  0  0  0  0  0  0  0
   61.8070   26.2940   51.4680 O   0  0  0  0  0  0  0  0  0  0  0  0
   60.8430   27.6740   49.8080 C   0  0  0  0  0  0  0  0  0  0  0  0
   60.0810   26.7190   49.1610 C   0  0  0  0  0  0  0  0  0  0  0  0
   59.4820   27.4080   48.1230 C   0  0  0  0  0  0  0  0  0  0  0  0
   58.6460   26.7890   47.0710 C   0  0  0  0  0  0  0  0  0  0  0  0
   59.2090   25.9170   46.1230 C   0  0  0  0  0  0  0  0  0  0  0  0
   58.4080   25.3330   45.1380 C   0  0  0  0  0  0  0  0  0  0  0  0
   57.0380   25.6030   45.0970 C   0  0  0  0  0  0  0  0  0  0  0  0
   56.4640   26.4530   46.0470 C   0  0  0  0  0  0  0  0  0  0  0  0
   55.1000   26.7160   46.0110 O   0  0  0  0  0  0  0  0  0  0  0  0
   57.2630   27.0400   47.0350 C   0  0  0  0  0  0  0  0  0  0  0  0
   59.8710   28.7060   48.1820 N   0  0  0  0  0  0  0  0  0  0  0  0
   59.4350   29.8010   47.3590 C   0  0  0  0  0  0  0  0  0  0  0  0
   59.2200   31.0580   47.9310 C   0  0  0  0  0  0  0  0  0  0  0  0
   58.7900   32.1270   47.1440 C   0  0  0  0  0  0  0  0  0  0  0  0
   58.5490   31.9590   45.7710 C   0  0  0  0  0  0  0  0  0  0  0  0
   58.0080   33.3600   44.8300 S   0  0  0  0  0  0  0  0  0  0  0  0
   56.6570   34.1100   45.6090 N   0  0  0  0  0  0  0  0  0  0  0  0
   59.1300   34.3490   44.6830 O   0  0  0  0  0  0  0  0  0  0  0  0
   57.5870   32.9230   43.4550 O   0  0  0  0  0  0  0  0  0  0  0  0
   58.7510   30.6830   45.1860 C   0  0  0  0  0  0  0  0  0  0  0  0
   58.5360   30.4400   43.7890 N   0  0  0  0  0  0  0  0  0  0  0  0
   59.1790   29.6160   45.9930 C   0  0  0  0  0  0  0  0  0  0  0  0
   60.7010   28.8680   49.2020 N   0  0  0  0  0  0  0  0  0  0  0  0
   62.7875   31.6796   51.5421 H   0  0  0  0  0  0  0  0  0  0  0  0
   63.1463   30.4477   50.2850 H   0  0  0  0  0  0  0  0  0  0  0  0
   61.5631   31.2962   50.2850 H   0  0  0  0  0  0  0  0  0  0  0  0
   61.9584   30.0596   52.8699 H   0  0  0  0  0  0  0  0  0  0  0  0
   60.6969   29.7165   51.6249 H   0  0  0  0  0  0  0  0  0  0  0  0
   59.9754   25.6538   49.4144 H   0  0  0  0  0  0  0  0  0  0  0  0
   60.2855   25.6932   46.1567 H   0  0  0  0  0  0  0  0  0  0  0  0
   58.8572   24.6593   44.3934 H   0  0  0  0  0  0  0  0  0  0  0  0
   56.4107   25.1467   44.3171 H   0  0  0  0  0  0  0  0  0  0  0  0
   56.8068   27.7008   47.7868 H   0  0  0  0  0  0  0  0  0  0  0  0
   59.3907   31.2054   49.0076 H   0  0  0  0  0  0  0  0  0  0  0  0
   58.6379   33.1140   47.6052 H   0  0  0  0  0  0  0  0  0  0  0  0
   56.7420   33.9050   46.6300 H   0  0  0  0  0  0  0  0  0  0  0  0
   56.7620   35.1420   45.5030 H   0  0  0  0  0  0  0  0  0  0  0  0
   58.5020   29.4840   43.3780 H   0  0  0  0  0  0  0  0  0  0  0  0
   58.3800   31.2380   43.1330 H   0  0  0  0  0  0  0  0  0  0  0  0
   59.3154   28.6200   45.5464 H   0  0  0  0  0  0  0  0  0  0  0  0
  1  2  1  0
  2  3  1  0
  3  4  1  0
  4  5  2  0
  4  6  1  0
  6  7  1  0
  7  8  2  0
  8  9  1  0
  9 10  2  0
 10 11  1  0
 11 12  2  0
 12 13  1  0
 13 14  1  0
 13 15  2  0
  8 16  1  0
 16 17  1  0
 17 18  2  0
 18 19  1  0
 19 20  2  0
 20 21  1  0
 21 22  1  0
 21 23  2  0
 21 24  2  0
 20 25  1  0
 25 26  1  0
 25 27  2  0
 16 28  1  0
 28  6  2  0
 15  9  1  0
 27 17  1  0
  1 29  1  0
  1 30  1  0
  1 31  1  0
  2 32  1  0
  2 33  1  0
  7 34  1  0
 10 35  1  0
 11 36  1  0
 12 37  1  0
 15 38  1  0
 18 39  1  0
 19 40  1  0
 22 41  1  0
 22 42  1  0
 26 43  1  0
 26 44  1  0
 27 45  1  0
M  CHG  1  14  -1
M  END
>  <UniqueID>  (10) 
10

>  <SMILES>  (10) 
CCOC(=O)c1cc(-c2cccc([O-])c2)n(-c2ccc(S(N)(=O)=O)c(N)c2)n1

>  <Energy>  (10) 
81.80596535364555

>  <Genealogy>  (10) 
CCOC(=O)c1cc(-c2cccc([O-])c2)n(-c2ccc(S(N)(=O)=O)c(N)c2)n1 (protonated)
CCOC(=O)c1cc(-c2cccc([O-])c2)n(-c2ccc(S(N)(=O)=O)c(N)c2)n1 (3D coordinates assigned)
CCOC(=O)c1cc(-c2cccc([O-])c2)n(-c2ccc(S(N)(=O)=O)c(N)c2)n1 (optimized conformer: 81.80596535364555 kcal/mol)

>  <smiles>  (10) 
CCOC(=O)c1cc(-c2cccc(O)c2)n(-c2ccc(S(N)(=O)=O)c(N)c2)n1

>  <score_type>  (10) 
oracle

>  <origin>  (10) 
adg

>  <m_score__min__energy>  (10) 
-11.06

>  <m_primary>  (10) 
energy

$$$$
10:0
     RDKit          3D

 53 55  0  0  1  0  0  0  0  0999 V2000
   59.3390   30.7420   48.4020 C   0  0  0  0  0  0  0  0  0  0  0  0
   59.4290   30.0990   47.1050 N   0  0  0  0  0  0  0  0  0  0  0  0
   60.7790   29.7930   46.7350 C   0  0  0  0  0  0  0  0  0  0  0  0
   58.5260   28.9840   46.9830 C   0  0  0  0  0  0  0  0  0  0  0  0
   59.2160   27.9020   46.2100 C   0  0  0  0  0  0  0  0  0  0  0  0
   59.0510   28.0870   44.7660 N   0  0  0  0  0  0  0  0  0  0  0  0
   58.2880   29.0090   44.2870 C   0  0  0  0  0  0  0  0  0  0  0  0
   57.1280   28.6800   43.6580 N   0  0  0  0  0  0  0  0  0  0  0  0
   56.3270   29.6600   43.1540 C   0  0  0  0  0  0  0  0  0  0  0  0
   56.7670   30.9460   43.3240 C   0  0  0  0  0  0  0  0  0  0  0  0
   57.9380   31.2920   43.9570 C   0  0  0  0  0  0  0  0  0  0  0  0
   58.2550   32.5310   44.0610 N   0  0  0  0  0  0  0  0  0  0  0  0
   57.9440   33.5620   45.3820 S   0  0  0  0  0  0  0  0  0  0  0  0
   57.7450   34.9570   44.7730 O   0  0  0  0  0  0  0  0  0  0  0  0
   56.6550   33.2940   46.0940 O   0  0  0  0  0  0  0  0  0  0  0  0
   59.3130   33.6490   46.4480 C   0  0  0  0  0  0  0  0  0  0  0  0
   59.0970   33.9130   47.7860 C   0  0  0  0  0  0  0  0  0  0  0  0
   60.1230   33.9960   48.7060 C   0  0  0  0  0  0  0  0  0  0  0  0
   61.4330   33.8080   48.2860 C   0  0  0  0  0  0  0  0  0  0  0  0
   61.6850   33.5420   46.9540 C   0  0  0  0  0  0  0  0  0  0  0  0
   60.6180   33.4660   46.0530 C   0  0  0  0  0  0  0  0  0  0  0  0
   63.1410   33.3840   46.7580 C   0  0  0  0  0  0  0  0  0  0  0  0
   63.7340   33.8260   48.0650 C   0  0  0  0  0  0  0  0  0  0  0  0
   62.6530   33.8390   49.0110 N   0  0  0  0  0  0  0  0  0  0  0  0
   62.8300   33.8840   50.7240 S   0  0  0  0  0  0  0  0  0  0  0  0
   63.7760   32.4810   51.2600 C   0  0  0  0  0  0  0  0  0  0  0  0
   61.5040   33.8390   51.4130 O   0  0  0  0  0  0  0  0  0  0  0  0
   63.5520   35.1410   51.0880 O   0  0  0  0  0  0  0  0  0  0  0  0
   58.6910   30.2820   44.4370 N   0  0  0  0  0  0  0  0  0  0  0  0
   59.4448   29.9861   49.1941 H   0  0  0  0  0  0  0  0  0  0  0  0
   60.1414   31.4883   48.4978 H   0  0  0  0  0  0  0  0  0  0  0  0
   58.3625   31.2393   48.4978 H   0  0  0  0  0  0  0  0  0  0  0  0
   61.3856   29.6555   47.6422 H   0  0  0  0  0  0  0  0  0  0  0  0
   60.7953   28.8684   46.1394 H   0  0  0  0  0  0  0  0  0  0  0  0
   61.1924   30.6202   46.1394 H   0  0  0  0  0  0  0  0  0  0  0  0
   58.2563   28.6127   47.9827 H   0  0  0  0  0  0  0  0  0  0  0  0
   57.6081   29.2950   46.4627 H   0  0  0  0  0  0  0  0  0  0  0  0
   60.2888   27.9177   46.4524 H   0  0  0  0  0  0  0  0  0  0  0  0
   58.7665   26.9375   46.4886 H   0  0  0  0  0  0  0  0  0  0  0  0
   56.8350   27.6830   43.5530 H   0  0  0  0  0  0  0  0  0  0  0  0
   55.3815   29.4317   42.6402 H   0  0  0  0  0  0  0  0  0  0  0  0
   56.1404   31.7582   42.9268 H   0  0  0  0  0  0  0  0  0  0  0  0
   58.0642   34.0635   48.1334 H   0  0  0  0  0  0  0  0  0  0  0  0
   59.9045   34.2093   49.7628 H   0  0  0  0  0  0  0  0  0  0  0  0
   60.8290   33.2531   44.9946 H   0  0  0  0  0  0  0  0  0  0  0  0
   63.3956   32.3346   46.5482 H   0  0  0  0  0  0  0  0  0  0  0  0
   63.5186   33.9652   45.9038 H   0  0  0  0  0  0  0  0  0  0  0  0
   64.5146   33.1212   48.3874 H   0  0  0  0  0  0  0  0  0  0  0  0
   64.2027   34.8173   47.9779 H   0  0  0  0  0  0  0  0  0  0  0  0
   63.7963   32.4508   52.3594 H   0  0  0  0  0  0  0  0  0  0  0  0
   63.3143   31.5592   50.8764 H   0  0  0  0  0  0  0  0  0  0  0  0
   64.8036   32.5635   50.8764 H   0  0  0  0  0  0  0  0  0  0  0  0
   59.5720   30.5050   44.9150 H   0  0  0  0  0  0  0  0  0  0  0  0
  1  2  1  0
  2  3  1  0
  2  4  1  0
  4  5  1  0
  5  6  1  0
  6  7  2  0
  7  8  1  0
  8  9  1  0
  9 10  2  0
 10 11  1  0
 11 12  2  0
 12 13  1  0
 13 14  2  0
 13 15  2  0
 13 16  1  0
 16 17  2  0
 17 18  1  0
 18 19  2  0
 19 20  1  0
 20 21  2  0
 20 22  1  0
 22 23  1  0
 23 24  1  0
 24 25  1  0
 25 26  1  0
 25 27  2  0
 25 28  2  0
 11 29  1  0
 29  7  1  0
 21 16  1  0
 24 19  1  0
  1 30  1  0
  1 31  1  0
  1 32  1  0
  3 33  1  0
  3 34  1  0
  3 35  1  0
  4 36  1  0
  4 37  1  0
  5 38  1  0
  5 39  1  0
  8 40  1  0
  9 41  1  0
 10 42  1  0
 17 43  1  0
 18 44  1  0
 21 45  1  0
 22 46  1  0
 22 47  1  0
 23 48  1  0
 23 49  1  0
 26 50  1  0
 26 51  1  0
 26 52  1  0
 29 53  1  0
M  END
>  <smiles>  (11) 
CN(C)CCN=c1[nH]ccc(=NS(=O)(=O)c2ccc3c(c2)CCN3S(C)(=O)=O)[nH]1

>  <score_type>  (11) 
oracle

>  <origin>  (11) 
adg

>  <m_score__min__energy>  (11) 
-9.4800000000000004

>  <m_primary>  (11) 
energy

$$$$
11:0
     RDKit          3D

 50 52  0  0  0  0  0  0  0  0999 V2000
   57.9420   32.1070   49.8130 N   0  0  0  0  0  0  0  0  0  0  0  0
   59.2690   33.0050   49.1630 S   0  0  0  0  0  0  0  0  0  0  0  0
   60.5310   32.2010   49.3030 O   0  0  0  0  0  0  0  0  0  0  0  0
   59.4290   34.2900   49.9270 O   0  0  0  0  0  0  0  0  0  0  0  0
   58.9640   33.3550   47.4660 C   0  0  0  0  0  0  0  0  0  0  0  0
   59.2880   34.6100   46.9340 C   0  0  0  0  0  0  0  0  0  0  0  0
   59.0630   34.8770   45.5810 C   0  0  0  0  0  0  0  0  0  0  0  0
   58.5250   33.8900   44.7500 C   0  0  0  0  0  0  0  0  0  0  0  0
   58.2130   32.6260   45.2690 C   0  0  0  0  0  0  0  0  0  0  0  0
   57.5750   31.3640   44.2110 S   0  0  0  0  0  0  0  0  0  0  0  0
   56.2300   30.9250   44.7200 O   0  0  0  0  0  0  0  0  0  0  0  0
   57.3900   31.9220   42.8280 O   0  0  0  0  0  0  0  0  0  0  0  0
   58.6520   29.9880   44.1370 N   0  0  0  0  0  0  0  0  0  0  0  0
   57.8830   28.7350   43.9750 C   0  0  0  0  0  0  0  0  0  0  0  0
   58.6850   27.5100   44.4240 C   0  0  0  0  0  0  0  0  0  0  0  0
   59.0550   27.6600   45.8360 N   0  0  0  0  0  0  0  0  0  0  0  0
   58.9910   26.5390   46.7380 C   0  0  0  0  0  0  0  0  0  0  0  0
   58.4970   26.6950   47.8860 O   0  0  0  0  0  0  0  0  0  0  0  0
   59.4680   25.1950   46.3570 C   0  0  0  0  0  0  0  0  0  0  0  0
   58.8590   24.4540   45.4210 C   0  0  0  0  0  0  0  0  0  0  0  0
   57.3890   24.2840   45.3320 C   0  0  0  0  0  0  0  0  0  0  0  0
   56.7900   23.0940   44.8720 C   0  0  0  0  0  0  0  0  0  0  0  0
   55.3990   22.9880   44.7920 C   0  0  0  0  0  0  0  0  0  0  0  0
   54.5850   24.0630   45.1610 C   0  0  0  0  0  0  0  0  0  0  0  0
   53.1990   23.9280   45.0740 O   0  0  0  0  0  0  0  0  0  0  0  0
   55.1720   25.2570   45.6060 C   0  0  0  0  0  0  0  0  0  0  0  0
   54.3800   26.3400   45.9720 O   0  0  0  0  0  0  0  0  0  0  0  0
   56.5640   25.3660   45.6840 C   0  0  0  0  0  0  0  0  0  0  0  0
   59.2540   29.0070   46.3820 C   0  0  0  0  0  0  0  0  0  0  0  0
   59.6200   29.9930   45.2620 C   0  0  0  0  0  0  0  0  0  0  0  0
   58.4280   32.3650   46.6300 C   0  0  0  0  0  0  0  0  0  0  0  0
   57.1070   32.7340   49.7830 H   0  0  0  0  0  0  0  0  0  0  0  0
   59.7202   35.3864   47.5825 H   0  0  0  0  0  0  0  0  0  0  0  0
   59.3099   35.8665   45.1687 H   0  0  0  0  0  0  0  0  0  0  0  0
   58.3461   34.1059   43.6863 H   0  0  0  0  0  0  0  0  0  0  0  0
   56.9658   28.8002   44.5787 H   0  0  0  0  0  0  0  0  0  0  0  0
   57.6476   28.6154   42.9072 H   0  0  0  0  0  0  0  0  0  0  0  0
   58.0727   26.6047   44.2993 H   0  0  0  0  0  0  0  0  0  0  0  0
   59.5955   27.4230   43.8130 H   0  0  0  0  0  0  0  0  0  0  0  0
   60.3567   24.7863   46.8602 H   0  0  0  0  0  0  0  0  0  0  0  0
   59.4860   23.9425   44.6759 H   0  0  0  0  0  0  0  0  0  0  0  0
   57.4212   22.2438   44.5742 H   0  0  0  0  0  0  0  0  0  0  0  0
   54.9416   22.0529   44.4365 H   0  0  0  0  0  0  0  0  0  0  0  0
   52.5760   24.7220   45.1570 H   0  0  0  0  0  0  0  0  0  0  0  0
   57.0179   26.3084   46.0244 H   0  0  0  0  0  0  0  0  0  0  0  0
   58.3260   29.3408   46.8692 H   0  0  0  0  0  0  0  0  0  0  0  0
   60.0761   28.9770   47.1122 H   0  0  0  0  0  0  0  0  0  0  0  0
   59.6561   31.0069   45.6872 H   0  0  0  0  0  0  0  0  0  0  0  0
   60.5931   29.6792   44.8563 H   0  0  0  0  0  0  0  0  0  0  0  0
   58.1747   31.3779   47.0441 H   0  0  0  0  0  0  0  0  0  0  0  0
  1  2  1  0
  2  3  2  0
  2  4  2  0
  2  5  1  0
  5  6  2  0
  6  7  1  0
  7  8  2  0
  8  9  1  0
  9 10  1  0
 10 11  2  0
 10 12  2  0
 10 13  1  0
 13 14  1  0
 14 15  1  0
 15 16  1  0
 16 17  1  0
 17 18  2  0
 17 19  1  0
 19 20  2  3
 20 21  1  0
 21 22  2  0
 22 23  1  0
 23 24  2  0
 24 25  1  0
 24 26  1  0
 26 27  1  0
 26 28  2  0
 16 29  1  0
 29 30  1  0
  9 31  2  0
 31  5  1  0
 30 13  1  0
 28 21  1  0
  1 32  1  0
  6 33  1  0
  7 34  1  0
  8 35  1  0
 14 36  1  0
 14 37  1  0
 15 38  1  0
 15 39  1  0
 19 40  1  0
 20 41  1  0
 22 42  1  0
 23 43  1  0
 25 44  1  0
 28 45  1  0
 29 46  1  0
 29 47  1  0
 30 48  1  0
 30 49  1  0
 31 50  1  0
M  CHG  2   1  -1  27  -1
M  END
>  <UniqueID>  (12) 
11

>  <SMILES>  (12) 
[NH-]S(=O)(=O)c1cccc(S(=O)(=O)N2CCN(C(=O)C=Cc3ccc(O)c([O-])c3)CC2)c1

>  <Energy>  (12) 
61.36417265316502

>  <Genealogy>  (12) 
[NH-]S(=O)(=O)c1cccc(S(=O)(=O)N2CCN(C(=O)C=Cc3ccc(O)c([O-])c3)CC2)c1 (protonated)
[NH-]S(=O)(=O)c1cccc(S(=O)(=O)N2CCN(C(=O)C=Cc3ccc(O)c([O-])c3)CC2)c1 (3D coordinates assigned)
[NH-]S(=O)(=O)c1cccc(S(=O)(=O)N2CCN(C(=O)C=Cc3ccc(O)c([O-])c3)CC2)c1 (nonaromatic ring conformer: 61.36417265316502 kcal/mol)

>  <smiles>  (12) 
NS(=O)(=O)c1cccc(S(=O)(=O)N2CCN(C(=O)C=Cc3ccc(O)c(O)c3)CC2)c1

>  <score_type>  (12) 
oracle

>  <origin>  (12) 
adg

>  <m_score__min__energy>  (12) 
-15.880000000000001

>  <m_primary>  (12) 
energy

$$$$
12:0
     RDKit          3D

 62 65  0  0  0  0  0  0  0  0999 V2000
   68.2630   27.8520   50.4370 C   0  0  0  0  0  0  0  0  0  0  0  0
   67.5440   26.4050   51.1910 S   0  0  0  0  0  0  0  0  0  0  0  0
   66.8240   25.6160   50.1340 O   0  0  0  0  0  0  0  0  0  0  0  0
   68.6190   25.5390   51.7910 O   0  0  0  0  0  0  0  0  0  0  0  0
   66.4010   26.8720   52.4130 N   0  0  0  0  0  0  0  0  0  0  0  0
   65.0690   27.3500   52.1790 C   0  0  0  0  0  0  0  0  0  0  0  0
   64.8910   28.7040   51.8720 C   0  0  0  0  0  0  0  0  0  0  0  0
   63.6140   29.2140   51.6280 C   0  0  0  0  0  0  0  0  0  0  0  0
   62.4910   28.3730   51.6810 C   0  0  0  0  0  0  0  0  0  0  0  0
   61.1090   28.9300   51.4680 C   0  0  0  0  0  0  0  0  0  0  0  0
   60.8210   29.0220   50.0360 N   0  0  0  0  0  0  0  0  0  0  0  0
   60.7870   30.1340   49.2750 C   0  0  0  0  0  0  0  0  0  0  0  0
   60.9620   31.4270   49.7580 O   0  0  0  0  0  0  0  0  0  0  0  0
   60.5720   29.7840   47.9570 C   0  0  0  0  0  0  0  0  0  0  0  0
   60.5450   30.7290   46.7910 C   0  0  0  0  0  0  0  0  0  0  0  0
   59.2560   31.4870   46.7700 C   0  0  0  0  0  0  0  0  0  0  0  0
   58.2500   31.0360   47.3830 O   0  0  0  0  0  0  0  0  0  0  0  0
   59.1590   32.6960   46.0130 N   0  0  0  0  0  0  0  0  0  0  0  0
   59.4550   34.0080   46.5690 C   0  0  0  0  0  0  0  0  0  0  0  0
   60.8080   33.9810   47.2160 C   0  0  0  0  0  0  0  0  0  0  0  0
   60.9380   34.1850   48.6030 C   0  0  0  0  0  0  0  0  0  0  0  0
   62.2000   34.1190   49.2080 C   0  0  0  0  0  0  0  0  0  0  0  0
   63.3360   33.8360   48.4370 C   0  0  0  0  0  0  0  0  0  0  0  0
   63.2120   33.6180   47.0590 C   0  0  0  0  0  0  0  0  0  0  0  0
   61.9530   33.6830   46.4500 C   0  0  0  0  0  0  0  0  0  0  0  0
   60.5000   28.4320   47.8860 N   0  0  0  0  0  0  0  0  0  0  0  0
   60.3020   27.5970   46.6970 C   0  0  0  0  0  0  0  0  0  0  0  0
   58.8410   27.2870   46.5020 C   0  0  0  0  0  0  0  0  0  0  0  0
   58.3000   26.0920   47.0070 C   0  0  0  0  0  0  0  0  0  0  0  0
   56.9440   25.8000   46.8280 C   0  0  0  0  0  0  0  0  0  0  0  0
   56.1210   26.6900   46.1350 C   0  0  0  0  0  0  0  0  0  0  0  0
   54.7750   26.3960   45.9550 O   0  0  0  0  0  0  0  0  0  0  0  0
   56.6530   27.8780   45.6210 C   0  0  0  0  0  0  0  0  0  0  0  0
   58.0070   28.1750   45.8000 C   0  0  0  0  0  0  0  0  0  0  0  0
   60.6470   28.0060   49.1610 C   0  0  0  0  0  0  0  0  0  0  0  0
   60.6370   26.7910   49.4990 O   0  0  0  0  0  0  0  0  0  0  0  0
   62.6640   27.0190   52.0060 C   0  0  0  0  0  0  0  0  0  0  0  0
   63.9430   26.5070   52.2460 C   0  0  0  0  0  0  0  0  0  0  0  0
   68.6060   28.5423   51.2218 H   0  0  0  0  0  0  0  0  0  0  0  0
   69.1176   27.5535   49.8120 H   0  0  0  0  0  0  0  0  0  0  0  0
   67.5090   28.3529   49.8120 H   0  0  0  0  0  0  0  0  0  0  0  0
   65.7638   29.3716   51.8225 H   0  0  0  0  0  0  0  0  0  0  0  0
   63.4872   30.2811   51.3929 H   0  0  0  0  0  0  0  0  0  0  0  0
   60.3719   28.2680   51.9459 H   0  0  0  0  0  0  0  0  0  0  0  0
   61.0523   29.9345   51.9127 H   0  0  0  0  0  0  0  0  0  0  0  0
   61.3818   31.4376   46.8782 H   0  0  0  0  0  0  0  0  0  0  0  0
   60.6371   30.1518   45.8591 H   0  0  0  0  0  0  0  0  0  0  0  0
   59.4479   34.7578   45.7642 H   0  0  0  0  0  0  0  0  0  0  0  0
   58.6941   34.2695   47.3191 H   0  0  0  0  0  0  0  0  0  0  0  0
   60.0472   34.3966   49.2127 H   0  0  0  0  0  0  0  0  0  0  0  0
   62.2996   34.2896   50.2901 H   0  0  0  0  0  0  0  0  0  0  0  0
   64.3256   33.7851   48.9146 H   0  0  0  0  0  0  0  0  0  0  0  0
   64.1041   33.3957   46.4551 H   0  0  0  0  0  0  0  0  0  0  0  0
   61.8571   33.5008   45.3694 H   0  0  0  0  0  0  0  0  0  0  0  0
   60.6788   28.1323   45.8129 H   0  0  0  0  0  0  0  0  0  0  0  0
   60.8491   26.6524   46.8329 H   0  0  0  0  0  0  0  0  0  0  0  0
   58.9462   25.3831   47.5455 H   0  0  0  0  0  0  0  0  0  0  0  0
   56.5250   24.8674   47.2339 H   0  0  0  0  0  0  0  0  0  0  0  0
   56.0045   28.5792   45.0752 H   0  0  0  0  0  0  0  0  0  0  0  0
   58.4219   29.1075   45.3899 H   0  0  0  0  0  0  0  0  0  0  0  0
   61.7885   26.3564   52.0724 H   0  0  0  0  0  0  0  0  0  0  0  0
   64.0700   25.4415   52.4881 H   0  0  0  0  0  0  0  0  0  0  0  0
  1  2  1  0
  2  3  2  0
  2  4  2  0
  2  5  1  0
  5  6  1  0
  6  7  2  0
  7  8  1  0
  8  9  2  0
  9 10  1  0
 10 11  1  0
 11 12  1  0
 12 13  1  0
 12 14  2  0
 14 15  1  0
 15 16  1  0
 16 17  2  0
 16 18  1  0
 18 19  1  0
 19 20  1  0
 20 21  2  0
 21 22  1  0
 22 23  2  0
 23 24  1  0
 24 25  2  0
 14 26  1  0
 26 27  1  0
 27 28  1  0
 28 29  2  0
 29 30  1  0
 30 31  2  0
 31 32  1  0
 31 33  1  0
 33 34  2  0
 26 35  1  0
 35 36  2  0
  9 37  1  0
 37 38  2  0
 38  6  1  0
 35 11  1  0
 25 20  1  0
 34 28  1  0
  1 39  1  0
  1 40  1  0
  1 41  1  0
  7 42  1  0
  8 43  1  0
 10 44  1  0
 10 45  1  0
 15 46  1  0
 15 47  1  0
 19 48  1  0
 19 49  1  0
 21 50  1  0
 22 51  1  0
 23 52  1  0
 24 53  1  0
 25 54  1  0
 27 55  1  0
 27 56  1  0
 29 57  1  0
 30 58  1  0
 33 59  1  0
 34 60  1  0
 37 61  1  0
 38 62  1  0
M  CHG  4   5  -1  13  -1  18  -1  32  -1
M  END
>  <UniqueID>  (13) 
12

>  <SMILES>  (13) 
CS(=O)(=O)[N-]c1ccc(Cn2c([O-])c(CC(=O)[N-]Cc3ccccc3)n(Cc3ccc([O-])cc3)c2=O)cc1

>  <Energy>  (13) 
91.9586468319755

>  <Genealogy>  (13) 
CS(=O)(=O)[N-]c1ccc(Cn2c([O-])c(CC(=O)[N-]Cc3ccccc3)n(Cc3ccc([O-])cc3)c2=O)cc1 (protonated)
CS(=O)(=O)[N-]c1ccc(Cn2c([O-])c(CC(=O)[N-]Cc3ccccc3)n(Cc3ccc([O-])cc3)c2=O)cc1 (3D coordinates assigned)
CS(=O)(=O)[N-]c1ccc(Cn2c([O-])c(CC(=O)[N-]Cc3ccccc3)n(Cc3ccc([O-])cc3)c2=O)cc1 (optimized conformer: 91.9586468319755 kcal/mol)

>  <smiles>  (13) 
CS(=O)(=O)Nc1ccc(Cn2c(O)c(CC(=O)NCc3ccccc3)n(Cc3ccc(O)cc3)c2=O)cc1

>  <score_type>  (13) 
oracle

>  <origin>  (13) 
adg

>  <m_score__min__energy>  (13) 
-15.73

>  <m_primary>  (13) 
energy

$$$$
13:0
     RDKit          3D

 72 73  0  0  0  0  0  0  0  0999 V2000
   59.9880   35.3510   45.9580 C   0  0  0  0  0  0  0  0  0  0  0  0
   59.8800   34.1320   46.8840 C   0  0  0  0  0  0  0  0  0  0  0  0
   60.8830   34.2710   48.0370 C   0  0  0  0  0  0  0  0  0  0  0  0
   58.4480   33.9390   47.4510 C   0  0  0  0  0  0  0  0  0  0  0  0
   58.0100   32.4730   47.7460 C   0  0  2  0  0  0  0  0  0  0  0  0
   58.7150   31.8940   48.8900 N   0  0  0  0  0  0  0  0  0  0  0  0
   58.3510   32.0510   50.2690 C   0  0  0  0  0  0  0  0  0  0  0  0
   58.6080   33.1460   50.8370 O   0  0  0  0  0  0  0  0  0  0  0  0
   57.6780   30.9460   51.0360 C   0  0  0  0  0  0  0  0  0  0  0  0
   56.3170   31.3250   51.3990 N   0  0  0  0  0  0  0  0  0  0  0  0
   55.2570   30.4410   51.7940 C   0  0  0  0  0  0  0  0  0  0  0  0
   55.5620   29.3880   52.4150 O   0  0  0  0  0  0  0  0  0  0  0  0
   53.8320   30.6730   51.4710 C   0  0  0  0  0  0  0  0  0  0  0  0
   52.9690   29.8070   50.8140 C   0  0  0  0  0  0  0  0  0  0  0  0
   51.7730   30.4770   50.6780 C   0  0  0  0  0  0  0  0  0  0  0  0
   51.9770   31.7160   51.2410 C   0  0  0  0  0  0  0  0  0  0  0  0
   51.0250   32.7230   51.3000 O   0  0  0  0  0  0  0  0  0  0  0  0
   53.2260   31.8530   51.7210 N   0  0  0  0  0  0  0  0  0  0  0  0
   58.1620   31.5480   46.5650 C   0  0  0  0  0  0  0  0  0  0  0  0
   58.5690   32.0220   45.4690 O   0  0  0  0  0  0  0  0  0  0  0  0
   57.8150   30.1610   46.6560 N   0  0  0  0  0  0  0  0  0  0  0  0
   58.4040   29.1120   45.8250 C   0  0  1  0  0  0  0  0  0  0  0  0
   59.1300   28.0920   46.7260 C   0  0  0  0  0  0  0  0  0  0  0  0
   60.1880   28.9050   47.9840 S   0  0  0  0  0  0  0  0  0  0  0  0
   60.9460   30.1400   46.8660 C   0  0  0  0  0  0  0  0  0  0  0  0
   61.7620   31.1630   47.6600 C   0  0  0  0  0  0  0  0  0  0  0  0
   61.7920   30.8450   49.1630 C   0  0  0  0  0  0  0  0  0  0  0  0
   61.2270   31.9550   49.9380 N   0  0  0  0  0  0  0  0  0  0  0  0
   61.8040   32.5300   50.9630 C   0  0  0  0  0  0  0  0  0  0  0  0
   63.2200   32.4110   51.1280 N   0  0  0  0  0  0  0  0  0  0  0  0
   61.0580   33.2780   51.9360 N   0  0  0  0  0  0  0  0  0  0  0  0
   57.2980   28.4900   44.9950 C   0  0  0  0  0  0  0  0  0  0  0  0
   57.3210   28.5520   43.7370 O   0  0  0  0  0  0  0  0  0  0  0  0
   56.2750   27.7070   45.6280 N   0  0  0  0  0  0  0  0  0  0  0  0
   56.1860   26.4080   45.6550 C   0  0  0  0  0  0  0  0  0  0  0  0
   57.3080   25.5650   45.5080 C   0  0  0  0  0  0  0  0  0  0  0  0
   57.1350   24.1800   45.5370 C   0  0  0  0  0  0  0  0  0  0  0  0
   55.8630   23.6400   45.7260 C   0  0  0  0  0  0  0  0  0  0  0  0
   54.7760   24.4990   45.8970 C   0  0  0  0  0  0  0  0  0  0  0  0
   54.9620   25.8460   45.8620 N   0  0  0  0  0  0  0  0  0  0  0  0
   60.0690   36.2656   46.5638 H   0  0  0  0  0  0  0  0  0  0  0  0
   60.8808   35.2513   45.3232 H   0  0  0  0  0  0  0  0  0  0  0  0
   59.0915   35.4098   45.3232 H   0  0  0  0  0  0  0  0  0  0  0  0
   60.1127   33.2408   46.2826 H   0  0  0  0  0  0  0  0  0  0  0  0
   60.3508   34.1972   48.9968 H   0  0  0  0  0  0  0  0  0  0  0  0
   61.6319   33.4681   47.9703 H   0  0  0  0  0  0  0  0  0  0  0  0
   61.3853   35.2473   47.9703 H   0  0  0  0  0  0  0  0  0  0  0  0
   58.3823   34.5036   48.3928 H   0  0  0  0  0  0  0  0  0  0  0  0
   57.7708   34.2920   46.6592 H   0  0  0  0  0  0  0  0  0  0  0  0
   56.9391   32.5578   47.9825 H   0  0  0  0  0  0  0  0  0  0  0  0
   57.6465   30.0406   50.4120 H   0  0  0  0  0  0  0  0  0  0  0  0
   58.2494   30.7555   51.9564 H   0  0  0  0  0  0  0  0  0  0  0  0
   53.1953   28.7870   50.4698 H   0  0  0  0  0  0  0  0  0  0  0  0
   50.8484   30.1004   50.2161 H   0  0  0  0  0  0  0  0  0  0  0  0
   59.1590   29.5160   45.1345 H   0  0  0  0  0  0  0  0  0  0  0  0
   58.3778   27.4762   47.2408 H   0  0  0  0  0  0  0  0  0  0  0  0
   59.7801   27.4788   46.0846 H   0  0  0  0  0  0  0  0  0  0  0  0
   61.6080   29.6243   46.1547 H   0  0  0  0  0  0  0  0  0  0  0  0
   60.1445   30.6684   46.3289 H   0  0  0  0  0  0  0  0  0  0  0  0
   62.7937   31.1656   47.2783 H   0  0  0  0  0  0  0  0  0  0  0  0
   61.2843   32.1458   47.5334 H   0  0  0  0  0  0  0  0  0  0  0  0
   61.2025   29.9357   49.3518 H   0  0  0  0  0  0  0  0  0  0  0  0
   62.8367   30.6929   49.4721 H   0  0  0  0  0  0  0  0  0  0  0  0
   60.2880   32.3010   49.6330 H   0  0  0  0  0  0  0  0  0  0  0  0
   63.7980   31.8480   50.4590 H   0  0  0  0  0  0  0  0  0  0  0  0
   63.7070   32.9020   51.9130 H   0  0  0  0  0  0  0  0  0  0  0  0
   61.5570   33.7320   52.7320 H   0  0  0  0  0  0  0  0  0  0  0  0
   60.0180   33.3390   51.9310 H   0  0  0  0  0  0  0  0  0  0  0  0
   58.3110   25.9957   45.3716 H   0  0  0  0  0  0  0  0  0  0  0  0
   58.0018   23.5147   45.4108 H   0  0  0  0  0  0  0  0  0  0  0  0
   55.7180   22.5497   45.7402 H   0  0  0  0  0  0  0  0  0  0  0  0
   53.7693   24.0867   46.0600 H   0  0  0  0  0  0  0  0  0  0  0  0
  1  2  1  0
  2  3  1  0
  2  4  1  0
  4  5  1  0
  5  6  1  0
  6  7  1  0
  7  8  2  0
  7  9  1  0
  9 10  1  0
 10 11  1  0
 11 12  2  0
 11 13  1  0
 13 14  2  0
 14 15  1  0
 15 16  2  0
 16 17  1  0
 16 18  1  0
  5 19  1  0
 19 20  2  0
 19 21  1  0
 21 22  1  0
 22 23  1  0
 23 24  1  0
 24 25  1  0
 25 26  1  0
 26 27  1  0
 27 28  1  0
 28 29  2  3
 29 30  1  0
 29 31  1  0
 22 32  1  0
 32 33  2  0
 32 34  1  0
 34 35  2  3
 35 36  1  0
 36 37  2  0
 37 38  1  0
 38 39  2  0
 39 40  1  0
 18 13  1  0
 40 35  1  0
  1 41  1  0
  1 42  1  0
  1 43  1  0
  2 44  1  0
  3 45  1  0
  3 46  1  0
  3 47  1  0
  4 48  1  0
  4 49  1  0
  5 50  1  1
  9 51  1  0
  9 52  1  0
 14 53  1  0
 15 54  1  0
 22 55  1  6
 23 56  1  0
 23 57  1  0
 25 58  1  0
 25 59  1  0
 26 60  1  0
 26 61  1  0
 27 62  1  0
 27 63  1  0
 28 64  1  0
 30 65  1  0
 30 66  1  0
 31 67  1  0
 31 68  1  0
 36 69  1  0
 37 70  1  0
 38 71  1  0
 39 72  1  0
M  CHG  7   6  -1  10  -1  17  -1  18  -1  21  -1  28   1  40  -1
M  END
>  <UniqueID>  (14) 
13

>  <SMILES>  (14) 
CC(C)C[C@H]([N-]C(=O)C[N-]C(=O)c1ccc([O-])[n-]1)C(=O)[N-][C@@H](CSCCC[NH+]=C(N)N)C(=O)N=c1cccc[n-]1

>  <Energy>  (14) 
94.56558112065467

>  <Genealogy>  (14) 
CC(C)CC([N-]C(=O)C[N-]C(=O)c1ccc([O-])[n-]1)C(=O)[N-]C(CSCCC[NH+]=C(N)N)C(=O)N=c1cccc[n-]1 (protonated)
CC(C)C[C@H]([N-]C(=O)C[N-]C(=O)c1ccc([O-])[n-]1)C(=O)[N-][C@@H](CSCCC[NH+]=C(N)N)C(=O)N=c1cccc[n-]1 (chirality)
CC(C)C[C@H]([N-]C(=O)C[N-]C(=O)c1ccc([O-])[n-]1)C(=O)[N-][C@@H](CSCCC[NH+]=C(N)N)C(=O)N=c1cccc[n-]1 (3D coordinates assigned)
CC(C)C[C@H]([N-]C(=O)C[N-]C(=O)c1ccc([O-])[n-]1)C(=O)[N-][C@@H](CSCCC[NH+]=C(N)N)C(=O)N=c1cccc[n-]1 (optimized conformer: 94.56558112065467 kcal/mol)

>  <smiles>  (14) 
CC(C)CC(NC(=O)CNC(=O)c1ccc(O)[nH]1)C(=O)NC(CSCCCN=C(N)N)C(=O)N=c1cccc[nH]1

>  <score_type>  (14) 
oracle

>  <origin>  (14) 
adg

>  <m_score__min__energy>  (14) 
-16.780000000000001

>  <m_primary>  (14) 
energy

$$$$
14:0
     RDKit          3D

 17 17  0  0  0  0  0  0  0  0999 V2000
   58.7150   21.8800   44.6710 C   0  0  0  0  0  0  0  0  0  0  0  0
   57.5140   21.6700   45.5870 C   0  0  0  0  0  0  0  0  0  0  0  0
   56.7070   22.9030   45.6700 N   0  0  0  0  0  0  0  0  0  0  0  0
   55.9170   23.2870   44.6130 C   0  0  0  0  0  0  0  0  0  0  0  0
   55.8800   22.6030   43.5530 O   0  0  0  0  0  0  0  0  0  0  0  0
   55.1380   24.4410   44.6970 C   0  0  0  0  0  0  0  0  0  0  0  0
   55.1680   25.1840   45.8720 C   0  0  0  0  0  0  0  0  0  0  0  0
   54.4070   26.3390   45.9890 O   0  0  0  0  0  0  0  0  0  0  0  0
   55.9410   24.7740   46.9070 N   0  0  0  0  0  0  0  0  0  0  0  0
   56.6990   23.6500   46.8240 C   0  0  0  0  0  0  0  0  0  0  0  0
   57.3900   23.3060   47.8200 O   0  0  0  0  0  0  0  0  0  0  0  0
   59.6174   22.0378   45.2799 H   0  0  0  0  0  0  0  0  0  0  0  0
   58.8517   20.9921   44.0362 H   0  0  0  0  0  0  0  0  0  0  0  0
   58.5423   22.7616   44.0362 H   0  0  0  0  0  0  0  0  0  0  0  0
   56.8915   20.8559   45.1873 H   0  0  0  0  0  0  0  0  0  0  0  0
   57.8745   21.4116   46.5936 H   0  0  0  0  0  0  0  0  0  0  0  0
   54.5118   24.7573   43.8498 H   0  0  0  0  0  0  0  0  0  0  0  0
  1  2  1  0
  2  3  1  0
  3  4  1  0
  4  5  2  0
  4  6  1  0
  6  7  2  0
  7  8  1  0
  7  9  1  0
  9 10  1  0
 10 11  2  0
 10  3  1  0
  1 12  1  0
  1 13  1  0
  1 14  1  0
  2 15  1  0
  2 16  1  0
  6 17  1  0
M  CHG  2   8  -1   9  -1
M  END
>  <UniqueID>  (15) 
14

>  <SMILES>  (15) 
CCn1c(=O)cc([O-])[n-]c1=O

>  <Energy>  (15) 
17.00005801715638

>  <Genealogy>  (15) 
CCn1c(=O)cc([O-])[n-]c1=O (protonated)
CCn1c(=O)cc([O-])[n-]c1=O (3D coordinates assigned)
CCn1c(=O)cc([O-])[n-]c1=O (optimized conformer: 17.00005801715638 kcal/mol)

>  <smiles>  (15) 
CCn1c(=O)cc(O)[nH]c1=O

>  <score_type>  (15) 
oracle

>  <origin>  (15) 
adg

>  <m_score__min__energy>  (15) 
-10.44

>  <m_primary>  (15) 
energy

$$$$
15:0
     RDKit          3D

 44 46  0  0  0  0  0  0  0  0999 V2000
   57.7880   31.9490   42.1030 C   0  0  0  0  0  0  0  0  0  0  0  0
   57.9690   32.5070   43.4770 C   0  0  0  0  0  0  0  0  0  0  0  0
   58.7540   33.5620   43.7640 N   0  0  0  0  0  0  0  0  0  0  0  0
   58.5810   33.8270   45.0720 C   0  0  0  0  0  0  0  0  0  0  0  0
   59.2310   34.9110   45.7590 C   0  0  0  0  0  0  0  0  0  0  0  0
   59.7530   35.7820   46.3120 N   0  0  0  0  0  0  0  0  0  0  0  0
   57.6720   32.9520   45.6410 C   0  0  0  0  0  0  0  0  0  0  0  0
   57.2830   32.1110   44.6110 C   0  0  0  0  0  0  0  0  0  0  0  0
   56.2880   31.0770   44.6450 N   0  0  0  0  0  0  0  0  0  0  0  0
   56.4890   29.6930   44.9520 C   0  0  0  0  0  0  0  0  0  0  0  0
   55.5310   28.8860   44.8900 O   0  0  0  0  0  0  0  0  0  0  0  0
   57.8390   29.2130   45.3310 C   0  0  0  0  0  0  0  0  0  0  0  0
   58.7320   28.7370   44.3530 C   0  0  0  0  0  0  0  0  0  0  0  0
   59.9840   28.2360   44.7190 C   0  0  0  0  0  0  0  0  0  0  0  0
   60.3590   28.1990   46.0640 C   0  0  0  0  0  0  0  0  0  0  0  0
   59.4900   28.6810   47.0500 C   0  0  0  0  0  0  0  0  0  0  0  0
   59.9290   28.5680   48.7520 S   0  0  0  0  0  0  0  0  0  0  0  0
   60.2690   27.1500   49.1190 O   0  0  0  0  0  0  0  0  0  0  0  0
   58.7670   29.0030   49.6010 O   0  0  0  0  0  0  0  0  0  0  0  0
   61.2610   29.6340   49.0680 N   0  0  0  0  0  0  0  0  0  0  0  0
   61.3990   30.9740   48.5760 C   0  0  0  0  0  0  0  0  0  0  0  0
   62.3920   31.3300   47.6510 C   0  0  0  0  0  0  0  0  0  0  0  0
   62.4770   32.6370   47.1890 C   0  0  0  0  0  0  0  0  0  0  0  0
   61.5710   33.5880   47.6520 C   0  0  0  0  0  0  0  0  0  0  0  0
   60.6240   33.2520   48.5800 N   0  0  0  0  0  0  0  0  0  0  0  0
   59.6680   34.2640   49.0270 C   0  0  0  0  0  0  0  0  0  0  0  0
   60.5230   31.9630   49.0410 C   0  0  0  0  0  0  0  0  0  0  0  0
   59.6270   31.6520   49.8760 O   0  0  0  0  0  0  0  0  0  0  0  0
   58.2390   29.1940   46.6800 C   0  0  0  0  0  0  0  0  0  0  0  0
   57.4493   30.9048   42.1730 H   0  0  0  0  0  0  0  0  0  0  0  0
   57.0364   32.5428   41.5622 H   0  0  0  0  0  0  0  0  0  0  0  0
   58.7450   31.9886   41.5622 H   0  0  0  0  0  0  0  0  0  0  0  0
   59.3440   34.1060   43.0900 H   0  0  0  0  0  0  0  0  0  0  0  0
   57.3315   32.9292   46.6867 H   0  0  0  0  0  0  0  0  0  0  0  0
   58.4421   28.7595   43.2921 H   0  0  0  0  0  0  0  0  0  0  0  0
   60.6759   27.8699   43.9462 H   0  0  0  0  0  0  0  0  0  0  0  0
   61.3396   27.7901   46.3491 H   0  0  0  0  0  0  0  0  0  0  0  0
   63.1042   30.5729   47.2912 H   0  0  0  0  0  0  0  0  0  0  0  0
   63.2539   32.9188   46.4630 H   0  0  0  0  0  0  0  0  0  0  0  0
   61.6174   34.6178   47.2682 H   0  0  0  0  0  0  0  0  0  0  0  0
   59.6460   34.2873   50.1265 H   0  0  0  0  0  0  0  0  0  0  0  0
   59.9723   35.2498   48.6454 H   0  0  0  0  0  0  0  0  0  0  0  0
   58.6665   34.0163   48.6454 H   0  0  0  0  0  0  0  0  0  0  0  0
   57.5621   29.5863   47.4532 H   0  0  0  0  0  0  0  0  0  0  0  0
  1  2  1  0
  2  3  1  0
  3  4  1  0
  4  5  1  0
  5  6  3  0
  4  7  2  0
  7  8  1  0
  8  9  1  0
  9 10  1  0
 10 11  2  0
 10 12  1  0
 12 13  2  0
 13 14  1  0
 14 15  2  0
 15 16  1  0
 16 17  1  0
 17 18  2  0
 17 19  2  0
 17 20  1  0
 20 21  1  0
 21 22  2  0
 22 23  1  0
 23 24  2  0
 24 25  1  0
 25 26  1  0
 25 27  1  0
 27 28  2  0
 16 29  2  0
  8  2  2  0
 29 12  1  0
 27 21  1  0
  1 30  1  0
  1 31  1  0
  1 32  1  0
  3 33  1  0
  7 34  1  0
 13 35  1  0
 14 36  1  0
 15 37  1  0
 22 38  1  0
 23 39  1  0
 24 40  1  0
 26 41  1  0
 26 42  1  0
 26 43  1  0
 29 44  1  0
M  CHG  2   9  -1  20  -1
M  END
>  <UniqueID>  (16) 
15

>  <SMILES>  (16) 
Cc1[nH]c(C#N)cc1[N-]C(=O)c1cccc(S(=O)(=O)[N-]c2cccn(C)c2=O)c1

>  <Energy>  (16) 
82.17682052264865

>  <Genealogy>  (16) 
Cc1[nH]c(C#N)cc1[N-]C(=O)c1cccc(S(=O)(=O)[N-]c2cccn(C)c2=O)c1 (protonated)
Cc1[nH]c(C#N)cc1[N-]C(=O)c1cccc(S(=O)(=O)[N-]c2cccn(C)c2=O)c1 (3D coordinates assigned)
Cc1[nH]c(C#N)cc1[N-]C(=O)c1cccc(S(=O)(=O)[N-]c2cccn(C)c2=O)c1 (optimized conformer: 82.17682052264865 kcal/mol)

>  <smiles>  (16) 
Cc1[nH]c(C#N)cc1NC(=O)c1cccc(S(=O)(=O)Nc2cccn(C)c2=O)c1

>  <score_type>  (16) 
oracle

>  <origin>  (16) 
adg

>  <m_score__min__energy>  (16) 
-12.07

>  <m_primary>  (16) 
energy

$$$$
16:0
     RDKit          3D

 35 37  0  0  0  0  0  0  0  0999 V2000
   55.5310   22.9320   45.7730 C   0  0  0  0  0  0  0  0  0  0  0  0
   56.8470   23.1550   45.8520 C   0  0  0  0  0  0  0  0  0  0  0  0
   57.7680   22.3450   45.3020 N   0  0  0  0  0  0  0  0  0  0  0  0
   58.9480   22.9150   45.6050 C   0  0  0  0  0  0  0  0  0  0  0  0
   60.0560   22.4330   45.2520 O   0  0  0  0  0  0  0  0  0  0  0  0
   58.8400   24.0520   46.3210 N   0  0  0  0  0  0  0  0  0  0  0  0
   57.5060   24.2060   46.4840 C   0  0  0  0  0  0  0  0  0  0  0  0
   56.9470   25.2450   47.1310 C   0  0  0  0  0  0  0  0  0  0  0  0
   56.9740   26.6310   46.6090 C   0  0  0  0  0  0  0  0  0  0  0  0
   55.8840   27.1170   45.8790 C   0  0  0  0  0  0  0  0  0  0  0  0
   54.7850   26.3050   45.6180 O   0  0  0  0  0  0  0  0  0  0  0  0
   55.8960   28.3860   45.4080 N   0  0  0  0  0  0  0  0  0  0  0  0
   56.9440   29.2180   45.6320 C   0  0  0  0  0  0  0  0  0  0  0  0
   56.9140   30.3830   45.1510 O   0  0  0  0  0  0  0  0  0  0  0  0
   58.0200   28.7900   46.3660 N   0  0  0  0  0  0  0  0  0  0  0  0
   59.1270   29.6820   46.6150 C   0  0  0  0  0  0  0  0  0  0  0  0
   58.9200   30.9040   47.2740 C   0  0  0  0  0  0  0  0  0  0  0  0
   59.9930   31.7670   47.5160 C   0  0  0  0  0  0  0  0  0  0  0  0
   61.2890   31.4120   47.1130 C   0  0  0  0  0  0  0  0  0  0  0  0
   62.4350   32.3560   47.3370 C   0  0  0  0  0  0  0  0  0  0  0  0
   61.4950   30.1990   46.4390 C   0  0  0  0  0  0  0  0  0  0  0  0
   60.4210   29.3360   46.1970 C   0  0  0  0  0  0  0  0  0  0  0  0
   58.0400   27.5140   46.8710 C   0  0  0  0  0  0  0  0  0  0  0  0
   58.9980   27.1390   47.6040 O   0  0  0  0  0  0  0  0  0  0  0  0
   54.8253   23.6320   46.2441 H   0  0  0  0  0  0  0  0  0  0  0  0
   55.1541   22.0485   45.2369 H   0  0  0  0  0  0  0  0  0  0  0  0
   57.6100   21.4660   44.7590 H   0  0  0  0  0  0  0  0  0  0  0  0
   56.4467   25.0563   48.0923 H   0  0  0  0  0  0  0  0  0  0  0  0
   57.9080   31.1841   47.6018 H   0  0  0  0  0  0  0  0  0  0  0  0
   59.8205   32.7273   48.0240 H   0  0  0  0  0  0  0  0  0  0  0  0
   62.5954   32.4881   48.4172 H   0  0  0  0  0  0  0  0  0  0  0  0
   63.3456   31.9425   46.8790 H   0  0  0  0  0  0  0  0  0  0  0  0
   62.2035   33.3289   46.8790 H   0  0  0  0  0  0  0  0  0  0  0  0
   62.5049   29.9255   46.0995 H   0  0  0  0  0  0  0  0  0  0  0  0
   60.5916   28.3820   45.6767 H   0  0  0  0  0  0  0  0  0  0  0  0
  1  2  2  0
  2  3  1  0
  3  4  1  0
  4  5  2  0
  4  6  1  0
  6  7  1  0
  7  8  2  3
  8  9  1  0
  9 10  2  0
 10 11  1  0
 10 12  1  0
 12 13  1  0
 13 14  2  0
 13 15  1  0
 15 16  1  0
 16 17  2  0
 17 18  1  0
 18 19  2  0
 19 20  1  0
 19 21  1  0
 21 22  2  0
 15 23  1  0
 23 24  2  0
  7  2  1  0
 23  9  1  0
 22 16  1  0
  1 25  1  0
  1 26  1  0
  3 27  1  0
  8 28  1  0
 17 29  1  0
 18 30  1  0
 20 31  1  0
 20 32  1  0
 20 33  1  0
 21 34  1  0
 22 35  1  0
M  CHG  3   6  -1  11  -1  12  -1
M  END
>  <UniqueID>  (17) 
16

>  <SMILES>  (17) 
C=c1[nH]c(=O)[n-]c1=Cc1c([O-])[n-]c(=O)n(-c2ccc(C)cc2)c1=O

>  <Energy>  (17) 
86.8614470166029

>  <Genealogy>  (17) 
C=c1[nH]c(=O)[n-]c1=Cc1c([O-])[n-]c(=O)n(-c2ccc(C)cc2)c1=O (protonated)
C=c1[nH]c(=O)[n-]c1=Cc1c([O-])[n-]c(=O)n(-c2ccc(C)cc2)c1=O (3D coordinates assigned)
C=c1[nH]c(=O)[n-]c1=Cc1c([O-])[n-]c(=O)n(-c2ccc(C)cc2)c1=O (optimized conformer: 86.8614470166029 kcal/mol)

>  <smiles>  (17) 
C=c1[nH]c(=O)[nH]c1=Cc1c(O)[nH]c(=O)n(-c2ccc(C)cc2)c1=O

>  <score_type>  (17) 
oracle

>  <origin>  (17) 
adg

>  <m_score__min__energy>  (17) 
-13.82

>  <m_primary>  (17) 
energy

$$$$
17:0
     RDKit          3D

 64 67  0  0  1  0  0  0  0  0999 V2000
   57.2310   34.2350   44.9880 C   0  0  0  0  0  0  0  0  0  0  0  0
   57.0890   33.4180   46.2580 C   0  0  0  0  0  0  0  0  0  0  0  0
   58.1920   33.8240   47.1510 C   0  0  0  0  0  0  0  0  0  0  0  0
   58.7490   34.9200   46.9330 O   0  0  0  0  0  0  0  0  0  0  0  0
   58.6340   33.0180   48.2360 N   0  0  0  0  0  0  0  0  0  0  0  0
   59.9190   33.5220   49.2530 S   0  0  0  0  0  0  0  0  0  0  0  0
   59.6440   34.9590   49.6380 O   0  0  0  0  0  0  0  0  0  0  0  0
   59.9310   32.7440   50.5150 O   0  0  0  0  0  0  0  0  0  0  0  0
   61.4080   33.4670   48.3620 C   0  0  0  0  0  0  0  0  0  0  0  0
   61.4750   33.8930   47.0330 C   0  0  0  0  0  0  0  0  0  0  0  0
   62.6840   33.8300   46.3550 C   0  0  0  0  0  0  0  0  0  0  0  0
   63.8430   33.3520   46.9660 C   0  0  0  0  0  0  0  0  0  0  0  0
   63.7680   32.9310   48.2800 C   0  0  0  0  0  0  0  0  0  0  0  0
   62.5610   32.9810   48.9970 C   0  0  0  0  0  0  0  0  0  0  0  0
   62.5430   32.5090   50.3310 N   0  0  0  0  0  0  0  0  0  0  0  0
   62.6020   31.2910   50.6630 C   0  0  0  0  0  0  0  0  0  0  0  0
   61.5390   30.4960   50.3630 N   0  0  0  0  0  0  0  0  0  0  0  0
   61.5410   29.1860   50.6910 C   0  0  0  0  0  0  0  0  0  0  0  0
   60.4870   28.4880   50.3700 N   0  0  0  0  0  0  0  0  0  0  0  0
   59.9320   28.6330   49.0700 C   0  0  0  0  0  0  0  0  0  0  0  0
   60.1830   27.7570   48.0430 C   0  0  0  0  0  0  0  0  0  0  0  0
   59.6370   27.9130   46.7780 C   0  0  0  0  0  0  0  0  0  0  0  0
   58.8070   28.9670   46.4880 C   0  0  0  0  0  0  0  0  0  0  0  0
   58.2260   29.1490   45.2080 N   0  0  0  0  0  0  0  0  0  0  0  0
   58.7810   30.0560   44.2030 C   0  0  0  0  0  0  0  0  0  0  0  0
   57.7940   31.2050   44.1190 C   0  0  0  0  0  0  0  0  0  0  0  0
   56.5270   30.8110   44.5340 O   0  0  0  0  0  0  0  0  0  0  0  0
   56.1590   29.5480   44.1200 C   0  0  0  0  0  0  0  0  0  0  0  0
   57.0050   28.4540   44.7930 C   0  0  0  0  0  0  0  0  0  0  0  0
   58.5460   29.8580   47.5090 C   0  0  0  0  0  0  0  0  0  0  0  0
   59.0970   29.7010   48.7870 C   0  0  0  0  0  0  0  0  0  0  0  0
   58.8320   30.5980   49.8130 O   0  0  0  0  0  0  0  0  0  0  0  0
   58.1150   30.1120   50.9520 C   0  0  0  0  0  0  0  0  0  0  0  0
   62.5990   28.6460   51.3230 N   0  0  0  0  0  0  0  0  0  0  0  0
   63.6660   29.4330   51.6280 C   0  0  0  0  0  0  0  0  0  0  0  0
   63.6980   30.7730   51.3090 C   0  0  0  0  0  0  0  0  0  0  0  0
   65.0780   31.7340   51.7190 Cl  0  0  0  0  0  0  0  0  0  0  0  0
   57.4140   35.2880   45.2480 H   0  0  0  0  0  0  0  0  0  0  0  0
   58.0759   33.8509   44.3975 H   0  0  0  0  0  0  0  0  0  0  0  0
   56.3061   34.1585   44.3975 H   0  0  0  0  0  0  0  0  0  0  0  0
   56.1197   33.6248   46.7351 H   0  0  0  0  0  0  0  0  0  0  0  0
   57.1324   32.3404   46.0414 H   0  0  0  0  0  0  0  0  0  0  0  0
   58.1720   32.1090   48.4180 H   0  0  0  0  0  0  0  0  0  0  0  0
   60.5758   34.2755   46.5279 H   0  0  0  0  0  0  0  0  0  0  0  0
   62.7295   34.1658   45.3085 H   0  0  0  0  0  0  0  0  0  0  0  0
   64.7942   33.3111   46.4150 H   0  0  0  0  0  0  0  0  0  0  0  0
   64.6727   32.5485   48.7751 H   0  0  0  0  0  0  0  0  0  0  0  0
   60.7270   30.9060   49.8790 H   0  0  0  0  0  0  0  0  0  0  0  0
   60.8433   26.8975   48.2311 H   0  0  0  0  0  0  0  0  0  0  0  0
   59.8732   27.1793   45.9932 H   0  0  0  0  0  0  0  0  0  0  0  0
   59.7710   30.4195   44.5157 H   0  0  0  0  0  0  0  0  0  0  0  0
   58.9189   29.5594   43.2312 H   0  0  0  0  0  0  0  0  0  0  0  0
   58.1433   32.0258   44.7627 H   0  0  0  0  0  0  0  0  0  0  0  0
   57.7307   31.5338   43.0712 H   0  0  0  0  0  0  0  0  0  0  0  0
   55.1009   29.3852   44.3729 H   0  0  0  0  0  0  0  0  0  0  0  0
   56.3217   29.4846   43.0339 H   0  0  0  0  0  0  0  0  0  0  0  0
   56.4796   28.0347   45.6637 H   0  0  0  0  0  0  0  0  0  0  0  0
   57.2096   27.6068   44.1219 H   0  0  0  0  0  0  0  0  0  0  0  0
   57.8862   30.7162   47.3135 H   0  0  0  0  0  0  0  0  0  0  0  0
   58.6146   30.4506   51.8716 H   0  0  0  0  0  0  0  0  0  0  0  0
   57.0857   30.4993   50.9300 H   0  0  0  0  0  0  0  0  0  0  0  0
   58.0935   29.0124   50.9300 H   0  0  0  0  0  0  0  0  0  0  0  0
   62.5900   27.6270   51.5720 H   0  0  0  0  0  0  0  0  0  0  0  0
   64.5285   28.9864   52.1444 H   0  0  0  0  0  0  0  0  0  0  0  0
  1  2  1  0
  2  3  1  0
  3  4  2  0
  3  5  1  0
  5  6  1  0
  6  7  2  0
  6  8  2  0
  6  9  1  0
  9 10  2  0
 10 11  1  0
 11 12  2  0
 12 13  1  0
 13 14  2  0
 14 15  1  0
 15 16  2  0
 16 17  1  0
 17 18  1  0
 18 19  2  0
 19 20  1  0
 20 21  2  0
 21 22  1  0
 22 23  2  0
 23 24  1  0
 24 25  1  0
 25 26  1  0
 26 27  1  0
 27 28  1  0
 28 29  1  0
 23 30  1  0
 30 31  2  0
 31 32  1  0
 32 33  1  0
 18 34  1  0
 34 35  1  0
 35 36  2  0
 36 37  1  0
 14  9  1  0
 36 16  1  0
 31 20  1  0
 29 24  1  0
  1 38  1  0
  1 39  1  0
  1 40  1  0
  2 41  1  0
  2 42  1  0
  5 43  1  0
 10 44  1  0
 11 45  1  0
 12 46  1  0
 13 47  1  0
 17 48  1  0
 21 49  1  0
 22 50  1  0
 25 51  1  0
 25 52  1  0
 26 53  1  0
 26 54  1  0
 28 55  1  0
 28 56  1  0
 29 57  1  0
 29 58  1  0
 30 59  1  0
 33 60  1  0
 33 61  1  0
 33 62  1  0
 34 63  1  0
 35 64  1  0
M  END
>  <smiles>  (18) 
CCC(=O)NS(=O)(=O)c1ccccc1N=c1[nH]c(=Nc2ccc(N3CCOCC3)cc2OC)[nH]cc1Cl

>  <score_type>  (18) 
oracle

>  <origin>  (18) 
adg

>  <m_score__min__energy>  (18) 
-9.9100000000000001

>  <m_primary>  (18) 
energy

$$$$
18:0
     RDKit          3D

 68 70  0  0  0  0  0  0  0  0999 V2000
   57.6641   25.0194   44.8578 H   0  0  0  0  0  0  0  0  0  0  0  0
   57.2730   25.7760   45.5540 C   0  0  0  0  0  0  0  0  0  0  0  0
   55.8720   25.6790   45.9940 C   0  0  0  0  0  0  0  0  0  0  0  0
   55.1540   26.7150   45.9770 O   0  0  0  0  0  0  0  0  0  0  0  0
   55.3200   24.4330   46.4360 N   0  0  0  0  0  0  0  0  0  0  0  0
   54.5480   23.5700   45.5500 C   0  0  0  0  0  0  0  0  0  0  0  0
   54.4998   22.5570   45.9761 H   0  0  0  0  0  0  0  0  0  0  0  0
   53.5301   23.9730   45.4429 H   0  0  0  0  0  0  0  0  0  0  0  0
   55.2230   23.5130   44.1690 C   0  0  0  0  0  0  0  0  0  0  0  0
   54.4631   23.7342   43.4051 H   0  0  0  0  0  0  0  0  0  0  0  0
   56.0392   24.2502   44.1875 H   0  0  0  0  0  0  0  0  0  0  0  0
   55.8400   22.2070   43.8440 N   0  0  0  0  0  0  0  0  0  0  0  0
   56.6510   22.2400   42.6170 C   0  0  0  0  0  0  0  0  0  0  0  0
   57.7174   22.2834   42.8834 H   0  0  0  0  0  0  0  0  0  0  0  0
   56.4575   21.3332   42.0251 H   0  0  0  0  0  0  0  0  0  0  0  0
   56.3845   23.1280   42.0251 H   0  0  0  0  0  0  0  0  0  0  0  0
   56.6020   21.6330   44.9680 C   0  0  0  0  0  0  0  0  0  0  0  0
   56.1600   21.9660   45.9186 H   0  0  0  0  0  0  0  0  0  0  0  0
   56.5669   20.5350   44.9120 H   0  0  0  0  0  0  0  0  0  0  0  0
   57.6477   21.9698   44.9120 H   0  0  0  0  0  0  0  0  0  0  0  0
   58.0920   26.7570   45.9730 C   0  0  0  0  0  0  0  0  0  0  0  0
   58.9456   26.4868   46.6121 H   0  0  0  0  0  0  0  0  0  0  0  0
   57.9030   28.1870   45.6170 C   0  0  0  0  0  0  0  0  0  0  0  0
   57.0750   28.5110   44.5260 C   0  0  0  0  0  0  0  0  0  0  0  0
   56.6322   27.7071   43.9197 H   0  0  0  0  0  0  0  0  0  0  0  0
   56.8110   29.8440   44.2070 C   0  0  0  0  0  0  0  0  0  0  0  0
   56.1526   30.0809   43.3583 H   0  0  0  0  0  0  0  0  0  0  0  0
   57.3770   30.8840   44.9580 C   0  0  0  0  0  0  0  0  0  0  0  0
   57.0000   32.2310   44.6390 N   0  0  0  0  0  0  0  0  0  0  0  0
   57.9500   33.6730   44.8190 S   0  0  0  0  0  0  0  0  0  0  0  0
   58.9230   33.7480   43.6750 O   0  0  0  0  0  0  0  0  0  0  0  0
   57.0910   34.9050   44.7730 O   0  0  0  0  0  0  0  0  0  0  0  0
   58.8330   33.5850   46.3390 C   0  0  0  0  0  0  0  0  0  0  0  0
   58.1470   33.4670   47.5570 C   0  0  0  0  0  0  0  0  0  0  0  0
   57.0472   33.4777   47.5720 H   0  0  0  0  0  0  0  0  0  0  0  0
   58.8600   33.3360   48.7500 C   0  0  0  0  0  0  0  0  0  0  0  0
   58.3212   33.2625   49.7062 H   0  0  0  0  0  0  0  0  0  0  0  0
   60.2580   33.2980   48.7320 C   0  0  0  0  0  0  0  0  0  0  0  0
   60.8142   33.1876   49.6746 H   0  0  0  0  0  0  0  0  0  0  0  0
   60.9560   33.4000   47.5170 C   0  0  0  0  0  0  0  0  0  0  0  0
   62.4300   33.3100   47.4810 C   0  0  0  0  0  0  0  0  0  0  0  0
   63.0300   33.5910   46.4080 O   0  0  0  0  0  0  0  0  0  0  0  0
   63.1870   32.8680   48.6250 N   0  0  0  0  0  0  0  0  0  0  0  0
   64.6160   33.2020   48.7070 C   0  0  0  0  0  0  0  0  0  0  0  0
   64.7637   34.2355   48.3606 H   0  0  0  0  0  0  0  0  0  0  0  0
   65.1760   32.4980   48.0739 H   0  0  0  0  0  0  0  0  0  0  0  0
   65.1300   33.0780   50.1440 C   0  0  0  0  0  0  0  0  0  0  0  0
   64.6915   33.8844   50.7502 H   0  0  0  0  0  0  0  0  0  0  0  0
   66.2273   33.1524   50.1232 H   0  0  0  0  0  0  0  0  0  0  0  0
   64.7690   31.7810   50.7420 N   0  0  0  0  0  0  0  0  0  0  0  0
   65.5420   31.2860   51.8570 C   0  0  0  0  0  0  0  0  0  0  0  0
   66.3770   32.0440   52.4230 O   0  0  0  0  0  0  0  0  0  0  0  0
   65.3920   29.8850   52.3690 C   0  0  0  0  0  0  0  0  0  0  0  0
   65.3930   29.8945   53.4690 H   0  0  0  0  0  0  0  0  0  0  0  0
   64.4434   29.4619   52.0069 H   0  0  0  0  0  0  0  0  0  0  0  0
   66.2295   29.2706   52.0069 H   0  0  0  0  0  0  0  0  0  0  0  0
   63.6960   30.9710   50.1480 C   0  0  0  0  0  0  0  0  0  0  0  0
   63.2453   30.3404   50.9285 H   0  0  0  0  0  0  0  0  0  0  0  0
   64.1250   30.3448   49.3519 H   0  0  0  0  0  0  0  0  0  0  0  0
   62.6130   31.8690   49.5390 C   0  0  0  0  0  0  0  0  0  0  0  0
   62.0840   32.3902   50.3504 H   0  0  0  0  0  0  0  0  0  0  0  0
   61.9233   31.2336   48.9640 H   0  0  0  0  0  0  0  0  0  0  0  0
   60.2340   33.5580   46.3250 C   0  0  0  0  0  0  0  0  0  0  0  0
   60.7720   33.6616   45.3711 H   0  0  0  0  0  0  0  0  0  0  0  0
   58.2820   30.5690   45.9900 C   0  0  0  0  0  0  0  0  0  0  0  0
   58.7909   31.3763   46.5370 H   0  0  0  0  0  0  0  0  0  0  0  0
   58.5370   29.2340   46.3230 C   0  0  0  0  0  0  0  0  0  0  0  0
   59.2354   28.9982   47.1395 H   0  0  0  0  0  0  0  0  0  0  0  0
  1  2  1  0
  2  3  1  0
  3  4  2  0
  3  5  1  0
  5  6  1  0
  6  7  1  0
  6  8  1  0
  6  9  1  0
  9 10  1  0
  9 11  1  0
  9 12  1  0
 12 13  1  0
 13 14  1  0
 13 15  1  0
 13 16  1  0
 12 17  1  0
 17 18  1  0
 17 19  1  0
 17 20  1  0
  2 21  2  0
 21 22  1  0
 21 23  1  0
 23 24  2  0
 24 25  1  0
 24 26  1  0
 26 27  1  0
 26 28  2  0
 28 29  1  0
 29 30  1  0
 30 31  2  0
 30 32  2  0
 30 33  1  0
 33 34  2  0
 34 35  1  0
 34 36  1  0
 36 37  1  0
 36 38  2  0
 38 39  1  0
 38 40  1  0
 40 41  1  0
 41 42  2  0
 41 43  1  0
 43 44  1  0
 44 45  1  0
 44 46  1  0
 44 47  1  0
 47 48  1  0
 47 49  1  0
 47 50  1  0
 50 51  1  0
 51 52  2  0
 51 53  1  0
 53 54  1  0
 53 55  1  0
 53 56  1  0
 50 57  1  0
 57 58  1  0
 57 59  1  0
 57 60  1  0
 60 61  1  0
 60 62  1  0
 40 63  2  0
 63 64  1  0
 28 65  1  0
 65 66  1  0
 65 67  2  0
 67 68  1  0
 67 23  1  0
 63 33  1  0
 60 43  1  0
M  CHG  2   5  -1  29  -1
M  END
>  <UniqueID>  (19) 
17

>  <SMILES>  (19) 
CC(=O)N1CCN(C(=O)c2cccc(S(=O)(=O)[N-]c3ccc(/C=C/C(=O)[N-]CCN(C)C)cc3)c2)CC1

>  <Energy>  (19) 
79.55376689038924

>  <Genealogy>  (19) 
CC(=O)N1CCN(C(=O)c2cccc(S(=O)(=O)[N-]c3ccc(C=CC(=O)[N-]CCN(C)C)cc3)c2)CC1 (protonated)
CC(=O)N1CCN(C(=O)c2cccc(S(=O)(=O)[N-]c3ccc(/C=C/C(=O)[N-]CCN(C)C)cc3)c2)CC1 (cis-trans isomerization)
CC(=O)N1CCN(C(=O)c2cccc(S(=O)(=O)[N-]c3ccc(/C=C/C(=O)[N-]CCN(C)C)cc3)c2)CC1 (3D coordinates assigned)
CC(=O)N1CCN(C(=O)c2cccc(S(=O)(=O)[N-]c3ccc(/C=C/C(=O)[N-]CCN(C)C)cc3)c2)CC1 (nonaromatic ring conformer: 79.55376689038924 kcal/mol)

>  <smiles>  (19) 
CC(=O)N1CCN(C(=O)c2cccc(S(=O)(=O)Nc3ccc(C=CC(=O)NCCN(C)C)cc3)c2)CC1

>  <score_type>  (19) 
oracle

>  <origin>  (19) 
adg

>  <m_score__min__energy>  (19) 
-13.09

>  <m_primary>  (19) 
energy

$$$$
19:0
     RDKit          3D

 70 74  0  0  0  0  0  0  0  0999 V2000
   55.1400   27.5010   45.3240 H   0  0  0  0  0  0  0  0  0  0  0  0
   55.1820   26.7850   46.0380 O   0  0  0  0  0  0  0  0  0  0  0  0
   55.0760   25.4400   45.7000 C   0  0  0  0  0  0  0  0  0  0  0  0
   53.9380   24.7300   45.7880 N   0  0  0  0  0  0  0  0  0  0  0  0
   54.3130   23.5150   45.3350 C   0  0  0  0  0  0  0  0  0  0  0  0
   53.5140   22.5460   45.2530 O   0  0  0  0  0  0  0  0  0  0  0  0
   55.6090   23.4210   44.9650 N   0  0  0  0  0  0  0  0  0  0  0  0
   56.0960   24.6490   45.2300 C   0  0  0  0  0  0  0  0  0  0  0  0
   57.4510   25.1060   44.8870 C   0  0  0  0  0  0  0  0  0  0  0  0
   57.9331   24.6392   44.0154 H   0  0  0  0  0  0  0  0  0  0  0  0
   58.1530   26.0470   45.5480 C   0  0  0  0  0  0  0  0  0  0  0  0
   59.2130   25.7410   46.3870 C   0  0  0  0  0  0  0  0  0  0  0  0
   59.6359   24.7423   46.5709 H   0  0  0  0  0  0  0  0  0  0  0  0
   59.6360   26.9280   46.9470 C   0  0  0  0  0  0  0  0  0  0  0  0
   60.7860   27.0590   47.9000 C   0  0  0  0  0  0  0  0  0  0  0  0
   60.4123   27.0164   48.9337 H   0  0  0  0  0  0  0  0  0  0  0  0
   61.4964   26.2360   47.7328 H   0  0  0  0  0  0  0  0  0  0  0  0
   61.2931   28.0207   47.7328 H   0  0  0  0  0  0  0  0  0  0  0  0
   58.9160   27.9600   46.4580 N   0  0  0  0  0  0  0  0  0  0  0  0
   59.1400   29.3510   46.7480 C   0  0  0  0  0  0  0  0  0  0  0  0
   59.2790   30.2650   45.6960 C   0  0  0  0  0  0  0  0  0  0  0  0
   59.2097   29.9166   44.6549 H   0  0  0  0  0  0  0  0  0  0  0  0
   59.5050   31.6160   45.9630 C   0  0  0  0  0  0  0  0  0  0  0  0
   59.6159   32.3281   45.1320 H   0  0  0  0  0  0  0  0  0  0  0  0
   59.5910   32.0680   47.2860 C   0  0  0  0  0  0  0  0  0  0  0  0
   59.9000   33.7720   47.6130 S   0  0  0  0  0  0  0  0  0  0  0  0
   59.2540   34.1590   48.9130 O   0  0  0  0  0  0  0  0  0  0  0  0
   59.2750   34.5850   46.5150 O   0  0  0  0  0  0  0  0  0  0  0  0
   61.6260   34.0740   47.6510 N   0  0  0  0  0  0  0  0  0  0  0  0
   62.3870   33.1510   46.7870 C   0  0  0  0  0  0  0  0  0  0  0  0
   61.8145   32.9757   45.8642 H   0  0  0  0  0  0  0  0  0  0  0  0
   63.3607   33.6148   46.5706 H   0  0  0  0  0  0  0  0  0  0  0  0
   62.6480   31.8010   47.4720 C   0  0  0  0  0  0  0  0  0  0  0  0
   61.6887   31.2894   47.6395 H   0  0  0  0  0  0  0  0  0  0  0  0
   63.2955   31.1936   46.8225 H   0  0  0  0  0  0  0  0  0  0  0  0
   63.2960   31.9890   48.7120 O   0  0  0  0  0  0  0  0  0  0  0  0
   62.4500   32.7090   49.5820 C   0  0  0  0  0  0  0  0  0  0  0  0
   61.5032   32.1612   49.6980 H   0  0  0  0  0  0  0  0  0  0  0  0
   62.9553   32.8156   50.5533 H   0  0  0  0  0  0  0  0  0  0  0  0
   62.1540   34.1130   49.0270 C   0  0  0  0  0  0  0  0  0  0  0  0
   61.4118   34.6002   49.6764 H   0  0  0  0  0  0  0  0  0  0  0  0
   63.1011   34.6721   49.0069 H   0  0  0  0  0  0  0  0  0  0  0  0
   59.4630   31.1540   48.3420 C   0  0  0  0  0  0  0  0  0  0  0  0
   59.5373   31.5060   49.3815 H   0  0  0  0  0  0  0  0  0  0  0  0
   59.2400   29.7890   48.0800 C   0  0  0  0  0  0  0  0  0  0  0  0
   59.1250   28.8410   49.1080 O   0  0  0  0  0  0  0  0  0  0  0  0
   59.9950   28.7560   50.2320 C   0  0  0  0  0  0  0  0  0  0  0  0
   60.3776   27.7288   50.3239 H   0  0  0  0  0  0  0  0  0  0  0  0
   60.8392   29.4484   50.0982 H   0  0  0  0  0  0  0  0  0  0  0  0
   59.2230   29.1280   51.4960 C   0  0  0  0  0  0  0  0  0  0  0  0
   58.4977   28.3326   51.7224 H   0  0  0  0  0  0  0  0  0  0  0  0
   59.9380   29.2424   52.3241 H   0  0  0  0  0  0  0  0  0  0  0  0
   58.5000   30.4060   51.3150 N   0  0  0  0  0  0  0  0  0  0  0  0
   57.2650   30.4420   52.1250 C   0  0  0  0  0  0  0  0  0  0  0  0
   56.5837   29.6466   51.7886 H   0  0  0  0  0  0  0  0  0  0  0  0
   57.5192   30.2872   53.1840 H   0  0  0  0  0  0  0  0  0  0  0  0
   56.5790   31.8040   51.9610 C   0  0  0  0  0  0  0  0  0  0  0  0
   56.3060   31.9458   50.9049 H   0  0  0  0  0  0  0  0  0  0  0  0
   55.6798   31.8252   52.5942 H   0  0  0  0  0  0  0  0  0  0  0  0
   57.4420   32.8510   52.3620 O   0  0  0  0  0  0  0  0  0  0  0  0
   58.5950   32.8560   51.5440 C   0  0  0  0  0  0  0  0  0  0  0  0
   58.2922   32.9853   50.4944 H   0  0  0  0  0  0  0  0  0  0  0  0
   59.2474   33.6839   51.8586 H   0  0  0  0  0  0  0  0  0  0  0  0
   59.3680   31.5390   51.6860 C   0  0  0  0  0  0  0  0  0  0  0  0
   60.2461   31.5581   51.0238 H   0  0  0  0  0  0  0  0  0  0  0  0
   59.6928   31.4201   52.7302 H   0  0  0  0  0  0  0  0  0  0  0  0
   58.0210   27.4460   45.5780 C   0  0  0  0  0  0  0  0  0  0  0  0
   57.2710   28.2080   44.7670 C   0  0  0  0  0  0  0  0  0  0  0  0
   57.2556   29.3001   44.8973 H   0  0  0  0  0  0  0  0  0  0  0  0
   56.6716   27.7405   43.9719 H   0  0  0  0  0  0  0  0  0  0  0  0
  1  2  1  0
  2  3  1  0
  3  4  1  0
  4  5  1  0
  5  6  2  0
  5  7  1  0
  7  8  1  0
  8  9  1  0
  9 10  1  0
  9 11  2  0
 11 12  1  0
 12 13  1  0
 12 14  2  0
 14 15  1  0
 15 16  1  0
 15 17  1  0
 15 18  1  0
 14 19  1  0
 19 20  1  0
 20 21  2  0
 21 22  1  0
 21 23  1  0
 23 24  1  0
 23 25  2  0
 25 26  1  0
 26 27  2  0
 26 28  2  0
 26 29  1  0
 29 30  1  0
 30 31  1  0
 30 32  1  0
 30 33  1  0
 33 34  1  0
 33 35  1  0
 33 36  1  0
 36 37  1  0
 37 38  1  0
 37 39  1  0
 37 40  1  0
 40 41  1  0
 40 42  1  0
 25 43  1  0
 43 44  1  0
 43 45  2  0
 45 46  1  0
 46 47  1  0
 47 48  1  0
 47 49  1  0
 47 50  1  0
 50 51  1  0
 50 52  1  0
 50 53  1  0
 53 54  1  0
 54 55  1  0
 54 56  1  0
 54 57  1  0
 57 58  1  0
 57 59  1  0
 57 60  1  0
 60 61  1  0
 61 62  1  0
 61 63  1  0
 61 64  1  0
 64 65  1  0
 64 66  1  0
 19 67  1  0
 67 68  2  0
 68 69  1  0
 68 70  1  0
  8  3  2  0
 67 11  1  0
 45 20  1  0
 64 53  1  0
 40 29  1  0
M  CHG  2   4  -1   7  -1
M  END
>  <UniqueID>  (20) 
18

>  <SMILES>  (20) 
C=c1/c(=C\c2[n-]c(=O)[n-]c2O)cc(C)n1-c1ccc(S(=O)(=O)N2CCOCC2)cc1OCCN1CCOCC1

>  <Energy>  (20) 
151.66899656193334

>  <Genealogy>  (20) 
C=c1c(=Cc2[n-]c(=O)[n-]c2O)cc(C)n1-c1ccc(S(=O)(=O)N2CCOCC2)cc1OCCN1CCOCC1 (protonated)
C=c1/c(=C\c2[n-]c(=O)[n-]c2O)cc(C)n1-c1ccc(S(=O)(=O)N2CCOCC2)cc1OCCN1CCOCC1 (cis-trans isomerization)
C=c1/c(=C\c2[n-]c(=O)[n-]c2O)cc(C)n1-c1ccc(S(=O)(=O)N2CCOCC2)cc1OCCN1CCOCC1 (3D coordinates assigned)
C=c1/c(=C\c2[n-]c(=O)[n-]c2O)cc(C)n1-c1ccc(S(=O)(=O)N2CCOCC2)cc1OCCN1CCOCC1 (nonaromatic ring conformer: 151.66899656193334 kcal/mol)

>  <smiles>  (20) 
C=c1c(=Cc2[nH]c(=O)[nH]c2O)cc(C)n1-c1ccc(S(=O)(=O)N2CCOCC2)cc1OCCN1CCOCC1

>  <score_type>  (20) 
oracle

>  <origin>  (20) 
adg

>  <m_score__min__energy>  (20) 
-14.02

>  <m_primary>  (20) 
energy

$$$$
20:0
     RDKit          3D

 34 36  0  0  0  0  0  0  0  0999 V2000
   56.9600   20.3810   43.3420 N   0  0  0  0  0  0  0  0  0  0  0  0
   56.6730   21.7770   43.2140 C   0  0  0  0  0  0  0  0  0  0  0  0
   55.9120   22.1590   42.2860 O   0  0  0  0  0  0  0  0  0  0  0  0
   57.2380   22.7730   44.1590 C   0  0  0  0  0  0  0  0  0  0  0  0
   58.5210   22.5780   44.6970 C   0  0  0  0  0  0  0  0  0  0  0  0
   59.0630   23.5050   45.5890 C   0  0  0  0  0  0  0  0  0  0  0  0
   58.3460   24.6500   45.9530 C   0  0  0  0  0  0  0  0  0  0  0  0
   58.9490   25.5610   46.8800 N   0  0  0  0  0  0  0  0  0  0  0  0
   59.8370   26.6290   46.5310 C   0  0  0  0  0  0  0  0  0  0  0  0
   60.0030   26.9560   45.3250 O   0  0  0  0  0  0  0  0  0  0  0  0
   60.5830   27.3510   47.6070 C   0  0  0  0  0  0  0  0  0  0  0  0
   59.4720   28.4750   48.5190 S   0  0  0  0  0  0  0  0  0  0  0  0
   58.6870   29.1340   47.0490 C   0  0  0  0  0  0  0  0  0  0  0  0
   59.3200   29.9960   46.2100 N   0  0  0  0  0  0  0  0  0  0  0  0
   58.3960   30.1980   45.2620 C   0  0  0  0  0  0  0  0  0  0  0  0
   58.4860   30.9850   44.1190 C   0  0  0  0  0  0  0  0  0  0  0  0
   57.3630   31.0160   43.2710 C   0  0  0  0  0  0  0  0  0  0  0  0
   57.3930   31.9820   41.8090 Cl  0  0  0  0  0  0  0  0  0  0  0  0
   56.2110   30.2620   43.6040 C   0  0  0  0  0  0  0  0  0  0  0  0
   56.1840   29.5020   44.7410 N   0  0  0  0  0  0  0  0  0  0  0  0
   57.2770   29.4890   45.5440 C   0  0  0  0  0  0  0  0  0  0  0  0
   57.4220   28.7950   46.6800 N   0  0  0  0  0  0  0  0  0  0  0  0
   57.0370   24.8300   45.4560 C   0  0  0  0  0  0  0  0  0  0  0  0
   56.0000   26.1420   46.0050 Cl  0  0  0  0  0  0  0  0  0  0  0  0
   56.4980   23.8990   44.5600 C   0  0  0  0  0  0  0  0  0  0  0  0
   57.4510   19.9940   44.1760 H   0  0  0  0  0  0  0  0  0  0  0  0
   56.5960   19.7090   42.6300 H   0  0  0  0  0  0  0  0  0  0  0  0
   59.1027   21.6885   44.4134 H   0  0  0  0  0  0  0  0  0  0  0  0
   60.0646   23.3334   46.0102 H   0  0  0  0  0  0  0  0  0  0  0  0
   61.0078   26.6166   48.3071 H   0  0  0  0  0  0  0  0  0  0  0  0
   61.3848   27.9449   47.1441 H   0  0  0  0  0  0  0  0  0  0  0  0
   59.3956   31.5586   43.8876 H   0  0  0  0  0  0  0  0  0  0  0  0
   55.3318   30.2878   42.9435 H   0  0  0  0  0  0  0  0  0  0  0  0
   55.4827   24.0505   44.1648 H   0  0  0  0  0  0  0  0  0  0  0  0
  1  2  1  0
  2  3  2  0
  2  4  1  0
  4  5  2  0
  5  6  1  0
  6  7  2  0
  7  8  1  0
  8  9  1  0
  9 10  2  0
  9 11  1  0
 11 12  1  0
 12 13  1  0
 13 14  2  0
 14 15  1  0
 15 16  2  0
 16 17  1  0
 17 18  1  0
 17 19  2  0
 19 20  1  0
 20 21  2  0
 21 22  1  0
  7 23  1  0
 23 24  1  0
 23 25  2  0
 25  4  1  0
 22 13  1  0
 21 15  1  0
  1 26  1  0
  1 27  1  0
  5 28  1  0
  6 29  1  0
 11 30  1  0
 11 31  1  0
 16 32  1  0
 19 33  1  0
 25 34  1  0
M  CHG  2   8  -1  22  -1
M  END
>  <UniqueID>  (21) 
19

>  <SMILES>  (21) 
NC(=O)c1ccc([N-]C(=O)CSc2nc3cc(Cl)cnc3[n-]2)c(Cl)c1

>  <Energy>  (21) 
75.59345842493573

>  <Genealogy>  (21) 
NC(=O)c1ccc([N-]C(=O)CSc2nc3cc(Cl)cnc3[n-]2)c(Cl)c1 (protonated)
NC(=O)c1ccc([N-]C(=O)CSc2nc3cc(Cl)cnc3[n-]2)c(Cl)c1 (3D coordinates assigned)
NC(=O)c1ccc([N-]C(=O)CSc2nc3cc(Cl)cnc3[n-]2)c(Cl)c1 (optimized conformer: 75.59345842493573 kcal/mol)

>  <smiles>  (21) 
NC(=O)c1ccc(NC(=O)CSc2nc3cc(Cl)cnc3[nH]2)c(Cl)c1

>  <score_type>  (21) 
oracle

>  <origin>  (21) 
adg

>  <m_score__min__energy>  (21) 
-11.949999999999999

>  <m_primary>  (21) 
energy

$$$$
21:0
     RDKit          3D

 55 57  0  0  0  0  0  0  0  0999 V2000
   58.9040   23.5790   45.5980 C   0  0  0  0  0  0  0  0  0  0  0  0
   59.1180   24.7390   46.3940 O   0  0  0  0  0  0  0  0  0  0  0  0
   58.7290   26.0370   46.0260 C   0  0  0  0  0  0  0  0  0  0  0  0
   59.6480   26.9750   45.5240 C   0  0  0  0  0  0  0  0  0  0  0  0
   59.2310   28.2580   45.1680 C   0  0  0  0  0  0  0  0  0  0  0  0
   57.8840   28.6330   45.2990 C   0  0  0  0  0  0  0  0  0  0  0  0
   57.4050   29.9850   44.8950 C   0  0  0  0  0  0  0  0  0  0  0  0
   56.1600   30.1930   44.8440 O   0  0  0  0  0  0  0  0  0  0  0  0
   58.3250   31.0520   44.5360 N   0  0  1  0  0  0  0  0  0  0  0  0
   57.5550   32.2130   44.0130 C   0  0  0  0  0  0  0  0  0  0  0  0
   58.3630   33.5130   44.0890 C   0  0  0  0  0  0  0  0  0  0  0  0
   58.7070   33.8690   45.5460 C   0  0  0  0  0  0  0  0  0  0  0  0
   58.7570   32.6240   46.4620 C   0  0  2  0  0  0  0  0  0  0  0  0
   59.6220   32.8940   47.6660 C   0  0  0  0  0  0  0  0  0  0  0  0
   59.1010   33.0440   48.8050 O   0  0  0  0  0  0  0  0  0  0  0  0
   61.0460   32.8490   47.5480 N   0  0  0  0  0  0  0  0  0  0  0  0
   61.8210   31.7140   48.0000 C   0  0  0  0  0  0  0  0  0  0  0  0
   63.2490   31.9770   47.5350 C   0  0  0  0  0  0  0  0  0  0  0  0
   63.2600   33.3630   46.8830 C   0  0  0  0  0  0  0  0  0  0  0  0
   61.8160   33.8410   46.8230 C   0  0  0  0  0  0  0  0  0  0  0  0
   59.2340   31.3890   45.6750 C   0  0  0  0  0  0  0  0  0  0  0  0
   56.9670   27.6920   45.7960 C   0  0  0  0  0  0  0  0  0  0  0  0
   57.3820   26.3980   46.1630 C   0  0  0  0  0  0  0  0  0  0  0  0
   56.4580   25.4210   46.6650 N   0  0  0  0  0  0  0  0  0  0  0  0
   55.0440   24.8330   45.8480 S   0  0  0  0  0  0  0  0  0  0  0  0
   55.4980   24.0880   44.2940 C   0  0  0  0  0  0  0  0  0  0  0  0
   54.3860   23.7950   46.7100 O   0  0  0  0  0  0  0  0  0  0  0  0
   54.0740   25.9590   45.6270 O   0  0  0  0  0  0  0  0  0  0  0  0
   58.7436   22.7096   46.2526 H   0  0  0  0  0  0  0  0  0  0  0  0
   58.0182   23.7283   44.9631 H   0  0  0  0  0  0  0  0  0  0  0  0
   59.7847   23.4024   44.9631 H   0  0  0  0  0  0  0  0  0  0  0  0
   60.7057   26.6948   45.4108 H   0  0  0  0  0  0  0  0  0  0  0  0
   59.9635   28.9819   44.7815 H   0  0  0  0  0  0  0  0  0  0  0  0
   58.9460   30.7040   43.7680 H   0  0  0  0  0  0  0  0  0  0  0  0
   57.2890   32.0200   42.9632 H   0  0  0  0  0  0  0  0  0  0  0  0
   56.6547   32.3334   44.6334 H   0  0  0  0  0  0  0  0  0  0  0  0
   59.2961   33.3895   43.5198 H   0  0  0  0  0  0  0  0  0  0  0  0
   57.7555   34.3264   43.6654 H   0  0  0  0  0  0  0  0  0  0  0  0
   59.6901   34.3620   45.5663 H   0  0  0  0  0  0  0  0  0  0  0  0
   57.9152   34.5320   45.9248 H   0  0  0  0  0  0  0  0  0  0  0  0
   57.7416   32.4065   46.8249 H   0  0  0  0  0  0  0  0  0  0  0  0
   61.7831   31.6361   49.0966 H   0  0  0  0  0  0  0  0  0  0  0  0
   61.4301   30.7688   47.5952 H   0  0  0  0  0  0  0  0  0  0  0  0
   63.9355   31.9584   48.3943 H   0  0  0  0  0  0  0  0  0  0  0  0
   63.5781   31.2058   46.8230 H   0  0  0  0  0  0  0  0  0  0  0  0
   63.8630   34.0585   47.4853 H   0  0  0  0  0  0  0  0  0  0  0  0
   63.6997   33.3183   45.8757 H   0  0  0  0  0  0  0  0  0  0  0  0
   61.7179   34.8272   47.3004 H   0  0  0  0  0  0  0  0  0  0  0  0
   61.4661   33.9493   45.7858 H   0  0  0  0  0  0  0  0  0  0  0  0
   60.2394   31.5907   45.2768 H   0  0  0  0  0  0  0  0  0  0  0  0
   59.2379   30.5326   46.3654 H   0  0  0  0  0  0  0  0  0  0  0  0
   55.9080   27.9708   45.9000 H   0  0  0  0  0  0  0  0  0  0  0  0
   56.0620   23.1625   44.4820 H   0  0  0  0  0  0  0  0  0  0  0  0
   54.5892   23.8535   43.7204 H   0  0  0  0  0  0  0  0  0  0  0  0
   56.1231   24.7882   43.7204 H   0  0  0  0  0  0  0  0  0  0  0  0
  1  2  1  0
  2  3  1  0
  3  4  2  0
  4  5  1  0
  5  6  2  0
  6  7  1  0
  7  8  2  0
  7  9  1  0
  9 10  1  0
 10 11  1  0
 11 12  1  0
 12 13  1  0
 13 14  1  0
 14 15  2  0
 14 16  1  0
 16 17  1  0
 17 18  1  0
 18 19  1  0
 19 20  1  0
 13 21  1  0
  6 22  1  0
 22 23  2  0
 23 24  1  0
 24 25  1  0
 25 26  1  0
 25 27  2  0
 25 28  2  0
 23  3  1  0
 21  9  1  0
 20 16  1  0
  1 29  1  0
  1 30  1  0
  1 31  1  0
  4 32  1  0
  5 33  1  0
  9 34  1  6
 10 35  1  0
 10 36  1  0
 11 37  1  0
 11 38  1  0
 12 39  1  0
 12 40  1  0
 13 41  1  1
 17 42  1  0
 17 43  1  0
 18 44  1  0
 18 45  1  0
 19 46  1  0
 19 47  1  0
 20 48  1  0
 20 49  1  0
 21 50  1  0
 21 51  1  0
 22 52  1  0
 26 53  1  0
 26 54  1  0
 26 55  1  0
M  CHG  2   9   1  24  -1
M  END
>  <UniqueID>  (22) 
20

>  <SMILES>  (22) 
COc1ccc(C(=O)[N@H+]2CCC[C@H](C(=O)N3CCCC3)C2)cc1[N-]S(C)(=O)=O

>  <Energy>  (22) 
71.27909559106317

>  <Genealogy>  (22) 
COc1ccc(C(=O)[NH+]2CCCC(C(=O)N3CCCC3)C2)cc1[N-]S(C)(=O)=O (protonated)
COc1ccc(C(=O)[N@H+]2CCC[C@H](C(=O)N3CCCC3)C2)cc1[N-]S(C)(=O)=O (chirality)
COc1ccc(C(=O)[N@H+]2CCC[C@H](C(=O)N3CCCC3)C2)cc1[N-]S(C)(=O)=O (3D coordinates assigned)
COc1ccc(C(=O)[N@H+]2CCC[C@H](C(=O)N3CCCC3)C2)cc1[N-]S(C)(=O)=O (nonaromatic ring conformer: 71.27909559106317 kcal/mol)

>  <smiles>  (22) 
COc1ccc(C(=O)N2CCCC(C(=O)N3CCCC3)C2)cc1NS(C)(=O)=O

>  <score_type>  (22) 
oracle

>  <origin>  (22) 
adg

>  <m_score__min__energy>  (22) 
-9.7400000000000002

>  <m_primary>  (22) 
energy

$$$$
22:0
     RDKit          3D

 41 43  0  0  0  0  0  0  0  0999 V2000
   63.9790   30.2370   51.7490 C   0  0  0  0  0  0  0  0  0  0  0  0
   63.7300   30.8620   50.4940 O   0  0  0  0  0  0  0  0  0  0  0  0
   62.7550   31.8490   50.2750 C   0  0  0  0  0  0  0  0  0  0  0  0
   63.0920   33.2150   50.1960 C   0  0  0  0  0  0  0  0  0  0  0  0
   62.1090   34.1740   49.9390 C   0  0  0  0  0  0  0  0  0  0  0  0
   60.7840   33.7840   49.7540 C   0  0  0  0  0  0  0  0  0  0  0  0
   60.4320   32.4360   49.8340 C   0  0  0  0  0  0  0  0  0  0  0  0
   61.4050   31.4600   50.1120 C   0  0  0  0  0  0  0  0  0  0  0  0
   60.9890   30.0420   50.2250 C   0  0  0  0  0  0  0  0  0  0  0  0
   61.1430   29.2770   49.2360 O   0  0  0  0  0  0  0  0  0  0  0  0
   60.4400   29.4970   51.4350 N   0  0  0  0  0  0  0  0  0  0  0  0
   59.2880   29.9810   52.1400 C   0  0  0  0  0  0  0  0  0  0  0  0
   59.3650   30.1510   53.5270 C   0  0  0  0  0  0  0  0  0  0  0  0
   58.2610   30.6160   54.2430 C   0  0  0  0  0  0  0  0  0  0  0  0
   57.0680   30.9140   53.5800 C   0  0  0  0  0  0  0  0  0  0  0  0
   56.9710   30.7510   52.1910 C   0  0  0  0  0  0  0  0  0  0  0  0
   55.7280   31.0450   51.5280 N   0  0  0  0  0  0  0  0  0  0  0  0
   54.4960   30.3610   51.8100 C   0  0  0  0  0  0  0  0  0  0  0  0
   54.5110   29.2740   52.4510 O   0  0  0  0  0  0  0  0  0  0  0  0
   53.2100   30.9040   51.3210 C   0  0  0  0  0  0  0  0  0  0  0  0
   52.6210   30.4220   50.1420 C   0  0  0  0  0  0  0  0  0  0  0  0
   51.4030   30.9680   49.7310 C   0  0  0  0  0  0  0  0  0  0  0  0
   50.8490   30.5580   48.6790 O   0  0  0  0  0  0  0  0  0  0  0  0
   50.8140   31.9430   50.4690 N   0  0  0  0  0  0  0  0  0  0  0  0
   51.3940   32.4010   51.6090 C   0  0  0  0  0  0  0  0  0  0  0  0
   50.8340   33.3040   52.2810 O   0  0  0  0  0  0  0  0  0  0  0  0
   52.5790   31.8820   52.0250 N   0  0  0  0  0  0  0  0  0  0  0  0
   58.0750   30.2500   51.4790 C   0  0  0  0  0  0  0  0  0  0  0  0
   63.7048   30.9252   52.5622 H   0  0  0  0  0  0  0  0  0  0  0  0
   63.3779   29.3191   51.8272 H   0  0  0  0  0  0  0  0  0  0  0  0
   65.0466   29.9839   51.8272 H   0  0  0  0  0  0  0  0  0  0  0  0
   64.1368   33.5286   50.3377 H   0  0  0  0  0  0  0  0  0  0  0  0
   62.3813   35.2383   49.8826 H   0  0  0  0  0  0  0  0  0  0  0  0
   60.0136   34.5407   49.5444 H   0  0  0  0  0  0  0  0  0  0  0  0
   59.3855   32.1349   49.6784 H   0  0  0  0  0  0  0  0  0  0  0  0
   60.3008   29.9168   54.0557 H   0  0  0  0  0  0  0  0  0  0  0  0
   58.3304   30.7483   55.3328 H   0  0  0  0  0  0  0  0  0  0  0  0
   56.2008   31.2782   54.1504 H   0  0  0  0  0  0  0  0  0  0  0  0
   55.7490   31.7250   50.7340 H   0  0  0  0  0  0  0  0  0  0  0  0
   53.1085   29.6306   49.5538 H   0  0  0  0  0  0  0  0  0  0  0  0
   57.9901   30.0670   50.3977 H   0  0  0  0  0  0  0  0  0  0  0  0
  1  2  1  0
  2  3  1  0
  3  4  2  0
  4  5  1  0
  5  6  2  0
  6  7  1  0
  7  8  2  0
  8  9  1  0
  9 10  2  0
  9 11  1  0
 11 12  1  0
 12 13  2  0
 13 14  1  0
 14 15  2  0
 15 16  1  0
 16 17  1  0
 17 18  1  0
 18 19  2  0
 18 20  1  0
 20 21  2  0
 21 22  1  0
 22 23  2  0
 22 24  1  0
 24 25  1  0
 25 26  2  0
 25 27  1  0
 16 28  2  0
  8  3  1  0
 28 12  1  0
 27 20  1  0
  1 29  1  0
  1 30  1  0
  1 31  1  0
  4 32  1  0
  5 33  1  0
  6 34  1  0
  7 35  1  0
 13 36  1  0
 14 37  1  0
 15 38  1  0
 17 39  1  0
 21 40  1  0
 28 41  1  0
M  CHG  3  11  -1  24  -1  27  -1
M  END
>  <UniqueID>  (23) 
21

>  <SMILES>  (23) 
COc1ccccc1C(=O)[N-]c1cccc(NC(=O)c2cc(=O)[n-]c(=O)[n-]2)c1

>  <Energy>  (23) 
54.45181831383612

>  <Genealogy>  (23) 
COc1ccccc1C(=O)[N-]c1cccc(NC(=O)c2cc(=O)[n-]c(=O)[n-]2)c1 (protonated)
COc1ccccc1C(=O)[N-]c1cccc(NC(=O)c2cc(=O)[n-]c(=O)[n-]2)c1 (3D coordinates assigned)
COc1ccccc1C(=O)[N-]c1cccc(NC(=O)c2cc(=O)[n-]c(=O)[n-]2)c1 (optimized conformer: 54.45181831383612 kcal/mol)

>  <smiles>  (23) 
COc1ccccc1C(=O)Nc1cccc(NC(=O)c2cc(=O)[nH]c(=O)[nH]2)c1

>  <score_type>  (23) 
oracle

>  <origin>  (23) 
adg

>  <m_score__min__energy>  (23) 
-13.07

>  <m_primary>  (23) 
energy

$$$$
23:0
     RDKit          3D

 45 48  0  0  0  0  0  0  0  0999 V2000
   55.2200   24.4520   47.1390 O   0  0  0  0  0  0  0  0  0  0  0  0
   56.2810   23.7840   47.2750 C   0  0  0  0  0  0  0  0  0  0  0  0
   56.2020   22.3700   47.7670 C   0  0  0  0  0  0  0  0  0  0  0  0
   57.2110   21.5670   47.1550 O   0  0  0  0  0  0  0  0  0  0  0  0
   57.4490   21.4720   45.7740 C   0  0  0  0  0  0  0  0  0  0  0  0
   56.4520   20.9060   44.9680 C   0  0  0  0  0  0  0  0  0  0  0  0
   56.6400   20.7840   43.5880 C   0  0  0  0  0  0  0  0  0  0  0  0
   57.8260   21.2290   43.0010 C   0  0  0  0  0  0  0  0  0  0  0  0
   58.8260   21.7980   43.7940 C   0  0  0  0  0  0  0  0  0  0  0  0
   58.6420   21.9220   45.1740 C   0  0  0  0  0  0  0  0  0  0  0  0
   57.5540   24.3540   46.9360 N   0  0  0  0  0  0  0  0  0  0  0  0
   57.7520   25.7340   46.5840 C   0  0  0  0  0  0  0  0  0  0  0  0
   56.8580   26.4110   45.7380 C   0  0  0  0  0  0  0  0  0  0  0  0
   57.0610   27.7590   45.4280 C   0  0  0  0  0  0  0  0  0  0  0  0
   58.1560   28.4570   45.9620 C   0  0  0  0  0  0  0  0  0  0  0  0
   58.3510   29.8480   45.6440 N   0  0  0  0  0  0  0  0  0  0  0  0
   59.2050   30.7730   46.3330 C   0  0  0  0  0  0  0  0  0  0  0  0
   60.0890   30.4120   47.1550 O   0  0  0  0  0  0  0  0  0  0  0  0
   58.9850   32.1740   45.9490 C   0  0  0  0  0  0  0  0  0  0  0  0
   59.6420   33.3020   46.4430 C   0  0  0  0  0  0  0  0  0  0  0  0
   59.2860   34.5640   45.9420 C   0  0  0  0  0  0  0  0  0  0  0  0
   58.2850   34.6830   44.9590 C   0  0  0  0  0  0  0  0  0  0  0  0
   57.6340   33.5410   44.4690 C   0  0  0  0  0  0  0  0  0  0  0  0
   58.0010   32.2970   44.9800 C   0  0  0  0  0  0  0  0  0  0  0  0
   57.3630   30.7420   44.5390 S   0  0  0  0  0  0  0  0  0  0  0  0
   57.6630   30.3930   43.1090 O   0  0  0  0  0  0  0  0  0  0  0  0
   55.9030   30.6080   44.8690 O   0  0  0  0  0  0  0  0  0  0  0  0
   59.0300   27.7880   46.8350 C   0  0  0  0  0  0  0  0  0  0  0  0
   58.8250   26.4400   47.1450 C   0  0  0  0  0  0  0  0  0  0  0  0
   56.3434   22.3585   48.8578 H   0  0  0  0  0  0  0  0  0  0  0  0
   55.2156   21.9589   47.5063 H   0  0  0  0  0  0  0  0  0  0  0  0
   55.5147   20.5552   45.4245 H   0  0  0  0  0  0  0  0  0  0  0  0
   55.8524   20.3368   42.9638 H   0  0  0  0  0  0  0  0  0  0  0  0
   57.9731   21.1318   41.9152 H   0  0  0  0  0  0  0  0  0  0  0  0
   59.7601   22.1491   43.3312 H   0  0  0  0  0  0  0  0  0  0  0  0
   59.4312   22.3724   45.7939 H   0  0  0  0  0  0  0  0  0  0  0  0
   58.3680   23.7050   46.8420 H   0  0  0  0  0  0  0  0  0  0  0  0
   55.9932   25.8774   45.3170 H   0  0  0  0  0  0  0  0  0  0  0  0
   56.3570   28.2771   44.7602 H   0  0  0  0  0  0  0  0  0  0  0  0
   60.4240   33.2039   47.2104 H   0  0  0  0  0  0  0  0  0  0  0  0
   59.7918   35.4649   46.3194 H   0  0  0  0  0  0  0  0  0  0  0  0
   58.0121   35.6764   44.5733 H   0  0  0  0  0  0  0  0  0  0  0  0
   56.8523   33.6252   43.6997 H   0  0  0  0  0  0  0  0  0  0  0  0
   59.8804   28.3277   47.2772 H   0  0  0  0  0  0  0  0  0  0  0  0
   59.5121   25.9290   47.8355 H   0  0  0  0  0  0  0  0  0  0  0  0
  1  2  2  0
  2  3  1  0
  3  4  1  0
  4  5  1  0
  5  6  2  0
  6  7  1  0
  7  8  2  0
  8  9  1  0
  9 10  2  0
  2 11  1  0
 11 12  1  0
 12 13  2  0
 13 14  1  0
 14 15  2  0
 15 16  1  0
 16 17  1  0
 17 18  2  0
 17 19  1  0
 19 20  2  0
 20 21  1  0
 21 22  2  0
 22 23  1  0
 23 24  2  0
 24 25  1  0
 25 26  2  0
 25 27  2  0
 15 28  1  0
 28 29  2  0
 10  5  1  0
 29 12  1  0
 25 16  1  0
 24 19  1  0
  3 30  1  0
  3 31  1  0
  6 32  1  0
  7 33  1  0
  8 34  1  0
  9 35  1  0
 10 36  1  0
 11 37  1  0
 13 38  1  0
 14 39  1  0
 20 40  1  0
 21 41  1  0
 22 42  1  0
 23 43  1  0
 28 44  1  0
 29 45  1  0
M  END
>  <UniqueID>  (24) 
22

>  <SMILES>  (24) 
O=C(COc1ccccc1)Nc1ccc(N2C(=O)c3ccccc3S2(=O)=O)cc1

>  <Energy>  (24) 
79.39697270479974

>  <Genealogy>  (24) 
O=C(COc1ccccc1)Nc1ccc(N2C(=O)c3ccccc3S2(=O)=O)cc1 (3D coordinates assigned)
O=C(COc1ccccc1)Nc1ccc(N2C(=O)c3ccccc3S2(=O)=O)cc1 (nonaromatic ring conformer: 79.39697270479974 kcal/mol)

>  <smiles>  (24) 
O=C(COc1ccccc1)Nc1ccc(N2C(=O)c3ccccc3S2(=O)=O)cc1

>  <score_type>  (24) 
oracle

>  <origin>  (24) 
adg

>  <m_score__min__energy>  (24) 
-8.8100000000000005

>  <m_primary>  (24) 
energy

$$$$
24:0
     RDKit          3D

 34 35  0  0  0  0  0  0  0  0999 V2000
   58.9140   34.8530   44.9400 C   0  0  0  0  0  0  0  0  0  0  0  0
   59.6270   35.3580   45.9500 C   0  0  0  0  0  0  0  0  0  0  0  0
   59.4290   34.8960   47.3670 C   0  0  0  0  0  0  0  0  0  0  0  0
   59.8080   33.4420   47.5150 C   0  0  0  0  0  0  0  0  0  0  0  0
   59.0060   32.4480   46.9400 C   0  0  0  0  0  0  0  0  0  0  0  0
   59.3470   31.1260   47.0320 N   0  0  0  0  0  0  0  0  0  0  0  0
   58.4510   30.1180   46.4270 C   0  0  2  0  0  0  0  0  0  0  0  0
   59.2170   29.1800   45.5000 C   0  0  0  0  0  0  0  0  0  0  0  0
   58.2010   28.8690   44.4340 C   0  0  1  0  0  0  0  0  0  0  0  0
   57.4850   27.6920   44.7340 O   0  0  0  0  0  0  0  0  0  0  0  0
   57.3200   30.1250   44.4410 C   0  0  1  0  0  0  0  0  0  0  0  0
   55.8550   29.8590   44.0660 C   0  0  0  0  0  0  0  0  0  0  0  0
   55.1540   29.3510   45.1690 O   0  0  0  0  0  0  0  0  0  0  0  0
   57.4010   30.7390   45.7110 O   0  0  0  0  0  0  0  0  0  0  0  0
   60.4820   30.7700   47.7200 C   0  0  0  0  0  0  0  0  0  0  0  0
   60.8050   29.5590   47.8540 O   0  0  0  0  0  0  0  0  0  0  0  0
   61.2740   31.7220   48.2740 N   0  0  0  0  0  0  0  0  0  0  0  0
   60.9720   33.0400   48.1840 C   0  0  0  0  0  0  0  0  0  0  0  0
   61.7440   33.8870   48.7080 O   0  0  0  0  0  0  0  0  0  0  0  0
   59.0827   35.2122   43.9141 H   0  0  0  0  0  0  0  0  0  0  0  0
   58.1581   34.0778   45.1340 H   0  0  0  0  0  0  0  0  0  0  0  0
   60.3792   36.1326   45.7396 H   0  0  0  0  0  0  0  0  0  0  0  0
   60.0581   35.5024   48.0352 H   0  0  0  0  0  0  0  0  0  0  0  0
   58.3674   35.0121   47.6305 H   0  0  0  0  0  0  0  0  0  0  0  0
   58.0879   32.7345   46.4062 H   0  0  0  0  0  0  0  0  0  0  0  0
   58.0233   29.5270   47.2503 H   0  0  0  0  0  0  0  0  0  0  0  0
   60.1004   29.6776   45.0734 H   0  0  0  0  0  0  0  0  0  0  0  0
   59.6061   28.2851   46.0077 H   0  0  0  0  0  0  0  0  0  0  0  0
   58.6361   28.6653   43.4445 H   0  0  0  0  0  0  0  0  0  0  0  0
   56.5380   27.8240   44.4680 H   0  0  0  0  0  0  0  0  0  0  0  0
   57.7078   30.7951   43.6595 H   0  0  0  0  0  0  0  0  0  0  0  0
   55.3872   30.8000   43.7410 H   0  0  0  0  0  0  0  0  0  0  0  0
   55.8230   29.1207   43.2512 H   0  0  0  0  0  0  0  0  0  0  0  0
   55.5830   29.7300   45.9790 H   0  0  0  0  0  0  0  0  0  0  0  0
  1  2  2  0
  2  3  1  0
  3  4  1  0
  4  5  2  0
  5  6  1  0
  6  7  1  0
  7  8  1  0
  8  9  1  0
  9 10  1  0
  9 11  1  0
 11 12  1  0
 12 13  1  0
 11 14  1  0
  6 15  1  0
 15 16  2  0
 15 17  1  0
 17 18  1  0
 18 19  2  0
 18  4  1  0
 14  7  1  0
  1 20  1  0
  1 21  1  0
  2 22  1  0
  3 23  1  0
  3 24  1  0
  5 25  1  0
  7 26  1  1
  8 27  1  0
  8 28  1  0
  9 29  1  6
 10 30  1  0
 11 31  1  6
 12 32  1  0
 12 33  1  0
 13 34  1  0
M  CHG  1  17  -1
M  END
>  <UniqueID>  (25) 
23

>  <SMILES>  (25) 
C=CCc1cn([C@@H]2C[C@@H](O)C(CO)O2)c(=O)[n-]c1=O

>  <Energy>  (25) 
36.910313268309835

>  <Genealogy>  (25) 
C=CCc1cn(C2CC(O)C(CO)O2)c(=O)[n-]c1=O (protonated)
C=CCc1cn([C@@H]2C[C@@H](O)C(CO)O2)c(=O)[n-]c1=O (chirality)
C=CCc1cn([C@@H]2C[C@@H](O)C(CO)O2)c(=O)[n-]c1=O (3D coordinates assigned)
C=CCc1cn([C@@H]2C[C@@H](O)C(CO)O2)c(=O)[n-]c1=O (nonaromatic ring conformer: 36.910313268309835 kcal/mol)

>  <smiles>  (25) 
C=CCc1cn(C2CC(O)C(CO)O2)c(=O)[nH]c1=O

>  <score_type>  (25) 
oracle

>  <origin>  (25) 
adg

>  <m_score__min__energy>  (25) 
-8.1400000000000006

>  <m_primary>  (25) 
energy

$$$$
25:0
     RDKit          3D

 51 55  0  0  0  0  0  0  0  0999 V2000
   51.1672   32.2830   49.5554 H   0  0  0  0  0  0  0  0  0  0  0  0
   51.4390   31.9690   50.5740 C   0  0  0  0  0  0  0  0  0  0  0  0
   50.6510   32.3210   51.6230 N   0  0  0  0  0  0  0  0  0  0  0  0
   50.9550   31.9540   52.8940 C   0  0  0  0  0  0  0  0  0  0  0  0
   50.2984   32.2552   53.7235 H   0  0  0  0  0  0  0  0  0  0  0  0
   52.0990   31.1950   53.1520 C   0  0  0  0  0  0  0  0  0  0  0  0
   52.3910   30.8370   54.4290 F   0  0  0  0  0  0  0  0  0  0  0  0
   52.9270   30.7960   52.0920 C   0  0  0  0  0  0  0  0  0  0  0  0
   53.9870   30.0860   52.3710 N   0  0  0  0  0  0  0  0  0  0  0  0
   55.1580   30.4500   53.1240 C   0  0  0  0  0  0  0  0  0  0  0  0
   55.0650   30.7660   54.3420 O   0  0  0  0  0  0  0  0  0  0  0  0
   56.4700   30.5440   52.4420 C   0  0  0  0  0  0  0  0  0  0  0  0
   57.2550   29.3940   52.2420 C   0  0  0  0  0  0  0  0  0  0  0  0
   56.8909   28.4173   52.5933 H   0  0  0  0  0  0  0  0  0  0  0  0
   58.4950   29.4820   51.6000 C   0  0  0  0  0  0  0  0  0  0  0  0
   59.0989   28.5748   51.4511 H   0  0  0  0  0  0  0  0  0  0  0  0
   58.9730   30.7200   51.1450 C   0  0  0  0  0  0  0  0  0  0  0  0
   60.3290   30.8150   50.4960 C   0  0  0  0  0  0  0  0  0  0  0  0
   60.5700   29.8543   50.0174 H   0  0  0  0  0  0  0  0  0  0  0  0
   61.0778   31.0515   51.2663 H   0  0  0  0  0  0  0  0  0  0  0  0
   60.3370   31.8730   49.4850 N   0  0  0  0  0  0  0  0  0  0  0  0
   59.3170   32.0800   48.5070 C   0  0  0  0  0  0  0  0  0  0  0  0
   58.1640   31.5800   48.5930 O   0  0  0  0  0  0  0  0  0  0  0  0
   59.8240   32.9590   47.3980 C   0  0  1  0  0  0  0  0  0  0  0  0
   61.2570   33.2040   47.7780 C   0  0  0  0  0  0  0  0  0  0  0  0
   62.3030   33.8280   47.0870 C   0  0  0  0  0  0  0  0  0  0  0  0
   62.1298   34.2864   46.1022 H   0  0  0  0  0  0  0  0  0  0  0  0
   63.5770   33.8570   47.6760 C   0  0  0  0  0  0  0  0  0  0  0  0
   64.4069   34.3597   47.1577 H   0  0  0  0  0  0  0  0  0  0  0  0
   63.8000   33.2480   48.9240 C   0  0  0  0  0  0  0  0  0  0  0  0
   64.7990   33.2904   49.3826 H   0  0  0  0  0  0  0  0  0  0  0  0
   62.7560   32.5870   49.5870 C   0  0  0  0  0  0  0  0  0  0  0  0
   62.9288   32.0970   50.5565 H   0  0  0  0  0  0  0  0  0  0  0  0
   61.4900   32.5630   48.9910 C   0  0  0  0  0  0  0  0  0  0  0  0
   59.7330   32.3470   46.0490 N   0  0  0  0  0  0  0  0  0  0  0  0
   59.0790   31.5320   46.0680 H   0  0  0  0  0  0  0  0  0  0  0  0
   59.0050   33.6090   46.3500 C   0  0  0  0  0  0  0  0  0  0  0  0
   59.5850   34.8300   45.6250 C   0  0  0  0  0  0  0  0  0  0  0  0
   59.9340   35.5646   46.3656 H   0  0  0  0  0  0  0  0  0  0  0  0
   60.4298   34.5151   44.9947 H   0  0  0  0  0  0  0  0  0  0  0  0
   58.8072   35.2859   44.9947 H   0  0  0  0  0  0  0  0  0  0  0  0
   57.4690   33.4790   46.3970 C   0  0  0  0  0  0  0  0  0  0  0  0
   57.1353   33.4508   47.4448 H   0  0  0  0  0  0  0  0  0  0  0  0
   57.0123   34.3417   45.8899 H   0  0  0  0  0  0  0  0  0  0  0  0
   57.1638   32.5518   45.8899 H   0  0  0  0  0  0  0  0  0  0  0  0
   58.1920   31.8680   51.3400 C   0  0  0  0  0  0  0  0  0  0  0  0
   58.5579   32.8433   50.9866 H   0  0  0  0  0  0  0  0  0  0  0  0
   56.9520   31.7830   51.9800 C   0  0  0  0  0  0  0  0  0  0  0  0
   56.3485   32.6914   52.1236 H   0  0  0  0  0  0  0  0  0  0  0  0
   52.5930   31.2100   50.7830 C   0  0  0  0  0  0  0  0  0  0  0  0
   53.2372   30.9365   49.9344 H   0  0  0  0  0  0  0  0  0  0  0  0
  1  2  1  0
  2  3  1  0
  3  4  1  0
  4  5  1  0
  4  6  2  0
  6  7  1  0
  6  8  1  0
  8  9  2  0
  9 10  1  0
 10 11  2  0
 10 12  1  0
 12 13  2  0
 13 14  1  0
 13 15  1  0
 15 16  1  0
 15 17  2  0
 17 18  1  0
 18 19  1  0
 18 20  1  0
 18 21  1  0
 21 22  1  0
 22 23  2  0
 22 24  1  0
 24 25  1  0
 25 26  2  0
 26 27  1  0
 26 28  1  0
 28 29  1  0
 28 30  2  0
 30 31  1  0
 30 32  1  0
 32 33  1  0
 32 34  2  0
 24 35  1  6
 35 36  1  0
 35 37  1  0
 37 38  1  0
 38 39  1  0
 38 40  1  0
 38 41  1  0
 37 42  1  0
 42 43  1  0
 42 44  1  0
 42 45  1  0
 17 46  1  0
 46 47  1  0
 46 48  2  0
 48 49  1  0
  8 50  1  0
 50 51  1  0
 50  2  2  0
 48 12  1  0
 34 21  1  0
 37 24  1  0
 34 25  1  0
M  CHG  1   3  -1
M  END
>  <UniqueID>  (26) 
24

>  <SMILES>  (26) 
CC1(C)N[C@]12C(=O)N(Cc1ccc(C(=O)/N=c3\cc[n-]cc3F)cc1)c1ccccc12

>  <Energy>  (26) 
445.4890877115991

>  <Genealogy>  (26) 
CC1(C)NC12C(=O)N(Cc1ccc(C(=O)N=c3cc[n-]cc3F)cc1)c1ccccc12 (protonated)
CC1(C)N[C@]12C(=O)N(Cc1ccc(C(=O)N=c3cc[n-]cc3F)cc1)c1ccccc12 (chirality)
CC1(C)N[C@]12C(=O)N(Cc1ccc(C(=O)/N=c3\cc[n-]cc3F)cc1)c1ccccc12 (cis-trans isomerization)
CC1(C)N[C@]12C(=O)N(Cc1ccc(C(=O)/N=c3\cc[n-]cc3F)cc1)c1ccccc12 (3D coordinates assigned)
CC1(C)N[C@]12C(=O)N(Cc1ccc(C(=O)/N=c3\cc[n-]cc3F)cc1)c1ccccc12 (nonaromatic ring conformer: 445.4890877115991 kcal/mol)

>  <smiles>  (26) 
CC1(C)NC12C(=O)N(Cc1ccc(C(=O)N=c3cc[nH]cc3F)cc1)c1ccccc12

>  <score_type>  (26) 
oracle

>  <origin>  (26) 
adg

>  <m_score__min__energy>  (26) 
-11.59

>  <m_primary>  (26) 
energy

$$$$
26:0
     RDKit          3D

 63 67  0  0  0  0  0  0  0  0999 V2000
   65.1550   32.7250   47.4980 H   0  0  0  0  0  0  0  0  0  0  0  0
   64.3440   33.0990   47.0260 O   0  0  0  0  0  0  0  0  0  0  0  0
   63.1190   33.2020   47.6790 C   0  0  0  0  0  0  0  0  0  0  0  0
   62.9980   33.3240   49.0240 N   0  0  0  0  0  0  0  0  0  0  0  0
   61.6700   33.4100   49.2060 C   0  0  0  0  0  0  0  0  0  0  0  0
   61.0490   33.5370   50.4000 N   0  0  0  0  0  0  0  0  0  0  0  0
   59.6820   33.5710   50.4320 C   0  0  0  0  0  0  0  0  0  0  0  0
   58.9700   33.6330   51.7430 C   0  0  0  0  0  0  0  0  0  0  0  0
   59.7023   33.5692   52.5613 H   0  0  0  0  0  0  0  0  0  0  0  0
   58.4195   34.5825   51.8167 H   0  0  0  0  0  0  0  0  0  0  0  0
   58.2637   32.7930   51.8167 H   0  0  0  0  0  0  0  0  0  0  0  0
   58.9620   33.4550   49.2750 N   0  0  0  0  0  0  0  0  0  0  0  0
   59.5740   33.3410   48.0550 C   0  0  0  0  0  0  0  0  0  0  0  0
   58.7540   33.1940   46.8360 C   0  0  0  0  0  0  0  0  0  0  0  0
   58.5680   34.2790   45.9650 C   0  0  0  0  0  0  0  0  0  0  0  0
   59.0152   35.2553   46.2036 H   0  0  0  0  0  0  0  0  0  0  0  0
   57.8180   34.1250   44.7970 C   0  0  0  0  0  0  0  0  0  0  0  0
   57.6857   34.9773   44.1143 H   0  0  0  0  0  0  0  0  0  0  0  0
   57.2360   32.8940   44.4930 C   0  0  0  0  0  0  0  0  0  0  0  0
   56.6330   32.7832   43.5797 H   0  0  0  0  0  0  0  0  0  0  0  0
   57.4180   31.7940   45.3510 C   0  0  0  0  0  0  0  0  0  0  0  0
   56.8950   30.4900   45.0620 N   0  0  0  0  0  0  0  0  0  0  0  0
   57.5440   29.4430   44.3230 C   0  0  0  0  0  0  0  0  0  0  0  0
   57.1020   29.1320   43.1860 O   0  0  0  0  0  0  0  0  0  0  0  0
   58.7480   28.8430   44.8070 N   0  0  0  0  0  0  0  0  0  0  0  0
   59.0290   28.5130   46.0400 C   0  0  0  0  0  0  0  0  0  0  0  0
   59.6980   29.3450   46.9100 C   0  0  0  0  0  0  0  0  0  0  0  0
   60.1106   30.3449   46.7103 H   0  0  0  0  0  0  0  0  0  0  0  0
   59.7300   28.6290   48.0950 C   0  0  0  0  0  0  0  0  0  0  0  0
   60.2470   29.1400   49.4290 C   0  0  0  0  0  0  0  0  0  0  0  0
   60.7520   27.9680   50.2920 C   0  0  0  0  0  0  0  0  0  0  0  0
   60.6423   28.2226   51.3565 H   0  0  0  0  0  0  0  0  0  0  0  0
   60.1623   27.0669   50.0679 H   0  0  0  0  0  0  0  0  0  0  0  0
   61.8120   27.7777   50.0679 H   0  0  0  0  0  0  0  0  0  0  0  0
   59.1230   29.8650   50.2020 C   0  0  0  0  0  0  0  0  0  0  0  0
   59.2923   29.7558   51.2834 H   0  0  0  0  0  0  0  0  0  0  0  0
   59.1250   30.9325   49.9365 H   0  0  0  0  0  0  0  0  0  0  0  0
   58.1513   29.4230   49.9365 H   0  0  0  0  0  0  0  0  0  0  0  0
   61.4030   30.1310   49.1730 C   0  0  0  0  0  0  0  0  0  0  0  0
   61.8081   30.4783   50.1349 H   0  0  0  0  0  0  0  0  0  0  0  0
   62.1968   29.6285   48.6008 H   0  0  0  0  0  0  0  0  0  0  0  0
   61.0277   30.9923   48.6008 H   0  0  0  0  0  0  0  0  0  0  0  0
   59.0900   27.4500   47.9400 N   0  0  0  0  0  0  0  0  0  0  0  0
   58.6620   27.3790   46.6880 N   0  0  0  0  0  0  0  0  0  0  0  0
   57.8260   26.3060   46.2480 C   0  0  0  0  0  0  0  0  0  0  0  0
   57.0370   25.6000   47.1680 C   0  0  0  0  0  0  0  0  0  0  0  0
   57.0586   25.8736   48.2332 H   0  0  0  0  0  0  0  0  0  0  0  0
   56.2230   24.5490   46.7340 C   0  0  0  0  0  0  0  0  0  0  0  0
   55.6000   24.0022   47.4570 H   0  0  0  0  0  0  0  0  0  0  0  0
   56.2000   24.1920   45.3810 C   0  0  0  0  0  0  0  0  0  0  0  0
   55.5780   23.3483   45.0474 H   0  0  0  0  0  0  0  0  0  0  0  0
   56.9660   24.9050   44.4500 C   0  0  0  0  0  0  0  0  0  0  0  0
   56.9940   24.4740   43.0160 C   0  0  0  0  0  0  0  0  0  0  0  0
   57.0652   23.3775   42.9640 H   0  0  0  0  0  0  0  0  0  0  0  0
   56.0724   24.8057   42.5154 H   0  0  0  0  0  0  0  0  0  0  0  0
   57.8649   24.9222   42.5154 H   0  0  0  0  0  0  0  0  0  0  0  0
   57.7620   25.9750   44.8850 C   0  0  0  0  0  0  0  0  0  0  0  0
   58.3400   26.5587   44.1534 H   0  0  0  0  0  0  0  0  0  0  0  0
   58.2100   31.9430   46.4980 C   0  0  0  0  0  0  0  0  0  0  0  0
   58.4077   31.0719   47.1400 H   0  0  0  0  0  0  0  0  0  0  0  0
   60.9720   33.3240   48.0320 C   0  0  0  0  0  0  0  0  0  0  0  0
   61.8940   33.1960   47.0220 C   0  0  0  0  0  0  0  0  0  0  0  0
   61.7062   33.1088   45.9417 H   0  0  0  0  0  0  0  0  0  0  0  0
  1  2  1  0
  2  3  1  0
  3  4  1  0
  4  5  1  0
  5  6  2  0
  6  7  1  0
  7  8  1  0
  8  9  1  0
  8 10  1  0
  8 11  1  0
  7 12  2  0
 12 13  1  0
 13 14  1  0
 14 15  2  0
 15 16  1  0
 15 17  1  0
 17 18  1  0
 17 19  2  0
 19 20  1  0
 19 21  1  0
 21 22  1  0
 22 23  1  0
 23 24  2  0
 23 25  1  0
 25 26  2  0
 26 27  1  0
 27 28  1  0
 27 29  2  0
 29 30  1  0
 30 31  1  0
 31 32  1  0
 31 33  1  0
 31 34  1  0
 30 35  1  0
 35 36  1  0
 35 37  1  0
 35 38  1  0
 30 39  1  0
 39 40  1  0
 39 41  1  0
 39 42  1  0
 29 43  1  0
 43 44  1  0
 44 45  1  0
 45 46  2  0
 46 47  1  0
 46 48  1  0
 48 49  1  0
 48 50  2  0
 50 51  1  0
 50 52  1  0
 52 53  1  0
 53 54  1  0
 53 55  1  0
 53 56  1  0
 52 57  2  0
 57 58  1  0
 21 59  2  0
 59 60  1  0
 13 61  2  0
 61 62  1  0
 62 63  1  0
 62  3  2  0
 61  5  1  0
 59 14  1  0
 44 26  1  0
 57 45  1  0
M  CHG  3   4  -1  22  -1  43  -1
M  END
>  <UniqueID>  (27) 
25

>  <SMILES>  (27) 
Cc1cccc(-n2[n-]c(C(C)(C)C)c/c2=N/C(=O)[N-]c2cccc(-c3nc(C)nc4[n-]c(O)cc34)c2)c1

>  <Energy>  (27) 
152.89783685173077

>  <Genealogy>  (27) 
Cc1cccc(-n2[n-]c(C(C)(C)C)cc2=NC(=O)[N-]c2cccc(-c3nc(C)nc4[n-]c(O)cc34)c2)c1 (protonated)
Cc1cccc(-n2[n-]c(C(C)(C)C)c/c2=N/C(=O)[N-]c2cccc(-c3nc(C)nc4[n-]c(O)cc34)c2)c1 (cis-trans isomerization)
Cc1cccc(-n2[n-]c(C(C)(C)C)c/c2=N/C(=O)[N-]c2cccc(-c3nc(C)nc4[n-]c(O)cc34)c2)c1 (3D coordinates assigned)
Cc1cccc(-n2[n-]c(C(C)(C)C)c/c2=N/C(=O)[N-]c2cccc(-c3nc(C)nc4[n-]c(O)cc34)c2)c1 (optimized conformer: 152.89783685173077 kcal/mol)

>  <smiles>  (27) 
Cc1cccc(-n2[nH]c(C(C)(C)C)cc2=NC(=O)Nc2cccc(-c3nc(C)nc4[nH]c(O)cc34)c2)c1

>  <score_type>  (27) 
oracle

>  <origin>  (27) 
adg

>  <m_score__min__energy>  (27) 
-13.529999999999999

>  <m_primary>  (27) 
energy

$$$$
27:0
     RDKit          3D

 64 67  0  0  0  0  0  0  0  0999 V2000
   57.3470   28.8920   43.3910 O   0  0  0  0  0  0  0  0  0  0  0  0
   57.2590   29.7030   44.3530 C   0  0  0  0  0  0  0  0  0  0  0  0
   57.5730   31.1560   44.0980 C   0  0  0  0  0  0  0  0  0  0  0  0
   57.2970   31.9730   45.2330 O   0  0  0  0  0  0  0  0  0  0  0  0
   57.9010   33.2110   45.4640 C   0  0  0  0  0  0  0  0  0  0  0  0
   58.2440   33.9480   44.5000 O   0  0  0  0  0  0  0  0  0  0  0  0
   58.1090   33.6360   46.8570 C   0  0  0  0  0  0  0  0  0  0  0  0
   58.9860   34.5890   47.1980 C   0  0  0  0  0  0  0  0  0  0  0  0
   60.4300   34.3290   47.4250 C   0  0  0  0  0  0  0  0  0  0  0  0
   60.9100   34.2970   48.7460 C   0  0  0  0  0  0  0  0  0  0  0  0
   62.2570   34.0320   49.0080 C   0  0  0  0  0  0  0  0  0  0  0  0
   63.1440   33.8060   47.9530 C   0  0  0  0  0  0  0  0  0  0  0  0
   62.6860   33.8550   46.6350 C   0  0  0  0  0  0  0  0  0  0  0  0
   61.3390   34.1180   46.3670 C   0  0  0  0  0  0  0  0  0  0  0  0
   56.8830   29.1960   45.6420 N   0  0  0  0  0  0  0  0  0  0  0  0
   57.3660   27.9880   46.2400 C   0  0  0  0  0  0  0  0  0  0  0  0
   56.6740   26.7970   45.9940 C   0  0  0  0  0  0  0  0  0  0  0  0
   57.0730   25.6010   46.6010 C   0  0  0  0  0  0  0  0  0  0  0  0
   56.1930   24.1060   46.2770 S   0  0  0  0  0  0  0  0  0  0  0  0
   56.1880   23.2520   47.5130 O   0  0  0  0  0  0  0  0  0  0  0  0
   54.7670   24.4340   45.9310 O   0  0  0  0  0  0  0  0  0  0  0  0
   56.9100   23.2120   44.9570 N   0  0  0  0  0  0  0  0  0  0  0  0
   56.6090   23.8290   43.6470 C   0  0  0  0  0  0  0  0  0  0  0  0
   55.5810   23.0140   42.8410 C   0  0  0  0  0  0  0  0  0  0  0  0
   55.9910   21.6740   42.6050 O   0  0  0  0  0  0  0  0  0  0  0  0
   56.7450   21.1070   43.6710 C   0  0  0  0  0  0  0  0  0  0  0  0
   56.5250   21.7910   45.0290 C   0  0  0  0  0  0  0  0  0  0  0  0
   58.1810   25.6000   47.4590 C   0  0  0  0  0  0  0  0  0  0  0  0
   58.9020   26.7770   47.6790 C   0  0  0  0  0  0  0  0  0  0  0  0
   58.5140   27.9770   47.0610 C   0  0  0  0  0  0  0  0  0  0  0  0
   59.3250   29.1560   47.2070 N   0  0  0  0  0  0  0  0  0  0  0  0
   60.2400   29.5520   46.1300 C   0  0  0  0  0  0  0  0  0  0  0  0
   61.3390   30.4560   46.6990 C   0  0  0  0  0  0  0  0  0  0  0  0
   60.7800   31.5400   47.4170 O   0  0  0  0  0  0  0  0  0  0  0  0
   60.0920   31.0560   48.5560 C   0  0  0  0  0  0  0  0  0  0  0  0
   58.8930   30.1960   48.1450 C   0  0  0  0  0  0  0  0  0  0  0  0
   58.6395   31.2490   43.8453 H   0  0  0  0  0  0  0  0  0  0  0  0
   56.9345   31.4997   43.2708 H   0  0  0  0  0  0  0  0  0  0  0  0
   57.5206   33.1516   47.6502 H   0  0  0  0  0  0  0  0  0  0  0  0
   58.6171   35.6185   47.3161 H   0  0  0  0  0  0  0  0  0  0  0  0
   60.2188   34.4823   49.5814 H   0  0  0  0  0  0  0  0  0  0  0  0
   62.6190   34.0014   50.0463 H   0  0  0  0  0  0  0  0  0  0  0  0
   64.2024   33.5896   48.1603 H   0  0  0  0  0  0  0  0  0  0  0  0
   63.3872   33.6861   45.8045 H   0  0  0  0  0  0  0  0  0  0  0  0
   60.9864   34.1606   45.3259 H   0  0  0  0  0  0  0  0  0  0  0  0
   55.8074   26.8009   45.3165 H   0  0  0  0  0  0  0  0  0  0  0  0
   56.2065   24.8388   43.8154 H   0  0  0  0  0  0  0  0  0  0  0  0
   57.5431   23.8611   43.0670 H   0  0  0  0  0  0  0  0  0  0  0  0
   54.6333   22.9966   43.3992 H   0  0  0  0  0  0  0  0  0  0  0  0
   55.4737   23.5009   41.8605 H   0  0  0  0  0  0  0  0  0  0  0  0
   56.4634   20.0481   43.7681 H   0  0  0  0  0  0  0  0  0  0  0  0
   57.8063   21.2431   43.4159 H   0  0  0  0  0  0  0  0  0  0  0  0
   55.4626   21.7168   45.3043 H   0  0  0  0  0  0  0  0  0  0  0  0
   57.1473   21.2906   45.7855 H   0  0  0  0  0  0  0  0  0  0  0  0
   58.4844   24.6695   47.9612 H   0  0  0  0  0  0  0  0  0  0  0  0
   59.7801   26.7633   48.3413 H   0  0  0  0  0  0  0  0  0  0  0  0
   60.6963   28.6540   45.6880 H   0  0  0  0  0  0  0  0  0  0  0  0
   59.6805   30.0981   45.3562 H   0  0  0  0  0  0  0  0  0  0  0  0
   61.9761   29.8666   47.3749 H   0  0  0  0  0  0  0  0  0  0  0  0
   61.9322   30.8564   45.8637 H   0  0  0  0  0  0  0  0  0  0  0  0
   60.7805   30.4483   49.1615 H   0  0  0  0  0  0  0  0  0  0  0  0
   59.7258   31.9152   49.1372 H   0  0  0  0  0  0  0  0  0  0  0  0
   58.4589   29.7240   49.0387 H   0  0  0  0  0  0  0  0  0  0  0  0
   58.1395   30.8329   47.6586 H   0  0  0  0  0  0  0  0  0  0  0  0
  1  2  2  0
  2  3  1  0
  3  4  1  0
  4  5  1  0
  5  6  2  0
  5  7  1  0
  7  8  2  3
  8  9  1  0
  9 10  2  0
 10 11  1  0
 11 12  2  0
 12 13  1  0
 13 14  2  0
  2 15  1  0
 15 16  1  0
 16 17  2  0
 17 18  1  0
 18 19  1  0
 19 20  2  0
 19 21  2  0
 19 22  1  0
 22 23  1  0
 23 24  1  0
 24 25  1  0
 25 26  1  0
 26 27  1  0
 18 28  2  0
 28 29  1  0
 29 30  2  0
 30 31  1  0
 31 32  1  0
 32 33  1  0
 33 34  1  0
 34 35  1  0
 35 36  1  0
 14  9  1  0
 30 16  1  0
 36 31  1  0
 27 22  1  0
  3 37  1  0
  3 38  1  0
  7 39  1  0
  8 40  1  0
 10 41  1  0
 11 42  1  0
 12 43  1  0
 13 44  1  0
 14 45  1  0
 17 46  1  0
 23 47  1  0
 23 48  1  0
 24 49  1  0
 24 50  1  0
 26 51  1  0
 26 52  1  0
 27 53  1  0
 27 54  1  0
 28 55  1  0
 29 56  1  0
 32 57  1  0
 32 58  1  0
 33 59  1  0
 33 60  1  0
 35 61  1  0
 35 62  1  0
 36 63  1  0
 36 64  1  0
M  CHG  1  15  -1
M  END
>  <UniqueID>  (28) 
26

>  <SMILES>  (28) 
O=C(COC(=O)C=Cc1ccccc1)[N-]c1cc(S(=O)(=O)N2CCOCC2)ccc1N1CCOCC1

>  <Energy>  (28) 
84.90009192013834

>  <Genealogy>  (28) 
O=C(COC(=O)C=Cc1ccccc1)[N-]c1cc(S(=O)(=O)N2CCOCC2)ccc1N1CCOCC1 (protonated)
O=C(COC(=O)C=Cc1ccccc1)[N-]c1cc(S(=O)(=O)N2CCOCC2)ccc1N1CCOCC1 (3D coordinates assigned)
O=C(COC(=O)C=Cc1ccccc1)[N-]c1cc(S(=O)(=O)N2CCOCC2)ccc1N1CCOCC1 (nonaromatic ring conformer: 84.90009192013834 kcal/mol)

>  <smiles>  (28) 
O=C(COC(=O)C=Cc1ccccc1)Nc1cc(S(=O)(=O)N2CCOCC2)ccc1N1CCOCC1

>  <score_type>  (28) 
oracle

>  <origin>  (28) 
adg

>  <m_score__min__energy>  (28) 
-11.529999999999999

>  <m_primary>  (28) 
energy

$$$$
28:0
     RDKit          3D

 62 66  0  0  0  0  0  0  0  0999 V2000
   53.3450   24.8690   45.6170 O   0  0  0  0  0  0  0  0  0  0  0  0
   54.5950   25.0420   45.5410 C   0  0  0  0  0  0  0  0  0  0  0  0
   55.1940   26.2370   46.0730 N   0  0  0  0  0  0  0  0  0  0  0  0
   56.4480   26.4030   46.3640 C   0  0  0  0  0  0  0  0  0  0  0  0
   57.0090   25.8410   47.4560 N   0  0  0  0  0  0  0  0  0  0  0  0
   58.2730   26.2920   47.4180 C   0  0  0  0  0  0  0  0  0  0  0  0
   59.2300   25.9660   48.3750 O   0  0  0  0  0  0  0  0  0  0  0  0
   58.4500   27.1060   46.3220 C   0  0  0  0  0  0  0  0  0  0  0  0
   59.6820   27.8740   45.9500 C   0  0  0  0  0  0  0  0  0  0  0  0
   59.4270   29.3490   46.0560 C   0  0  0  0  0  0  0  0  0  0  0  0
   59.8250   30.1830   47.0900 C   0  0  0  0  0  0  0  0  0  0  0  0
   59.2990   31.4200   46.9320 N   0  0  0  0  0  0  0  0  0  0  0  0
   58.5640   31.3820   45.8000 C   0  0  0  0  0  0  0  0  0  0  0  0
   57.7580   32.3950   45.2370 C   0  0  0  0  0  0  0  0  0  0  0  0
   57.6090   33.7480   45.8300 C   0  0  0  0  0  0  0  0  0  0  0  0
   56.8870   34.6220   45.2730 O   0  0  0  0  0  0  0  0  0  0  0  0
   58.2940   34.0680   47.0480 N   0  0  0  0  0  0  0  0  0  0  0  0
   59.5250   34.8420   47.1170 C   0  0  0  0  0  0  0  0  0  0  0  0
   60.3560   34.4790   48.3570 C   0  0  0  0  0  0  0  0  0  0  0  0
   61.2170   33.2970   48.1060 N   0  0  0  0  0  0  0  0  0  0  0  0
   62.3190   33.1980   49.1000 C   0  0  0  0  0  0  0  0  0  0  0  0
   63.5520   32.4780   48.5330 C   0  0  0  0  0  0  0  0  0  0  0  0
   64.1080   33.1830   47.3630 N   0  0  0  0  0  0  0  0  0  0  0  0
   63.0900   33.8780   46.5510 C   0  0  0  0  0  0  0  0  0  0  0  0
   61.6970   33.2520   46.7030 C   0  0  0  0  0  0  0  0  0  0  0  0
   57.0420   32.0610   44.0600 C   0  0  0  0  0  0  0  0  0  0  0  0
   57.1290   30.7770   43.4910 C   0  0  0  0  0  0  0  0  0  0  0  0
   57.9240   29.7900   44.0870 C   0  0  0  0  0  0  0  0  0  0  0  0
   58.6270   30.1260   45.2400 C   0  0  0  0  0  0  0  0  0  0  0  0
   57.2880   27.1860   45.6480 N   0  0  0  0  0  0  0  0  0  0  0  0
   55.4530   24.0190   44.8890 C   0  0  0  0  0  0  0  0  0  0  0  0
   56.6940   24.4010   44.3380 C   0  0  0  0  0  0  0  0  0  0  0  0
   57.5320   23.4540   43.7470 C   0  0  0  0  0  0  0  0  0  0  0  0
   57.1440   22.1180   43.6840 C   0  0  0  0  0  0  0  0  0  0  0  0
   55.9140   21.7200   44.2120 C   0  0  0  0  0  0  0  0  0  0  0  0
   55.5260   20.3860   44.1250 O   0  0  0  0  0  0  0  0  0  0  0  0
   55.0670   22.6600   44.8140 C   0  0  0  0  0  0  0  0  0  0  0  0
   53.8410   22.2340   45.3150 O   0  0  0  0  0  0  0  0  0  0  0  0
   60.0870   26.5020   48.4710 H   0  0  0  0  0  0  0  0  0  0  0  0
   60.5013   27.5974   46.6299 H   0  0  0  0  0  0  0  0  0  0  0  0
   59.9557   27.6315   44.9126 H   0  0  0  0  0  0  0  0  0  0  0  0
   60.4774   29.8812   47.9227 H   0  0  0  0  0  0  0  0  0  0  0  0
   59.4280   32.2100   47.6000 H   0  0  0  0  0  0  0  0  0  0  0  0
   60.1231   34.6414   46.2159 H   0  0  0  0  0  0  0  0  0  0  0  0
   59.2571   35.9068   47.1836 H   0  0  0  0  0  0  0  0  0  0  0  0
   60.9929   35.3352   48.6240 H   0  0  0  0  0  0  0  0  0  0  0  0
   59.6647   34.2352   49.1772 H   0  0  0  0  0  0  0  0  0  0  0  0
   62.6117   34.2132   49.4061 H   0  0  0  0  0  0  0  0  0  0  0  0
   61.9501   32.6118   49.9545 H   0  0  0  0  0  0  0  0  0  0  0  0
   64.3233   32.4231   49.3153 H   0  0  0  0  0  0  0  0  0  0  0  0
   63.2430   31.4725   48.2113 H   0  0  0  0  0  0  0  0  0  0  0  0
   64.5860   32.4710   46.7620 H   0  0  0  0  0  0  0  0  0  0  0  0
   63.0417   34.9300   46.8689 H   0  0  0  0  0  0  0  0  0  0  0  0
   63.3848   33.7907   45.4948 H   0  0  0  0  0  0  0  0  0  0  0  0
   60.9886   33.8037   46.0675 H   0  0  0  0  0  0  0  0  0  0  0  0
   61.7643   32.1964   46.4009 H   0  0  0  0  0  0  0  0  0  0  0  0
   56.4059   32.8205   43.5821 H   0  0  0  0  0  0  0  0  0  0  0  0
   56.5692   30.5471   42.5725 H   0  0  0  0  0  0  0  0  0  0  0  0
   57.9907   28.7798   43.6568 H   0  0  0  0  0  0  0  0  0  0  0  0
   57.0045   25.4556   44.3744 H   0  0  0  0  0  0  0  0  0  0  0  0
   58.5015   23.7638   43.3299 H   0  0  0  0  0  0  0  0  0  0  0  0
   57.8075   21.3750   43.2175 H   0  0  0  0  0  0  0  0  0  0  0  0
  1  2  2  0
  2  3  1  0
  3  4  2  3
  4  5  1  0
  5  6  1  0
  6  7  1  0
  6  8  2  0
  8  9  1  0
  9 10  1  0
 10 11  2  0
 11 12  1  0
 12 13  1  0
 13 14  2  0
 14 15  1  0
 15 16  2  0
 15 17  1  0
 17 18  1  0
 18 19  1  0
 19 20  1  0
 20 21  1  0
 21 22  1  0
 22 23  1  0
 23 24  1  0
 24 25  1  0
 14 26  1  0
 26 27  2  0
 27 28  1  0
 28 29  2  0
  8 30  1  0
  2 31  1  0
 31 32  2  0
 32 33  1  0
 33 34  2  0
 34 35  1  0
 35 36  1  0
 35 37  2  0
 37 38  1  0
 30  4  1  0
 37 31  1  0
 29 10  1  0
 29 13  1  0
 25 20  1  0
  7 39  1  0
  9 40  1  0
  9 41  1  0
 11 42  1  0
 12 43  1  0
 18 44  1  0
 18 45  1  0
 19 46  1  0
 19 47  1  0
 21 48  1  0
 21 49  1  0
 22 50  1  0
 22 51  1  0
 23 52  1  0
 24 53  1  0
 24 54  1  0
 25 55  1  0
 25 56  1  0
 26 57  1  0
 27 58  1  0
 28 59  1  0
 32 60  1  0
 33 61  1  0
 34 62  1  0
M  CHG  5   5  -1  17  -1  30  -1  36  -1  38  -1
M  END
>  <UniqueID>  (29) 
27

>  <SMILES>  (29) 
O=C(N=c1[n-]c(O)c(Cc2c[nH]c3c(C(=O)[N-]CCN4CCNCC4)cccc23)[n-]1)c1cccc([O-])c1[O-]

>  <Energy>  (29) 
143.28351911320902

>  <Genealogy>  (29) 
O=C(N=c1[n-]c(O)c(Cc2c[nH]c3c(C(=O)[N-]CCN4CCNCC4)cccc23)[n-]1)c1cccc([O-])c1[O-] (protonated)
O=C(N=c1[n-]c(O)c(Cc2c[nH]c3c(C(=O)[N-]CCN4CCNCC4)cccc23)[n-]1)c1cccc([O-])c1[O-] (3D coordinates assigned)
O=C(N=c1[n-]c(O)c(Cc2c[nH]c3c(C(=O)[N-]CCN4CCNCC4)cccc23)[n-]1)c1cccc([O-])c1[O-] (nonaromatic ring conformer: 143.28351911320902 kcal/mol)

>  <smiles>  (29) 
O=C(N=c1[nH]c(O)c(Cc2c[nH]c3c(C(=O)NCCN4CCNCC4)cccc23)[nH]1)c1cccc(O)c1O

>  <score_type>  (29) 
oracle

>  <origin>  (29) 
adg

>  <m_score__min__energy>  (29) 
-20.489999999999998

>  <m_primary>  (29) 
energy

$$$$
29:0
     RDKit          3D

 64 68  0  0  0  0  0  0  0  0999 V2000
   56.9800   28.2130   44.8870 C   0  0  0  0  0  0  0  0  0  0  0  0
   57.8150   27.3650   45.5080 C   0  0  0  0  0  0  0  0  0  0  0  0
   57.7540   25.9620   45.5020 C   0  0  0  0  0  0  0  0  0  0  0  0
   57.0540   25.1100   44.7260 C   0  0  0  0  0  0  0  0  0  0  0  0
   55.6840   24.6340   44.9900 C   0  0  0  0  0  0  0  0  0  0  0  0
   55.2650   23.3640   44.8260 N   0  0  0  0  0  0  0  0  0  0  0  0
   54.0090   23.3820   45.3240 C   0  0  0  0  0  0  0  0  0  0  0  0
   53.2690   22.3640   45.3330 O   0  0  0  0  0  0  0  0  0  0  0  0
   53.6140   24.5750   45.8230 N   0  0  0  0  0  0  0  0  0  0  0  0
   54.6920   25.3500   45.6170 C   0  0  0  0  0  0  0  0  0  0  0  0
   54.7770   26.6790   46.0160 O   0  0  0  0  0  0  0  0  0  0  0  0
   58.6240   25.5310   46.4900 C   0  0  0  0  0  0  0  0  0  0  0  0
   59.2380   26.6560   47.0000 C   0  0  0  0  0  0  0  0  0  0  0  0
   60.2700   26.6430   48.0860 C   0  0  0  0  0  0  0  0  0  0  0  0
   58.7510   27.7680   46.4050 N   0  0  0  0  0  0  0  0  0  0  0  0
   59.1400   29.1190   46.7070 C   0  0  0  0  0  0  0  0  0  0  0  0
   58.1670   30.1210   46.8290 C   0  0  0  0  0  0  0  0  0  0  0  0
   58.5400   31.4380   47.1140 C   0  0  0  0  0  0  0  0  0  0  0  0
   59.8930   31.7690   47.2970 C   0  0  0  0  0  0  0  0  0  0  0  0
   60.2890   33.1610   47.6130 C   0  0  0  0  0  0  0  0  0  0  0  0
   59.8380   34.1110   46.9170 O   0  0  0  0  0  0  0  0  0  0  0  0
   61.1820   33.4460   48.7000 N   0  0  0  0  0  0  0  0  0  0  0  0
   60.8500   32.9770   50.0500 C   0  0  0  0  0  0  0  0  0  0  0  0
   62.1320   32.6400   50.8040 C   0  0  0  0  0  0  0  0  0  0  0  0
   62.9930   33.9010   50.9780 C   0  0  0  0  0  0  0  0  0  0  0  0
   64.3520   33.5360   51.4340 N   0  0  0  0  0  0  0  0  0  0  0  0
   64.7600   33.8920   52.8040 C   0  0  0  0  0  0  0  0  0  0  0  0
   65.6420   32.7980   53.4020 C   0  0  0  0  0  0  0  0  0  0  0  0
   66.9120   32.6570   52.5650 C   0  0  0  0  0  0  0  0  0  0  0  0
   66.6210   32.3350   51.0840 C   0  0  0  0  0  0  0  0  0  0  0  0
   65.2740   32.8050   50.5870 C   0  0  0  0  0  0  0  0  0  0  0  0
   64.9570   32.5140   49.4040 O   0  0  0  0  0  0  0  0  0  0  0  0
   63.0150   34.8310   49.7310 C   0  0  0  0  0  0  0  0  0  0  0  0
   62.3970   34.2370   48.4460 C   0  0  0  0  0  0  0  0  0  0  0  0
   60.8670   30.7630   47.1640 C   0  0  0  0  0  0  0  0  0  0  0  0
   60.4920   29.4480   46.8720 C   0  0  0  0  0  0  0  0  0  0  0  0
   57.1366   29.2986   44.9700 H   0  0  0  0  0  0  0  0  0  0  0  0
   56.1392   27.8223   44.2951 H   0  0  0  0  0  0  0  0  0  0  0  0
   57.5483   24.7376   43.8166 H   0  0  0  0  0  0  0  0  0  0  0  0
   58.7928   24.4913   46.8070 H   0  0  0  0  0  0  0  0  0  0  0  0
   59.7709   26.6493   49.0662 H   0  0  0  0  0  0  0  0  0  0  0  0
   60.8871   25.7370   47.9946 H   0  0  0  0  0  0  0  0  0  0  0  0
   60.9097   27.5332   47.9946 H   0  0  0  0  0  0  0  0  0  0  0  0
   57.1040   29.8695   46.6997 H   0  0  0  0  0  0  0  0  0  0  0  0
   57.7699   32.2192   47.1954 H   0  0  0  0  0  0  0  0  0  0  0  0
   60.3055   33.7667   50.5883 H   0  0  0  0  0  0  0  0  0  0  0  0
   60.2203   32.0778   49.9798 H   0  0  0  0  0  0  0  0  0  0  0  0
   61.8754   32.2358   51.7944 H   0  0  0  0  0  0  0  0  0  0  0  0
   62.7005   31.8939   50.2294 H   0  0  0  0  0  0  0  0  0  0  0  0
   62.5123   34.5067   51.7604 H   0  0  0  0  0  0  0  0  0  0  0  0
   65.3222   34.8372   52.7800 H   0  0  0  0  0  0  0  0  0  0  0  0
   63.8592   34.0016   53.4258 H   0  0  0  0  0  0  0  0  0  0  0  0
   65.9106   33.0664   54.4344 H   0  0  0  0  0  0  0  0  0  0  0  0
   65.0945   31.8439   53.4031 H   0  0  0  0  0  0  0  0  0  0  0  0
   67.4726   33.6021   52.6154 H   0  0  0  0  0  0  0  0  0  0  0  0
   67.4891   31.8170   52.9788 H   0  0  0  0  0  0  0  0  0  0  0  0
   67.3984   32.8138   50.4704 H   0  0  0  0  0  0  0  0  0  0  0  0
   66.6168   31.2382   51.0003 H   0  0  0  0  0  0  0  0  0  0  0  0
   62.4598   35.7469   49.9817 H   0  0  0  0  0  0  0  0  0  0  0  0
   64.0770   35.0040   49.5026 H   0  0  0  0  0  0  0  0  0  0  0  0
   62.1407   35.0634   47.7668 H   0  0  0  0  0  0  0  0  0  0  0  0
   63.1434   33.5585   48.0072 H   0  0  0  0  0  0  0  0  0  0  0  0
   61.9308   31.0124   47.2906 H   0  0  0  0  0  0  0  0  0  0  0  0
   61.2616   28.6685   46.7714 H   0  0  0  0  0  0  0  0  0  0  0  0
  1  2  2  0
  2  3  1  0
  3  4  2  3
  4  5  1  0
  5  6  1  0
  6  7  1  0
  7  8  2  0
  7  9  1  0
  9 10  1  0
 10 11  1  0
  3 12  1  0
 12 13  2  0
 13 14  1  0
 13 15  1  0
 15 16  1  0
 16 17  2  0
 17 18  1  0
 18 19  2  0
 19 20  1  0
 20 21  2  0
 20 22  1  0
 22 23  1  0
 23 24  1  0
 24 25  1  0
 25 26  1  0
 26 27  1  0
 27 28  1  0
 28 29  1  0
 29 30  1  0
 30 31  1  0
 31 32  2  0
 25 33  1  0
 33 34  1  0
 19 35  1  0
 35 36  2  0
 15  2  1  0
 36 16  1  0
 10  5  2  0
 34 22  1  0
 31 26  1  0
  1 37  1  0
  1 38  1  0
  4 39  1  0
 12 40  1  0
 14 41  1  0
 14 42  1  0
 14 43  1  0
 17 44  1  0
 18 45  1  0
 23 46  1  0
 23 47  1  0
 24 48  1  0
 24 49  1  0
 25 50  1  0
 27 51  1  0
 27 52  1  0
 28 53  1  0
 28 54  1  0
 29 55  1  0
 29 56  1  0
 30 57  1  0
 30 58  1  0
 33 59  1  0
 33 60  1  0
 34 61  1  0
 34 62  1  0
 35 63  1  0
 36 64  1  0
M  CHG  3   6  -1   9  -1  11  -1
M  END
>  <UniqueID>  (30) 
28

>  <SMILES>  (30) 
C=c1c(=Cc2[n-]c(=O)[n-]c2[O-])cc(C)n1-c1ccc(C(=O)N2CCC(N3CCCCC3=O)CC2)cc1

>  <Energy>  (30) 
152.29513803821467

>  <Genealogy>  (30) 
C=c1c(=Cc2[n-]c(=O)[n-]c2[O-])cc(C)n1-c1ccc(C(=O)N2CCC(N3CCCCC3=O)CC2)cc1 (protonated)
C=c1c(=Cc2[n-]c(=O)[n-]c2[O-])cc(C)n1-c1ccc(C(=O)N2CCC(N3CCCCC3=O)CC2)cc1 (3D coordinates assigned)
C=c1c(=Cc2[n-]c(=O)[n-]c2[O-])cc(C)n1-c1ccc(C(=O)N2CCC(N3CCCCC3=O)CC2)cc1 (nonaromatic ring conformer: 152.29513803821467 kcal/mol)

>  <smiles>  (30) 
C=c1c(=Cc2[nH]c(=O)[nH]c2O)cc(C)n1-c1ccc(C(=O)N2CCC(N3CCCCC3=O)CC2)cc1

>  <score_type>  (30) 
oracle

>  <origin>  (30) 
adg

>  <m_score__min__energy>  (30) 
-16.899999999999999

>  <m_primary>  (30) 
energy

$$$$
30:0
     RDKit          3D

 56 59  0  0  0  0  0  0  0  0999 V2000
   59.2610   35.3280   47.4750 C   0  0  0  0  0  0  0  0  0  0  0  0
   59.2190   34.9540   46.0280 C   0  0  0  0  0  0  0  0  0  0  0  0
   59.6830   35.8260   45.2220 O   0  0  0  0  0  0  0  0  0  0  0  0
   58.6970   33.7080   45.5740 N   0  0  0  0  0  0  0  0  0  0  0  0
   58.1840   32.6840   46.4510 C   0  0  0  0  0  0  0  0  0  0  0  0
   58.2030   31.3130   45.8050 C   0  0  0  0  0  0  0  0  0  0  0  0
   57.6200   31.3550   44.4850 N   0  0  0  0  0  0  0  0  0  0  0  0
   57.2550   30.1380   43.8470 C   0  0  0  0  0  0  0  0  0  0  0  0
   56.7460   30.1410   42.7060 O   0  0  0  0  0  0  0  0  0  0  0  0
   57.4640   28.8510   44.5010 C   0  0  0  0  0  0  0  0  0  0  0  0
   58.7160   28.2820   44.3550 C   0  0  0  0  0  0  0  0  0  0  0  0
   59.0120   27.0850   44.9470 C   0  0  0  0  0  0  0  0  0  0  0  0
   58.0380   26.4710   45.6830 C   0  0  0  0  0  0  0  0  0  0  0  0
   56.7690   27.0460   45.8310 C   0  0  0  0  0  0  0  0  0  0  0  0
   55.8790   26.3100   46.6100 O   0  0  0  0  0  0  0  0  0  0  0  0
   55.3460   25.1570   46.0000 C   0  0  0  0  0  0  0  0  0  0  0  0
   54.0550   25.1710   45.6010 N   0  0  0  0  0  0  0  0  0  0  0  0
   53.5210   24.0670   45.0050 C   0  0  0  0  0  0  0  0  0  0  0  0
   52.2940   24.0320   44.6030 N   0  0  0  0  0  0  0  0  0  0  0  0
   54.3090   22.9990   44.8390 N   0  0  0  0  0  0  0  0  0  0  0  0
   55.5910   22.9950   45.2390 C   0  0  0  0  0  0  0  0  0  0  0  0
   56.3410   21.8220   44.9970 N   0  0  0  0  0  0  0  0  0  0  0  0
   56.2570   20.6080   45.7940 C   0  0  0  0  0  0  0  0  0  0  0  0
   57.7390   20.2810   46.0930 C   0  0  0  0  0  0  0  0  0  0  0  0
   58.5540   21.3850   45.9190 O   0  0  0  0  0  0  0  0  0  0  0  0
   58.6630   21.8470   44.6210 C   0  0  0  0  0  0  0  0  0  0  0  0
   57.3160   21.7440   43.8920 C   0  0  0  0  0  0  0  0  0  0  0  0
   56.1240   24.0650   45.8230 N   0  0  0  0  0  0  0  0  0  0  0  0
   56.4580   28.2490   45.2420 C   0  0  0  0  0  0  0  0  0  0  0  0
   57.4190   32.6380   43.8450 C   0  0  0  0  0  0  0  0  0  0  0  0
   58.6680   33.4680   44.1320 C   0  0  0  0  0  0  0  0  0  0  0  0
   59.1593   34.4223   48.0909 H   0  0  0  0  0  0  0  0  0  0  0  0
   60.2198   35.8182   47.6993 H   0  0  0  0  0  0  0  0  0  0  0  0
   58.4348   36.0187   47.6993 H   0  0  0  0  0  0  0  0  0  0  0  0
   58.8015   32.6552   47.3609 H   0  0  0  0  0  0  0  0  0  0  0  0
   57.1381   32.9325   46.6839 H   0  0  0  0  0  0  0  0  0  0  0  0
   59.2440   30.9662   45.7276 H   0  0  0  0  0  0  0  0  0  0  0  0
   57.6126   30.6242   46.4271 H   0  0  0  0  0  0  0  0  0  0  0  0
   59.4817   28.7974   43.7566 H   0  0  0  0  0  0  0  0  0  0  0  0
   60.0067   26.6292   44.8338 H   0  0  0  0  0  0  0  0  0  0  0  0
   58.2542   25.5077   46.1681 H   0  0  0  0  0  0  0  0  0  0  0  0
   51.8900   24.7680   43.9720 H   0  0  0  0  0  0  0  0  0  0  0  0
   55.6962   20.7841   46.7238 H   0  0  0  0  0  0  0  0  0  0  0  0
   55.7288   19.7903   45.2818 H   0  0  0  0  0  0  0  0  0  0  0  0
   57.8244   19.9359   47.1340 H   0  0  0  0  0  0  0  0  0  0  0  0
   58.0655   19.5008   45.3897 H   0  0  0  0  0  0  0  0  0  0  0  0
   58.9845   22.8988   44.6382 H   0  0  0  0  0  0  0  0  0  0  0  0
   59.4012   21.2302   44.0875 H   0  0  0  0  0  0  0  0  0  0  0  0
   57.1826   22.5769   43.1860 H   0  0  0  0  0  0  0  0  0  0  0  0
   57.2166   20.8311   43.2864 H   0  0  0  0  0  0  0  0  0  0  0  0
   57.0890   24.1200   46.1510 H   0  0  0  0  0  0  0  0  0  0  0  0
   55.4650   28.7090   45.3526 H   0  0  0  0  0  0  0  0  0  0  0  0
   57.2921   32.5056   42.7604 H   0  0  0  0  0  0  0  0  0  0  0  0
   56.5153   33.1352   44.2273 H   0  0  0  0  0  0  0  0  0  0  0  0
   59.5680   32.9165   43.8222 H   0  0  0  0  0  0  0  0  0  0  0  0
   58.6465   34.4166   43.5755 H   0  0  0  0  0  0  0  0  0  0  0  0
  1  2  1  0
  2  3  2  0
  2  4  1  0
  4  5  1  0
  5  6  1  0
  6  7  1  0
  7  8  1  0
  8  9  2  0
  8 10  1  0
 10 11  2  0
 11 12  1  0
 12 13  2  0
 13 14  1  0
 14 15  1  0
 15 16  1  0
 16 17  2  0
 17 18  1  0
 18 19  2  3
 18 20  1  0
 20 21  2  0
 21 22  1  0
 22 23  1  0
 23 24  1  0
 24 25  1  0
 25 26  1  0
 26 27  1  0
 21 28  1  0
 14 29  2  0
  7 30  1  0
 30 31  1  0
 31  4  1  0
 29 10  1  0
 28 16  1  0
 27 22  1  0
  1 32  1  0
  1 33  1  0
  1 34  1  0
  5 35  1  0
  5 36  1  0
  6 37  1  0
  6 38  1  0
 11 39  1  0
 12 40  1  0
 13 41  1  0
 19 42  1  0
 23 43  1  0
 23 44  1  0
 24 45  1  0
 24 46  1  0
 26 47  1  0
 26 48  1  0
 27 49  1  0
 27 50  1  0
 28 51  1  0
 29 52  1  0
 30 53  1  0
 30 54  1  0
 31 55  1  0
 31 56  1  0
M  END
>  <smiles>  (31) 
CC(=O)N1CCN(C(=O)c2cccc(Oc3nc(=N)nc(N4CCOCC4)[nH]3)c2)CC1

>  <score_type>  (31) 
oracle

>  <origin>  (31) 
adg

>  <m_score__min__energy>  (31) 
-8.7599999999999998

>  <m_primary>  (31) 
energy

$$$$
31:0
     RDKit          3D

 51 54  0  0  0  0  0  0  0  0999 V2000
   60.0340   26.7750   46.8670 C   0  0  0  0  0  0  0  0  0  0  0  0
   58.6700   27.2070   46.3980 C   0  0  0  0  0  0  0  0  0  0  0  0
   57.6430   26.3100   46.4750 N   0  0  0  0  0  0  0  0  0  0  0  0
   56.3830   26.6420   46.0920 C   0  0  0  0  0  0  0  0  0  0  0  0
   55.4540   25.7950   46.1680 O   0  0  0  0  0  0  0  0  0  0  0  0
   56.1210   27.8840   45.6240 N   0  0  0  0  0  0  0  0  0  0  0  0
   57.0960   28.8200   45.5220 C   0  0  0  0  0  0  0  0  0  0  0  0
   56.8040   29.9570   45.0700 O   0  0  0  0  0  0  0  0  0  0  0  0
   58.4130   28.5170   45.9160 C   0  0  0  0  0  0  0  0  0  0  0  0
   59.6730   29.7680   45.7440 S   0  0  0  0  0  0  0  0  0  0  0  0
   59.1640   30.9990   45.0510 O   0  0  0  0  0  0  0  0  0  0  0  0
   60.7880   29.2040   44.9060 O   0  0  0  0  0  0  0  0  0  0  0  0
   60.2800   30.2110   47.3140 N   0  0  0  0  0  0  0  0  0  0  0  0
   59.6840   29.6250   48.5180 C   0  0  0  0  0  0  0  0  0  0  0  0
   59.9390   30.4940   49.7110 C   0  0  0  0  0  0  0  0  0  0  0  0
   61.0690   30.4670   50.2710 O   0  0  0  0  0  0  0  0  0  0  0  0
   58.9200   31.3830   50.1770 N   0  0  0  0  0  0  0  0  0  0  0  0
   59.0550   32.8340   50.1920 C   0  0  0  0  0  0  0  0  0  0  0  0
   58.9160   33.3730   48.7960 C   0  0  0  0  0  0  0  0  0  0  0  0
   59.5730   34.5780   48.4360 C   0  0  0  0  0  0  0  0  0  0  0  0
   59.4100   35.1250   47.1510 C   0  0  0  0  0  0  0  0  0  0  0  0
   58.5880   34.4450   46.2570 C   0  0  0  0  0  0  0  0  0  0  0  0
   57.9550   33.2940   46.5950 C   0  0  0  0  0  0  0  0  0  0  0  0
   58.0880   32.7210   47.8560 C   0  0  0  0  0  0  0  0  0  0  0  0
   57.2110   32.8450   45.5210 O   0  0  0  0  0  0  0  0  0  0  0  0
   57.3900   33.7710   44.4400 C   0  0  0  0  0  0  0  0  0  0  0  0
   58.2740   34.7770   44.9520 O   0  0  0  0  0  0  0  0  0  0  0  0
   61.2920   31.2230   47.4300 C   0  0  0  0  0  0  0  0  0  0  0  0
   61.1530   32.4420   46.7480 C   0  0  0  0  0  0  0  0  0  0  0  0
   62.1450   33.4220   46.8480 C   0  0  0  0  0  0  0  0  0  0  0  0
   63.2830   33.1900   47.6260 C   0  0  0  0  0  0  0  0  0  0  0  0
   63.4310   31.9770   48.3040 C   0  0  0  0  0  0  0  0  0  0  0  0
   64.5340   31.7520   49.0580 F   0  0  0  0  0  0  0  0  0  0  0  0
   62.4400   30.9940   48.2050 C   0  0  0  0  0  0  0  0  0  0  0  0
   60.0582   26.7673   47.9667 H   0  0  0  0  0  0  0  0  0  0  0  0
   60.2490   25.7648   46.4885 H   0  0  0  0  0  0  0  0  0  0  0  0
   60.7913   27.4773   46.4885 H   0  0  0  0  0  0  0  0  0  0  0  0
   57.8160   25.3450   46.8380 H   0  0  0  0  0  0  0  0  0  0  0  0
   58.5987   29.5230   48.3708 H   0  0  0  0  0  0  0  0  0  0  0  0
   60.1392   28.6393   48.6944 H   0  0  0  0  0  0  0  0  0  0  0  0
   58.2708   33.2671   50.8304 H   0  0  0  0  0  0  0  0  0  0  0  0
   60.0456   33.1024   50.5878 H   0  0  0  0  0  0  0  0  0  0  0  0
   60.2154   35.0886   49.1685 H   0  0  0  0  0  0  0  0  0  0  0  0
   59.9149   36.0586   46.8621 H   0  0  0  0  0  0  0  0  0  0  0  0
   57.5641   31.7885   48.1129 H   0  0  0  0  0  0  0  0  0  0  0  0
   57.8395   33.2680   43.5711 H   0  0  0  0  0  0  0  0  0  0  0  0
   56.4345   34.1967   44.0996 H   0  0  0  0  0  0  0  0  0  0  0  0
   60.2602   32.6269   46.1326 H   0  0  0  0  0  0  0  0  0  0  0  0
   62.0299   34.3767   46.3139 H   0  0  0  0  0  0  0  0  0  0  0  0
   64.0622   33.9624   47.7045 H   0  0  0  0  0  0  0  0  0  0  0  0
   62.5609   30.0384   48.7363 H   0  0  0  0  0  0  0  0  0  0  0  0
  1  2  1  0
  2  3  1  0
  3  4  1  0
  4  5  2  0
  4  6  1  0
  6  7  1  0
  7  8  2  0
  7  9  1  0
  9 10  1  0
 10 11  2  0
 10 12  2  0
 10 13  1  0
 13 14  1  0
 14 15  1  0
 15 16  2  0
 15 17  1  0
 17 18  1  0
 18 19  1  0
 19 20  2  0
 20 21  1  0
 21 22  2  0
 22 23  1  0
 23 24  2  0
 23 25  1  0
 25 26  1  0
 26 27  1  0
 13 28  1  0
 28 29  2  0
 29 30  1  0
 30 31  2  0
 31 32  1  0
 32 33  1  0
 32 34  2  0
  9  2  2  0
 24 19  1  0
 34 28  1  0
 27 22  1  0
  1 35  1  0
  1 36  1  0
  1 37  1  0
  3 38  1  0
 14 39  1  0
 14 40  1  0
 18 41  1  0
 18 42  1  0
 20 43  1  0
 21 44  1  0
 24 45  1  0
 26 46  1  0
 26 47  1  0
 29 48  1  0
 30 49  1  0
 31 50  1  0
 34 51  1  0
M  CHG  2   6  -1  17  -1
M  END
>  <UniqueID>  (32) 
29

>  <SMILES>  (32) 
Cc1[nH]c(=O)[n-]c(=O)c1S(=O)(=O)N(CC(=O)[N-]Cc1ccc2c(c1)OCO2)c1cccc(F)c1

>  <Energy>  (32) 
87.41089274474747

>  <Genealogy>  (32) 
Cc1[nH]c(=O)[n-]c(=O)c1S(=O)(=O)N(CC(=O)[N-]Cc1ccc2c(c1)OCO2)c1cccc(F)c1 (protonated)
Cc1[nH]c(=O)[n-]c(=O)c1S(=O)(=O)N(CC(=O)[N-]Cc1ccc2c(c1)OCO2)c1cccc(F)c1 (3D coordinates assigned)
Cc1[nH]c(=O)[n-]c(=O)c1S(=O)(=O)N(CC(=O)[N-]Cc1ccc2c(c1)OCO2)c1cccc(F)c1 (nonaromatic ring conformer: 87.41089274474747 kcal/mol)

>  <smiles>  (32) 
Cc1[nH]c(=O)[nH]c(=O)c1S(=O)(=O)N(CC(=O)NCc1ccc2c(c1)OCO2)c1cccc(F)c1

>  <score_type>  (32) 
oracle

>  <origin>  (32) 
adg

>  <m_score__min__energy>  (32) 
-11.529999999999999

>  <m_primary>  (32) 
energy

$$$$
32:0
     RDKit          3D

 56 58  0  0  0  0  0  0  0  0999 V2000
   51.6940   21.9340   49.7290 H   0  0  0  0  0  0  0  0  0  0  0  0
   52.2150   22.5590   49.1280 O   0  0  0  0  0  0  0  0  0  0  0  0
   53.3750   22.1380   48.4810 C   0  0  0  0  0  0  0  0  0  0  0  0
   53.3210   21.0510   47.6030 C   0  0  0  0  0  0  0  0  0  0  0  0
   52.3630   20.5427   47.4187 H   0  0  0  0  0  0  0  0  0  0  0  0
   54.4790   20.6080   46.9590 C   0  0  0  0  0  0  0  0  0  0  0  0
   54.4342   19.7373   46.2882 H   0  0  0  0  0  0  0  0  0  0  0  0
   55.6990   21.2700   47.1650 C   0  0  0  0  0  0  0  0  0  0  0  0
   56.9130   20.8030   46.4670 C   0  0  0  0  0  0  0  0  0  0  0  0
   57.6049   20.1507   47.0200 H   0  0  0  0  0  0  0  0  0  0  0  0
   57.2280   21.1220   45.2020 C   0  0  0  0  0  0  0  0  0  0  0  0
   58.0397   20.5558   44.7217 H   0  0  0  0  0  0  0  0  0  0  0  0
   56.5650   22.1790   44.4040 C   0  0  0  0  0  0  0  0  0  0  0  0
   55.9000   21.8420   43.3910 O   0  0  0  0  0  0  0  0  0  0  0  0
   56.6280   23.6080   44.7790 C   0  0  0  0  0  0  0  0  0  0  0  0
   57.8590   24.2780   44.7490 C   0  0  0  0  0  0  0  0  0  0  0  0
   58.7539   23.7617   44.3715 H   0  0  0  0  0  0  0  0  0  0  0  0
   57.9550   25.5980   45.1960 C   0  0  0  0  0  0  0  0  0  0  0  0
   58.9286   26.1097   45.1813 H   0  0  0  0  0  0  0  0  0  0  0  0
   56.8230   26.2740   45.6620 C   0  0  0  0  0  0  0  0  0  0  0  0
   56.9720   27.5920   46.1170 O   0  0  0  0  0  0  0  0  0  0  0  0
   57.9050   28.5090   45.6100 C   0  0  0  0  0  0  0  0  0  0  0  0
   58.7840   28.1520   44.7770 O   0  0  0  0  0  0  0  0  0  0  0  0
   57.7630   29.9560   45.9550 C   0  0  0  0  0  0  0  0  0  0  0  0
   58.7588   30.3977   46.1074 H   0  0  0  0  0  0  0  0  0  0  0  0
   57.1749   30.0605   46.8787 H   0  0  0  0  0  0  0  0  0  0  0  0
   57.0660   30.6640   44.8290 C   0  0  0  0  0  0  0  0  0  0  0  0
   55.8950   30.3980   44.5980 O   0  0  0  0  0  0  0  0  0  0  0  0
   57.7610   31.7520   44.0550 C   0  0  0  0  0  0  0  0  0  0  0  0
   57.2347   31.8990   43.1003 H   0  0  0  0  0  0  0  0  0  0  0  0
   58.8030   31.4387   43.8939 H   0  0  0  0  0  0  0  0  0  0  0  0
   57.7820   33.0650   44.8070 C   0  0  0  0  0  0  0  0  0  0  0  0
   56.9790   33.2120   45.7670 O   0  0  0  0  0  0  0  0  0  0  0  0
   58.7940   34.1290   44.5850 C   0  0  0  0  0  0  0  0  0  0  0  0
   59.1272   34.2827   43.5480 H   0  0  0  0  0  0  0  0  0  0  0  0
   59.3450   34.9230   45.5170 C   0  0  0  0  0  0  0  0  0  0  0  0
   59.1612   36.0042   45.4318 H   0  0  0  0  0  0  0  0  0  0  0  0
   60.1760   34.4650   46.6450 C   0  0  0  0  0  0  0  0  0  0  0  0
   61.4100   33.8500   46.3930 C   0  0  0  0  0  0  0  0  0  0  0  0
   61.7607   33.7287   45.3575 H   0  0  0  0  0  0  0  0  0  0  0  0
   62.1970   33.3900   47.4540 C   0  0  0  0  0  0  0  0  0  0  0  0
   63.1764   32.9309   47.2539 H   0  0  0  0  0  0  0  0  0  0  0  0
   61.7380   33.5140   48.7700 C   0  0  0  0  0  0  0  0  0  0  0  0
   62.5130   33.0460   49.8250 O   0  0  0  0  0  0  0  0  0  0  0  0
   60.4970   34.1050   49.0250 C   0  0  0  0  0  0  0  0  0  0  0  0
   60.1383   34.2052   50.0600 H   0  0  0  0  0  0  0  0  0  0  0  0
   59.7110   34.5690   47.9650 C   0  0  0  0  0  0  0  0  0  0  0  0
   58.7265   35.0163   48.1665 H   0  0  0  0  0  0  0  0  0  0  0  0
   55.5690   25.6320   45.6240 C   0  0  0  0  0  0  0  0  0  0  0  0
   54.4140   26.3160   45.9860 O   0  0  0  0  0  0  0  0  0  0  0  0
   55.4750   24.3050   45.1900 C   0  0  0  0  0  0  0  0  0  0  0  0
   54.2260   23.6840   45.1520 O   0  0  0  0  0  0  0  0  0  0  0  0
   55.7540   22.3580   48.0580 C   0  0  0  0  0  0  0  0  0  0  0  0
   56.9260   22.9920   48.3010 F   0  0  0  0  0  0  0  0  0  0  0  0
   54.5950   22.7900   48.7090 C   0  0  0  0  0  0  0  0  0  0  0  0
   54.6402   23.6433   49.4017 H   0  0  0  0  0  0  0  0  0  0  0  0
  1  2  1  0
  2  3  1  0
  3  4  2  0
  4  5  1  0
  4  6  1  0
  6  7  1  0
  6  8  2  0
  8  9  1  0
  9 10  1  0
  9 11  2  3
 11 12  1  0
 11 13  1  0
 13 14  2  0
 13 15  1  0
 15 16  2  0
 16 17  1  0
 16 18  1  0
 18 19  1  0
 18 20  2  0
 20 21  1  0
 21 22  1  0
 22 23  2  0
 22 24  1  0
 24 25  1  0
 24 26  1  0
 24 27  1  0
 27 28  2  0
 27 29  1  0
 29 30  1  0
 29 31  1  0
 29 32  1  0
 32 33  2  0
 32 34  1  0
 34 35  1  0
 34 36  2  0
 36 37  1  0
 36 38  1  0
 38 39  2  0
 39 40  1  0
 39 41  1  0
 41 42  1  0
 41 43  2  0
 43 44  1  0
 43 45  1  0
 45 46  1  0
 45 47  2  0
 47 48  1  0
 20 49  1  0
 49 50  1  0
 49 51  2  0
 51 52  1  0
  8 53  1  0
 53 54  1  0
 53 55  2  0
 55 56  1  0
 55  3  1  0
 51 15  1  0
 47 38  1  0
M  CHG  3  44  -1  50  -1  52  -1
M  END
>  <UniqueID>  (33) 
30

>  <SMILES>  (33) 
O=C(/C=C\c1ccc([O-])cc1)CC(=O)CC(=O)Oc1ccc(C(=O)C=Cc2ccc(O)cc2F)c([O-])c1[O-]

>  <Energy>  (33) 
81.63754681602468

>  <Genealogy>  (33) 
O=C(C=Cc1ccc([O-])cc1)CC(=O)CC(=O)Oc1ccc(C(=O)C=Cc2ccc(O)cc2F)c([O-])c1[O-] (protonated)
O=C(/C=C\c1ccc([O-])cc1)CC(=O)CC(=O)Oc1ccc(C(=O)C=Cc2ccc(O)cc2F)c([O-])c1[O-] (cis-trans isomerization)
O=C(/C=C\c1ccc([O-])cc1)CC(=O)CC(=O)Oc1ccc(C(=O)C=Cc2ccc(O)cc2F)c([O-])c1[O-] (3D coordinates assigned)
O=C(/C=C\c1ccc([O-])cc1)CC(=O)CC(=O)Oc1ccc(C(=O)C=Cc2ccc(O)cc2F)c([O-])c1[O-] (optimized conformer: 81.63754681602468 kcal/mol)

>  <smiles>  (33) 
O=C(C=Cc1ccc(O)cc1)CC(=O)CC(=O)Oc1ccc(C(=O)C=Cc2ccc(O)cc2F)c(O)c1O

>  <score_type>  (33) 
oracle

>  <origin>  (33) 
adg

>  <m_score__min__energy>  (33) 
-17.370000000000001

>  <m_primary>  (33) 
energy

$$$$
33:0
     RDKit          3D

 69 73  0  0  0  0  0  0  0  0999 V2000
   57.7880   27.5440   45.1870 O   0  0  0  0  0  0  0  0  0  0  0  0
   58.6100   28.0330   46.0080 C   0  0  0  0  0  0  0  0  0  0  0  0
   59.3390   27.1440   46.8680 N   0  0  0  0  0  0  0  0  0  0  0  0
   59.7670   27.3810   48.0770 C   0  0  0  0  0  0  0  0  0  0  0  0
   59.6960   28.6570   48.6750 C   0  0  0  0  0  0  0  0  0  0  0  0
   60.1990   28.8440   49.9610 C   0  0  0  0  0  0  0  0  0  0  0  0
   60.7650   27.7710   50.6530 C   0  0  0  0  0  0  0  0  0  0  0  0
   61.4270   28.0280   52.2980 S   0  0  0  0  0  0  0  0  0  0  0  0
   60.0070   27.2780   53.1050 C   0  0  0  0  0  0  0  0  0  0  0  0
   60.1880   26.0690   53.7030 N   0  0  0  0  0  0  0  0  0  0  0  0
   59.1890   25.4300   54.3650 C   0  0  0  0  0  0  0  0  0  0  0  0
   57.9280   26.0160   54.4500 C   0  0  0  0  0  0  0  0  0  0  0  0
   57.7050   27.2560   53.8550 C   0  0  0  0  0  0  0  0  0  0  0  0
   58.7430   27.9090   53.1710 C   0  0  0  0  0  0  0  0  0  0  0  0
   58.4880   29.2370   52.5710 C   0  0  0  0  0  0  0  0  0  0  0  0
   57.3860   29.4570   51.9970 O   0  0  0  0  0  0  0  0  0  0  0  0
   59.4750   30.2810   52.6900 N   0  0  0  0  0  0  0  0  0  0  0  0
   59.2690   31.6450   52.2900 C   0  0  0  0  0  0  0  0  0  0  0  0
   58.3140   32.4620   52.9160 C   0  0  0  0  0  0  0  0  0  0  0  0
   58.1380   33.7840   52.5000 C   0  0  0  0  0  0  0  0  0  0  0  0
   58.9120   34.3040   51.4610 C   0  0  0  0  0  0  0  0  0  0  0  0
   59.8640   33.4960   50.8160 C   0  0  0  0  0  0  0  0  0  0  0  0
   60.7300   34.0650   49.7170 C   0  0  0  0  0  0  0  0  0  0  0  0
   61.8880   33.2120   49.3650 N   0  0  0  0  0  0  0  0  0  0  0  0
   63.0880   33.9230   48.8710 C   0  0  0  0  0  0  0  0  0  0  0  0
   63.2680   33.8310   47.3430 C   0  0  0  0  0  0  0  0  0  0  0  0
   62.0070   33.4770   46.6910 N   0  0  0  0  0  0  0  0  0  0  0  0
   61.5900   32.1320   47.0960 C   0  0  0  0  0  0  0  0  0  0  0  0
   61.5690   31.9680   48.6340 C   0  0  0  0  0  0  0  0  0  0  0  0
   60.0150   32.1600   51.2200 C   0  0  0  0  0  0  0  0  0  0  0  0
   60.7710   26.5060   50.0600 C   0  0  0  0  0  0  0  0  0  0  0  0
   60.2860   26.3450   48.7980 N   0  0  0  0  0  0  0  0  0  0  0  0
   58.9030   29.4350   45.9830 N   0  0  0  0  0  0  0  0  0  0  0  0
   57.8910   30.4280   45.7580 C   0  0  0  0  0  0  0  0  0  0  0  0
   56.7080   30.0810   45.4940 O   0  0  0  0  0  0  0  0  0  0  0  0
   58.2000   31.8620   45.9260 C   0  0  0  0  0  0  0  0  0  0  0  0
   58.1880   32.4200   47.2150 C   0  0  0  0  0  0  0  0  0  0  0  0
   58.5000   33.7680   47.4080 C   0  0  0  0  0  0  0  0  0  0  0  0
   58.7960   34.5770   46.3070 C   0  0  0  0  0  0  0  0  0  0  0  0
   58.7950   34.0390   45.0180 C   0  0  0  0  0  0  0  0  0  0  0  0
   58.5030   32.6840   44.8220 C   0  0  0  0  0  0  0  0  0  0  0  0
   58.4730   32.1910   43.5600 F   0  0  0  0  0  0  0  0  0  0  0  0
   59.2461   29.4994   48.1291 H   0  0  0  0  0  0  0  0  0  0  0  0
   60.1503   29.8372   50.4313 H   0  0  0  0  0  0  0  0  0  0  0  0
   59.3751   24.4521   54.8330 H   0  0  0  0  0  0  0  0  0  0  0  0
   57.1139   25.5032   54.9832 H   0  0  0  0  0  0  0  0  0  0  0  0
   56.7122   27.7251   53.9213 H   0  0  0  0  0  0  0  0  0  0  0  0
   60.3540   30.0710   53.2200 H   0  0  0  0  0  0  0  0  0  0  0  0
   57.7022   32.0597   53.7369 H   0  0  0  0  0  0  0  0  0  0  0  0
   57.3864   34.4179   52.9932 H   0  0  0  0  0  0  0  0  0  0  0  0
   58.7763   35.3492   51.1462 H   0  0  0  0  0  0  0  0  0  0  0  0
   60.1090   34.1944   48.8183 H   0  0  0  0  0  0  0  0  0  0  0  0
   61.1356   35.0170   50.0899 H   0  0  0  0  0  0  0  0  0  0  0  0
   63.0038   34.9840   49.1490 H   0  0  0  0  0  0  0  0  0  0  0  0
   63.9634   33.4410   49.3308 H   0  0  0  0  0  0  0  0  0  0  0  0
   63.6105   34.8041   46.9611 H   0  0  0  0  0  0  0  0  0  0  0  0
   64.0102   33.0498   47.1221 H   0  0  0  0  0  0  0  0  0  0  0  0
   62.1600   33.4700   45.6570 H   0  0  0  0  0  0  0  0  0  0  0  0
   60.5797   31.9411   46.7051 H   0  0  0  0  0  0  0  0  0  0  0  0
   62.3176   31.4146   46.6886 H   0  0  0  0  0  0  0  0  0  0  0  0
   60.5645   31.6355   48.9348 H   0  0  0  0  0  0  0  0  0  0  0  0
   62.3466   31.2337   48.8912 H   0  0  0  0  0  0  0  0  0  0  0  0
   60.7269   31.5094   50.6910 H   0  0  0  0  0  0  0  0  0  0  0  0
   61.1671   25.6410   50.6121 H   0  0  0  0  0  0  0  0  0  0  0  0
   59.8420   29.7490   46.3160 H   0  0  0  0  0  0  0  0  0  0  0  0
   57.9308   31.7904   48.0796 H   0  0  0  0  0  0  0  0  0  0  0  0
   58.5127   34.1915   48.4231 H   0  0  0  0  0  0  0  0  0  0  0  0
   59.0306   35.6413   46.4564 H   0  0  0  0  0  0  0  0  0  0  0  0
   59.0242   34.6814   44.1550 H   0  0  0  0  0  0  0  0  0  0  0  0
  1  2  2  0
  2  3  1  0
  3  4  2  3
  4  5  1  0
  5  6  2  0
  6  7  1  0
  7  8  1  0
  8  9  1  0
  9 10  2  0
 10 11  1  0
 11 12  2  0
 12 13  1  0
 13 14  2  0
 14 15  1  0
 15 16  2  0
 15 17  1  0
 17 18  1  0
 18 19  2  0
 19 20  1  0
 20 21  2  0
 21 22  1  0
 22 23  1  0
 23 24  1  0
 24 25  1  0
 25 26  1  0
 26 27  1  0
 27 28  1  0
 28 29  1  0
 22 30  2  0
  7 31  2  0
 31 32  1  0
  2 33  1  0
 33 34  1  0
 34 35  2  0
 34 36  1  0
 36 37  2  0
 37 38  1  0
 38 39  2  0
 39 40  1  0
 40 41  2  0
 41 42  1  0
 32  4  1  0
 41 36  1  0
 14  9  1  0
 30 18  1  0
 29 24  1  0
  5 43  1  0
  6 44  1  0
 11 45  1  0
 12 46  1  0
 13 47  1  0
 17 48  1  0
 19 49  1  0
 20 50  1  0
 21 51  1  0
 23 52  1  0
 23 53  1  0
 25 54  1  0
 25 55  1  0
 26 56  1  0
 26 57  1  0
 27 58  1  0
 28 59  1  0
 28 60  1  0
 29 61  1  0
 29 62  1  0
 30 63  1  0
 31 64  1  0
 33 65  1  0
 37 66  1  0
 38 67  1  0
 39 68  1  0
 40 69  1  0
M  CHG  1  32  -1
M  END
>  <UniqueID>  (34) 
31

>  <SMILES>  (34) 
O=C(N=c1ccc(Sc2ncccc2C(=O)Nc2cccc(CN3CCNCC3)c2)c[n-]1)NC(=O)c1ccccc1F

>  <Energy>  (34) 
102.21973825996037

>  <Genealogy>  (34) 
O=C(N=c1ccc(Sc2ncccc2C(=O)Nc2cccc(CN3CCNCC3)c2)c[n-]1)NC(=O)c1ccccc1F (protonated)
O=C(N=c1ccc(Sc2ncccc2C(=O)Nc2cccc(CN3CCNCC3)c2)c[n-]1)NC(=O)c1ccccc1F (3D coordinates assigned)
O=C(N=c1ccc(Sc2ncccc2C(=O)Nc2cccc(CN3CCNCC3)c2)c[n-]1)NC(=O)c1ccccc1F (nonaromatic ring conformer: 102.21973825996037 kcal/mol)

>  <smiles>  (34) 
O=C(N=c1ccc(Sc2ncccc2C(=O)Nc2cccc(CN3CCNCC3)c2)c[nH]1)NC(=O)c1ccccc1F

>  <score_type>  (34) 
oracle

>  <origin>  (34) 
adg

>  <m_score__min__energy>  (34) 
-11.4

>  <m_primary>  (34) 
energy

$$$$
34:0
     RDKit          3D

 34 36  0  0  0  0  0  0  0  0999 V2000
   57.7010   29.5760   43.8270 C   0  0  0  0  0  0  0  0  0  0  0  0
   58.0170   29.3450   45.1110 C   0  0  0  0  0  0  0  0  0  0  0  0
   58.0730   28.0990   45.7430 C   0  0  0  0  0  0  0  0  0  0  0  0
   57.8440   26.8910   45.1930 C   0  0  0  0  0  0  0  0  0  0  0  0
   57.3300   25.7310   45.9570 C   0  0  0  0  0  0  0  0  0  0  0  0
   55.9860   25.6920   46.3530 C   0  0  0  0  0  0  0  0  0  0  0  0
   55.1150   26.7180   46.0050 O   0  0  0  0  0  0  0  0  0  0  0  0
   55.5200   24.6390   47.0730 N   0  0  0  0  0  0  0  0  0  0  0  0
   56.3400   23.6200   47.4350 C   0  0  0  0  0  0  0  0  0  0  0  0
   55.7510   22.3670   48.2990 S   0  0  0  0  0  0  0  0  0  0  0  0
   57.6520   23.6470   47.0880 N   0  0  0  0  0  0  0  0  0  0  0  0
   58.1670   24.6770   46.3700 C   0  0  0  0  0  0  0  0  0  0  0  0
   59.3980   24.6850   46.0970 O   0  0  0  0  0  0  0  0  0  0  0  0
   58.4620   28.3440   47.0540 C   0  0  0  0  0  0  0  0  0  0  0  0
   58.6080   29.7110   47.1740 C   0  0  0  0  0  0  0  0  0  0  0  0
   59.0410   30.4150   48.4250 C   0  0  0  0  0  0  0  0  0  0  0  0
   58.3510   30.3180   45.9950 N   0  0  0  0  0  0  0  0  0  0  0  0
   58.4040   31.7330   45.7480 C   0  0  0  0  0  0  0  0  0  0  0  0
   59.5550   32.4630   46.0690 C   0  0  0  0  0  0  0  0  0  0  0  0
   59.6040   33.8340   45.8160 C   0  0  0  0  0  0  0  0  0  0  0  0
   58.4980   34.4630   45.2430 C   0  0  0  0  0  0  0  0  0  0  0  0
   57.3850   33.7430   44.9400 N   0  0  0  0  0  0  0  0  0  0  0  0
   57.3100   32.4050   45.1780 C   0  0  0  0  0  0  0  0  0  0  0  0
   56.1450   31.7170   44.8640 O   0  0  0  0  0  0  0  0  0  0  0  0
   57.6901   30.6056   43.4399 H   0  0  0  0  0  0  0  0  0  0  0  0
   57.4529   28.7357   43.1619 H   0  0  0  0  0  0  0  0  0  0  0  0
   58.0495   26.7591   44.1204 H   0  0  0  0  0  0  0  0  0  0  0  0
   58.6224   27.5943   47.8428 H   0  0  0  0  0  0  0  0  0  0  0  0
   58.6936   29.8501   49.3026 H   0  0  0  0  0  0  0  0  0  0  0  0
   60.1386   30.4852   48.4451 H   0  0  0  0  0  0  0  0  0  0  0  0
   58.6085   31.4262   48.4451 H   0  0  0  0  0  0  0  0  0  0  0  0
   60.4203   31.9556   46.5205 H   0  0  0  0  0  0  0  0  0  0  0  0
   60.5052   34.4133   46.0656 H   0  0  0  0  0  0  0  0  0  0  0  0
   58.5266   35.5430   45.0361 H   0  0  0  0  0  0  0  0  0  0  0  0
  1  2  2  0
  2  3  1  0
  3  4  2  3
  4  5  1  0
  5  6  2  0
  6  7  1  0
  6  8  1  0
  8  9  1  0
  9 10  2  0
  9 11  1  0
 11 12  1  0
 12 13  2  0
  3 14  1  0
 14 15  2  0
 15 16  1  0
 15 17  1  0
 17 18  1  0
 18 19  2  0
 19 20  1  0
 20 21  2  0
 21 22  1  0
 22 23  2  0
 23 24  1  0
 17  2  1  0
 23 18  1  0
 12  5  1  0
  1 25  1  0
  1 26  1  0
  4 27  1  0
 14 28  1  0
 16 29  1  0
 16 30  1  0
 16 31  1  0
 19 32  1  0
 20 33  1  0
 21 34  1  0
M  CHG  4   7  -1   8  -1  11  -1  24  -1
M  END
>  <UniqueID>  (35) 
32

>  <SMILES>  (35) 
C=c1c(=Cc2c([O-])[n-]c(=S)[n-]c2=O)cc(C)n1-c1cccnc1[O-]

>  <Energy>  (35) 
82.9465892544172

>  <Genealogy>  (35) 
C=c1c(=Cc2c([O-])[n-]c(=S)[n-]c2=O)cc(C)n1-c1cccnc1[O-] (protonated)
C=c1c(=Cc2c([O-])[n-]c(=S)[n-]c2=O)cc(C)n1-c1cccnc1[O-] (3D coordinates assigned)
C=c1c(=Cc2c([O-])[n-]c(=S)[n-]c2=O)cc(C)n1-c1cccnc1[O-] (optimized conformer: 82.9465892544172 kcal/mol)

>  <smiles>  (35) 
C=c1c(=Cc2c(O)[nH]c(=S)[nH]c2=O)cc(C)n1-c1cccnc1O

>  <score_type>  (35) 
oracle

>  <origin>  (35) 
adg

>  <m_score__min__energy>  (35) 
-16.289999999999999

>  <m_primary>  (35) 
energy

$$$$
35:0
     RDKit          3D

 37 38  0  0  0  0  0  0  0  0999 V2000
   57.8840   28.2950   43.6730 N   0  0  0  0  0  0  0  0  0  0  0  0
   57.5790   29.6430   44.1590 C   0  0  2  0  0  0  0  0  0  0  0  0
   58.5450   30.0390   45.2900 C   0  0  0  0  0  0  0  0  0  0  0  0
   58.5000   31.5250   45.5560 C   0  0  0  0  0  0  0  0  0  0  0  0
   58.4450   32.4200   44.4760 C   0  0  0  0  0  0  0  0  0  0  0  0
   58.3620   33.7960   44.7000 C   0  0  0  0  0  0  0  0  0  0  0  0
   58.3280   34.2890   46.0040 C   0  0  0  0  0  0  0  0  0  0  0  0
   58.3720   33.4120   47.0880 C   0  0  0  0  0  0  0  0  0  0  0  0
   58.4510   32.0200   46.8780 C   0  0  0  0  0  0  0  0  0  0  0  0
   58.4870   31.1050   47.9460 O   0  0  0  0  0  0  0  0  0  0  0  0
   59.6270   30.3510   48.3560 C   0  0  0  0  0  0  0  0  0  0  0  0
   60.8800   31.1740   48.2260 C   0  0  0  0  0  0  0  0  0  0  0  0
   61.0850   32.2760   49.0730 C   0  0  0  0  0  0  0  0  0  0  0  0
   62.2430   33.0500   48.9560 C   0  0  0  0  0  0  0  0  0  0  0  0
   63.2110   32.7280   48.0000 C   0  0  0  0  0  0  0  0  0  0  0  0
   64.3600   33.5090   47.8930 O   0  0  0  0  0  0  0  0  0  0  0  0
   63.0170   31.6230   47.1590 C   0  0  0  0  0  0  0  0  0  0  0  0
   61.8590   30.8470   47.2740 C   0  0  0  0  0  0  0  0  0  0  0  0
   56.1530   29.7260   44.6350 C   0  0  0  0  0  0  0  0  0  0  0  0
   55.5260   30.8160   44.5630 O   0  0  0  0  0  0  0  0  0  0  0  0
   55.5200   28.6040   45.1580 O   0  0  0  0  0  0  0  0  0  0  0  0
   57.0400   27.6850   43.7750 H   0  0  0  0  0  0  0  0  0  0  0  0
   58.1090   28.3500   42.6520 H   0  0  0  0  0  0  0  0  0  0  0  0
   57.7082   30.3480   43.3246 H   0  0  0  0  0  0  0  0  0  0  0  0
   58.2617   29.5022   46.2074 H   0  0  0  0  0  0  0  0  0  0  0  0
   59.5670   29.7725   44.9825 H   0  0  0  0  0  0  0  0  0  0  0  0
   58.4674   32.0348   43.4459 H   0  0  0  0  0  0  0  0  0  0  0  0
   58.3235   34.4907   43.8480 H   0  0  0  0  0  0  0  0  0  0  0  0
   58.2663   35.3733   46.1785 H   0  0  0  0  0  0  0  0  0  0  0  0
   58.3449   33.8091   48.1135 H   0  0  0  0  0  0  0  0  0  0  0  0
   59.5012   30.0471   49.4057 H   0  0  0  0  0  0  0  0  0  0  0  0
   59.7164   29.4640   47.7116 H   0  0  0  0  0  0  0  0  0  0  0  0
   60.3306   32.5309   49.8319 H   0  0  0  0  0  0  0  0  0  0  0  0
   62.3932   33.9153   49.6183 H   0  0  0  0  0  0  0  0  0  0  0  0
   65.2100   33.1460   47.4790 H   0  0  0  0  0  0  0  0  0  0  0  0
   63.7774   31.3657   46.4069 H   0  0  0  0  0  0  0  0  0  0  0  0
   61.7147   29.9773   46.6162 H   0  0  0  0  0  0  0  0  0  0  0  0
  1  2  1  0
  2  3  1  0
  3  4  1  0
  4  5  2  0
  5  6  1  0
  6  7  2  0
  7  8  1  0
  8  9  2  0
  9 10  1  0
 10 11  1  0
 11 12  1  0
 12 13  2  0
 13 14  1  0
 14 15  2  0
 15 16  1  0
 15 17  1  0
 17 18  2  0
  2 19  1  0
 19 20  2  0
 19 21  1  0
  9  4  1  0
 18 12  1  0
  1 22  1  0
  1 23  1  0
  2 24  1  6
  3 25  1  0
  3 26  1  0
  5 27  1  0
  6 28  1  0
  7 29  1  0
  8 30  1  0
 11 31  1  0
 11 32  1  0
 13 33  1  0
 14 34  1  0
 16 35  1  0
 17 36  1  0
 18 37  1  0
M  CHG  1  21  -1
M  END
>  <UniqueID>  (36) 
33

>  <SMILES>  (36) 
N[C@H](Cc1ccccc1OCc1ccc(O)cc1)C(=O)[O-]

>  <Energy>  (36) 
33.585541794226366

>  <Genealogy>  (36) 
NC(Cc1ccccc1OCc1ccc(O)cc1)C(=O)[O-] (protonated)
N[C@H](Cc1ccccc1OCc1ccc(O)cc1)C(=O)[O-] (chirality)
N[C@H](Cc1ccccc1OCc1ccc(O)cc1)C(=O)[O-] (3D coordinates assigned)
N[C@H](Cc1ccccc1OCc1ccc(O)cc1)C(=O)[O-] (optimized conformer: 33.585541794226366 kcal/mol)

>  <smiles>  (36) 
NC(Cc1ccccc1OCc1ccc(O)cc1)C(=O)O

>  <score_type>  (36) 
oracle

>  <origin>  (36) 
adg

>  <m_score__min__energy>  (36) 
-9.7899999999999991

>  <m_primary>  (36) 
energy

$$$$
36:0
     RDKit          3D

 40 42  0  0  0  0  0  0  0  0999 V2000
   53.6716   28.9452   51.5780 H   0  0  0  0  0  0  0  0  0  0  0  0
   53.9860   29.9900   51.7180 C   0  0  0  0  0  0  0  0  0  0  0  0
   55.2240   30.2240   52.4870 C   0  0  0  0  0  0  0  0  0  0  0  0
   55.1350   30.3640   53.7350 O   0  0  0  0  0  0  0  0  0  0  0  0
   56.4970   30.2990   51.8190 N   0  0  0  0  0  0  0  0  0  0  0  0
   57.3160   31.3050   51.6680 C   0  0  0  0  0  0  0  0  0  0  0  0
   57.4680   32.3360   52.6180 C   0  0  0  0  0  0  0  0  0  0  0  0
   56.8764   32.3270   53.5453 H   0  0  0  0  0  0  0  0  0  0  0  0
   58.3760   33.3690   52.3720 C   0  0  0  0  0  0  0  0  0  0  0  0
   58.4956   34.1797   53.1058 H   0  0  0  0  0  0  0  0  0  0  0  0
   59.1110   33.3760   51.2310 N   0  0  0  0  0  0  0  0  0  0  0  0
   58.9920   32.3940   50.2960 C   0  0  0  0  0  0  0  0  0  0  0  0
   59.7710   32.4090   49.1330 O   0  0  0  0  0  0  0  0  0  0  0  0
   59.4500   33.1350   47.9770 C   0  0  0  0  0  0  0  0  0  0  0  0
   58.1450   33.0460   47.4770 C   0  0  0  0  0  0  0  0  0  0  0  0
   57.4022   32.4233   47.9971 H   0  0  0  0  0  0  0  0  0  0  0  0
   57.7800   33.7420   46.3230 C   0  0  0  0  0  0  0  0  0  0  0  0
   56.7551   33.6588   45.9322 H   0  0  0  0  0  0  0  0  0  0  0  0
   58.7140   34.5430   45.6650 C   0  0  0  0  0  0  0  0  0  0  0  0
   58.3570   35.2160   44.5440 F   0  0  0  0  0  0  0  0  0  0  0  0
   60.0120   34.6630   46.1690 C   0  0  0  0  0  0  0  0  0  0  0  0
   60.7431   35.3005   45.6503 H   0  0  0  0  0  0  0  0  0  0  0  0
   60.3900   33.9720   47.3380 C   0  0  0  0  0  0  0  0  0  0  0  0
   61.6680   34.1180   47.9020 O   0  0  0  0  0  0  0  0  0  0  0  0
   62.7730   33.2600   47.6350 C   0  0  0  0  0  0  0  0  0  0  0  0
   63.2110   32.9199   48.5850 H   0  0  0  0  0  0  0  0  0  0  0  0
   62.4299   32.3893   47.0569 H   0  0  0  0  0  0  0  0  0  0  0  0
   63.5315   33.8081   47.0569 H   0  0  0  0  0  0  0  0  0  0  0  0
   58.1040   31.3370   50.5110 C   0  0  0  0  0  0  0  0  0  0  0  0
   58.0237   30.5282   49.7698 H   0  0  0  0  0  0  0  0  0  0  0  0
   53.2110   30.9410   51.1750 C   0  0  0  0  0  0  0  0  0  0  0  0
   53.5054   31.3314   50.1896 H   0  0  0  0  0  0  0  0  0  0  0  0
   51.9970   31.5050   51.7920 C   0  0  0  0  0  0  0  0  0  0  0  0
   51.0390   32.3210   51.2170 C   0  0  0  0  0  0  0  0  0  0  0  0
   51.0190   32.7160   49.8850 O   0  0  0  0  0  0  0  0  0  0  0  0
   50.1240   32.7310   52.1190 N   0  0  0  0  0  0  0  0  0  0  0  0
   50.5090   32.1900   53.2940 C   0  0  0  0  0  0  0  0  0  0  0  0
   49.9793   32.3183   54.2495 H   0  0  0  0  0  0  0  0  0  0  0  0
   51.6610   31.4540   53.1240 C   0  0  0  0  0  0  0  0  0  0  0  0
   52.3560   30.7830   54.1220 O   0  0  0  0  0  0  0  0  0  0  0  0
  1  2  1  0
  2  3  1  0
  3  4  2  0
  3  5  1  0
  5  6  2  3
  6  7  1  0
  7  8  1  0
  7  9  2  0
  9 10  1  0
  9 11  1  0
 11 12  1  0
 12 13  1  0
 13 14  1  0
 14 15  2  0
 15 16  1  0
 15 17  1  0
 17 18  1  0
 17 19  2  0
 19 20  1  0
 19 21  1  0
 21 22  1  0
 21 23  2  0
 23 24  1  0
 24 25  1  0
 25 26  1  0
 25 27  1  0
 25 28  1  0
 12 29  2  0
 29 30  1  0
  2 31  2  0
 31 32  1  0
 31 33  1  0
 33 34  2  0
 34 35  1  0
 34 36  1  0
 36 37  1  0
 37 38  1  0
 37 39  2  0
 39 40  1  0
 29  6  1  0
 39 33  1  0
 23 14  1  0
M  CHG  4  11  -1  35  -1  36  -1  40  -1
M  END
>  <UniqueID>  (37) 
34

>  <SMILES>  (37) 
COc1cc(F)ccc1Oc1cc(=NC(=O)/C=C\c2c([O-])c[n-]c2[O-])cc[n-]1

>  <Energy>  (37) 
91.09241166401927

>  <Genealogy>  (37) 
COc1cc(F)ccc1Oc1cc(=NC(=O)C=Cc2c([O-])c[n-]c2[O-])cc[n-]1 (protonated)
COc1cc(F)ccc1Oc1cc(=NC(=O)/C=C\c2c([O-])c[n-]c2[O-])cc[n-]1 (cis-trans isomerization)
COc1cc(F)ccc1Oc1cc(=NC(=O)/C=C\c2c([O-])c[n-]c2[O-])cc[n-]1 (3D coordinates assigned)
COc1cc(F)ccc1Oc1cc(=NC(=O)/C=C\c2c([O-])c[n-]c2[O-])cc[n-]1 (optimized conformer: 91.09241166401927 kcal/mol)

>  <smiles>  (37) 
COc1cc(F)ccc1Oc1cc(=NC(=O)C=Cc2c(O)c[nH]c2O)cc[nH]1

>  <score_type>  (37) 
oracle

>  <origin>  (37) 
adg

>  <m_score__min__energy>  (37) 
-17.219999999999999

>  <m_primary>  (37) 
energy

$$$$
37:0
     RDKit          3D

 48 50  0  0  0  0  0  0  0  0999 V2000
   55.6550   26.4680   46.3240 N   0  0  0  0  0  0  0  0  0  0  0  0
   57.0130   26.8360   46.5500 C   0  0  0  0  0  0  0  0  0  0  0  0
   57.8360   25.9590   46.9280 O   0  0  0  0  0  0  0  0  0  0  0  0
   57.4770   28.2140   46.2780 C   0  0  0  0  0  0  0  0  0  0  0  0
   58.6850   28.6420   46.8560 C   0  0  0  0  0  0  0  0  0  0  0  0
   59.2250   29.9010   46.5620 C   0  0  0  0  0  0  0  0  0  0  0  0
   60.5160   30.3230   47.1480 C   0  0  0  0  0  0  0  0  0  0  0  0
   61.5650   30.1990   46.4580 O   0  0  0  0  0  0  0  0  0  0  0  0
   60.6000   30.8730   48.4830 N   0  0  0  0  0  0  0  0  0  0  0  0
   59.3510   31.3050   49.1360 C   0  0  0  0  0  0  0  0  0  0  0  0
   59.2420   32.8330   49.2050 C   0  0  0  0  0  0  0  0  0  0  0  0
   59.0460   33.4530   47.8450 C   0  0  0  0  0  0  0  0  0  0  0  0
   60.0980   34.1470   47.2260 C   0  0  0  0  0  0  0  0  0  0  0  0
   59.9180   34.7190   45.9620 C   0  0  0  0  0  0  0  0  0  0  0  0
   58.6890   34.5990   45.3090 C   0  0  0  0  0  0  0  0  0  0  0  0
   57.6350   33.9190   45.9230 C   0  0  0  0  0  0  0  0  0  0  0  0
   57.8070   33.3560   47.1900 C   0  0  0  0  0  0  0  0  0  0  0  0
   61.7720   30.5320   49.3140 C   0  0  0  0  0  0  0  0  0  0  0  0
   62.8670   31.5700   49.2250 C   0  0  0  0  0  0  0  0  0  0  0  0
   62.9600   32.4170   48.1100 C   0  0  0  0  0  0  0  0  0  0  0  0
   63.9900   33.3570   48.0380 C   0  0  0  0  0  0  0  0  0  0  0  0
   64.9080   33.4420   49.0380 N   0  0  0  0  0  0  0  0  0  0  0  0
   64.8550   32.6250   50.1220 C   0  0  0  0  0  0  0  0  0  0  0  0
   63.8410   31.6700   50.2320 C   0  0  0  0  0  0  0  0  0  0  0  0
   58.5540   30.7360   45.6570 C   0  0  0  0  0  0  0  0  0  0  0  0
   57.3390   30.3380   45.0980 C   0  0  0  0  0  0  0  0  0  0  0  0
   56.7790   29.0960   45.4180 C   0  0  0  0  0  0  0  0  0  0  0  0
   55.5230   28.7920   44.8900 O   0  0  0  0  0  0  0  0  0  0  0  0
   54.9020   27.1920   46.2870 H   0  0  0  0  0  0  0  0  0  0  0  0
   59.2161   27.9760   47.5520 H   0  0  0  0  0  0  0  0  0  0  0  0
   58.4967   30.9128   48.5647 H   0  0  0  0  0  0  0  0  0  0  0  0
   59.3515   30.9160   50.1649 H   0  0  0  0  0  0  0  0  0  0  0  0
   58.3853   33.0984   49.8419 H   0  0  0  0  0  0  0  0  0  0  0  0
   60.1847   33.2199   49.6193 H   0  0  0  0  0  0  0  0  0  0  0  0
   61.0676   34.2413   47.7369 H   0  0  0  0  0  0  0  0  0  0  0  0
   60.7446   35.2635   45.4822 H   0  0  0  0  0  0  0  0  0  0  0  0
   58.5513   35.0403   44.3108 H   0  0  0  0  0  0  0  0  0  0  0  0
   56.6674   33.8265   45.4080 H   0  0  0  0  0  0  0  0  0  0  0  0
   56.9693   32.8349   47.6765 H   0  0  0  0  0  0  0  0  0  0  0  0
   61.4490   30.4491   50.3622 H   0  0  0  0  0  0  0  0  0  0  0  0
   62.1813   29.5818   48.9403 H   0  0  0  0  0  0  0  0  0  0  0  0
   62.2243   32.3407   47.2958 H   0  0  0  0  0  0  0  0  0  0  0  0
   64.0591   34.0301   47.1708 H   0  0  0  0  0  0  0  0  0  0  0  0
   65.6120   32.7155   50.9149 H   0  0  0  0  0  0  0  0  0  0  0  0
   63.8057   30.9995   51.1033 H   0  0  0  0  0  0  0  0  0  0  0  0
   58.9878   31.7099   45.3863 H   0  0  0  0  0  0  0  0  0  0  0  0
   56.8161   31.0072   44.3988 H   0  0  0  0  0  0  0  0  0  0  0  0
   55.1380   27.8580   44.8780 H   0  0  0  0  0  0  0  0  0  0  0  0
  1  2  1  0
  2  3  2  0
  2  4  1  0
  4  5  2  0
  5  6  1  0
  6  7  1  0
  7  8  2  0
  7  9  1  0
  9 10  1  0
 10 11  1  0
 11 12  1  0
 12 13  2  0
 13 14  1  0
 14 15  2  0
 15 16  1  0
 16 17  2  0
  9 18  1  0
 18 19  1  0
 19 20  2  0
 20 21  1  0
 21 22  2  0
 22 23  1  0
 23 24  2  0
  6 25  2  0
 25 26  1  0
 26 27  2  0
 27 28  1  0
 27  4  1  0
 17 12  1  0
 24 19  1  0
  1 29  1  0
  5 30  1  0
 10 31  1  0
 10 32  1  0
 11 33  1  0
 11 34  1  0
 13 35  1  0
 14 36  1  0
 15 37  1  0
 16 38  1  0
 17 39  1  0
 18 40  1  0
 18 41  1  0
 20 42  1  0
 21 43  1  0
 23 44  1  0
 24 45  1  0
 25 46  1  0
 26 47  1  0
 28 48  1  0
M  CHG  1   1  -1
M  END
>  <UniqueID>  (38) 
35

>  <SMILES>  (38) 
[NH-]C(=O)c1cc(C(=O)N(CCc2ccccc2)Cc2ccncc2)ccc1O

>  <Energy>  (38) 
54.33658888358534

>  <Genealogy>  (38) 
[NH-]C(=O)c1cc(C(=O)N(CCc2ccccc2)Cc2ccncc2)ccc1O (protonated)
[NH-]C(=O)c1cc(C(=O)N(CCc2ccccc2)Cc2ccncc2)ccc1O (3D coordinates assigned)
[NH-]C(=O)c1cc(C(=O)N(CCc2ccccc2)Cc2ccncc2)ccc1O (optimized conformer: 54.33658888358534 kcal/mol)

>  <smiles>  (38) 
NC(=O)c1cc(C(=O)N(CCc2ccccc2)Cc2ccncc2)ccc1O

>  <score_type>  (38) 
oracle

>  <origin>  (38) 
adg

>  <m_score__min__energy>  (38) 
-12.33

>  <m_primary>  (38) 
energy

$$$$
38:0
     RDKit          3D

 77 81  0  0  0  0  0  0  0  0999 V2000
   55.1590   29.3660   44.8860 O   0  0  0  0  0  0  0  0  0  0  0  0
   56.2430   29.7490   44.3640 C   0  0  0  0  0  0  0  0  0  0  0  0
   56.4380   31.1300   44.0540 N   0  0  0  0  0  0  0  0  0  0  0  0
   57.6810   32.0690   44.8110 S   0  0  0  0  0  0  0  0  0  0  0  0
   57.0630   33.1820   45.6100 O   0  0  0  0  0  0  0  0  0  0  0  0
   58.5650   32.6680   43.7520 O   0  0  0  0  0  0  0  0  0  0  0  0
   58.6440   31.0200   45.8480 C   0  0  0  0  0  0  0  0  0  0  0  0
   59.5790   30.1450   45.2790 C   0  0  0  0  0  0  0  0  0  0  0  0
   60.2510   29.2190   46.0820 C   0  0  0  0  0  0  0  0  0  0  0  0
   59.9920   29.1530   47.4610 C   0  0  0  0  0  0  0  0  0  0  0  0
   60.6060   28.0610   48.2850 C   0  0  0  0  0  0  0  0  0  0  0  0
   61.1010   28.6360   49.5260 N   0  0  0  0  0  0  0  0  0  0  0  0
   60.2880   28.8720   50.6800 C   0  0  0  0  0  0  0  0  0  0  0  0
   60.0360   27.9120   51.4580 O   0  0  0  0  0  0  0  0  0  0  0  0
   59.7390   30.2370   50.9530 C   0  0  0  0  0  0  0  0  0  0  0  0
   58.4830   30.4040   51.5650 C   0  0  0  0  0  0  0  0  0  0  0  0
   57.7190   29.3080   51.9580 O   0  0  0  0  0  0  0  0  0  0  0  0
   57.9920   31.6490   51.7750 N   0  0  0  0  0  0  0  0  0  0  0  0
   58.6720   32.7600   51.4130 C   0  0  0  0  0  0  0  0  0  0  0  0
   58.1510   33.8880   51.6310 O   0  0  0  0  0  0  0  0  0  0  0  0
   59.9060   32.6540   50.8240 N   0  0  0  0  0  0  0  0  0  0  0  0
   60.6440   33.8650   50.4060 C   0  0  0  0  0  0  0  0  0  0  0  0
   60.5790   34.0280   48.9090 C   0  0  0  0  0  0  0  0  0  0  0  0
   59.4110   34.5140   48.3000 C   0  0  0  0  0  0  0  0  0  0  0  0
   59.3380   34.6340   46.9090 C   0  0  0  0  0  0  0  0  0  0  0  0
   60.4280   34.2680   46.1160 C   0  0  0  0  0  0  0  0  0  0  0  0
   61.5960   33.7850   46.7110 C   0  0  0  0  0  0  0  0  0  0  0  0
   61.6740   33.6630   48.1020 C   0  0  0  0  0  0  0  0  0  0  0  0
   60.4440   31.4110   50.5900 C   0  0  0  0  0  0  0  0  0  0  0  0
   61.5780   31.3190   50.0410 O   0  0  0  0  0  0  0  0  0  0  0  0
   59.0670   30.0430   48.0290 C   0  0  0  0  0  0  0  0  0  0  0  0
   58.4060   30.9790   47.2290 C   0  0  0  0  0  0  0  0  0  0  0  0
   57.2900   28.8040   44.0950 N   0  0  0  0  0  0  0  0  0  0  0  0
   57.3550   27.5070   44.7750 C   0  0  0  0  0  0  0  0  0  0  0  0
   58.7310   26.8740   44.5900 C   0  0  0  0  0  0  0  0  0  0  0  0
   58.7310   25.4510   45.1710 C   0  0  0  0  0  0  0  0  0  0  0  0
   57.9950   25.3370   46.4520 N   0  0  0  0  0  0  0  0  0  0  0  0
   56.9470   24.2910   46.5100 C   0  0  0  0  0  0  0  0  0  0  0  0
   56.8400   23.4650   45.2470 C   0  0  0  0  0  0  0  0  0  0  0  0
   55.9270   23.8210   44.2400 C   0  0  0  0  0  0  0  0  0  0  0  0
   55.8560   23.0800   43.0560 C   0  0  0  0  0  0  0  0  0  0  0  0
   56.6750   21.9640   42.8750 C   0  0  0  0  0  0  0  0  0  0  0  0
   57.5620   21.5840   43.8840 C   0  0  0  0  0  0  0  0  0  0  0  0
   57.6410   22.3230   45.0680 C   0  0  0  0  0  0  0  0  0  0  0  0
   57.6940   26.5970   47.1620 C   0  0  0  0  0  0  0  0  0  0  0  0
   57.0320   27.6720   46.2710 C   0  0  0  0  0  0  0  0  0  0  0  0
   59.7844   30.1869   44.1992 H   0  0  0  0  0  0  0  0  0  0  0  0
   60.9874   28.5376   45.6311 H   0  0  0  0  0  0  0  0  0  0  0  0
   59.8486   27.2951   48.5080 H   0  0  0  0  0  0  0  0  0  0  0  0
   61.4340   27.5941   47.7316 H   0  0  0  0  0  0  0  0  0  0  0  0
   58.1600   28.4460   52.2540 H   0  0  0  0  0  0  0  0  0  0  0  0
   60.1955   34.7470   50.8866 H   0  0  0  0  0  0  0  0  0  0  0  0
   61.6966   33.7643   50.7091 H   0  0  0  0  0  0  0  0  0  0  0  0
   58.5493   34.8017   48.9202 H   0  0  0  0  0  0  0  0  0  0  0  0
   58.4206   35.0173   46.4383 H   0  0  0  0  0  0  0  0  0  0  0  0
   60.3666   34.3602   45.0216 H   0  0  0  0  0  0  0  0  0  0  0  0
   62.4547   33.5005   46.0852 H   0  0  0  0  0  0  0  0  0  0  0  0
   62.5942   33.2804   48.5676 H   0  0  0  0  0  0  0  0  0  0  0  0
   58.8614   30.0035   49.1089 H   0  0  0  0  0  0  0  0  0  0  0  0
   57.6967   31.6858   47.6843 H   0  0  0  0  0  0  0  0  0  0  0  0
   58.1340   29.1360   43.5740 H   0  0  0  0  0  0  0  0  0  0  0  0
   56.6049   26.8386   44.3271 H   0  0  0  0  0  0  0  0  0  0  0  0
   58.9720   26.8307   43.5176 H   0  0  0  0  0  0  0  0  0  0  0  0
   59.4838   27.4808   45.1145 H   0  0  0  0  0  0  0  0  0  0  0  0
   58.2634   24.7759   44.4392 H   0  0  0  0  0  0  0  0  0  0  0  0
   59.7785   25.1838   45.3741 H   0  0  0  0  0  0  0  0  0  0  0  0
   57.1763   23.6160   47.3477 H   0  0  0  0  0  0  0  0  0  0  0  0
   55.9844   24.8078   46.6380 H   0  0  0  0  0  0  0  0  0  0  0  0
   55.2645   24.6873   44.3837 H   0  0  0  0  0  0  0  0  0  0  0  0
   55.1524   23.3776   42.2646 H   0  0  0  0  0  0  0  0  0  0  0  0
   56.6216   21.3860   41.9406 H   0  0  0  0  0  0  0  0  0  0  0  0
   58.2013   20.6995   43.7467 H   0  0  0  0  0  0  0  0  0  0  0  0
   58.3331   22.0097   45.8636 H   0  0  0  0  0  0  0  0  0  0  0  0
   57.0136   26.3710   47.9963 H   0  0  0  0  0  0  0  0  0  0  0  0
   58.6548   27.0103   47.5025 H   0  0  0  0  0  0  0  0  0  0  0  0
   55.9415   27.6103   46.4015 H   0  0  0  0  0  0  0  0  0  0  0  0
   57.4329   28.6471   46.5850 H   0  0  0  0  0  0  0  0  0  0  0  0
  1  2  2  0
  2  3  1  0
  3  4  1  0
  4  5  2  0
  4  6  2  0
  4  7  1  0
  7  8  2  0
  8  9  1  0
  9 10  2  0
 10 11  1  0
 11 12  1  0
 12 13  1  0
 13 14  2  0
 13 15  1  0
 15 16  2  0
 16 17  1  0
 16 18  1  0
 18 19  1  0
 19 20  2  0
 19 21  1  0
 21 22  1  0
 22 23  1  0
 23 24  2  0
 24 25  1  0
 25 26  2  0
 26 27  1  0
 27 28  2  0
 21 29  1  0
 29 30  2  0
 10 31  1  0
 31 32  2  0
  2 33  1  0
 33 34  1  0
 34 35  1  0
 35 36  1  0
 36 37  1  0
 37 38  1  0
 38 39  1  0
 39 40  2  0
 40 41  1  0
 41 42  2  0
 42 43  1  0
 43 44  2  0
 37 45  1  0
 45 46  1  0
 32  7  1  0
 46 34  1  0
 29 15  1  0
 44 39  1  0
 28 23  1  0
  8 47  1  0
  9 48  1  0
 11 49  1  0
 11 50  1  0
 17 51  1  0
 22 52  1  0
 22 53  1  0
 24 54  1  0
 25 55  1  0
 26 56  1  0
 27 57  1  0
 28 58  1  0
 31 59  1  0
 32 60  1  0
 33 61  1  0
 34 62  1  0
 35 63  1  0
 35 64  1  0
 36 65  1  0
 36 66  1  0
 38 67  1  0
 38 68  1  0
 40 69  1  0
 41 70  1  0
 42 71  1  0
 43 72  1  0
 44 73  1  0
 45 74  1  0
 45 75  1  0
 46 76  1  0
 46 77  1  0
M  CHG  3   3  -1  12  -1  18  -1
M  END
>  <UniqueID>  (39) 
36

>  <SMILES>  (39) 
O=C([N-]S(=O)(=O)c1ccc(C[N-]C(=O)c2c(O)[n-]c(=O)n(Cc3ccccc3)c2=O)cc1)NC1CCN(Cc2ccccc2)CC1

>  <Energy>  (39) 
94.79980562093459

>  <Genealogy>  (39) 
O=C([N-]S(=O)(=O)c1ccc(C[N-]C(=O)c2c(O)[n-]c(=O)n(Cc3ccccc3)c2=O)cc1)NC1CCN(Cc2ccccc2)CC1 (protonated)
O=C([N-]S(=O)(=O)c1ccc(C[N-]C(=O)c2c(O)[n-]c(=O)n(Cc3ccccc3)c2=O)cc1)NC1CCN(Cc2ccccc2)CC1 (3D coordinates assigned)
O=C([N-]S(=O)(=O)c1ccc(C[N-]C(=O)c2c(O)[n-]c(=O)n(Cc3ccccc3)c2=O)cc1)NC1CCN(Cc2ccccc2)CC1 (nonaromatic ring conformer: 94.79980562093459 kcal/mol)

>  <smiles>  (39) 
O=C(NC1CCN(Cc2ccccc2)CC1)NS(=O)(=O)c1ccc(CNC(=O)c2c(O)[nH]c(=O)n(Cc3ccccc3)c2=O)cc1

>  <score_type>  (39) 
oracle

>  <origin>  (39) 
adg

>  <m_score__min__energy>  (39) 
-15.02

>  <m_primary>  (39) 
energy

$$$$
39:0
     RDKit          3D

 36 37  0  0  0  0  0  0  0  0999 V2000
   52.1200   30.1650   49.7250 C   0  0  0  0  0  0  0  0  0  0  0  0
   51.8020   31.0680   50.8730 C   0  0  0  0  0  0  0  0  0  0  0  0
   50.9600   32.1120   50.7930 N   0  0  0  0  0  0  0  0  0  0  0  0
   50.9840   32.6250   52.0410 C   0  0  0  0  0  0  0  0  0  0  0  0
   50.3120   33.6360   52.3730 O   0  0  0  0  0  0  0  0  0  0  0  0
   51.7880   31.9700   52.9050 N   0  0  0  0  0  0  0  0  0  0  0  0
   52.2960   30.9740   52.1600 C   0  0  0  0  0  0  0  0  0  0  0  0
   53.3060   29.9890   52.6680 C   0  0  0  0  0  0  0  0  0  0  0  0
   54.6690   30.6560   52.8360 C   0  0  0  0  0  0  0  0  0  0  0  0
   55.4760   30.4240   51.6440 N   0  0  0  0  0  0  0  0  0  0  0  0
   56.8870   30.6540   51.5670 C   0  0  0  0  0  0  0  0  0  0  0  0
   57.6620   29.6620   51.6000 O   0  0  0  0  0  0  0  0  0  0  0  0
   57.4370   32.0300   51.5070 C   0  0  0  0  0  0  0  0  0  0  0  0
   58.5750   32.3820   50.8870 C   0  0  0  0  0  0  0  0  0  0  0  0
   58.9250   32.0510   49.4890 C   0  0  0  0  0  0  0  0  0  0  0  0
   59.9660   31.1560   49.1910 C   0  0  0  0  0  0  0  0  0  0  0  0
   60.2470   30.8230   47.8660 C   0  0  0  0  0  0  0  0  0  0  0  0
   59.4830   31.3600   46.8270 C   0  0  0  0  0  0  0  0  0  0  0  0
   58.4150   32.2310   47.1050 C   0  0  0  0  0  0  0  0  0  0  0  0
   57.6200   32.7720   46.0350 N   0  0  0  0  0  0  0  0  0  0  0  0
   57.0150   32.0180   45.2450 O   0  0  0  0  0  0  0  0  0  0  0  0
   57.5120   34.1340   45.8640 O   0  0  0  0  0  0  0  0  0  0  0  0
   58.1380   32.5630   48.4450 C   0  0  0  0  0  0  0  0  0  0  0  0
   52.4626   29.1922   50.1076 H   0  0  0  0  0  0  0  0  0  0  0  0
   51.2186   30.0208   49.1113 H   0  0  0  0  0  0  0  0  0  0  0  0
   52.9129   30.6175   49.1113 H   0  0  0  0  0  0  0  0  0  0  0  0
   52.9724   29.5981   53.6406 H   0  0  0  0  0  0  0  0  0  0  0  0
   53.3993   29.1693   51.9404 H   0  0  0  0  0  0  0  0  0  0  0  0
   54.5321   31.7378   52.9808 H   0  0  0  0  0  0  0  0  0  0  0  0
   55.1795   30.2295   53.7121 H   0  0  0  0  0  0  0  0  0  0  0  0
   56.8676   32.8253   52.0103 H   0  0  0  0  0  0  0  0  0  0  0  0
   59.3066   32.9642   51.4665 H   0  0  0  0  0  0  0  0  0  0  0  0
   60.5612   30.7165   50.0050 H   0  0  0  0  0  0  0  0  0  0  0  0
   61.0740   30.1344   47.6381 H   0  0  0  0  0  0  0  0  0  0  0  0
   59.7186   31.0996   45.7845 H   0  0  0  0  0  0  0  0  0  0  0  0
   57.2954   33.2311   48.6766 H   0  0  0  0  0  0  0  0  0  0  0  0
  1  2  1  0
  2  3  1  0
  3  4  1  0
  4  5  2  0
  4  6  1  0
  6  7  1  0
  7  8  1  0
  8  9  1  0
  9 10  1  0
 10 11  1  0
 11 12  2  0
 11 13  1  0
 13 14  2  3
 14 15  1  0
 15 16  2  0
 16 17  1  0
 17 18  2  0
 18 19  1  0
 19 20  1  0
 20 21  2  0
 20 22  1  0
 19 23  2  0
  7  2  2  0
 23 15  1  0
  1 24  1  0
  1 25  1  0
  1 26  1  0
  8 27  1  0
  8 28  1  0
  9 29  1  0
  9 30  1  0
 13 31  1  0
 14 32  1  0
 16 33  1  0
 17 34  1  0
 18 35  1  0
 23 36  1  0
M  CHG  5   3  -1   6  -1  10  -1  20   1  22  -1
M  END
>  <UniqueID>  (40) 
37

>  <SMILES>  (40) 
Cc1[n-]c(=O)[n-]c1CC[N-]C(=O)C=Cc1cccc([N+](=O)[O-])c1

>  <Energy>  (40) 
67.13137695331501

>  <Genealogy>  (40) 
Cc1[n-]c(=O)[n-]c1CC[N-]C(=O)C=Cc1cccc([N+](=O)[O-])c1 (protonated)
Cc1[n-]c(=O)[n-]c1CC[N-]C(=O)C=Cc1cccc([N+](=O)[O-])c1 (3D coordinates assigned)
Cc1[n-]c(=O)[n-]c1CC[N-]C(=O)C=Cc1cccc([N+](=O)[O-])c1 (optimized conformer: 67.13137695331501 kcal/mol)

>  <smiles>  (40) 
Cc1[nH]c(=O)[nH]c1CCNC(=O)C=Cc1cccc([N+](=O)[O-])c1

>  <score_type>  (40) 
oracle

>  <origin>  (40) 
adg

>  <m_score__min__energy>  (40) 
-13.66

>  <m_primary>  (40) 
energy

$$$$
40:0
     RDKit          3D

 59 62  0  0  0  0  0  0  0  0999 V2000
   55.1970   29.3940   44.6800 O   0  0  0  0  0  0  0  0  0  0  0  0
   56.4400   29.5930   44.7590 C   0  0  0  0  0  0  0  0  0  0  0  0
   57.0010   30.8960   44.2730 C   0  0  0  0  0  0  0  0  0  0  0  0
   56.6620   31.9660   45.1540 O   0  0  0  0  0  0  0  0  0  0  0  0
   57.3840   33.1650   45.2280 C   0  0  0  0  0  0  0  0  0  0  0  0
   56.9690   34.1930   44.6250 O   0  0  0  0  0  0  0  0  0  0  0  0
   58.6400   33.2200   46.0080 C   0  0  0  0  0  0  0  0  0  0  0  0
   59.5390   32.1390   45.9990 C   0  0  0  0  0  0  0  0  0  0  0  0
   60.7180   32.1890   46.7460 C   0  0  0  0  0  0  0  0  0  0  0  0
   61.0300   33.3260   47.5110 C   0  0  0  0  0  0  0  0  0  0  0  0
   62.2420   33.3680   48.2900 N   0  0  0  0  0  0  0  0  0  0  0  0
   63.5720   33.0900   47.7670 C   0  0  0  0  0  0  0  0  0  0  0  0
   64.5100   33.0390   48.9880 C   0  0  0  0  0  0  0  0  0  0  0  0
   63.7220   33.5900   50.1860 C   0  0  0  0  0  0  0  0  0  0  0  0
   62.3450   33.6980   49.6650 C   0  0  0  0  0  0  0  0  0  0  0  0
   61.3760   34.1120   50.3550 O   0  0  0  0  0  0  0  0  0  0  0  0
   60.1270   34.4010   47.5290 C   0  0  0  0  0  0  0  0  0  0  0  0
   58.9450   34.3500   46.7840 C   0  0  0  0  0  0  0  0  0  0  0  0
   57.3200   28.5520   45.2040 N   0  0  0  0  0  0  0  0  0  0  0  0
   58.2460   28.6130   46.2990 C   0  0  0  0  0  0  0  0  0  0  0  0
   59.2590   27.6490   46.3720 C   0  0  0  0  0  0  0  0  0  0  0  0
   60.1930   27.6820   47.4100 C   0  0  0  0  0  0  0  0  0  0  0  0
   60.1340   28.6890   48.3740 C   0  0  0  0  0  0  0  0  0  0  0  0
   59.1440   29.6780   48.2990 C   0  0  0  0  0  0  0  0  0  0  0  0
   59.0580   30.9600   49.5050 S   0  0  0  0  0  0  0  0  0  0  0  0
   58.4360   32.1720   48.8680 O   0  0  0  0  0  0  0  0  0  0  0  0
   60.4460   31.3200   49.9620 O   0  0  0  0  0  0  0  0  0  0  0  0
   58.0820   30.4220   50.8570 N   0  0  0  0  0  0  0  0  0  0  0  0
   58.9060   29.7820   51.9120 C   0  0  0  0  0  0  0  0  0  0  0  0
   59.2320   30.7380   53.0750 C   0  0  0  0  0  0  0  0  0  0  0  0
   59.3440   32.0620   52.6050 O   0  0  0  0  0  0  0  0  0  0  0  0
   58.0760   32.5470   52.1990 C   0  0  0  0  0  0  0  0  0  0  0  0
   57.2480   31.5180   51.3910 C   0  0  0  0  0  0  0  0  0  0  0  0
   58.2050   29.6410   47.2590 C   0  0  0  0  0  0  0  0  0  0  0  0
   58.0963   30.8145   44.2127 H   0  0  0  0  0  0  0  0  0  0  0  0
   56.5723   31.1115   43.2832 H   0  0  0  0  0  0  0  0  0  0  0  0
   59.3117   31.2460   45.3983 H   0  0  0  0  0  0  0  0  0  0  0  0
   61.4076   31.3321   46.7355 H   0  0  0  0  0  0  0  0  0  0  0  0
   63.5804   32.1252   47.2388 H   0  0  0  0  0  0  0  0  0  0  0  0
   63.8899   33.8597   47.0483 H   0  0  0  0  0  0  0  0  0  0  0  0
   64.8182   32.0014   49.1840 H   0  0  0  0  0  0  0  0  0  0  0  0
   65.4179   33.6338   48.8095 H   0  0  0  0  0  0  0  0  0  0  0  0
   63.7673   32.8977   51.0397 H   0  0  0  0  0  0  0  0  0  0  0  0
   64.1177   34.5462   50.5589 H   0  0  0  0  0  0  0  0  0  0  0  0
   60.3515   35.2913   48.1347 H   0  0  0  0  0  0  0  0  0  0  0  0
   58.2488   35.2013   46.8059 H   0  0  0  0  0  0  0  0  0  0  0  0
   59.3196   26.8608   45.6071 H   0  0  0  0  0  0  0  0  0  0  0  0
   60.9768   26.9124   47.4676 H   0  0  0  0  0  0  0  0  0  0  0  0
   60.8662   28.7066   49.1947 H   0  0  0  0  0  0  0  0  0  0  0  0
   57.4320   29.6970   50.4720 H   0  0  0  0  0  0  0  0  0  0  0  0
   58.3562   28.9170   52.3113 H   0  0  0  0  0  0  0  0  0  0  0  0
   59.8591   29.4819   51.4521 H   0  0  0  0  0  0  0  0  0  0  0  0
   58.4277   30.6858   53.8236 H   0  0  0  0  0  0  0  0  0  0  0  0
   60.1887   30.4373   53.5270 H   0  0  0  0  0  0  0  0  0  0  0  0
   57.5054   32.8235   53.0979 H   0  0  0  0  0  0  0  0  0  0  0  0
   58.2565   33.4067   51.5370 H   0  0  0  0  0  0  0  0  0  0  0  0
   56.4784   31.0884   52.0491 H   0  0  0  0  0  0  0  0  0  0  0  0
   56.7979   32.0449   50.5368 H   0  0  0  0  0  0  0  0  0  0  0  0
   57.4314   30.4202   47.1929 H   0  0  0  0  0  0  0  0  0  0  0  0
  1  2  2  0
  2  3  1  0
  3  4  1  0
  4  5  1  0
  5  6  2  0
  5  7  1  0
  7  8  2  0
  8  9  1  0
  9 10  2  0
 10 11  1  0
 11 12  1  0
 12 13  1  0
 13 14  1  0
 14 15  1  0
 15 16  2  0
 10 17  1  0
 17 18  2  0
  2 19  1  0
 19 20  1  0
 20 21  2  0
 21 22  1  0
 22 23  2  0
 23 24  1  0
 24 25  1  0
 25 26  2  0
 25 27  2  0
 25 28  1  0
 28 29  1  0
 29 30  1  0
 30 31  1  0
 31 32  1  0
 32 33  1  0
 24 34  2  0
 18  7  1  0
 34 20  1  0
 15 11  1  0
 33 28  1  0
  3 35  1  0
  3 36  1  0
  8 37  1  0
  9 38  1  0
 12 39  1  0
 12 40  1  0
 13 41  1  0
 13 42  1  0
 14 43  1  0
 14 44  1  0
 17 45  1  0
 18 46  1  0
 21 47  1  0
 22 48  1  0
 23 49  1  0
 28 50  1  0
 29 51  1  0
 29 52  1  0
 30 53  1  0
 30 54  1  0
 32 55  1  0
 32 56  1  0
 33 57  1  0
 33 58  1  0
 34 59  1  0
M  CHG  2  19  -1  28   1
M  END
>  <UniqueID>  (41) 
38

>  <SMILES>  (41) 
O=C(COC(=O)c1ccc(N2CCCC2=O)cc1)[N-]c1cccc(S(=O)(=O)[NH+]2CCOCC2)c1

>  <Energy>  (41) 
84.32133837632281

>  <Genealogy>  (41) 
O=C(COC(=O)c1ccc(N2CCCC2=O)cc1)[N-]c1cccc(S(=O)(=O)[NH+]2CCOCC2)c1 (protonated)
O=C(COC(=O)c1ccc(N2CCCC2=O)cc1)[N-]c1cccc(S(=O)(=O)[NH+]2CCOCC2)c1 (3D coordinates assigned)
O=C(COC(=O)c1ccc(N2CCCC2=O)cc1)[N-]c1cccc(S(=O)(=O)[NH+]2CCOCC2)c1 (nonaromatic ring conformer: 84.32133837632281 kcal/mol)

>  <smiles>  (41) 
O=C(COC(=O)c1ccc(N2CCCC2=O)cc1)Nc1cccc(S(=O)(=O)N2CCOCC2)c1

>  <score_type>  (41) 
oracle

>  <origin>  (41) 
adg

>  <m_score__min__energy>  (41) 
-10.56

>  <m_primary>  (41) 
energy

$$$$
41:0
     RDKit          3D

 46 49  0  0  0  0  0  0  0  0999 V2000
   59.0214   32.5223   42.5082 H   0  0  0  0  0  0  0  0  0  0  0  0
   58.1450   31.9500   42.1700 C   0  0  0  0  0  0  0  0  0  0  0  0
   57.8570   31.9612   41.1084 H   0  0  0  0  0  0  0  0  0  0  0  0
   57.4300   31.2410   43.0490 C   0  0  0  0  0  0  0  0  0  0  0  0
   56.3150   30.4890   42.7330 C   0  0  0  0  0  0  0  0  0  0  0  0
   55.8619   30.3675   41.7380 H   0  0  0  0  0  0  0  0  0  0  0  0
   55.8830   29.9210   43.9130 C   0  0  0  0  0  0  0  0  0  0  0  0
   55.0102   29.2583   44.0080 H   0  0  0  0  0  0  0  0  0  0  0  0
   56.6800   30.2920   44.9320 N   0  0  0  0  0  0  0  0  0  0  0  0
   56.5880   29.9470   45.9120 H   0  0  0  0  0  0  0  0  0  0  0  0
   57.6310   31.1070   44.4240 C   0  0  0  0  0  0  0  0  0  0  0  0
   58.6350   31.6510   45.1390 C   0  0  0  0  0  0  0  0  0  0  0  0
   59.2297   32.4496   44.6714 H   0  0  0  0  0  0  0  0  0  0  0  0
   58.9840   31.2390   46.5120 C   0  0  0  0  0  0  0  0  0  0  0  0
   60.1510   30.6010   46.8730 C   0  0  0  0  0  0  0  0  0  0  0  0
   61.1460   30.1770   45.9860 O   0  0  0  0  0  0  0  0  0  0  0  0
   61.0680   28.9710   45.2280 C   0  0  0  0  0  0  0  0  0  0  0  0
   61.1216   29.2133   44.1564 H   0  0  0  0  0  0  0  0  0  0  0  0
   61.9063   28.3181   45.5125 H   0  0  0  0  0  0  0  0  0  0  0  0
   59.7750   28.2520   45.5090 C   0  0  0  0  0  0  0  0  0  0  0  0
   58.8160   28.0850   44.4990 C   0  0  0  0  0  0  0  0  0  0  0  0
   59.0053   28.4862   43.4924 H   0  0  0  0  0  0  0  0  0  0  0  0
   57.6210   27.4110   44.7660 C   0  0  0  0  0  0  0  0  0  0  0  0
   56.8778   27.2792   43.9658 H   0  0  0  0  0  0  0  0  0  0  0  0
   57.3620   26.9000   46.0510 C   0  0  0  0  0  0  0  0  0  0  0  0
   56.0980   26.1850   46.3370 C   0  0  0  0  0  0  0  0  0  0  0  0
   54.9890   26.6880   46.0150 O   0  0  0  0  0  0  0  0  0  0  0  0
   56.1170   24.9450   46.9660 O   0  0  0  0  0  0  0  0  0  0  0  0
   58.3210   27.0770   47.0610 C   0  0  0  0  0  0  0  0  0  0  0  0
   58.1304   26.6838   48.0705 H   0  0  0  0  0  0  0  0  0  0  0  0
   59.5170   27.7500   46.7920 C   0  0  0  0  0  0  0  0  0  0  0  0
   60.2596   27.8862   47.5920 H   0  0  0  0  0  0  0  0  0  0  0  0
   60.1400   30.4700   48.2510 C   0  0  0  0  0  0  0  0  0  0  0  0
   60.9082   29.9972   48.8805 H   0  0  0  0  0  0  0  0  0  0  0  0
   58.9590   31.0590   48.6710 C   0  0  0  0  0  0  0  0  0  0  0  0
   58.5170   31.1830   50.0740 C   0  0  0  0  0  0  0  0  0  0  0  0
   59.0210   30.4670   51.1450 C   0  0  0  0  0  0  0  0  0  0  0  0
   59.8138   29.7050   51.1150 H   0  0  0  0  0  0  0  0  0  0  0  0
   58.3300   30.9000   52.2590 C   0  0  0  0  0  0  0  0  0  0  0  0
   58.4630   30.5482   53.2927 H   0  0  0  0  0  0  0  0  0  0  0  0
   57.4400   31.8600   51.8230 C   0  0  0  0  0  0  0  0  0  0  0  0
   56.7370   32.4068   52.4686 H   0  0  0  0  0  0  0  0  0  0  0  0
   57.5570   32.0300   50.4940 N   0  0  0  0  0  0  0  0  0  0  0  0
   57.0010   32.6960   49.9130 H   0  0  0  0  0  0  0  0  0  0  0  0
   58.2650   31.5340   47.6140 N   0  0  0  0  0  0  0  0  0  0  0  0
   57.3740   32.0760   47.6480 H   0  0  0  0  0  0  0  0  0  0  0  0
  1  2  1  0
  2  3  1  0
  2  4  2  0
  4  5  1  0
  5  6  1  0
  5  7  2  0
  7  8  1  0
  7  9  1  0
  9 10  1  0
  9 11  1  0
 11 12  2  0
 12 13  1  0
 12 14  1  0
 14 15  2  0
 15 16  1  0
 16 17  1  0
 17 18  1  0
 17 19  1  0
 17 20  1  0
 20 21  2  0
 21 22  1  0
 21 23  1  0
 23 24  1  0
 23 25  2  0
 25 26  1  0
 26 27  2  0
 26 28  1  0
 25 29  1  0
 29 30  1  0
 29 31  2  0
 31 32  1  0
 15 33  1  0
 33 34  1  0
 33 35  2  0
 35 36  1  0
 36 37  2  0
 37 38  1  0
 37 39  1  0
 39 40  1  0
 39 41  2  0
 41 42  1  0
 41 43  1  0
 43 44  1  0
 35 45  1  0
 45 46  1  0
 11  4  1  0
 45 14  1  0
 31 20  1  0
 43 36  1  0
M  CHG  1  28  -1
M  END
>  <UniqueID>  (42) 
39

>  <SMILES>  (42) 
C=c1cc[nH]/c1=C\c1[nH]c(-c2ccc[nH]2)cc1OCc1ccc(C(=O)[O-])cc1

>  <Energy>  (42) 
132.4247505243059

>  <Genealogy>  (42) 
C=c1cc[nH]c1=Cc1[nH]c(-c2ccc[nH]2)cc1OCc1ccc(C(=O)[O-])cc1 (protonated)
C=c1cc[nH]/c1=C\c1[nH]c(-c2ccc[nH]2)cc1OCc1ccc(C(=O)[O-])cc1 (cis-trans isomerization)
C=c1cc[nH]/c1=C\c1[nH]c(-c2ccc[nH]2)cc1OCc1ccc(C(=O)[O-])cc1 (3D coordinates assigned)
C=c1cc[nH]/c1=C\c1[nH]c(-c2ccc[nH]2)cc1OCc1ccc(C(=O)[O-])cc1 (optimized conformer: 132.4247505243059 kcal/mol)

>  <smiles>  (42) 
C=c1cc[nH]c1=Cc1[nH]c(-c2ccc[nH]2)cc1OCc1ccc(C(=O)O)cc1

>  <score_type>  (42) 
oracle

>  <origin>  (42) 
adg

>  <m_score__min__energy>  (42) 
-11.199999999999999

>  <m_primary>  (42) 
energy

$$$$
42:0
     RDKit          3D

 47 51  0  0  0  0  0  0  0  0999 V2000
   55.7725   28.9016   44.1225 H   0  0  0  0  0  0  0  0  0  0  0  0
   56.5470   29.1590   44.8600 C   0  0  0  0  0  0  0  0  0  0  0  0
   56.9190   30.4550   45.0230 N   0  0  0  0  0  0  0  0  0  0  0  0
   57.8790   30.8380   45.9110 C   0  0  0  0  0  0  0  0  0  0  0  0
   58.2300   32.2370   46.0320 N   0  0  0  0  0  0  0  0  0  0  0  0
   58.4030   33.0680   44.8320 C   0  0  0  0  0  0  0  0  0  0  0  0
   59.3116   32.7475   44.3012 H   0  0  0  0  0  0  0  0  0  0  0  0
   57.5170   32.9451   44.1917 H   0  0  0  0  0  0  0  0  0  0  0  0
   58.5350   34.5490   45.2000 C   0  0  0  0  0  0  0  0  0  0  0  0
   58.8211   35.1205   44.3047 H   0  0  0  0  0  0  0  0  0  0  0  0
   57.5692   34.9075   45.5857 H   0  0  0  0  0  0  0  0  0  0  0  0
   59.5570   34.7310   46.2360 N   0  0  0  0  0  0  0  0  0  0  0  0
   60.4800   34.4320   45.8400 H   0  0  0  0  0  0  0  0  0  0  0  0
   59.2950   33.9620   47.4720 C   0  0  0  0  0  0  0  0  0  0  0  0
   60.2275   33.4575   47.7653 H   0  0  0  0  0  0  0  0  0  0  0  0
   58.9406   34.6877   48.2188 H   0  0  0  0  0  0  0  0  0  0  0  0
   58.1900   32.8930   47.3470 C   0  0  0  0  0  0  0  0  0  0  0  0
   58.3344   32.1347   48.1306 H   0  0  0  0  0  0  0  0  0  0  0  0
   57.2137   33.3870   47.4598 H   0  0  0  0  0  0  0  0  0  0  0  0
   58.5100   29.8510   46.6900 C   0  0  0  0  0  0  0  0  0  0  0  0
   59.2892   30.1333   47.4133 H   0  0  0  0  0  0  0  0  0  0  0  0
   58.1440   28.5130   46.5420 C   0  0  0  0  0  0  0  0  0  0  0  0
   58.6416   27.7403   47.1464 H   0  0  0  0  0  0  0  0  0  0  0  0
   57.1440   28.1460   45.6260 C   0  0  0  0  0  0  0  0  0  0  0  0
   56.7380   26.7300   45.4360 C   0  0  0  0  0  0  0  0  0  0  0  0
   55.4700   26.3530   45.7620 N   0  0  0  0  0  0  0  0  0  0  0  0
   55.0040   25.0830   45.6300 C   0  0  0  0  0  0  0  0  0  0  0  0
   53.7650   24.8590   45.9750 N   0  0  0  0  0  0  0  0  0  0  0  0
   52.8820   23.7900   45.5170 C   0  0  0  0  0  0  0  0  0  0  0  0
   53.1209   23.0540   46.2988 H   0  0  0  0  0  0  0  0  0  0  0  0
   51.6170   24.3220   44.8720 C   0  0  0  0  0  0  0  0  0  0  0  0
   50.6661   23.7842   45.0003 H   0  0  0  0  0  0  0  0  0  0  0  0
   51.0775   25.2804   44.8918 H   0  0  0  0  0  0  0  0  0  0  0  0
   52.7180   23.7250   44.0090 C   0  0  0  0  0  0  0  0  0  0  0  0
   52.5640   22.7551   43.5134 H   0  0  0  0  0  0  0  0  0  0  0  0
   53.3055   24.0720   43.1462 H   0  0  0  0  0  0  0  0  0  0  0  0
   55.8790   24.0840   45.1280 C   0  0  0  0  0  0  0  0  0  0  0  0
   55.4840   22.7910   44.9640 N   0  0  0  0  0  0  0  0  0  0  0  0
   56.3170   21.8290   44.4870 C   0  0  0  0  0  0  0  0  0  0  0  0
   55.9000   20.6490   44.3540 O   0  0  0  0  0  0  0  0  0  0  0  0
   57.6330   22.1500   44.1470 C   0  0  0  0  0  0  0  0  0  0  0  0
   58.3119   21.3751   43.7616 H   0  0  0  0  0  0  0  0  0  0  0  0
   58.0780   23.4630   44.3010 C   0  0  0  0  0  0  0  0  0  0  0  0
   59.1127   23.7282   44.0382 H   0  0  0  0  0  0  0  0  0  0  0  0
   57.2050   24.4440   44.7910 C   0  0  0  0  0  0  0  0  0  0  0  0
   57.6330   25.7660   44.9490 C   0  0  0  0  0  0  0  0  0  0  0  0
   58.6649   26.0480   44.6930 H   0  0  0  0  0  0  0  0  0  0  0  0
  1  2  1  0
  2  3  2  0
  3  4  1  0
  4  5  1  0
  5  6  1  0
  6  7  1  0
  6  8  1  0
  6  9  1  0
  9 10  1  0
  9 11  1  0
  9 12  1  0
 12 13  1  0
 12 14  1  0
 14 15  1  0
 14 16  1  0
 14 17  1  0
 17 18  1  0
 17 19  1  0
  4 20  2  0
 20 21  1  0
 20 22  1  0
 22 23  1  0
 22 24  2  0
 24 25  1  0
 25 26  1  0
 26 27  1  0
 27 28  2  0
 28 29  1  0
 29 30  1  0
 29 31  1  0
 31 32  1  0
 31 33  1  0
 31 34  1  0
 34 35  1  0
 34 36  1  0
 27 37  1  0
 37 38  1  0
 38 39  1  0
 39 40  2  0
 39 41  1  0
 41 42  1  0
 41 43  2  0
 43 44  1  0
 43 45  1  0
 45 46  1  0
 46 47  1  0
 24  2  1  0
 46 25  2  0
 17  5  1  0
 34 29  1  0
 45 37  2  0
M  CHG  2  26  -1  38  -1
M  END
>  <UniqueID>  (43) 
40

>  <SMILES>  (43) 
O=c1ccc2cc(-c3ccc(N4CCNCC4)nc3)[n-]/c(=N/C3CC3)c2[n-]1

>  <Energy>  (43) 
335.76673168295565

>  <Genealogy>  (43) 
O=c1ccc2cc(-c3ccc(N4CCNCC4)nc3)[n-]c(=NC3CC3)c2[n-]1 (protonated)
O=c1ccc2cc(-c3ccc(N4CCNCC4)nc3)[n-]/c(=N/C3CC3)c2[n-]1 (cis-trans isomerization)
O=c1ccc2cc(-c3ccc(N4CCNCC4)nc3)[n-]/c(=N/C3CC3)c2[n-]1 (3D coordinates assigned)
O=c1ccc2cc(-c3ccc(N4CCNCC4)nc3)[n-]/c(=N/C3CC3)c2[n-]1 (nonaromatic ring conformer: 335.76673168295565 kcal/mol)

>  <smiles>  (43) 
O=c1ccc2cc(-c3ccc(N4CCNCC4)nc3)[nH]c(=NC3CC3)c2[nH]1

>  <score_type>  (43) 
oracle

>  <origin>  (43) 
adg

>  <m_score__min__energy>  (43) 
-11.5

>  <m_primary>  (43) 
energy

$$$$
43:0
     RDKit          3D

 68 70  0  0  0  0  0  0  0  0999 V2000
   57.1900   28.2460   44.4380 N   0  0  0  0  0  0  0  0  0  0  0  0
   56.2950   29.4030   44.4750 C   0  0  0  0  0  0  0  0  0  0  0  0
   57.0660   30.7220   44.5910 C   0  0  0  0  0  0  0  0  0  0  0  0
   58.4160   30.4790   45.0890 N   0  0  0  0  0  0  0  0  0  0  0  0
   58.7980   30.5300   46.4690 C   0  0  0  0  0  0  0  0  0  0  0  0
   59.5260   31.4840   46.8560 O   0  0  0  0  0  0  0  0  0  0  0  0
   58.4280   29.4310   47.4360 C   0  0  0  0  0  0  0  0  0  0  0  0
   59.6590   28.7970   48.1170 C   0  0  2  0  0  0  0  0  0  0  0  0
   60.0340   27.4390   47.4760 C   0  0  0  0  0  0  0  0  0  0  0  0
   59.4350   27.1750   46.1090 C   0  0  0  0  0  0  0  0  0  0  0  0
   59.9400   27.6870   45.0770 O   0  0  0  0  0  0  0  0  0  0  0  0
   58.2890   26.3310   45.9580 N   0  0  0  0  0  0  0  0  0  0  0  0
   57.5290   25.7650   47.0660 C   0  0  0  0  0  0  0  0  0  0  0  0
   56.3780   24.9620   46.5150 C   0  0  0  0  0  0  0  0  0  0  0  0
   55.2360   25.5970   45.9950 C   0  0  0  0  0  0  0  0  0  0  0  0
   55.1550   26.9830   45.9370 O   0  0  0  0  0  0  0  0  0  0  0  0
   54.1910   24.8530   45.5480 N   0  0  0  0  0  0  0  0  0  0  0  0
   54.2210   23.4960   45.6030 C   0  0  0  0  0  0  0  0  0  0  0  0
   53.2410   22.8280   45.1840 O   0  0  0  0  0  0  0  0  0  0  0  0
   55.3040   22.8590   46.1170 N   0  0  0  0  0  0  0  0  0  0  0  0
   56.3750   23.5560   46.5780 C   0  0  0  0  0  0  0  0  0  0  0  0
   57.3550   22.9300   47.0640 O   0  0  0  0  0  0  0  0  0  0  0  0
   59.4250   28.6440   49.5510 N   0  0  0  0  0  0  0  0  0  0  0  0
   59.3500   29.7470   50.4620 C   0  0  0  0  0  0  0  0  0  0  0  0
   60.3630   30.0730   51.1400 O   0  0  0  0  0  0  0  0  0  0  0  0
   58.0550   30.5060   50.5940 C   0  0  2  0  0  0  0  0  0  0  0  0
   58.1890   31.9670   50.1150 C   0  0  0  0  0  0  0  0  0  0  0  0
   58.6010   32.8950   51.2220 C   0  0  0  0  0  0  0  0  0  0  0  0
   59.8890   33.2500   51.5400 C   0  0  0  0  0  0  0  0  0  0  0  0
   59.8710   34.0280   52.6380 N   0  0  0  0  0  0  0  0  0  0  0  0
   58.5600   34.1230   52.9490 C   0  0  0  0  0  0  0  0  0  0  0  0
   57.7510   33.4360   52.1120 N   0  0  0  0  0  0  0  0  0  0  0  0
   57.5370   30.4520   51.9650 N   0  0  0  0  0  0  0  0  0  0  0  0
   56.3510   29.7690   52.3950 C   0  0  0  0  0  0  0  0  0  0  0  0
   56.3720   28.5250   52.6030 O   0  0  0  0  0  0  0  0  0  0  0  0
   55.0850   30.5630   52.6160 C   0  0  1  0  0  0  0  0  0  0  0  0
   55.2730   31.9840   52.3020 N   0  0  0  0  0  0  0  0  0  0  0  0
   53.9360   29.9740   51.7750 C   0  0  0  0  0  0  0  0  0  0  0  0
   52.8020   30.9380   51.5630 C   0  0  0  0  0  0  0  0  0  0  0  0
   51.9610   30.9450   50.4750 C   0  0  0  0  0  0  0  0  0  0  0  0
   51.0290   31.8960   50.6520 N   0  0  0  0  0  0  0  0  0  0  0  0
   51.3310   32.4380   51.8530 C   0  0  0  0  0  0  0  0  0  0  0  0
   52.4000   31.8700   52.4480 N   0  0  0  0  0  0  0  0  0  0  0  0
   57.9530   28.3880   45.1400 H   0  0  0  0  0  0  0  0  0  0  0  0
   56.6540   27.3910   44.7150 H   0  0  0  0  0  0  0  0  0  0  0  0
   55.6987   29.4204   43.5508 H   0  0  0  0  0  0  0  0  0  0  0  0
   55.6517   29.3065   45.3620 H   0  0  0  0  0  0  0  0  0  0  0  0
   57.1249   31.1960   43.6001 H   0  0  0  0  0  0  0  0  0  0  0  0
   56.5392   31.3830   45.2950 H   0  0  0  0  0  0  0  0  0  0  0  0
   57.7737   29.8521   48.2136 H   0  0  0  0  0  0  0  0  0  0  0  0
   57.9219   28.6405   46.8624 H   0  0  0  0  0  0  0  0  0  0  0  0
   60.5107   29.4768   47.9670 H   0  0  0  0  0  0  0  0  0  0  0  0
   61.1291   27.4008   47.3792 H   0  0  0  0  0  0  0  0  0  0  0  0
   59.6204   26.6667   48.1412 H   0  0  0  0  0  0  0  0  0  0  0  0
   58.1810   25.1116   47.6642 H   0  0  0  0  0  0  0  0  0  0  0  0
   57.1445   26.5746   47.7037 H   0  0  0  0  0  0  0  0  0  0  0  0
   57.3279   30.0080   49.9357 H   0  0  0  0  0  0  0  0  0  0  0  0
   58.9456   32.0098   49.3177 H   0  0  0  0  0  0  0  0  0  0  0  0
   57.2034   32.2935   49.7518 H   0  0  0  0  0  0  0  0  0  0  0  0
   60.7901   32.9472   50.9865 H   0  0  0  0  0  0  0  0  0  0  0  0
   58.1856   34.7053   53.8039 H   0  0  0  0  0  0  0  0  0  0  0  0
   54.8254   30.4917   53.6826 H   0  0  0  0  0  0  0  0  0  0  0  0
   56.1040   32.0890   51.6760 H   0  0  0  0  0  0  0  0  0  0  0  0
   54.4300   32.3470   51.7930 H   0  0  0  0  0  0  0  0  0  0  0  0
   54.3357   29.6830   50.7924 H   0  0  0  0  0  0  0  0  0  0  0  0
   53.5336   29.1132   52.3291 H   0  0  0  0  0  0  0  0  0  0  0  0
   52.0388   30.2802   49.6021 H   0  0  0  0  0  0  0  0  0  0  0  0
   50.7595   33.2635   52.3022 H   0  0  0  0  0  0  0  0  0  0  0  0
  1  2  1  0
  2  3  1  0
  3  4  1  0
  4  5  1  0
  5  6  2  0
  5  7  1  0
  7  8  1  0
  8  9  1  0
  9 10  1  0
 10 11  2  0
 10 12  1  0
 12 13  1  0
 13 14  1  0
 14 15  2  0
 15 16  1  0
 15 17  1  0
 17 18  1  0
 18 19  2  0
 18 20  1  0
 20 21  1  0
 21 22  2  0
  8 23  1  0
 23 24  1  0
 24 25  2  0
 24 26  1  0
 26 27  1  0
 27 28  1  0
 28 29  2  0
 29 30  1  0
 30 31  1  0
 31 32  2  0
 26 33  1  0
 33 34  1  0
 34 35  2  0
 34 36  1  0
 36 37  1  0
 36 38  1  0
 38 39  1  0
 39 40  2  0
 40 41  1  0
 41 42  1  0
 42 43  2  0
 21 14  1  0
 32 28  1  0
 43 39  1  0
  1 44  1  0
  1 45  1  0
  2 46  1  0
  2 47  1  0
  3 48  1  0
  3 49  1  0
  7 50  1  0
  7 51  1  0
  8 52  1  1
  9 53  1  0
  9 54  1  0
 13 55  1  0
 13 56  1  0
 26 57  1  6
 27 58  1  0
 27 59  1  0
 29 60  1  0
 31 61  1  0
 36 62  1  1
 37 63  1  0
 37 64  1  0
 38 65  1  0
 38 66  1  0
 40 67  1  0
 42 68  1  0
M  CHG  8   4  -1  12  -1  16  -1  17  -1  20  -1  23  -1  30  -1  33  -1
M  CHG  1  41  -1
M  END
>  <UniqueID>  (44) 
41

>  <SMILES>  (44) 
NCC[N-]C(=O)C[C@H](CC(=O)[N-]Cc1c([O-])[n-]c(=O)[n-]c1=O)[N-]C(=O)[C@H](Cc1c[n-]cn1)[N-]C(=O)C(N)Cc1c[n-]cn1

>  <Energy>  (44) 
112.13767990674363

>  <Genealogy>  (44) 
NCC[N-]C(=O)CC(CC(=O)[N-]Cc1c([O-])[n-]c(=O)[n-]c1=O)[N-]C(=O)C(Cc1c[n-]cn1)[N-]C(=O)C(N)Cc1c[n-]cn1 (protonated)
NCC[N-]C(=O)C[C@H](CC(=O)[N-]Cc1c([O-])[n-]c(=O)[n-]c1=O)[N-]C(=O)[C@H](Cc1c[n-]cn1)[N-]C(=O)C(N)Cc1c[n-]cn1 (chirality)
NCC[N-]C(=O)C[C@H](CC(=O)[N-]Cc1c([O-])[n-]c(=O)[n-]c1=O)[N-]C(=O)[C@H](Cc1c[n-]cn1)[N-]C(=O)C(N)Cc1c[n-]cn1 (3D coordinates assigned)
NCC[N-]C(=O)C[C@H](CC(=O)[N-]Cc1c([O-])[n-]c(=O)[n-]c1=O)[N-]C(=O)[C@H](Cc1c[n-]cn1)[N-]C(=O)C(N)Cc1c[n-]cn1 (optimized conformer: 112.13767990674363 kcal/mol)

>  <smiles>  (44) 
NCCNC(=O)CC(CC(=O)NCc1c(O)[nH]c(=O)[nH]c1=O)NC(=O)C(Cc1c[nH]cn1)NC(=O)C(N)Cc1c[nH]cn1

>  <score_type>  (44) 
oracle

>  <origin>  (44) 
adg

>  <m_score__min__energy>  (44) 
-24.059999999999999

>  <m_primary>  (44) 
energy

$$$$
44:0
     RDKit          3D

 37 39  0  0  0  0  0  0  0  0999 V2000
   55.1490   27.5050   45.3040 H   0  0  0  0  0  0  0  0  0  0  0  0
   55.9840   27.0390   45.6290 O   0  0  0  0  0  0  0  0  0  0  0  0
   57.1680   27.7060   45.9550 C   0  0  0  0  0  0  0  0  0  0  0  0
   57.5870   27.6770   47.2910 C   0  0  0  0  0  0  0  0  0  0  0  0
   56.9975   27.1213   48.0351 H   0  0  0  0  0  0  0  0  0  0  0  0
   58.7460   28.3470   47.6870 C   0  0  0  0  0  0  0  0  0  0  0  0
   59.0631   28.3210   48.7400 H   0  0  0  0  0  0  0  0  0  0  0  0
   59.5030   29.0500   46.7480 C   0  0  0  0  0  0  0  0  0  0  0  0
   61.0700   29.9920   47.2970 Br  0  0  0  0  0  0  0  0  0  0  0  0
   59.1050   29.0750   45.4100 C   0  0  0  0  0  0  0  0  0  0  0  0
   59.7081   29.6262   44.6735 H   0  0  0  0  0  0  0  0  0  0  0  0
   57.9410   28.4030   44.9930 C   0  0  0  0  0  0  0  0  0  0  0  0
   57.5220   28.5180   43.5470 C   0  0  0  0  0  0  0  0  0  0  0  0
   57.0722   27.5677   43.2235 H   0  0  0  0  0  0  0  0  0  0  0  0
   58.4082   28.7446   42.9360 H   0  0  0  0  0  0  0  0  0  0  0  0
   56.3290   29.8320   43.3460 S   0  0  0  0  0  0  0  0  0  0  0  0
   55.0240   29.4480   43.9860 O   0  0  0  0  0  0  0  0  0  0  0  0
   56.0950   30.0850   41.8830 O   0  0  0  0  0  0  0  0  0  0  0  0
   56.9330   31.2940   44.0990 C   0  0  0  0  0  0  0  0  0  0  0  0
   56.2680   31.9650   45.0640 N   0  0  0  0  0  0  0  0  0  0  0  0
   56.9560   32.9920   45.5570 N   0  0  0  0  0  0  0  0  0  0  0  0
   58.1760   33.1310   44.9890 C   0  0  0  0  0  0  0  0  0  0  0  0
   59.1300   34.1440   45.3390 N   0  0  0  0  0  0  0  0  0  0  0  0
   59.9060   34.1500   46.3840 C   0  0  0  0  0  0  0  0  0  0  0  0
   61.2230   33.8040   46.2920 N   0  0  0  0  0  0  0  0  0  0  0  0
   62.0510   33.8080   47.3730 C   0  0  0  0  0  0  0  0  0  0  0  0
   63.4870   33.4250   47.2130 C   0  0  0  0  0  0  0  0  0  0  0  0
   63.9465   33.3024   48.2049 H   0  0  0  0  0  0  0  0  0  0  0  0
   63.5542   32.4775   46.6582 H   0  0  0  0  0  0  0  0  0  0  0  0
   64.0171   34.2132   46.6582 H   0  0  0  0  0  0  0  0  0  0  0  0
   61.5520   34.1790   48.6280 C   0  0  0  0  0  0  0  0  0  0  0  0
   62.2114   34.1873   49.5084 H   0  0  0  0  0  0  0  0  0  0  0  0
   60.2090   34.5380   48.7490 C   0  0  0  0  0  0  0  0  0  0  0  0
   59.8044   34.8313   49.7289 H   0  0  0  0  0  0  0  0  0  0  0  0
   59.3790   34.5250   47.6270 C   0  0  0  0  0  0  0  0  0  0  0  0
   58.3196   34.8069   47.7178 H   0  0  0  0  0  0  0  0  0  0  0  0
   58.4570   31.9540   43.8200 S   0  0  0  0  0  0  0  0  0  0  0  0
  1  2  1  0
  2  3  1  0
  3  4  2  0
  4  5  1  0
  4  6  1  0
  6  7  1  0
  6  8  2  0
  8  9  1  0
  8 10  1  0
 10 11  1  0
 10 12  2  0
 12 13  1  0
 13 14  1  0
 13 15  1  0
 13 16  1  0
 16 17  2  0
 16 18  2  0
 16 19  1  0
 19 20  2  0
 20 21  1  0
 21 22  2  0
 22 23  1  0
 23 24  2  0
 24 25  1  0
 25 26  1  0
 26 27  1  0
 27 28  1  0
 27 29  1  0
 27 30  1  0
 26 31  2  0
 31 32  1  0
 31 33  1  0
 33 34  1  0
 33 35  2  0
 35 36  1  0
 22 37  1  0
 12  3  1  0
 37 19  1  0
 35 24  1  0
M  CHG  1  25  -1
M  END
>  <UniqueID>  (45) 
42

>  <SMILES>  (45) 
Cc1ccc/c(=N/c2nnc(S(=O)(=O)Cc3cc(Br)ccc3O)s2)[n-]1

>  <Energy>  (45) 
72.31947052035665

>  <Genealogy>  (45) 
Cc1cccc(=Nc2nnc(S(=O)(=O)Cc3cc(Br)ccc3O)s2)[n-]1 (protonated)
Cc1ccc/c(=N/c2nnc(S(=O)(=O)Cc3cc(Br)ccc3O)s2)[n-]1 (cis-trans isomerization)
Cc1ccc/c(=N/c2nnc(S(=O)(=O)Cc3cc(Br)ccc3O)s2)[n-]1 (3D coordinates assigned)
Cc1ccc/c(=N/c2nnc(S(=O)(=O)Cc3cc(Br)ccc3O)s2)[n-]1 (optimized conformer: 72.31947052035665 kcal/mol)

>  <smiles>  (45) 
Cc1cccc(=Nc2nnc(S(=O)(=O)Cc3cc(Br)ccc3O)s2)[nH]1

>  <score_type>  (45) 
oracle

>  <origin>  (45) 
adg

>  <m_score__min__energy>  (45) 
-11.199999999999999

>  <m_primary>  (45) 
energy

$$$$
45:0
     RDKit          3D

 35 37  0  0  0  0  0  0  0  0999 V2000
   58.1080   31.3910   47.1630 H   0  0  0  0  0  0  0  0  0  0  0  0
   59.0630   31.0600   47.4280 N   0  0  0  0  0  0  0  0  0  0  0  0
   60.1300   31.7860   47.3030 C   0  0  0  0  0  0  0  0  0  0  0  0
   61.3360   31.2370   47.6030 N   0  0  0  0  0  0  0  0  0  0  0  0
   62.4950   31.9380   47.5010 C   0  0  0  0  0  0  0  0  0  0  0  0
   63.4517   31.4579   47.7543 H   0  0  0  0  0  0  0  0  0  0  0  0
   62.4730   33.2640   47.0760 C   0  0  0  0  0  0  0  0  0  0  0  0
   63.4092   33.8354   46.9918 H   0  0  0  0  0  0  0  0  0  0  0  0
   61.2530   33.8610   46.7580 C   0  0  0  0  0  0  0  0  0  0  0  0
   61.2262   34.9061   46.4158 H   0  0  0  0  0  0  0  0  0  0  0  0
   60.0560   33.1290   46.8740 C   0  0  0  0  0  0  0  0  0  0  0  0
   58.8000   33.6950   46.5840 O   0  0  0  0  0  0  0  0  0  0  0  0
   58.3080   34.0000   45.2780 C   0  0  0  0  0  0  0  0  0  0  0  0
   59.1273   34.4203   44.6763 H   0  0  0  0  0  0  0  0  0  0  0  0
   57.4858   34.7237   45.3788 H   0  0  0  0  0  0  0  0  0  0  0  0
   57.7780   32.7780   44.5930 C   0  0  0  0  0  0  0  0  0  0  0  0
   57.1970   31.7420   45.2380 N   0  0  0  0  0  0  0  0  0  0  0  0
   56.7660   30.7820   44.3750 C   0  0  0  0  0  0  0  0  0  0  0  0
   56.1070   29.5790   44.8020 N   0  0  0  0  0  0  0  0  0  0  0  0
   56.6590   28.4960   45.2680 C   0  0  0  0  0  0  0  0  0  0  0  0
   55.9250   27.4210   45.6240 N   0  0  0  0  0  0  0  0  0  0  0  0
   56.7050   26.4080   46.0970 C   0  0  0  0  0  0  0  0  0  0  0  0
   56.1280   25.1340   46.5450 C   0  0  0  0  0  0  0  0  0  0  0  0
   56.8440   24.3150   47.1840 O   0  0  0  0  0  0  0  0  0  0  0  0
   54.7910   24.8360   46.2620 O   0  0  0  0  0  0  0  0  0  0  0  0
   54.3960   24.0960   45.1140 C   0  0  0  0  0  0  0  0  0  0  0  0
   53.8998   23.1664   45.4298 H   0  0  0  0  0  0  0  0  0  0  0  0
   53.6990   24.6975   44.5120 H   0  0  0  0  0  0  0  0  0  0  0  0
   55.2836   23.8516   44.5120 H   0  0  0  0  0  0  0  0  0  0  0  0
   58.0730   26.6760   46.1220 C   0  0  0  0  0  0  0  0  0  0  0  0
   58.8608   25.9907   46.4678 H   0  0  0  0  0  0  0  0  0  0  0  0
   58.3050   28.2320   45.5300 S   0  0  0  0  0  0  0  0  0  0  0  0
   57.0070   31.0440   43.0320 C   0  0  0  0  0  0  0  0  0  0  0  0
   56.7437   30.3913   42.1866 H   0  0  0  0  0  0  0  0  0  0  0  0
   57.7740   32.5390   42.9300 S   0  0  0  0  0  0  0  0  0  0  0  0
  1  2  1  0
  2  3  2  3
  3  4  1  0
  4  5  1  0
  5  6  1  0
  5  7  2  0
  7  8  1  0
  7  9  1  0
  9 10  1  0
  9 11  2  0
 11 12  1  0
 12 13  1  0
 13 14  1  0
 13 15  1  0
 13 16  1  0
 16 17  2  0
 17 18  1  0
 18 19  1  0
 19 20  2  0
 20 21  1  0
 21 22  1  0
 22 23  1  0
 23 24  2  0
 23 25  1  0
 25 26  1  0
 26 27  1  0
 26 28  1  0
 26 29  1  0
 22 30  2  0
 30 31  1  0
 30 32  1  0
 18 33  2  0
 33 34  1  0
 33 35  1  0
 11  3  1  0
 35 16  1  0
 32 20  1  0
M  CHG  2   4  -1  21  -1
M  END
>  <UniqueID>  (46) 
43

>  <SMILES>  (46) 
COC(=O)c1cs/c(=N\c2csc(COc3ccc[n-]c3=N)n2)[n-]1

>  <Energy>  (46) 
96.83746364370363

>  <Genealogy>  (46) 
COC(=O)c1csc(=Nc2csc(COc3ccc[n-]c3=N)n2)[n-]1 (protonated)
COC(=O)c1cs/c(=N\c2csc(COc3ccc[n-]c3=N)n2)[n-]1 (cis-trans isomerization)
COC(=O)c1cs/c(=N\c2csc(COc3ccc[n-]c3=N)n2)[n-]1 (3D coordinates assigned)
COC(=O)c1cs/c(=N\c2csc(COc3ccc[n-]c3=N)n2)[n-]1 (optimized conformer: 96.83746364370363 kcal/mol)

>  <smiles>  (46) 
COC(=O)c1csc(=Nc2csc(COc3ccc[nH]c3=N)n2)[nH]1

>  <score_type>  (46) 
oracle

>  <origin>  (46) 
adg

>  <m_score__min__energy>  (46) 
-11.050000000000001

>  <m_primary>  (46) 
energy

$$$$
46:0
     RDKit          3D

 47 49  0  0  0  0  0  0  0  0999 V2000
   56.1480   30.0370   43.1610 C   0  0  0  0  0  0  0  0  0  0  0  0
   57.1830   30.1880   44.5980 S   0  0  0  0  0  0  0  0  0  0  0  0
   58.6140   29.9460   44.2080 O   0  0  0  0  0  0  0  0  0  0  0  0
   56.7500   29.1770   45.6210 O   0  0  0  0  0  0  0  0  0  0  0  0
   57.0090   31.7880   45.2390 N   0  0  0  0  0  0  0  0  0  0  0  0
   58.0750   32.7170   45.4840 C   0  0  0  0  0  0  0  0  0  0  0  0
   57.9490   34.0680   45.1270 C   0  0  0  0  0  0  0  0  0  0  0  0
   58.9800   34.9640   45.3880 C   0  0  0  0  0  0  0  0  0  0  0  0
   60.1480   34.5280   46.0030 C   0  0  0  0  0  0  0  0  0  0  0  0
   60.3200   33.1820   46.3640 C   0  0  0  0  0  0  0  0  0  0  0  0
   61.8520   32.7470   47.1710 S   0  0  0  0  0  0  0  0  0  0  0  0
   62.9730   33.4310   46.4410 O   0  0  0  0  0  0  0  0  0  0  0  0
   62.1050   31.2680   47.0610 O   0  0  0  0  0  0  0  0  0  0  0  0
   61.9230   33.2800   48.8410 N   0  0  0  0  0  0  0  0  0  0  0  0
   62.1720   32.1900   49.7830 C   0  0  0  0  0  0  0  0  0  0  0  0
   61.6720   32.6760   51.1360 C   0  0  0  0  0  0  0  0  0  0  0  0
   60.7390   33.8390   50.8260 C   0  0  0  0  0  0  0  0  0  0  0  0
   60.6940   33.9140   49.3090 C   0  0  0  0  0  0  0  0  0  0  0  0
   59.2640   32.2540   46.1050 C   0  0  0  0  0  0  0  0  0  0  0  0
   59.3570   30.8560   46.4820 N   0  0  0  0  0  0  0  0  0  0  0  0
   59.2680   30.6900   47.9160 C   0  0  0  0  0  0  0  0  0  0  0  0
   58.5680   31.6190   48.7120 C   0  0  0  0  0  0  0  0  0  0  0  0
   58.4820   31.4440   50.0950 C   0  0  0  0  0  0  0  0  0  0  0  0
   59.0830   30.3380   50.7030 C   0  0  0  0  0  0  0  0  0  0  0  0
   58.9770   30.1240   52.4400 Cl  0  0  0  0  0  0  0  0  0  0  0  0
   59.7700   29.4030   49.9240 C   0  0  0  0  0  0  0  0  0  0  0  0
   59.8580   29.5730   48.5390 C   0  0  0  0  0  0  0  0  0  0  0  0
   55.1048   29.8848   43.4749 H   0  0  0  0  0  0  0  0  0  0  0  0
   56.2197   30.9551   42.5594 H   0  0  0  0  0  0  0  0  0  0  0  0
   56.4790   29.1776   42.5594 H   0  0  0  0  0  0  0  0  0  0  0  0
   57.0291   34.4206   44.6377 H   0  0  0  0  0  0  0  0  0  0  0  0
   58.8709   36.0218   45.1067 H   0  0  0  0  0  0  0  0  0  0  0  0
   60.9515   35.2501   46.2104 H   0  0  0  0  0  0  0  0  0  0  0  0
   61.6236   31.2874   49.4755 H   0  0  0  0  0  0  0  0  0  0  0  0
   63.2398   31.9284   49.8204 H   0  0  0  0  0  0  0  0  0  0  0  0
   61.1281   31.8740   51.6565 H   0  0  0  0  0  0  0  0  0  0  0  0
   62.4997   32.9787   51.7943 H   0  0  0  0  0  0  0  0  0  0  0  0
   59.7352   33.6485   51.2336 H   0  0  0  0  0  0  0  0  0  0  0  0
   61.0884   34.7800   51.2759 H   0  0  0  0  0  0  0  0  0  0  0  0
   59.8152   33.3752   48.9251 H   0  0  0  0  0  0  0  0  0  0  0  0
   60.6165   34.9536   48.9579 H   0  0  0  0  0  0  0  0  0  0  0  0
   58.6300   30.2640   46.0330 H   0  0  0  0  0  0  0  0  0  0  0  0
   60.2690   30.4860   46.1240 H   0  0  0  0  0  0  0  0  0  0  0  0
   58.0859   32.4881   48.2406 H   0  0  0  0  0  0  0  0  0  0  0  0
   57.9395   32.1789   50.7078 H   0  0  0  0  0  0  0  0  0  0  0  0
   60.2423   28.5318   50.4013 H   0  0  0  0  0  0  0  0  0  0  0  0
   60.3924   28.8283   47.9309 H   0  0  0  0  0  0  0  0  0  0  0  0
  1  2  1  0
  2  3  2  0
  2  4  2  0
  2  5  1  0
  5  6  1  0
  6  7  2  0
  7  8  1  0
  8  9  2  0
  9 10  1  0
 10 11  1  0
 11 12  2  0
 11 13  2  0
 11 14  1  0
 14 15  1  0
 15 16  1  0
 16 17  1  0
 17 18  1  0
 10 19  2  0
 19 20  1  0
 20 21  1  0
 21 22  2  0
 22 23  1  0
 23 24  2  0
 24 25  1  0
 24 26  1  0
 26 27  2  0
 19  6  1  0
 27 21  1  0
 18 14  1  0
  1 28  1  0
  1 29  1  0
  1 30  1  0
  7 31  1  0
  8 32  1  0
  9 33  1  0
 15 34  1  0
 15 35  1  0
 16 36  1  0
 16 37  1  0
 17 38  1  0
 17 39  1  0
 18 40  1  0
 18 41  1  0
 20 42  1  0
 20 43  1  0
 22 44  1  0
 23 45  1  0
 26 46  1  0
 27 47  1  0
M  CHG  2   5  -1  20   1
M  END
>  <UniqueID>  (47) 
44

>  <SMILES>  (47) 
CS(=O)(=O)[N-]c1cccc(S(=O)(=O)N2CCCC2)c1[NH2+]c1ccc(Cl)cc1

>  <Energy>  (47) 
58.86056707531044

>  <Genealogy>  (47) 
CS(=O)(=O)[N-]c1cccc(S(=O)(=O)N2CCCC2)c1[NH2+]c1ccc(Cl)cc1 (protonated)
CS(=O)(=O)[N-]c1cccc(S(=O)(=O)N2CCCC2)c1[NH2+]c1ccc(Cl)cc1 (3D coordinates assigned)
CS(=O)(=O)[N-]c1cccc(S(=O)(=O)N2CCCC2)c1[NH2+]c1ccc(Cl)cc1 (nonaromatic ring conformer: 58.86056707531044 kcal/mol)

>  <smiles>  (47) 
CS(=O)(=O)Nc1cccc(S(=O)(=O)N2CCCC2)c1Nc1ccc(Cl)cc1

>  <score_type>  (47) 
oracle

>  <origin>  (47) 
adg

>  <m_score__min__energy>  (47) 
-7.7800000000000002

>  <m_primary>  (47) 
energy

$$$$
47:0
     RDKit          3D

 44 46  0  0  0  0  0  0  0  0999 V2000
   60.1030   28.8190   51.6600 O   0  0  0  0  0  0  0  0  0  0  0  0
   59.4760   29.4320   50.7560 C   0  0  0  0  0  0  0  0  0  0  0  0
   58.1190   29.6830   50.9290 O   0  0  0  0  0  0  0  0  0  0  0  0
   60.1720   29.8820   49.5290 C   0  0  0  0  0  0  0  0  0  0  0  0
   59.8330   29.3420   48.2750 C   0  0  0  0  0  0  0  0  0  0  0  0
   60.4940   29.7700   47.1210 C   0  0  0  0  0  0  0  0  0  0  0  0
   61.4970   30.7370   47.2030 C   0  0  0  0  0  0  0  0  0  0  0  0
   61.8470   31.2830   48.4440 C   0  0  0  0  0  0  0  0  0  0  0  0
   63.1300   32.4880   48.5310 S   0  0  0  0  0  0  0  0  0  0  0  0
   64.0930   32.0960   49.6160 O   0  0  0  0  0  0  0  0  0  0  0  0
   63.8690   32.5630   47.2240 O   0  0  0  0  0  0  0  0  0  0  0  0
   62.4500   34.0440   48.9000 N   0  0  0  0  0  0  0  0  0  0  0  0
   61.0700   33.8830   49.3640 C   0  0  0  0  0  0  0  0  0  0  0  0
   60.1460   33.8160   48.1810 C   0  0  0  0  0  0  0  0  0  0  0  0
   60.3980   34.5880   47.0380 C   0  0  0  0  0  0  0  0  0  0  0  0
   59.5230   34.5440   45.9480 C   0  0  0  0  0  0  0  0  0  0  0  0
   58.3790   33.7270   45.9860 C   0  0  0  0  0  0  0  0  0  0  0  0
   57.4600   33.6740   44.8220 C   0  0  0  0  0  0  0  0  0  0  0  0
   56.6500   34.6200   44.6260 O   0  0  0  0  0  0  0  0  0  0  0  0
   57.4100   32.5350   43.9480 N   0  0  0  0  0  0  0  0  0  0  0  0
   57.4540   31.2770   44.2900 C   0  0  0  0  0  0  0  0  0  0  0  0
   58.6640   30.5590   44.3920 C   0  0  0  0  0  0  0  0  0  0  0  0
   58.6350   29.2130   44.7640 C   0  0  0  0  0  0  0  0  0  0  0  0
   57.4140   28.5860   45.0180 C   0  0  0  0  0  0  0  0  0  0  0  0
   57.3600   26.7450   45.5220 Br  0  0  0  0  0  0  0  0  0  0  0  0
   56.2330   29.3190   44.8890 C   0  0  0  0  0  0  0  0  0  0  0  0
   56.2810   30.6300   44.5300 N   0  0  0  0  0  0  0  0  0  0  0  0
   58.1140   32.9780   47.1460 C   0  0  0  0  0  0  0  0  0  0  0  0
   58.9890   33.0260   48.2360 C   0  0  0  0  0  0  0  0  0  0  0  0
   61.1840   30.8560   49.6040 C   0  0  0  0  0  0  0  0  0  0  0  0
   59.0438   28.5792   48.2027 H   0  0  0  0  0  0  0  0  0  0  0  0
   60.2229   29.3432   46.1441 H   0  0  0  0  0  0  0  0  0  0  0  0
   62.0136   31.0709   46.2910 H   0  0  0  0  0  0  0  0  0  0  0  0
   62.4310   34.5870   48.0060 H   0  0  0  0  0  0  0  0  0  0  0  0
   60.9858   32.9544   49.9476 H   0  0  0  0  0  0  0  0  0  0  0  0
   60.7941   34.7404   49.9954 H   0  0  0  0  0  0  0  0  0  0  0  0
   61.2890   35.2319   46.9984 H   0  0  0  0  0  0  0  0  0  0  0  0
   59.7309   35.1522   45.0553 H   0  0  0  0  0  0  0  0  0  0  0  0
   59.6226   31.0552   44.1803 H   0  0  0  0  0  0  0  0  0  0  0  0
   59.5739   28.6474   44.8568 H   0  0  0  0  0  0  0  0  0  0  0  0
   55.2629   28.8360   45.0778 H   0  0  0  0  0  0  0  0  0  0  0  0
   57.2123   32.3500   47.1966 H   0  0  0  0  0  0  0  0  0  0  0  0
   58.7683   32.4410   49.1410 H   0  0  0  0  0  0  0  0  0  0  0  0
   61.4573   31.2858   50.5790 H   0  0  0  0  0  0  0  0  0  0  0  0
  1  2  2  0
  2  3  1  0
  2  4  1  0
  4  5  2  0
  5  6  1  0
  6  7  2  0
  7  8  1  0
  8  9  1  0
  9 10  2  0
  9 11  2  0
  9 12  1  0
 12 13  1  0
 13 14  1  0
 14 15  2  0
 15 16  1  0
 16 17  2  0
 17 18  1  0
 18 19  2  0
 18 20  1  0
 20 21  2  3
 21 22  1  0
 22 23  2  0
 23 24  1  0
 24 25  1  0
 24 26  2  0
 26 27  1  0
 17 28  1  0
 28 29  2  0
  8 30  2  0
 30  4  1  0
 29 14  1  0
 27 21  1  0
  5 31  1  0
  6 32  1  0
  7 33  1  0
 12 34  1  0
 13 35  1  0
 13 36  1  0
 15 37  1  0
 16 38  1  0
 22 39  1  0
 23 40  1  0
 26 41  1  0
 28 42  1  0
 29 43  1  0
 30 44  1  0
M  CHG  2   3  -1  27  -1
M  END
>  <UniqueID>  (48) 
45

>  <SMILES>  (48) 
O=C([O-])c1cccc(S(=O)(=O)NCc2ccc(C(=O)N=c3ccc(Br)c[n-]3)cc2)c1

>  <Energy>  (48) 
55.55207826615464

>  <Genealogy>  (48) 
O=C([O-])c1cccc(S(=O)(=O)NCc2ccc(C(=O)N=c3ccc(Br)c[n-]3)cc2)c1 (protonated)
O=C([O-])c1cccc(S(=O)(=O)NCc2ccc(C(=O)N=c3ccc(Br)c[n-]3)cc2)c1 (3D coordinates assigned)
O=C([O-])c1cccc(S(=O)(=O)NCc2ccc(C(=O)N=c3ccc(Br)c[n-]3)cc2)c1 (optimized conformer: 55.55207826615464 kcal/mol)

>  <smiles>  (48) 
O=C(O)c1cccc(S(=O)(=O)NCc2ccc(C(=O)N=c3ccc(Br)c[nH]3)cc2)c1

>  <score_type>  (48) 
oracle

>  <origin>  (48) 
adg

>  <m_score__min__energy>  (48) 
-13.99

>  <m_primary>  (48) 
energy

$$$$
48:0
     RDKit          3D

 47 49  0  0  0  0  0  0  0  0999 V2000
   59.5880   29.5830   49.8840 O   0  0  0  0  0  0  0  0  0  0  0  0
   59.3110   29.2810   48.6900 C   0  0  0  0  0  0  0  0  0  0  0  0
   58.9620   27.9360   48.3560 N   0  0  0  0  0  0  0  0  0  0  0  0
   59.9180   26.9930   47.7930 C   0  0  0  0  0  0  0  0  0  0  0  0
   59.4950   26.6150   46.3730 C   0  0  0  0  0  0  0  0  0  0  0  0
   57.9870   26.4680   46.2860 C   0  0  0  0  0  0  0  0  0  0  0  0
   57.1650   27.5040   45.7860 C   0  0  0  0  0  0  0  0  0  0  0  0
   57.7060   28.8160   45.3890 C   0  0  0  0  0  0  0  0  0  0  0  0
   58.8640   28.8890   44.9040 O   0  0  0  0  0  0  0  0  0  0  0  0
   56.9410   30.0150   45.5520 N   0  0  0  0  0  0  0  0  0  0  0  0
   56.7070   30.9800   44.4840 C   0  0  0  0  0  0  0  0  0  0  0  0
   57.4670   32.2390   44.7790 C   0  0  0  0  0  0  0  0  0  0  0  0
   58.4910   32.6710   43.9200 C   0  0  0  0  0  0  0  0  0  0  0  0
   59.1770   33.8610   44.1860 C   0  0  0  0  0  0  0  0  0  0  0  0
   58.8360   34.6320   45.2990 C   0  0  0  0  0  0  0  0  0  0  0  0
   59.5000   35.7870   45.5540 F   0  0  0  0  0  0  0  0  0  0  0  0
   57.8060   34.2180   46.1490 C   0  0  0  0  0  0  0  0  0  0  0  0
   57.1190   33.0280   45.8890 C   0  0  0  0  0  0  0  0  0  0  0  0
   55.8300   27.2920   45.6420 N   0  0  0  0  0  0  0  0  0  0  0  0
   55.2620   26.1060   45.9710 C   0  0  0  0  0  0  0  0  0  0  0  0
   54.0230   25.9430   45.8330 O   0  0  0  0  0  0  0  0  0  0  0  0
   56.0290   25.0940   46.4440 N   0  0  0  0  0  0  0  0  0  0  0  0
   57.3700   25.2420   46.6010 C   0  0  0  0  0  0  0  0  0  0  0  0
   58.0470   24.2670   47.0230 O   0  0  0  0  0  0  0  0  0  0  0  0
   59.3020   30.2840   47.6670 N   0  0  0  0  0  0  0  0  0  0  0  0
   59.8050   31.6190   47.8500 C   0  0  0  0  0  0  0  0  0  0  0  0
   59.0930   32.5660   48.6100 C   0  0  0  0  0  0  0  0  0  0  0  0
   59.6080   33.8520   48.8000 C   0  0  0  0  0  0  0  0  0  0  0  0
   60.8410   34.2020   48.2470 C   0  0  0  0  0  0  0  0  0  0  0  0
   61.5690   33.2640   47.5070 C   0  0  0  0  0  0  0  0  0  0  0  0
   63.1220   33.7140   46.8230 Cl  0  0  0  0  0  0  0  0  0  0  0  0
   61.0560   31.9720   47.3130 C   0  0  0  0  0  0  0  0  0  0  0  0
   61.7620   31.0690   46.5850 F   0  0  0  0  0  0  0  0  0  0  0  0
   60.9155   27.4559   47.7662 H   0  0  0  0  0  0  0  0  0  0  0  0
   59.9471   26.0878   48.4173 H   0  0  0  0  0  0  0  0  0  0  0  0
   59.8223   27.4013   45.6769 H   0  0  0  0  0  0  0  0  0  0  0  0
   59.9608   25.6543   46.1082 H   0  0  0  0  0  0  0  0  0  0  0  0
   57.0497   30.5595   43.5271 H   0  0  0  0  0  0  0  0  0  0  0  0
   55.6322   31.2047   44.4191 H   0  0  0  0  0  0  0  0  0  0  0  0
   58.7543   32.0720   43.0357 H   0  0  0  0  0  0  0  0  0  0  0  0
   59.9862   34.1897   43.5173 H   0  0  0  0  0  0  0  0  0  0  0  0
   57.5358   34.8288   47.0230 H   0  0  0  0  0  0  0  0  0  0  0  0
   56.3040   32.7085   46.5551 H   0  0  0  0  0  0  0  0  0  0  0  0
   58.8180   30.0540   46.7700 H   0  0  0  0  0  0  0  0  0  0  0  0
   58.1258   32.2928   49.0571 H   0  0  0  0  0  0  0  0  0  0  0  0
   59.0403   34.5894   49.3865 H   0  0  0  0  0  0  0  0  0  0  0  0
   61.2407   35.2163   48.3932 H   0  0  0  0  0  0  0  0  0  0  0  0
  1  2  2  0
  2  3  1  0
  3  4  1  0
  4  5  1  0
  5  6  1  0
  6  7  2  0
  7  8  1  0
  8  9  2  0
  8 10  1  0
 10 11  1  0
 11 12  1  0
 12 13  2  0
 13 14  1  0
 14 15  2  0
 15 16  1  0
 15 17  1  0
 17 18  2  0
  7 19  1  0
 19 20  1  0
 20 21  2  0
 20 22  1  0
 22 23  1  0
 23 24  2  0
  2 25  1  0
 25 26  1  0
 26 27  2  0
 27 28  1  0
 28 29  2  0
 29 30  1  0
 30 31  1  0
 30 32  2  0
 32 33  1  0
 23  6  1  0
 32 26  1  0
 18 12  1  0
  4 34  1  0
  4 35  1  0
  5 36  1  0
  5 37  1  0
 11 38  1  0
 11 39  1  0
 13 40  1  0
 14 41  1  0
 17 42  1  0
 18 43  1  0
 25 44  1  0
 27 45  1  0
 28 46  1  0
 29 47  1  0
M  CHG  4   3  -1  10  -1  19  -1  22  -1
M  END
>  <UniqueID>  (49) 
46

>  <SMILES>  (49) 
O=C([N-]CCc1c(C(=O)[N-]Cc2ccc(F)cc2)[n-]c(=O)[n-]c1=O)Nc1cccc(Cl)c1F

>  <Energy>  (49) 
54.821163159849156

>  <Genealogy>  (49) 
O=C([N-]CCc1c(C(=O)[N-]Cc2ccc(F)cc2)[n-]c(=O)[n-]c1=O)Nc1cccc(Cl)c1F (protonated)
O=C([N-]CCc1c(C(=O)[N-]Cc2ccc(F)cc2)[n-]c(=O)[n-]c1=O)Nc1cccc(Cl)c1F (3D coordinates assigned)
O=C([N-]CCc1c(C(=O)[N-]Cc2ccc(F)cc2)[n-]c(=O)[n-]c1=O)Nc1cccc(Cl)c1F (optimized conformer: 54.821163159849156 kcal/mol)

>  <smiles>  (49) 
O=C(NCCc1c(C(=O)NCc2ccc(F)cc2)[nH]c(=O)[nH]c1=O)Nc1cccc(Cl)c1F

>  <score_type>  (49) 
oracle

>  <origin>  (49) 
adg

>  <m_score__min__energy>  (49) 
-15.779999999999999

>  <m_primary>  (49) 
energy

$$$$
49:0
     RDKit          3D

 44 47  0  0  0  0  0  0  0  0999 V2000
   54.4950   28.1090   52.7530 C   0  0  0  0  0  0  0  0  0  0  0  0
   54.7810   29.4170   52.6510 C   0  0  0  0  0  0  0  0  0  0  0  0
   53.8940   30.4560   52.3280 C   0  0  0  0  0  0  0  0  0  0  0  0
   52.5500   30.4760   52.2350 C   0  0  0  0  0  0  0  0  0  0  0  0
   51.7780   30.8380   51.0370 C   0  0  0  0  0  0  0  0  0  0  0  0
   51.7440   30.0890   49.9210 N   0  0  0  0  0  0  0  0  0  0  0  0
   51.0370   30.8490   49.0560 C   0  0  0  0  0  0  0  0  0  0  0  0
   50.7720   30.4750   47.8840 O   0  0  0  0  0  0  0  0  0  0  0  0
   50.6470   32.0470   49.5420 N   0  0  0  0  0  0  0  0  0  0  0  0
   51.1360   32.0310   50.7920 C   0  0  0  0  0  0  0  0  0  0  0  0
   51.0240   33.0950   51.6780 O   0  0  0  0  0  0  0  0  0  0  0  0
   54.6760   31.5780   52.0990 C   0  0  0  0  0  0  0  0  0  0  0  0
   55.9810   31.2130   52.3560 C   0  0  0  0  0  0  0  0  0  0  0  0
   57.1600   32.1310   52.2390 C   0  0  0  0  0  0  0  0  0  0  0  0
   56.0470   29.9050   52.6920 N   0  0  0  0  0  0  0  0  0  0  0  0
   57.2520   29.1750   52.9850 C   0  0  0  0  0  0  0  0  0  0  0  0
   57.3420   28.4090   54.1550 C   0  0  0  0  0  0  0  0  0  0  0  0
   58.5080   27.6960   54.4430 C   0  0  0  0  0  0  0  0  0  0  0  0
   59.6030   27.7300   53.5610 C   0  0  0  0  0  0  0  0  0  0  0  0
   60.8380   26.9730   53.8810 C   0  0  0  0  0  0  0  0  0  0  0  0
   61.4890   27.2640   54.9220 O   0  0  0  0  0  0  0  0  0  0  0  0
   61.2970   25.9090   53.0340 N   0  0  0  0  0  0  0  0  0  0  0  0
   62.5710   25.2410   53.2790 C   0  0  0  0  0  0  0  0  0  0  0  0
   63.2030   24.6460   52.0320 C   0  0  0  0  0  0  0  0  0  0  0  0
   63.7490   25.9380   52.6200 C   0  0  0  0  0  0  0  0  0  0  0  0
   59.5100   28.5080   52.3910 C   0  0  0  0  0  0  0  0  0  0  0  0
   58.3420   29.2210   52.1050 C   0  0  0  0  0  0  0  0  0  0  0  0
   58.2700   29.9550   50.9650 F   0  0  0  0  0  0  0  0  0  0  0  0
   55.2867   27.3917   53.0149 H   0  0  0  0  0  0  0  0  0  0  0  0
   53.4690   27.7548   52.5746 H   0  0  0  0  0  0  0  0  0  0  0  0
   51.9805   30.1972   53.1338 H   0  0  0  0  0  0  0  0  0  0  0  0
   54.3235   32.5683   51.7748 H   0  0  0  0  0  0  0  0  0  0  0  0
   57.5123   32.4053   53.2443 H   0  0  0  0  0  0  0  0  0  0  0  0
   57.9683   31.6220   51.6934 H   0  0  0  0  0  0  0  0  0  0  0  0
   56.8647   33.0394   51.6934 H   0  0  0  0  0  0  0  0  0  0  0  0
   56.4903   28.3691   54.8499 H   0  0  0  0  0  0  0  0  0  0  0  0
   58.5704   27.1029   55.3673 H   0  0  0  0  0  0  0  0  0  0  0  0
   60.6560   25.5000   52.3180 H   0  0  0  0  0  0  0  0  0  0  0  0
   62.3450   24.8683   54.2889 H   0  0  0  0  0  0  0  0  0  0  0  0
   63.7902   23.7185   52.1019 H   0  0  0  0  0  0  0  0  0  0  0  0
   62.8322   24.3366   51.0437 H   0  0  0  0  0  0  0  0  0  0  0  0
   64.7312   25.9451   53.1152 H   0  0  0  0  0  0  0  0  0  0  0  0
   63.9368   26.9505   52.2332 H   0  0  0  0  0  0  0  0  0  0  0  0
   60.3623   28.5551   51.6972 H   0  0  0  0  0  0  0  0  0  0  0  0
  1  2  2  0
  2  3  1  0
  3  4  2  3
  4  5  1  0
  5  6  1  0
  6  7  1  0
  7  8  2  0
  7  9  1  0
  9 10  1  0
 10 11  1  0
  3 12  1  0
 12 13  2  0
 13 14  1  0
 13 15  1  0
 15 16  1  0
 16 17  2  0
 17 18  1  0
 18 19  2  0
 19 20  1  0
 20 21  2  0
 20 22  1  0
 22 23  1  0
 23 24  1  0
 24 25  1  0
 19 26  1  0
 26 27  2  0
 27 28  1  0
 15  2  1  0
 27 16  1  0
 10  5  2  0
 25 23  1  0
  1 29  1  0
  1 30  1  0
  4 31  1  0
 12 32  1  0
 14 33  1  0
 14 34  1  0
 14 35  1  0
 17 36  1  0
 18 37  1  0
 22 38  1  0
 23 39  1  0
 24 40  1  0
 24 41  1  0
 25 42  1  0
 25 43  1  0
 26 44  1  0
M  CHG  3   6  -1   9  -1  11  -1
M  END
>  <UniqueID>  (50) 
47

>  <SMILES>  (50) 
C=c1c(=Cc2[n-]c(=O)[n-]c2[O-])cc(C)n1-c1ccc(C(=O)NC2CC2)cc1F

>  <Energy>  (50) 
388.05312329125064

>  <Genealogy>  (50) 
C=c1c(=Cc2[n-]c(=O)[n-]c2[O-])cc(C)n1-c1ccc(C(=O)NC2CC2)cc1F (protonated)
C=c1c(=Cc2[n-]c(=O)[n-]c2[O-])cc(C)n1-c1ccc(C(=O)NC2CC2)cc1F (3D coordinates assigned)
C=c1c(=Cc2[n-]c(=O)[n-]c2[O-])cc(C)n1-c1ccc(C(=O)NC2CC2)cc1F (nonaromatic ring conformer: 388.05312329125064 kcal/mol)

>  <smiles>  (50) 
C=c1c(=Cc2[nH]c(=O)[nH]c2O)cc(C)n1-c1ccc(C(=O)NC2CC2)cc1F

>  <score_type>  (50) 
oracle

>  <origin>  (50) 
adg

>  <m_score__min__energy>  (50) 
-15.300000000000001

>  <m_primary>  (50) 
energy

$$$$
50:0
     RDKit          3D

 77 81  0  0  0  0  0  0  0  0999 V2000
   58.0960   32.4880   53.0300 C   0  0  0  0  0  0  0  0  0  0  0  0
   58.3060   31.1950   52.7720 C   0  0  0  0  0  0  0  0  0  0  0  0
   58.5290   30.6590   51.4190 C   0  0  0  0  0  0  0  0  0  0  0  0
   57.5360   30.2090   50.7830 O   0  0  0  0  0  0  0  0  0  0  0  0
   59.8210   30.7030   50.7870 N   0  0  0  0  0  0  0  0  0  0  0  0
   60.1200   30.0030   49.5660 C   0  0  0  0  0  0  0  0  0  0  0  0
   60.5790   30.7210   48.4550 C   0  0  0  0  0  0  0  0  0  0  0  0
   60.7960   30.0750   47.2350 C   0  0  0  0  0  0  0  0  0  0  0  0
   60.5760   28.6940   47.1140 C   0  0  0  0  0  0  0  0  0  0  0  0
   60.7950   28.0100   45.7890 C   0  0  0  0  0  0  0  0  0  0  0  0
   59.8870   26.7850   45.6050 C   0  0  0  0  0  0  0  0  0  0  0  0
   58.4640   27.1470   45.6510 N   0  0  0  0  0  0  0  0  0  0  0  0
   57.3970   26.3900   46.0130 C   0  0  0  0  0  0  0  0  0  0  0  0
   57.3960   24.9090   46.2960 C   0  0  0  0  0  0  0  0  0  0  0  0
   56.2190   24.2160   45.6490 C   0  0  0  0  0  0  0  0  0  0  0  0
   56.3380   23.7070   44.5060 O   0  0  0  0  0  0  0  0  0  0  0  0
   54.9450   24.1330   46.2980 N   0  0  0  0  0  0  0  0  0  0  0  0
   54.1790   22.9140   46.4900 C   0  0  0  0  0  0  0  0  0  0  0  0
   52.8020   23.0980   45.9250 C   0  0  0  0  0  0  0  0  0  0  0  0
   51.7980   22.1590   46.2210 C   0  0  0  0  0  0  0  0  0  0  0  0
   50.5280   22.2830   45.6520 C   0  0  0  0  0  0  0  0  0  0  0  0
   50.2540   23.3350   44.7710 C   0  0  0  0  0  0  0  0  0  0  0  0
   51.2490   24.2710   44.4650 C   0  0  0  0  0  0  0  0  0  0  0  0
   52.5200   24.1530   45.0390 C   0  0  0  0  0  0  0  0  0  0  0  0
   56.2570   27.1520   45.8430 C   0  0  0  0  0  0  0  0  0  0  0  0
   54.9520   26.7090   46.0230 O   0  0  0  0  0  0  0  0  0  0  0  0
   56.5900   28.3780   45.3990 N   0  0  0  0  0  0  0  0  0  0  0  0
   55.6950   29.3410   44.7540 C   0  0  0  0  0  0  0  0  0  0  0  0
   56.5320   30.3520   44.0140 C   0  0  0  0  0  0  0  0  0  0  0  0
   56.6270   30.2770   42.6130 C   0  0  0  0  0  0  0  0  0  0  0  0
   57.2300   31.3050   41.8950 C   0  0  0  0  0  0  0  0  0  0  0  0
   57.7400   32.4210   42.5640 C   0  0  0  0  0  0  0  0  0  0  0  0
   57.6540   32.5140   43.9570 C   0  0  0  0  0  0  0  0  0  0  0  0
   58.1820   33.6410   44.6000 O   0  0  0  0  0  0  0  0  0  0  0  0
   58.6000   33.6430   45.9420 C   0  0  0  0  0  0  0  0  0  0  0  0
   57.7530   33.0780   46.9100 C   0  0  0  0  0  0  0  0  0  0  0  0
   58.1550   32.9960   48.2470 C   0  0  0  0  0  0  0  0  0  0  0  0
   59.3960   33.5100   48.6380 C   0  0  0  0  0  0  0  0  0  0  0  0
   60.2360   34.1060   47.6860 C   0  0  0  0  0  0  0  0  0  0  0  0
   59.8420   34.1750   46.3440 C   0  0  0  0  0  0  0  0  0  0  0  0
   57.0630   31.4710   44.6880 C   0  0  0  0  0  0  0  0  0  0  0  0
   57.9370   28.3410   45.2950 C   0  0  0  0  0  0  0  0  0  0  0  0
   58.6270   29.3120   44.8810 O   0  0  0  0  0  0  0  0  0  0  0  0
   60.1700   27.9630   48.2390 C   0  0  0  0  0  0  0  0  0  0  0  0
   59.9500   28.6110   49.4600 C   0  0  0  0  0  0  0  0  0  0  0  0
   57.9359   32.8233   54.0653 H   0  0  0  0  0  0  0  0  0  0  0  0
   58.0831   33.2180   52.2072 H   0  0  0  0  0  0  0  0  0  0  0  0
   58.3128   30.4911   53.6172 H   0  0  0  0  0  0  0  0  0  0  0  0
   60.5310   31.3870   51.1430 H   0  0  0  0  0  0  0  0  0  0  0  0
   60.7700   31.8007   48.5431 H   0  0  0  0  0  0  0  0  0  0  0  0
   61.1412   30.6521   46.3645 H   0  0  0  0  0  0  0  0  0  0  0  0
   60.5871   28.7282   44.9821 H   0  0  0  0  0  0  0  0  0  0  0  0
   61.8380   27.6616   45.7599 H   0  0  0  0  0  0  0  0  0  0  0  0
   60.1054   26.3234   44.6307 H   0  0  0  0  0  0  0  0  0  0  0  0
   60.0877   26.0846   46.4291 H   0  0  0  0  0  0  0  0  0  0  0  0
   58.3263   24.4710   45.9052 H   0  0  0  0  0  0  0  0  0  0  0  0
   57.3203   24.7684   47.3843 H   0  0  0  0  0  0  0  0  0  0  0  0
   54.6792   22.0810   45.9744 H   0  0  0  0  0  0  0  0  0  0  0  0
   54.1087   22.6891   47.5645 H   0  0  0  0  0  0  0  0  0  0  0  0
   52.0134   21.3235   46.9033 H   0  0  0  0  0  0  0  0  0  0  0  0
   49.7426   21.5528   45.8969 H   0  0  0  0  0  0  0  0  0  0  0  0
   49.2556   23.4266   44.3184 H   0  0  0  0  0  0  0  0  0  0  0  0
   51.0320   25.0988   43.7738 H   0  0  0  0  0  0  0  0  0  0  0  0
   53.3013   24.8883   44.7962 H   0  0  0  0  0  0  0  0  0  0  0  0
   55.0346   28.8176   44.0470 H   0  0  0  0  0  0  0  0  0  0  0  0
   55.0768   29.8459   45.5110 H   0  0  0  0  0  0  0  0  0  0  0  0
   56.2230   29.4021   42.0826 H   0  0  0  0  0  0  0  0  0  0  0  0
   57.3054   31.2392   40.7996 H   0  0  0  0  0  0  0  0  0  0  0  0
   58.2126   33.2323   41.9908 H   0  0  0  0  0  0  0  0  0  0  0  0
   56.7647   32.6967   46.6137 H   0  0  0  0  0  0  0  0  0  0  0  0
   57.4950   32.5271   48.9916 H   0  0  0  0  0  0  0  0  0  0  0  0
   59.7122   33.4469   49.6897 H   0  0  0  0  0  0  0  0  0  0  0  0
   61.2071   34.5204   47.9944 H   0  0  0  0  0  0  0  0  0  0  0  0
   60.5034   34.6455   45.6016 H   0  0  0  0  0  0  0  0  0  0  0  0
   57.0143   31.5268   45.7855 H   0  0  0  0  0  0  0  0  0  0  0  0
   60.0237   26.8755   48.1619 H   0  0  0  0  0  0  0  0  0  0  0  0
   59.6426   28.0286   50.3411 H   0  0  0  0  0  0  0  0  0  0  0  0
  1  2  2  0
  2  3  1  0
  3  4  2  0
  3  5  1  0
  5  6  1  0
  6  7  2  0
  7  8  1  0
  8  9  2  0
  9 10  1  0
 10 11  1  0
 11 12  1  0
 12 13  1  0
 13 14  1  0
 14 15  1  0
 15 16  2  0
 15 17  1  0
 17 18  1  0
 18 19  1  0
 19 20  2  0
 20 21  1  0
 21 22  2  0
 22 23  1  0
 23 24  2  0
 13 25  2  0
 25 26  1  0
 25 27  1  0
 27 28  1  0
 28 29  1  0
 29 30  2  0
 30 31  1  0
 31 32  2  0
 32 33  1  0
 33 34  1  0
 34 35  1  0
 35 36  2  0
 36 37  1  0
 37 38  2  0
 38 39  1  0
 39 40  2  0
 33 41  2  0
 27 42  1  0
 42 43  2  0
  9 44  1  0
 44 45  2  0
 45  6  1  0
 42 12  1  0
 24 19  1  0
 41 29  1  0
 40 35  1  0
  1 46  1  0
  1 47  1  0
  2 48  1  0
  5 49  1  0
  7 50  1  0
  8 51  1  0
 10 52  1  0
 10 53  1  0
 11 54  1  0
 11 55  1  0
 14 56  1  0
 14 57  1  0
 18 58  1  0
 18 59  1  0
 20 60  1  0
 21 61  1  0
 22 62  1  0
 23 63  1  0
 24 64  1  0
 28 65  1  0
 28 66  1  0
 30 67  1  0
 31 68  1  0
 32 69  1  0
 36 70  1  0
 37 71  1  0
 38 72  1  0
 39 73  1  0
 40 74  1  0
 41 75  1  0
 44 76  1  0
 45 77  1  0
M  CHG  2  17  -1  26  -1
M  END
>  <UniqueID>  (51) 
48

>  <SMILES>  (51) 
C=CC(=O)Nc1ccc(CCn2c(CC(=O)[N-]Cc3ccccc3)c([O-])n(Cc3cccc(Oc4ccccc4)c3)c2=O)cc1

>  <Energy>  (51) 
118.97771528228868

>  <Genealogy>  (51) 
C=CC(=O)Nc1ccc(CCn2c(CC(=O)[N-]Cc3ccccc3)c([O-])n(Cc3cccc(Oc4ccccc4)c3)c2=O)cc1 (protonated)
C=CC(=O)Nc1ccc(CCn2c(CC(=O)[N-]Cc3ccccc3)c([O-])n(Cc3cccc(Oc4ccccc4)c3)c2=O)cc1 (3D coordinates assigned)
C=CC(=O)Nc1ccc(CCn2c(CC(=O)[N-]Cc3ccccc3)c([O-])n(Cc3cccc(Oc4ccccc4)c3)c2=O)cc1 (optimized conformer: 118.97771528228868 kcal/mol)

>  <smiles>  (51) 
C=CC(=O)Nc1ccc(CCn2c(CC(=O)NCc3ccccc3)c(O)n(Cc3cccc(Oc4ccccc4)c3)c2=O)cc1

>  <score_type>  (51) 
oracle

>  <origin>  (51) 
adg

>  <m_score__min__energy>  (51) 
-17.030000000000001

>  <m_primary>  (51) 
energy

$$$$
51:0
     RDKit          3D

 38 40  0  0  0  0  0  0  0  0999 V2000
   55.5260   28.9810   44.8460 O   0  0  0  0  0  0  0  0  0  0  0  0
   56.7400   28.8540   45.1550 C   0  0  0  0  0  0  0  0  0  0  0  0
   57.3860   29.9350   45.8380 N   0  0  0  0  0  0  0  0  0  0  0  0
   58.5830   29.8390   46.6240 C   0  0  0  0  0  0  0  0  0  0  0  0
   58.8870   28.6620   47.3340 C   0  0  0  0  0  0  0  0  0  0  0  0
   60.0180   28.6000   48.1490 C   0  0  0  0  0  0  0  0  0  0  0  0
   60.8450   29.7170   48.2840 C   0  0  0  0  0  0  0  0  0  0  0  0
   60.5420   30.8980   47.6030 C   0  0  0  0  0  0  0  0  0  0  0  0
   59.4160   30.9680   46.7690 C   0  0  0  0  0  0  0  0  0  0  0  0
   59.1360   32.1910   46.0690 N   0  0  0  0  0  0  0  0  0  0  0  0
   58.5200   32.1490   44.7420 C   0  0  0  0  0  0  0  0  0  0  0  0
   57.6250   33.3790   44.5540 C   0  0  0  0  0  0  0  0  0  0  0  0
   58.3330   34.5690   44.8540 O   0  0  0  0  0  0  0  0  0  0  0  0
   58.6820   34.5860   46.2260 C   0  0  0  0  0  0  0  0  0  0  0  0
   59.6760   33.4660   46.5450 C   0  0  0  0  0  0  0  0  0  0  0  0
   57.4790   27.6260   44.7780 C   0  0  0  0  0  0  0  0  0  0  0  0
   58.1950   27.6330   43.7390 O   0  0  0  0  0  0  0  0  0  0  0  0
   57.4140   26.3860   45.5880 C   0  0  0  0  0  0  0  0  0  0  0  0
   58.5590   25.6110   45.8240 C   0  0  0  0  0  0  0  0  0  0  0  0
   58.4810   24.4930   46.5910 N   0  0  0  0  0  0  0  0  0  0  0  0
   57.3050   24.1050   47.1450 C   0  0  0  0  0  0  0  0  0  0  0  0
   57.2550   23.0640   47.8500 O   0  0  0  0  0  0  0  0  0  0  0  0
   56.1830   24.8430   46.9430 N   0  0  0  0  0  0  0  0  0  0  0  0
   56.2100   25.9690   46.1860 C   0  0  0  0  0  0  0  0  0  0  0  0
   55.1470   26.6250   46.0200 O   0  0  0  0  0  0  0  0  0  0  0  0
   58.2285   27.7853   47.2457 H   0  0  0  0  0  0  0  0  0  0  0  0
   60.2583   27.6703   48.6856 H   0  0  0  0  0  0  0  0  0  0  0  0
   61.7359   29.6667   48.9273 H   0  0  0  0  0  0  0  0  0  0  0  0
   61.1902   31.7788   47.7212 H   0  0  0  0  0  0  0  0  0  0  0  0
   59.3063   32.1469   43.9728 H   0  0  0  0  0  0  0  0  0  0  0  0
   57.9128   31.2365   44.6488 H   0  0  0  0  0  0  0  0  0  0  0  0
   57.2808   33.4180   43.5100 H   0  0  0  0  0  0  0  0  0  0  0  0
   56.7674   33.2979   45.2380 H   0  0  0  0  0  0  0  0  0  0  0  0
   59.1401   35.5558   46.4702 H   0  0  0  0  0  0  0  0  0  0  0  0
   57.7719   34.4325   46.8245 H   0  0  0  0  0  0  0  0  0  0  0  0
   60.6333   33.6701   46.0431 H   0  0  0  0  0  0  0  0  0  0  0  0
   59.8382   33.4152   47.6318 H   0  0  0  0  0  0  0  0  0  0  0  0
   59.5230   25.9097   45.3865 H   0  0  0  0  0  0  0  0  0  0  0  0
  1  2  2  0
  2  3  1  0
  3  4  1  0
  4  5  2  0
  5  6  1  0
  6  7  2  0
  7  8  1  0
  8  9  2  0
  9 10  1  0
 10 11  1  0
 11 12  1  0
 12 13  1  0
 13 14  1  0
 14 15  1  0
  2 16  1  0
 16 17  2  0
 16 18  1  0
 18 19  2  0
 19 20  1  0
 20 21  1  0
 21 22  2  0
 21 23  1  0
 23 24  1  0
 24 25  2  0
  9  4  1  0
 15 10  1  0
 24 18  1  0
  5 26  1  0
  6 27  1  0
  7 28  1  0
  8 29  1  0
 11 30  1  0
 11 31  1  0
 12 32  1  0
 12 33  1  0
 14 34  1  0
 14 35  1  0
 15 36  1  0
 15 37  1  0
 19 38  1  0
M  CHG  3   3  -1  20  -1  23  -1
M  END
>  <UniqueID>  (52) 
49

>  <SMILES>  (52) 
O=C([N-]c1ccccc1N1CCOCC1)C(=O)c1c[n-]c(=O)[n-]c1=O

>  <Energy>  (52) 
59.04961869115062

>  <Genealogy>  (52) 
O=C([N-]c1ccccc1N1CCOCC1)C(=O)c1c[n-]c(=O)[n-]c1=O (protonated)
O=C([N-]c1ccccc1N1CCOCC1)C(=O)c1c[n-]c(=O)[n-]c1=O (3D coordinates assigned)
O=C([N-]c1ccccc1N1CCOCC1)C(=O)c1c[n-]c(=O)[n-]c1=O (nonaromatic ring conformer: 59.04961869115062 kcal/mol)

>  <smiles>  (52) 
O=C(Nc1ccccc1N1CCOCC1)C(=O)c1c[nH]c(=O)[nH]c1=O

>  <score_type>  (52) 
oracle

>  <origin>  (52) 
adg

>  <m_score__min__energy>  (52) 
-12.779999999999999

>  <m_primary>  (52) 
energy

$$$$
52:0
     RDKit          3D

 55 58  0  0  0  0  0  0  0  0999 V2000
   57.4010   27.3920   46.3220 C   0  0  0  0  0  0  0  0  0  0  0  0
   58.3290   28.0270   45.2910 C   0  0  0  0  0  0  0  0  0  0  0  0
   58.2940   29.5320   45.3960 C   0  0  0  0  0  0  0  0  0  0  0  0
   57.3310   30.3890   44.8460 C   0  0  0  0  0  0  0  0  0  0  0  0
   56.1190   30.0030   44.0870 C   0  0  0  0  0  0  0  0  0  0  0  0
   55.1480   29.1340   44.6660 N   0  0  0  0  0  0  0  0  0  0  0  0
   55.9220   30.4520   42.9270 O   0  0  0  0  0  0  0  0  0  0  0  0
   57.7840   31.6790   45.1050 C   0  0  0  0  0  0  0  0  0  0  0  0
   57.1780   32.9060   44.8110 C   0  0  0  0  0  0  0  0  0  0  0  0
   57.8460   34.0800   45.1840 C   0  0  0  0  0  0  0  0  0  0  0  0
   59.0880   34.0110   45.8360 C   0  0  0  0  0  0  0  0  0  0  0  0
   59.9260   35.4780   46.3030 Cl  0  0  0  0  0  0  0  0  0  0  0  0
   59.6480   32.7600   46.1190 C   0  0  0  0  0  0  0  0  0  0  0  0
   58.9670   31.6390   45.7510 N   0  0  0  0  0  0  0  0  0  0  0  0
   59.3000   30.3440   45.9320 C   0  0  0  0  0  0  0  0  0  0  0  0
   60.5790   29.8810   46.5840 C   0  0  0  0  0  0  0  0  0  0  0  0
   60.3250   29.1610   47.8860 C   0  0  0  0  0  0  0  0  0  0  0  0
   60.4170   27.7990   48.1520 C   0  0  0  0  0  0  0  0  0  0  0  0
   60.7220   26.7030   47.1800 C   0  0  0  0  0  0  0  0  0  0  0  0
   60.1730   27.5890   49.4590 N   0  0  0  0  0  0  0  0  0  0  0  0
   59.9570   28.7550   50.0470 N   0  0  0  0  0  0  0  0  0  0  0  0
   59.6930   28.9010   51.4760 C   0  0  0  0  0  0  0  0  0  0  0  0
   60.0570   29.7380   49.1230 C   0  0  0  0  0  0  0  0  0  0  0  0
   59.9530   31.4750   49.4430 S   0  0  0  0  0  0  0  0  0  0  0  0
   58.7580   32.0280   48.7170 O   0  0  0  0  0  0  0  0  0  0  0  0
   59.7990   31.7610   50.9090 O   0  0  0  0  0  0  0  0  0  0  0  0
   61.4330   32.2470   48.8810 C   0  0  0  0  0  0  0  0  0  0  0  0
   61.5010   33.6400   48.7280 C   0  0  0  0  0  0  0  0  0  0  0  0
   62.6780   34.2360   48.2610 C   0  0  0  0  0  0  0  0  0  0  0  0
   63.7880   33.4450   47.9480 C   0  0  0  0  0  0  0  0  0  0  0  0
   63.7240   32.0560   48.1010 C   0  0  0  0  0  0  0  0  0  0  0  0
   62.5500   31.4580   48.5680 C   0  0  0  0  0  0  0  0  0  0  0  0
   57.7564   27.6352   47.3342 H   0  0  0  0  0  0  0  0  0  0  0  0
   56.3815   27.7827   46.1876 H   0  0  0  0  0  0  0  0  0  0  0  0
   57.3959   26.3003   46.1876 H   0  0  0  0  0  0  0  0  0  0  0  0
   59.3569   27.6768   45.4664 H   0  0  0  0  0  0  0  0  0  0  0  0
   57.9923   27.7351   44.2853 H   0  0  0  0  0  0  0  0  0  0  0  0
   54.1270   29.3400   44.5880 H   0  0  0  0  0  0  0  0  0  0  0  0
   56.2042   32.9475   44.3012 H   0  0  0  0  0  0  0  0  0  0  0  0
   57.3958   35.0595   44.9653 H   0  0  0  0  0  0  0  0  0  0  0  0
   60.6196   32.6834   46.6289 H   0  0  0  0  0  0  0  0  0  0  0  0
   61.1002   29.1981   45.8970 H   0  0  0  0  0  0  0  0  0  0  0  0
   61.1887   30.7701   46.8023 H   0  0  0  0  0  0  0  0  0  0  0  0
   60.9773   25.7854   47.7303 H   0  0  0  0  0  0  0  0  0  0  0  0
   59.8412   26.5181   46.5476 H   0  0  0  0  0  0  0  0  0  0  0  0
   61.5717   26.9997   46.5476 H   0  0  0  0  0  0  0  0  0  0  0  0
   60.1670   26.6650   49.9460 H   0  0  0  0  0  0  0  0  0  0  0  0
   60.5147   28.4466   52.0490 H   0  0  0  0  0  0  0  0  0  0  0  0
   59.6174   29.9692   51.7277 H   0  0  0  0  0  0  0  0  0  0  0  0
   58.7481   28.3972   51.7277 H   0  0  0  0  0  0  0  0  0  0  0  0
   60.6292   34.2637   48.9751 H   0  0  0  0  0  0  0  0  0  0  0  0
   62.7301   35.3281   48.1400 H   0  0  0  0  0  0  0  0  0  0  0  0
   64.7122   33.9155   47.5812 H   0  0  0  0  0  0  0  0  0  0  0  0
   64.5973   31.4345   47.8539 H   0  0  0  0  0  0  0  0  0  0  0  0
   62.5018   30.3659   48.6904 H   0  0  0  0  0  0  0  0  0  0  0  0
  1  2  1  0
  2  3  1  0
  3  4  1  0
  4  5  1  0
  5  6  1  0
  5  7  2  0
  4  8  2  0
  8  9  1  0
  9 10  2  0
 10 11  1  0
 11 12  1  0
 11 13  2  0
 13 14  1  0
 14 15  1  0
 15 16  1  0
 16 17  1  0
 17 18  1  0
 18 19  1  0
 18 20  2  0
 20 21  1  0
 21 22  1  0
 21 23  1  0
 23 24  1  0
 24 25  2  0
 24 26  2  0
 24 27  1  0
 27 28  2  0
 28 29  1  0
 29 30  2  0
 30 31  1  0
 31 32  2  0
 15  3  2  0
 23 17  2  0
 32 27  1  0
 14  8  1  0
  1 33  1  0
  1 34  1  0
  1 35  1  0
  2 36  1  0
  2 37  1  0
  6 38  1  0
  9 39  1  0
 10 40  1  0
 13 41  1  0
 16 42  1  0
 16 43  1  0
 19 44  1  0
 19 45  1  0
 19 46  1  0
 20 47  1  0
 22 48  1  0
 22 49  1  0
 22 50  1  0
 28 51  1  0
 29 52  1  0
 30 53  1  0
 31 54  1  0
 32 55  1  0
M  CHG  2   6  -1  20   1
M  END
>  <UniqueID>  (53) 
50

>  <SMILES>  (53) 
CCc1c(C([NH-])=O)c2ccc(Cl)cn2c1Cc1c(C)[nH+]n(C)c1S(=O)(=O)c1ccccc1

>  <Energy>  (53) 
119.41740117792534

>  <Genealogy>  (53) 
CCc1c(C([NH-])=O)c2ccc(Cl)cn2c1Cc1c(C)[nH+]n(C)c1S(=O)(=O)c1ccccc1 (protonated)
CCc1c(C([NH-])=O)c2ccc(Cl)cn2c1Cc1c(C)[nH+]n(C)c1S(=O)(=O)c1ccccc1 (3D coordinates assigned)
CCc1c(C([NH-])=O)c2ccc(Cl)cn2c1Cc1c(C)[nH+]n(C)c1S(=O)(=O)c1ccccc1 (optimized conformer: 119.41740117792534 kcal/mol)

>  <smiles>  (53) 
CCc1c(C(N)=O)c2ccc(Cl)cn2c1Cc1c(C)nn(C)c1S(=O)(=O)c1ccccc1

>  <score_type>  (53) 
oracle

>  <origin>  (53) 
adg

>  <m_score__min__energy>  (53) 
-11.460000000000001

>  <m_primary>  (53) 
energy

$$$$
53:0
     RDKit          3D

 51 54  0  0  0  0  0  0  0  0999 V2000
   58.5840   34.9170   44.4950 O   0  0  0  0  0  0  0  0  0  0  0  0
   58.5520   33.7500   44.9710 C   0  0  0  0  0  0  0  0  0  0  0  0
   57.3710   32.8890   44.7460 C   0  0  0  0  0  0  0  0  0  0  0  0
   57.4010   31.7580   44.0260 C   0  0  0  0  0  0  0  0  0  0  0  0
   57.2850   30.4120   44.6280 C   0  0  0  0  0  0  0  0  0  0  0  0
   58.4090   29.7910   45.1830 C   0  0  0  0  0  0  0  0  0  0  0  0
   58.3140   28.5530   45.7530 N   0  0  0  0  0  0  0  0  0  0  0  0
   59.4970   27.9580   46.3980 C   0  0  0  0  0  0  0  0  0  0  0  0
   60.2730   29.0170   47.1370 C   0  0  0  0  0  0  0  0  0  0  0  0
   60.3000   29.0160   48.5400 C   0  0  0  0  0  0  0  0  0  0  0  0
   61.0830   29.9430   49.2350 C   0  0  0  0  0  0  0  0  0  0  0  0
   61.8430   30.8990   48.5400 C   0  0  0  0  0  0  0  0  0  0  0  0
   62.6730   31.8880   49.2770 C   0  0  0  0  0  0  0  0  0  0  0  0
   62.3880   32.2070   50.6190 C   0  0  0  0  0  0  0  0  0  0  0  0
   63.1750   33.1350   51.3110 C   0  0  0  0  0  0  0  0  0  0  0  0
   64.2480   33.7570   50.6710 C   0  0  0  0  0  0  0  0  0  0  0  0
   64.5430   33.4500   49.3410 C   0  0  0  0  0  0  0  0  0  0  0  0
   63.7610   32.5220   48.6460 C   0  0  0  0  0  0  0  0  0  0  0  0
   61.8020   30.9050   47.1310 C   0  0  0  0  0  0  0  0  0  0  0  0
   61.0260   29.9720   46.4400 C   0  0  0  0  0  0  0  0  0  0  0  0
   57.1060   27.9020   45.7640 C   0  0  0  0  0  0  0  0  0  0  0  0
   56.9940   26.7520   46.2710 O   0  0  0  0  0  0  0  0  0  0  0  0
   56.0070   28.4930   45.2310 N   0  0  0  0  0  0  0  0  0  0  0  0
   56.0660   29.7320   44.6770 C   0  0  0  0  0  0  0  0  0  0  0  0
   55.0220   30.2440   44.1960 O   0  0  0  0  0  0  0  0  0  0  0  0
   59.6240   33.3290   45.8040 N   0  0  0  0  0  0  0  0  0  0  0  0
   60.1710   34.2270   47.1830 S   0  0  0  0  0  0  0  0  0  0  0  0
   61.6700   34.1640   47.2590 O   0  0  0  0  0  0  0  0  0  0  0  0
   59.7460   35.6670   47.0890 O   0  0  0  0  0  0  0  0  0  0  0  0
   59.4690   33.5030   48.6160 C   0  0  0  0  0  0  0  0  0  0  0  0
   59.7000   33.9220   49.9200 C   0  0  0  0  0  0  0  0  0  0  0  0
   59.0880   33.1020   50.8730 C   0  0  0  0  0  0  0  0  0  0  0  0
   58.3860   32.0350   50.3200 C   0  0  0  0  0  0  0  0  0  0  0  0
   58.5250   32.1120   48.6430 S   0  0  0  0  0  0  0  0  0  0  0  0
   56.4138   33.1934   45.1945 H   0  0  0  0  0  0  0  0  0  0  0  0
   57.5175   31.8351   42.9349 H   0  0  0  0  0  0  0  0  0  0  0  0
   59.3809   30.3056   45.1602 H   0  0  0  0  0  0  0  0  0  0  0  0
   59.1727   27.1829   47.1080 H   0  0  0  0  0  0  0  0  0  0  0  0
   60.1418   27.5130   45.6258 H   0  0  0  0  0  0  0  0  0  0  0  0
   59.7009   28.2807   49.0971 H   0  0  0  0  0  0  0  0  0  0  0  0
   61.1042   29.9237   50.3346 H   0  0  0  0  0  0  0  0  0  0  0  0
   61.5407   31.7233   51.1270 H   0  0  0  0  0  0  0  0  0  0  0  0
   62.9475   33.3743   52.3603 H   0  0  0  0  0  0  0  0  0  0  0  0
   64.8621   34.4899   51.2148 H   0  0  0  0  0  0  0  0  0  0  0  0
   65.3914   33.9386   48.8395 H   0  0  0  0  0  0  0  0  0  0  0  0
   63.9975   32.2853   47.5981 H   0  0  0  0  0  0  0  0  0  0  0  0
   62.3859   31.6505   46.5713 H   0  0  0  0  0  0  0  0  0  0  0  0
   61.0055   29.9866   45.3403 H   0  0  0  0  0  0  0  0  0  0  0  0
   60.3016   34.8066   50.1762 H   0  0  0  0  0  0  0  0  0  0  0  0
   59.1550   33.2829   51.9560 H   0  0  0  0  0  0  0  0  0  0  0  0
   57.8329   31.2694   50.8838 H   0  0  0  0  0  0  0  0  0  0  0  0
  1  2  2  0
  2  3  1  0
  3  4  2  3
  4  5  1  0
  5  6  2  0
  6  7  1  0
  7  8  1  0
  8  9  1  0
  9 10  2  0
 10 11  1  0
 11 12  2  0
 12 13  1  0
 13 14  2  0
 14 15  1  0
 15 16  2  0
 16 17  1  0
 17 18  2  0
 12 19  1  0
 19 20  2  0
  7 21  1  0
 21 22  2  0
 21 23  1  0
 23 24  1  0
 24 25  2  0
  2 26  1  0
 26 27  1  0
 27 28  2  0
 27 29  2  0
 27 30  1  0
 30 31  2  0
 31 32  1  0
 32 33  2  0
 33 34  1  0
 24  5  1  0
 34 30  1  0
 20  9  1  0
 18 13  1  0
  3 35  1  0
  4 36  1  0
  6 37  1  0
  8 38  1  0
  8 39  1  0
 10 40  1  0
 11 41  1  0
 14 42  1  0
 15 43  1  0
 16 44  1  0
 17 45  1  0
 18 46  1  0
 19 47  1  0
 20 48  1  0
 31 49  1  0
 32 50  1  0
 33 51  1  0
M  CHG  2  23  -1  26  -1
M  END
>  <UniqueID>  (54) 
51

>  <SMILES>  (54) 
O=C(C=Cc1cn(Cc2ccc(-c3ccccc3)cc2)c(=O)[n-]c1=O)[N-]S(=O)(=O)c1cccs1

>  <Energy>  (54) 
104.31624592906726

>  <Genealogy>  (54) 
O=C(C=Cc1cn(Cc2ccc(-c3ccccc3)cc2)c(=O)[n-]c1=O)[N-]S(=O)(=O)c1cccs1 (protonated)
O=C(C=Cc1cn(Cc2ccc(-c3ccccc3)cc2)c(=O)[n-]c1=O)[N-]S(=O)(=O)c1cccs1 (3D coordinates assigned)
O=C(C=Cc1cn(Cc2ccc(-c3ccccc3)cc2)c(=O)[n-]c1=O)[N-]S(=O)(=O)c1cccs1 (optimized conformer: 104.31624592906726 kcal/mol)

>  <smiles>  (54) 
O=C(C=Cc1cn(Cc2ccc(-c3ccccc3)cc2)c(=O)[nH]c1=O)NS(=O)(=O)c1cccs1

>  <score_type>  (54) 
oracle

>  <origin>  (54) 
adg

>  <m_score__min__energy>  (54) 
-13.710000000000001

>  <m_primary>  (54) 
energy

$$$$
54:0
     RDKit          3D

 31 32  0  0  0  0  0  0  0  0999 V2000
   58.3600   32.8000   45.5870 C   0  0  0  0  0  0  0  0  0  0  0  0
   57.8340   31.6470   44.7820 C   0  0  0  0  0  0  0  0  0  0  0  0
   57.3950   31.8490   43.4660 C   0  0  0  0  0  0  0  0  0  0  0  0
   56.8540   30.7880   42.7350 C   0  0  0  0  0  0  0  0  0  0  0  0
   56.7440   29.5220   43.3140 C   0  0  0  0  0  0  0  0  0  0  0  0
   57.1840   29.3000   44.6280 C   0  0  0  0  0  0  0  0  0  0  0  0
   57.0290   27.9960   45.2120 N   0  0  0  0  0  0  0  0  0  0  0  0
   57.9180   27.4460   46.1960 C   0  0  0  0  0  0  0  0  0  0  0  0
   59.0440   27.9700   46.4110 O   0  0  0  0  0  0  0  0  0  0  0  0
   57.5120   26.2300   46.9730 C   0  0  0  0  0  0  0  0  0  0  0  0
   57.0070   25.1940   46.0580 N   0  0  0  0  0  0  0  0  0  0  0  0
   57.8600   24.2250   45.6070 C   0  0  0  0  0  0  0  0  0  0  0  0
   57.4160   23.2500   44.7170 C   0  0  0  0  0  0  0  0  0  0  0  0
   56.0910   23.2900   44.2930 C   0  0  0  0  0  0  0  0  0  0  0  0
   55.6550   22.4240   43.4900 O   0  0  0  0  0  0  0  0  0  0  0  0
   55.2690   24.2690   44.7440 N   0  0  0  0  0  0  0  0  0  0  0  0
   55.7100   25.2170   45.6120 C   0  0  0  0  0  0  0  0  0  0  0  0
   54.9110   26.1140   45.9960 O   0  0  0  0  0  0  0  0  0  0  0  0
   57.7070   30.3780   45.3670 C   0  0  0  0  0  0  0  0  0  0  0  0
   58.2577   32.5757   46.6590 H   0  0  0  0  0  0  0  0  0  0  0  0
   59.4210   32.9618   45.3459 H   0  0  0  0  0  0  0  0  0  0  0  0
   57.7867   33.7073   45.3459 H   0  0  0  0  0  0  0  0  0  0  0  0
   57.4766   32.8456   43.0075 H   0  0  0  0  0  0  0  0  0  0  0  0
   56.5141   30.9504   41.7015 H   0  0  0  0  0  0  0  0  0  0  0  0
   56.3095   28.6930   42.7361 H   0  0  0  0  0  0  0  0  0  0  0  0
   56.2620   27.3840   44.8530 H   0  0  0  0  0  0  0  0  0  0  0  0
   58.3828   25.8398   47.5202 H   0  0  0  0  0  0  0  0  0  0  0  0
   56.7175   26.5035   47.6829 H   0  0  0  0  0  0  0  0  0  0  0  0
   58.9052   24.2155   45.9499 H   0  0  0  0  0  0  0  0  0  0  0  0
   58.0978   22.4654   44.3570 H   0  0  0  0  0  0  0  0  0  0  0  0
   58.0184   30.2243   46.4108 H   0  0  0  0  0  0  0  0  0  0  0  0
  1  2  1  0
  2  3  2  0
  3  4  1  0
  4  5  2  0
  5  6  1  0
  6  7  1  0
  7  8  1  0
  8  9  2  0
  8 10  1  0
 10 11  1  0
 11 12  1  0
 12 13  2  0
 13 14  1  0
 14 15  2  0
 14 16  1  0
 16 17  1  0
 17 18  2  0
  6 19  2  0
 19  2  1  0
 17 11  1  0
  1 20  1  0
  1 21  1  0
  1 22  1  0
  3 23  1  0
  4 24  1  0
  5 25  1  0
  7 26  1  0
 10 27  1  0
 10 28  1  0
 12 29  1  0
 13 30  1  0
 19 31  1  0
M  CHG  1  16  -1
M  END
>  <UniqueID>  (55) 
52

>  <SMILES>  (55) 
Cc1cccc(NC(=O)Cn2ccc(=O)[n-]c2=O)c1

>  <Energy>  (55) 
34.95918096054907

>  <Genealogy>  (55) 
Cc1cccc(NC(=O)Cn2ccc(=O)[n-]c2=O)c1 (protonated)
Cc1cccc(NC(=O)Cn2ccc(=O)[n-]c2=O)c1 (3D coordinates assigned)
Cc1cccc(NC(=O)Cn2ccc(=O)[n-]c2=O)c1 (optimized conformer: 34.95918096054907 kcal/mol)

>  <smiles>  (55) 
Cc1cccc(NC(=O)Cn2ccc(=O)[nH]c2=O)c1

>  <score_type>  (55) 
oracle

>  <origin>  (55) 
adg

>  <m_score__min__energy>  (55) 
-8.5999999999999996

>  <m_primary>  (55) 
energy

$$$$
55:0
     RDKit          3D

 28 29  0  0  0  0  0  0  0  0999 V2000
   54.7180   24.6350   46.2180 O   0  0  0  0  0  0  0  0  0  0  0  0
   55.7560   25.3010   45.9530 C   0  0  0  0  0  0  0  0  0  0  0  0
   57.0510   24.5920   45.7010 C   0  0  0  0  0  0  0  0  0  0  0  0
   56.8190   23.2300   45.0720 C   0  0  0  0  0  0  0  0  0  0  0  0
   56.7890   22.0260   45.8260 C   0  0  0  0  0  0  0  0  0  0  0  0
   57.0430   21.9870   47.2870 C   0  0  0  0  0  0  0  0  0  0  0  0
   57.0770   20.8800   47.8870 O   0  0  0  0  0  0  0  0  0  0  0  0
   57.3050   23.1460   48.0070 O   0  0  0  0  0  0  0  0  0  0  0  0
   56.5130   20.8510   45.1890 N   0  0  0  0  0  0  0  0  0  0  0  0
   56.3020   20.8000   43.8480 C   0  0  0  0  0  0  0  0  0  0  0  0
   56.0590   19.7000   43.2860 O   0  0  0  0  0  0  0  0  0  0  0  0
   56.3560   21.9330   43.1090 N   0  0  0  0  0  0  0  0  0  0  0  0
   56.6090   23.1350   43.6800 C   0  0  0  0  0  0  0  0  0  0  0  0
   56.6480   24.1620   42.9500 O   0  0  0  0  0  0  0  0  0  0  0  0
   55.7450   26.7300   46.0610 N   0  0  0  0  0  0  0  0  0  0  0  0
   56.6710   27.5840   45.7210 C   0  0  0  0  0  0  0  0  0  0  0  0
   57.9680   27.1810   45.8250 N   0  0  0  0  0  0  0  0  0  0  0  0
   59.0160   27.9870   45.5070 C   0  0  0  0  0  0  0  0  0  0  0  0
   58.7840   29.2820   45.0490 C   0  0  0  0  0  0  0  0  0  0  0  0
   57.4720   29.7260   44.9000 C   0  0  0  0  0  0  0  0  0  0  0  0
   56.4020   28.8840   45.2150 C   0  0  0  0  0  0  0  0  0  0  0  0
   55.1120   29.3370   44.9670 O   0  0  0  0  0  0  0  0  0  0  0  0
   57.6667   25.2003   45.0222 H   0  0  0  0  0  0  0  0  0  0  0  0
   57.5619   24.4478   46.6644 H   0  0  0  0  0  0  0  0  0  0  0  0
   56.4800   19.9560   45.7310 H   0  0  0  0  0  0  0  0  0  0  0  0
   60.0465   27.6166   45.6114 H   0  0  0  0  0  0  0  0  0  0  0  0
   59.6270   29.9462   44.8078 H   0  0  0  0  0  0  0  0  0  0  0  0
   57.2773   30.7444   44.5326 H   0  0  0  0  0  0  0  0  0  0  0  0
  1  2  2  0
  2  3  1  0
  3  4  1  0
  4  5  2  0
  5  6  1  0
  6  7  2  0
  6  8  1  0
  5  9  1  0
  9 10  1  0
 10 11  2  0
 10 12  1  0
 12 13  1  0
 13 14  2  0
  2 15  1  0
 15 16  2  3
 16 17  1  0
 17 18  1  0
 18 19  2  0
 19 20  1  0
 20 21  2  0
 21 22  1  0
 13  4  1  0
 21 16  1  0
  3 23  1  0
  3 24  1  0
  9 25  1  0
 18 26  1  0
 19 27  1  0
 20 28  1  0
M  CHG  4   8  -1  12  -1  17  -1  22  -1
M  END
>  <UniqueID>  (56) 
53

>  <SMILES>  (56) 
O=C(Cc1c(C(=O)[O-])[nH]c(=O)[n-]c1=O)N=c1[n-]cccc1[O-]

>  <Energy>  (56) 
47.528508592290066

>  <Genealogy>  (56) 
O=C(Cc1c(C(=O)[O-])[nH]c(=O)[n-]c1=O)N=c1[n-]cccc1[O-] (protonated)
O=C(Cc1c(C(=O)[O-])[nH]c(=O)[n-]c1=O)N=c1[n-]cccc1[O-] (3D coordinates assigned)
O=C(Cc1c(C(=O)[O-])[nH]c(=O)[n-]c1=O)N=c1[n-]cccc1[O-] (optimized conformer: 47.528508592290066 kcal/mol)

>  <smiles>  (56) 
O=C(Cc1c(C(=O)O)[nH]c(=O)[nH]c1=O)N=c1[nH]cccc1O

>  <score_type>  (56) 
oracle

>  <origin>  (56) 
adg

>  <m_score__min__energy>  (56) 
-15.529999999999999

>  <m_primary>  (56) 
energy

$$$$
56:0
     RDKit          3D

 56 59  0  0  0  0  0  0  0  0999 V2000
   54.3150   26.7170   46.7540 H   0  0  0  0  0  0  0  0  0  0  0  0
   54.4470   26.3100   45.8370 O   0  0  0  0  0  0  0  0  0  0  0  0
   54.0680   24.9960   45.5830 C   0  0  0  0  0  0  0  0  0  0  0  0
   52.8050   24.6110   45.3380 N   0  0  0  0  0  0  0  0  0  0  0  0
   52.9280   23.2740   45.1870 C   0  0  0  0  0  0  0  0  0  0  0  0
   51.9450   22.5270   44.9450 O   0  0  0  0  0  0  0  0  0  0  0  0
   54.1850   22.8010   45.3240 N   0  0  0  0  0  0  0  0  0  0  0  0
   54.9120   23.9120   45.5500 C   0  0  0  0  0  0  0  0  0  0  0  0
   56.3410   23.9220   45.8980 C   0  0  0  0  0  0  0  0  0  0  0  0
   56.7901   22.9648   46.2013 H   0  0  0  0  0  0  0  0  0  0  0  0
   57.1480   25.0000   45.8780 C   0  0  0  0  0  0  0  0  0  0  0  0
   57.5550   25.6460   47.0310 C   0  0  0  0  0  0  0  0  0  0  0  0
   57.2448   25.4077   48.0591 H   0  0  0  0  0  0  0  0  0  0  0  0
   58.4230   26.6450   46.6470 C   0  0  0  0  0  0  0  0  0  0  0  0
   59.0540   27.6190   47.5960 C   0  0  0  0  0  0  0  0  0  0  0  0
   58.8514   27.3062   48.6310 H   0  0  0  0  0  0  0  0  0  0  0  0
   60.1406   27.6444   47.4267 H   0  0  0  0  0  0  0  0  0  0  0  0
   58.6330   28.6211   47.4267 H   0  0  0  0  0  0  0  0  0  0  0  0
   58.5420   26.6810   45.2980 N   0  0  0  0  0  0  0  0  0  0  0  0
   59.2810   27.7150   44.5490 C   0  0  0  0  0  0  0  0  0  0  0  0
   60.1596   28.0268   45.1328 H   0  0  0  0  0  0  0  0  0  0  0  0
   59.5980   27.2967   43.5823 H   0  0  0  0  0  0  0  0  0  0  0  0
   58.4010   28.9130   44.2980 C   0  0  0  0  0  0  0  0  0  0  0  0
   57.2000   28.7820   43.5840 C   0  0  0  0  0  0  0  0  0  0  0  0
   56.8737   27.7898   43.2390 H   0  0  0  0  0  0  0  0  0  0  0  0
   56.4160   29.9070   43.3090 C   0  0  0  0  0  0  0  0  0  0  0  0
   55.4682   29.7959   42.7619 H   0  0  0  0  0  0  0  0  0  0  0  0
   56.8360   31.1730   43.7290 C   0  0  0  0  0  0  0  0  0  0  0  0
   56.2182   32.0558   43.5077 H   0  0  0  0  0  0  0  0  0  0  0  0
   58.0410   31.3230   44.4310 C   0  0  0  0  0  0  0  0  0  0  0  0
   58.5070   32.6630   44.8460 C   0  0  0  0  0  0  0  0  0  0  0  0
   58.8450   33.4980   43.9620 O   0  0  0  0  0  0  0  0  0  0  0  0
   58.5980   33.0260   46.2390 N   0  0  0  0  0  0  0  0  0  0  0  0
   58.3730   34.4100   46.6620 C   0  0  0  0  0  0  0  0  0  0  0  0
   58.1100   35.0196   45.7849 H   0  0  0  0  0  0  0  0  0  0  0  0
   57.5530   34.4320   47.3949 H   0  0  0  0  0  0  0  0  0  0  0  0
   59.6450   34.9810   47.3150 C   0  0  0  0  0  0  0  0  0  0  0  0
   60.3005   35.3638   46.5190 H   0  0  0  0  0  0  0  0  0  0  0  0
   59.3197   35.7684   48.0109 H   0  0  0  0  0  0  0  0  0  0  0  0
   60.4120   33.9880   48.1160 N   0  0  0  0  0  0  0  0  0  0  0  0
   61.6950   33.6430   47.4770 C   0  0  0  0  0  0  0  0  0  0  0  0
   62.4482   33.4405   48.2527 H   0  0  0  0  0  0  0  0  0  0  0  0
   61.5638   32.7482   46.8508 H   0  0  0  0  0  0  0  0  0  0  0  0
   62.0303   34.4829   46.8508 H   0  0  0  0  0  0  0  0  0  0  0  0
   59.6360   32.7810   48.4740 C   0  0  0  0  0  0  0  0  0  0  0  0
   60.2879   32.0905   49.0291 H   0  0  0  0  0  0  0  0  0  0  0  0
   58.7789   33.0956   49.0875 H   0  0  0  0  0  0  0  0  0  0  0  0
   59.0930   32.0600   47.2290 C   0  0  0  0  0  0  0  0  0  0  0  0
   59.8994   31.4630   46.7780 H   0  0  0  0  0  0  0  0  0  0  0  0
   58.2593   31.4105   47.5342 H   0  0  0  0  0  0  0  0  0  0  0  0
   58.7950   30.1830   44.7470 C   0  0  0  0  0  0  0  0  0  0  0  0
   59.7064   30.2858   45.3543 H   0  0  0  0  0  0  0  0  0  0  0  0
   57.7380   25.6950   44.8080 C   0  0  0  0  0  0  0  0  0  0  0  0
   57.4520   25.5400   43.5050 C   0  0  0  0  0  0  0  0  0  0  0  0
   57.9801   26.1417   42.7506 H   0  0  0  0  0  0  0  0  0  0  0  0
   56.6897   24.8113   43.1921 H   0  0  0  0  0  0  0  0  0  0  0  0
  1  2  1  0
  2  3  1  0
  3  4  1  0
  4  5  1  0
  5  6  2  0
  5  7  1  0
  7  8  1  0
  8  9  1  0
  9 10  1  0
  9 11  2  0
 11 12  1  0
 12 13  1  0
 12 14  2  0
 14 15  1  0
 15 16  1  0
 15 17  1  0
 15 18  1  0
 14 19  1  0
 19 20  1  0
 20 21  1  0
 20 22  1  0
 20 23  1  0
 23 24  2  0
 24 25  1  0
 24 26  1  0
 26 27  1  0
 26 28  2  0
 28 29  1  0
 28 30  1  0
 30 31  1  0
 31 32  2  0
 31 33  1  0
 33 34  1  0
 34 35  1  0
 34 36  1  0
 34 37  1  0
 37 38  1  0
 37 39  1  0
 37 40  1  0
 40 41  1  0
 41 42  1  0
 41 43  1  0
 41 44  1  0
 40 45  1  0
 45 46  1  0
 45 47  1  0
 45 48  1  0
 48 49  1  0
 48 50  1  0
 30 51  2  0
 51 52  1  0
 19 53  1  0
 53 54  2  0
 54 55  1  0
 54 56  1  0
  8  3  2  0
 53 11  1  0
 51 23  1  0
 48 33  1  0
M  CHG  2   4  -1   7  -1
M  END
>  <UniqueID>  (57) 
54

>  <SMILES>  (57) 
C=c1/c(=C\c2[n-]c(=O)[n-]c2O)cc(C)n1Cc1cccc(C(=O)N2CCN(C)CC2)c1

>  <Energy>  (57) 
137.35413947402438

>  <Genealogy>  (57) 
C=c1c(=Cc2[n-]c(=O)[n-]c2O)cc(C)n1Cc1cccc(C(=O)N2CCN(C)CC2)c1 (protonated)
C=c1/c(=C\c2[n-]c(=O)[n-]c2O)cc(C)n1Cc1cccc(C(=O)N2CCN(C)CC2)c1 (cis-trans isomerization)
C=c1/c(=C\c2[n-]c(=O)[n-]c2O)cc(C)n1Cc1cccc(C(=O)N2CCN(C)CC2)c1 (3D coordinates assigned)
C=c1/c(=C\c2[n-]c(=O)[n-]c2O)cc(C)n1Cc1cccc(C(=O)N2CCN(C)CC2)c1 (nonaromatic ring conformer: 137.35413947402438 kcal/mol)

>  <smiles>  (57) 
C=c1c(=Cc2[nH]c(=O)[nH]c2O)cc(C)n1Cc1cccc(C(=O)N2CCN(C)CC2)c1

>  <score_type>  (57) 
oracle

>  <origin>  (57) 
adg

>  <m_score__min__energy>  (57) 
-14.34

>  <m_primary>  (57) 
energy

$$$$
57:0
     RDKit          3D

 41 44  0  0  0  0  0  0  0  0999 V2000
   59.5590   30.1690   45.2350 C   0  0  0  0  0  0  0  0  0  0  0  0
   58.1120   29.8220   45.0050 C   0  0  0  0  0  0  0  0  0  0  0  0
   57.6300   28.5950   45.4910 C   0  0  0  0  0  0  0  0  0  0  0  0
   56.2940   28.2180   45.2580 C   0  0  0  0  0  0  0  0  0  0  0  0
   55.8040   27.0900   45.6840 N   0  0  0  0  0  0  0  0  0  0  0  0
   56.5810   25.8980   46.0200 C   0  0  0  0  0  0  0  0  0  0  0  0
   56.1310   24.6480   45.2880 C   0  0  0  0  0  0  0  0  0  0  0  0
   57.3910   25.3780   44.8470 C   0  0  0  0  0  0  0  0  0  0  0  0
   55.4830   29.0570   44.5660 N   0  0  0  0  0  0  0  0  0  0  0  0
   55.9080   30.2560   44.0920 C   0  0  0  0  0  0  0  0  0  0  0  0
   57.2270   30.6860   44.3120 C   0  0  0  0  0  0  0  0  0  0  0  0
   57.6340   32.0210   43.8070 C   0  0  0  0  0  0  0  0  0  0  0  0
   57.8520   32.1740   42.5740 O   0  0  0  0  0  0  0  0  0  0  0  0
   57.6450   33.1530   44.6920 N   0  0  0  0  0  0  0  0  0  0  0  0
   58.4300   33.3910   45.7060 C   0  0  0  0  0  0  0  0  0  0  0  0
   59.5580   34.2330   45.6250 C   0  0  0  0  0  0  0  0  0  0  0  0
   60.3550   34.4320   46.7540 C   0  0  0  0  0  0  0  0  0  0  0  0
   60.0440   33.7810   47.9540 C   0  0  0  0  0  0  0  0  0  0  0  0
   58.9300   32.9240   47.9950 C   0  0  0  0  0  0  0  0  0  0  0  0
   58.1610   32.7640   46.8840 N   0  0  0  0  0  0  0  0  0  0  0  0
   58.5200   32.2610   49.2870 C   0  0  0  0  0  0  0  0  0  0  0  0
   59.7410   31.9310   50.1560 C   0  0  0  0  0  0  0  0  0  0  0  0
   60.6060   33.1010   50.2940 N   0  0  0  0  0  0  0  0  0  0  0  0
   60.8610   33.9470   49.1710 C   0  0  0  0  0  0  0  0  0  0  0  0
   61.7570   34.8280   49.2400 O   0  0  0  0  0  0  0  0  0  0  0  0
   59.7573   30.2166   46.3159 H   0  0  0  0  0  0  0  0  0  0  0  0
   60.1978   29.3986   44.7786 H   0  0  0  0  0  0  0  0  0  0  0  0
   59.7790   31.1454   44.7786 H   0  0  0  0  0  0  0  0  0  0  0  0
   58.2982   27.9275   46.0549 H   0  0  0  0  0  0  0  0  0  0  0  0
   56.7893   26.1467   47.0711 H   0  0  0  0  0  0  0  0  0  0  0  0
   56.2070   23.6661   45.7779 H   0  0  0  0  0  0  0  0  0  0  0  0
   55.2028   24.3283   44.7918 H   0  0  0  0  0  0  0  0  0  0  0  0
   58.3783   24.9242   45.0181 H   0  0  0  0  0  0  0  0  0  0  0  0
   57.7520   25.8053   43.8998 H   0  0  0  0  0  0  0  0  0  0  0  0
   55.2127   30.8970   43.5302 H   0  0  0  0  0  0  0  0  0  0  0  0
   59.8090   34.7308   44.6767 H   0  0  0  0  0  0  0  0  0  0  0  0
   61.2272   35.1002   46.7007 H   0  0  0  0  0  0  0  0  0  0  0  0
   57.8570   32.9398   49.8435 H   0  0  0  0  0  0  0  0  0  0  0  0
   58.0012   31.3215   49.0459 H   0  0  0  0  0  0  0  0  0  0  0  0
   59.4002   31.6139   51.1526 H   0  0  0  0  0  0  0  0  0  0  0  0
   60.3114   31.1234   49.6739 H   0  0  0  0  0  0  0  0  0  0  0  0
  1  2  1  0
  2  3  2  0
  3  4  1  0
  4  5  2  3
  5  6  1  0
  6  7  1  0
  7  8  1  0
  4  9  1  0
  9 10  1  0
 10 11  2  0
 11 12  1  0
 12 13  2  0
 12 14  1  0
 14 15  2  3
 15 16  1  0
 16 17  2  0
 17 18  1  0
 18 19  2  0
 19 20  1  0
 19 21  1  0
 21 22  1  0
 22 23  1  0
 23 24  1  0
 24 25  2  0
 11  2  1  0
 20 15  1  0
  8  6  1  0
 24 18  1  0
  1 26  1  0
  1 27  1  0
  1 28  1  0
  3 29  1  0
  6 30  1  0
  7 31  1  0
  7 32  1  0
  8 33  1  0
  8 34  1  0
 10 35  1  0
 16 36  1  0
 17 37  1  0
 21 38  1  0
 21 39  1  0
 22 40  1  0
 22 41  1  0
M  CHG  3   9  -1  20  -1  23  -1
M  END
>  <UniqueID>  (58) 
55

>  <SMILES>  (58) 
Cc1cc(=NC2CC2)[n-]cc1C(=O)N=c1ccc2c([n-]1)CC[N-]C2=O

>  <Energy>  (58) 
323.60708646097424

>  <Genealogy>  (58) 
Cc1cc(=NC2CC2)[n-]cc1C(=O)N=c1ccc2c([n-]1)CC[N-]C2=O (protonated)
Cc1cc(=NC2CC2)[n-]cc1C(=O)N=c1ccc2c([n-]1)CC[N-]C2=O (3D coordinates assigned)
Cc1cc(=NC2CC2)[n-]cc1C(=O)N=c1ccc2c([n-]1)CC[N-]C2=O (nonaromatic ring conformer: 323.60708646097424 kcal/mol)

>  <smiles>  (58) 
Cc1cc(=NC2CC2)[nH]cc1C(=O)N=c1ccc2c([nH]1)CCNC2=O

>  <score_type>  (58) 
oracle

>  <origin>  (58) 
adg

>  <m_score__min__energy>  (58) 
-12.699999999999999

>  <m_primary>  (58) 
energy

$$$$
58:0
     RDKit          3D

 44 46  0  0  0  0  0  0  0  0999 V2000
   55.1540   29.3950   44.9280 N   0  0  0  0  0  0  0  0  0  0  0  0
   56.7060   29.6190   44.1970 S   0  0  0  0  0  0  0  0  0  0  0  0
   56.5450   29.5810   42.7040 O   0  0  0  0  0  0  0  0  0  0  0  0
   57.6290   28.5140   44.6260 O   0  0  0  0  0  0  0  0  0  0  0  0
   57.3750   31.1720   44.6900 C   0  0  0  0  0  0  0  0  0  0  0  0
   57.4590   32.2230   43.7680 C   0  0  0  0  0  0  0  0  0  0  0  0
   57.9930   33.4550   44.1530 C   0  0  0  0  0  0  0  0  0  0  0  0
   58.4490   33.6420   45.4610 C   0  0  0  0  0  0  0  0  0  0  0  0
   58.3840   32.5960   46.3890 C   0  0  0  0  0  0  0  0  0  0  0  0
   58.8590   32.8240   47.7250 N   0  0  0  0  0  0  0  0  0  0  0  0
   59.9500   32.1460   48.3660 C   0  0  0  0  0  0  0  0  0  0  0  0
   60.9360   32.8240   48.7620 O   0  0  0  0  0  0  0  0  0  0  0  0
   59.9720   30.6750   48.5330 C   0  0  0  0  0  0  0  0  0  0  0  0
   60.7440   30.0960   49.5530 C   0  0  0  0  0  0  0  0  0  0  0  0
   60.7320   28.7120   49.7470 C   0  0  0  0  0  0  0  0  0  0  0  0
   59.9700   27.8930   48.9120 C   0  0  0  0  0  0  0  0  0  0  0  0
   59.2310   28.4490   47.8580 C   0  0  0  0  0  0  0  0  0  0  0  0
   58.4550   27.5880   47.0100 N   0  0  0  0  0  0  0  0  0  0  0  0
   58.8790   26.2630   46.6370 C   0  0  0  0  0  0  0  0  0  0  0  0
   60.0200   25.8470   46.9840 O   0  0  0  0  0  0  0  0  0  0  0  0
   58.0020   25.3660   45.8460 C   0  0  0  0  0  0  0  0  0  0  0  0
   58.5420   24.1980   45.2880 C   0  0  0  0  0  0  0  0  0  0  0  0
   57.7460   23.3680   44.5030 C   0  0  0  0  0  0  0  0  0  0  0  0
   56.4050   23.7150   44.2900 C   0  0  0  0  0  0  0  0  0  0  0  0
   55.5480   22.8990   43.4810 N   0  0  0  0  0  0  0  0  0  0  0  0
   55.9380   21.7980   43.0360 O   0  0  0  0  0  0  0  0  0  0  0  0
   54.2680   23.3220   43.2020 O   0  0  0  0  0  0  0  0  0  0  0  0
   55.9130   24.8180   44.8500 O   0  0  0  0  0  0  0  0  0  0  0  0
   56.6380   25.6370   45.6060 C   0  0  0  0  0  0  0  0  0  0  0  0
   56.0740   26.6300   46.1330 O   0  0  0  0  0  0  0  0  0  0  0  0
   59.2240   29.8430   47.6800 C   0  0  0  0  0  0  0  0  0  0  0  0
   57.8160   31.3670   46.0060 C   0  0  0  0  0  0  0  0  0  0  0  0
   55.2490   28.6060   45.6060 H   0  0  0  0  0  0  0  0  0  0  0  0
   57.1033   32.0778   42.7373 H   0  0  0  0  0  0  0  0  0  0  0  0
   58.0547   34.2785   43.4264 H   0  0  0  0  0  0  0  0  0  0  0  0
   58.8611   34.6162   45.7627 H   0  0  0  0  0  0  0  0  0  0  0  0
   61.3610   30.7346   50.2023 H   0  0  0  0  0  0  0  0  0  0  0  0
   61.3246   28.2669   50.5598 H   0  0  0  0  0  0  0  0  0  0  0  0
   59.9492   26.8064   49.0816 H   0  0  0  0  0  0  0  0  0  0  0  0
   57.5080   27.9240   46.7320 H   0  0  0  0  0  0  0  0  0  0  0  0
   59.5950   23.9375   45.4706 H   0  0  0  0  0  0  0  0  0  0  0  0
   58.1635   22.4534   44.0566 H   0  0  0  0  0  0  0  0  0  0  0  0
   58.6294   30.2868   46.8679 H   0  0  0  0  0  0  0  0  0  0  0  0
   57.7177   30.5559   46.7425 H   0  0  0  0  0  0  0  0  0  0  0  0
  1  2  1  0
  2  3  2  0
  2  4  2  0
  2  5  1  0
  5  6  2  0
  6  7  1  0
  7  8  2  0
  8  9  1  0
  9 10  1  0
 10 11  1  0
 11 12  2  0
 11 13  1  0
 13 14  2  0
 14 15  1  0
 15 16  2  0
 16 17  1  0
 17 18  1  0
 18 19  1  0
 19 20  2  0
 19 21  1  0
 21 22  2  0
 22 23  1  0
 23 24  2  0
 24 25  1  0
 25 26  2  0
 25 27  1  0
 24 28  1  0
 28 29  1  0
 29 30  2  0
 17 31  2  0
  9 32  2  0
 32  5  1  0
 31 13  1  0
 29 21  1  0
  1 33  1  0
  6 34  1  0
  7 35  1  0
  8 36  1  0
 14 37  1  0
 15 38  1  0
 16 39  1  0
 18 40  1  0
 22 41  1  0
 23 42  1  0
 31 43  1  0
 32 44  1  0
M  CHG  4   1  -1  10  -1  25   1  27  -1
M  END
>  <UniqueID>  (59) 
56

>  <SMILES>  (59) 
[NH-]S(=O)(=O)c1cccc([N-]C(=O)c2cccc(NC(=O)c3ccc([N+](=O)[O-])oc3=O)c2)c1

>  <Energy>  (59) 
63.75910407208674

>  <Genealogy>  (59) 
[NH-]S(=O)(=O)c1cccc([N-]C(=O)c2cccc(NC(=O)c3ccc([N+](=O)[O-])oc3=O)c2)c1 (protonated)
[NH-]S(=O)(=O)c1cccc([N-]C(=O)c2cccc(NC(=O)c3ccc([N+](=O)[O-])oc3=O)c2)c1 (3D coordinates assigned)
[NH-]S(=O)(=O)c1cccc([N-]C(=O)c2cccc(NC(=O)c3ccc([N+](=O)[O-])oc3=O)c2)c1 (optimized conformer: 63.75910407208674 kcal/mol)

>  <smiles>  (59) 
NS(=O)(=O)c1cccc(NC(=O)c2cccc(NC(=O)c3ccc([N+](=O)[O-])oc3=O)c2)c1

>  <score_type>  (59) 
oracle

>  <origin>  (59) 
adg

>  <m_score__min__energy>  (59) 
-13.57

>  <m_primary>  (59) 
energy

$$$$
59:0
     RDKit          3D

 48 50  0  0  0  0  0  0  0  0999 V2000
   58.8480   30.8910   50.9310 C   0  0  0  0  0  0  0  0  0  0  0  0
   59.0800   32.0390   50.0000 C   0  0  0  0  0  0  0  0  0  0  0  0
   59.8420   33.1390   50.4080 C   0  0  0  0  0  0  0  0  0  0  0  0
   60.0370   34.2010   49.5240 C   0  0  0  0  0  0  0  0  0  0  0  0
   59.4700   34.1580   48.2480 C   0  0  0  0  0  0  0  0  0  0  0  0
   58.7040   33.0440   47.8680 C   0  0  0  0  0  0  0  0  0  0  0  0
   58.0870   32.9620   46.5270 C   0  0  0  0  0  0  0  0  0  0  0  0
   57.3680   33.9120   46.1100 O   0  0  0  0  0  0  0  0  0  0  0  0
   58.2780   31.7950   45.7070 N   0  0  0  0  0  0  0  0  0  0  0  0
   57.8690   31.7270   44.3290 C   0  0  0  0  0  0  0  0  0  0  0  0
   58.1890   32.7740   43.4450 C   0  0  0  0  0  0  0  0  0  0  0  0
   57.7870   32.7230   42.1080 C   0  0  0  0  0  0  0  0  0  0  0  0
   57.0670   31.6250   41.6360 C   0  0  0  0  0  0  0  0  0  0  0  0
   56.7540   30.5720   42.4970 C   0  0  0  0  0  0  0  0  0  0  0  0
   57.1550   30.6080   43.8410 C   0  0  0  0  0  0  0  0  0  0  0  0
   56.7870   29.4840   44.7240 C   0  0  0  0  0  0  0  0  0  0  0  0
   55.6340   29.4720   45.2370 O   0  0  0  0  0  0  0  0  0  0  0  0
   57.7230   28.4300   45.0380 N   0  0  0  0  0  0  0  0  0  0  0  0
   58.8820   28.1720   44.1620 C   0  0  0  0  0  0  0  0  0  0  0  0
   60.2180   28.6040   44.8020 C   0  0  0  0  0  0  0  0  0  0  0  0
   60.4270   28.1320   46.2500 C   0  0  0  0  0  0  0  0  0  0  0  0
   59.4960   28.8070   47.2720 C   0  0  0  0  0  0  0  0  0  0  0  0
   58.1470   28.1000   47.5120 C   0  0  0  0  0  0  0  0  0  0  0  0
   57.4580   27.5970   46.2290 C   0  0  0  0  0  0  0  0  0  0  0  0
   58.5340   32.0220   48.7530 N   0  0  0  0  0  0  0  0  0  0  0  0
   58.9190   31.2422   51.9710 H   0  0  0  0  0  0  0  0  0  0  0  0
   57.8469   30.4713   50.7532 H   0  0  0  0  0  0  0  0  0  0  0  0
   59.6076   30.1155   50.7532 H   0  0  0  0  0  0  0  0  0  0  0  0
   60.2830   33.1665   51.4154 H   0  0  0  0  0  0  0  0  0  0  0  0
   60.6363   35.0707   49.8315 H   0  0  0  0  0  0  0  0  0  0  0  0
   59.6225   34.9909   47.5458 H   0  0  0  0  0  0  0  0  0  0  0  0
   58.6680   30.9360   46.1520 H   0  0  0  0  0  0  0  0  0  0  0  0
   58.7606   33.6401   43.8098 H   0  0  0  0  0  0  0  0  0  0  0  0
   58.0383   33.5493   41.4268 H   0  0  0  0  0  0  0  0  0  0  0  0
   56.7458   31.5892   40.5845 H   0  0  0  0  0  0  0  0  0  0  0  0
   56.1887   29.7074   42.1190 H   0  0  0  0  0  0  0  0  0  0  0  0
   58.9272   27.0944   43.9459 H   0  0  0  0  0  0  0  0  0  0  0  0
   58.7450   28.7645   43.2454 H   0  0  0  0  0  0  0  0  0  0  0  0
   61.0367   28.1986   44.1894 H   0  0  0  0  0  0  0  0  0  0  0  0
   60.2013   29.7033   44.8362 H   0  0  0  0  0  0  0  0  0  0  0  0
   60.2524   27.0466   46.2880 H   0  0  0  0  0  0  0  0  0  0  0  0
   61.4551   28.4073   46.5278 H   0  0  0  0  0  0  0  0  0  0  0  0
   60.0280   28.8566   48.2335 H   0  0  0  0  0  0  0  0  0  0  0  0
   59.2488   29.7921   46.8495 H   0  0  0  0  0  0  0  0  0  0  0  0
   58.3230   27.2362   48.1699 H   0  0  0  0  0  0  0  0  0  0  0  0
   57.4746   28.8473   47.9585 H   0  0  0  0  0  0  0  0  0  0  0  0
   57.8131   26.5764   46.0232 H   0  0  0  0  0  0  0  0  0  0  0  0
   56.3742   27.6398   46.4123 H   0  0  0  0  0  0  0  0  0  0  0  0
  1  2  1  0
  2  3  2  0
  3  4  1  0
  4  5  2  0
  5  6  1  0
  6  7  1  0
  7  8  2  0
  7  9  1  0
  9 10  1  0
 10 11  2  0
 11 12  1  0
 12 13  2  0
 13 14  1  0
 14 15  2  0
 15 16  1  0
 16 17  2  0
 16 18  1  0
 18 19  1  0
 19 20  1  0
 20 21  1  0
 21 22  1  0
 22 23  1  0
 23 24  1  0
  6 25  2  0
 25  2  1  0
 15 10  1  0
 24 18  1  0
  1 26  1  0
  1 27  1  0
  1 28  1  0
  3 29  1  0
  4 30  1  0
  5 31  1  0
  9 32  1  0
 11 33  1  0
 12 34  1  0
 13 35  1  0
 14 36  1  0
 19 37  1  0
 19 38  1  0
 20 39  1  0
 20 40  1  0
 21 41  1  0
 21 42  1  0
 22 43  1  0
 22 44  1  0
 23 45  1  0
 23 46  1  0
 24 47  1  0
 24 48  1  0
M  END
>  <UniqueID>  (60) 
57

>  <SMILES>  (60) 
Cc1cccc(C(=O)Nc2ccccc2C(=O)N2CCCCCC2)n1

>  <Energy>  (60) 
64.16739481851384

>  <Genealogy>  (60) 
Cc1cccc(C(=O)Nc2ccccc2C(=O)N2CCCCCC2)n1 (3D coordinates assigned)
Cc1cccc(C(=O)Nc2ccccc2C(=O)N2CCCCCC2)n1 (nonaromatic ring conformer: 64.16739481851384 kcal/mol)

>  <smiles>  (60) 
Cc1cccc(C(=O)Nc2ccccc2C(=O)N2CCCCCC2)n1

>  <score_type>  (60) 
oracle

>  <origin>  (60) 
adg

>  <m_score__min__energy>  (60) 
-6.3799999999999999

>  <m_primary>  (60) 
energy

$$$$
60:0
     RDKit          3D

 53 56  0  0  0  0  0  0  0  0999 V2000
   58.5760   34.6150   52.8740 C   0  0  0  0  0  0  0  0  0  0  0  0
   58.8660   33.6220   51.7870 C   0  0  0  0  0  0  0  0  0  0  0  0
   58.1580   32.4200   51.7190 C   0  0  0  0  0  0  0  0  0  0  0  0
   58.4590   31.4930   50.7260 C   0  0  0  0  0  0  0  0  0  0  0  0
   59.4780   31.7670   49.8090 C   0  0  0  0  0  0  0  0  0  0  0  0
   59.7580   30.8550   48.8420 N   0  0  0  0  0  0  0  0  0  0  0  0
   60.7360   31.0710   47.9280 C   0  0  0  0  0  0  0  0  0  0  0  0
   61.0440   30.0200   46.9030 C   0  0  0  0  0  0  0  0  0  0  0  0
   59.8530   29.6270   46.2260 O   0  0  0  0  0  0  0  0  0  0  0  0
   58.8560   28.8350   46.8150 C   0  0  0  0  0  0  0  0  0  0  0  0
   58.1460   29.3130   47.7400 O   0  0  0  0  0  0  0  0  0  0  0  0
   58.6420   27.4450   46.3340 C   0  0  0  0  0  0  0  0  0  0  0  0
   59.6910   26.5140   46.4670 C   0  0  0  0  0  0  0  0  0  0  0  0
   59.5390   25.1970   46.0260 C   0  0  0  0  0  0  0  0  0  0  0  0
   58.3350   24.7850   45.4580 C   0  0  0  0  0  0  0  0  0  0  0  0
   57.2830   25.6900   45.3210 C   0  0  0  0  0  0  0  0  0  0  0  0
   57.4280   27.0270   45.7310 C   0  0  0  0  0  0  0  0  0  0  0  0
   56.3210   27.9320   45.6190 N   0  0  0  0  0  0  0  0  0  0  0  0
   56.2190   29.0480   44.7240 C   0  0  0  0  0  0  0  0  0  0  0  0
   55.0770   29.5040   44.4530 O   0  0  0  0  0  0  0  0  0  0  0  0
   57.4350   29.7470   44.1770 C   0  0  0  0  0  0  0  0  0  0  0  0
   57.8180   30.8630   45.0380 N   0  0  0  0  0  0  0  0  0  0  0  0
   57.9690   32.2020   44.5450 C   0  0  0  0  0  0  0  0  0  0  0  0
   57.6550   32.4820   43.3580 O   0  0  0  0  0  0  0  0  0  0  0  0
   58.4850   33.2600   45.4290 C   0  0  0  0  0  0  0  0  0  0  0  0
   58.1170   33.4710   46.7440 C   0  0  0  0  0  0  0  0  0  0  0  0
   58.8450   34.5640   47.1610 C   0  0  0  0  0  0  0  0  0  0  0  0
   59.6150   34.9480   46.0820 C   0  0  0  0  0  0  0  0  0  0  0  0
   59.3770   34.1520   45.0650 O   0  0  0  0  0  0  0  0  0  0  0  0
   61.4880   32.2440   47.9900 C   0  0  0  0  0  0  0  0  0  0  0  0
   61.2000   33.1800   48.9840 C   0  0  0  0  0  0  0  0  0  0  0  0
   61.8840   34.2410   49.0350 O   0  0  0  0  0  0  0  0  0  0  0  0
   60.1930   32.9420   49.8890 N   0  0  0  0  0  0  0  0  0  0  0  0
   59.9000   33.8580   50.8690 C   0  0  0  0  0  0  0  0  0  0  0  0
   58.7157   34.1365   53.8546 H   0  0  0  0  0  0  0  0  0  0  0  0
   59.2620   35.4700   52.7821 H   0  0  0  0  0  0  0  0  0  0  0  0
   57.5377   34.9664   52.7821 H   0  0  0  0  0  0  0  0  0  0  0  0
   57.3637   32.2065   52.4494 H   0  0  0  0  0  0  0  0  0  0  0  0
   57.8978   30.5490   50.6628 H   0  0  0  0  0  0  0  0  0  0  0  0
   61.7604   30.4241   46.1726 H   0  0  0  0  0  0  0  0  0  0  0  0
   61.4755   29.1429   47.4075 H   0  0  0  0  0  0  0  0  0  0  0  0
   60.6413   26.8278   46.9236 H   0  0  0  0  0  0  0  0  0  0  0  0
   60.3708   24.4844   46.1273 H   0  0  0  0  0  0  0  0  0  0  0  0
   58.2145   23.7459   45.1177 H   0  0  0  0  0  0  0  0  0  0  0  0
   56.3294   25.3542   44.8875 H   0  0  0  0  0  0  0  0  0  0  0  0
   58.2685   29.0314   44.1207 H   0  0  0  0  0  0  0  0  0  0  0  0
   57.1993   30.1366   43.1757 H   0  0  0  0  0  0  0  0  0  0  0  0
   57.9530   30.6790   46.0580 H   0  0  0  0  0  0  0  0  0  0  0  0
   57.3943   32.8885   47.3343 H   0  0  0  0  0  0  0  0  0  0  0  0
   58.8179   35.0357   48.1543 H   0  0  0  0  0  0  0  0  0  0  0  0
   60.3204   35.7920   46.0749 H   0  0  0  0  0  0  0  0  0  0  0  0
   62.2957   32.4284   47.2664 H   0  0  0  0  0  0  0  0  0  0  0  0
   60.4833   34.7883   50.9350 H   0  0  0  0  0  0  0  0  0  0  0  0
  1  2  1  0
  2  3  1  0
  3  4  2  0
  4  5  1  0
  5  6  2  0
  6  7  1  0
  7  8  1  0
  8  9  1  0
  9 10  1  0
 10 11  2  0
 10 12  1  0
 12 13  2  0
 13 14  1  0
 14 15  2  0
 15 16  1  0
 16 17  2  0
 17 18  1  0
 18 19  1  0
 19 20  2  0
 19 21  1  0
 21 22  1  0
 22 23  1  0
 23 24  2  0
 23 25  1  0
 25 26  2  0
 26 27  1  0
 27 28  2  0
 28 29  1  0
  7 30  2  0
 30 31  1  0
 31 32  2  0
 31 33  1  0
 33 34  1  0
 34  2  2  0
 33  5  1  0
 17 12  1  0
 29 25  1  0
  1 35  1  0
  1 36  1  0
  1 37  1  0
  3 38  1  0
  4 39  1  0
  8 40  1  0
  8 41  1  0
 13 42  1  0
 14 43  1  0
 15 44  1  0
 16 45  1  0
 21 46  1  0
 21 47  1  0
 22 48  1  0
 26 49  1  0
 27 50  1  0
 28 51  1  0
 30 52  1  0
 34 53  1  0
M  CHG  1  18  -1
M  END
>  <UniqueID>  (61) 
58

>  <SMILES>  (61) 
Cc1ccc2nc(COC(=O)c3ccccc3[N-]C(=O)CNC(=O)c3ccco3)cc(=O)n2c1

>  <Energy>  (61) 
90.45911092013628

>  <Genealogy>  (61) 
Cc1ccc2nc(COC(=O)c3ccccc3[N-]C(=O)CNC(=O)c3ccco3)cc(=O)n2c1 (protonated)
Cc1ccc2nc(COC(=O)c3ccccc3[N-]C(=O)CNC(=O)c3ccco3)cc(=O)n2c1 (3D coordinates assigned)
Cc1ccc2nc(COC(=O)c3ccccc3[N-]C(=O)CNC(=O)c3ccco3)cc(=O)n2c1 (optimized conformer: 90.45911092013628 kcal/mol)

>  <smiles>  (61) 
Cc1ccc2nc(COC(=O)c3ccccc3NC(=O)CNC(=O)c3ccco3)cc(=O)n2c1

>  <score_type>  (61) 
oracle

>  <origin>  (61) 
adg

>  <m_score__min__energy>  (61) 
-10.27

>  <m_primary>  (61) 
energy

$$$$
61:0
     RDKit          3D

 47 49  0  0  0  0  0  0  0  0999 V2000
   56.7610   30.4790   43.4730 C   0  0  0  0  0  0  0  0  0  0  0  0
   56.3270   29.3370   44.3380 C   0  0  0  0  0  0  0  0  0  0  0  0
   55.1680   29.3500   44.8260 O   0  0  0  0  0  0  0  0  0  0  0  0
   57.2000   28.2440   44.6570 N   0  0  0  0  0  0  0  0  0  0  0  0
   58.2040   28.2200   45.6820 C   0  0  0  0  0  0  0  0  0  0  0  0
   59.3430   27.4030   45.5790 C   0  0  0  0  0  0  0  0  0  0  0  0
   60.2760   27.3650   46.6180 C   0  0  0  0  0  0  0  0  0  0  0  0
   60.0750   28.1280   47.7700 C   0  0  0  0  0  0  0  0  0  0  0  0
   58.9420   28.9440   47.8890 C   0  0  0  0  0  0  0  0  0  0  0  0
   58.7480   29.6810   49.1040 N   0  0  0  0  0  0  0  0  0  0  0  0
   59.6340   29.7050   50.2300 C   0  0  0  0  0  0  0  0  0  0  0  0
   60.8460   30.0180   50.0660 O   0  0  0  0  0  0  0  0  0  0  0  0
   59.1360   29.3410   51.5830 C   0  0  0  0  0  0  0  0  0  0  0  0
   59.9170   28.5730   52.4690 C   0  0  0  0  0  0  0  0  0  0  0  0
   61.2140   28.1950   52.1340 O   0  0  0  0  0  0  0  0  0  0  0  0
   59.4320   28.2080   53.6500 O   0  0  0  0  0  0  0  0  0  0  0  0
   58.2110   28.5190   54.0640 C   0  0  0  0  0  0  0  0  0  0  0  0
   57.8430   28.1350   55.2050 O   0  0  0  0  0  0  0  0  0  0  0  0
   57.3520   29.2760   53.2470 C   0  0  0  0  0  0  0  0  0  0  0  0
   55.9430   29.5410   53.6340 C   0  0  0  0  0  0  0  0  0  0  0  0
   55.6680   30.4820   54.4240 O   0  0  0  0  0  0  0  0  0  0  0  0
   54.5950   28.5640   52.9490 S   0  0  0  0  0  0  0  0  0  0  0  0
   53.2530   29.6240   53.6080 C   0  0  0  0  0  0  0  0  0  0  0  0
   52.5060   30.3370   52.5050 C   0  0  0  0  0  0  0  0  0  0  0  0
   52.6880   29.9310   51.1710 C   0  0  0  0  0  0  0  0  0  0  0  0
   52.0650   30.6230   50.1300 C   0  0  0  0  0  0  0  0  0  0  0  0
   51.2420   31.7160   50.4060 C   0  0  0  0  0  0  0  0  0  0  0  0
   50.6350   32.4060   49.3640 O   0  0  0  0  0  0  0  0  0  0  0  0
   51.0290   32.1150   51.7320 C   0  0  0  0  0  0  0  0  0  0  0  0
   50.2060   33.2010   52.0060 O   0  0  0  0  0  0  0  0  0  0  0  0
   51.6540   31.4270   52.7810 C   0  0  0  0  0  0  0  0  0  0  0  0
   51.4320   31.8420   54.0900 O   0  0  0  0  0  0  0  0  0  0  0  0
   57.8400   29.7080   52.0000 C   0  0  0  0  0  0  0  0  0  0  0  0
   57.0180   30.4530   51.1590 O   0  0  0  0  0  0  0  0  0  0  0  0
   57.9940   28.9650   46.8500 C   0  0  0  0  0  0  0  0  0  0  0  0
   57.0802   31.3189   44.1075 H   0  0  0  0  0  0  0  0  0  0  0  0
   57.6004   30.1596   42.8379 H   0  0  0  0  0  0  0  0  0  0  0  0
   55.9213   30.7977   42.8379 H   0  0  0  0  0  0  0  0  0  0  0  0
   59.5002   26.7919   44.6779 H   0  0  0  0  0  0  0  0  0  0  0  0
   61.1714   26.7323   46.5284 H   0  0  0  0  0  0  0  0  0  0  0  0
   60.8094   28.0884   48.5879 H   0  0  0  0  0  0  0  0  0  0  0  0
   61.7080   28.6540   51.3800 H   0  0  0  0  0  0  0  0  0  0  0  0
   52.5453   28.9950   54.1680 H   0  0  0  0  0  0  0  0  0  0  0  0
   53.7079   30.3849   54.2592 H   0  0  0  0  0  0  0  0  0  0  0  0
   53.3250   29.0629   50.9460 H   0  0  0  0  0  0  0  0  0  0  0  0
   52.2235   30.3055   49.0888 H   0  0  0  0  0  0  0  0  0  0  0  0
   57.0816   29.5704   46.9551 H   0  0  0  0  0  0  0  0  0  0  0  0
  1  2  1  0
  2  3  2  0
  2  4  1  0
  4  5  1  0
  5  6  2  0
  6  7  1  0
  7  8  2  0
  8  9  1  0
  9 10  1  0
 10 11  1  0
 11 12  2  0
 11 13  1  0
 13 14  2  0
 14 15  1  0
 14 16  1  0
 16 17  1  0
 17 18  2  0
 17 19  1  0
 19 20  1  0
 20 21  2  0
 20 22  1  0
 22 23  1  0
 23 24  1  0
 24 25  2  0
 25 26  1  0
 26 27  2  0
 27 28  1  0
 27 29  1  0
 29 30  1  0
 29 31  2  0
 31 32  1  0
 19 33  2  0
 33 34  1  0
  9 35  2  0
 35  5  1  0
 33 13  1  0
 31 24  1  0
  1 36  1  0
  1 37  1  0
  1 38  1  0
  6 39  1  0
  7 40  1  0
  8 41  1  0
 15 42  1  0
 23 43  1  0
 23 44  1  0
 25 45  1  0
 26 46  1  0
 35 47  1  0
M  CHG  6   4  -1  10  -1  28  -1  30  -1  32  -1  34  -1
M  END
>  <UniqueID>  (62) 
59

>  <SMILES>  (62) 
CC(=O)[N-]c1cccc([N-]C(=O)c2c(O)oc(=O)c(C(=O)SCc3ccc([O-])c([O-])c3[O-])c2[O-])c1

>  <Energy>  (62) 
61.67526216451028

>  <Genealogy>  (62) 
CC(=O)[N-]c1cccc([N-]C(=O)c2c(O)oc(=O)c(C(=O)SCc3ccc([O-])c([O-])c3[O-])c2[O-])c1 (protonated)
CC(=O)[N-]c1cccc([N-]C(=O)c2c(O)oc(=O)c(C(=O)SCc3ccc([O-])c([O-])c3[O-])c2[O-])c1 (3D coordinates assigned)
CC(=O)[N-]c1cccc([N-]C(=O)c2c(O)oc(=O)c(C(=O)SCc3ccc([O-])c([O-])c3[O-])c2[O-])c1 (optimized conformer: 61.67526216451028 kcal/mol)

>  <smiles>  (62) 
CC(=O)Nc1cccc(NC(=O)c2c(O)oc(=O)c(C(=O)SCc3ccc(O)c(O)c3O)c2O)c1

>  <score_type>  (62) 
oracle

>  <origin>  (62) 
adg

>  <m_score__min__energy>  (62) 
-22.050000000000001

>  <m_primary>  (62) 
energy

$$$$
62:0
     RDKit          3D

 52 54  0  0  0  0  0  0  0  0999 V2000
   55.1850   29.0340   44.5420 O   0  0  0  0  0  0  0  0  0  0  0  0
   56.4200   29.2460   44.6960 C   0  0  0  0  0  0  0  0  0  0  0  0
   57.1210   28.8310   45.9560 C   0  0  0  0  0  0  0  0  0  0  0  0
   57.4810   27.3630   45.9590 C   0  0  0  0  0  0  0  0  0  0  0  0
   58.8320   26.9780   45.9960 C   0  0  0  0  0  0  0  0  0  0  0  0
   59.1820   25.6240   46.0220 C   0  0  0  0  0  0  0  0  0  0  0  0
   58.1870   24.6430   46.0220 C   0  0  0  0  0  0  0  0  0  0  0  0
   58.5350   23.2980   46.0470 O   0  0  0  0  0  0  0  0  0  0  0  0
   56.8390   25.0150   46.0010 C   0  0  0  0  0  0  0  0  0  0  0  0
   56.4810   26.3680   45.9850 C   0  0  0  0  0  0  0  0  0  0  0  0
   55.1340   26.7170   45.9980 O   0  0  0  0  0  0  0  0  0  0  0  0
   57.1830   29.8420   43.6410 N   0  0  0  0  0  0  0  0  0  0  0  0
   58.2090   30.8550   43.8590 C   0  0  0  0  0  0  0  0  0  0  0  0
   57.6220   32.2580   43.6440 C   0  0  0  0  0  0  0  0  0  0  0  0
   57.4370   33.0350   44.9670 C   0  0  0  0  0  0  0  0  0  0  0  0
   57.9980   34.4840   44.8890 C   0  0  0  0  0  0  0  0  0  0  0  0
   59.2520   34.6700   45.7510 C   0  0  0  0  0  0  0  0  0  0  0  0
   58.9670   34.3480   47.1650 N   0  0  0  0  0  0  0  0  0  0  0  0
   60.1410   34.4990   48.0550 C   0  0  0  0  0  0  0  0  0  0  0  0
   61.2610   33.5240   47.7550 C   0  0  0  0  0  0  0  0  0  0  0  0
   62.4280   33.9660   47.1040 C   0  0  0  0  0  0  0  0  0  0  0  0
   63.4630   33.0700   46.8250 C   0  0  0  0  0  0  0  0  0  0  0  0
   63.3540   31.7310   47.2040 C   0  0  0  0  0  0  0  0  0  0  0  0
   62.2080   31.2850   47.8690 C   0  0  0  0  0  0  0  0  0  0  0  0
   61.1680   32.1780   48.1490 C   0  0  0  0  0  0  0  0  0  0  0  0
   58.1790   33.1100   47.3920 C   0  0  0  0  0  0  0  0  0  0  0  0
   58.0590   32.2370   46.1360 C   0  0  0  0  0  0  0  0  0  0  0  0
   58.0437   29.4211   46.0575 H   0  0  0  0  0  0  0  0  0  0  0  0
   56.4337   29.0092   46.7962 H   0  0  0  0  0  0  0  0  0  0  0  0
   59.6192   27.7463   46.0046 H   0  0  0  0  0  0  0  0  0  0  0  0
   60.2421   25.3311   46.0425 H   0  0  0  0  0  0  0  0  0  0  0  0
   56.0571   24.2413   45.9970 H   0  0  0  0  0  0  0  0  0  0  0  0
   58.5876   30.7732   44.8885 H   0  0  0  0  0  0  0  0  0  0  0  0
   59.0294   30.6953   43.1438 H   0  0  0  0  0  0  0  0  0  0  0  0
   58.3012   32.8279   42.9930 H   0  0  0  0  0  0  0  0  0  0  0  0
   56.6285   32.1367   43.1876 H   0  0  0  0  0  0  0  0  0  0  0  0
   56.3577   33.1421   45.1505 H   0  0  0  0  0  0  0  0  0  0  0  0
   58.2515   34.7092   43.8426 H   0  0  0  0  0  0  0  0  0  0  0  0
   57.2235   35.1655   45.2706 H   0  0  0  0  0  0  0  0  0  0  0  0
   60.0458   34.0039   45.3820 H   0  0  0  0  0  0  0  0  0  0  0  0
   59.5734   35.7200   45.6855 H   0  0  0  0  0  0  0  0  0  0  0  0
   60.5315   35.5214   47.9445 H   0  0  0  0  0  0  0  0  0  0  0  0
   59.7977   34.2897   49.0789 H   0  0  0  0  0  0  0  0  0  0  0  0
   62.5256   35.0224   46.8134 H   0  0  0  0  0  0  0  0  0  0  0  0
   64.3666   33.4208   46.3050 H   0  0  0  0  0  0  0  0  0  0  0  0
   64.1691   31.0273   46.9796 H   0  0  0  0  0  0  0  0  0  0  0  0
   62.1239   30.2310   48.1724 H   0  0  0  0  0  0  0  0  0  0  0  0
   60.2722   31.8246   48.6807 H   0  0  0  0  0  0  0  0  0  0  0  0
   58.6695   32.5222   48.1819 H   0  0  0  0  0  0  0  0  0  0  0  0
   57.1619   33.4153   47.6789 H   0  0  0  0  0  0  0  0  0  0  0  0
   59.0603   31.8892   45.8421 H   0  0  0  0  0  0  0  0  0  0  0  0
   57.4066   31.3812   46.3638 H   0  0  0  0  0  0  0  0  0  0  0  0
  1  2  2  0
  2  3  1  0
  3  4  1  0
  4  5  2  0
  5  6  1  0
  6  7  2  0
  7  8  1  0
  7  9  1  0
  9 10  2  0
 10 11  1  0
  2 12  1  0
 12 13  1  0
 13 14  1  0
 14 15  1  0
 15 16  1  0
 16 17  1  0
 17 18  1  0
 18 19  1  0
 19 20  1  0
 20 21  2  0
 21 22  1  0
 22 23  2  0
 23 24  1  0
 24 25  2  0
 18 26  1  0
 26 27  1  0
 10  4  1  0
 27 15  1  0
 25 20  1  0
  3 28  1  0
  3 29  1  0
  5 30  1  0
  6 31  1  0
  9 32  1  0
 13 33  1  0
 13 34  1  0
 14 35  1  0
 14 36  1  0
 15 37  1  0
 16 38  1  0
 16 39  1  0
 17 40  1  0
 17 41  1  0
 19 42  1  0
 19 43  1  0
 21 44  1  0
 22 45  1  0
 23 46  1  0
 24 47  1  0
 25 48  1  0
 26 49  1  0
 26 50  1  0
 27 51  1  0
 27 52  1  0
M  CHG  3   8  -1  11  -1  12  -1
M  END
>  <UniqueID>  (63) 
60

>  <SMILES>  (63) 
O=C(Cc1ccc([O-])cc1[O-])[N-]CCC1CCN(Cc2ccccc2)CC1

>  <Energy>  (63) 
60.48368091446983

>  <Genealogy>  (63) 
O=C(Cc1ccc([O-])cc1[O-])[N-]CCC1CCN(Cc2ccccc2)CC1 (protonated)
O=C(Cc1ccc([O-])cc1[O-])[N-]CCC1CCN(Cc2ccccc2)CC1 (3D coordinates assigned)
O=C(Cc1ccc([O-])cc1[O-])[N-]CCC1CCN(Cc2ccccc2)CC1 (nonaromatic ring conformer: 60.48368091446983 kcal/mol)

>  <smiles>  (63) 
O=C(Cc1ccc(O)cc1O)NCCC1CCN(Cc2ccccc2)CC1

>  <score_type>  (63) 
oracle

>  <origin>  (63) 
adg

>  <m_score__min__energy>  (63) 
-15.98

>  <m_primary>  (63) 
energy

$$$$
63:0
     RDKit          3D

 41 43  0  0  0  0  0  0  0  0999 V2000
   55.2160   26.6950   46.1000 N   0  0  0  0  0  0  0  0  0  0  0  0
   56.5750   25.6310   46.1700 S   0  0  0  0  0  0  0  0  0  0  0  0
   56.7190   24.8950   44.8680 O   0  0  0  0  0  0  0  0  0  0  0  0
   56.3330   24.6250   47.2600 O   0  0  0  0  0  0  0  0  0  0  0  0
   58.0510   26.5570   46.5070 C   0  0  0  0  0  0  0  0  0  0  0  0
   58.7520   26.2860   47.6940 C   0  0  0  0  0  0  0  0  0  0  0  0
   59.9150   26.9950   48.0240 C   0  0  0  0  0  0  0  0  0  0  0  0
   60.6440   26.7180   49.3140 C   0  0  0  0  0  0  0  0  0  0  0  0
   60.4060   27.7910   50.2800 N   0  0  0  0  0  0  0  0  0  0  0  0
   60.3070   29.1880   49.9380 C   0  0  0  0  0  0  0  0  0  0  0  0
   61.4490   29.9970   49.7740 C   0  0  0  0  0  0  0  0  0  0  0  0
   61.3140   31.3520   49.4530 C   0  0  0  0  0  0  0  0  0  0  0  0
   60.0450   31.9100   49.2870 C   0  0  0  0  0  0  0  0  0  0  0  0
   58.9070   31.1150   49.4380 C   0  0  0  0  0  0  0  0  0  0  0  0
   59.0360   29.7600   49.7600 C   0  0  0  0  0  0  0  0  0  0  0  0
   60.4000   27.9670   47.1430 C   0  0  0  0  0  0  0  0  0  0  0  0
   59.7180   28.2460   45.9600 C   0  0  0  0  0  0  0  0  0  0  0  0
   58.5420   27.5540   45.6230 C   0  0  0  0  0  0  0  0  0  0  0  0
   57.8220   27.9530   44.3540 C   0  0  0  0  0  0  0  0  0  0  0  0
   57.5020   29.4210   44.3380 C   0  0  0  0  0  0  0  0  0  0  0  0
   58.5580   30.6600   43.8910 S   0  0  0  0  0  0  0  0  0  0  0  0
   57.3750   31.8410   44.0470 C   0  0  0  0  0  0  0  0  0  0  0  0
   57.5670   33.0680   43.8410 O   0  0  0  0  0  0  0  0  0  0  0  0
   56.1790   31.3350   44.4100 N   0  0  0  0  0  0  0  0  0  0  0  0
   56.2460   29.9850   44.5620 C   0  0  0  0  0  0  0  0  0  0  0  0
   55.1330   29.2300   44.9150 O   0  0  0  0  0  0  0  0  0  0  0  0
   55.1640   27.0610   45.1220 H   0  0  0  0  0  0  0  0  0  0  0  0
   58.3823   25.5052   48.3749 H   0  0  0  0  0  0  0  0  0  0  0  0
   60.2860   25.7667   49.7346 H   0  0  0  0  0  0  0  0  0  0  0  0
   61.7227   26.6600   49.1066 H   0  0  0  0  0  0  0  0  0  0  0  0
   60.3730   27.5230   51.2910 H   0  0  0  0  0  0  0  0  0  0  0  0
   62.4512   29.5612   49.8989 H   0  0  0  0  0  0  0  0  0  0  0  0
   62.2095   31.9790   49.3311 H   0  0  0  0  0  0  0  0  0  0  0  0
   59.9416   32.9763   49.0372 H   0  0  0  0  0  0  0  0  0  0  0  0
   57.9078   31.5549   49.3035 H   0  0  0  0  0  0  0  0  0  0  0  0
   58.1361   29.1378   49.8747 H   0  0  0  0  0  0  0  0  0  0  0  0
   61.3235   28.5135   47.3848 H   0  0  0  0  0  0  0  0  0  0  0  0
   60.1057   29.0190   45.2802 H   0  0  0  0  0  0  0  0  0  0  0  0
   58.4624   27.7178   43.4911 H   0  0  0  0  0  0  0  0  0  0  0  0
   56.8759   27.3940   44.3049 H   0  0  0  0  0  0  0  0  0  0  0  0
   55.1650   28.2170   44.8920 H   0  0  0  0  0  0  0  0  0  0  0  0
  1  2  1  0
  2  3  2  0
  2  4  2  0
  2  5  1  0
  5  6  2  0
  6  7  1  0
  7  8  1  0
  8  9  1  0
  9 10  1  0
 10 11  2  0
 11 12  1  0
 12 13  2  0
 13 14  1  0
 14 15  2  0
  7 16  2  0
 16 17  1  0
 17 18  2  0
 18 19  1  0
 19 20  1  0
 20 21  1  0
 21 22  1  0
 22 23  2  0
 22 24  1  0
 24 25  1  0
 25 26  1  0
 18  5  1  0
 25 20  2  0
 15 10  1  0
  1 27  1  0
  6 28  1  0
  8 29  1  0
  8 30  1  0
  9 31  1  0
 11 32  1  0
 12 33  1  0
 13 34  1  0
 14 35  1  0
 15 36  1  0
 16 37  1  0
 17 38  1  0
 19 39  1  0
 19 40  1  0
 26 41  1  0
M  CHG  2   1  -1  24  -1
M  END
>  <UniqueID>  (64) 
61

>  <SMILES>  (64) 
[NH-]S(=O)(=O)c1cc(CNc2ccccc2)ccc1Cc1sc(=O)[n-]c1O

>  <Energy>  (64) 
73.66463252915477

>  <Genealogy>  (64) 
[NH-]S(=O)(=O)c1cc(CNc2ccccc2)ccc1Cc1sc(=O)[n-]c1O (protonated)
[NH-]S(=O)(=O)c1cc(CNc2ccccc2)ccc1Cc1sc(=O)[n-]c1O (3D coordinates assigned)
[NH-]S(=O)(=O)c1cc(CNc2ccccc2)ccc1Cc1sc(=O)[n-]c1O (optimized conformer: 73.66463252915477 kcal/mol)

>  <smiles>  (64) 
NS(=O)(=O)c1cc(CNc2ccccc2)ccc1Cc1sc(=O)[nH]c1O

>  <score_type>  (64) 
oracle

>  <origin>  (64) 
adg

>  <m_score__min__energy>  (64) 
-15.76

>  <m_primary>  (64) 
energy

$$$$
64:0
     RDKit          3D

 42 44  0  0  0  0  0  0  0  0999 V2000
   56.5960   33.4070   45.6930 H   0  0  0  0  0  0  0  0  0  0  0  0
   56.7580   32.5080   45.2530 O   0  0  0  0  0  0  0  0  0  0  0  0
   57.8650   31.7230   45.5700 C   0  0  0  0  0  0  0  0  0  0  0  0
   58.0380   30.4960   44.9140 C   0  0  0  0  0  0  0  0  0  0  0  0
   57.3418   30.2023   44.1146 H   0  0  0  0  0  0  0  0  0  0  0  0
   59.0880   29.6420   45.2670 C   0  0  0  0  0  0  0  0  0  0  0  0
   59.2430   28.3010   44.6040 C   0  0  0  0  0  0  0  0  0  0  0  0
   60.2938   27.9826   44.6702 H   0  0  0  0  0  0  0  0  0  0  0  0
   58.9411   28.3856   43.5496 H   0  0  0  0  0  0  0  0  0  0  0  0
   58.3710   27.2800   45.2830 C   0  0  0  0  0  0  0  0  0  0  0  0
   58.9460   26.1770   45.9300 C   0  0  0  0  0  0  0  0  0  0  0  0
   60.0374   26.0410   45.9126 H   0  0  0  0  0  0  0  0  0  0  0  0
   58.1410   25.2490   46.5970 C   0  0  0  0  0  0  0  0  0  0  0  0
   58.6016   24.3829   47.0947 H   0  0  0  0  0  0  0  0  0  0  0  0
   56.7450   25.4170   46.6350 C   0  0  0  0  0  0  0  0  0  0  0  0
   55.8830   24.4900   47.3110 N   0  0  0  0  0  0  0  0  0  0  0  0
   56.3840   23.0380   48.1170 S   0  0  0  0  0  0  0  0  0  0  0  0
   57.0280   22.1270   47.1110 O   0  0  0  0  0  0  0  0  0  0  0  0
   57.3890   23.3620   49.1870 O   0  0  0  0  0  0  0  0  0  0  0  0
   54.9740   22.2070   48.8170 C   0  0  0  0  0  0  0  0  0  0  0  0
   55.0349   22.2429   49.9147 H   0  0  0  0  0  0  0  0  0  0  0  0
   54.0519   22.7061   48.4844 H   0  0  0  0  0  0  0  0  0  0  0  0
   54.9639   21.1585   48.4844 H   0  0  0  0  0  0  0  0  0  0  0  0
   56.1720   26.5260   45.9960 C   0  0  0  0  0  0  0  0  0  0  0  0
   54.7950   26.7150   46.0230 O   0  0  0  0  0  0  0  0  0  0  0  0
   56.9790   27.4530   45.3280 C   0  0  0  0  0  0  0  0  0  0  0  0
   56.5199   28.3226   44.8351 H   0  0  0  0  0  0  0  0  0  0  0  0
   59.9430   30.0250   46.3050 C   0  0  0  0  0  0  0  0  0  0  0  0
   60.7524   29.3524   46.6252 H   0  0  0  0  0  0  0  0  0  0  0  0
   59.7770   31.2250   46.9190 N   0  0  0  0  0  0  0  0  0  0  0  0
   58.7920   32.1000   46.5760 C   0  0  0  0  0  0  0  0  0  0  0  0
   58.7390   33.2310   47.2270 N   0  0  0  0  0  0  0  0  0  0  0  0
   59.6790   34.3140   47.2410 C   0  0  0  0  0  0  0  0  0  0  0  0
   59.2980   35.4930   47.0080 O   0  0  0  0  0  0  0  0  0  0  0  0
   61.1110   34.0310   47.4080 C   0  0  0  0  0  0  0  0  0  0  0  0
   61.9100   33.8940   48.8820 S   0  0  0  0  0  0  0  0  0  0  0  0
   63.4340   33.5920   48.2380 C   0  0  0  0  0  0  0  0  0  0  0  0
   64.3547   33.4206   48.8150 H   0  0  0  0  0  0  0  0  0  0  0  0
   63.3310   33.5960   46.8530 C   0  0  0  0  0  0  0  0  0  0  0  0
   64.1879   33.4222   46.1855 H   0  0  0  0  0  0  0  0  0  0  0  0
   62.0340   33.8420   46.3860 C   0  0  0  0  0  0  0  0  0  0  0  0
   61.7721   33.8817   45.3184 H   0  0  0  0  0  0  0  0  0  0  0  0
  1  2  1  0
  2  3  1  0
  3  4  2  0
  4  5  1  0
  4  6  1  0
  6  7  1  0
  7  8  1  0
  7  9  1  0
  7 10  1  0
 10 11  2  0
 11 12  1  0
 11 13  1  0
 13 14  1  0
 13 15  2  0
 15 16  1  0
 16 17  1  0
 17 18  2  0
 17 19  2  0
 17 20  1  0
 20 21  1  0
 20 22  1  0
 20 23  1  0
 15 24  1  0
 24 25  1  0
 24 26  2  0
 26 27  1  0
  6 28  2  0
 28 29  1  0
 28 30  1  0
 30 31  1  0
 31 32  2  0
 32 33  1  0
 33 34  2  0
 33 35  1  0
 35 36  1  0
 36 37  1  0
 37 38  1  0
 37 39  2  0
 39 40  1  0
 39 41  1  0
 41 42  1  0
 31  3  1  0
 41 35  2  0
 26 10  1  0
M  CHG  3  16  -1  25  -1  30  -1
M  END
>  <UniqueID>  (65) 
62

>  <SMILES>  (65) 
CS(=O)(=O)[N-]c1ccc(Cc2c[n-]/c(=N/C(=O)c3cccs3)c(O)c2)cc1[O-]

>  <Energy>  (65) 
79.71775632597912

>  <Genealogy>  (65) 
CS(=O)(=O)[N-]c1ccc(Cc2c[n-]c(=NC(=O)c3cccs3)c(O)c2)cc1[O-] (protonated)
CS(=O)(=O)[N-]c1ccc(Cc2c[n-]/c(=N/C(=O)c3cccs3)c(O)c2)cc1[O-] (cis-trans isomerization)
CS(=O)(=O)[N-]c1ccc(Cc2c[n-]/c(=N/C(=O)c3cccs3)c(O)c2)cc1[O-] (3D coordinates assigned)
CS(=O)(=O)[N-]c1ccc(Cc2c[n-]/c(=N/C(=O)c3cccs3)c(O)c2)cc1[O-] (optimized conformer: 79.71775632597912 kcal/mol)

>  <smiles>  (65) 
CS(=O)(=O)Nc1ccc(Cc2c[nH]c(=NC(=O)c3cccs3)c(O)c2)cc1O

>  <score_type>  (65) 
oracle

>  <origin>  (65) 
adg

>  <m_score__min__energy>  (65) 
-14.73

>  <m_primary>  (65) 
energy

$$$$
65:0
     RDKit          3D

 55 57  0  0  0  0  0  0  0  0999 V2000
   56.4370   26.0500   46.3310 C   0  0  0  0  0  0  0  0  0  0  0  0
   57.3530   27.2740   46.3600 C   0  0  0  0  0  0  0  0  0  0  0  0
   58.3360   27.2440   45.2570 N   0  0  0  0  0  0  0  0  0  0  0  0
   58.0170   28.2130   44.1860 C   0  0  0  0  0  0  0  0  0  0  0  0
   57.7360   29.5540   44.7910 C   0  0  0  0  0  0  0  0  0  0  0  0
   56.5680   29.8380   45.1550 O   0  0  0  0  0  0  0  0  0  0  0  0
   58.8100   30.4880   44.9860 N   0  0  0  0  0  0  0  0  0  0  0  0
   58.6030   31.8530   45.3960 C   0  0  0  0  0  0  0  0  0  0  0  0
   57.4580   32.5330   44.9450 C   0  0  0  0  0  0  0  0  0  0  0  0
   57.2320   33.8640   45.2950 C   0  0  0  0  0  0  0  0  0  0  0  0
   58.1520   34.5400   46.0900 C   0  0  0  0  0  0  0  0  0  0  0  0
   59.2990   33.8870   46.5410 C   0  0  0  0  0  0  0  0  0  0  0  0
   59.5460   32.5380   46.2140 C   0  0  0  0  0  0  0  0  0  0  0  0
   60.7830   31.8920   46.7410 C   0  0  0  0  0  0  0  0  0  0  0  0
   61.1110   30.7360   46.3720 O   0  0  0  0  0  0  0  0  0  0  0  0
   61.6660   32.5960   47.6280 N   0  0  0  0  0  0  0  0  0  0  0  0
   62.9610   33.0580   47.1150 C   0  0  0  0  0  0  0  0  0  0  0  0
   63.9480   33.2600   48.2730 C   0  0  0  0  0  0  0  0  0  0  0  0
   63.3690   34.0440   49.3000 O   0  0  0  0  0  0  0  0  0  0  0  0
   62.2940   33.3340   49.8870 C   0  0  0  0  0  0  0  0  0  0  0  0
   61.1520   33.1490   48.8850 C   0  0  0  0  0  0  0  0  0  0  0  0
   59.9360   27.5430   45.8980 S   0  0  0  0  0  0  0  0  0  0  0  0
   60.6830   28.4760   44.9850 O   0  0  0  0  0  0  0  0  0  0  0  0
   60.6970   26.2540   46.0070 O   0  0  0  0  0  0  0  0  0  0  0  0
   59.8040   28.2320   47.5110 C   0  0  0  0  0  0  0  0  0  0  0  0
   59.0040   29.3530   47.7570 C   0  0  0  0  0  0  0  0  0  0  0  0
   58.9260   29.8920   49.0440 C   0  0  0  0  0  0  0  0  0  0  0  0
   59.6470   29.3130   50.0860 C   0  0  0  0  0  0  0  0  0  0  0  0
   60.4390   28.1930   49.8480 C   0  0  0  0  0  0  0  0  0  0  0  0
   60.5180   27.6540   48.5620 C   0  0  0  0  0  0  0  0  0  0  0  0
   56.2056   25.7407   47.3610 H   0  0  0  0  0  0  0  0  0  0  0  0
   55.5042   26.3025   45.8056 H   0  0  0  0  0  0  0  0  0  0  0  0
   56.9423   25.2262   45.8056 H   0  0  0  0  0  0  0  0  0  0  0  0
   56.7389   28.1818   46.2663 H   0  0  0  0  0  0  0  0  0  0  0  0
   57.9039   27.2690   47.3121 H   0  0  0  0  0  0  0  0  0  0  0  0
   58.8716   28.2933   43.4981 H   0  0  0  0  0  0  0  0  0  0  0  0
   57.1310   27.8683   43.6327 H   0  0  0  0  0  0  0  0  0  0  0  0
   59.7750   30.1770   44.7340 H   0  0  0  0  0  0  0  0  0  0  0  0
   56.7309   32.0084   44.3077 H   0  0  0  0  0  0  0  0  0  0  0  0
   56.3263   34.3793   44.9425 H   0  0  0  0  0  0  0  0  0  0  0  0
   57.9747   35.5907   46.3632 H   0  0  0  0  0  0  0  0  0  0  0  0
   60.0233   34.4339   47.1625 H   0  0  0  0  0  0  0  0  0  0  0  0
   63.3652   32.3075   46.4198 H   0  0  0  0  0  0  0  0  0  0  0  0
   62.8193   34.0157   46.5928 H   0  0  0  0  0  0  0  0  0  0  0  0
   64.2273   32.2784   48.6834 H   0  0  0  0  0  0  0  0  0  0  0  0
   64.8364   33.7835   47.8900 H   0  0  0  0  0  0  0  0  0  0  0  0
   62.6503   32.3460   50.2139 H   0  0  0  0  0  0  0  0  0  0  0  0
   61.9190   33.9098   50.7460 H   0  0  0  0  0  0  0  0  0  0  0  0
   60.4062   32.4594   49.3073 H   0  0  0  0  0  0  0  0  0  0  0  0
   60.6886   34.1263   48.6843 H   0  0  0  0  0  0  0  0  0  0  0  0
   58.4347   29.8115   46.9350 H   0  0  0  0  0  0  0  0  0  0  0  0
   58.2955   30.7731   49.2342 H   0  0  0  0  0  0  0  0  0  0  0  0
   59.5905   29.7411   51.0977 H   0  0  0  0  0  0  0  0  0  0  0  0
   61.0026   27.7326   50.6729 H   0  0  0  0  0  0  0  0  0  0  0  0
   61.1457   26.7700   48.3765 H   0  0  0  0  0  0  0  0  0  0  0  0
  1  2  1  0
  2  3  1  0
  3  4  1  0
  4  5  1  0
  5  6  2  0
  5  7  1  0
  7  8  1  0
  8  9  2  0
  9 10  1  0
 10 11  2  0
 11 12  1  0
 12 13  2  0
 13 14  1  0
 14 15  2  0
 14 16  1  0
 16 17  1  0
 17 18  1  0
 18 19  1  0
 19 20  1  0
 20 21  1  0
  3 22  1  0
 22 23  2  0
 22 24  2  0
 22 25  1  0
 25 26  2  0
 26 27  1  0
 27 28  2  0
 28 29  1  0
 29 30  2  0
 13  8  1  0
 21 16  1  0
 30 25  1  0
  1 31  1  0
  1 32  1  0
  1 33  1  0
  2 34  1  0
  2 35  1  0
  4 36  1  0
  4 37  1  0
  7 38  1  0
  9 39  1  0
 10 40  1  0
 11 41  1  0
 12 42  1  0
 17 43  1  0
 17 44  1  0
 18 45  1  0
 18 46  1  0
 20 47  1  0
 20 48  1  0
 21 49  1  0
 21 50  1  0
 26 51  1  0
 27 52  1  0
 28 53  1  0
 29 54  1  0
 30 55  1  0
M  END
>  <UniqueID>  (66) 
63

>  <SMILES>  (66) 
CCN(CC(=O)Nc1ccccc1C(=O)N1CCOCC1)S(=O)(=O)c1ccccc1

>  <Energy>  (66) 
69.48998612514553

>  <Genealogy>  (66) 
CCN(CC(=O)Nc1ccccc1C(=O)N1CCOCC1)S(=O)(=O)c1ccccc1 (3D coordinates assigned)
CCN(CC(=O)Nc1ccccc1C(=O)N1CCOCC1)S(=O)(=O)c1ccccc1 (nonaromatic ring conformer: 69.48998612514553 kcal/mol)

>  <smiles>  (66) 
CCN(CC(=O)Nc1ccccc1C(=O)N1CCOCC1)S(=O)(=O)c1ccccc1

>  <score_type>  (66) 
oracle

>  <origin>  (66) 
adg

>  <m_score__min__energy>  (66) 
-9.6899999999999995

>  <m_primary>  (66) 
energy

$$$$
66:0
     RDKit          3D

 44 48  0  0  0  0  0  0  0  0999 V2000
   56.2090   29.4370   52.4790 N   0  0  0  0  0  0  0  0  0  0  0  0
   56.9020   30.2550   52.0450 C   0  0  0  0  0  0  0  0  0  0  0  0
   57.7650   31.2720   51.5050 C   0  0  0  0  0  0  0  0  0  0  0  0
   58.2720   32.2860   52.3460 C   0  0  0  0  0  0  0  0  0  0  0  0
   59.1030   33.2890   51.8220 C   0  0  0  0  0  0  0  0  0  0  0  0
   59.4230   33.2530   50.4640 C   0  0  0  0  0  0  0  0  0  0  0  0
   58.9400   32.2590   49.6450 C   0  0  0  0  0  0  0  0  0  0  0  0
   58.0920   31.2630   50.1390 C   0  0  0  0  0  0  0  0  0  0  0  0
   59.3370   32.5160   48.2280 C   0  0  2  0  0  0  0  0  0  0  0  0
   58.1170   33.1890   47.4850 C   0  0  0  0  0  0  0  0  0  0  0  0
   58.0860   32.4420   46.2020 C   0  0  0  0  0  0  0  0  0  0  0  0
   57.1080   32.3430   45.2150 C   0  0  0  0  0  0  0  0  0  0  0  0
   57.2390   31.1600   44.4810 C   0  0  0  0  0  0  0  0  0  0  0  0
   58.5000   30.2220   45.1330 S   0  0  0  0  0  0  0  0  0  0  0  0
   58.9190   31.3890   46.2590 C   0  0  0  0  0  0  0  0  0  0  0  0
   59.6180   31.2810   47.4770 N   0  0  0  0  0  0  0  0  0  0  0  0
   60.6290   33.4210   48.4170 C   0  0  2  0  0  0  0  0  0  0  0  0
   60.9550   34.3980   47.2270 C   0  0  0  0  0  0  0  0  0  0  0  0
   62.0400   33.8490   46.2920 C   0  0  0  0  0  0  0  0  0  0  0  0
   63.3890   33.6790   47.0270 C   0  0  2  0  0  0  0  0  0  0  0  0
   64.1560   32.6950   46.3810 O   0  0  0  0  0  0  0  0  0  0  0  0
   63.2080   33.2930   48.5110 C   0  0  0  0  0  0  0  0  0  0  0  0
   61.8960   32.5300   48.7350 C   0  0  0  0  0  0  0  0  0  0  0  0
   60.2790   34.2130   49.7120 C   0  0  0  0  0  0  0  0  0  0  0  0
   58.0151   32.2904   53.4156 H   0  0  0  0  0  0  0  0  0  0  0  0
   59.4943   34.0877   52.4692 H   0  0  0  0  0  0  0  0  0  0  0  0
   57.6889   30.4876   49.4710 H   0  0  0  0  0  0  0  0  0  0  0  0
   57.1821   33.0540   48.0487 H   0  0  0  0  0  0  0  0  0  0  0  0
   58.2186   34.2774   47.3619 H   0  0  0  0  0  0  0  0  0  0  0  0
   56.3305   33.1002   45.0356 H   0  0  0  0  0  0  0  0  0  0  0  0
   56.6216   30.8790   43.6151 H   0  0  0  0  0  0  0  0  0  0  0  0
   59.9940   30.3890   47.8690 H   0  0  0  0  0  0  0  0  0  0  0  0
   60.0368   34.5609   46.6435 H   0  0  0  0  0  0  0  0  0  0  0  0
   61.3327   35.3358   47.6604 H   0  0  0  0  0  0  0  0  0  0  0  0
   61.7176   32.8707   45.9061 H   0  0  0  0  0  0  0  0  0  0  0  0
   62.1828   34.5666   45.4706 H   0  0  0  0  0  0  0  0  0  0  0  0
   63.9027   34.6512   46.9972 H   0  0  0  0  0  0  0  0  0  0  0  0
   64.8270   32.3760   47.0420 H   0  0  0  0  0  0  0  0  0  0  0  0
   64.0497   32.6560   48.8203 H   0  0  0  0  0  0  0  0  0  0  0  0
   63.1775   34.2166   49.1077 H   0  0  0  0  0  0  0  0  0  0  0  0
   61.8826   31.6471   48.0791 H   0  0  0  0  0  0  0  0  0  0  0  0
   61.8492   32.2399   49.7950 H   0  0  0  0  0  0  0  0  0  0  0  0
   61.1866   34.4641   50.2805 H   0  0  0  0  0  0  0  0  0  0  0  0
   59.7843   35.1753   49.5140 H   0  0  0  0  0  0  0  0  0  0  0  0
  1  2  3  0
  2  3  1  0
  3  4  2  0
  4  5  1  0
  5  6  2  0
  6  7  1  0
  7  8  2  0
  7  9  1  0
  9 10  1  0
 10 11  1  0
 11 12  1  0
 12 13  2  0
 13 14  1  0
 14 15  1  0
 15 16  1  0
  9 17  1  0
 17 18  1  6
 18 19  1  0
 19 20  1  0
 20 21  1  0
 20 22  1  0
 22 23  1  0
 17 24  1  0
  8  3  1  0
  9 16  1  6
 23 17  1  0
 24  6  1  0
 15 11  2  0
  4 25  1  0
  5 26  1  0
  8 27  1  0
 10 28  1  0
 10 29  1  0
 12 30  1  0
 13 31  1  0
 16 32  1  0
 18 33  1  0
 18 34  1  0
 19 35  1  0
 19 36  1  0
 20 37  1  1
 21 38  1  0
 22 39  1  0
 22 40  1  0
 23 41  1  0
 23 42  1  0
 24 43  1  0
 24 44  1  0
M  END
>  <UniqueID>  (67) 
64

>  <SMILES>  (67) 
N#Cc1ccc2c(c1)[C@@]1(Cc3ccsc3N1)C1(CCC(O)CC1)C2

>  <Energy>  (67) 
128.87877356230368

>  <Genealogy>  (67) 
N#Cc1ccc2c(c1)[C@@]1(Cc3ccsc3N1)C1(CCC(O)CC1)C2 (chirality)
N#Cc1ccc2c(c1)[C@@]1(Cc3ccsc3N1)C1(CCC(O)CC1)C2 (3D coordinates assigned)
N#Cc1ccc2c(c1)[C@@]1(Cc3ccsc3N1)C1(CCC(O)CC1)C2 (nonaromatic ring conformer: 128.87877356230368 kcal/mol)

>  <smiles>  (67) 
N#Cc1ccc2c(c1)C1(Cc3ccsc3N1)C1(CCC(O)CC1)C2

>  <score_type>  (67) 
oracle

>  <origin>  (67) 
adg

>  <m_score__min__energy>  (67) 
-8.3900000000000006

>  <m_primary>  (67) 
energy

$$$$
67:0
     RDKit          3D

 64 67  0  0  0  0  0  0  0  0999 V2000
   63.2060   33.8070   47.7570 C   0  0  0  0  0  0  0  0  0  0  0  0
   62.4900   34.3080   49.0050 C   0  0  0  0  0  0  0  0  0  0  0  0
   61.5870   33.2580   49.5230 N   0  0  0  0  0  0  0  0  0  0  0  0
   62.0320   32.6570   50.8020 C   0  0  0  0  0  0  0  0  0  0  0  0
   61.8330   31.1540   50.8900 C   0  0  0  0  0  0  0  0  0  0  0  0
   62.1590   30.4660   52.0730 C   0  0  0  0  0  0  0  0  0  0  0  0
   61.9940   29.0810   52.1600 C   0  0  0  0  0  0  0  0  0  0  0  0
   61.4760   28.3640   51.0710 C   0  0  0  0  0  0  0  0  0  0  0  0
   61.2900   26.9720   51.1030 C   0  0  0  0  0  0  0  0  0  0  0  0
   61.5970   26.3000   52.1240 O   0  0  0  0  0  0  0  0  0  0  0  0
   60.7660   26.3390   50.0230 N   0  0  0  0  0  0  0  0  0  0  0  0
   60.4180   27.0190   48.8960 C   0  0  0  0  0  0  0  0  0  0  0  0
   59.8850   26.4100   47.8780 N   0  0  0  0  0  0  0  0  0  0  0  0
   59.2160   27.0310   46.7700 C   0  0  0  0  0  0  0  0  0  0  0  0
   57.8310   26.8700   46.6380 C   0  0  0  0  0  0  0  0  0  0  0  0
   57.1440   27.4780   45.5830 C   0  0  0  0  0  0  0  0  0  0  0  0
   57.8330   28.2720   44.6540 C   0  0  0  0  0  0  0  0  0  0  0  0
   57.0850   28.9430   43.5310 C   0  0  0  0  0  0  0  0  0  0  0  0
   55.9700   29.8240   44.0410 C   0  0  0  0  0  0  0  0  0  0  0  0
   54.8070   29.3540   44.1560 O   0  0  0  0  0  0  0  0  0  0  0  0
   56.2120   31.1600   44.5020 N   0  0  0  0  0  0  0  0  0  0  0  0
   57.4200   31.9480   44.2630 C   0  0  0  0  0  0  0  0  0  0  0  0
   57.9060   32.6310   45.5540 C   0  0  2  0  0  0  0  0  0  0  0  0
   57.7690   34.1530   45.4920 C   0  0  0  0  0  0  0  0  0  0  0  0
   59.1860   34.6310   45.4180 C   0  0  0  0  0  0  0  0  0  0  0  0
   59.9600   33.4870   46.0300 C   0  0  0  0  0  0  0  0  0  0  0  0
   59.2530   32.2910   45.8070 O   0  0  0  0  0  0  0  0  0  0  0  0
   59.2130   28.4750   44.8110 C   0  0  0  0  0  0  0  0  0  0  0  0
   59.9010   27.8610   45.8630 C   0  0  0  0  0  0  0  0  0  0  0  0
   60.5850   28.3670   48.8470 N   0  0  0  0  0  0  0  0  0  0  0  0
   61.1100   29.0520   49.8980 C   0  0  0  0  0  0  0  0  0  0  0  0
   61.2800   30.4370   49.8140 C   0  0  0  0  0  0  0  0  0  0  0  0
   59.9140   33.7800   49.5630 S   0  0  0  0  0  0  0  0  0  0  0  0
   58.8300   32.4640   49.0570 C   0  0  0  0  0  0  0  0  0  0  0  0
   59.5420   34.1790   50.9640 O   0  0  0  0  0  0  0  0  0  0  0  0
   59.7050   34.9500   48.6420 O   0  0  0  0  0  0  0  0  0  0  0  0
   64.0744   33.1994   48.0515 H   0  0  0  0  0  0  0  0  0  0  0  0
   62.5154   33.1941   47.1592 H   0  0  0  0  0  0  0  0  0  0  0  0
   63.5452   34.6658   47.1592 H   0  0  0  0  0  0  0  0  0  0  0  0
   63.2335   34.5619   49.7749 H   0  0  0  0  0  0  0  0  0  0  0  0
   61.8992   35.2001   48.7499 H   0  0  0  0  0  0  0  0  0  0  0  0
   63.1037   32.8704   50.9283 H   0  0  0  0  0  0  0  0  0  0  0  0
   61.4107   33.1034   51.5924 H   0  0  0  0  0  0  0  0  0  0  0  0
   62.5476   31.0236   52.9379 H   0  0  0  0  0  0  0  0  0  0  0  0
   62.2707   28.5521   53.0839 H   0  0  0  0  0  0  0  0  0  0  0  0
   57.2798   26.2609   47.3696 H   0  0  0  0  0  0  0  0  0  0  0  0
   56.0584   27.3332   45.4809 H   0  0  0  0  0  0  0  0  0  0  0  0
   57.7895   29.5600   42.9539 H   0  0  0  0  0  0  0  0  0  0  0  0
   56.6377   28.1577   42.9039 H   0  0  0  0  0  0  0  0  0  0  0  0
   58.2129   31.2839   43.8885 H   0  0  0  0  0  0  0  0  0  0  0  0
   57.1852   32.7284   43.5242 H   0  0  0  0  0  0  0  0  0  0  0  0
   57.2655   32.2683   46.3714 H   0  0  0  0  0  0  0  0  0  0  0  0
   57.2036   34.4605   44.5999 H   0  0  0  0  0  0  0  0  0  0  0  0
   57.2220   34.5684   46.3512 H   0  0  0  0  0  0  0  0  0  0  0  0
   59.4918   34.8029   44.3754 H   0  0  0  0  0  0  0  0  0  0  0  0
   59.3486   35.5899   45.9320 H   0  0  0  0  0  0  0  0  0  0  0  0
   60.9539   33.4215   45.5633 H   0  0  0  0  0  0  0  0  0  0  0  0
   60.0816   33.6535   47.1105 H   0  0  0  0  0  0  0  0  0  0  0  0
   59.7557   29.1196   44.1039 H   0  0  0  0  0  0  0  0  0  0  0  0
   60.9818   28.0276   45.9818 H   0  0  0  0  0  0  0  0  0  0  0  0
   60.9791   30.9697   48.8999 H   0  0  0  0  0  0  0  0  0  0  0  0
   58.4189   31.9649   49.9469 H   0  0  0  0  0  0  0  0  0  0  0  0
   58.0071   32.8776   48.4556 H   0  0  0  0  0  0  0  0  0  0  0  0
   59.3936   31.7355   48.4556 H   0  0  0  0  0  0  0  0  0  0  0  0
  1  2  1  0
  2  3  1  0
  3  4  1  0
  4  5  1  0
  5  6  2  0
  6  7  1  0
  7  8  2  0
  8  9  1  0
  9 10  2  0
  9 11  1  0
 11 12  1  0
 12 13  2  3
 13 14  1  0
 14 15  2  0
 15 16  1  0
 16 17  2  0
 17 18  1  0
 18 19  1  0
 19 20  2  0
 19 21  1  0
 21 22  1  0
 22 23  1  0
 23 24  1  0
 24 25  1  0
 25 26  1  0
 26 27  1  0
 17 28  1  0
 28 29  2  0
 12 30  1  0
 30 31  1  0
 31 32  2  0
  3 33  1  0
 33 34  1  0
 33 35  2  0
 33 36  2  0
 32  5  1  0
 31  8  1  0
 29 14  1  0
 27 23  1  0
  1 37  1  0
  1 38  1  0
  1 39  1  0
  2 40  1  0
  2 41  1  0
  4 42  1  0
  4 43  1  0
  6 44  1  0
  7 45  1  0
 15 46  1  0
 16 47  1  0
 18 48  1  0
 18 49  1  0
 22 50  1  0
 22 51  1  0
 23 52  1  1
 24 53  1  0
 24 54  1  0
 25 55  1  0
 25 56  1  0
 26 57  1  0
 26 58  1  0
 28 59  1  0
 29 60  1  0
 32 61  1  0
 34 62  1  0
 34 63  1  0
 34 64  1  0
M  CHG  3  11  -1  21  -1  30  -1
M  END
>  <UniqueID>  (68) 
65

>  <SMILES>  (68) 
CCN(Cc1ccc2c(=O)[n-]c(=Nc3ccc(CC(=O)[N-]C[C@@H]4CCCO4)cc3)[n-]c2c1)S(C)(=O)=O

>  <Energy>  (68) 
73.48942942357878

>  <Genealogy>  (68) 
CCN(Cc1ccc2c(=O)[n-]c(=Nc3ccc(CC(=O)[N-]CC4CCCO4)cc3)[n-]c2c1)S(C)(=O)=O (protonated)
CCN(Cc1ccc2c(=O)[n-]c(=Nc3ccc(CC(=O)[N-]C[C@@H]4CCCO4)cc3)[n-]c2c1)S(C)(=O)=O (chirality)
CCN(Cc1ccc2c(=O)[n-]c(=Nc3ccc(CC(=O)[N-]C[C@@H]4CCCO4)cc3)[n-]c2c1)S(C)(=O)=O (3D coordinates assigned)
CCN(Cc1ccc2c(=O)[n-]c(=Nc3ccc(CC(=O)[N-]C[C@@H]4CCCO4)cc3)[n-]c2c1)S(C)(=O)=O (nonaromatic ring conformer: 73.48942942357878 kcal/mol)

>  <smiles>  (68) 
CCN(Cc1ccc2c(=O)[nH]c(=Nc3ccc(CC(=O)NCC4CCCO4)cc3)[nH]c2c1)S(C)(=O)=O

>  <score_type>  (68) 
oracle

>  <origin>  (68) 
adg

>  <m_score__min__energy>  (68) 
-13.58

>  <m_primary>  (68) 
energy

$$$$
68:0
     RDKit          3D

 48 51  0  0  0  0  0  0  0  0999 V2000
   58.7736   33.7408   53.0268 H   0  0  0  0  0  0  0  0  0  0  0  0
   58.7060   33.0580   52.1670 C   0  0  0  0  0  0  0  0  0  0  0  0
   58.2470   31.7910   52.3430 N   0  0  0  0  0  0  0  0  0  0  0  0
   58.1550   30.9040   51.3160 C   0  0  0  0  0  0  0  0  0  0  0  0
   57.6820   29.7120   51.5600 N   0  0  0  0  0  0  0  0  0  0  0  0
   57.0600   29.2630   52.7750 C   0  0  0  0  0  0  0  0  0  0  0  0
   57.7900   28.8660   53.7210 O   0  0  0  0  0  0  0  0  0  0  0  0
   55.5950   29.3120   52.9640 C   0  0  0  0  0  0  0  0  0  0  0  0
   54.7560   28.2840   53.3530 C   0  0  0  0  0  0  0  0  0  0  0  0
   55.1490   26.9740   53.5940 O   0  0  0  0  0  0  0  0  0  0  0  0
   53.4810   28.6980   53.4620 N   0  0  0  0  0  0  0  0  0  0  0  0
   53.5100   30.0060   53.1340 C   0  0  0  0  0  0  0  0  0  0  0  0
   52.2960   30.8810   53.1420 C   0  0  0  0  0  0  0  0  0  0  0  0
   51.5116   30.4075   53.7506 H   0  0  0  0  0  0  0  0  0  0  0  0
   52.5636   31.8598   53.5667 H   0  0  0  0  0  0  0  0  0  0  0  0
   51.7880   31.0780   51.7490 C   0  0  0  0  0  0  0  0  0  0  0  0
   51.9930   30.2520   50.7530 O   0  0  0  0  0  0  0  0  0  0  0  0
   51.4070   30.7860   49.7030 C   0  0  0  0  0  0  0  0  0  0  0  0
   51.4100   30.2460   48.5650 O   0  0  0  0  0  0  0  0  0  0  0  0
   50.8050   31.9680   49.9540 N   0  0  0  0  0  0  0  0  0  0  0  0
   51.0600   32.1400   51.2630 C   0  0  0  0  0  0  0  0  0  0  0  0
   50.6380   33.2420   51.9980 O   0  0  0  0  0  0  0  0  0  0  0  0
   54.7910   30.4220   52.8140 C   0  0  0  0  0  0  0  0  0  0  0  0
   55.1031   31.4302   52.5040 H   0  0  0  0  0  0  0  0  0  0  0  0
   58.5850   31.2990   50.0330 C   0  0  0  0  0  0  0  0  0  0  0  0
   58.5753   30.5773   49.2029 H   0  0  0  0  0  0  0  0  0  0  0  0
   59.0260   32.6150   49.8150 C   0  0  0  0  0  0  0  0  0  0  0  0
   59.3910   33.0810   48.5430 O   0  0  0  0  0  0  0  0  0  0  0  0
   59.8440   32.2350   47.4880 C   0  0  0  0  0  0  0  0  0  0  0  0
   60.2190   32.8546   46.6601 H   0  0  0  0  0  0  0  0  0  0  0  0
   60.6496   31.5881   47.8654 H   0  0  0  0  0  0  0  0  0  0  0  0
   58.6970   31.3640   46.9870 C   0  0  0  0  0  0  0  0  0  0  0  0
   59.1074   30.5125   46.4245 H   0  0  0  0  0  0  0  0  0  0  0  0
   58.1193   31.0031   47.8507 H   0  0  0  0  0  0  0  0  0  0  0  0
   57.8340   32.1190   46.1350 O   0  0  0  0  0  0  0  0  0  0  0  0
   57.5900   31.8500   44.7770 C   0  0  0  0  0  0  0  0  0  0  0  0
   56.8430   30.7100   44.4520 C   0  0  0  0  0  0  0  0  0  0  0  0
   56.4773   30.0507   45.2530 H   0  0  0  0  0  0  0  0  0  0  0  0
   56.5590   30.4040   43.1190 C   0  0  0  0  0  0  0  0  0  0  0  0
   55.9664   29.5099   42.8750 H   0  0  0  0  0  0  0  0  0  0  0  0
   57.0260   31.2310   42.0960 C   0  0  0  0  0  0  0  0  0  0  0  0
   56.8005   30.9892   41.0469 H   0  0  0  0  0  0  0  0  0  0  0  0
   57.7800   32.3660   42.4050 C   0  0  0  0  0  0  0  0  0  0  0  0
   58.1500   33.0159   41.5983 H   0  0  0  0  0  0  0  0  0  0  0  0
   58.0650   32.6770   43.7380 C   0  0  0  0  0  0  0  0  0  0  0  0
   58.6617   33.5696   43.9772 H   0  0  0  0  0  0  0  0  0  0  0  0
   59.0920   33.4960   50.8990 C   0  0  0  0  0  0  0  0  0  0  0  0
   59.4457   34.5273   50.7535 H   0  0  0  0  0  0  0  0  0  0  0  0
  1  2  1  0
  2  3  1  0
  3  4  1  0
  4  5  2  0
  5  6  1  0
  6  7  2  0
  6  8  1  0
  8  9  2  0
  9 10  1  0
  9 11  1  0
 11 12  1  0
 12 13  1  0
 13 14  1  0
 13 15  1  0
 13 16  1  0
 16 17  1  0
 17 18  1  0
 18 19  2  0
 18 20  1  0
 20 21  1  0
 21 22  1  0
 12 23  2  0
 23 24  1  0
  4 25  1  0
 25 26  1  0
 25 27  2  0
 27 28  1  0
 28 29  1  0
 29 30  1  0
 29 31  1  0
 29 32  1  0
 32 33  1  0
 32 34  1  0
 32 35  1  0
 35 36  1  0
 36 37  2  0
 37 38  1  0
 37 39  1  0
 39 40  1  0
 39 41  2  0
 41 42  1  0
 41 43  1  0
 43 44  1  0
 43 45  2  0
 45 46  1  0
 27 47  1  0
 47 48  1  0
 47  2  2  0
 23  8  1  0
 45 36  1  0
 21 16  2  0
M  CHG  5   3  -1  10  -1  11  -1  20  -1  22  -1
M  END
>  <UniqueID>  (69) 
66

>  <SMILES>  (69) 
O=C(/N=c1\cc(OCCOc2ccccc2)cc[n-]1)c1cc(Cc2oc(=O)[n-]c2[O-])[n-]c1[O-]

>  <Energy>  (69) 
113.73881398971673

>  <Genealogy>  (69) 
O=C(N=c1cc(OCCOc2ccccc2)cc[n-]1)c1cc(Cc2oc(=O)[n-]c2[O-])[n-]c1[O-] (protonated)
O=C(/N=c1\cc(OCCOc2ccccc2)cc[n-]1)c1cc(Cc2oc(=O)[n-]c2[O-])[n-]c1[O-] (cis-trans isomerization)
O=C(/N=c1\cc(OCCOc2ccccc2)cc[n-]1)c1cc(Cc2oc(=O)[n-]c2[O-])[n-]c1[O-] (3D coordinates assigned)
O=C(/N=c1\cc(OCCOc2ccccc2)cc[n-]1)c1cc(Cc2oc(=O)[n-]c2[O-])[n-]c1[O-] (optimized conformer: 113.73881398971673 kcal/mol)

>  <smiles>  (69) 
O=C(N=c1cc(OCCOc2ccccc2)cc[nH]1)c1cc(Cc2oc(=O)[nH]c2O)[nH]c1O

>  <score_type>  (69) 
oracle

>  <origin>  (69) 
adg

>  <m_score__min__energy>  (69) 
-18.550000000000001

>  <m_primary>  (69) 
energy

$$$$
69:0
     RDKit          3D

 44 46  0  0  0  0  0  0  0  0999 V2000
   55.6180   23.3240   43.9650 N   0  0  0  0  0  0  0  0  0  0  0  0
   56.3850   24.0420   43.4820 C   0  0  0  0  0  0  0  0  0  0  0  0
   57.3580   24.9510   42.8690 C   0  0  0  0  0  0  0  0  0  0  0  0
   57.4410   26.1920   43.6340 N   0  0  0  0  0  0  0  0  0  0  0  0
   58.4040   27.2170   43.3420 C   0  0  0  0  0  0  0  0  0  0  0  0
   59.1690   27.0990   42.3450 O   0  0  0  0  0  0  0  0  0  0  0  0
   58.4770   28.4400   44.1750 C   0  0  0  0  0  0  0  0  0  0  0  0
   59.6580   29.0020   44.5140 C   0  0  0  0  0  0  0  0  0  0  0  0
   60.0170   29.4720   45.8670 C   0  0  0  0  0  0  0  0  0  0  0  0
   59.9870   28.7420   47.0410 C   0  0  0  0  0  0  0  0  0  0  0  0
   60.4410   29.5920   48.0250 C   0  0  0  0  0  0  0  0  0  0  0  0
   60.7250   30.7890   47.3910 C   0  0  0  0  0  0  0  0  0  0  0  0
   61.2740   32.0140   48.0110 C   0  0  0  0  0  0  0  0  0  0  0  0
   62.6080   31.9930   48.4540 C   0  0  0  0  0  0  0  0  0  0  0  0
   63.1760   33.1180   49.0600 C   0  0  0  0  0  0  0  0  0  0  0  0
   64.8370   33.0680   49.6220 Cl  0  0  0  0  0  0  0  0  0  0  0  0
   62.4210   34.2810   49.2170 C   0  0  0  0  0  0  0  0  0  0  0  0
   61.1030   34.3260   48.7600 C   0  0  0  0  0  0  0  0  0  0  0  0
   60.5220   33.2050   48.1520 C   0  0  0  0  0  0  0  0  0  0  0  0
   58.8930   33.3800   47.5050 Cl  0  0  0  0  0  0  0  0  0  0  0  0
   60.4780   30.6790   46.1050 O   0  0  0  0  0  0  0  0  0  0  0  0
   57.2090   29.0140   44.6910 C   0  0  0  0  0  0  0  0  0  0  0  0
   56.8670   30.1870   44.3760 O   0  0  0  0  0  0  0  0  0  0  0  0
   56.4000   28.2500   45.5950 N   0  0  0  0  0  0  0  0  0  0  0  0
   56.7290   26.9780   46.1750 C   0  0  0  0  0  0  0  0  0  0  0  0
   58.0320   26.6770   46.6140 C   0  0  0  0  0  0  0  0  0  0  0  0
   58.3090   25.4370   47.1980 C   0  0  0  0  0  0  0  0  0  0  0  0
   57.2900   24.4950   47.3620 C   0  0  0  0  0  0  0  0  0  0  0  0
   55.9900   24.7950   46.9510 C   0  0  0  0  0  0  0  0  0  0  0  0
   55.7070   26.0340   46.3660 C   0  0  0  0  0  0  0  0  0  0  0  0
   54.4050   26.3230   45.9690 O   0  0  0  0  0  0  0  0  0  0  0  0
   58.3461   24.4678   42.8522 H   0  0  0  0  0  0  0  0  0  0  0  0
   57.0356   25.1828   41.8432 H   0  0  0  0  0  0  0  0  0  0  0  0
   56.7270   26.3630   44.3790 H   0  0  0  0  0  0  0  0  0  0  0  0
   60.4106   29.1185   43.7203 H   0  0  0  0  0  0  0  0  0  0  0  0
   59.6664   27.6970   47.1638 H   0  0  0  0  0  0  0  0  0  0  0  0
   60.5546   29.3658   49.0955 H   0  0  0  0  0  0  0  0  0  0  0  0
   63.2111   31.0825   48.3226 H   0  0  0  0  0  0  0  0  0  0  0  0
   62.8650   35.1632   49.7014 H   0  0  0  0  0  0  0  0  0  0  0  0
   60.5157   35.2486   48.8780 H   0  0  0  0  0  0  0  0  0  0  0  0
   58.8350   27.4196   46.4973 H   0  0  0  0  0  0  0  0  0  0  0  0
   59.3315   25.2026   47.5291 H   0  0  0  0  0  0  0  0  0  0  0  0
   57.5121   23.5174   47.8148 H   0  0  0  0  0  0  0  0  0  0  0  0
   55.1868   24.0559   47.0873 H   0  0  0  0  0  0  0  0  0  0  0  0
  1  2  3  0
  2  3  1  0
  3  4  1  0
  4  5  1  0
  5  6  2  0
  5  7  1  0
  7  8  2  3
  8  9  1  0
  9 10  2  0
 10 11  1  0
 11 12  2  0
 12 13  1  0
 13 14  2  0
 14 15  1  0
 15 16  1  0
 15 17  2  0
 17 18  1  0
 18 19  2  0
 19 20  1  0
 12 21  1  0
  7 22  1  0
 22 23  2  0
 22 24  1  0
 24 25  1  0
 25 26  2  0
 26 27  1  0
 27 28  2  0
 28 29  1  0
 29 30  2  0
 30 31  1  0
 21  9  1  0
 30 25  1  0
 19 13  1  0
  3 32  1  0
  3 33  1  0
  4 34  1  0
  8 35  1  0
 10 36  1  0
 11 37  1  0
 14 38  1  0
 17 39  1  0
 18 40  1  0
 26 41  1  0
 27 42  1  0
 28 43  1  0
 29 44  1  0
M  CHG  2  24  -1  31  -1
M  END
>  <UniqueID>  (70) 
67

>  <SMILES>  (70) 
N#CCNC(=O)C(=Cc1ccc(-c2cc(Cl)ccc2Cl)o1)C(=O)[N-]c1ccccc1[O-]

>  <Energy>  (70) 
86.95752973055231

>  <Genealogy>  (70) 
N#CCNC(=O)C(=Cc1ccc(-c2cc(Cl)ccc2Cl)o1)C(=O)[N-]c1ccccc1[O-] (protonated)
N#CCNC(=O)C(=Cc1ccc(-c2cc(Cl)ccc2Cl)o1)C(=O)[N-]c1ccccc1[O-] (3D coordinates assigned)
N#CCNC(=O)C(=Cc1ccc(-c2cc(Cl)ccc2Cl)o1)C(=O)[N-]c1ccccc1[O-] (optimized conformer: 86.95752973055231 kcal/mol)

>  <smiles>  (70) 
N#CCNC(=O)C(=Cc1ccc(-c2cc(Cl)ccc2Cl)o1)C(=O)Nc1ccccc1O

>  <score_type>  (70) 
oracle

>  <origin>  (70) 
adg

>  <m_score__min__energy>  (70) 
-13.279999999999999

>  <m_primary>  (70) 
energy

$$$$
70:0
     RDKit          3D

 47 49  0  0  0  0  0  0  0  0999 V2000
   60.0080   34.0760   50.9610 N   0  0  0  0  0  0  0  0  0  0  0  0
   61.0510   33.6680   49.6450 S   0  0  0  0  0  0  0  0  0  0  0  0
   61.8440   32.4380   49.9860 O   0  0  0  0  0  0  0  0  0  0  0  0
   62.0040   34.8070   49.4150 O   0  0  0  0  0  0  0  0  0  0  0  0
   60.0870   33.3710   48.1910 C   0  0  0  0  0  0  0  0  0  0  0  0
   60.4460   33.9970   46.9880 C   0  0  0  0  0  0  0  0  0  0  0  0
   59.7120   33.7730   45.8220 C   0  0  0  0  0  0  0  0  0  0  0  0
   58.6000   32.9190   45.8380 C   0  0  0  0  0  0  0  0  0  0  0  0
   57.8400   32.6460   44.5660 C   0  0  0  0  0  0  0  0  0  0  0  0
   56.7190   31.7410   44.8140 N   0  0  0  0  0  0  0  0  0  0  0  0
   56.5560   30.4170   44.2820 C   0  0  0  0  0  0  0  0  0  0  0  0
   56.1500   30.2950   43.0950 O   0  0  0  0  0  0  0  0  0  0  0  0
   56.8580   29.2020   45.0670 C   0  0  0  0  0  0  0  0  0  0  0  0
   58.1300   29.0100   45.6270 C   0  0  0  0  0  0  0  0  0  0  0  0
   58.3920   27.8520   46.3660 C   0  0  0  0  0  0  0  0  0  0  0  0
   59.5300   27.6710   46.8770 O   0  0  0  0  0  0  0  0  0  0  0  0
   57.3880   26.8940   46.5360 C   0  0  0  0  0  0  0  0  0  0  0  0
   57.6300   25.7400   47.2740 O   0  0  0  0  0  0  0  0  0  0  0  0
   56.1370   27.1090   45.9530 C   0  0  0  0  0  0  0  0  0  0  0  0
   55.1240   26.1690   46.1090 O   0  0  0  0  0  0  0  0  0  0  0  0
   55.9070   28.2430   45.2350 N   0  0  0  0  0  0  0  0  0  0  0  0
   58.2180   32.3120   47.0420 C   0  0  0  0  0  0  0  0  0  0  0  0
   58.9570   32.5210   48.2150 C   0  0  0  0  0  0  0  0  0  0  0  0
   58.5660   31.7900   49.4360 C   0  0  0  0  0  0  0  0  0  0  0  0
   57.6030   32.2420   50.1130 O   0  0  0  0  0  0  0  0  0  0  0  0
   59.2530   30.5920   49.8620 N   0  0  0  0  0  0  0  0  0  0  0  0
   60.2770   29.9740   49.0060 C   0  0  0  0  0  0  0  0  0  0  0  0
   61.1850   29.0590   49.8310 C   0  0  0  0  0  0  0  0  0  0  0  0
   60.4180   28.1430   50.5860 O   0  0  0  0  0  0  0  0  0  0  0  0
   59.6780   28.8480   51.5630 C   0  0  0  0  0  0  0  0  0  0  0  0
   58.6380   29.7640   50.9090 C   0  0  0  0  0  0  0  0  0  0  0  0
   59.0530   33.7340   50.7120 H   0  0  0  0  0  0  0  0  0  0  0  0
   61.3148   34.6713   46.9633 H   0  0  0  0  0  0  0  0  0  0  0  0
   60.0075   34.2690   44.8857 H   0  0  0  0  0  0  0  0  0  0  0  0
   57.4550   33.5953   44.1653 H   0  0  0  0  0  0  0  0  0  0  0  0
   58.5212   32.1730   43.8433 H   0  0  0  0  0  0  0  0  0  0  0  0
   58.9166   29.7659   45.4856 H   0  0  0  0  0  0  0  0  0  0  0  0
   55.2390   25.3830   46.7390 H   0  0  0  0  0  0  0  0  0  0  0  0
   57.3289   31.6647   47.0670 H   0  0  0  0  0  0  0  0  0  0  0  0
   59.7835   29.3820   48.2212 H   0  0  0  0  0  0  0  0  0  0  0  0
   60.8890   30.7683   48.5538 H   0  0  0  0  0  0  0  0  0  0  0  0
   61.8483   28.5019   49.1530 H   0  0  0  0  0  0  0  0  0  0  0  0
   61.7773   29.6776   50.5213 H   0  0  0  0  0  0  0  0  0  0  0  0
   59.1630   28.1264   52.2142 H   0  0  0  0  0  0  0  0  0  0  0  0
   60.3725   29.4683   52.1486 H   0  0  0  0  0  0  0  0  0  0  0  0
   57.8454   29.1467   50.4609 H   0  0  0  0  0  0  0  0  0  0  0  0
   58.2188   30.4268   51.6803 H   0  0  0  0  0  0  0  0  0  0  0  0
  1  2  1  0
  2  3  2  0
  2  4  2  0
  2  5  1  0
  5  6  2  0
  6  7  1  0
  7  8  2  0
  8  9  1  0
  9 10  1  0
 10 11  1  0
 11 12  2  0
 11 13  1  0
 13 14  2  0
 14 15  1  0
 15 16  2  0
 15 17  1  0
 17 18  1  0
 17 19  2  0
 19 20  1  0
 19 21  1  0
  8 22  1  0
 22 23  2  0
 23 24  1  0
 24 25  2  0
 24 26  1  0
 26 27  1  0
 27 28  1  0
 28 29  1  0
 29 30  1  0
 30 31  1  0
 23  5  1  0
 31 26  1  0
 21 13  1  0
  1 32  1  0
  6 33  1  0
  7 34  1  0
  9 35  1  0
  9 36  1  0
 14 37  1  0
 20 38  1  0
 22 39  1  0
 27 40  1  0
 27 41  1  0
 28 42  1  0
 28 43  1  0
 30 44  1  0
 30 45  1  0
 31 46  1  0
 31 47  1  0
M  CHG  4   1  -1  10  -1  18  -1  21  -1
M  END
>  <UniqueID>  (71) 
68

>  <SMILES>  (71) 
[NH-]S(=O)(=O)c1ccc(C[N-]C(=O)c2cc(=O)c([O-])c(O)[n-]2)cc1C(=O)N1CCOCC1

>  <Energy>  (71) 
58.61486555494151

>  <Genealogy>  (71) 
[NH-]S(=O)(=O)c1ccc(C[N-]C(=O)c2cc(=O)c([O-])c(O)[n-]2)cc1C(=O)N1CCOCC1 (protonated)
[NH-]S(=O)(=O)c1ccc(C[N-]C(=O)c2cc(=O)c([O-])c(O)[n-]2)cc1C(=O)N1CCOCC1 (3D coordinates assigned)
[NH-]S(=O)(=O)c1ccc(C[N-]C(=O)c2cc(=O)c([O-])c(O)[n-]2)cc1C(=O)N1CCOCC1 (nonaromatic ring conformer: 58.61486555494151 kcal/mol)

>  <smiles>  (71) 
NS(=O)(=O)c1ccc(CNC(=O)c2cc(=O)c(O)c(O)[nH]2)cc1C(=O)N1CCOCC1

>  <score_type>  (71) 
oracle

>  <origin>  (71) 
adg

>  <m_score__min__energy>  (71) 
-15.49

>  <m_primary>  (71) 
energy

$$$$
71:0
     RDKit          3D

 51 54  0  0  0  0  0  0  0  0999 V2000
   56.9830   31.4170   51.5550 C   0  0  0  0  0  0  0  0  0  0  0  0
   58.0530   32.2440   50.9050 C   0  0  0  0  0  0  0  0  0  0  0  0
   58.8330   33.1190   51.6680 C   0  0  0  0  0  0  0  0  0  0  0  0
   59.8460   33.8510   51.0500 C   0  0  0  0  0  0  0  0  0  0  0  0
   60.0770   33.7060   49.7180 N   0  0  0  0  0  0  0  0  0  0  0  0
   59.3500   32.8570   48.9420 C   0  0  0  0  0  0  0  0  0  0  0  0
   59.6350   32.7840   47.6730 N   0  0  0  0  0  0  0  0  0  0  0  0
   58.9360   33.7230   46.3870 S   0  0  0  0  0  0  0  0  0  0  0  0
   57.7860   34.5130   46.9420 O   0  0  0  0  0  0  0  0  0  0  0  0
   59.9540   34.6860   45.8460 O   0  0  0  0  0  0  0  0  0  0  0  0
   58.3380   32.6510   45.1220 C   0  0  0  0  0  0  0  0  0  0  0  0
   58.3860   33.0650   43.7850 C   0  0  0  0  0  0  0  0  0  0  0  0
   57.8350   32.2650   42.7820 C   0  0  0  0  0  0  0  0  0  0  0  0
   57.2180   31.0540   43.1080 C   0  0  0  0  0  0  0  0  0  0  0  0
   57.1770   30.6180   44.4420 C   0  0  0  0  0  0  0  0  0  0  0  0
   56.4850   29.3560   44.7960 C   0  0  0  0  0  0  0  0  0  0  0  0
   55.2320   29.3520   44.9170 O   0  0  0  0  0  0  0  0  0  0  0  0
   57.2090   28.1460   45.0570 N   0  0  0  0  0  0  0  0  0  0  0  0
   58.1000   28.0260   45.9930 C   0  0  0  0  0  0  0  0  0  0  0  0
   59.0810   27.1000   45.9570 N   0  0  0  0  0  0  0  0  0  0  0  0
   59.7740   27.3470   47.0880 C   0  0  0  0  0  0  0  0  0  0  0  0
   59.1870   28.4030   47.7500 C   0  0  0  0  0  0  0  0  0  0  0  0
   59.6570   29.0480   49.0150 C   0  0  0  0  0  0  0  0  0  0  0  0
   60.8190   29.9690   48.7330 C   0  0  0  0  0  0  0  0  0  0  0  0
   61.0980   30.3280   47.4020 C   0  0  0  0  0  0  0  0  0  0  0  0
   62.1360   31.2140   47.1080 C   0  0  0  0  0  0  0  0  0  0  0  0
   62.9110   31.7540   48.1360 C   0  0  0  0  0  0  0  0  0  0  0  0
   63.9420   32.6390   47.8290 O   0  0  0  0  0  0  0  0  0  0  0  0
   62.6390   31.4070   49.4650 C   0  0  0  0  0  0  0  0  0  0  0  0
   61.5860   30.5390   49.7730 C   0  0  0  0  0  0  0  0  0  0  0  0
   61.2240   30.1900   51.6240 Br  0  0  0  0  0  0  0  0  0  0  0  0
   58.1590   28.8060   47.0490 O   0  0  0  0  0  0  0  0  0  0  0  0
   57.7540   31.4170   45.4440 C   0  0  0  0  0  0  0  0  0  0  0  0
   58.3230   32.0960   49.5380 C   0  0  0  0  0  0  0  0  0  0  0  0
   57.0770   31.4897   52.6486 H   0  0  0  0  0  0  0  0  0  0  0  0
   55.9945   31.7882   51.2465 H   0  0  0  0  0  0  0  0  0  0  0  0
   57.0930   30.3669   51.2465 H   0  0  0  0  0  0  0  0  0  0  0  0
   58.6487   33.2288   52.7469 H   0  0  0  0  0  0  0  0  0  0  0  0
   60.4594   34.5470   51.6411 H   0  0  0  0  0  0  0  0  0  0  0  0
   58.8592   34.0232   43.5243 H   0  0  0  0  0  0  0  0  0  0  0  0
   57.8867   32.5888   41.7320 H   0  0  0  0  0  0  0  0  0  0  0  0
   56.7629   30.4403   42.3166 H   0  0  0  0  0  0  0  0  0  0  0  0
   60.6632   26.7949   47.4265 H   0  0  0  0  0  0  0  0  0  0  0  0
   58.8324   29.6283   49.4545 H   0  0  0  0  0  0  0  0  0  0  0  0
   59.9826   28.2654   49.7161 H   0  0  0  0  0  0  0  0  0  0  0  0
   60.4930   29.9069   46.5855 H   0  0  0  0  0  0  0  0  0  0  0  0
   62.3439   31.4875   46.0630 H   0  0  0  0  0  0  0  0  0  0  0  0
   64.7140   32.3640   47.2320 H   0  0  0  0  0  0  0  0  0  0  0  0
   63.2589   31.8206   50.2741 H   0  0  0  0  0  0  0  0  0  0  0  0
   57.7476   31.0721   46.4885 H   0  0  0  0  0  0  0  0  0  0  0  0
   57.7365   31.3894   48.9324 H   0  0  0  0  0  0  0  0  0  0  0  0
  1  2  1  0
  2  3  1  0
  3  4  2  0
  4  5  1  0
  5  6  1  0
  6  7  2  3
  7  8  1  0
  8  9  2  0
  8 10  2  0
  8 11  1  0
 11 12  2  0
 12 13  1  0
 13 14  2  0
 14 15  1  0
 15 16  1  0
 16 17  2  0
 16 18  1  0
 18 19  2  3
 19 20  1  0
 20 21  1  0
 21 22  2  0
 22 23  1  0
 23 24  1  0
 24 25  2  0
 25 26  1  0
 26 27  2  0
 27 28  1  0
 27 29  1  0
 29 30  2  0
 30 31  1  0
 22 32  1  0
 15 33  2  0
  6 34  1  0
 34  2  2  0
 33 11  1  0
 32 19  1  0
 30 24  1  0
  1 35  1  0
  1 36  1  0
  1 37  1  0
  3 38  1  0
  4 39  1  0
 12 40  1  0
 13 41  1  0
 14 42  1  0
 21 43  1  0
 23 44  1  0
 23 45  1  0
 25 46  1  0
 26 47  1  0
 28 48  1  0
 29 49  1  0
 33 50  1  0
 34 51  1  0
M  CHG  2   5  -1  20  -1
M  END
>  <UniqueID>  (72) 
69

>  <SMILES>  (72) 
Cc1cc[n-]c(=NS(=O)(=O)c2cccc(C(=O)N=c3[n-]cc(Cc4ccc(O)cc4Br)o3)c2)c1

>  <Energy>  (72) 
92.19461893758618

>  <Genealogy>  (72) 
Cc1cc[n-]c(=NS(=O)(=O)c2cccc(C(=O)N=c3[n-]cc(Cc4ccc(O)cc4Br)o3)c2)c1 (protonated)
Cc1cc[n-]c(=NS(=O)(=O)c2cccc(C(=O)N=c3[n-]cc(Cc4ccc(O)cc4Br)o3)c2)c1 (3D coordinates assigned)
Cc1cc[n-]c(=NS(=O)(=O)c2cccc(C(=O)N=c3[n-]cc(Cc4ccc(O)cc4Br)o3)c2)c1 (optimized conformer: 92.19461893758618 kcal/mol)

>  <smiles>  (72) 
Cc1cc[nH]c(=NS(=O)(=O)c2cccc(C(=O)N=c3[nH]cc(Cc4ccc(O)cc4Br)o3)c2)c1

>  <score_type>  (72) 
oracle

>  <origin>  (72) 
adg

>  <m_score__min__energy>  (72) 
-13.59

>  <m_primary>  (72) 
energy

$$$$
72:0
     RDKit          3D

 38 41  0  0  0  0  0  0  0  0999 V2000
   54.4350   28.2240   53.1610 C   0  0  0  0  0  0  0  0  0  0  0  0
   54.7230   29.4200   52.6240 C   0  0  0  0  0  0  0  0  0  0  0  0
   53.8120   30.4270   52.2630 C   0  0  0  0  0  0  0  0  0  0  0  0
   52.4720   30.4010   52.1330 C   0  0  0  0  0  0  0  0  0  0  0  0
   51.7200   30.7790   50.9250 C   0  0  0  0  0  0  0  0  0  0  0  0
   51.6740   30.0530   49.7920 N   0  0  0  0  0  0  0  0  0  0  0  0
   50.9960   30.8520   48.9390 C   0  0  0  0  0  0  0  0  0  0  0  0
   50.7310   30.5110   47.7570 O   0  0  0  0  0  0  0  0  0  0  0  0
   50.6340   32.0490   49.4490 N   0  0  0  0  0  0  0  0  0  0  0  0
   51.1140   31.9900   50.7030 C   0  0  0  0  0  0  0  0  0  0  0  0
   51.0030   33.0250   51.6220 O   0  0  0  0  0  0  0  0  0  0  0  0
   54.5670   31.5630   52.0190 C   0  0  0  0  0  0  0  0  0  0  0  0
   55.8910   31.2010   52.1570 C   0  0  0  0  0  0  0  0  0  0  0  0
   57.0510   32.1300   51.9560 C   0  0  0  0  0  0  0  0  0  0  0  0
   55.9890   29.9040   52.5230 N   0  0  0  0  0  0  0  0  0  0  0  0
   57.2130   29.1950   52.7920 C   0  0  0  0  0  0  0  0  0  0  0  0
   57.3120   28.3510   53.9100 C   0  0  0  0  0  0  0  0  0  0  0  0
   58.5010   27.6660   54.1750 C   0  0  0  0  0  0  0  0  0  0  0  0
   59.6020   27.8170   53.3260 C   0  0  0  0  0  0  0  0  0  0  0  0
   60.7600   27.1510   53.5820 N   0  0  0  0  0  0  0  0  0  0  0  0
   61.8490   27.2750   52.7760 C   0  0  0  0  0  0  0  0  0  0  0  0
   61.8000   28.1020   51.6510 C   0  0  0  0  0  0  0  0  0  0  0  0
   60.6250   28.8000   51.3620 C   0  0  0  0  0  0  0  0  0  0  0  0
   59.5110   28.6640   52.1990 C   0  0  0  0  0  0  0  0  0  0  0  0
   58.3160   29.3500   51.9380 C   0  0  0  0  0  0  0  0  0  0  0  0
   55.2449   27.5191   53.4001 H   0  0  0  0  0  0  0  0  0  0  0  0
   53.3891   27.9488   53.3620 H   0  0  0  0  0  0  0  0  0  0  0  0
   51.8889   30.0687   53.0045 H   0  0  0  0  0  0  0  0  0  0  0  0
   54.1840   32.5621   51.7641 H   0  0  0  0  0  0  0  0  0  0  0  0
   57.4431   32.4440   52.9346 H   0  0  0  0  0  0  0  0  0  0  0  0
   57.8418   31.6127   51.3930 H   0  0  0  0  0  0  0  0  0  0  0  0
   56.7189   33.0147   51.3930 H   0  0  0  0  0  0  0  0  0  0  0  0
   56.4489   28.2284   54.5809 H   0  0  0  0  0  0  0  0  0  0  0  0
   58.5710   27.0069   55.0529 H   0  0  0  0  0  0  0  0  0  0  0  0
   62.7708   26.7225   53.0108 H   0  0  0  0  0  0  0  0  0  0  0  0
   62.6796   28.2027   50.9981 H   0  0  0  0  0  0  0  0  0  0  0  0
   60.5752   29.4546   50.4794 H   0  0  0  0  0  0  0  0  0  0  0  0
   58.2430   30.0111   51.0619 H   0  0  0  0  0  0  0  0  0  0  0  0
  1  2  2  0
  2  3  1  0
  3  4  2  3
  4  5  1  0
  5  6  1  0
  6  7  1  0
  7  8  2  0
  7  9  1  0
  9 10  1  0
 10 11  1  0
  3 12  1  0
 12 13  2  0
 13 14  1  0
 13 15  1  0
 15 16  1  0
 16 17  2  0
 17 18  1  0
 18 19  2  0
 19 20  1  0
 20 21  2  0
 21 22  1  0
 22 23  2  0
 23 24  1  0
 24 25  2  0
 15  2  1  0
 25 16  1  0
 10  5  2  0
 24 19  1  0
  1 26  1  0
  1 27  1  0
  4 28  1  0
 12 29  1  0
 14 30  1  0
 14 31  1  0
 14 32  1  0
 17 33  1  0
 18 34  1  0
 21 35  1  0
 22 36  1  0
 23 37  1  0
 25 38  1  0
M  CHG  3   6  -1   9  -1  11  -1
M  END
>  <UniqueID>  (73) 
70

>  <SMILES>  (73) 
C=c1c(=Cc2[n-]c(=O)[n-]c2[O-])cc(C)n1-c1ccc2ncccc2c1

>  <Energy>  (73) 
120.29242096745288

>  <Genealogy>  (73) 
C=c1c(=Cc2[n-]c(=O)[n-]c2[O-])cc(C)n1-c1ccc2ncccc2c1 (protonated)
C=c1c(=Cc2[n-]c(=O)[n-]c2[O-])cc(C)n1-c1ccc2ncccc2c1 (3D coordinates assigned)
C=c1c(=Cc2[n-]c(=O)[n-]c2[O-])cc(C)n1-c1ccc2ncccc2c1 (optimized conformer: 120.29242096745288 kcal/mol)

>  <smiles>  (73) 
C=c1c(=Cc2[nH]c(=O)[nH]c2O)cc(C)n1-c1ccc2ncccc2c1

>  <score_type>  (73) 
oracle

>  <origin>  (73) 
adg

>  <m_score__min__energy>  (73) 
-15.779999999999999

>  <m_primary>  (73) 
energy

$$$$
73:0
     RDKit          3D

 57 61  0  0  0  0  0  0  0  0999 V2000
   61.4964   27.7865   50.4344 H   0  0  0  0  0  0  0  0  0  0  0  0
   60.7330   27.6770   49.6500 C   0  0  0  0  0  0  0  0  0  0  0  0
   60.7520   26.6590   48.7500 N   0  0  0  0  0  0  0  0  0  0  0  0
   59.7080   26.7300   47.8950 C   0  0  0  0  0  0  0  0  0  0  0  0
   59.5060   25.9040   46.9110 N   0  0  0  0  0  0  0  0  0  0  0  0
   58.7920   26.1890   45.6970 C   0  0  0  0  0  0  0  0  0  0  0  0
   58.4320   25.2240   44.9730 O   0  0  0  0  0  0  0  0  0  0  0  0
   58.5080   27.5710   45.2480 C   0  0  0  0  0  0  0  0  0  0  0  0
   59.5500   28.4060   44.8150 C   0  0  0  0  0  0  0  0  0  0  0  0
   60.5858   28.0357   44.8235 H   0  0  0  0  0  0  0  0  0  0  0  0
   59.2810   29.7050   44.3730 C   0  0  0  0  0  0  0  0  0  0  0  0
   60.1083   30.3537   44.0494 H   0  0  0  0  0  0  0  0  0  0  0  0
   57.9620   30.1880   44.3390 C   0  0  0  0  0  0  0  0  0  0  0  0
   57.6890   31.5740   43.8860 C   0  0  0  0  0  0  0  0  0  0  0  0
   57.1030   31.7480   42.7810 O   0  0  0  0  0  0  0  0  0  0  0  0
   58.0810   32.7620   44.6830 C   0  0  0  0  0  0  0  0  0  0  0  0
   58.8270   33.8080   44.1060 C   0  0  0  0  0  0  0  0  0  0  0  0
   59.1140   33.7544   43.0454 H   0  0  0  0  0  0  0  0  0  0  0  0
   59.2050   34.9140   44.8730 C   0  0  0  0  0  0  0  0  0  0  0  0
   59.7796   35.7312   44.4125 H   0  0  0  0  0  0  0  0  0  0  0  0
   58.8540   34.9830   46.2240 C   0  0  0  0  0  0  0  0  0  0  0  0
   59.1485   35.8557   46.8253 H   0  0  0  0  0  0  0  0  0  0  0  0
   58.1290   33.9430   46.8100 C   0  0  0  0  0  0  0  0  0  0  0  0
   57.8577   33.9956   47.8747 H   0  0  0  0  0  0  0  0  0  0  0  0
   57.7470   32.8350   46.0470 C   0  0  0  0  0  0  0  0  0  0  0  0
   57.1822   32.0161   46.5164 H   0  0  0  0  0  0  0  0  0  0  0  0
   56.9190   29.3530   44.7790 C   0  0  0  0  0  0  0  0  0  0  0  0
   55.8843   29.7263   44.7761 H   0  0  0  0  0  0  0  0  0  0  0  0
   57.1850   28.0530   45.2200 C   0  0  0  0  0  0  0  0  0  0  0  0
   56.1550   27.2770   45.6460 F   0  0  0  0  0  0  0  0  0  0  0  0
   58.7330   28.0600   48.1990 S   0  0  0  0  0  0  0  0  0  0  0  0
   59.6710   28.5750   49.5050 C   0  0  0  0  0  0  0  0  0  0  0  0
   59.4170   29.7850   50.3250 C   0  0  0  0  0  0  0  0  0  0  0  0
   60.4700   30.6460   50.6830 C   0  0  0  0  0  0  0  0  0  0  0  0
   61.4946   30.4251   50.3492 H   0  0  0  0  0  0  0  0  0  0  0  0
   60.2220   31.7800   51.4600 C   0  0  0  0  0  0  0  0  0  0  0  0
   61.0530   32.4435   51.7414 H   0  0  0  0  0  0  0  0  0  0  0  0
   58.9240   32.0750   51.8810 C   0  0  0  0  0  0  0  0  0  0  0  0
   58.7377   32.9674   52.4966 H   0  0  0  0  0  0  0  0  0  0  0  0
   57.8540   31.2370   51.5220 C   0  0  0  0  0  0  0  0  0  0  0  0
   56.5130   31.5030   51.9670 N   0  0  0  0  0  0  0  0  0  0  0  0
   56.2770   32.4810   52.2430 H   0  0  0  0  0  0  0  0  0  0  0  0
   55.5310   30.4760   52.1970 C   0  0  0  0  0  0  0  0  0  0  0  0
   55.9030   29.2820   52.3670 O   0  0  0  0  0  0  0  0  0  0  0  0
   54.0890   30.8120   52.2920 C   0  0  0  0  0  0  0  0  0  0  0  0
   53.3810   31.2880   51.1710 C   0  0  0  0  0  0  0  0  0  0  0  0
   53.9009   31.4182   50.2104 H   0  0  0  0  0  0  0  0  0  0  0  0
   52.0200   31.5960   51.2730 C   0  0  0  0  0  0  0  0  0  0  0  0
   51.4747   31.9692   50.3936 H   0  0  0  0  0  0  0  0  0  0  0  0
   51.3520   31.4310   52.4880 C   0  0  0  0  0  0  0  0  0  0  0  0
   50.2834   31.6799   52.5667 H   0  0  0  0  0  0  0  0  0  0  0  0
   52.0410   30.9500   53.6030 C   0  0  0  0  0  0  0  0  0  0  0  0
   51.5128   30.8154   54.5584 H   0  0  0  0  0  0  0  0  0  0  0  0
   53.4010   30.6390   53.5080 C   0  0  0  0  0  0  0  0  0  0  0  0
   53.9368   30.2566   54.3893 H   0  0  0  0  0  0  0  0  0  0  0  0
   58.1120   30.0860   50.7610 C   0  0  0  0  0  0  0  0  0  0  0  0
   57.2838   29.4101   50.5017 H   0  0  0  0  0  0  0  0  0  0  0  0
  1  2  1  0
  2  3  1  0
  3  4  1  0
  4  5  2  0
  5  6  1  0
  6  7  2  0
  6  8  1  0
  8  9  2  0
  9 10  1  0
  9 11  1  0
 11 12  1  0
 11 13  2  0
 13 14  1  0
 14 15  2  0
 14 16  1  0
 16 17  2  0
 17 18  1  0
 17 19  1  0
 19 20  1  0
 19 21  2  0
 21 22  1  0
 21 23  1  0
 23 24  1  0
 23 25  2  0
 25 26  1  0
 13 27  1  0
 27 28  1  0
 27 29  2  0
 29 30  1  0
  4 31  1  0
 31 32  1  0
 32 33  1  0
 33 34  2  0
 34 35  1  0
 34 36  1  0
 36 37  1  0
 36 38  2  0
 38 39  1  0
 38 40  1  0
 40 41  1  0
 41 42  1  0
 41 43  1  0
 43 44  2  0
 43 45  1  0
 45 46  2  0
 46 47  1  0
 46 48  1  0
 48 49  1  0
 48 50  2  0
 50 51  1  0
 50 52  1  0
 52 53  1  0
 52 54  2  0
 54 55  1  0
 40 56  2  0
 56 57  1  0
 32  2  2  0
 56 33  1  0
 29  8  1  0
 54 45  1  0
 25 16  1  0
M  CHG  1   3  -1
M  END
>  <UniqueID>  (74) 
71

>  <SMILES>  (74) 
O=C(Nc1cccc(-c2c[n-]/c(=N\C(=O)c3ccc(C(=O)c4ccccc4)cc3F)s2)c1)c1ccccc1

>  <Energy>  (74) 
117.14632588105387

>  <Genealogy>  (74) 
O=C(Nc1cccc(-c2c[n-]c(=NC(=O)c3ccc(C(=O)c4ccccc4)cc3F)s2)c1)c1ccccc1 (protonated)
O=C(Nc1cccc(-c2c[n-]/c(=N\C(=O)c3ccc(C(=O)c4ccccc4)cc3F)s2)c1)c1ccccc1 (cis-trans isomerization)
O=C(Nc1cccc(-c2c[n-]/c(=N\C(=O)c3ccc(C(=O)c4ccccc4)cc3F)s2)c1)c1ccccc1 (3D coordinates assigned)
O=C(Nc1cccc(-c2c[n-]/c(=N\C(=O)c3ccc(C(=O)c4ccccc4)cc3F)s2)c1)c1ccccc1 (optimized conformer: 117.14632588105387 kcal/mol)

>  <smiles>  (74) 
O=C(Nc1cccc(-c2c[nH]c(=NC(=O)c3ccc(C(=O)c4ccccc4)cc3F)s2)c1)c1ccccc1

>  <score_type>  (74) 
oracle

>  <origin>  (74) 
adg

>  <m_score__min__energy>  (74) 
-11.890000000000001

>  <m_primary>  (74) 
energy

$$$$
74:0
     RDKit          3D

 61 64  0  0  0  0  0  0  0  0999 V2000
   55.3850   23.2470   47.8670 H   0  0  0  0  0  0  0  0  0  0  0  0
   54.3860   23.1110   47.9970 O   0  0  0  0  0  0  0  0  0  0  0  0
   53.4990   23.1890   46.9250 C   0  0  0  0  0  0  0  0  0  0  0  0
   52.4330   22.2800   46.8190 C   0  0  0  0  0  0  0  0  0  0  0  0
   52.2944   21.5070   47.5892 H   0  0  0  0  0  0  0  0  0  0  0  0
   51.5470   22.3530   45.7390 C   0  0  0  0  0  0  0  0  0  0  0  0
   50.7155   21.6372   45.6601 H   0  0  0  0  0  0  0  0  0  0  0  0
   51.7180   23.3320   44.7640 C   0  0  0  0  0  0  0  0  0  0  0  0
   51.0179   23.3932   43.9178 H   0  0  0  0  0  0  0  0  0  0  0  0
   52.7820   24.2400   44.8600 C   0  0  0  0  0  0  0  0  0  0  0  0
   52.9102   25.0155   44.0905 H   0  0  0  0  0  0  0  0  0  0  0  0
   53.6850   24.1650   45.9330 C   0  0  0  0  0  0  0  0  0  0  0  0
   54.7720   25.0870   46.0520 N   0  0  0  0  0  0  0  0  0  0  0  0
   56.1510   24.8130   45.7520 C   0  0  0  0  0  0  0  0  0  0  0  0
   56.5030   24.7570   44.5440 O   0  0  0  0  0  0  0  0  0  0  0  0
   57.1800   24.7210   46.8240 C   0  0  0  0  0  0  0  0  0  0  0  0
   57.3100   23.5340   47.6290 N   0  0  0  0  0  0  0  0  0  0  0  0
   57.0350   22.1670   47.2710 C   0  0  0  0  0  0  0  0  0  0  0  0
   56.6400   21.3440   48.1480 O   0  0  0  0  0  0  0  0  0  0  0  0
   57.1310   21.7570   45.8380 C   0  0  0  0  0  0  0  0  0  0  0  0
   58.2380   22.2050   45.0740 C   0  0  0  0  0  0  0  0  0  0  0  0
   59.0104   22.8255   45.5519 H   0  0  0  0  0  0  0  0  0  0  0  0
   58.3630   21.8700   43.7220 C   0  0  0  0  0  0  0  0  0  0  0  0
   59.2316   22.2208   43.1454 H   0  0  0  0  0  0  0  0  0  0  0  0
   57.3840   21.0900   43.1060 C   0  0  0  0  0  0  0  0  0  0  0  0
   57.4730   20.8409   42.0383 H   0  0  0  0  0  0  0  0  0  0  0  0
   56.2880   20.6230   43.8430 C   0  0  0  0  0  0  0  0  0  0  0  0
   55.5234   20.0071   43.3469 H   0  0  0  0  0  0  0  0  0  0  0  0
   56.1520   20.9310   45.2090 C   0  0  0  0  0  0  0  0  0  0  0  0
   54.9610   20.3740   45.9470 C   0  0  0  0  0  0  0  0  0  0  0  0
   55.1312   20.4536   47.0308 H   0  0  0  0  0  0  0  0  0  0  0  0
   54.0610   20.9446   45.6743 H   0  0  0  0  0  0  0  0  0  0  0  0
   54.8219   19.3175   45.6743 H   0  0  0  0  0  0  0  0  0  0  0  0
   57.8960   25.7950   47.1960 C   0  0  0  0  0  0  0  0  0  0  0  0
   58.2771   25.8218   48.2275 H   0  0  0  0  0  0  0  0  0  0  0  0
   58.2090   26.9440   46.3190 C   0  0  0  0  0  0  0  0  0  0  0  0
   59.5000   27.1370   45.8010 C   0  0  0  0  0  0  0  0  0  0  0  0
   60.3004   26.4236   46.0469 H   0  0  0  0  0  0  0  0  0  0  0  0
   59.7740   28.2330   44.9730 C   0  0  0  0  0  0  0  0  0  0  0  0
   60.7890   28.3837   44.5767 H   0  0  0  0  0  0  0  0  0  0  0  0
   58.7560   29.1350   44.6510 C   0  0  0  0  0  0  0  0  0  0  0  0
   58.9718   29.9886   43.9917 H   0  0  0  0  0  0  0  0  0  0  0  0
   57.4510   28.9590   45.1660 C   0  0  0  0  0  0  0  0  0  0  0  0
   56.3640   29.8860   44.7840 C   0  0  0  0  0  0  0  0  0  0  0  0
   55.1550   29.5160   44.8400 O   0  0  0  0  0  0  0  0  0  0  0  0
   56.6670   31.2130   44.3460 N   0  0  0  0  0  0  0  0  0  0  0  0
   57.3580   32.0600   45.0500 C   0  0  0  0  0  0  0  0  0  0  0  0
   57.7410   31.7640   46.3270 N   0  0  0  0  0  0  0  0  0  0  0  0
   58.4310   32.6480   47.1010 C   0  0  0  0  0  0  0  0  0  0  0  0
   58.7840   32.2810   48.5100 C   0  0  0  0  0  0  0  0  0  0  0  0
   58.1943   32.8941   49.2073 H   0  0  0  0  0  0  0  0  0  0  0  0
   58.5612   31.2171   48.6786 H   0  0  0  0  0  0  0  0  0  0  0  0
   59.8558   32.4623   48.6786 H   0  0  0  0  0  0  0  0  0  0  0  0
   58.7490   33.9150   46.5910 C   0  0  0  0  0  0  0  0  0  0  0  0
   59.2846   34.6468   47.2135 H   0  0  0  0  0  0  0  0  0  0  0  0
   58.3780   34.2370   45.2840 C   0  0  0  0  0  0  0  0  0  0  0  0
   58.6384   35.2203   44.8654 H   0  0  0  0  0  0  0  0  0  0  0  0
   57.6760   33.3110   44.5070 C   0  0  0  0  0  0  0  0  0  0  0  0
   57.3763   33.5626   43.4790 H   0  0  0  0  0  0  0  0  0  0  0  0
   57.1950   27.8700   46.0180 C   0  0  0  0  0  0  0  0  0  0  0  0
   56.1927   27.7416   46.4527 H   0  0  0  0  0  0  0  0  0  0  0  0
  1  2  1  0
  2  3  1  0
  3  4  2  0
  4  5  1  0
  4  6  1  0
  6  7  1  0
  6  8  2  0
  8  9  1  0
  8 10  1  0
 10 11  1  0
 10 12  2  0
 12 13  1  0
 13 14  1  0
 14 15  2  0
 14 16  1  0
 16 17  1  0
 17 18  1  0
 18 19  2  0
 18 20  1  0
 20 21  2  0
 21 22  1  0
 21 23  1  0
 23 24  1  0
 23 25  2  0
 25 26  1  0
 25 27  1  0
 27 28  1  0
 27 29  2  0
 29 30  1  0
 30 31  1  0
 30 32  1  0
 30 33  1  0
 16 34  2  0
 34 35  1  0
 34 36  1  0
 36 37  2  0
 37 38  1  0
 37 39  1  0
 39 40  1  0
 39 41  2  0
 41 42  1  0
 41 43  1  0
 43 44  1  0
 44 45  2  0
 44 46  1  0
 46 47  2  3
 47 48  1  0
 48 49  1  0
 49 50  1  0
 50 51  1  0
 50 52  1  0
 50 53  1  0
 49 54  2  0
 54 55  1  0
 54 56  1  0
 56 57  1  0
 56 58  2  0
 58 59  1  0
 43 60  2  0
 60 61  1  0
 12  3  1  0
 29 20  1  0
 60 36  1  0
 58 47  1  0
M  CHG  3  13  -1  17  -1  48  -1
M  END
>  <UniqueID>  (75) 
72

>  <SMILES>  (75) 
Cc1cccc(=NC(=O)c2cccc(/C=C(/[N-]C(=O)c3ccccc3C)C(=O)[N-]c3ccccc3O)c2)[n-]1

>  <Energy>  (75) 
93.01659091064658

>  <Genealogy>  (75) 
Cc1cccc(=NC(=O)c2cccc(C=C([N-]C(=O)c3ccccc3C)C(=O)[N-]c3ccccc3O)c2)[n-]1 (protonated)
Cc1cccc(=NC(=O)c2cccc(/C=C(/[N-]C(=O)c3ccccc3C)C(=O)[N-]c3ccccc3O)c2)[n-]1 (cis-trans isomerization)
Cc1cccc(=NC(=O)c2cccc(/C=C(/[N-]C(=O)c3ccccc3C)C(=O)[N-]c3ccccc3O)c2)[n-]1 (3D coordinates assigned)
Cc1cccc(=NC(=O)c2cccc(/C=C(/[N-]C(=O)c3ccccc3C)C(=O)[N-]c3ccccc3O)c2)[n-]1 (optimized conformer: 93.01659091064658 kcal/mol)

>  <smiles>  (75) 
Cc1cccc(=NC(=O)c2cccc(C=C(NC(=O)c3ccccc3C)C(=O)Nc3ccccc3O)c2)[nH]1

>  <score_type>  (75) 
oracle

>  <origin>  (75) 
adg

>  <m_score__min__energy>  (75) 
-14.800000000000001

>  <m_primary>  (75) 
energy

$$$$
75:0
     RDKit          3D

 50 53  0  0  0  0  0  0  0  0999 V2000
   59.7790   28.1460   46.6400 C   0  0  0  0  0  0  0  0  0  0  0  0
   58.8830   28.9610   46.0610 C   0  0  0  0  0  0  0  0  0  0  0  0
   57.8300   28.6030   45.2010 C   0  0  0  0  0  0  0  0  0  0  0  0
   57.3680   27.3970   44.8110 C   0  0  0  0  0  0  0  0  0  0  0  0
   57.2170   26.2140   45.6790 C   0  0  0  0  0  0  0  0  0  0  0  0
   55.9790   25.9230   46.2690 C   0  0  0  0  0  0  0  0  0  0  0  0
   54.8660   26.7130   46.0050 O   0  0  0  0  0  0  0  0  0  0  0  0
   55.8590   24.8560   47.1010 N   0  0  0  0  0  0  0  0  0  0  0  0
   56.9260   24.0680   47.3880 C   0  0  0  0  0  0  0  0  0  0  0  0
   56.7900   23.0820   48.1570 O   0  0  0  0  0  0  0  0  0  0  0  0
   58.1410   24.3430   46.8480 N   0  0  0  0  0  0  0  0  0  0  0  0
   58.3140   25.3990   46.0110 C   0  0  0  0  0  0  0  0  0  0  0  0
   59.4590   25.6380   45.5440 O   0  0  0  0  0  0  0  0  0  0  0  0
   57.2550   29.7910   44.7770 C   0  0  0  0  0  0  0  0  0  0  0  0
   57.9340   30.8120   45.4050 C   0  0  0  0  0  0  0  0  0  0  0  0
   57.6300   32.2700   45.2390 C   0  0  0  0  0  0  0  0  0  0  0  0
   58.9140   30.3130   46.1890 N   0  0  0  0  0  0  0  0  0  0  0  0
   59.8470   31.0990   46.9530 C   0  0  0  0  0  0  0  0  0  0  0  0
   59.3800   32.0320   47.8870 C   0  0  0  0  0  0  0  0  0  0  0  0
   60.2820   32.8090   48.6180 C   0  0  0  0  0  0  0  0  0  0  0  0
   61.6660   32.6730   48.4140 C   0  0  0  0  0  0  0  0  0  0  0  0
   62.6160   33.4910   49.2000 C   0  0  0  0  0  0  0  0  0  0  0  0
   62.4460   34.7400   49.2510 O   0  0  0  0  0  0  0  0  0  0  0  0
   63.7270   32.9000   49.9050 N   0  0  0  0  0  0  0  0  0  0  0  0
   63.4900   32.1000   51.1210 C   0  0  0  0  0  0  0  0  0  0  0  0
   64.4440   30.9110   51.1710 C   0  0  0  0  0  0  0  0  0  0  0  0
   65.8160   31.3900   51.0930 N   0  0  0  0  0  0  0  0  0  0  0  0
   66.1480   32.4560   50.2020 C   0  0  0  0  0  0  0  0  0  0  0  0
   67.3430   32.8430   50.1030 O   0  0  0  0  0  0  0  0  0  0  0  0
   65.0820   33.0970   49.3560 C   0  0  0  0  0  0  0  0  0  0  0  0
   62.1300   31.7240   47.4870 C   0  0  0  0  0  0  0  0  0  0  0  0
   61.2270   30.9490   46.7570 C   0  0  0  0  0  0  0  0  0  0  0  0
   60.5574   28.5621   47.2964 H   0  0  0  0  0  0  0  0  0  0  0  0
   59.7347   27.0621   46.4580 H   0  0  0  0  0  0  0  0  0  0  0  0
   57.0792   27.2864   43.7554 H   0  0  0  0  0  0  0  0  0  0  0  0
   56.4164   29.8980   44.0732 H   0  0  0  0  0  0  0  0  0  0  0  0
   57.5322   32.7392   46.2291 H   0  0  0  0  0  0  0  0  0  0  0  0
   58.4466   32.7538   44.6830 H   0  0  0  0  0  0  0  0  0  0  0  0
   56.6881   32.3872   44.6830 H   0  0  0  0  0  0  0  0  0  0  0  0
   58.2983   32.1536   48.0458 H   0  0  0  0  0  0  0  0  0  0  0  0
   59.9068   33.5316   49.3577 H   0  0  0  0  0  0  0  0  0  0  0  0
   63.6514   32.7314   52.0072 H   0  0  0  0  0  0  0  0  0  0  0  0
   62.4555   31.7264   51.1057 H   0  0  0  0  0  0  0  0  0  0  0  0
   64.2993   30.3635   52.1140 H   0  0  0  0  0  0  0  0  0  0  0  0
   64.2399   30.2396   50.3239 H   0  0  0  0  0  0  0  0  0  0  0  0
   66.5420   31.0000   51.7350 H   0  0  0  0  0  0  0  0  0  0  0  0
   65.2834   34.1766   49.2939 H   0  0  0  0  0  0  0  0  0  0  0  0
   65.1123   32.6209   48.3649 H   0  0  0  0  0  0  0  0  0  0  0  0
   63.2114   31.5911   47.3357 H   0  0  0  0  0  0  0  0  0  0  0  0
   61.5999   30.2176   46.0249 H   0  0  0  0  0  0  0  0  0  0  0  0
  1  2  2  0
  2  3  1  0
  3  4  2  3
  4  5  1  0
  5  6  2  0
  6  7  1  0
  6  8  1  0
  8  9  1  0
  9 10  2  0
  9 11  1  0
 11 12  1  0
 12 13  2  0
  3 14  1  0
 14 15  2  0
 15 16  1  0
 15 17  1  0
 17 18  1  0
 18 19  2  0
 19 20  1  0
 20 21  2  0
 21 22  1  0
 22 23  2  0
 22 24  1  0
 24 25  1  0
 25 26  1  0
 26 27  1  0
 27 28  1  0
 28 29  2  0
 28 30  1  0
 21 31  1  0
 31 32  2  0
 17  2  1  0
 32 18  1  0
 12  5  1  0
 30 24  1  0
  1 33  1  0
  1 34  1  0
  4 35  1  0
 14 36  1  0
 16 37  1  0
 16 38  1  0
 16 39  1  0
 19 40  1  0
 20 41  1  0
 25 42  1  0
 25 43  1  0
 26 44  1  0
 26 45  1  0
 27 46  1  0
 30 47  1  0
 30 48  1  0
 31 49  1  0
 32 50  1  0
M  CHG  3   7  -1   8  -1  11  -1
M  END
>  <UniqueID>  (76) 
73

>  <SMILES>  (76) 
C=c1c(=Cc2c([O-])[n-]c(=O)[n-]c2=O)cc(C)n1-c1ccc(C(=O)N2CCNC(=O)C2)cc1

>  <Energy>  (76) 
106.9188066909918

>  <Genealogy>  (76) 
C=c1c(=Cc2c([O-])[n-]c(=O)[n-]c2=O)cc(C)n1-c1ccc(C(=O)N2CCNC(=O)C2)cc1 (protonated)
C=c1c(=Cc2c([O-])[n-]c(=O)[n-]c2=O)cc(C)n1-c1ccc(C(=O)N2CCNC(=O)C2)cc1 (3D coordinates assigned)
C=c1c(=Cc2c([O-])[n-]c(=O)[n-]c2=O)cc(C)n1-c1ccc(C(=O)N2CCNC(=O)C2)cc1 (nonaromatic ring conformer: 106.9188066909918 kcal/mol)

>  <smiles>  (76) 
C=c1c(=Cc2c(O)[nH]c(=O)[nH]c2=O)cc(C)n1-c1ccc(C(=O)N2CCNC(=O)C2)cc1

>  <score_type>  (76) 
oracle

>  <origin>  (76) 
adg

>  <m_score__min__energy>  (76) 
-15.85

>  <m_primary>  (76) 
energy

$$$$
76:0
     RDKit          3D

 53 56  0  0  0  0  0  0  0  0999 V2000
   53.6410   25.9580   46.3640 H   0  0  0  0  0  0  0  0  0  0  0  0
   54.5200   26.1370   45.8930 O   0  0  0  0  0  0  0  0  0  0  0  0
   55.6830   25.4640   46.2550 C   0  0  0  0  0  0  0  0  0  0  0  0
   55.6980   24.3850   47.0550 N   0  0  0  0  0  0  0  0  0  0  0  0
   57.0110   24.0740   47.1120 C   0  0  0  0  0  0  0  0  0  0  0  0
   57.4470   23.0970   47.7750 O   0  0  0  0  0  0  0  0  0  0  0  0
   57.8180   24.8860   46.3950 N   0  0  0  0  0  0  0  0  0  0  0  0
   56.9650   25.7840   45.8700 C   0  0  0  0  0  0  0  0  0  0  0  0
   57.3450   26.8210   44.9000 C   0  0  0  0  0  0  0  0  0  0  0  0
   57.1180   26.6249   43.8417 H   0  0  0  0  0  0  0  0  0  0  0  0
   57.9460   27.9890   45.1920 C   0  0  0  0  0  0  0  0  0  0  0  0
   59.2960   28.0770   45.4880 C   0  0  0  0  0  0  0  0  0  0  0  0
   60.0151   27.2451   45.5159 H   0  0  0  0  0  0  0  0  0  0  0  0
   59.5680   29.4040   45.7410 C   0  0  0  0  0  0  0  0  0  0  0  0
   60.9360   29.9580   45.9970 C   0  0  0  0  0  0  0  0  0  0  0  0
   61.1066   30.0271   47.0815 H   0  0  0  0  0  0  0  0  0  0  0  0
   61.6901   29.2944   45.5487 H   0  0  0  0  0  0  0  0  0  0  0  0
   61.0159   30.9593   45.5487 H   0  0  0  0  0  0  0  0  0  0  0  0
   58.4520   30.1500   45.5900 N   0  0  0  0  0  0  0  0  0  0  0  0
   58.4290   31.5890   45.5540 C   0  0  0  0  0  0  0  0  0  0  0  0
   58.2280   32.3250   46.7310 C   0  0  0  0  0  0  0  0  0  0  0  0
   58.1230   31.6480   47.9480 O   0  0  0  0  0  0  0  0  0  0  0  0
   59.2110   31.4430   48.8390 C   0  0  0  0  0  0  0  0  0  0  0  0
   58.8270   31.3408   49.8647 H   0  0  0  0  0  0  0  0  0  0  0  0
   59.7477   30.5282   48.5474 H   0  0  0  0  0  0  0  0  0  0  0  0
   60.1760   32.6330   48.7750 C   0  0  0  0  0  0  0  0  0  0  0  0
   59.5968   33.5496   48.5896 H   0  0  0  0  0  0  0  0  0  0  0  0
   60.7118   32.6862   49.7342 H   0  0  0  0  0  0  0  0  0  0  0  0
   61.1830   32.4780   47.6980 N   0  0  0  0  0  0  0  0  0  0  0  0
   62.4270   31.8480   48.2070 C   0  0  0  0  0  0  0  0  0  0  0  0
   62.1916   31.2810   49.1197 H   0  0  0  0  0  0  0  0  0  0  0  0
   62.8217   31.1862   47.4220 H   0  0  0  0  0  0  0  0  0  0  0  0
   63.5050   32.8980   48.5360 C   0  0  0  0  0  0  0  0  0  0  0  0
   63.1136   33.5615   49.3212 H   0  0  0  0  0  0  0  0  0  0  0  0
   64.4006   32.3456   48.8566 H   0  0  0  0  0  0  0  0  0  0  0  0
   63.8900   33.6980   47.4250 O   0  0  0  0  0  0  0  0  0  0  0  0
   62.8810   33.8130   46.4310 C   0  0  0  0  0  0  0  0  0  0  0  0
   63.0133   34.7718   45.9083 H   0  0  0  0  0  0  0  0  0  0  0  0
   62.9911   32.9534   45.7536 H   0  0  0  0  0  0  0  0  0  0  0  0
   61.4550   33.7620   47.0040 C   0  0  0  0  0  0  0  0  0  0  0  0
   61.3300   34.5871   47.7207 H   0  0  0  0  0  0  0  0  0  0  0  0
   60.7476   33.8535   46.1666 H   0  0  0  0  0  0  0  0  0  0  0  0
   58.1400   33.6830   46.6760 N   0  0  0  0  0  0  0  0  0  0  0  0
   58.2440   34.3590   45.5010 C   0  0  0  0  0  0  0  0  0  0  0  0
   58.1698   35.4564   45.4904 H   0  0  0  0  0  0  0  0  0  0  0  0
   58.4450   33.6620   44.3070 C   0  0  0  0  0  0  0  0  0  0  0  0
   58.5330   34.2053   43.3546 H   0  0  0  0  0  0  0  0  0  0  0  0
   58.5330   32.2690   44.3350 C   0  0  0  0  0  0  0  0  0  0  0  0
   58.6837   31.7072   43.4014 H   0  0  0  0  0  0  0  0  0  0  0  0
   57.4500   29.3040   45.2330 C   0  0  0  0  0  0  0  0  0  0  0  0
   56.2300   29.7280   44.8680 C   0  0  0  0  0  0  0  0  0  0  0  0
   55.9701   30.7936   44.9519 H   0  0  0  0  0  0  0  0  0  0  0  0
   55.4900   29.0099   44.4849 H   0  0  0  0  0  0  0  0  0  0  0  0
  1  2  1  0
  2  3  1  0
  3  4  1  0
  4  5  1  0
  5  6  2  0
  5  7  1  0
  7  8  1  0
  8  9  1  0
  9 10  1  0
  9 11  2  0
 11 12  1  0
 12 13  1  0
 12 14  2  0
 14 15  1  0
 15 16  1  0
 15 17  1  0
 15 18  1  0
 14 19  1  0
 19 20  1  0
 20 21  1  0
 21 22  1  0
 22 23  1  0
 23 24  1  0
 23 25  1  0
 23 26  1  0
 26 27  1  0
 26 28  1  0
 26 29  1  0
 29 30  1  0
 30 31  1  0
 30 32  1  0
 30 33  1  0
 33 34  1  0
 33 35  1  0
 33 36  1  0
 36 37  1  0
 37 38  1  0
 37 39  1  0
 37 40  1  0
 40 41  1  0
 40 42  1  0
 21 43  2  0
 43 44  1  0
 44 45  1  0
 44 46  2  0
 46 47  1  0
 46 48  1  0
 48 49  1  0
 19 50  1  0
 50 51  2  0
 51 52  1  0
 51 53  1  0
  8  3  2  0
 50 11  1  0
 48 20  2  0
 40 29  1  0
M  CHG  2   4  -1   7  -1
M  END
>  <UniqueID>  (77) 
74

>  <SMILES>  (77) 
C=c1/c(=C\c2[n-]c(=O)[n-]c2O)cc(C)n1-c1cccnc1OCCN1CCOCC1

>  <Energy>  (77) 
139.41936007592534

>  <Genealogy>  (77) 
C=c1c(=Cc2[n-]c(=O)[n-]c2O)cc(C)n1-c1cccnc1OCCN1CCOCC1 (protonated)
C=c1/c(=C\c2[n-]c(=O)[n-]c2O)cc(C)n1-c1cccnc1OCCN1CCOCC1 (cis-trans isomerization)
C=c1/c(=C\c2[n-]c(=O)[n-]c2O)cc(C)n1-c1cccnc1OCCN1CCOCC1 (3D coordinates assigned)
C=c1/c(=C\c2[n-]c(=O)[n-]c2O)cc(C)n1-c1cccnc1OCCN1CCOCC1 (nonaromatic ring conformer: 139.41936007592534 kcal/mol)

>  <smiles>  (77) 
C=c1c(=Cc2[nH]c(=O)[nH]c2O)cc(C)n1-c1cccnc1OCCN1CCOCC1

>  <score_type>  (77) 
oracle

>  <origin>  (77) 
adg

>  <m_score__min__energy>  (77) 
-13.26

>  <m_primary>  (77) 
energy

$$$$
77:0
     RDKit          3D

 47 49  0  0  0  0  0  0  0  0999 V2000
   63.6270   32.0890   47.6660 N   0  0  0  0  0  0  0  0  0  0  0  0
   62.9260   33.6610   47.5250 S   0  0  0  0  0  0  0  0  0  0  0  0
   62.9460   34.3450   48.8640 O   0  0  0  0  0  0  0  0  0  0  0  0
   63.7320   34.4790   46.5550 O   0  0  0  0  0  0  0  0  0  0  0  0
   61.2660   33.5160   46.9580 C   0  0  0  0  0  0  0  0  0  0  0  0
   60.6340   34.6120   46.3570 C   0  0  0  0  0  0  0  0  0  0  0  0
   59.3130   34.5070   45.9120 C   0  0  0  0  0  0  0  0  0  0  0  0
   58.6050   33.3040   46.0720 C   0  0  0  0  0  0  0  0  0  0  0  0
   57.1940   33.1800   45.5580 C   0  0  0  0  0  0  0  0  0  0  0  0
   57.0530   32.0000   44.5960 C   0  0  0  0  0  0  0  0  0  0  0  0
   57.0180   30.7440   45.3380 N   0  0  0  0  0  0  0  0  0  0  0  0
   56.5010   29.5180   44.8120 C   0  0  0  0  0  0  0  0  0  0  0  0
   55.3750   29.5310   44.2480 O   0  0  0  0  0  0  0  0  0  0  0  0
   57.2840   28.2340   44.9290 C   0  0  0  0  0  0  0  0  0  0  0  0
   57.1320   27.5580   46.2980 C   0  0  0  0  0  0  0  0  0  0  0  0
   56.8120   26.1410   46.1240 N   0  0  0  0  0  0  0  0  0  0  0  0
   55.5870   25.6050   45.9370 C   0  0  0  0  0  0  0  0  0  0  0  0
   54.4040   26.3350   45.9410 O   0  0  0  0  0  0  0  0  0  0  0  0
   55.6850   24.2440   45.7270 C   0  0  0  0  0  0  0  0  0  0  0  0
   57.0220   23.9360   45.7710 C   0  0  0  0  0  0  0  0  0  0  0  0
   57.6900   25.1210   46.0060 C   0  0  0  0  0  0  0  0  0  0  0  0
   59.0700   25.2640   46.0940 O   0  0  0  0  0  0  0  0  0  0  0  0
   57.5760   22.5680   45.5370 C   0  0  0  0  0  0  0  0  0  0  0  0
   56.4740   21.5420   45.3630 C   0  0  0  0  0  0  0  0  0  0  0  0
   55.1570   21.8440   45.3220 C   0  0  0  0  0  0  0  0  0  0  0  0
   54.6050   23.2510   45.4430 C   0  0  0  0  0  0  0  0  0  0  0  0
   59.2430   32.2070   46.6710 C   0  0  0  0  0  0  0  0  0  0  0  0
   60.5640   32.3140   47.1170 C   0  0  0  0  0  0  0  0  0  0  0  0
   64.5150   32.1010   47.1160 H   0  0  0  0  0  0  0  0  0  0  0  0
   61.1795   35.5594   46.2347 H   0  0  0  0  0  0  0  0  0  0  0  0
   58.8257   35.3699   45.4345 H   0  0  0  0  0  0  0  0  0  0  0  0
   56.5145   33.0305   46.4100 H   0  0  0  0  0  0  0  0  0  0  0  0
   56.9410   34.1022   45.0145 H   0  0  0  0  0  0  0  0  0  0  0  0
   56.1208   32.1088   44.0223 H   0  0  0  0  0  0  0  0  0  0  0  0
   57.9158   31.9890   43.9138 H   0  0  0  0  0  0  0  0  0  0  0  0
   56.9319   27.5375   44.1538 H   0  0  0  0  0  0  0  0  0  0  0  0
   58.3474   28.4862   44.8044 H   0  0  0  0  0  0  0  0  0  0  0  0
   58.0743   27.6525   46.8575 H   0  0  0  0  0  0  0  0  0  0  0  0
   56.3176   28.0464   46.8533 H   0  0  0  0  0  0  0  0  0  0  0  0
   58.1953   22.5843   44.6280 H   0  0  0  0  0  0  0  0  0  0  0  0
   58.1746   22.2844   46.4152 H   0  0  0  0  0  0  0  0  0  0  0  0
   56.7641   20.4856   45.2639 H   0  0  0  0  0  0  0  0  0  0  0  0
   54.4418   21.0182   45.1929 H   0  0  0  0  0  0  0  0  0  0  0  0
   54.1099   23.5225   44.4990 H   0  0  0  0  0  0  0  0  0  0  0  0
   53.8921   23.2696   46.2805 H   0  0  0  0  0  0  0  0  0  0  0  0
   58.7008   31.2574   46.7904 H   0  0  0  0  0  0  0  0  0  0  0  0
   61.0533   31.4520   47.5940 H   0  0  0  0  0  0  0  0  0  0  0  0
  1  2  1  0
  2  3  2  0
  2  4  2  0
  2  5  1  0
  5  6  2  0
  6  7  1  0
  7  8  2  0
  8  9  1  0
  9 10  1  0
 10 11  1  0
 11 12  1  0
 12 13  2  0
 12 14  1  0
 14 15  1  0
 15 16  1  0
 16 17  1  0
 17 18  1  0
 17 19  2  0
 19 20  1  0
 20 21  2  0
 21 22  1  0
 20 23  1  0
 23 24  1  0
 24 25  2  0
 25 26  1  0
  8 27  1  0
 27 28  2  0
 28  5  1  0
 21 16  1  0
 26 19  1  0
  1 29  1  0
  6 30  1  0
  7 31  1  0
  9 32  1  0
  9 33  1  0
 10 34  1  0
 10 35  1  0
 14 36  1  0
 14 37  1  0
 15 38  1  0
 15 39  1  0
 23 40  1  0
 23 41  1  0
 24 42  1  0
 25 43  1  0
 26 44  1  0
 26 45  1  0
 27 46  1  0
 28 47  1  0
M  CHG  4   1  -1  11  -1  18  -1  22  -1
M  END
>  <UniqueID>  (78) 
75

>  <SMILES>  (78) 
[NH-]S(=O)(=O)c1ccc(CC[N-]C(=O)CCn2c([O-])c3c(c2[O-])CC=CC3)cc1

>  <Energy>  (78) 
73.68879627051794

>  <Genealogy>  (78) 
[NH-]S(=O)(=O)c1ccc(CC[N-]C(=O)CCn2c([O-])c3c(c2[O-])CC=CC3)cc1 (protonated)
[NH-]S(=O)(=O)c1ccc(CC[N-]C(=O)CCn2c([O-])c3c(c2[O-])CC=CC3)cc1 (3D coordinates assigned)
[NH-]S(=O)(=O)c1ccc(CC[N-]C(=O)CCn2c([O-])c3c(c2[O-])CC=CC3)cc1 (nonaromatic ring conformer: 73.68879627051794 kcal/mol)

>  <smiles>  (78) 
NS(=O)(=O)c1ccc(CCNC(=O)CCn2c(O)c3c(c2O)CC=CC3)cc1

>  <score_type>  (78) 
oracle

>  <origin>  (78) 
adg

>  <m_score__min__energy>  (78) 
-15.91

>  <m_primary>  (78) 
energy

$$$$
78:0
     RDKit          3D

 42 44  0  0  0  0  0  0  0  0999 V2000
   58.4000   32.3000   48.2110 H   0  0  0  0  0  0  0  0  0  0  0  0
   59.3190   31.8850   48.3120 O   0  0  0  0  0  0  0  0  0  0  0  0
   60.4670   32.5100   47.8280 C   0  0  0  0  0  0  0  0  0  0  0  0
   61.7110   31.8910   48.0200 C   0  0  0  0  0  0  0  0  0  0  0  0
   61.7741   30.9581   48.5995 H   0  0  0  0  0  0  0  0  0  0  0  0
   62.8670   32.4510   47.4810 C   0  0  0  0  0  0  0  0  0  0  0  0
   63.8428   31.9667   47.6338 H   0  0  0  0  0  0  0  0  0  0  0  0
   62.7740   33.6300   46.7470 C   0  0  0  0  0  0  0  0  0  0  0  0
   63.6765   34.0732   46.3008 H   0  0  0  0  0  0  0  0  0  0  0  0
   61.5680   34.2330   46.5820 N   0  0  0  0  0  0  0  0  0  0  0  0
   60.4150   33.7340   47.1100 C   0  0  0  0  0  0  0  0  0  0  0  0
   59.3110   34.3900   46.8710 N   0  0  0  0  0  0  0  0  0  0  0  0
   58.0200   33.8890   46.4910 C   0  0  0  0  0  0  0  0  0  0  0  0
   57.2360   33.4340   47.3660 O   0  0  0  0  0  0  0  0  0  0  0  0
   57.5240   34.0610   45.1120 C   0  0  0  0  0  0  0  0  0  0  0  0
   56.8915   34.9365   44.9036 H   0  0  0  0  0  0  0  0  0  0  0  0
   57.7880   33.2270   44.0920 C   0  0  0  0  0  0  0  0  0  0  0  0
   58.0214   33.6716   43.1133 H   0  0  0  0  0  0  0  0  0  0  0  0
   57.7860   31.7560   44.1960 C   0  0  0  0  0  0  0  0  0  0  0  0
   58.5090   31.1040   45.2080 C   0  0  0  0  0  0  0  0  0  0  0  0
   59.0561   31.6943   45.9578 H   0  0  0  0  0  0  0  0  0  0  0  0
   58.5360   29.7080   45.2660 C   0  0  0  0  0  0  0  0  0  0  0  0
   59.1120   29.2035   46.0558 H   0  0  0  0  0  0  0  0  0  0  0  0
   57.8300   28.9460   44.3190 C   0  0  0  0  0  0  0  0  0  0  0  0
   57.8500   27.5430   44.3200 O   0  0  0  0  0  0  0  0  0  0  0  0
   57.6450   26.7280   45.4430 C   0  0  0  0  0  0  0  0  0  0  0  0
   58.2110   27.0030   46.5380 O   0  0  0  0  0  0  0  0  0  0  0  0
   56.8080   25.5060   45.3350 C   0  0  0  0  0  0  0  0  0  0  0  0
   57.3970   24.2900   44.9310 C   0  0  0  0  0  0  0  0  0  0  0  0
   58.4723   24.2553   44.7018 H   0  0  0  0  0  0  0  0  0  0  0  0
   56.6280   23.1290   44.8190 C   0  0  0  0  0  0  0  0  0  0  0  0
   57.1001   22.1865   44.5047 H   0  0  0  0  0  0  0  0  0  0  0  0
   55.2620   23.1620   45.1050 C   0  0  0  0  0  0  0  0  0  0  0  0
   54.6586   22.2468   45.0135 H   0  0  0  0  0  0  0  0  0  0  0  0
   54.6620   24.3560   45.5070 C   0  0  0  0  0  0  0  0  0  0  0  0
   53.5859   24.3783   45.7339 H   0  0  0  0  0  0  0  0  0  0  0  0
   55.4220   25.5250   45.6230 C   0  0  0  0  0  0  0  0  0  0  0  0
   54.7830   26.6960   46.0180 O   0  0  0  0  0  0  0  0  0  0  0  0
   57.0500   29.6010   43.3590 C   0  0  0  0  0  0  0  0  0  0  0  0
   56.4520   29.0124   42.6477 H   0  0  0  0  0  0  0  0  0  0  0  0
   57.0250   30.9970   43.2970 C   0  0  0  0  0  0  0  0  0  0  0  0
   56.4061   31.5014   42.5403 H   0  0  0  0  0  0  0  0  0  0  0  0
  1  2  1  0
  2  3  1  0
  3  4  2  0
  4  5  1  0
  4  6  1  0
  6  7  1  0
  6  8  2  0
  8  9  1  0
  8 10  1  0
 10 11  1  0
 11 12  2  0
 12 13  1  0
 13 14  2  0
 13 15  1  0
 15 16  1  0
 15 17  2  3
 17 18  1  0
 17 19  1  0
 19 20  2  0
 20 21  1  0
 20 22  1  0
 22 23  1  0
 22 24  2  0
 24 25  1  0
 25 26  1  0
 26 27  2  0
 26 28  1  0
 28 29  2  0
 29 30  1  0
 29 31  1  0
 31 32  1  0
 31 33  2  0
 33 34  1  0
 33 35  1  0
 35 36  1  0
 35 37  2  0
 37 38  1  0
 24 39  1  0
 39 40  1  0
 39 41  2  0
 41 42  1  0
 11  3  1  0
 41 19  1  0
 37 28  1  0
M  CHG  2  10  -1  38  -1
M  END
>  <UniqueID>  (79) 
76

>  <SMILES>  (79) 
O=C(C=Cc1ccc(OC(=O)c2ccccc2[O-])cc1)/N=c1/[n-]cccc1O

>  <Energy>  (79) 
69.07971042893257

>  <Genealogy>  (79) 
O=C(C=Cc1ccc(OC(=O)c2ccccc2[O-])cc1)N=c1[n-]cccc1O (protonated)
O=C(C=Cc1ccc(OC(=O)c2ccccc2[O-])cc1)/N=c1/[n-]cccc1O (cis-trans isomerization)
O=C(C=Cc1ccc(OC(=O)c2ccccc2[O-])cc1)/N=c1/[n-]cccc1O (3D coordinates assigned)
O=C(C=Cc1ccc(OC(=O)c2ccccc2[O-])cc1)/N=c1/[n-]cccc1O (optimized conformer: 69.07971042893257 kcal/mol)

>  <smiles>  (79) 
O=C(C=Cc1ccc(OC(=O)c2ccccc2O)cc1)N=c1[nH]cccc1O

>  <score_type>  (79) 
oracle

>  <origin>  (79) 
adg

>  <m_score__min__energy>  (79) 
-12.859999999999999

>  <m_primary>  (79) 
energy

$$$$
79:0
     RDKit          3D

 42 43  0  0  0  0  0  0  0  0999 V2000
   58.9440   30.6450   47.8740 C   0  0  0  0  0  0  0  0  0  0  0  0
   59.6090   31.9240   47.4800 C   0  0  0  0  0  0  0  0  0  0  0  0
   60.9440   32.0910   47.4290 N   0  0  0  0  0  0  0  0  0  0  0  0
   61.2030   33.2990   46.9510 N   0  0  0  0  0  0  0  0  0  0  0  0
   62.5510   33.8200   46.7380 C   0  0  0  0  0  0  0  0  0  0  0  0
   60.0370   33.9300   46.6880 C   0  0  0  0  0  0  0  0  0  0  0  0
   59.9090   35.2940   46.0740 C   0  0  0  0  0  0  0  0  0  0  0  0
   58.9910   33.0680   46.9930 C   0  0  0  0  0  0  0  0  0  0  0  0
   57.5170   33.3010   46.8070 C   0  0  0  0  0  0  0  0  0  0  0  0
   57.0310   32.6090   45.6180 N   0  0  0  0  0  0  0  0  0  0  0  0
   57.6580   32.6950   44.3330 C   0  0  0  0  0  0  0  0  0  0  0  0
   58.4680   33.6310   44.0920 O   0  0  0  0  0  0  0  0  0  0  0  0
   57.3690   31.7130   43.3190 N   0  0  0  0  0  0  0  0  0  0  0  0
   57.7580   31.9800   41.9300 C   0  0  0  0  0  0  0  0  0  0  0  0
   56.6710   30.4660   43.6670 C   0  0  0  0  0  0  0  0  0  0  0  0
   57.5690   29.5590   44.4660 C   0  0  0  0  0  0  0  0  0  0  0  0
   58.9600   29.7440   44.4620 C   0  0  0  0  0  0  0  0  0  0  0  0
   59.7690   28.8970   45.2220 C   0  0  0  0  0  0  0  0  0  0  0  0
   59.2120   27.9010   45.9610 N   0  0  0  0  0  0  0  0  0  0  0  0
   57.8670   27.7010   45.9850 C   0  0  0  0  0  0  0  0  0  0  0  0
   57.0210   28.5270   45.2420 C   0  0  0  0  0  0  0  0  0  0  0  0
   58.9070   30.5738   48.9711 H   0  0  0  0  0  0  0  0  0  0  0  0
   57.9209   30.6242   47.4705 H   0  0  0  0  0  0  0  0  0  0  0  0
   59.5146   29.7956   47.4705 H   0  0  0  0  0  0  0  0  0  0  0  0
   61.6670   31.3860   47.6980 H   0  0  0  0  0  0  0  0  0  0  0  0
   63.0304   34.0053   47.7105 H   0  0  0  0  0  0  0  0  0  0  0  0
   63.1426   33.0858   46.1715 H   0  0  0  0  0  0  0  0  0  0  0  0
   62.4950   34.7613   46.1715 H   0  0  0  0  0  0  0  0  0  0  0  0
   59.8381   36.0494   46.8704 H   0  0  0  0  0  0  0  0  0  0  0  0
   60.7918   35.4999   45.4508 H   0  0  0  0  0  0  0  0  0  0  0  0
   59.0033   35.3321   45.4508 H   0  0  0  0  0  0  0  0  0  0  0  0
   56.9780   32.9251   47.6891 H   0  0  0  0  0  0  0  0  0  0  0  0
   57.3425   34.3801   46.6840 H   0  0  0  0  0  0  0  0  0  0  0  0
   58.6649   32.6024   41.9164 H   0  0  0  0  0  0  0  0  0  0  0  0
   57.9587   31.0284   41.4160 H   0  0  0  0  0  0  0  0  0  0  0  0
   56.9422   32.5094   41.4160 H   0  0  0  0  0  0  0  0  0  0  0  0
   55.7779   30.7061   44.2626 H   0  0  0  0  0  0  0  0  0  0  0  0
   56.3832   29.9507   42.7387 H   0  0  0  0  0  0  0  0  0  0  0  0
   59.4098   30.5505   43.8644 H   0  0  0  0  0  0  0  0  0  0  0  0
   60.8602   29.0360   45.2228 H   0  0  0  0  0  0  0  0  0  0  0  0
   57.4444   26.8863   46.5914 H   0  0  0  0  0  0  0  0  0  0  0  0
   55.9326   28.3695   45.2651 H   0  0  0  0  0  0  0  0  0  0  0  0
  1  2  1  0
  2  3  2  0
  3  4  1  0
  4  5  1  0
  4  6  1  0
  6  7  1  0
  6  8  2  0
  8  9  1  0
  9 10  1  0
 10 11  1  0
 11 12  2  0
 11 13  1  0
 13 14  1  0
 13 15  1  0
 15 16  1  0
 16 17  2  0
 17 18  1  0
 18 19  2  0
 19 20  1  0
 20 21  2  0
  8  2  1  0
 21 16  1  0
  1 22  1  0
  1 23  1  0
  1 24  1  0
  3 25  1  0
  5 26  1  0
  5 27  1  0
  5 28  1  0
  7 29  1  0
  7 30  1  0
  7 31  1  0
  9 32  1  0
  9 33  1  0
 14 34  1  0
 14 35  1  0
 14 36  1  0
 15 37  1  0
 15 38  1  0
 17 39  1  0
 18 40  1  0
 20 41  1  0
 21 42  1  0
M  CHG  2   3   1  10  -1
M  END
>  <UniqueID>  (80) 
77

>  <SMILES>  (80) 
Cc1[nH+]n(C)c(C)c1C[N-]C(=O)N(C)Cc1ccncc1

>  <Energy>  (80) 
62.860105343049135

>  <Genealogy>  (80) 
Cc1[nH+]n(C)c(C)c1C[N-]C(=O)N(C)Cc1ccncc1 (protonated)
Cc1[nH+]n(C)c(C)c1C[N-]C(=O)N(C)Cc1ccncc1 (3D coordinates assigned)
Cc1[nH+]n(C)c(C)c1C[N-]C(=O)N(C)Cc1ccncc1 (optimized conformer: 62.860105343049135 kcal/mol)

>  <smiles>  (80) 
Cc1nn(C)c(C)c1CNC(=O)N(C)Cc1ccncc1

>  <score_type>  (80) 
oracle

>  <origin>  (80) 
adg

>  <m_score__min__energy>  (80) 
-7.4500000000000002

>  <m_primary>  (80) 
energy

$$$$
80:0
     RDKit          3D

 49 51  0  0  0  0  0  0  0  0999 V2000
   58.1850   26.7850   46.2910 C   0  0  0  0  0  0  0  0  0  0  0  0
   57.9070   28.0430   46.9730 N   0  0  0  0  0  0  0  0  0  0  0  0
   58.8170   28.7950   47.5170 C   0  0  0  0  0  0  0  0  0  0  0  0
   58.5910   29.3340   48.7430 N   0  0  0  0  0  0  0  0  0  0  0  0
   59.5080   30.1390   49.3390 C   0  0  0  0  0  0  0  0  0  0  0  0
   60.7170   30.4260   48.6920 C   0  0  0  0  0  0  0  0  0  0  0  0
   61.7440   31.3340   49.3200 C   0  0  0  0  0  0  0  0  0  0  0  0
   61.9200   32.5660   48.5380 N   0  0  0  0  0  0  0  0  0  0  0  0
   61.2460   33.7610   48.9650 C   0  0  0  0  0  0  0  0  0  0  0  0
   61.9210   34.7480   49.3650 O   0  0  0  0  0  0  0  0  0  0  0  0
   59.7490   33.8510   48.9440 C   0  0  0  0  0  0  0  0  0  0  0  0
   59.2220   33.6330   47.5500 C   0  0  0  0  0  0  0  0  0  0  0  0
   59.1880   34.6960   46.6350 C   0  0  0  0  0  0  0  0  0  0  0  0
   58.7370   34.4880   45.3320 C   0  0  0  0  0  0  0  0  0  0  0  0
   58.3200   33.2170   44.9260 C   0  0  0  0  0  0  0  0  0  0  0  0
   58.3430   32.1360   45.8280 C   0  0  0  0  0  0  0  0  0  0  0  0
   57.9550   30.8070   45.4410 N   0  0  0  0  0  0  0  0  0  0  0  0
   56.9510   30.4280   44.0770 S   0  0  0  0  0  0  0  0  0  0  0  0
   57.3160   28.7860   43.4900 C   0  0  0  0  0  0  0  0  0  0  0  0
   55.5110   30.4720   44.5100 O   0  0  0  0  0  0  0  0  0  0  0  0
   57.1570   31.4410   42.9870 O   0  0  0  0  0  0  0  0  0  0  0  0
   58.8000   32.3580   47.1390 C   0  0  0  0  0  0  0  0  0  0  0  0
   62.3960   32.4760   47.1550 C   0  0  0  0  0  0  0  0  0  0  0  0
   62.5300   33.8200   46.4520 C   0  0  0  0  0  0  0  0  0  0  0  0
   63.7700   33.0910   46.9380 C   0  0  0  0  0  0  0  0  0  0  0  0
   60.9400   29.8490   47.4350 C   0  0  0  0  0  0  0  0  0  0  0  0
   59.9910   29.0550   46.8730 N   0  0  0  0  0  0  0  0  0  0  0  0
   58.3596   25.9948   47.0360 H   0  0  0  0  0  0  0  0  0  0  0  0
   57.3256   26.5117   45.6612 H   0  0  0  0  0  0  0  0  0  0  0  0
   59.0796   26.8993   45.6612 H   0  0  0  0  0  0  0  0  0  0  0  0
   59.3012   30.5664   50.3313 H   0  0  0  0  0  0  0  0  0  0  0  0
   61.4145   31.5987   50.3356 H   0  0  0  0  0  0  0  0  0  0  0  0
   62.7060   30.8014   49.3483 H   0  0  0  0  0  0  0  0  0  0  0  0
   59.3317   33.0831   49.6120 H   0  0  0  0  0  0  0  0  0  0  0  0
   59.4503   34.8542   49.2821 H   0  0  0  0  0  0  0  0  0  0  0  0
   59.5185   35.6978   46.9468 H   0  0  0  0  0  0  0  0  0  0  0  0
   58.7093   35.3270   44.6211 H   0  0  0  0  0  0  0  0  0  0  0  0
   57.9714   33.0602   43.8945 H   0  0  0  0  0  0  0  0  0  0  0  0
   58.2680   30.0020   46.0290 H   0  0  0  0  0  0  0  0  0  0  0  0
   57.4653   28.1145   44.3484 H   0  0  0  0  0  0  0  0  0  0  0  0
   56.4773   28.4199   42.8796 H   0  0  0  0  0  0  0  0  0  0  0  0
   58.2308   28.8097   42.8796 H   0  0  0  0  0  0  0  0  0  0  0  0
   58.8274   31.5214   47.8527 H   0  0  0  0  0  0  0  0  0  0  0  0
   61.9205   31.5141   46.9129 H   0  0  0  0  0  0  0  0  0  0  0  0
   62.3259   33.8996   45.3740 H   0  0  0  0  0  0  0  0  0  0  0  0
   62.1075   34.8239   46.6062 H   0  0  0  0  0  0  0  0  0  0  0  0
   64.4642   32.6430   46.2118 H   0  0  0  0  0  0  0  0  0  0  0  0
   64.6176   33.3490   47.5899 H   0  0  0  0  0  0  0  0  0  0  0  0
   61.8837   30.0387   46.9027 H   0  0  0  0  0  0  0  0  0  0  0  0
  1  2  1  0
  2  3  2  3
  3  4  1  0
  4  5  2  0
  5  6  1  0
  6  7  1  0
  7  8  1  0
  8  9  1  0
  9 10  2  0
  9 11  1  0
 11 12  1  0
 12 13  2  0
 13 14  1  0
 14 15  2  0
 15 16  1  0
 16 17  1  0
 17 18  1  0
 18 19  1  0
 18 20  2  0
 18 21  2  0
 16 22  2  0
  8 23  1  0
 23 24  1  0
 24 25  1  0
  6 26  2  0
 26 27  1  0
 27  3  1  0
 22 12  1  0
 25 23  1  0
  1 28  1  0
  1 29  1  0
  1 30  1  0
  5 31  1  0
  7 32  1  0
  7 33  1  0
 11 34  1  0
 11 35  1  0
 13 36  1  0
 14 37  1  0
 15 38  1  0
 17 39  1  0
 19 40  1  0
 19 41  1  0
 19 42  1  0
 22 43  1  0
 23 44  1  0
 24 45  1  0
 24 46  1  0
 25 47  1  0
 25 48  1  0
 26 49  1  0
M  CHG  1  27  -1
M  END
>  <UniqueID>  (81) 
78

>  <SMILES>  (81) 
CN=c1ncc(CN(C(=O)Cc2cccc(NS(C)(=O)=O)c2)C2CC2)c[n-]1

>  <Energy>  (81) 
313.3855632318604

>  <Genealogy>  (81) 
CN=c1ncc(CN(C(=O)Cc2cccc(NS(C)(=O)=O)c2)C2CC2)c[n-]1 (protonated)
CN=c1ncc(CN(C(=O)Cc2cccc(NS(C)(=O)=O)c2)C2CC2)c[n-]1 (3D coordinates assigned)
CN=c1ncc(CN(C(=O)Cc2cccc(NS(C)(=O)=O)c2)C2CC2)c[n-]1 (nonaromatic ring conformer: 313.3855632318604 kcal/mol)

>  <smiles>  (81) 
CN=c1ncc(CN(C(=O)Cc2cccc(NS(C)(=O)=O)c2)C2CC2)c[nH]1

>  <score_type>  (81) 
oracle

>  <origin>  (81) 
adg

>  <m_score__min__energy>  (81) 
-9.6899999999999995

>  <m_primary>  (81) 
energy

$$$$
81:0
     RDKit          3D

 58 62  0  0  0  0  0  0  0  0999 V2000
   60.5950   26.8540   49.8910 O   0  0  0  0  0  0  0  0  0  0  0  0
   60.4790   27.9990   49.3890 C   0  0  0  0  0  0  0  0  0  0  0  0
   60.7340   28.1630   47.9850 N   0  0  0  0  0  0  0  0  0  0  0  0
   59.8330   28.2350   47.0490 C   0  0  0  0  0  0  0  0  0  0  0  0
   60.0250   27.6850   45.8290 N   0  0  0  0  0  0  0  0  0  0  0  0
   58.9450   27.8590   45.0230 C   0  0  0  0  0  0  0  0  0  0  0  0
   57.8890   28.5420   45.6120 C   0  0  0  0  0  0  0  0  0  0  0  0
   56.3350   28.9430   44.8240 S   0  0  0  0  0  0  0  0  0  0  0  0
   57.0040   30.4180   44.0590 C   0  0  0  0  0  0  0  0  0  0  0  0
   56.8930   30.6000   42.6780 C   0  0  0  0  0  0  0  0  0  0  0  0
   57.4170   31.7500   42.0810 C   0  0  0  0  0  0  0  0  0  0  0  0
   58.0480   32.7230   42.8620 C   0  0  0  0  0  0  0  0  0  0  0  0
   58.1530   32.5570   44.2540 C   0  0  0  0  0  0  0  0  0  0  0  0
   58.8310   33.5800   45.0840 C   0  0  0  0  0  0  0  0  0  0  0  0
   58.8650   34.7810   44.6840 O   0  0  0  0  0  0  0  0  0  0  0  0
   59.4190   33.2350   46.3490 N   0  0  0  0  0  0  0  0  0  0  0  0
   59.3830   34.2010   47.4490 C   0  0  0  0  0  0  0  0  0  0  0  0
   59.3780   33.4550   48.7940 C   0  0  0  0  0  0  0  0  0  0  0  0
   60.5000   32.4880   48.8990 N   0  0  0  0  0  0  0  0  0  0  0  0
   61.8020   33.1410   49.0220 C   0  0  0  0  0  0  0  0  0  0  0  0
   61.9130   34.1570   49.7020 O   0  0  0  0  0  0  0  0  0  0  0  0
   63.0640   32.4770   48.4940 C   0  0  0  0  0  0  0  0  0  0  0  0
   63.6830   33.1590   47.2840 C   0  0  0  0  0  0  0  0  0  0  0  0
   64.3670   33.2620   48.6350 C   0  0  0  0  0  0  0  0  0  0  0  0
   60.4210   31.5050   47.7880 C   0  0  0  0  0  0  0  0  0  0  0  0
   60.4350   32.1780   46.4080 C   0  0  0  0  0  0  0  0  0  0  0  0
   57.6320   31.3920   44.8450 C   0  0  0  0  0  0  0  0  0  0  0  0
   58.3030   28.9450   47.1910 S   0  0  0  0  0  0  0  0  0  0  0  0
   60.1720   29.1520   50.2700 C   0  0  0  0  0  0  0  0  0  0  0  0
   61.1870   29.7280   51.0570 C   0  0  0  0  0  0  0  0  0  0  0  0
   60.9010   30.8200   51.8810 C   0  0  0  0  0  0  0  0  0  0  0  0
   59.6120   31.3560   51.9180 C   0  0  0  0  0  0  0  0  0  0  0  0
   58.6000   30.8010   51.1310 C   0  0  0  0  0  0  0  0  0  0  0  0
   57.3520   31.3350   51.1490 F   0  0  0  0  0  0  0  0  0  0  0  0
   58.8810   29.7120   50.3020 C   0  0  0  0  0  0  0  0  0  0  0  0
   58.9100   27.4888   43.9878 H   0  0  0  0  0  0  0  0  0  0  0  0
   56.3935   29.8386   42.0610 H   0  0  0  0  0  0  0  0  0  0  0  0
   57.3327   31.8900   40.9932 H   0  0  0  0  0  0  0  0  0  0  0  0
   58.4642   33.6226   42.3850 H   0  0  0  0  0  0  0  0  0  0  0  0
   60.2691   34.8505   47.3944 H   0  0  0  0  0  0  0  0  0  0  0  0
   58.4718   34.8118   47.3678 H   0  0  0  0  0  0  0  0  0  0  0  0
   59.4654   34.1899   49.6078 H   0  0  0  0  0  0  0  0  0  0  0  0
   58.4362   32.8912   48.8658 H   0  0  0  0  0  0  0  0  0  0  0  0
   60.3610   31.9550   49.7900 H   0  0  0  0  0  0  0  0  0  0  0  0
   62.7500   31.4554   48.7541 H   0  0  0  0  0  0  0  0  0  0  0  0
   64.1353   32.5539   46.4844 H   0  0  0  0  0  0  0  0  0  0  0  0
   63.3286   33.8843   46.5367 H   0  0  0  0  0  0  0  0  0  0  0  0
   65.3130   32.7303   48.8148 H   0  0  0  0  0  0  0  0  0  0  0  0
   64.7118   34.0900   49.2717 H   0  0  0  0  0  0  0  0  0  0  0  0
   61.2818   30.8237   47.8574 H   0  0  0  0  0  0  0  0  0  0  0  0
   59.4688   30.9632   47.8870 H   0  0  0  0  0  0  0  0  0  0  0  0
   61.4273   32.6174   46.2282 H   0  0  0  0  0  0  0  0  0  0  0  0
   60.2131   31.4237   45.6387 H   0  0  0  0  0  0  0  0  0  0  0  0
   57.7184   31.2450   45.9317 H   0  0  0  0  0  0  0  0  0  0  0  0
   62.2071   29.3179   51.0234 H   0  0  0  0  0  0  0  0  0  0  0  0
   61.6947   31.2592   52.5032 H   0  0  0  0  0  0  0  0  0  0  0  0
   59.3933   32.2163   52.5677 H   0  0  0  0  0  0  0  0  0  0  0  0
   58.0869   29.2888   49.6692 H   0  0  0  0  0  0  0  0  0  0  0  0
  1  2  2  0
  2  3  1  0
  3  4  2  3
  4  5  1  0
  5  6  1  0
  6  7  2  0
  7  8  1  0
  8  9  1  0
  9 10  2  0
 10 11  1  0
 11 12  2  0
 12 13  1  0
 13 14  1  0
 14 15  2  0
 14 16  1  0
 16 17  1  0
 17 18  1  0
 18 19  1  0
 19 20  1  0
 20 21  2  0
 20 22  1  0
 22 23  1  0
 23 24  1  0
 19 25  1  0
 25 26  1  0
 13 27  2  0
  7 28  1  0
  2 29  1  0
 29 30  2  0
 30 31  1  0
 31 32  2  0
 32 33  1  0
 33 34  1  0
 33 35  2  0
 28  4  1  0
 35 29  1  0
 27  9  1  0
 26 16  1  0
 24 22  1  0
  6 36  1  0
 10 37  1  0
 11 38  1  0
 12 39  1  0
 17 40  1  0
 17 41  1  0
 18 42  1  0
 18 43  1  0
 19 44  1  0
 22 45  1  0
 23 46  1  0
 23 47  1  0
 24 48  1  0
 24 49  1  0
 25 50  1  0
 25 51  1  0
 26 52  1  0
 26 53  1  0
 27 54  1  0
 30 55  1  0
 31 56  1  0
 32 57  1  0
 35 58  1  0
M  CHG  2   5  -1  19   1
M  END
>  <UniqueID>  (82) 
79

>  <SMILES>  (82) 
O=C(N=c1[n-]cc(Sc2cccc(C(=O)N3CC[NH+](C(=O)C4CC4)CC3)c2)s1)c1cccc(F)c1

>  <Energy>  (82) 
373.23389224968207

>  <Genealogy>  (82) 
O=C(N=c1[n-]cc(Sc2cccc(C(=O)N3CC[NH+](C(=O)C4CC4)CC3)c2)s1)c1cccc(F)c1 (protonated)
O=C(N=c1[n-]cc(Sc2cccc(C(=O)N3CC[NH+](C(=O)C4CC4)CC3)c2)s1)c1cccc(F)c1 (3D coordinates assigned)
O=C(N=c1[n-]cc(Sc2cccc(C(=O)N3CC[NH+](C(=O)C4CC4)CC3)c2)s1)c1cccc(F)c1 (nonaromatic ring conformer: 373.23389224968207 kcal/mol)

>  <smiles>  (82) 
O=C(N=c1[nH]cc(Sc2cccc(C(=O)N3CCN(C(=O)C4CC4)CC3)c2)s1)c1cccc(F)c1

>  <score_type>  (82) 
oracle

>  <origin>  (82) 
adg

>  <m_score__min__energy>  (82) 
-12.460000000000001

>  <m_primary>  (82) 
energy

$$$$
82:0
     RDKit          3D

 63 64  0  0  0  0  0  0  0  0999 V2000
   59.4610   28.4850   48.4180 C   0  0  0  0  0  0  0  0  0  0  0  0
   59.7250   29.9410   48.0320 C   0  0  2  0  0  0  0  0  0  0  0  0
   58.5710   30.7640   48.3980 N   0  0  0  0  0  0  0  0  0  0  0  0
   58.5080   32.1940   48.5570 C   0  0  0  0  0  0  0  0  0  0  0  0
   58.7990   32.6800   49.6830 O   0  0  0  0  0  0  0  0  0  0  0  0
   58.1170   33.1430   47.4490 C   0  0  2  0  0  0  0  0  0  0  0  0
   58.2190   32.4650   46.1560 N   0  0  0  0  0  0  0  0  0  0  0  0
   58.9630   34.4340   47.4920 C   0  0  0  0  0  0  0  0  0  0  0  0
   60.4340   34.1240   47.5920 C   0  0  0  0  0  0  0  0  0  0  0  0
   61.0780   34.1100   48.8410 C   0  0  0  0  0  0  0  0  0  0  0  0
   62.4490   33.8400   48.9250 C   0  0  0  0  0  0  0  0  0  0  0  0
   63.1890   33.5990   47.7630 C   0  0  0  0  0  0  0  0  0  0  0  0
   62.5580   33.6240   46.5150 C   0  0  0  0  0  0  0  0  0  0  0  0
   61.1870   33.8920   46.4270 C   0  0  0  0  0  0  0  0  0  0  0  0
   59.9600   30.0430   46.5440 C   0  0  0  0  0  0  0  0  0  0  0  0
   60.4400   31.1100   46.0710 O   0  0  0  0  0  0  0  0  0  0  0  0
   59.6430   28.9750   45.6450 N   0  0  0  0  0  0  0  0  0  0  0  0
   58.6660   29.0590   44.5620 C   0  0  0  0  0  0  0  0  0  0  0  0
   57.2820   29.0230   45.1160 C   0  0  0  0  0  0  0  0  0  0  0  0
   56.7450   30.0900   45.5220 O   0  0  0  0  0  0  0  0  0  0  0  0
   56.5960   27.7730   45.2380 N   0  0  0  0  0  0  0  0  0  0  0  0
   57.0580   26.6800   46.0920 C   0  0  2  0  0  0  0  0  0  0  0  0
   58.2090   25.9250   45.3970 C   0  0  0  0  0  0  0  0  0  0  0  0
   57.7370   24.6270   44.8060 C   0  0  0  0  0  0  0  0  0  0  0  0
   56.9790   24.6090   43.6240 C   0  0  0  0  0  0  0  0  0  0  0  0
   56.4820   23.4020   43.1240 C   0  0  0  0  0  0  0  0  0  0  0  0
   56.7520   22.2010   43.7880 C   0  0  0  0  0  0  0  0  0  0  0  0
   56.2750   20.9860   43.2980 O   0  0  0  0  0  0  0  0  0  0  0  0
   57.5120   22.2160   44.9590 C   0  0  0  0  0  0  0  0  0  0  0  0
   57.9890   23.4230   45.4760 C   0  0  0  0  0  0  0  0  0  0  0  0
   55.9000   25.7490   46.3630 C   0  0  0  0  0  0  0  0  0  0  0  0
   56.0390   24.8330   47.2190 O   0  0  0  0  0  0  0  0  0  0  0  0
   54.6350   25.8810   45.7050 N   0  0  0  0  0  0  0  0  0  0  0  0
   53.6250   24.8370   45.5870 C   0  0  0  0  0  0  0  0  0  0  0  0
   54.2750   23.4910   45.6710 C   0  0  0  0  0  0  0  0  0  0  0  0
   53.6640   22.4980   45.3220 O   0  0  0  0  0  0  0  0  0  0  0  0
   59.4444   28.3935   49.5141 H   0  0  0  0  0  0  0  0  0  0  0  0
   58.4906   28.1673   48.0088 H   0  0  0  0  0  0  0  0  0  0  0  0
   60.2581   27.8469   48.0088 H   0  0  0  0  0  0  0  0  0  0  0  0
   60.6172   30.2981   48.5672 H   0  0  0  0  0  0  0  0  0  0  0  0
   57.0703   33.4481   47.5947 H   0  0  0  0  0  0  0  0  0  0  0  0
   58.2970   31.4200   46.3060 H   0  0  0  0  0  0  0  0  0  0  0  0
   59.1190   32.7640   45.6910 H   0  0  0  0  0  0  0  0  0  0  0  0
   58.7806   35.0122   46.5741 H   0  0  0  0  0  0  0  0  0  0  0  0
   58.6695   35.0109   48.3814 H   0  0  0  0  0  0  0  0  0  0  0  0
   60.5024   34.3120   49.7564 H   0  0  0  0  0  0  0  0  0  0  0  0
   62.9451   33.8174   49.9065 H   0  0  0  0  0  0  0  0  0  0  0  0
   64.2668   33.3899   47.8305 H   0  0  0  0  0  0  0  0  0  0  0  0
   63.1400   33.4328   45.6014 H   0  0  0  0  0  0  0  0  0  0  0  0
   60.6966   33.9213   45.4428 H   0  0  0  0  0  0  0  0  0  0  0  0
   58.8131   29.9999   44.0115 H   0  0  0  0  0  0  0  0  0  0  0  0
   58.8049   28.2034   43.8848 H   0  0  0  0  0  0  0  0  0  0  0  0
   57.4330   27.0796   47.0458 H   0  0  0  0  0  0  0  0  0  0  0  0
   58.6172   26.5562   44.5939 H   0  0  0  0  0  0  0  0  0  0  0  0
   58.9800   25.7021   46.1493 H   0  0  0  0  0  0  0  0  0  0  0  0
   56.7755   25.5486   43.0894 H   0  0  0  0  0  0  0  0  0  0  0  0
   55.8767   23.3967   42.2055 H   0  0  0  0  0  0  0  0  0  0  0  0
   56.8090   20.1310   43.3810 H   0  0  0  0  0  0  0  0  0  0  0  0
   57.7365   21.2722   45.4775 H   0  0  0  0  0  0  0  0  0  0  0  0
   58.5649   23.4279   46.4132 H   0  0  0  0  0  0  0  0  0  0  0  0
   52.8947   24.9415   46.4029 H   0  0  0  0  0  0  0  0  0  0  0  0
   53.1140   24.9338   44.6177 H   0  0  0  0  0  0  0  0  0  0  0  0
   55.3043   23.3996   46.0480 H   0  0  0  0  0  0  0  0  0  0  0  0
  1  2  1  0
  2  3  1  0
  3  4  1  0
  4  5  2  0
  4  6  1  0
  6  7  1  0
  6  8  1  0
  8  9  1  0
  9 10  2  0
 10 11  1  0
 11 12  2  0
 12 13  1  0
 13 14  2  0
  2 15  1  0
 15 16  2  0
 15 17  1  0
 17 18  1  0
 18 19  1  0
 19 20  2  0
 19 21  1  0
 21 22  1  0
 22 23  1  0
 23 24  1  0
 24 25  2  0
 25 26  1  0
 26 27  2  0
 27 28  1  0
 27 29  1  0
 29 30  2  0
 22 31  1  0
 31 32  2  0
 31 33  1  0
 33 34  1  0
 34 35  1  0
 35 36  2  0
 14  9  1  0
 30 24  1  0
  1 37  1  0
  1 38  1  0
  1 39  1  0
  2 40  1  1
  6 41  1  1
  7 42  1  0
  7 43  1  0
  8 44  1  0
  8 45  1  0
 10 46  1  0
 11 47  1  0
 12 48  1  0
 13 49  1  0
 14 50  1  0
 18 51  1  0
 18 52  1  0
 22 53  1  1
 23 54  1  0
 23 55  1  0
 25 56  1  0
 26 57  1  0
 28 58  1  0
 29 59  1  0
 30 60  1  0
 34 61  1  0
 34 62  1  0
 35 63  1  0
M  CHG  4   3  -1  17  -1  21  -1  33  -1
M  END
>  <UniqueID>  (83) 
80

>  <SMILES>  (83) 
C[C@H]([N-]C(=O)[C@H](N)Cc1ccccc1)C(=O)[N-]CC(=O)[N-]C(Cc1ccc(O)cc1)C(=O)[N-]CC=O

>  <Energy>  (83) 
48.858846190741914

>  <Genealogy>  (83) 
CC([N-]C(=O)C(N)Cc1ccccc1)C(=O)[N-]CC(=O)[N-]C(Cc1ccc(O)cc1)C(=O)[N-]CC=O (protonated)
C[C@H]([N-]C(=O)[C@H](N)Cc1ccccc1)C(=O)[N-]CC(=O)[N-]C(Cc1ccc(O)cc1)C(=O)[N-]CC=O (chirality)
C[C@H]([N-]C(=O)[C@H](N)Cc1ccccc1)C(=O)[N-]CC(=O)[N-]C(Cc1ccc(O)cc1)C(=O)[N-]CC=O (3D coordinates assigned)
C[C@H]([N-]C(=O)[C@H](N)Cc1ccccc1)C(=O)[N-]CC(=O)[N-]C(Cc1ccc(O)cc1)C(=O)[N-]CC=O (optimized conformer: 48.858846190741914 kcal/mol)

>  <smiles>  (83) 
CC(NC(=O)C(N)Cc1ccccc1)C(=O)NCC(=O)NC(Cc1ccc(O)cc1)C(=O)NCC=O

>  <score_type>  (83) 
oracle

>  <origin>  (83) 
adg

>  <m_score__min__energy>  (83) 
-15.960000000000001

>  <m_primary>  (83) 
energy

$$$$
83:0
     RDKit          3D

 69 73  0  0  1  0  0  0  0  0999 V2000
   58.1800   34.4820   52.4120 C   0  0  0  0  0  0  0  0  0  0  0  0
   58.8610   33.5060   51.5220 C   0  0  0  0  0  0  0  0  0  0  0  0
   59.8640   33.9600   50.6950 C   0  0  0  0  0  0  0  0  0  0  0  0
   60.5210   33.0870   49.8530 C   0  0  0  0  0  0  0  0  0  0  0  0
   61.6170   33.5490   48.9410 C   0  0  0  0  0  0  0  0  0  0  0  0
   60.1430   31.7740   49.8730 C   0  0  0  0  0  0  0  0  0  0  0  0
   60.7640   30.7930   49.0380 N   0  0  0  0  0  0  0  0  0  0  0  0
   60.2070   30.6110   47.7420 C   0  0  0  0  0  0  0  0  0  0  0  0
   59.2030   31.3320   47.4290 O   0  0  0  0  0  0  0  0  0  0  0  0
   60.7710   29.6100   46.7720 C   0  0  0  0  0  0  0  0  0  0  0  0
   59.8520   28.4790   46.7570 N   0  0  0  0  0  0  0  0  0  0  0  0
   60.0540   27.2390   47.2630 C   0  0  0  0  0  0  0  0  0  0  0  0
   58.9320   26.5070   47.0280 N   0  0  0  0  0  0  0  0  0  0  0  0
   58.0540   27.2890   46.3860 C   0  0  0  0  0  0  0  0  0  0  0  0
   56.7610   27.1150   45.8890 C   0  0  0  0  0  0  0  0  0  0  0  0
   56.1900   25.9690   46.0300 N   0  0  0  0  0  0  0  0  0  0  0  0
   56.9840   24.8010   46.3970 C   0  0  0  0  0  0  0  0  0  0  0  0
   56.9080   23.7900   45.2960 C   0  0  0  0  0  0  0  0  0  0  0  0
   56.2840   24.0900   44.1020 C   0  0  0  0  0  0  0  0  0  0  0  0
   56.1900   23.1850   43.0560 C   0  0  0  0  0  0  0  0  0  0  0  0
   56.7540   21.9420   43.2450 C   0  0  0  0  0  0  0  0  0  0  0  0
   56.6790   21.0350   42.2420 F   0  0  0  0  0  0  0  0  0  0  0  0
   57.3850   21.6100   44.4250 C   0  0  0  0  0  0  0  0  0  0  0  0
   57.4610   22.5240   45.4380 C   0  0  0  0  0  0  0  0  0  0  0  0
   56.1020   28.1110   45.2690 N   0  0  0  0  0  0  0  0  0  0  0  0
   56.7100   29.3070   45.1260 C   0  0  0  0  0  0  0  0  0  0  0  0
   56.1210   30.2820   44.5440 N   0  0  0  0  0  0  0  0  0  0  0  0
   56.6680   31.1910   43.6000 C   0  0  0  0  0  0  0  0  0  0  0  0
   57.3900   32.2510   44.3560 C   0  0  0  0  0  0  0  0  0  0  0  0
   57.0680   32.5900   45.6590 C   0  0  0  0  0  0  0  0  0  0  0  0
   57.7350   33.5750   46.3640 C   0  0  0  0  0  0  0  0  0  0  0  0
   58.7710   34.2710   45.7820 C   0  0  0  0  0  0  0  0  0  0  0  0
   59.6410   35.5180   46.6260 Cl  0  0  0  0  0  0  0  0  0  0  0  0
   59.1170   33.9560   44.4850 C   0  0  0  0  0  0  0  0  0  0  0  0
   58.4430   32.9730   43.7940 C   0  0  0  0  0  0  0  0  0  0  0  0
   57.9540   29.5220   45.5890 N   0  0  0  0  0  0  0  0  0  0  0  0
   58.6270   28.5480   46.2080 C   0  0  0  0  0  0  0  0  0  0  0  0
   59.1300   31.3040   50.7050 C   0  0  0  0  0  0  0  0  0  0  0  0
   58.7380   29.8620   50.7050 C   0  0  0  0  0  0  0  0  0  0  0  0
   58.4810   32.1760   51.5390 C   0  0  0  0  0  0  0  0  0  0  0  0
   58.3674   34.2134   53.4621 H   0  0  0  0  0  0  0  0  0  0  0  0
   58.5708   35.4914   52.2163 H   0  0  0  0  0  0  0  0  0  0  0  0
   57.0977   34.4636   52.2163 H   0  0  0  0  0  0  0  0  0  0  0  0
   60.1427   35.0241   50.7059 H   0  0  0  0  0  0  0  0  0  0  0  0
   62.4666   33.9071   49.5409 H   0  0  0  0  0  0  0  0  0  0  0  0
   61.9432   32.7118   48.3064 H   0  0  0  0  0  0  0  0  0  0  0  0
   61.2455   34.3671   48.3064 H   0  0  0  0  0  0  0  0  0  0  0  0
   61.5870   30.2260   49.3420 H   0  0  0  0  0  0  0  0  0  0  0  0
   60.8428   30.0537   45.7680 H   0  0  0  0  0  0  0  0  0  0  0  0
   61.7817   29.2951   47.0707 H   0  0  0  0  0  0  0  0  0  0  0  0
   60.9629   26.8869   47.7728 H   0  0  0  0  0  0  0  0  0  0  0  0
   58.0312   25.1010   46.5497 H   0  0  0  0  0  0  0  0  0  0  0  0
   56.5922   24.3648   47.3277 H   0  0  0  0  0  0  0  0  0  0  0  0
   55.8426   25.0895   43.9750 H   0  0  0  0  0  0  0  0  0  0  0  0
   55.6861   23.4482   42.1143 H   0  0  0  0  0  0  0  0  0  0  0  0
   57.8268   20.6105   44.5509 H   0  0  0  0  0  0  0  0  0  0  0  0
   57.9662   22.2538   46.3770 H   0  0  0  0  0  0  0  0  0  0  0  0
   55.1440   28.0270   44.8850 H   0  0  0  0  0  0  0  0  0  0  0  0
   57.3672   30.6638   42.9343 H   0  0  0  0  0  0  0  0  0  0  0  0
   55.8704   31.6329   42.9847 H   0  0  0  0  0  0  0  0  0  0  0  0
   56.2462   32.0527   46.1549 H   0  0  0  0  0  0  0  0  0  0  0  0
   57.4358   33.8043   47.3974 H   0  0  0  0  0  0  0  0  0  0  0  0
   59.9412   34.4961   43.9961 H   0  0  0  0  0  0  0  0  0  0  0  0
   58.7465   32.7491   42.7607 H   0  0  0  0  0  0  0  0  0  0  0  0
   58.4130   30.4360   45.4780 H   0  0  0  0  0  0  0  0  0  0  0  0
   58.6418   29.5082   51.7421 H   0  0  0  0  0  0  0  0  0  0  0  0
   57.7751   29.7438   50.1865 H   0  0  0  0  0  0  0  0  0  0  0  0
   59.5085   29.2726   50.1865 H   0  0  0  0  0  0  0  0  0  0  0  0
   57.6781   31.8273   52.2052 H   0  0  0  0  0  0  0  0  0  0  0  0
  1  2  1  0
  2  3  2  0
  3  4  1  0
  4  5  1  0
  4  6  2  0
  6  7  1  0
  7  8  1  0
  8  9  2  0
  8 10  1  0
 10 11  1  0
 11 12  1  0
 12 13  2  0
 13 14  1  0
 14 15  1  0
 15 16  2  0
 16 17  1  0
 17 18  1  0
 18 19  2  0
 19 20  1  0
 20 21  2  0
 21 22  1  0
 21 23  1  0
 23 24  2  0
 15 25  1  0
 25 26  1  0
 26 27  2  0
 27 28  1  0
 28 29  1  0
 29 30  2  0
 30 31  1  0
 31 32  2  0
 32 33  1  0
 32 34  1  0
 34 35  2  0
 26 36  1  0
 36 37  1  0
  6 38  1  0
 38 39  1  0
 38 40  2  0
 40  2  1  0
 37 11  1  0
 37 14  2  0
 24 18  1  0
 35 29  1  0
  1 41  1  0
  1 42  1  0
  1 43  1  0
  3 44  1  0
  5 45  1  0
  5 46  1  0
  5 47  1  0
  7 48  1  0
 10 49  1  0
 10 50  1  0
 12 51  1  0
 17 52  1  0
 17 53  1  0
 19 54  1  0
 20 55  1  0
 23 56  1  0
 24 57  1  0
 25 58  1  0
 28 59  1  0
 28 60  1  0
 30 61  1  0
 31 62  1  0
 34 63  1  0
 35 64  1  0
 36 65  1  0
 39 66  1  0
 39 67  1  0
 39 68  1  0
 40 69  1  0
M  END
>  <smiles>  (84) 
Cc1cc(C)c(NC(=O)Cn2cnc3c(=NCc4ccc(F)cc4)[nH]c(=NCc4ccc(Cl)cc4)[nH]c32)c(C)c1

>  <score_type>  (84) 
oracle

>  <origin>  (84) 
adg

>  <m_score__min__energy>  (84) 
-10.529999999999999

>  <m_primary>  (84) 
energy

$$$$
84:0
     RDKit          3D

 44 46  0  0  0  0  0  0  0  0999 V2000
   55.3970   24.6110   45.7160 C   0  0  0  0  0  0  0  0  0  0  0  0
   55.8980   25.4610   46.7430 O   0  0  0  0  0  0  0  0  0  0  0  0
   56.9550   26.3670   46.5780 C   0  0  0  0  0  0  0  0  0  0  0  0
   58.1400   26.2940   47.3350 C   0  0  0  0  0  0  0  0  0  0  0  0
   59.1620   27.2230   47.1280 C   0  0  0  0  0  0  0  0  0  0  0  0
   59.0190   28.2260   46.1660 C   0  0  0  0  0  0  0  0  0  0  0  0
   57.8480   28.3050   45.3960 C   0  0  0  0  0  0  0  0  0  0  0  0
   57.6910   29.3940   44.3630 C   0  0  0  0  0  0  0  0  0  0  0  0
   56.3890   30.1400   44.5200 C   0  0  0  0  0  0  0  0  0  0  0  0
   55.3090   29.4960   44.6000 O   0  0  0  0  0  0  0  0  0  0  0  0
   56.3760   31.5470   44.8010 N   0  0  0  0  0  0  0  0  0  0  0  0
   57.3650   32.2760   45.2350 C   0  0  0  0  0  0  0  0  0  0  0  0
   58.1270   31.9210   46.3640 C   0  0  0  0  0  0  0  0  0  0  0  0
   59.1760   32.7490   46.7910 C   0  0  0  0  0  0  0  0  0  0  0  0
   59.9760   32.3970   47.9880 C   0  0  0  0  0  0  0  0  0  0  0  0
   61.1980   32.1150   47.8510 O   0  0  0  0  0  0  0  0  0  0  0  0
   59.3770   32.3610   49.3420 C   0  0  0  0  0  0  0  0  0  0  0  0
   59.5480   33.4370   50.2320 C   0  0  0  0  0  0  0  0  0  0  0  0
   58.9770   33.3970   51.5060 C   0  0  0  0  0  0  0  0  0  0  0  0
   58.2300   32.2860   51.9060 C   0  0  0  0  0  0  0  0  0  0  0  0
   58.0630   31.2030   51.0330 C   0  0  0  0  0  0  0  0  0  0  0  0
   57.3180   30.0900   51.4200 O   0  0  0  0  0  0  0  0  0  0  0  0
   58.6430   31.2380   49.7600 C   0  0  0  0  0  0  0  0  0  0  0  0
   59.4830   33.8970   46.0470 C   0  0  0  0  0  0  0  0  0  0  0  0
   58.7240   34.2060   44.9180 C   0  0  0  0  0  0  0  0  0  0  0  0
   57.6970   33.4000   44.5420 N   0  0  0  0  0  0  0  0  0  0  0  0
   56.8170   27.3780   45.6210 C   0  0  0  0  0  0  0  0  0  0  0  0
   54.8883   23.7479   46.1701 H   0  0  0  0  0  0  0  0  0  0  0  0
   54.6841   25.1704   45.0923 H   0  0  0  0  0  0  0  0  0  0  0  0
   56.2316   24.2582   45.0923 H   0  0  0  0  0  0  0  0  0  0  0  0
   58.2610   25.5039   48.0907 H   0  0  0  0  0  0  0  0  0  0  0  0
   60.0839   27.1647   47.7252 H   0  0  0  0  0  0  0  0  0  0  0  0
   59.8269   28.9564   46.0114 H   0  0  0  0  0  0  0  0  0  0  0  0
   58.5229   30.1059   44.4685 H   0  0  0  0  0  0  0  0  0  0  0  0
   57.6940   28.9221   43.3694 H   0  0  0  0  0  0  0  0  0  0  0  0
   57.9000   30.9943   46.9115 H   0  0  0  0  0  0  0  0  0  0  0  0
   60.1346   34.3147   49.9228 H   0  0  0  0  0  0  0  0  0  0  0  0
   59.1157   34.2422   52.1962 H   0  0  0  0  0  0  0  0  0  0  0  0
   57.7730   32.2617   52.9063 H   0  0  0  0  0  0  0  0  0  0  0  0
   57.4080   29.6890   52.3460 H   0  0  0  0  0  0  0  0  0  0  0  0
   58.5235   30.3803   49.0817 H   0  0  0  0  0  0  0  0  0  0  0  0
   60.3154   34.5486   46.3510 H   0  0  0  0  0  0  0  0  0  0  0  0
   58.9580   35.1057   44.3300 H   0  0  0  0  0  0  0  0  0  0  0  0
   55.8878   27.4480   45.0364 H   0  0  0  0  0  0  0  0  0  0  0  0
  1  2  1  0
  2  3  1  0
  3  4  2  0
  4  5  1  0
  5  6  2  0
  6  7  1  0
  7  8  1  0
  8  9  1  0
  9 10  2  0
  9 11  1  0
 11 12  2  3
 12 13  1  0
 13 14  2  0
 14 15  1  0
 15 16  2  0
 15 17  1  0
 17 18  2  0
 18 19  1  0
 19 20  2  0
 20 21  1  0
 21 22  1  0
 21 23  2  0
 14 24  1  0
 24 25  2  0
 25 26  1  0
  7 27  2  0
 27  3  1  0
 26 12  1  0
 23 17  1  0
  1 28  1  0
  1 29  1  0
  1 30  1  0
  4 31  1  0
  5 32  1  0
  6 33  1  0
  8 34  1  0
  8 35  1  0
 13 36  1  0
 18 37  1  0
 19 38  1  0
 20 39  1  0
 22 40  1  0
 23 41  1  0
 24 42  1  0
 25 43  1  0
 27 44  1  0
M  CHG  1  26  -1
M  END
>  <UniqueID>  (85) 
81

>  <SMILES>  (85) 
COc1cccc(CC(=O)N=c2cc(C(=O)c3cccc(O)c3)cc[n-]2)c1

>  <Energy>  (85) 
58.133575626927154

>  <Genealogy>  (85) 
COc1cccc(CC(=O)N=c2cc(C(=O)c3cccc(O)c3)cc[n-]2)c1 (protonated)
COc1cccc(CC(=O)N=c2cc(C(=O)c3cccc(O)c3)cc[n-]2)c1 (3D coordinates assigned)
COc1cccc(CC(=O)N=c2cc(C(=O)c3cccc(O)c3)cc[n-]2)c1 (optimized conformer: 58.133575626927154 kcal/mol)

>  <smiles>  (85) 
COc1cccc(CC(=O)N=c2cc(C(=O)c3cccc(O)c3)cc[nH]2)c1

>  <score_type>  (85) 
oracle

>  <origin>  (85) 
adg

>  <m_score__min__energy>  (85) 
-10.68

>  <m_primary>  (85) 
energy

$$$$
85:0
     RDKit          3D

 62 65  0  0  0  0  0  0  0  0999 V2000
   50.6350   31.5680   48.5400 C   0  0  0  0  0  0  0  0  0  0  0  0
   51.2050   32.3360   49.5950 O   0  0  0  0  0  0  0  0  0  0  0  0
   51.7390   31.7920   50.7750 C   0  0  0  0  0  0  0  0  0  0  0  0
   52.8050   30.8710   50.7610 C   0  0  0  0  0  0  0  0  0  0  0  0
   53.3110   30.3510   51.9640 C   0  0  0  0  0  0  0  0  0  0  0  0
   54.4690   29.3890   51.9590 C   0  0  0  0  0  0  0  0  0  0  0  0
   55.7400   30.1300   52.0700 N   0  0  0  0  0  0  0  0  0  0  0  0
   56.5410   29.6670   53.2210 C   0  0  0  0  0  0  0  0  0  0  0  0
   57.9560   30.2940   53.2020 C   0  0  0  0  0  0  0  0  0  0  0  0
   58.0690   31.5510   52.2760 C   0  0  0  0  0  0  0  0  0  0  0  0
   59.2980   32.4070   52.7130 C   0  0  0  0  0  0  0  0  0  0  0  0
   60.2050   32.8190   51.5720 C   0  0  0  0  0  0  0  0  0  0  0  0
   59.8070   33.8270   50.6760 C   0  0  0  0  0  0  0  0  0  0  0  0
   60.6370   34.1980   49.6140 C   0  0  0  0  0  0  0  0  0  0  0  0
   61.8750   33.5740   49.4430 C   0  0  0  0  0  0  0  0  0  0  0  0
   62.6800   33.9350   48.4120 F   0  0  0  0  0  0  0  0  0  0  0  0
   62.2890   32.5860   50.3390 C   0  0  0  0  0  0  0  0  0  0  0  0
   61.4620   32.2120   51.4030 C   0  0  0  0  0  0  0  0  0  0  0  0
   58.2130   31.1280   50.7980 C   0  0  0  0  0  0  0  0  0  0  0  0
   57.7450   31.8770   49.8960 O   0  0  0  0  0  0  0  0  0  0  0  0
   58.7740   29.8650   50.3850 N   0  0  0  0  0  0  0  0  0  0  0  0
   59.9390   29.2550   51.0390 C   0  0  0  0  0  0  0  0  0  0  0  0
   60.5440   28.1910   50.1180 C   0  0  0  0  0  0  0  0  0  0  0  0
   60.6330   28.7160   48.6760 C   0  0  0  0  0  0  0  0  0  0  0  0
   59.3630   29.4970   48.2660 C   0  0  0  0  0  0  0  0  0  0  0  0
   58.3320   29.3210   49.2140 O   0  0  0  0  0  0  0  0  0  0  0  0
   56.7740   32.3740   52.5150 C   0  0  0  0  0  0  0  0  0  0  0  0
   55.4950   31.5860   52.1520 C   0  0  0  0  0  0  0  0  0  0  0  0
   52.7520   30.7620   53.1840 C   0  0  0  0  0  0  0  0  0  0  0  0
   51.6950   31.6740   53.2000 C   0  0  0  0  0  0  0  0  0  0  0  0
   51.1890   32.1870   52.0020 C   0  0  0  0  0  0  0  0  0  0  0  0
   50.1380   33.0950   52.0350 O   0  0  0  0  0  0  0  0  0  0  0  0
   50.0303   30.7533   48.9649 H   0  0  0  0  0  0  0  0  0  0  0  0
   49.9960   32.2140   47.9201 H   0  0  0  0  0  0  0  0  0  0  0  0
   51.4384   31.1435   47.9201 H   0  0  0  0  0  0  0  0  0  0  0  0
   53.2438   30.5572   49.8024 H   0  0  0  0  0  0  0  0  0  0  0  0
   54.3736   28.6994   52.8107 H   0  0  0  0  0  0  0  0  0  0  0  0
   54.4629   28.8209   51.0171 H   0  0  0  0  0  0  0  0  0  0  0  0
   56.0323   29.9560   54.1525 H   0  0  0  0  0  0  0  0  0  0  0  0
   56.6421   28.5734   53.1596 H   0  0  0  0  0  0  0  0  0  0  0  0
   58.2186   30.5923   54.2277 H   0  0  0  0  0  0  0  0  0  0  0  0
   58.6418   29.5334   52.8005 H   0  0  0  0  0  0  0  0  0  0  0  0
   58.9265   33.3182   53.2046 H   0  0  0  0  0  0  0  0  0  0  0  0
   59.9002   31.7763   53.3835 H   0  0  0  0  0  0  0  0  0  0  0  0
   58.8365   34.3267   50.8116 H   0  0  0  0  0  0  0  0  0  0  0  0
   60.3150   34.9818   48.9126 H   0  0  0  0  0  0  0  0  0  0  0  0
   63.2675   32.1010   50.2076 H   0  0  0  0  0  0  0  0  0  0  0  0
   61.7965   31.4394   52.1110 H   0  0  0  0  0  0  0  0  0  0  0  0
   60.6909   30.0307   51.2462 H   0  0  0  0  0  0  0  0  0  0  0  0
   59.6251   28.7863   51.9833 H   0  0  0  0  0  0  0  0  0  0  0  0
   61.5532   27.9358   50.4734 H   0  0  0  0  0  0  0  0  0  0  0  0
   59.9003   27.2991   50.1332 H   0  0  0  0  0  0  0  0  0  0  0  0
   61.5030   29.3841   48.5941 H   0  0  0  0  0  0  0  0  0  0  0  0
   60.7321   27.8506   48.0042 H   0  0  0  0  0  0  0  0  0  0  0  0
   59.6066   30.5673   48.1942 H   0  0  0  0  0  0  0  0  0  0  0  0
   59.0150   29.1146   47.2951 H   0  0  0  0  0  0  0  0  0  0  0  0
   56.7256   32.6545   53.5775 H   0  0  0  0  0  0  0  0  0  0  0  0
   56.8165   33.2595   51.8638 H   0  0  0  0  0  0  0  0  0  0  0  0
   54.7325   31.7740   52.9223 H   0  0  0  0  0  0  0  0  0  0  0  0
   55.1574   31.9278   51.1624 H   0  0  0  0  0  0  0  0  0  0  0  0
   53.1478   30.3645   54.1302 H   0  0  0  0  0  0  0  0  0  0  0  0
   51.2586   31.9901   54.1590 H   0  0  0  0  0  0  0  0  0  0  0  0
  1  2  1  0
  2  3  1  0
  3  4  2  0
  4  5  1  0
  5  6  1  0
  6  7  1  0
  7  8  1  0
  8  9  1  0
  9 10  1  0
 10 11  1  0
 11 12  1  0
 12 13  2  0
 13 14  1  0
 14 15  2  0
 15 16  1  0
 15 17  1  0
 17 18  2  0
 10 19  1  0
 19 20  2  0
 19 21  1  0
 21 22  1  0
 22 23  1  0
 23 24  1  0
 24 25  1  0
 25 26  1  0
 10 27  1  0
 27 28  1  0
  5 29  2  0
 29 30  1  0
 30 31  2  0
 31 32  1  0
 31  3  1  0
 28  7  1  0
 18 12  1  0
 26 21  1  0
  1 33  1  0
  1 34  1  0
  1 35  1  0
  4 36  1  0
  6 37  1  0
  6 38  1  0
  8 39  1  0
  8 40  1  0
  9 41  1  0
  9 42  1  0
 11 43  1  0
 11 44  1  0
 13 45  1  0
 14 46  1  0
 17 47  1  0
 18 48  1  0
 22 49  1  0
 22 50  1  0
 23 51  1  0
 23 52  1  0
 24 53  1  0
 24 54  1  0
 25 55  1  0
 25 56  1  0
 27 57  1  0
 27 58  1  0
 28 59  1  0
 28 60  1  0
 29 61  1  0
 30 62  1  0
M  CHG  1  32  -1
M  END
>  <UniqueID>  (86) 
82

>  <SMILES>  (86) 
COc1cc(CN2CCC(Cc3ccc(F)cc3)(C(=O)N3CCCCO3)CC2)ccc1[O-]

>  <Energy>  (86) 
80.55753627808313

>  <Genealogy>  (86) 
COc1cc(CN2CCC(Cc3ccc(F)cc3)(C(=O)N3CCCCO3)CC2)ccc1[O-] (protonated)
COc1cc(CN2CCC(Cc3ccc(F)cc3)(C(=O)N3CCCCO3)CC2)ccc1[O-] (3D coordinates assigned)
COc1cc(CN2CCC(Cc3ccc(F)cc3)(C(=O)N3CCCCO3)CC2)ccc1[O-] (nonaromatic ring conformer: 80.55753627808313 kcal/mol)

>  <smiles>  (86) 
COc1cc(CN2CCC(Cc3ccc(F)cc3)(C(=O)N3CCCCO3)CC2)ccc1O

>  <score_type>  (86) 
oracle

>  <origin>  (86) 
adg

>  <m_score__min__energy>  (86) 
-12.99

>  <m_primary>  (86) 
energy

$$$$
86:0
     RDKit          3D

 63 66  0  0  0  0  0  0  0  0999 V2000
   62.9610   34.5490   50.5050 C   0  0  0  0  0  0  0  0  0  0  0  0
   62.1450   33.7010   49.6230 N   0  0  0  0  0  0  0  0  0  0  0  0
   60.7770   34.2460   49.5220 C   0  0  0  0  0  0  0  0  0  0  0  0
   59.9070   33.4520   48.5250 C   0  0  0  0  0  0  0  0  0  0  0  0
   60.6500   32.3610   47.8790 N   0  0  0  0  0  0  0  0  0  0  0  0
   59.9090   31.2610   47.3330 C   0  0  0  0  0  0  0  0  0  0  0  0
   59.5860   31.2780   45.9690 C   0  0  0  0  0  0  0  0  0  0  0  0
   58.8840   30.2210   45.3930 C   0  0  0  0  0  0  0  0  0  0  0  0
   58.5060   29.1140   46.1670 C   0  0  0  0  0  0  0  0  0  0  0  0
   57.7440   27.9950   45.5640 C   0  0  0  0  0  0  0  0  0  0  0  0
   57.6100   27.9400   44.3100 O   0  0  0  0  0  0  0  0  0  0  0  0
   57.1410   26.9840   46.3870 N   0  0  0  0  0  0  0  0  0  0  0  0
   56.7310   25.7050   45.8750 C   0  0  0  0  0  0  0  0  0  0  0  0
   57.7090   24.7610   45.5220 C   0  0  0  0  0  0  0  0  0  0  0  0
   57.3360   23.5180   44.9990 C   0  0  0  0  0  0  0  0  0  0  0  0
   58.6760   22.2300   44.5520 Br  0  0  0  0  0  0  0  0  0  0  0  0
   55.9830   23.2160   44.8050 C   0  0  0  0  0  0  0  0  0  0  0  0
   55.0040   24.1570   45.1300 C   0  0  0  0  0  0  0  0  0  0  0  0
   55.3700   25.4030   45.6560 C   0  0  0  0  0  0  0  0  0  0  0  0
   54.3800   26.3390   45.9310 O   0  0  0  0  0  0  0  0  0  0  0  0
   58.8380   29.0900   47.5320 C   0  0  0  0  0  0  0  0  0  0  0  0
   59.5120   30.1640   48.1390 C   0  0  0  0  0  0  0  0  0  0  0  0
   59.9110   30.1130   49.8770 S   0  0  0  0  0  0  0  0  0  0  0  0
   60.4210   28.7370   50.2130 O   0  0  0  0  0  0  0  0  0  0  0  0
   61.0050   31.1080   50.1560 O   0  0  0  0  0  0  0  0  0  0  0  0
   58.5920   30.5160   50.9540 N   0  0  0  0  0  0  0  0  0  0  0  0
   58.1340   31.9100   50.7930 C   0  0  0  0  0  0  0  0  0  0  0  0
   57.4150   32.4340   52.0540 C   0  0  0  0  0  0  0  0  0  0  0  0
   56.6990   31.3590   52.7730 N   0  0  0  0  0  0  0  0  0  0  0  0
   55.5250   30.8890   52.0160 C   0  0  0  0  0  0  0  0  0  0  0  0
   57.5870   30.2360   53.1770 C   0  0  0  0  0  0  0  0  0  0  0  0
   58.8790   30.1500   52.3460 C   0  0  0  0  0  0  0  0  0  0  0  0
   62.0460   32.5360   47.4620 C   0  0  0  0  0  0  0  0  0  0  0  0
   62.7440   33.6260   48.2810 C   0  0  0  0  0  0  0  0  0  0  0  0
   62.7332   34.3122   51.5548 H   0  0  0  0  0  0  0  0  0  0  0  0
   64.0273   34.3618   50.3100 H   0  0  0  0  0  0  0  0  0  0  0  0
   62.7329   35.6073   50.3100 H   0  0  0  0  0  0  0  0  0  0  0  0
   60.3051   34.2055   50.5148 H   0  0  0  0  0  0  0  0  0  0  0  0
   60.8512   35.2809   49.1567 H   0  0  0  0  0  0  0  0  0  0  0  0
   59.0504   33.0240   49.0664 H   0  0  0  0  0  0  0  0  0  0  0  0
   59.5795   34.1471   47.7378 H   0  0  0  0  0  0  0  0  0  0  0  0
   59.8895   32.1335   45.3477 H   0  0  0  0  0  0  0  0  0  0  0  0
   58.6246   30.2550   44.3246 H   0  0  0  0  0  0  0  0  0  0  0  0
   56.8400   27.2430   47.3520 H   0  0  0  0  0  0  0  0  0  0  0  0
   58.7741   25.0001   45.6574 H   0  0  0  0  0  0  0  0  0  0  0  0
   55.6910   22.2373   44.3965 H   0  0  0  0  0  0  0  0  0  0  0  0
   53.9416   23.9193   44.9725 H   0  0  0  0  0  0  0  0  0  0  0  0
   58.5651   28.2133   48.1378 H   0  0  0  0  0  0  0  0  0  0  0  0
   59.0063   32.5489   50.5908 H   0  0  0  0  0  0  0  0  0  0  0  0
   57.4176   31.9370   49.9587 H   0  0  0  0  0  0  0  0  0  0  0  0
   58.1616   32.8765   52.7299 H   0  0  0  0  0  0  0  0  0  0  0  0
   56.6729   33.1808   51.7351 H   0  0  0  0  0  0  0  0  0  0  0  0
   54.7384   30.5741   52.7175 H   0  0  0  0  0  0  0  0  0  0  0  0
   55.1464   31.7049   51.3827 H   0  0  0  0  0  0  0  0  0  0  0  0
   55.8140   30.0373   51.3827 H   0  0  0  0  0  0  0  0  0  0  0  0
   57.8604   30.3704   54.2340 H   0  0  0  0  0  0  0  0  0  0  0  0
   57.0290   29.3033   53.0076 H   0  0  0  0  0  0  0  0  0  0  0  0
   59.6276   30.8416   52.7599 H   0  0  0  0  0  0  0  0  0  0  0  0
   59.2694   29.1222   52.3813 H   0  0  0  0  0  0  0  0  0  0  0  0
   62.5824   31.5858   47.6010 H   0  0  0  0  0  0  0  0  0  0  0  0
   62.0549   32.8396   46.4048 H   0  0  0  0  0  0  0  0  0  0  0  0
   63.8138   33.3863   48.3714 H   0  0  0  0  0  0  0  0  0  0  0  0
   62.6230   34.5948   47.7744 H   0  0  0  0  0  0  0  0  0  0  0  0
  1  2  1  0
  2  3  1  0
  3  4  1  0
  4  5  1  0
  5  6  1  0
  6  7  2  0
  7  8  1  0
  8  9  2  0
  9 10  1  0
 10 11  2  0
 10 12  1  0
 12 13  1  0
 13 14  2  0
 14 15  1  0
 15 16  1  0
 15 17  2  0
 17 18  1  0
 18 19  2  0
 19 20  1  0
  9 21  1  0
 21 22  2  0
 22 23  1  0
 23 24  2  0
 23 25  2  0
 23 26  1  0
 26 27  1  0
 27 28  1  0
 28 29  1  0
 29 30  1  0
 29 31  1  0
 31 32  1  0
  5 33  1  0
 33 34  1  0
 34  2  1  0
 22  6  1  0
 32 26  1  0
 19 13  1  0
  1 35  1  0
  1 36  1  0
  1 37  1  0
  3 38  1  0
  3 39  1  0
  4 40  1  0
  4 41  1  0
  7 42  1  0
  8 43  1  0
 12 44  1  0
 14 45  1  0
 17 46  1  0
 18 47  1  0
 21 48  1  0
 27 49  1  0
 27 50  1  0
 28 51  1  0
 28 52  1  0
 30 53  1  0
 30 54  1  0
 30 55  1  0
 31 56  1  0
 31 57  1  0
 32 58  1  0
 32 59  1  0
 33 60  1  0
 33 61  1  0
 34 62  1  0
 34 63  1  0
M  CHG  1  20  -1
M  END
>  <UniqueID>  (87) 
83

>  <SMILES>  (87) 
CN1CCN(c2ccc(C(=O)Nc3cc(Br)ccc3[O-])cc2S(=O)(=O)N2CCN(C)CC2)CC1

>  <Energy>  (87) 
95.68284110543446

>  <Genealogy>  (87) 
CN1CCN(c2ccc(C(=O)Nc3cc(Br)ccc3[O-])cc2S(=O)(=O)N2CCN(C)CC2)CC1 (protonated)
CN1CCN(c2ccc(C(=O)Nc3cc(Br)ccc3[O-])cc2S(=O)(=O)N2CCN(C)CC2)CC1 (3D coordinates assigned)
CN1CCN(c2ccc(C(=O)Nc3cc(Br)ccc3[O-])cc2S(=O)(=O)N2CCN(C)CC2)CC1 (nonaromatic ring conformer: 95.68284110543446 kcal/mol)

>  <smiles>  (87) 
CN1CCN(c2ccc(C(=O)Nc3cc(Br)ccc3O)cc2S(=O)(=O)N2CCN(C)CC2)CC1

>  <score_type>  (87) 
oracle

>  <origin>  (87) 
adg

>  <m_score__min__energy>  (87) 
-12.869999999999999

>  <m_primary>  (87) 
energy

$$$$
87:0
     RDKit          3D

 35 38  0  0  0  0  0  0  0  0999 V2000
   57.5570   31.2570   47.0420 H   0  0  0  0  0  0  0  0  0  0  0  0
   57.8180   32.1990   47.3090 O   0  0  0  0  0  0  0  0  0  0  0  0
   58.3070   33.1140   46.3780 C   0  0  0  0  0  0  0  0  0  0  0  0
   58.9320   34.2880   46.8250 C   0  0  0  0  0  0  0  0  0  0  0  0
   59.0671   34.4587   47.9033 H   0  0  0  0  0  0  0  0  0  0  0  0
   59.3840   35.2420   45.9090 C   0  0  0  0  0  0  0  0  0  0  0  0
   59.9970   36.4040   46.3620 O   0  0  0  0  0  0  0  0  0  0  0  0
   59.2160   35.0290   44.5410 C   0  0  0  0  0  0  0  0  0  0  0  0
   59.5668   35.7828   43.8207 H   0  0  0  0  0  0  0  0  0  0  0  0
   58.6030   33.8600   44.0840 C   0  0  0  0  0  0  0  0  0  0  0  0
   58.4693   33.7020   43.0037 H   0  0  0  0  0  0  0  0  0  0  0  0
   58.1550   32.8830   44.9910 C   0  0  0  0  0  0  0  0  0  0  0  0
   57.5130   31.6560   44.4660 C   0  0  0  0  0  0  0  0  0  0  0  0
   57.1670   30.6280   45.2910 N   0  0  0  0  0  0  0  0  0  0  0  0
   56.5620   29.6260   44.6230 C   0  0  0  0  0  0  0  0  0  0  0  0
   56.1520   28.5450   45.2170 N   0  0  0  0  0  0  0  0  0  0  0  0
   57.0120   27.6020   45.9300 C   0  0  0  0  0  0  0  0  0  0  0  0
   57.2093   27.9860   46.9417 H   0  0  0  0  0  0  0  0  0  0  0  0
   57.9553   27.4918   45.3750 H   0  0  0  0  0  0  0  0  0  0  0  0
   56.3510   26.2610   46.0320 C   0  0  0  0  0  0  0  0  0  0  0  0
   56.9630   25.1000   46.5080 C   0  0  0  0  0  0  0  0  0  0  0  0
   57.9904   24.9868   46.8844 H   0  0  0  0  0  0  0  0  0  0  0  0
   55.9930   24.1280   46.4010 C   0  0  0  0  0  0  0  0  0  0  0  0
   55.9820   22.7720   46.6980 C   0  0  0  0  0  0  0  0  0  0  0  0
   56.9970   22.1960   47.1700 O   0  0  0  0  0  0  0  0  0  0  0  0
   54.8330   22.0730   46.4610 N   0  0  0  0  0  0  0  0  0  0  0  0
   53.7200   22.6860   45.9450 C   0  0  0  0  0  0  0  0  0  0  0  0
   52.6750   22.0140   45.7370 O   0  0  0  0  0  0  0  0  0  0  0  0
   53.7370   24.0220   45.6530 N   0  0  0  0  0  0  0  0  0  0  0  0
   54.8760   24.7180   45.8880 C   0  0  0  0  0  0  0  0  0  0  0  0
   55.0710   26.0240   45.6550 N   0  0  0  0  0  0  0  0  0  0  0  0
   54.3860   26.7080   45.2620 H   0  0  0  0  0  0  0  0  0  0  0  0
   56.4160   29.9670   42.9800 S   0  0  0  0  0  0  0  0  0  0  0  0
   57.1620   31.4690   43.1250 C   0  0  0  0  0  0  0  0  0  0  0  0
   57.3424   32.1809   42.3061 H   0  0  0  0  0  0  0  0  0  0  0  0
  1  2  1  0
  2  3  1  0
  3  4  2  0
  4  5  1  0
  4  6  1  0
  6  7  1  0
  6  8  2  0
  8  9  1  0
  8 10  1  0
 10 11  1  0
 10 12  2  0
 12 13  1  0
 13 14  1  0
 14 15  1  0
 15 16  2  0
 16 17  1  0
 17 18  1  0
 17 19  1  0
 17 20  1  0
 20 21  2  0
 21 22  1  0
 21 23  1  0
 23 24  1  0
 24 25  2  0
 24 26  1  0
 26 27  1  0
 27 28  2  0
 27 29  1  0
 29 30  1  0
 30 31  1  0
 31 32  1  0
 15 33  1  0
 33 34  1  0
 34 35  1  0
 12  3  1  0
 34 13  2  0
 31 20  1  0
 30 23  2  0
M  CHG  4   7  -1  14  -1  26  -1  29  -1
M  END
>  <UniqueID>  (88) 
84

>  <SMILES>  (88) 
O=c1[n-]c(=O)c2cc(C/N=c3/[n-]c(-c4ccc([O-])cc4O)cs3)[nH]c2[n-]1

>  <Energy>  (88) 
109.34974959895075

>  <Genealogy>  (88) 
O=c1[n-]c(=O)c2cc(CN=c3[n-]c(-c4ccc([O-])cc4O)cs3)[nH]c2[n-]1 (protonated)
O=c1[n-]c(=O)c2cc(C/N=c3/[n-]c(-c4ccc([O-])cc4O)cs3)[nH]c2[n-]1 (cis-trans isomerization)
O=c1[n-]c(=O)c2cc(C/N=c3/[n-]c(-c4ccc([O-])cc4O)cs3)[nH]c2[n-]1 (3D coordinates assigned)
O=c1[n-]c(=O)c2cc(C/N=c3/[n-]c(-c4ccc([O-])cc4O)cs3)[nH]c2[n-]1 (optimized conformer: 109.34974959895075 kcal/mol)

>  <smiles>  (88) 
O=c1[nH]c(=O)c2cc(CN=c3[nH]c(-c4ccc(O)cc4O)cs3)[nH]c2[nH]1

>  <score_type>  (88) 
oracle

>  <origin>  (88) 
adg

>  <m_score__min__energy>  (88) 
-14.289999999999999

>  <m_primary>  (88) 
energy

$$$$
88:0
     RDKit          3D

 46 48  0  0  1  0  0  0  0  0999 V2000
   56.6280   29.4880   42.6250 C   0  0  0  0  0  0  0  0  0  0  0  0
   56.4500   29.8500   44.3620 S   0  0  0  0  0  0  0  0  0  0  0  0
   57.6000   29.2720   45.1030 O   0  0  0  0  0  0  0  0  0  0  0  0
   55.1640   29.3410   44.9000 O   0  0  0  0  0  0  0  0  0  0  0  0
   56.4490   31.5700   44.5250 N   0  0  0  0  0  0  0  0  0  0  0  0
   57.6790   32.1620   44.0320 C   0  0  0  0  0  0  0  0  0  0  0  0
   58.0240   33.3160   44.9290 C   0  0  0  0  0  0  0  0  0  0  0  0
   58.6240   32.8980   46.2170 C   0  0  0  0  0  0  0  0  0  0  0  0
   58.3410   31.6640   46.6640 N   0  0  0  0  0  0  0  0  0  0  0  0
   58.8520   31.2340   47.8240 C   0  0  0  0  0  0  0  0  0  0  0  0
   58.6060   30.0450   48.2980 N   0  0  0  0  0  0  0  0  0  0  0  0
   59.6400   29.0240   48.1290 C   0  0  0  0  0  0  0  0  0  0  0  0
   59.1760   27.8470   47.2540 C   0  0  0  0  0  0  0  0  0  0  0  0
   60.2260   28.7940   46.7960 C   0  0  0  0  0  0  0  0  0  0  0  0
   59.6490   32.0670   48.5170 N   0  0  0  0  0  0  0  0  0  0  0  0
   59.9580   33.3130   48.1020 C   0  0  0  0  0  0  0  0  0  0  0  0
   60.7140   34.0290   48.8110 N   0  0  0  0  0  0  0  0  0  0  0  0
   62.0660   33.7810   49.0640 C   0  0  0  0  0  0  0  0  0  0  0  0
   62.6250   34.0590   50.3190 C   0  0  0  0  0  0  0  0  0  0  0  0
   63.9730   33.7620   50.5510 C   0  0  0  0  0  0  0  0  0  0  0  0
   64.6980   33.1990   49.5170 C   0  0  0  0  0  0  0  0  0  0  0  0
   64.1470   32.9230   48.2770 C   0  0  0  0  0  0  0  0  0  0  0  0
   62.8210   33.2140   48.0440 C   0  0  0  0  0  0  0  0  0  0  0  0
   59.4490   33.7770   46.9250 C   0  0  0  0  0  0  0  0  0  0  0  0
   59.6730   35.0470   46.3540 C   0  0  0  0  0  0  0  0  0  0  0  0
   59.8660   36.1040   45.9010 N   0  0  0  0  0  0  0  0  0  0  0  0
   57.1104   28.5070   42.5024 H   0  0  0  0  0  0  0  0  0  0  0  0
   55.6357   29.4705   42.1505 H   0  0  0  0  0  0  0  0  0  0  0  0
   57.2477   30.2631   42.1505 H   0  0  0  0  0  0  0  0  0  0  0  0
   56.2550   31.8640   45.5110 H   0  0  0  0  0  0  0  0  0  0  0  0
   58.4878   31.4167   44.0530 H   0  0  0  0  0  0  0  0  0  0  0  0
   57.5515   32.5058   42.9949 H   0  0  0  0  0  0  0  0  0  0  0  0
   58.7410   33.9642   44.4039 H   0  0  0  0  0  0  0  0  0  0  0  0
   57.0851   33.8397   45.1618 H   0  0  0  0  0  0  0  0  0  0  0  0
   57.7350   31.0280   46.1370 H   0  0  0  0  0  0  0  0  0  0  0  0
   60.0864   29.1871   49.1210 H   0  0  0  0  0  0  0  0  0  0  0  0
   59.4409   26.8148   47.5269 H   0  0  0  0  0  0  0  0  0  0  0  0
   58.2127   27.4891   46.8616 H   0  0  0  0  0  0  0  0  0  0  0  0
   61.2677   28.4505   46.7131 H   0  0  0  0  0  0  0  0  0  0  0  0
   60.3497   29.4195   45.8996 H   0  0  0  0  0  0  0  0  0  0  0  0
   60.0340   31.7190   49.4070 H   0  0  0  0  0  0  0  0  0  0  0  0
   62.0102   34.5063   51.1139 H   0  0  0  0  0  0  0  0  0  0  0  0
   64.4406   33.9698   51.5247 H   0  0  0  0  0  0  0  0  0  0  0  0
   65.7582   32.9600   49.6868 H   0  0  0  0  0  0  0  0  0  0  0  0
   64.7636   32.4747   47.4840 H   0  0  0  0  0  0  0  0  0  0  0  0
   62.3663   33.0008   47.0653 H   0  0  0  0  0  0  0  0  0  0  0  0
  1  2  1  0
  2  3  2  0
  2  4  2  0
  2  5  1  0
  5  6  1  0
  6  7  1  0
  7  8  1  0
  8  9  1  0
  9 10  1  0
 10 11  2  0
 11 12  1  0
 12 13  1  0
 13 14  1  0
 10 15  1  0
 15 16  1  0
 16 17  2  0
 17 18  1  0
 18 19  2  0
 19 20  1  0
 20 21  2  0
 21 22  1  0
 22 23  2  0
 16 24  1  0
 24 25  1  0
 25 26  3  0
 24  8  2  0
 14 12  1  0
 23 18  1  0
  1 27  1  0
  1 28  1  0
  1 29  1  0
  5 30  1  0
  6 31  1  0
  6 32  1  0
  7 33  1  0
  7 34  1  0
  9 35  1  0
 12 36  1  0
 13 37  1  0
 13 38  1  0
 14 39  1  0
 14 40  1  0
 15 41  1  0
 19 42  1  0
 20 43  1  0
 21 44  1  0
 22 45  1  0
 23 46  1  0
M  END
>  <smiles>  (89) 
CS(=O)(=O)NCCc1[nH]c(=NC2CC2)[nH]c(=Nc2ccccc2)c1C#N

>  <score_type>  (89) 
oracle

>  <origin>  (89) 
adg

>  <m_score__min__energy>  (89) 
-7.9299999999999997

>  <m_primary>  (89) 
energy

$$$$
89:0
     RDKit          3D

 59 61  0  0  0  0  0  0  0  0999 V2000
   60.0110   33.8390   49.5080 C   0  0  0  0  0  0  0  0  0  0  0  0
   58.9160   33.4590   48.6750 O   0  0  0  0  0  0  0  0  0  0  0  0
   58.8640   33.6740   47.2900 C   0  0  0  0  0  0  0  0  0  0  0  0
   59.3170   34.8640   46.6920 C   0  0  0  0  0  0  0  0  0  0  0  0
   59.2580   35.0180   45.3040 C   0  0  0  0  0  0  0  0  0  0  0  0
   58.7300   34.0050   44.5050 C   0  0  0  0  0  0  0  0  0  0  0  0
   58.2380   32.8260   45.0910 C   0  0  0  0  0  0  0  0  0  0  0  0
   57.6900   31.7230   44.2240 C   0  0  0  0  0  0  0  0  0  0  0  0
   56.6180   30.9960   44.8970 N   0  0  0  0  0  0  0  0  0  0  0  0
   56.3230   29.6140   44.6730 C   0  0  0  0  0  0  0  0  0  0  0  0
   55.1570   29.1740   44.8560 O   0  0  0  0  0  0  0  0  0  0  0  0
   57.4010   28.6900   44.1890 C   0  0  0  0  0  0  0  0  0  0  0  0
   57.9840   27.9180   45.3100 N   0  0  0  0  0  0  0  0  0  0  0  0
   59.1710   28.3100   45.9010 C   0  0  0  0  0  0  0  0  0  0  0  0
   59.9690   29.4960   45.4100 C   0  0  0  0  0  0  0  0  0  0  0  0
   59.7350   27.5350   46.9220 C   0  0  0  0  0  0  0  0  0  0  0  0
   59.1050   26.3720   47.3390 C   0  0  0  0  0  0  0  0  0  0  0  0
   57.8970   25.9820   46.7650 C   0  0  0  0  0  0  0  0  0  0  0  0
   57.1790   24.4400   47.2760 S   0  0  0  0  0  0  0  0  0  0  0  0
   57.4100   24.2850   48.7530 O   0  0  0  0  0  0  0  0  0  0  0  0
   57.8250   23.2770   46.5790 O   0  0  0  0  0  0  0  0  0  0  0  0
   55.4600   24.4330   46.9800 N   0  0  0  0  0  0  0  0  0  0  0  0
   55.0710   23.4840   45.9270 C   0  0  0  0  0  0  0  0  0  0  0  0
   53.5620   23.3750   45.7380 C   0  0  0  0  0  0  0  0  0  0  0  0
   52.9560   24.0690   44.6700 C   0  0  0  0  0  0  0  0  0  0  0  0
   51.5770   24.0000   44.4630 C   0  0  0  0  0  0  0  0  0  0  0  0
   50.7770   23.2590   45.3340 C   0  0  0  0  0  0  0  0  0  0  0  0
   51.3490   22.5930   46.4170 C   0  0  0  0  0  0  0  0  0  0  0  0
   52.7360   22.6490   46.6450 C   0  0  0  0  0  0  0  0  0  0  0  0
   53.2950   21.9670   47.8710 C   0  0  0  0  0  0  0  0  0  0  0  0
   57.3310   26.7870   45.7560 C   0  0  0  0  0  0  0  0  0  0  0  0
   56.2220   26.4550   45.2500 O   0  0  0  0  0  0  0  0  0  0  0  0
   58.3410   32.6590   46.4820 C   0  0  0  0  0  0  0  0  0  0  0  0
   59.7205   33.7382   50.5641 H   0  0  0  0  0  0  0  0  0  0  0  0
   60.8727   33.1873   49.3009 H   0  0  0  0  0  0  0  0  0  0  0  0
   60.2837   34.8843   49.3009 H   0  0  0  0  0  0  0  0  0  0  0  0
   59.7184   35.6747   47.3178 H   0  0  0  0  0  0  0  0  0  0  0  0
   59.6301   35.9432   44.8398 H   0  0  0  0  0  0  0  0  0  0  0  0
   58.6983   34.1288   43.4124 H   0  0  0  0  0  0  0  0  0  0  0  0
   57.2964   32.1608   43.2948 H   0  0  0  0  0  0  0  0  0  0  0  0
   58.5047   31.0158   44.0093 H   0  0  0  0  0  0  0  0  0  0  0  0
   56.9725   27.9909   43.4558 H   0  0  0  0  0  0  0  0  0  0  0  0
   58.1974   29.2930   43.7284 H   0  0  0  0  0  0  0  0  0  0  0  0
   60.3507   30.0632   46.2717 H   0  0  0  0  0  0  0  0  0  0  0  0
   60.8137   29.1426   44.8005 H   0  0  0  0  0  0  0  0  0  0  0  0
   59.3234   30.1453   44.8005 H   0  0  0  0  0  0  0  0  0  0  0  0
   60.6780   27.8488   47.3934 H   0  0  0  0  0  0  0  0  0  0  0  0
   59.5613   25.7545   48.1267 H   0  0  0  0  0  0  0  0  0  0  0  0
   55.1420   25.4000   46.7380 H   0  0  0  0  0  0  0  0  0  0  0  0
   55.5185   23.8137   44.9777 H   0  0  0  0  0  0  0  0  0  0  0  0
   55.4325   22.4916   46.2343 H   0  0  0  0  0  0  0  0  0  0  0  0
   53.5776   24.6721   43.9918 H   0  0  0  0  0  0  0  0  0  0  0  0
   51.1211   24.5296   43.6135 H   0  0  0  0  0  0  0  0  0  0  0  0
   49.6916   23.2002   45.1655 H   0  0  0  0  0  0  0  0  0  0  0  0
   50.7084   22.0171   47.1011 H   0  0  0  0  0  0  0  0  0  0  0  0
   52.8970   22.4526   48.7742 H   0  0  0  0  0  0  0  0  0  0  0  0
   53.0029   20.9065   47.8659 H   0  0  0  0  0  0  0  0  0  0  0  0
   54.3922   22.0452   47.8659 H   0  0  0  0  0  0  0  0  0  0  0  0
   58.0059   31.7176   46.9419 H   0  0  0  0  0  0  0  0  0  0  0  0
  1  2  1  0
  2  3  1  0
  3  4  2  0
  4  5  1  0
  5  6  2  0
  6  7  1  0
  7  8  1  0
  8  9  1  0
  9 10  1  0
 10 11  2  0
 10 12  1  0
 12 13  1  0
 13 14  1  0
 14 15  1  0
 14 16  2  0
 16 17  1  0
 17 18  2  0
 18 19  1  0
 19 20  2  0
 19 21  2  0
 19 22  1  0
 22 23  1  0
 23 24  1  0
 24 25  2  0
 25 26  1  0
 26 27  2  0
 27 28  1  0
 28 29  2  0
 29 30  1  0
 18 31  1  0
 31 32  2  0
  7 33  2  0
 33  3  1  0
 31 13  1  0
 29 24  1  0
  1 34  1  0
  1 35  1  0
  1 36  1  0
  4 37  1  0
  5 38  1  0
  6 39  1  0
  8 40  1  0
  8 41  1  0
 12 42  1  0
 12 43  1  0
 15 44  1  0
 15 45  1  0
 15 46  1  0
 16 47  1  0
 17 48  1  0
 22 49  1  0
 23 50  1  0
 23 51  1  0
 25 52  1  0
 26 53  1  0
 27 54  1  0
 28 55  1  0
 30 56  1  0
 30 57  1  0
 30 58  1  0
 33 59  1  0
M  CHG  1   9  -1
M  END
>  <UniqueID>  (90) 
85

>  <SMILES>  (90) 
COc1cccc(C[N-]C(=O)Cn2c(C)ccc(S(=O)(=O)NCc3ccccc3C)c2=O)c1

>  <Energy>  (90) 
60.453186531709434

>  <Genealogy>  (90) 
COc1cccc(C[N-]C(=O)Cn2c(C)ccc(S(=O)(=O)NCc3ccccc3C)c2=O)c1 (protonated)
COc1cccc(C[N-]C(=O)Cn2c(C)ccc(S(=O)(=O)NCc3ccccc3C)c2=O)c1 (3D coordinates assigned)
COc1cccc(C[N-]C(=O)Cn2c(C)ccc(S(=O)(=O)NCc3ccccc3C)c2=O)c1 (optimized conformer: 60.453186531709434 kcal/mol)

>  <smiles>  (90) 
COc1cccc(CNC(=O)Cn2c(C)ccc(S(=O)(=O)NCc3ccccc3C)c2=O)c1

>  <score_type>  (90) 
oracle

>  <origin>  (90) 
adg

>  <m_score__min__energy>  (90) 
-12.52

>  <m_primary>  (90) 
energy

$$$$
90:0
     RDKit          3D

 32 34  0  0  0  0  0  0  0  0999 V2000
   61.0840   28.7670   50.1550 O   0  0  0  0  0  0  0  0  0  0  0  0
   60.7540   28.2750   49.0430 C   0  0  0  0  0  0  0  0  0  0  0  0
   60.7760   26.8160   48.8090 C   0  0  0  0  0  0  0  0  0  0  0  0
   60.2770   26.5450   47.0780 S   0  0  0  0  0  0  0  0  0  0  0  0
   60.1760   28.3360   46.7000 C   0  0  1  0  0  0  0  0  0  0  0  0
   58.8310   28.6530   46.0930 C   0  0  0  0  0  0  0  0  0  0  0  0
   58.6160   29.8740   45.4310 C   0  0  0  0  0  0  0  0  0  0  0  0
   57.3740   30.1600   44.8580 C   0  0  0  0  0  0  0  0  0  0  0  0
   57.1790   31.3710   44.2040 O   0  0  0  0  0  0  0  0  0  0  0  0
   56.3290   29.2310   44.9420 C   0  0  0  0  0  0  0  0  0  0  0  0
   55.0960   29.5340   44.3630 O   0  0  0  0  0  0  0  0  0  0  0  0
   56.5360   28.0100   45.6050 C   0  0  0  0  0  0  0  0  0  0  0  0
   55.5110   27.0760   45.6970 O   0  0  0  0  0  0  0  0  0  0  0  0
   57.7800   27.7250   46.1770 C   0  0  0  0  0  0  0  0  0  0  0  0
   60.3830   29.0890   47.9340 N   0  0  0  0  0  0  0  0  0  0  0  0
   60.2610   30.5250   48.0080 C   0  0  0  0  0  0  0  0  0  0  0  0
   61.2490   31.3540   47.4480 C   0  0  0  0  0  0  0  0  0  0  0  0
   61.1460   32.7440   47.5490 C   0  0  0  0  0  0  0  0  0  0  0  0
   60.0610   33.3220   48.2140 C   0  0  0  0  0  0  0  0  0  0  0  0
   59.9600   34.7030   48.3130 O   0  0  0  0  0  0  0  0  0  0  0  0
   59.0780   32.5060   48.7820 C   0  0  0  0  0  0  0  0  0  0  0  0
   59.1780   31.1150   48.6840 C   0  0  0  0  0  0  0  0  0  0  0  0
   61.7894   26.4221   48.9758 H   0  0  0  0  0  0  0  0  0  0  0  0
   60.0940   26.2979   49.4993 H   0  0  0  0  0  0  0  0  0  0  0  0
   60.9529   28.6172   45.9738 H   0  0  0  0  0  0  0  0  0  0  0  0
   59.4311   30.6096   45.3635 H   0  0  0  0  0  0  0  0  0  0  0  0
   54.2790   28.9510   44.5000 H   0  0  0  0  0  0  0  0  0  0  0  0
   57.9364   26.7679   46.6961 H   0  0  0  0  0  0  0  0  0  0  0  0
   62.1081   30.9058   46.9273 H   0  0  0  0  0  0  0  0  0  0  0  0
   61.9211   33.3851   47.1038 H   0  0  0  0  0  0  0  0  0  0  0  0
   58.2243   32.9593   49.3070 H   0  0  0  0  0  0  0  0  0  0  0  0
   58.4048   30.4780   49.1384 H   0  0  0  0  0  0  0  0  0  0  0  0
  1  2  2  0
  2  3  1  0
  3  4  1  0
  4  5  1  0
  5  6  1  0
  6  7  2  0
  7  8  1  0
  8  9  1  0
  8 10  2  0
 10 11  1  0
 10 12  1  0
 12 13  1  0
 12 14  2  0
  5 15  1  0
 15 16  1  0
 16 17  2  0
 17 18  1  0
 18 19  2  0
 19 20  1  0
 19 21  1  0
 21 22  2  0
 15  2  1  0
 22 16  1  0
 14  6  1  0
  3 23  1  0
  3 24  1  0
  5 25  1  6
  7 26  1  0
 11 27  1  0
 14 28  1  0
 17 29  1  0
 18 30  1  0
 21 31  1  0
 22 32  1  0
M  CHG  3   9  -1  13  -1  20  -1
M  END
>  <UniqueID>  (91) 
86

>  <SMILES>  (91) 
O=C1CS[C@@H](c2cc([O-])c(O)c([O-])c2)N1c1ccc([O-])cc1

>  <Energy>  (91) 
37.113277704556474

>  <Genealogy>  (91) 
O=C1CSC(c2cc([O-])c(O)c([O-])c2)N1c1ccc([O-])cc1 (protonated)
O=C1CS[C@@H](c2cc([O-])c(O)c([O-])c2)N1c1ccc([O-])cc1 (chirality)
O=C1CS[C@@H](c2cc([O-])c(O)c([O-])c2)N1c1ccc([O-])cc1 (3D coordinates assigned)
O=C1CS[C@@H](c2cc([O-])c(O)c([O-])c2)N1c1ccc([O-])cc1 (nonaromatic ring conformer: 37.113277704556474 kcal/mol)

>  <smiles>  (91) 
O=C1CSC(c2cc(O)c(O)c(O)c2)N1c1ccc(O)cc1

>  <score_type>  (91) 
oracle

>  <origin>  (91) 
adg

>  <m_score__min__energy>  (91) 
-13.44

>  <m_primary>  (91) 
energy

$$$$
91:0
     RDKit          3D

 45 46  0  0  0  0  0  0  0  0999 V2000
   59.1902   26.8360   48.1603 H   0  0  0  0  0  0  0  0  0  0  0  0
   58.8170   26.7810   47.1270 C   0  0  0  0  0  0  0  0  0  0  0  0
   59.7980   26.9360   46.0370 C   0  0  0  0  0  0  0  0  0  0  0  0
   60.8110   26.1870   46.0310 O   0  0  0  0  0  0  0  0  0  0  0  0
   59.7220   28.0990   45.0790 C   0  0  0  0  0  0  0  0  0  0  0  0
   59.6282   29.0293   45.6585 H   0  0  0  0  0  0  0  0  0  0  0  0
   60.6390   28.0954   44.4714 H   0  0  0  0  0  0  0  0  0  0  0  0
   58.5460   27.9910   44.1410 C   0  0  0  0  0  0  0  0  0  0  0  0
   58.7110   27.5030   43.0310 O   0  0  0  0  0  0  0  0  0  0  0  0
   57.1940   28.5470   44.5090 C   0  0  0  0  0  0  0  0  0  0  0  0
   56.5215   27.7147   44.7639 H   0  0  0  0  0  0  0  0  0  0  0  0
   57.3186   29.2234   45.3674 H   0  0  0  0  0  0  0  0  0  0  0  0
   56.5850   29.3440   43.3490 C   0  0  0  0  0  0  0  0  0  0  0  0
   57.1953   29.1901   42.4468 H   0  0  0  0  0  0  0  0  0  0  0  0
   55.5566   28.9912   43.1821 H   0  0  0  0  0  0  0  0  0  0  0  0
   56.5420   30.8430   43.6770 C   0  0  0  0  0  0  0  0  0  0  0  0
   55.8272   31.3326   42.9992 H   0  0  0  0  0  0  0  0  0  0  0  0
   56.2367   30.9476   44.7286 H   0  0  0  0  0  0  0  0  0  0  0  0
   57.9140   31.5170   43.5180 C   0  0  0  0  0  0  0  0  0  0  0  0
   58.6868   30.7373   43.4483 H   0  0  0  0  0  0  0  0  0  0  0  0
   57.8867   32.1326   42.6068 H   0  0  0  0  0  0  0  0  0  0  0  0
   58.2380   32.4220   44.6830 C   0  0  0  0  0  0  0  0  0  0  0  0
   58.6400   33.7460   44.4380 C   0  0  0  0  0  0  0  0  0  0  0  0
   58.6914   34.1191   43.4045 H   0  0  0  0  0  0  0  0  0  0  0  0
   58.9750   34.5920   45.4990 C   0  0  0  0  0  0  0  0  0  0  0  0
   59.2847   35.6283   45.2986 H   0  0  0  0  0  0  0  0  0  0  0  0
   58.9170   34.1230   46.8140 C   0  0  0  0  0  0  0  0  0  0  0  0
   59.2560   34.9630   47.8660 O   0  0  0  0  0  0  0  0  0  0  0  0
   58.5230   32.8070   47.0690 C   0  0  0  0  0  0  0  0  0  0  0  0
   58.4805   32.4392   48.1048 H   0  0  0  0  0  0  0  0  0  0  0  0
   58.1820   31.9540   46.0120 C   0  0  0  0  0  0  0  0  0  0  0  0
   57.7950   30.6490   46.2920 O   0  0  0  0  0  0  0  0  0  0  0  0
   57.5040   26.5780   46.9510 C   0  0  0  0  0  0  0  0  0  0  0  0
   56.8079   27.2850   47.4260 H   0  0  0  0  0  0  0  0  0  0  0  0
   56.9280   25.4700   46.1630 C   0  0  0  0  0  0  0  0  0  0  0  0
   57.7490   24.3910   45.8020 C   0  0  0  0  0  0  0  0  0  0  0  0
   58.7992   24.3687   46.1285 H   0  0  0  0  0  0  0  0  0  0  0  0
   57.2380   23.3440   45.0290 C   0  0  0  0  0  0  0  0  0  0  0  0
   57.8806   22.4904   44.7674 H   0  0  0  0  0  0  0  0  0  0  0  0
   55.9120   23.3800   44.5880 C   0  0  0  0  0  0  0  0  0  0  0  0
   55.4060   22.3410   43.8180 O   0  0  0  0  0  0  0  0  0  0  0  0
   55.0990   24.4680   44.9170 C   0  0  0  0  0  0  0  0  0  0  0  0
   54.0600   24.5026   44.5574 H   0  0  0  0  0  0  0  0  0  0  0  0
   55.5980   25.5120   45.7000 C   0  0  0  0  0  0  0  0  0  0  0  0
   54.7750   26.5960   45.9910 O   0  0  0  0  0  0  0  0  0  0  0  0
  1  2  1  0
  2  3  1  0
  3  4  2  0
  3  5  1  0
  5  6  1  0
  5  7  1  0
  5  8  1  0
  8  9  2  0
  8 10  1  0
 10 11  1  0
 10 12  1  0
 10 13  1  0
 13 14  1  0
 13 15  1  0
 13 16  1  0
 16 17  1  0
 16 18  1  0
 16 19  1  0
 19 20  1  0
 19 21  1  0
 19 22  1  0
 22 23  2  0
 23 24  1  0
 23 25  1  0
 25 26  1  0
 25 27  2  0
 27 28  1  0
 27 29  1  0
 29 30  1  0
 29 31  2  0
 31 32  1  0
  2 33  2  0
 33 34  1  0
 33 35  1  0
 35 36  2  0
 36 37  1  0
 36 38  1  0
 38 39  1  0
 38 40  2  0
 40 41  1  0
 40 42  1  0
 42 43  1  0
 42 44  2  0
 44 45  1  0
 31 22  1  0
 44 35  1  0
M  CHG  4  28  -1  32  -1  41  -1  45  -1
M  END
>  <UniqueID>  (92) 
87

>  <SMILES>  (92) 
O=C(/C=C\c1ccc([O-])cc1[O-])CC(=O)CCCCc1ccc([O-])cc1[O-]

>  <Energy>  (92) 
43.57474437146754

>  <Genealogy>  (92) 
O=C(C=Cc1ccc([O-])cc1[O-])CC(=O)CCCCc1ccc([O-])cc1[O-] (protonated)
O=C(/C=C\c1ccc([O-])cc1[O-])CC(=O)CCCCc1ccc([O-])cc1[O-] (cis-trans isomerization)
O=C(/C=C\c1ccc([O-])cc1[O-])CC(=O)CCCCc1ccc([O-])cc1[O-] (3D coordinates assigned)
O=C(/C=C\c1ccc([O-])cc1[O-])CC(=O)CCCCc1ccc([O-])cc1[O-] (optimized conformer: 43.57474437146754 kcal/mol)

>  <smiles>  (92) 
O=C(C=Cc1ccc(O)cc1O)CC(=O)CCCCc1ccc(O)cc1O

>  <score_type>  (92) 
oracle

>  <origin>  (92) 
adg

>  <m_score__min__energy>  (92) 
-16.559999999999999

>  <m_primary>  (92) 
energy

$$$$
