0:0
     RDKit          3D

 54 58  0  0  0  0  0  0  0  0999 V2000
   59.6440   34.9550   49.3280 O   0  0  0  0  0  0  0  0  0  0  0  0
   60.1680   34.2520   48.4220 C   0  0  0  0  0  0  0  0  0  0  0  0
   61.5560   33.8970   48.5060 N   0  0  0  0  0  0  0  0  0  0  0  0
   62.3850   34.3300   49.6300 C   0  0  0  0  0  0  0  0  0  0  0  0
   63.3590   33.2470   50.0230 C   0  0  0  0  0  0  0  0  0  0  0  0
   64.7330   33.4320   49.7880 C   0  0  0  0  0  0  0  0  0  0  0  0
   65.6490   32.4320   50.1190 C   0  0  0  0  0  0  0  0  0  0  0  0
   65.2050   31.2330   50.6790 C   0  0  0  0  0  0  0  0  0  0  0  0
   63.8410   31.0290   50.9030 C   0  0  0  0  0  0  0  0  0  0  0  0
   62.9140   32.0240   50.5740 C   0  0  0  0  0  0  0  0  0  0  0  0
   61.2050   31.7030   50.8530 Cl  0  0  0  0  0  0  0  0  0  0  0  0
   59.3410   33.8030   47.2870 C   0  0  0  0  0  0  0  0  0  0  0  0
   59.1210   34.5130   46.1090 C   0  0  0  0  0  0  0  0  0  0  0  0
   58.3150   33.8920   45.2060 N   0  0  0  0  0  0  0  0  0  0  0  0
   57.8970   32.6870   45.6480 C   0  0  0  0  0  0  0  0  0  0  0  0
   57.0280   31.8790   44.9070 O   0  0  0  0  0  0  0  0  0  0  0  0
   57.2030   30.5080   44.6780 C   0  0  0  0  0  0  0  0  0  0  0  0
   57.1750   30.0370   43.3610 C   0  0  0  0  0  0  0  0  0  0  0  0
   57.3590   28.6790   43.0890 C   0  0  0  0  0  0  0  0  0  0  0  0
   57.5900   27.7790   44.1330 C   0  0  0  0  0  0  0  0  0  0  0  0
   57.6220   28.2390   45.4640 C   0  0  0  0  0  0  0  0  0  0  0  0
   57.4520   29.6050   45.7280 C   0  0  0  0  0  0  0  0  0  0  0  0
   57.9110   27.2770   46.5880 C   0  0  0  0  0  0  0  0  0  0  0  0
   57.5510   25.8360   46.2040 C   0  0  0  0  0  0  0  0  0  0  0  0
   58.1770   25.4800   44.8450 C   0  0  1  0  0  0  0  0  0  0  0  0
   57.7860   24.0830   44.4270 C   0  0  0  0  0  0  0  0  0  0  0  0
   56.7860   23.8900   43.4570 C   0  0  0  0  0  0  0  0  0  0  0  0
   56.4410   22.5970   43.0490 C   0  0  0  0  0  0  0  0  0  0  0  0
   57.0950   21.4910   43.5960 C   0  0  0  0  0  0  0  0  0  0  0  0
   58.0990   21.6740   44.5500 C   0  0  0  0  0  0  0  0  0  0  0  0
   58.4490   22.9640   44.9620 C   0  0  0  0  0  0  0  0  0  0  0  0
   57.7670   26.4200   43.8490 O   0  0  0  0  0  0  0  0  0  0  0  0
   58.4940   32.3500   47.1900 S   0  0  0  0  0  0  0  0  0  0  0  0
   61.9830   33.3200   47.7460 H   0  0  0  0  0  0  0  0  0  0  0  0
   62.9450   35.2311   49.3395 H   0  0  0  0  0  0  0  0  0  0  0  0
   61.7318   34.5465   50.4882 H   0  0  0  0  0  0  0  0  0  0  0  0
   65.0886   34.3716   49.3400 H   0  0  0  0  0  0  0  0  0  0  0  0
   66.7226   32.5892   49.9382 H   0  0  0  0  0  0  0  0  0  0  0  0
   65.9291   30.4485   50.9440 H   0  0  0  0  0  0  0  0  0  0  0  0
   63.4941   30.0811   51.3403 H   0  0  0  0  0  0  0  0  0  0  0  0
   59.5657   35.5017   45.9228 H   0  0  0  0  0  0  0  0  0  0  0  0
   57.0068   30.7414   42.5330 H   0  0  0  0  0  0  0  0  0  0  0  0
   57.3220   28.3174   42.0508 H   0  0  0  0  0  0  0  0  0  0  0  0
   57.5136   29.9735   46.7626 H   0  0  0  0  0  0  0  0  0  0  0  0
   58.9826   27.3244   46.8319 H   0  0  0  0  0  0  0  0  0  0  0  0
   57.2979   27.5658   47.4545 H   0  0  0  0  0  0  0  0  0  0  0  0
   57.9337   25.1481   46.9724 H   0  0  0  0  0  0  0  0  0  0  0  0
   56.4572   25.7448   46.1319 H   0  0  0  0  0  0  0  0  0  0  0  0
   59.2713   25.5217   44.9483 H   0  0  0  0  0  0  0  0  0  0  0  0
   56.2735   24.7585   43.0177 H   0  0  0  0  0  0  0  0  0  0  0  0
   55.6528   22.4512   42.2956 H   0  0  0  0  0  0  0  0  0  0  0  0
   56.8195   20.4754   43.2756 H   0  0  0  0  0  0  0  0  0  0  0  0
   58.6152   20.8020   44.9779 H   0  0  0  0  0  0  0  0  0  0  0  0
   59.2459   23.1038   45.7073 H   0  0  0  0  0  0  0  0  0  0  0  0
  1  2  2  0
  2  3  1  0
  3  4  1  0
  4  5  1  0
  5  6  2  0
  6  7  1  0
  7  8  2  0
  8  9  1  0
  9 10  2  0
 10 11  1  0
  2 12  1  0
 12 13  2  0
 13 14  1  0
 14 15  2  0
 15 16  1  0
 16 17  1  0
 17 18  2  0
 18 19  1  0
 19 20  2  0
 20 21  1  0
 21 22  2  0
 21 23  1  0
 23 24  1  0
 24 25  1  0
 25 26  1  0
 26 27  2  0
 27 28  1  0
 28 29  2  0
 29 30  1  0
 30 31  2  0
 25 32  1  0
 15 33  1  0
 10  5  1  0
 33 12  1  0
 22 17  1  0
 31 26  1  0
 32 20  1  0
  3 34  1  0
  4 35  1  0
  4 36  1  0
  6 37  1  0
  7 38  1  0
  8 39  1  0
  9 40  1  0
 13 41  1  0
 18 42  1  0
 19 43  1  0
 22 44  1  0
 23 45  1  0
 23 46  1  0
 24 47  1  0
 24 48  1  0
 25 49  1  1
 27 50  1  0
 28 51  1  0
 29 52  1  0
 30 53  1  0
 31 54  1  0
M  END
>  <UniqueID>  (1) 
1

>  <SMILES>  (1) 
O=C(NCc1ccccc1Cl)c1cnc(Oc2ccc3c(c2)CC[C@@H](c2ccccc2)O3)s1

>  <Energy>  (1) 
93.55432444491517

>  <Genealogy>  (1) 
O=C(NCc1ccccc1Cl)c1cnc(Oc2ccc3c(c2)CC[C@@H](c2ccccc2)O3)s1 (chirality)
O=C(NCc1ccccc1Cl)c1cnc(Oc2ccc3c(c2)CC[C@@H](c2ccccc2)O3)s1 (3D coordinates assigned)
O=C(NCc1ccccc1Cl)c1cnc(Oc2ccc3c(c2)CC[C@@H](c2ccccc2)O3)s1 (nonaromatic ring conformer: 93.55432444491517 kcal/mol)

>  <smiles>  (1) 
O=C(NCc1ccccc1Cl)c1cnc(Oc2ccc3c(c2)CCC(c2ccccc2)O3)s1

>  <score_type>  (1) 
oracle

>  <origin>  (1) 
adg

>  <m_score__min__energy>  (1) 
-9.3900000000000006

>  <m_primary>  (1) 
energy

$$$$
1:0
     RDKit          3D

 66 70  0  0  0  0  0  0  0  0999 V2000
   57.6860   32.2860   50.3110 N   0  0  0  0  0  0  0  0  0  0  0  0
   58.7850   31.4970   49.8470 C   0  0  0  0  0  0  0  0  0  0  0  0
   59.6340   31.0950   50.6820 O   0  0  0  0  0  0  0  0  0  0  0  0
   58.9130   31.1460   48.4090 C   0  0  0  0  0  0  0  0  0  0  0  0
   58.9960   29.7870   48.0540 C   0  0  0  0  0  0  0  0  0  0  0  0
   59.0290   29.3850   46.7060 C   0  0  0  0  0  0  0  0  0  0  0  0
   59.1350   27.9890   46.3600 N   0  0  0  0  0  0  0  0  0  0  0  0
   59.3290   27.5690   44.9670 C   0  0  0  0  0  0  0  0  0  0  0  0
   58.2210   26.5870   44.5820 C   0  0  0  0  0  0  0  0  0  0  0  0
   58.0690   25.5230   45.5900 N   0  0  0  0  0  0  0  0  0  0  0  0
   57.2630   24.3590   45.3000 C   0  0  0  0  0  0  0  0  0  0  0  0
   57.4990   23.2730   45.9020 O   0  0  0  0  0  0  0  0  0  0  0  0
   56.1730   24.3920   44.2570 C   0  0  0  0  0  0  0  0  0  0  0  0
   54.8280   24.1400   44.8690 C   0  0  0  0  0  0  0  0  0  0  0  0
   54.1340   22.9960   44.7240 N   0  0  0  0  0  0  0  0  0  0  0  0
   52.9880   23.2380   45.3970 C   0  0  0  0  0  0  0  0  0  0  0  0
   52.0640   22.3870   45.4930 O   0  0  0  0  0  0  0  0  0  0  0  0
   52.9070   24.4660   45.9550 N   0  0  0  0  0  0  0  0  0  0  0  0
   54.0780   25.0240   45.6070 C   0  0  0  0  0  0  0  0  0  0  0  0
   54.4540   26.3170   45.9540 O   0  0  0  0  0  0  0  0  0  0  0  0
   58.8900   25.5490   46.8110 C   0  0  0  0  0  0  0  0  0  0  0  0
   58.9410   26.9660   47.4020 C   0  0  0  0  0  0  0  0  0  0  0  0
   58.9680   30.3610   45.7060 C   0  0  0  0  0  0  0  0  0  0  0  0
   58.9110   31.7120   46.0390 C   0  0  0  0  0  0  0  0  0  0  0  0
   58.9160   32.1230   47.3790 C   0  0  0  0  0  0  0  0  0  0  0  0
   58.8700   33.8970   47.7060 S   0  0  0  0  0  0  0  0  0  0  0  0
   60.5700   33.9530   48.2930 C   0  0  0  0  0  0  0  0  0  0  0  0
   60.8470   34.2090   49.6410 C   0  0  0  0  0  0  0  0  0  0  0  0
   62.1650   34.2010   50.1030 C   0  0  0  0  0  0  0  0  0  0  0  0
   63.2190   33.9140   49.2230 C   0  0  0  0  0  0  0  0  0  0  0  0
   64.5710   33.8440   49.6840 N   0  0  0  0  0  0  0  0  0  0  0  0
   65.1690   32.5830   50.7150 S   0  0  0  0  0  0  0  0  0  0  0  0
   65.5360   33.1760   52.0480 O   0  0  0  0  0  0  0  0  0  0  0  0
   66.4060   31.9890   50.1000 O   0  0  0  0  0  0  0  0  0  0  0  0
   63.9750   31.3080   50.9600 C   0  0  0  0  0  0  0  0  0  0  0  0
   63.0280   31.0190   49.9640 C   0  0  0  0  0  0  0  0  0  0  0  0
   62.1120   29.9770   50.1470 C   0  0  0  0  0  0  0  0  0  0  0  0
   62.1370   29.2190   51.3220 C   0  0  0  0  0  0  0  0  0  0  0  0
   63.0790   29.5010   52.3180 C   0  0  0  0  0  0  0  0  0  0  0  0
   63.9960   30.5440   52.1390 C   0  0  0  0  0  0  0  0  0  0  0  0
   62.9480   33.7300   47.8620 C   0  0  0  0  0  0  0  0  0  0  0  0
   61.6300   33.7530   47.3970 C   0  0  0  0  0  0  0  0  0  0  0  0
   57.5570   32.4550   51.3320 H   0  0  0  0  0  0  0  0  0  0  0  0
   57.0120   32.7230   49.6420 H   0  0  0  0  0  0  0  0  0  0  0  0
   59.0359   29.0242   48.8455 H   0  0  0  0  0  0  0  0  0  0  0  0
   59.2873   28.4486   44.3077 H   0  0  0  0  0  0  0  0  0  0  0  0
   60.3096   27.0824   44.8595 H   0  0  0  0  0  0  0  0  0  0  0  0
   57.2715   27.1355   44.4951 H   0  0  0  0  0  0  0  0  0  0  0  0
   58.4917   26.1191   43.6240 H   0  0  0  0  0  0  0  0  0  0  0  0
   56.1680   25.3806   43.7747 H   0  0  0  0  0  0  0  0  0  0  0  0
   56.3733   23.6010   43.5193 H   0  0  0  0  0  0  0  0  0  0  0  0
   58.4547   24.8638   47.5533 H   0  0  0  0  0  0  0  0  0  0  0  0
   59.9130   25.2357   46.5556 H   0  0  0  0  0  0  0  0  0  0  0  0
   57.9950   27.1670   47.9260 H   0  0  0  0  0  0  0  0  0  0  0  0
   59.7955   27.0167   48.0929 H   0  0  0  0  0  0  0  0  0  0  0  0
   58.9650   30.0591   44.6482 H   0  0  0  0  0  0  0  0  0  0  0  0
   58.8614   32.4664   45.2400 H   0  0  0  0  0  0  0  0  0  0  0  0
   60.0231   34.4174   50.3394 H   0  0  0  0  0  0  0  0  0  0  0  0
   62.3771   34.4204   51.1598 H   0  0  0  0  0  0  0  0  0  0  0  0
   63.0062   31.6128   49.0383 H   0  0  0  0  0  0  0  0  0  0  0  0
   61.3710   29.7537   49.3653 H   0  0  0  0  0  0  0  0  0  0  0  0
   61.4158   28.4006   51.4635 H   0  0  0  0  0  0  0  0  0  0  0  0
   63.0990   28.9034   53.2413 H   0  0  0  0  0  0  0  0  0  0  0  0
   64.7346   30.7658   52.9234 H   0  0  0  0  0  0  0  0  0  0  0  0
   63.7754   33.5667   47.1558 H   0  0  0  0  0  0  0  0  0  0  0  0
   61.4238   33.6139   46.3255 H   0  0  0  0  0  0  0  0  0  0  0  0
  1  2  1  0
  2  3  2  0
  2  4  1  0
  4  5  2  0
  5  6  1  0
  6  7  1  0
  7  8  1  0
  8  9  1  0
  9 10  1  0
 10 11  1  0
 11 12  2  0
 11 13  1  0
 13 14  1  0
 14 15  1  0
 15 16  1  0
 16 17  2  0
 16 18  1  0
 18 19  1  0
 19 20  1  0
 10 21  1  0
 21 22  1  0
  6 23  2  0
 23 24  1  0
 24 25  2  0
 25 26  1  0
 26 27  1  0
 27 28  2  0
 28 29  1  0
 29 30  2  0
 30 31  1  0
 31 32  1  0
 32 33  2  0
 32 34  2  0
 32 35  1  0
 35 36  2  0
 36 37  1  0
 37 38  2  0
 38 39  1  0
 39 40  2  0
 30 41  1  0
 41 42  2  0
 25  4  1  0
 42 27  1  0
 22  7  1  0
 40 35  1  0
 19 14  2  0
  1 43  1  0
  1 44  1  0
  5 45  1  0
  8 46  1  0
  8 47  1  0
  9 48  1  0
  9 49  1  0
 13 50  1  0
 13 51  1  0
 21 52  1  0
 21 53  1  0
 22 54  1  0
 22 55  1  0
 23 56  1  0
 24 57  1  0
 28 58  1  0
 29 59  1  0
 36 60  1  0
 37 61  1  0
 38 62  1  0
 39 63  1  0
 40 64  1  0
 41 65  1  0
 42 66  1  0
M  CHG  4  15  -1  18  -1  20  -1  31  -1
M  END
>  <UniqueID>  (2) 
2

>  <SMILES>  (2) 
NC(=O)c1cc(N2CCN(C(=O)Cc3[n-]c(=O)[n-]c3[O-])CC2)ccc1Sc1ccc([N-]S(=O)(=O)c2ccccc2)cc1

>  <Energy>  (2) 
114.88249987336332

>  <Genealogy>  (2) 
NC(=O)c1cc(N2CCN(C(=O)Cc3[n-]c(=O)[n-]c3[O-])CC2)ccc1Sc1ccc([N-]S(=O)(=O)c2ccccc2)cc1 (protonated)
NC(=O)c1cc(N2CCN(C(=O)Cc3[n-]c(=O)[n-]c3[O-])CC2)ccc1Sc1ccc([N-]S(=O)(=O)c2ccccc2)cc1 (3D coordinates assigned)
NC(=O)c1cc(N2CCN(C(=O)Cc3[n-]c(=O)[n-]c3[O-])CC2)ccc1Sc1ccc([N-]S(=O)(=O)c2ccccc2)cc1 (nonaromatic ring conformer: 114.88249987336332 kcal/mol)

>  <smiles>  (2) 
NC(=O)c1cc(N2CCN(C(=O)Cc3[nH]c(=O)[nH]c3O)CC2)ccc1Sc1ccc(NS(=O)(=O)c2ccccc2)cc1

>  <score_type>  (2) 
oracle

>  <origin>  (2) 
adg

>  <m_score__min__energy>  (2) 
-20.98

>  <m_primary>  (2) 
energy

$$$$
2:0
     RDKit          3D

 47 50  0  0  0  0  0  0  0  0999 V2000
   58.8540   34.4320   53.8580 C   0  0  0  0  0  0  0  0  0  0  0  0
   58.8810   33.5040   52.7160 N   0  0  0  0  0  0  0  0  0  0  0  0
   57.5130   33.0660   52.3930 C   0  0  0  0  0  0  0  0  0  0  0  0
   57.5080   32.1280   51.1690 C   0  0  0  0  0  0  0  0  0  0  0  0
   58.4560   30.9140   51.3380 C   0  0  2  0  0  0  0  0  0  0  0  0
   57.9750   29.7180   52.1960 C   0  0  0  0  0  0  0  0  0  0  0  0
   58.9610   28.7760   52.5860 C   0  0  0  0  0  0  0  0  0  0  0  0
   60.2330   28.8010   52.0100 O   0  0  0  0  0  0  0  0  0  0  0  0
   58.6800   27.7990   53.5410 C   0  0  0  0  0  0  0  0  0  0  0  0
   57.4050   27.6670   54.0700 C   0  0  0  0  0  0  0  0  0  0  0  0
   57.1910   26.7000   55.0480 O   0  0  0  0  0  0  0  0  0  0  0  0
   56.3560   28.4680   53.5820 C   0  0  0  0  0  0  0  0  0  0  0  0
   55.0220   28.2850   53.9980 C   0  0  0  0  0  0  0  0  0  0  0  0
   54.7240   27.4720   54.9140 O   0  0  0  0  0  0  0  0  0  0  0  0
   54.0050   28.9950   53.3760 C   0  0  0  0  0  0  0  0  0  0  0  0
   54.3180   29.8740   52.3340 C   0  0  0  0  0  0  0  0  0  0  0  0
   53.2350   30.5300   51.5500 C   0  0  0  0  0  0  0  0  0  0  0  0
   52.7630   29.9480   50.3640 C   0  0  0  0  0  0  0  0  0  0  0  0
   51.7380   30.5490   49.6300 C   0  0  0  0  0  0  0  0  0  0  0  0
   51.1570   31.7370   50.0770 C   0  0  0  0  0  0  0  0  0  0  0  0
   50.1370   32.3310   49.3420 O   0  0  0  0  0  0  0  0  0  0  0  0
   51.6010   32.3230   51.2670 C   0  0  0  0  0  0  0  0  0  0  0  0
   51.0190   33.4990   51.7260 O   0  0  0  0  0  0  0  0  0  0  0  0
   52.6300   31.7230   52.0020 C   0  0  0  0  0  0  0  0  0  0  0  0
   55.5980   30.1010   52.0280 O   0  0  0  0  0  0  0  0  0  0  0  0
   56.6240   29.4650   52.5990 C   0  0  0  0  0  0  0  0  0  0  0  0
   59.8520   31.4350   51.8030 C   0  0  1  0  0  0  0  0  0  0  0  0
   60.4510   32.1520   50.7520 O   0  0  0  0  0  0  0  0  0  0  0  0
   59.7180   32.3370   53.0380 C   0  0  0  0  0  0  0  0  0  0  0  0
   58.8707   33.8588   54.7967 H   0  0  0  0  0  0  0  0  0  0  0  0
   59.7333   35.0915   53.8154 H   0  0  0  0  0  0  0  0  0  0  0  0
   57.9378   35.0393   53.8154 H   0  0  0  0  0  0  0  0  0  0  0  0
   57.0928   32.5314   53.2577 H   0  0  0  0  0  0  0  0  0  0  0  0
   56.9072   33.9534   52.1572 H   0  0  0  0  0  0  0  0  0  0  0  0
   56.4843   31.7557   51.0159 H   0  0  0  0  0  0  0  0  0  0  0  0
   57.8648   32.7088   50.3056 H   0  0  0  0  0  0  0  0  0  0  0  0
   58.4937   30.4511   50.3409 H   0  0  0  0  0  0  0  0  0  0  0  0
   61.0160   28.3030   52.4170 H   0  0  0  0  0  0  0  0  0  0  0  0
   59.4804   27.1243   53.8790 H   0  0  0  0  0  0  0  0  0  0  0  0
   52.9614   28.8677   53.6996 H   0  0  0  0  0  0  0  0  0  0  0  0
   53.2059   29.0063   50.0076 H   0  0  0  0  0  0  0  0  0  0  0  0
   51.3873   30.0847   48.6965 H   0  0  0  0  0  0  0  0  0  0  0  0
   52.9705   32.1851   52.9404 H   0  0  0  0  0  0  0  0  0  0  0  0
   60.4791   30.5731   52.0748 H   0  0  0  0  0  0  0  0  0  0  0  0
   60.2350   33.1110   50.8920 H   0  0  0  0  0  0  0  0  0  0  0  0
   59.2522   31.7684   53.8564 H   0  0  0  0  0  0  0  0  0  0  0  0
   60.7165   32.6807   53.3461 H   0  0  0  0  0  0  0  0  0  0  0  0
  1  2  1  0
  2  3  1  0
  3  4  1  0
  4  5  1  0
  5  6  1  0
  6  7  2  0
  7  8  1  0
  7  9  1  0
  9 10  2  0
 10 11  1  0
 10 12  1  0
 12 13  1  0
 13 14  2  0
 13 15  1  0
 15 16  2  0
 16 17  1  0
 17 18  2  0
 18 19  1  0
 19 20  2  0
 20 21  1  0
 20 22  1  0
 22 23  1  0
 22 24  2  0
 16 25  1  0
 25 26  1  0
  5 27  1  0
 27 28  1  0
 27 29  1  0
 29  2  1  0
 26  6  1  0
 26 12  2  0
 24 17  1  0
  1 30  1  0
  1 31  1  0
  1 32  1  0
  3 33  1  0
  3 34  1  0
  4 35  1  0
  4 36  1  0
  5 37  1  6
  8 38  1  0
  9 39  1  0
 15 40  1  0
 18 41  1  0
 19 42  1  0
 24 43  1  0
 27 44  1  1
 28 45  1  0
 29 46  1  0
 29 47  1  0
M  CHG  3  11  -1  21  -1  23  -1
M  END
>  <UniqueID>  (3) 
3

>  <SMILES>  (3) 
CN1CC[C@H](c2c(O)cc([O-])c3c(=O)cc(-c4ccc([O-])c([O-])c4)oc23)[C@@H](O)C1

>  <Energy>  (3) 
76.19866049515473

>  <Genealogy>  (3) 
CN1CCC(c2c(O)cc([O-])c3c(=O)cc(-c4ccc([O-])c([O-])c4)oc23)C(O)C1 (protonated)
CN1CC[C@H](c2c(O)cc([O-])c3c(=O)cc(-c4ccc([O-])c([O-])c4)oc23)[C@@H](O)C1 (chirality)
CN1CC[C@H](c2c(O)cc([O-])c3c(=O)cc(-c4ccc([O-])c([O-])c4)oc23)[C@@H](O)C1 (3D coordinates assigned)
CN1CC[C@H](c2c(O)cc([O-])c3c(=O)cc(-c4ccc([O-])c([O-])c4)oc23)[C@@H](O)C1 (nonaromatic ring conformer: 76.19866049515473 kcal/mol)

>  <smiles>  (3) 
CN1CCC(c2c(O)cc(O)c3c(=O)cc(-c4ccc(O)c(O)c4)oc23)C(O)C1

>  <score_type>  (3) 
oracle

>  <origin>  (3) 
adg

>  <m_score__min__energy>  (3) 
-15.77

>  <m_primary>  (3) 
energy

$$$$
3:0
     RDKit          3D

 51 53  0  0  0  0  0  0  0  0999 V2000
   61.1790   28.0370   50.5180 C   0  0  0  0  0  0  0  0  0  0  0  0
   61.0800   29.2240   49.6040 C   0  0  0  0  0  0  0  0  0  0  0  0
   61.6970   30.2750   49.9180 O   0  0  0  0  0  0  0  0  0  0  0  0
   60.2610   29.1930   48.3640 C   0  0  0  0  0  0  0  0  0  0  0  0
   58.9210   28.7600   48.3810 C   0  0  0  0  0  0  0  0  0  0  0  0
   58.1610   28.7600   47.2070 C   0  0  0  0  0  0  0  0  0  0  0  0
   58.7190   29.1760   45.9960 C   0  0  0  0  0  0  0  0  0  0  0  0
   57.8950   29.1640   44.8220 N   0  0  0  0  0  0  0  0  0  0  0  0
   56.9960   30.5150   44.2130 S   0  0  0  0  0  0  0  0  0  0  0  0
   55.5350   30.3270   44.5040 O   0  0  0  0  0  0  0  0  0  0  0  0
   57.1790   30.5950   42.7250 O   0  0  0  0  0  0  0  0  0  0  0  0
   57.6040   31.9970   44.9400 C   0  0  0  0  0  0  0  0  0  0  0  0
   57.4990   33.2220   44.2690 C   0  0  0  0  0  0  0  0  0  0  0  0
   57.9640   34.3910   44.8730 C   0  0  0  0  0  0  0  0  0  0  0  0
   58.5380   34.3470   46.1460 C   0  0  0  0  0  0  0  0  0  0  0  0
   58.6470   33.1260   46.8340 C   0  0  0  0  0  0  0  0  0  0  0  0
   59.2720   33.0520   48.1780 C   0  0  0  0  0  0  0  0  0  0  0  0
   58.5180   33.0310   49.1930 O   0  0  0  0  0  0  0  0  0  0  0  0
   60.7110   32.9690   48.3470 N   0  0  0  0  0  0  0  0  0  0  0  0
   61.3990   32.8270   47.0340 C   0  0  0  0  0  0  0  0  0  0  0  0
   62.8060   33.4650   47.0100 C   0  0  0  0  0  0  0  0  0  0  0  0
   63.4850   33.3990   48.3190 N   0  0  0  0  0  0  0  0  0  0  0  0
   63.9520   32.0360   48.6270 C   0  0  0  0  0  0  0  0  0  0  0  0
   62.6920   33.9950   49.4240 C   0  0  0  0  0  0  0  0  0  0  0  0
   61.1910   34.1430   49.0960 C   0  0  0  0  0  0  0  0  0  0  0  0
   58.1810   31.9520   46.2160 C   0  0  0  0  0  0  0  0  0  0  0  0
   60.0610   29.5850   45.9680 C   0  0  0  0  0  0  0  0  0  0  0  0
   60.8180   29.6020   47.1420 C   0  0  0  0  0  0  0  0  0  0  0  0
   61.1507   28.3763   51.5640 H   0  0  0  0  0  0  0  0  0  0  0  0
   60.3344   27.3579   50.3298 H   0  0  0  0  0  0  0  0  0  0  0  0
   62.1245   27.5072   50.3298 H   0  0  0  0  0  0  0  0  0  0  0  0
   58.4690   28.4194   49.3242 H   0  0  0  0  0  0  0  0  0  0  0  0
   57.1125   28.4288   47.2376 H   0  0  0  0  0  0  0  0  0  0  0  0
   57.0499   33.2626   43.2657 H   0  0  0  0  0  0  0  0  0  0  0  0
   57.8782   35.3517   44.3442 H   0  0  0  0  0  0  0  0  0  0  0  0
   58.9065   35.2726   46.6123 H   0  0  0  0  0  0  0  0  0  0  0  0
   60.9330   32.1130   48.9050 H   0  0  0  0  0  0  0  0  0  0  0  0
   61.4974   31.7555   46.8053 H   0  0  0  0  0  0  0  0  0  0  0  0
   60.7885   33.3555   46.2870 H   0  0  0  0  0  0  0  0  0  0  0  0
   63.4203   32.9340   46.2680 H   0  0  0  0  0  0  0  0  0  0  0  0
   62.6841   34.5275   46.7527 H   0  0  0  0  0  0  0  0  0  0  0  0
   63.9979   31.9019   49.7178 H   0  0  0  0  0  0  0  0  0  0  0  0
   63.2537   31.3031   48.1966 H   0  0  0  0  0  0  0  0  0  0  0  0
   64.9530   31.8854   48.1966 H   0  0  0  0  0  0  0  0  0  0  0  0
   62.7926   33.3519   50.3107 H   0  0  0  0  0  0  0  0  0  0  0  0
   63.0866   35.0074   49.5952 H   0  0  0  0  0  0  0  0  0  0  0  0
   60.6223   34.2323   50.0333 H   0  0  0  0  0  0  0  0  0  0  0  0
   61.0474   35.0427   48.4796 H   0  0  0  0  0  0  0  0  0  0  0  0
   58.2704   30.9887   46.7395 H   0  0  0  0  0  0  0  0  0  0  0  0
   60.5192   29.8938   45.0169 H   0  0  0  0  0  0  0  0  0  0  0  0
   61.8642   29.9403   47.1085 H   0  0  0  0  0  0  0  0  0  0  0  0
  1  2  1  0
  2  3  2  0
  2  4  1  0
  4  5  2  0
  5  6  1  0
  6  7  2  0
  7  8  1  0
  8  9  1  0
  9 10  2  0
  9 11  2  0
  9 12  1  0
 12 13  2  0
 13 14  1  0
 14 15  2  0
 15 16  1  0
 16 17  1  0
 17 18  2  0
 17 19  1  0
 19 20  1  0
 20 21  1  0
 21 22  1  0
 22 23  1  0
 22 24  1  0
 24 25  1  0
 16 26  2  0
  7 27  1  0
 27 28  2  0
 28  4  1  0
 26 12  1  0
 25 19  1  0
  1 29  1  0
  1 30  1  0
  1 31  1  0
  5 32  1  0
  6 33  1  0
 13 34  1  0
 14 35  1  0
 15 36  1  0
 19 37  1  0
 20 38  1  0
 20 39  1  0
 21 40  1  0
 21 41  1  0
 23 42  1  0
 23 43  1  0
 23 44  1  0
 24 45  1  0
 24 46  1  0
 25 47  1  0
 25 48  1  0
 26 49  1  0
 27 50  1  0
 28 51  1  0
M  CHG  2   8  -1  19   1
M  END
>  <UniqueID>  (4) 
4

>  <SMILES>  (4) 
CC(=O)c1ccc([N-]S(=O)(=O)c2cccc(C(=O)[NH+]3CCN(C)CC3)c2)cc1

>  <Energy>  (4) 
73.17918873754509

>  <Genealogy>  (4) 
CC(=O)c1ccc([N-]S(=O)(=O)c2cccc(C(=O)[NH+]3CCN(C)CC3)c2)cc1 (protonated)
CC(=O)c1ccc([N-]S(=O)(=O)c2cccc(C(=O)[NH+]3CCN(C)CC3)c2)cc1 (3D coordinates assigned)
CC(=O)c1ccc([N-]S(=O)(=O)c2cccc(C(=O)[NH+]3CCN(C)CC3)c2)cc1 (nonaromatic ring conformer: 73.17918873754509 kcal/mol)

>  <smiles>  (4) 
CC(=O)c1ccc(NS(=O)(=O)c2cccc(C(=O)N3CCN(C)CC3)c2)cc1

>  <score_type>  (4) 
oracle

>  <origin>  (4) 
adg

>  <m_score__min__energy>  (4) 
-9.2200000000000006

>  <m_primary>  (4) 
energy

$$$$
4:0
     RDKit          3D

 54 57  0  0  0  0  0  0  0  0999 V2000
   63.3868   31.6700   51.0547 H   0  0  0  0  0  0  0  0  0  0  0  0
   63.1360   32.1290   50.0870 C   0  0  0  0  0  0  0  0  0  0  0  0
   62.6140   31.3800   49.1110 C   0  0  0  0  0  0  0  0  0  0  0  0
   62.4431   30.3062   49.2777 H   0  0  0  0  0  0  0  0  0  0  0  0
   62.2620   31.9910   47.7980 C   0  0  0  0  0  0  0  0  0  0  0  0
   61.7630   31.3040   46.8090 N   0  0  0  0  0  0  0  0  0  0  0  0
   60.8420   30.2090   46.9060 C   0  0  0  0  0  0  0  0  0  0  0  0
   60.8760   29.1480   45.9870 C   0  0  0  0  0  0  0  0  0  0  0  0
   61.5952   29.1670   45.1549 H   0  0  0  0  0  0  0  0  0  0  0  0
   60.0000   28.0680   46.1250 C   0  0  0  0  0  0  0  0  0  0  0  0
   60.0233   27.2478   45.3924 H   0  0  0  0  0  0  0  0  0  0  0  0
   59.0900   28.0240   47.1940 C   0  0  0  0  0  0  0  0  0  0  0  0
   58.1080   26.8880   47.3230 C   0  0  0  0  0  0  0  0  0  0  0  0
   57.3811   27.1304   48.1122 H   0  0  0  0  0  0  0  0  0  0  0  0
   58.6653   25.9738   47.5753 H   0  0  0  0  0  0  0  0  0  0  0  0
   57.3690   26.6540   46.0290 C   0  0  0  0  0  0  0  0  0  0  0  0
   57.8020   25.7870   45.2250 O   0  0  0  0  0  0  0  0  0  0  0  0
   56.3030   27.5120   45.6000 N   0  0  0  0  0  0  0  0  0  0  0  0
   56.4180   28.6310   44.9480 C   0  0  0  0  0  0  0  0  0  0  0  0
   57.8480   29.4820   44.6690 S   0  0  0  0  0  0  0  0  0  0  0  0
   57.0500   30.7430   43.8950 C   0  0  0  0  0  0  0  0  0  0  0  0
   57.8380   32.2010   43.2230 S   0  0  0  0  0  0  0  0  0  0  0  0
   58.2690   32.8200   44.8490 C   0  0  0  0  0  0  0  0  0  0  0  0
   57.7200   32.2340   45.9940 C   0  0  0  0  0  0  0  0  0  0  0  0
   57.0138   31.3962   45.8972 H   0  0  0  0  0  0  0  0  0  0  0  0
   58.0670   32.7110   47.2610 C   0  0  0  0  0  0  0  0  0  0  0  0
   57.6329   32.2448   48.1578 H   0  0  0  0  0  0  0  0  0  0  0  0
   58.9640   33.7790   47.3970 C   0  0  0  0  0  0  0  0  0  0  0  0
   59.2870   34.2190   48.6890 O   0  0  0  0  0  0  0  0  0  0  0  0
   59.8100   33.3810   49.7170 C   0  0  0  0  0  0  0  0  0  0  0  0
   60.9089   33.4283   49.7044 H   0  0  0  0  0  0  0  0  0  0  0  0
   59.4845   32.3445   49.5448 H   0  0  0  0  0  0  0  0  0  0  0  0
   59.2990   33.8530   51.0670 C   0  0  0  0  0  0  0  0  0  0  0  0
   59.8528   33.3414   51.8680 H   0  0  0  0  0  0  0  0  0  0  0  0
   59.4464   34.9395   51.1554 H   0  0  0  0  0  0  0  0  0  0  0  0
   58.2276   33.6200   51.1554 H   0  0  0  0  0  0  0  0  0  0  0  0
   59.5090   34.3700   46.2400 C   0  0  0  0  0  0  0  0  0  0  0  0
   60.2119   35.2109   46.3335 H   0  0  0  0  0  0  0  0  0  0  0  0
   59.1600   33.8920   44.9740 C   0  0  0  0  0  0  0  0  0  0  0  0
   59.5864   34.3592   44.0741 H   0  0  0  0  0  0  0  0  0  0  0  0
   55.6890   30.4780   43.8820 C   0  0  0  0  0  0  0  0  0  0  0  0
   54.9514   31.1592   43.4327 H   0  0  0  0  0  0  0  0  0  0  0  0
   55.3460   29.3030   44.4730 N   0  0  0  0  0  0  0  0  0  0  0  0
   54.3610   28.9670   44.5550 H   0  0  0  0  0  0  0  0  0  0  0  0
   59.0820   29.0710   48.1290 C   0  0  0  0  0  0  0  0  0  0  0  0
   58.3786   29.0440   48.9743 H   0  0  0  0  0  0  0  0  0  0  0  0
   59.9630   30.1480   47.9920 C   0  0  0  0  0  0  0  0  0  0  0  0
   59.9647   30.9520   48.7427 H   0  0  0  0  0  0  0  0  0  0  0  0
   62.5420   33.4270   47.5870 C   0  0  0  0  0  0  0  0  0  0  0  0
   62.3214   33.8866   46.6123 H   0  0  0  0  0  0  0  0  0  0  0  0
   63.0600   34.1730   48.5670 C   0  0  0  0  0  0  0  0  0  0  0  0
   63.2506   35.2433   48.3991 H   0  0  0  0  0  0  0  0  0  0  0  0
   63.3770   33.5660   49.8730 C   0  0  0  0  0  0  0  0  0  0  0  0
   63.8610   34.2710   50.7970 O   0  0  0  0  0  0  0  0  0  0  0  0
  1  2  1  0
  2  3  2  0
  3  4  1  0
  3  5  1  0
  5  6  2  3
  6  7  1  0
  7  8  2  0
  8  9  1  0
  8 10  1  0
 10 11  1  0
 10 12  2  0
 12 13  1  0
 13 14  1  0
 13 15  1  0
 13 16  1  0
 16 17  2  0
 16 18  1  0
 18 19  2  0
 19 20  1  0
 20 21  1  0
 21 22  1  0
 22 23  1  0
 23 24  2  0
 24 25  1  0
 24 26  1  0
 26 27  1  0
 26 28  2  0
 28 29  1  0
 29 30  1  0
 30 31  1  0
 30 32  1  0
 30 33  1  0
 33 34  1  0
 33 35  1  0
 33 36  1  0
 28 37  1  0
 37 38  1  0
 37 39  2  0
 39 40  1  0
 21 41  2  0
 41 42  1  0
 41 43  1  0
 43 44  1  0
 12 45  1  0
 45 46  1  0
 45 47  2  0
 47 48  1  0
  5 49  1  0
 49 50  1  0
 49 51  2  0
 51 52  1  0
 51 53  1  0
 53 54  2  0
 53  2  1  0
 47  7  1  0
 43 19  1  0
 39 23  1  0
M  END
>  <UniqueID>  (5) 
5

>  <SMILES>  (5) 
CCOc1ccc(Sc2c[nH]/c(=N/C(=O)Cc3ccc(N=C4C=CC(=O)C=C4)cc3)s2)cc1

>  <Energy>  (5) 
92.72232432756086

>  <Genealogy>  (5) 
CCOc1ccc(Sc2c[nH]/c(=N/C(=O)Cc3ccc(N=C4C=CC(=O)C=C4)cc3)s2)cc1 (cis-trans isomerization)
CCOc1ccc(Sc2c[nH]/c(=N/C(=O)Cc3ccc(N=C4C=CC(=O)C=C4)cc3)s2)cc1 (3D coordinates assigned)
CCOc1ccc(Sc2c[nH]/c(=N/C(=O)Cc3ccc(N=C4C=CC(=O)C=C4)cc3)s2)cc1 (nonaromatic ring conformer: 92.72232432756086 kcal/mol)

>  <smiles>  (5) 
CCOc1ccc(Sc2c[nH]c(=NC(=O)Cc3ccc(N=C4C=CC(=O)C=C4)cc3)s2)cc1

>  <score_type>  (5) 
oracle

>  <origin>  (5) 
adg

>  <m_score__min__energy>  (5) 
-10.01

>  <m_primary>  (5) 
energy

$$$$
5:0
     RDKit          3D

 29 31  0  0  0  0  0  0  0  0999 V2000
   57.3757   32.2859   42.9828 H   0  0  0  0  0  0  0  0  0  0  0  0
   57.3770   31.5290   43.7810 C   0  0  0  0  0  0  0  0  0  0  0  0
   56.7930   29.9580   43.6500 S   0  0  0  0  0  0  0  0  0  0  0  0
   57.1790   29.5680   45.2430 C   0  0  0  0  0  0  0  0  0  0  0  0
   56.9790   28.4260   45.8350 N   0  0  0  0  0  0  0  0  0  0  0  0
   57.9070   27.3370   45.9760 C   0  0  0  0  0  0  0  0  0  0  0  0
   59.0840   27.4120   45.5310 O   0  0  0  0  0  0  0  0  0  0  0  0
   57.4780   26.1080   46.7100 C   0  0  0  0  0  0  0  0  0  0  0  0
   58.1569   25.2790   46.4614 H   0  0  0  0  0  0  0  0  0  0  0  0
   57.5098   26.3027   47.7922 H   0  0  0  0  0  0  0  0  0  0  0  0
   56.0850   25.7420   46.3170 C   0  0  0  0  0  0  0  0  0  0  0  0
   55.1450   26.6450   45.9760 N   0  0  0  0  0  0  0  0  0  0  0  0
   54.0670   25.9590   45.6360 N   0  0  0  0  0  0  0  0  0  0  0  0
   54.3890   24.6610   45.7720 C   0  0  0  0  0  0  0  0  0  0  0  0
   53.3560   23.4400   45.4480 S   0  0  0  0  0  0  0  0  0  0  0  0
   55.6550   24.4700   46.1920 N   0  0  0  0  0  0  0  0  0  0  0  0
   57.7460   30.6120   45.8810 N   0  0  0  0  0  0  0  0  0  0  0  0
   57.8650   31.7080   45.0800 C   0  0  0  0  0  0  0  0  0  0  0  0
   58.4590   32.9740   45.5860 C   0  0  0  0  0  0  0  0  0  0  0  0
   58.7500   33.1110   46.9580 C   0  0  0  0  0  0  0  0  0  0  0  0
   58.5346   32.2806   47.6465 H   0  0  0  0  0  0  0  0  0  0  0  0
   59.3100   34.2930   47.4520 C   0  0  0  0  0  0  0  0  0  0  0  0
   59.5304   34.3889   48.5254 H   0  0  0  0  0  0  0  0  0  0  0  0
   59.5900   35.3510   46.5870 C   0  0  0  0  0  0  0  0  0  0  0  0
   60.0287   36.2807   46.9785 H   0  0  0  0  0  0  0  0  0  0  0  0
   59.3130   35.2290   45.2240 C   0  0  0  0  0  0  0  0  0  0  0  0
   59.5360   36.0628   44.5420 H   0  0  0  0  0  0  0  0  0  0  0  0
   58.7530   34.0500   44.7240 C   0  0  0  0  0  0  0  0  0  0  0  0
   58.5398   33.9610   43.6485 H   0  0  0  0  0  0  0  0  0  0  0  0
  1  2  1  0
  2  3  1  0
  3  4  1  0
  4  5  2  0
  5  6  1  0
  6  7  2  0
  6  8  1  0
  8  9  1  0
  8 10  1  0
  8 11  1  0
 11 12  2  0
 12 13  1  0
 13 14  1  0
 14 15  2  0
 14 16  1  0
  4 17  1  0
 17 18  1  0
 18 19  1  0
 19 20  2  0
 20 21  1  0
 20 22  1  0
 22 23  1  0
 22 24  2  0
 24 25  1  0
 24 26  1  0
 26 27  1  0
 26 28  2  0
 28 29  1  0
 18  2  2  0
 28 19  1  0
 16 11  1  0
M  CHG  3  13  -1  16  -1  17  -1
M  END
>  <UniqueID>  (6) 
6

>  <SMILES>  (6) 
O=C(Cc1n[n-]c(=S)[n-]1)/N=c1/[n-]c(-c2ccccc2)cs1

>  <Energy>  (6) 
96.69033792806535

>  <Genealogy>  (6) 
O=C(Cc1n[n-]c(=S)[n-]1)N=c1[n-]c(-c2ccccc2)cs1 (protonated)
O=C(Cc1n[n-]c(=S)[n-]1)/N=c1/[n-]c(-c2ccccc2)cs1 (cis-trans isomerization)
O=C(Cc1n[n-]c(=S)[n-]1)/N=c1/[n-]c(-c2ccccc2)cs1 (3D coordinates assigned)
O=C(Cc1n[n-]c(=S)[n-]1)/N=c1/[n-]c(-c2ccccc2)cs1 (optimized conformer: 96.69033792806535 kcal/mol)

>  <smiles>  (6) 
O=C(Cc1n[nH]c(=S)[nH]1)N=c1[nH]c(-c2ccccc2)cs1

>  <score_type>  (6) 
oracle

>  <origin>  (6) 
adg

>  <m_score__min__energy>  (6) 
-13.75

>  <m_primary>  (6) 
energy

$$$$
6:0
     RDKit          3D

 51 53  0  0  0  0  0  0  0  0999 V2000
   63.7480   33.8450   46.3700 C   0  0  0  0  0  0  0  0  0  0  0  0
   62.6970   33.8480   47.4340 C   0  0  0  0  0  0  0  0  0  0  0  0
   63.0190   33.4920   48.7460 C   0  0  0  0  0  0  0  0  0  0  0  0
   62.0200   33.4850   49.7170 C   0  0  0  0  0  0  0  0  0  0  0  0
   60.6990   33.8290   49.3850 C   0  0  0  0  0  0  0  0  0  0  0  0
   59.6530   33.8370   50.4820 C   0  0  0  0  0  0  0  0  0  0  0  0
   58.8940   32.5050   50.5550 C   0  0  0  0  0  0  0  0  0  0  0  0
   58.8190   31.8700   49.2410 N   0  0  0  0  0  0  0  0  0  0  0  0
   59.8540   31.0060   48.7450 C   0  0  0  0  0  0  0  0  0  0  0  0
   60.8690   30.7760   49.4580 O   0  0  0  0  0  0  0  0  0  0  0  0
   59.7700   30.4120   47.3900 C   0  0  0  0  0  0  0  0  0  0  0  0
   60.9090   29.8850   46.7550 C   0  0  0  0  0  0  0  0  0  0  0  0
   60.8080   29.3190   45.4800 C   0  0  0  0  0  0  0  0  0  0  0  0
   59.5760   29.2790   44.8260 C   0  0  0  0  0  0  0  0  0  0  0  0
   58.4380   29.8160   45.4360 C   0  0  0  0  0  0  0  0  0  0  0  0
   56.8830   29.7750   44.6080 S   0  0  0  0  0  0  0  0  0  0  0  0
   57.0710   29.6000   43.1260 O   0  0  0  0  0  0  0  0  0  0  0  0
   56.1780   31.0780   44.8570 O   0  0  0  0  0  0  0  0  0  0  0  0
   55.8990   28.4830   45.2160 N   0  0  0  0  0  0  0  0  0  0  0  0
   56.3110   27.1730   45.6420 C   0  0  0  0  0  0  0  0  0  0  0  0
   57.6890   26.9210   45.7000 C   0  0  0  0  0  0  0  0  0  0  0  0
   58.1720   25.6740   46.1080 C   0  0  0  0  0  0  0  0  0  0  0  0
   57.2810   24.6630   46.4650 C   0  0  0  0  0  0  0  0  0  0  0  0
   55.9050   24.8960   46.4130 C   0  0  0  0  0  0  0  0  0  0  0  0
   55.4110   26.1420   46.0080 C   0  0  0  0  0  0  0  0  0  0  0  0
   54.0340   26.3270   45.9880 O   0  0  0  0  0  0  0  0  0  0  0  0
   58.5360   30.3790   46.7160 C   0  0  0  0  0  0  0  0  0  0  0  0
   60.4100   34.1660   48.0390 C   0  0  0  0  0  0  0  0  0  0  0  0
   59.0260   34.5090   47.5720 C   0  0  0  0  0  0  0  0  0  0  0  0
   61.4130   34.1610   47.1180 N   0  0  0  0  0  0  0  0  0  0  0  0
   64.7435   33.8422   46.8380 H   0  0  0  0  0  0  0  0  0  0  0  0
   63.6342   32.9472   45.7447 H   0  0  0  0  0  0  0  0  0  0  0  0
   63.6393   34.7435   45.7447 H   0  0  0  0  0  0  0  0  0  0  0  0
   64.0516   33.2198   49.0099 H   0  0  0  0  0  0  0  0  0  0  0  0
   62.2676   33.2078   50.7523 H   0  0  0  0  0  0  0  0  0  0  0  0
   60.1500   34.0170   51.4467 H   0  0  0  0  0  0  0  0  0  0  0  0
   58.9273   34.6324   50.2569 H   0  0  0  0  0  0  0  0  0  0  0  0
   59.4163   31.8314   51.2503 H   0  0  0  0  0  0  0  0  0  0  0  0
   57.8707   32.7045   50.9057 H   0  0  0  0  0  0  0  0  0  0  0  0
   58.0080   32.1180   48.6310 H   0  0  0  0  0  0  0  0  0  0  0  0
   61.8838   29.9181   47.2635 H   0  0  0  0  0  0  0  0  0  0  0  0
   61.7021   28.9043   44.9915 H   0  0  0  0  0  0  0  0  0  0  0  0
   59.4997   28.8237   43.8276 H   0  0  0  0  0  0  0  0  0  0  0  0
   58.3986   27.7139   45.4212 H   0  0  0  0  0  0  0  0  0  0  0  0
   59.2559   25.4905   46.1473 H   0  0  0  0  0  0  0  0  0  0  0  0
   57.6615   23.6825   46.7874 H   0  0  0  0  0  0  0  0  0  0  0  0
   55.2045   24.0952   46.6921 H   0  0  0  0  0  0  0  0  0  0  0  0
   57.6403   30.7985   47.1973 H   0  0  0  0  0  0  0  0  0  0  0  0
   58.3745   34.6705   48.4434 H   0  0  0  0  0  0  0  0  0  0  0  0
   59.0605   35.4258   46.9651 H   0  0  0  0  0  0  0  0  0  0  0  0
   58.6284   33.6822   46.9651 H   0  0  0  0  0  0  0  0  0  0  0  0
  1  2  1  0
  2  3  2  0
  3  4  1  0
  4  5  2  0
  5  6  1  0
  6  7  1  0
  7  8  1  0
  8  9  1  0
  9 10  2  0
  9 11  1  0
 11 12  2  0
 12 13  1  0
 13 14  2  0
 14 15  1  0
 15 16  1  0
 16 17  2  0
 16 18  2  0
 16 19  1  0
 19 20  1  0
 20 21  2  0
 21 22  1  0
 22 23  2  0
 23 24  1  0
 24 25  2  0
 25 26  1  0
 15 27  2  0
  5 28  1  0
 28 29  1  0
 28 30  2  0
 30  2  1  0
 27 11  1  0
 25 20  1  0
  1 31  1  0
  1 32  1  0
  1 33  1  0
  3 34  1  0
  4 35  1  0
  6 36  1  0
  6 37  1  0
  7 38  1  0
  7 39  1  0
  8 40  1  0
 12 41  1  0
 13 42  1  0
 14 43  1  0
 21 44  1  0
 22 45  1  0
 23 46  1  0
 24 47  1  0
 27 48  1  0
 29 49  1  0
 29 50  1  0
 29 51  1  0
M  CHG  2  19  -1  26  -1
M  END
>  <UniqueID>  (7) 
7

>  <SMILES>  (7) 
Cc1ccc(CCNC(=O)c2cccc(S(=O)(=O)[N-]c3ccccc3[O-])c2)c(C)n1

>  <Energy>  (7) 
57.70659942996683

>  <Genealogy>  (7) 
Cc1ccc(CCNC(=O)c2cccc(S(=O)(=O)[N-]c3ccccc3[O-])c2)c(C)n1 (protonated)
Cc1ccc(CCNC(=O)c2cccc(S(=O)(=O)[N-]c3ccccc3[O-])c2)c(C)n1 (3D coordinates assigned)
Cc1ccc(CCNC(=O)c2cccc(S(=O)(=O)[N-]c3ccccc3[O-])c2)c(C)n1 (optimized conformer: 57.70659942996683 kcal/mol)

>  <smiles>  (7) 
Cc1ccc(CCNC(=O)c2cccc(S(=O)(=O)Nc3ccccc3O)c2)c(C)n1

>  <score_type>  (7) 
oracle

>  <origin>  (7) 
adg

>  <m_score__min__energy>  (7) 
-15.16

>  <m_primary>  (7) 
energy

$$$$
7:0
     RDKit          3D

 62 66  0  0  0  0  0  0  0  0999 V2000
   62.8030   33.4720   47.1490 C   0  0  0  0  0  0  0  0  0  0  0  0
   61.4900   33.8240   47.5720 O   0  0  0  0  0  0  0  0  0  0  0  0
   60.3590   33.8300   46.7410 C   0  0  0  0  0  0  0  0  0  0  0  0
   59.9710   34.9820   46.0260 C   0  0  0  0  0  0  0  0  0  0  0  0
   58.8550   34.9510   45.1870 C   0  0  0  0  0  0  0  0  0  0  0  0
   58.1130   33.7780   45.0510 C   0  0  0  0  0  0  0  0  0  0  0  0
   58.4840   32.6310   45.7550 C   0  0  0  0  0  0  0  0  0  0  0  0
   59.6030   32.6470   46.6060 C   0  0  0  0  0  0  0  0  0  0  0  0
   59.9530   31.4610   47.3400 N   0  0  0  0  0  0  0  0  0  0  0  0
   60.8790   30.4770   46.7740 C   0  0  0  0  0  0  0  0  0  0  0  0
   60.1870   29.1070   46.6260 C   0  0  0  0  0  0  0  0  0  0  0  0
   59.0600   28.8980   47.5800 N   0  0  0  0  0  0  0  0  0  0  0  0
   58.8490   27.4560   47.8600 C   0  0  0  0  0  0  0  0  0  0  0  0
   59.3260   26.5600   46.7010 C   0  0  0  0  0  0  0  0  0  0  0  0
   58.3340   26.5500   45.5260 C   0  0  0  0  0  0  0  0  0  0  0  0
   57.3220   25.4850   45.6860 N   0  0  0  0  0  0  0  0  0  0  0  0
   55.9950   25.8220   45.8790 C   0  0  0  0  0  0  0  0  0  0  0  0
   55.6430   27.0300   45.9550 O   0  0  0  0  0  0  0  0  0  0  0  0
   55.0400   24.8540   45.9920 N   0  0  0  0  0  0  0  0  0  0  0  0
   55.3870   23.5460   45.9190 C   0  0  0  0  0  0  0  0  0  0  0  0
   56.7010   23.1880   45.7240 C   0  0  0  0  0  0  0  0  0  0  0  0
   56.8190   21.5120   45.6510 S   0  0  0  0  0  0  0  0  0  0  0  0
   55.1510   21.3140   45.8680 C   0  0  0  0  0  0  0  0  0  0  0  0
   54.4340   19.8440   45.9900 S   0  0  0  0  0  0  0  0  0  0  0  0
   54.5070   22.5090   46.0000 N   0  0  0  0  0  0  0  0  0  0  0  0
   53.0900   22.6750   46.1930 C   0  0  0  0  0  0  0  0  0  0  0  0
   52.4610   22.1440   47.3310 C   0  0  0  0  0  0  0  0  0  0  0  0
   51.0820   22.2930   47.5050 C   0  0  0  0  0  0  0  0  0  0  0  0
   50.3230   22.9700   46.5470 C   0  0  0  0  0  0  0  0  0  0  0  0
   50.9420   23.4970   45.4100 C   0  0  0  0  0  0  0  0  0  0  0  0
   52.3200   23.3490   45.2310 C   0  0  0  0  0  0  0  0  0  0  0  0
   57.6860   24.1590   45.6060 C   0  0  0  0  0  0  0  0  0  0  0  0
   58.8850   23.8150   45.4210 O   0  0  0  0  0  0  0  0  0  0  0  0
   59.2760   29.6270   48.8500 C   0  0  0  0  0  0  0  0  0  0  0  0
   59.2760   31.1440   48.6020 C   0  0  0  0  0  0  0  0  0  0  0  0
   63.4388   33.3016   48.0303 H   0  0  0  0  0  0  0  0  0  0  0  0
   62.7598   32.5537   46.5449 H   0  0  0  0  0  0  0  0  0  0  0  0
   63.2249   34.2887   46.5449 H   0  0  0  0  0  0  0  0  0  0  0  0
   60.5511   35.9108   46.1298 H   0  0  0  0  0  0  0  0  0  0  0  0
   58.5605   35.8540   44.6321 H   0  0  0  0  0  0  0  0  0  0  0  0
   57.2350   33.7566   44.3887 H   0  0  0  0  0  0  0  0  0  0  0  0
   57.8964   31.7078   45.6431 H   0  0  0  0  0  0  0  0  0  0  0  0
   61.2138   30.8222   45.7847 H   0  0  0  0  0  0  0  0  0  0  0  0
   61.7404   30.3694   47.4496 H   0  0  0  0  0  0  0  0  0  0  0  0
   59.7945   29.0251   45.6017 H   0  0  0  0  0  0  0  0  0  0  0  0
   60.9429   28.3395   46.8487 H   0  0  0  0  0  0  0  0  0  0  0  0
   58.1810   29.2720   47.1470 H   0  0  0  0  0  0  0  0  0  0  0  0
   59.4075   27.1865   48.7685 H   0  0  0  0  0  0  0  0  0  0  0  0
   57.7689   27.2926   47.9895 H   0  0  0  0  0  0  0  0  0  0  0  0
   60.2965   26.9329   46.3417 H   0  0  0  0  0  0  0  0  0  0  0  0
   59.4075   25.5313   47.0819 H   0  0  0  0  0  0  0  0  0  0  0  0
   57.8248   27.5239   45.4788 H   0  0  0  0  0  0  0  0  0  0  0  0
   58.8954   26.3588   44.5996 H   0  0  0  0  0  0  0  0  0  0  0  0
   53.0549   21.6096   48.0871 H   0  0  0  0  0  0  0  0  0  0  0  0
   50.5934   21.8763   48.3981 H   0  0  0  0  0  0  0  0  0  0  0  0
   49.2384   23.0882   46.6876 H   0  0  0  0  0  0  0  0  0  0  0  0
   50.3439   24.0288   44.6554 H   0  0  0  0  0  0  0  0  0  0  0  0
   52.8034   23.7619   44.3333 H   0  0  0  0  0  0  0  0  0  0  0  0
   58.4699   29.3747   49.5547 H   0  0  0  0  0  0  0  0  0  0  0  0
   60.2495   29.3334   49.2696 H   0  0  0  0  0  0  0  0  0  0  0  0
   58.2372   31.5026   48.5549 H   0  0  0  0  0  0  0  0  0  0  0  0
   59.8122   31.6379   49.4258 H   0  0  0  0  0  0  0  0  0  0  0  0
  1  2  1  0
  2  3  1  0
  3  4  2  0
  4  5  1  0
  5  6  2  0
  6  7  1  0
  7  8  2  0
  8  9  1  0
  9 10  1  0
 10 11  1  0
 11 12  1  0
 12 13  1  0
 13 14  1  0
 14 15  1  0
 15 16  1  0
 16 17  1  0
 17 18  2  0
 17 19  1  0
 19 20  1  0
 20 21  2  0
 21 22  1  0
 22 23  1  0
 23 24  2  0
 23 25  1  0
 25 26  1  0
 26 27  2  0
 27 28  1  0
 28 29  2  0
 29 30  1  0
 30 31  2  0
 21 32  1  0
 32 33  2  0
 12 34  1  0
 34 35  1  0
  8  3  1  0
 35  9  1  0
 32 16  1  0
 25 20  1  0
 31 26  1  0
  1 36  1  0
  1 37  1  0
  1 38  1  0
  4 39  1  0
  5 40  1  0
  6 41  1  0
  7 42  1  0
 10 43  1  0
 10 44  1  0
 11 45  1  0
 11 46  1  0
 12 47  1  0
 13 48  1  0
 13 49  1  0
 14 50  1  0
 14 51  1  0
 15 52  1  0
 15 53  1  0
 27 54  1  0
 28 55  1  0
 29 56  1  0
 30 57  1  0
 31 58  1  0
 34 59  1  0
 34 60  1  0
 35 61  1  0
 35 62  1  0
M  CHG  2  12   1  19  -1
M  END
>  <UniqueID>  (8) 
8

>  <SMILES>  (8) 
COc1ccccc1N1CC[NH+](CCCn2c(=O)[n-]c3c(sc(=S)n3-c3ccccc3)c2=O)CC1

>  <Energy>  (8) 
124.14068920412579

>  <Genealogy>  (8) 
COc1ccccc1N1CC[NH+](CCCn2c(=O)[n-]c3c(sc(=S)n3-c3ccccc3)c2=O)CC1 (protonated)
COc1ccccc1N1CC[NH+](CCCn2c(=O)[n-]c3c(sc(=S)n3-c3ccccc3)c2=O)CC1 (3D coordinates assigned)
COc1ccccc1N1CC[NH+](CCCn2c(=O)[n-]c3c(sc(=S)n3-c3ccccc3)c2=O)CC1 (nonaromatic ring conformer: 124.14068920412579 kcal/mol)

>  <smiles>  (8) 
COc1ccccc1N1CCN(CCCn2c(=O)[nH]c3c(sc(=S)n3-c3ccccc3)c2=O)CC1

>  <score_type>  (8) 
oracle

>  <origin>  (8) 
adg

>  <m_score__min__energy>  (8) 
-8.6899999999999995

>  <m_primary>  (8) 
energy

$$$$
8:0
     RDKit          3D

 43 45  0  0  0  0  0  0  0  0999 V2000
   56.5490   21.6700   44.4330 C   0  0  0  0  0  0  0  0  0  0  0  0
   57.5110   22.7040   44.9390 C   0  0  0  0  0  0  0  0  0  0  0  0
   58.8570   22.3740   45.1320 C   0  0  0  0  0  0  0  0  0  0  0  0
   59.7210   23.2960   45.6290 N   0  0  0  0  0  0  0  0  0  0  0  0
   59.3290   24.5580   45.9480 C   0  0  0  0  0  0  0  0  0  0  0  0
   60.1730   25.3530   46.4380 O   0  0  0  0  0  0  0  0  0  0  0  0
   57.9870   24.9500   45.7510 C   0  0  0  0  0  0  0  0  0  0  0  0
   57.4990   26.2590   46.0990 N   0  0  0  0  0  0  0  0  0  0  0  0
   56.1630   26.7170   45.8650 C   0  0  0  0  0  0  0  0  0  0  0  0
   55.1880   26.0160   46.2440 O   0  0  0  0  0  0  0  0  0  0  0  0
   55.9170   27.9910   45.2550 N   0  0  0  0  0  0  0  0  0  0  0  0
   56.9600   28.8980   44.7790 C   0  0  0  0  0  0  0  0  0  0  0  0
   57.6490   29.5840   45.9150 C   0  0  0  0  0  0  0  0  0  0  0  0
   58.2010   28.8580   46.9230 N   0  0  0  0  0  0  0  0  0  0  0  0
   58.8860   29.4680   47.9250 C   0  0  0  0  0  0  0  0  0  0  0  0
   59.3760   28.7790   48.8570 O   0  0  0  0  0  0  0  0  0  0  0  0
   59.0500   30.8550   47.9160 C   0  0  0  0  0  0  0  0  0  0  0  0
   58.4920   31.5930   46.8600 C   0  0  0  0  0  0  0  0  0  0  0  0
   58.6840   33.0180   46.7490 N   0  0  0  0  0  0  0  0  0  0  0  0
   59.1590   33.8190   47.8830 C   0  0  0  0  0  0  0  0  0  0  0  0
   60.0520   34.9570   47.3750 C   0  0  0  0  0  0  0  0  0  0  0  0
   59.4060   35.6930   46.3550 O   0  0  0  0  0  0  0  0  0  0  0  0
   59.2060   34.8670   45.2240 C   0  0  0  0  0  0  0  0  0  0  0  0
   58.2320   33.7310   45.5500 C   0  0  0  0  0  0  0  0  0  0  0  0
   57.7930   30.9350   45.8970 N   0  0  0  0  0  0  0  0  0  0  0  0
   57.0800   23.9960   45.2650 C   0  0  0  0  0  0  0  0  0  0  0  0
   56.0756   21.1612   45.2856 H   0  0  0  0  0  0  0  0  0  0  0  0
   55.7754   22.1571   43.8212 H   0  0  0  0  0  0  0  0  0  0  0  0
   57.0906   20.9336   43.8212 H   0  0  0  0  0  0  0  0  0  0  0  0
   59.2161   21.3651   44.8805 H   0  0  0  0  0  0  0  0  0  0  0  0
   58.1090   26.8770   46.6790 H   0  0  0  0  0  0  0  0  0  0  0  0
   57.7016   28.3212   44.2069 H   0  0  0  0  0  0  0  0  0  0  0  0
   56.4887   29.6651   44.1470 H   0  0  0  0  0  0  0  0  0  0  0  0
   59.6054   31.3593   48.7205 H   0  0  0  0  0  0  0  0  0  0  0  0
   58.2963   34.2425   48.4182 H   0  0  0  0  0  0  0  0  0  0  0  0
   59.7383   33.1781   48.5639 H   0  0  0  0  0  0  0  0  0  0  0  0
   60.2858   35.6315   48.2119 H   0  0  0  0  0  0  0  0  0  0  0  0
   60.9734   34.5208   46.9617 H   0  0  0  0  0  0  0  0  0  0  0  0
   58.7936   35.4721   44.4031 H   0  0  0  0  0  0  0  0  0  0  0  0
   60.1719   34.4314   44.9284 H   0  0  0  0  0  0  0  0  0  0  0  0
   57.2304   34.1489   45.7295 H   0  0  0  0  0  0  0  0  0  0  0  0
   58.1948   33.0301   44.7030 H   0  0  0  0  0  0  0  0  0  0  0  0
   56.0210   24.2654   45.1389 H   0  0  0  0  0  0  0  0  0  0  0  0
  1  2  1  0
  2  3  2  0
  3  4  1  0
  4  5  1  0
  5  6  2  0
  5  7  1  0
  7  8  1  0
  8  9  1  0
  9 10  2  0
  9 11  1  0
 11 12  1  0
 12 13  1  0
 13 14  2  0
 14 15  1  0
 15 16  2  0
 15 17  1  0
 17 18  2  0
 18 19  1  0
 19 20  1  0
 20 21  1  0
 21 22  1  0
 22 23  1  0
 23 24  1  0
 18 25  1  0
  7 26  2  0
 26  2  1  0
 25 13  1  0
 24 19  1  0
  1 27  1  0
  1 28  1  0
  1 29  1  0
  3 30  1  0
  8 31  1  0
 12 32  1  0
 12 33  1  0
 17 34  1  0
 20 35  1  0
 20 36  1  0
 21 37  1  0
 21 38  1  0
 23 39  1  0
 23 40  1  0
 24 41  1  0
 24 42  1  0
 26 43  1  0
M  CHG  3   4  -1  11  -1  25  -1
M  END
>  <UniqueID>  (9) 
9

>  <SMILES>  (9) 
Cc1c[n-]c(=O)c(NC(=O)[N-]Cc2nc(=O)cc(N3CCOCC3)[n-]2)c1

>  <Energy>  (9) 
53.32409551884114

>  <Genealogy>  (9) 
Cc1c[n-]c(=O)c(NC(=O)[N-]Cc2nc(=O)cc(N3CCOCC3)[n-]2)c1 (protonated)
Cc1c[n-]c(=O)c(NC(=O)[N-]Cc2nc(=O)cc(N3CCOCC3)[n-]2)c1 (3D coordinates assigned)
Cc1c[n-]c(=O)c(NC(=O)[N-]Cc2nc(=O)cc(N3CCOCC3)[n-]2)c1 (nonaromatic ring conformer: 53.32409551884114 kcal/mol)

>  <smiles>  (9) 
Cc1c[nH]c(=O)c(NC(=O)NCc2nc(=O)cc(N3CCOCC3)[nH]2)c1

>  <score_type>  (9) 
oracle

>  <origin>  (9) 
adg

>  <m_score__min__energy>  (9) 
-13.199999999999999

>  <m_primary>  (9) 
energy

$$$$
9:0
     RDKit          3D

 58 62  0  0  0  0  0  0  0  0999 V2000
   59.5192   24.4088   46.2113 H   0  0  0  0  0  0  0  0  0  0  0  0
   58.5290   24.8830   46.1440 C   0  0  0  0  0  0  0  0  0  0  0  0
   58.4300   26.2290   45.9680 N   0  0  0  0  0  0  0  0  0  0  0  0
   57.2300   26.8730   45.8660 C   0  0  0  0  0  0  0  0  0  0  0  0
   57.2490   28.1680   45.6850 N   0  0  0  0  0  0  0  0  0  0  0  0
   58.3950   29.0190   45.5170 C   0  0  0  0  0  0  0  0  0  0  0  0
   58.6550   29.4900   44.3730 O   0  0  0  0  0  0  0  0  0  0  0  0
   59.2940   29.3080   46.6580 C   0  0  0  0  0  0  0  0  0  0  0  0
   60.3830   30.1790   46.4930 C   0  0  0  0  0  0  0  0  0  0  0  0
   60.6045   30.5915   45.4976 H   0  0  0  0  0  0  0  0  0  0  0  0
   61.1860   30.5260   47.5780 C   0  0  0  0  0  0  0  0  0  0  0  0
   62.0426   31.1998   47.4290 H   0  0  0  0  0  0  0  0  0  0  0  0
   60.9110   30.0230   48.8590 C   0  0  0  0  0  0  0  0  0  0  0  0
   61.7260   30.5090   50.0460 C   0  0  0  0  0  0  0  0  0  0  0  0
   61.5775   29.8037   50.8770 H   0  0  0  0  0  0  0  0  0  0  0  0
   62.7716   30.5606   49.7083 H   0  0  0  0  0  0  0  0  0  0  0  0
   61.3650   31.8780   50.5250 N   0  0  1  0  0  0  0  0  0  0  0  0
   61.7070   31.9160   51.5170 H   0  0  0  0  0  0  0  0  0  0  0  0
   62.1100   32.9660   49.8230 C   0  0  0  0  0  0  0  0  0  0  0  0
   63.0714   32.5676   49.4666 H   0  0  0  0  0  0  0  0  0  0  0  0
   62.2653   33.7905   50.5344 H   0  0  0  0  0  0  0  0  0  0  0  0
   61.3350   33.5000   48.6450 C   0  0  0  0  0  0  0  0  0  0  0  0
   61.9190   33.7050   47.3870 C   0  0  0  0  0  0  0  0  0  0  0  0
   62.9855   33.4848   47.2318 H   0  0  0  0  0  0  0  0  0  0  0  0
   61.1410   34.1910   46.3280 C   0  0  0  0  0  0  0  0  0  0  0  0
   61.5901   34.3228   45.3325 H   0  0  0  0  0  0  0  0  0  0  0  0
   59.7860   34.5110   46.5350 C   0  0  0  0  0  0  0  0  0  0  0  0
   58.9780   35.0150   45.5080 O   0  0  0  0  0  0  0  0  0  0  0  0
   57.8490   34.3290   44.9720 C   0  0  0  0  0  0  0  0  0  0  0  0
   57.0149   34.3817   45.6872 H   0  0  0  0  0  0  0  0  0  0  0  0
   57.5508   34.8004   44.0239 H   0  0  0  0  0  0  0  0  0  0  0  0
   58.2130   32.8600   44.7190 C   0  0  0  0  0  0  0  0  0  0  0  0
   59.1651   32.8922   45.2690 H   0  0  0  0  0  0  0  0  0  0  0  0
   57.7860   32.2590   43.3870 C   0  0  0  0  0  0  0  0  0  0  0  0
   57.3395   32.9002   42.6127 H   0  0  0  0  0  0  0  0  0  0  0  0
   58.2847   31.6641   42.6077 H   0  0  0  0  0  0  0  0  0  0  0  0
   57.0040   31.9350   44.6470 C   0  0  0  0  0  0  0  0  0  0  0  0
   55.9914   32.3418   44.7855 H   0  0  0  0  0  0  0  0  0  0  0  0
   56.7021   31.0089   45.1581 H   0  0  0  0  0  0  0  0  0  0  0  0
   59.2180   34.3280   47.8020 C   0  0  0  0  0  0  0  0  0  0  0  0
   58.1683   34.6056   47.9781 H   0  0  0  0  0  0  0  0  0  0  0  0
   59.9840   33.7920   48.8460 C   0  0  0  0  0  0  0  0  0  0  0  0
   59.3970   33.4690   50.1850 C   0  0  0  0  0  0  0  0  0  0  0  0
   58.2990   33.4785   50.1198 H   0  0  0  0  0  0  0  0  0  0  0  0
   59.7176   34.2170   50.9251 H   0  0  0  0  0  0  0  0  0  0  0  0
   59.8790   32.0690   50.6110 C   0  0  0  0  0  0  0  0  0  0  0  0
   59.3972   31.3251   49.9594 H   0  0  0  0  0  0  0  0  0  0  0  0
   59.6054   31.9488   51.6696 H   0  0  0  0  0  0  0  0  0  0  0  0
   59.8570   29.1090   49.0180 C   0  0  0  0  0  0  0  0  0  0  0  0
   59.6618   28.6669   50.0061 H   0  0  0  0  0  0  0  0  0  0  0  0
   59.0540   28.7570   47.9290 C   0  0  0  0  0  0  0  0  0  0  0  0
   58.2283   28.0436   48.0677 H   0  0  0  0  0  0  0  0  0  0  0  0
   56.0340   26.1130   45.9960 C   0  0  0  0  0  0  0  0  0  0  0  0
   54.7700   26.7000   46.0100 O   0  0  0  0  0  0  0  0  0  0  0  0
   56.1270   24.7260   46.1650 C   0  0  0  0  0  0  0  0  0  0  0  0
   55.2108   24.1218   46.2399 H   0  0  0  0  0  0  0  0  0  0  0  0
   57.3760   24.1050   46.2390 C   0  0  0  0  0  0  0  0  0  0  0  0
   57.4490   23.0153   46.3706 H   0  0  0  0  0  0  0  0  0  0  0  0
  1  2  1  0
  2  3  1  0
  3  4  1  0
  4  5  2  0
  5  6  1  0
  6  7  2  0
  6  8  1  0
  8  9  2  0
  9 10  1  0
  9 11  1  0
 11 12  1  0
 11 13  2  0
 13 14  1  0
 14 15  1  0
 14 16  1  0
 14 17  1  0
 17 18  1  1
 17 19  1  0
 19 20  1  0
 19 21  1  0
 19 22  1  0
 22 23  2  0
 23 24  1  0
 23 25  1  0
 25 26  1  0
 25 27  2  0
 27 28  1  0
 28 29  1  0
 29 30  1  0
 29 31  1  0
 29 32  1  0
 32 33  1  0
 32 34  1  0
 34 35  1  0
 34 36  1  0
 34 37  1  0
 37 38  1  0
 37 39  1  0
 27 40  1  0
 40 41  1  0
 40 42  2  0
 42 43  1  0
 43 44  1  0
 43 45  1  0
 43 46  1  0
 46 47  1  0
 46 48  1  0
 13 49  1  0
 49 50  1  0
 49 51  2  0
 51 52  1  0
  4 53  1  0
 53 54  1  0
 53 55  2  0
 55 56  1  0
 55 57  1  0
 57 58  1  0
 57  2  2  0
 51  8  1  0
 46 17  1  0
 42 22  1  0
 37 32  1  0
M  CHG  3   3  -1  17   1  54  -1
M  END
>  <UniqueID>  (10) 
10

>  <SMILES>  (10) 
O=C(/N=c1/[n-]cccc1[O-])c1ccc(C[N@@H+]2CCc3cc(OCC4CC4)ccc3C2)cc1

>  <Energy>  (10) 
351.8186460922552

>  <Genealogy>  (10) 
O=C(N=c1[n-]cccc1[O-])c1ccc(C[NH+]2CCc3cc(OCC4CC4)ccc3C2)cc1 (protonated)
O=C(N=c1[n-]cccc1[O-])c1ccc(C[N@@H+]2CCc3cc(OCC4CC4)ccc3C2)cc1 (chirality)
O=C(/N=c1/[n-]cccc1[O-])c1ccc(C[N@@H+]2CCc3cc(OCC4CC4)ccc3C2)cc1 (cis-trans isomerization)
O=C(/N=c1/[n-]cccc1[O-])c1ccc(C[N@@H+]2CCc3cc(OCC4CC4)ccc3C2)cc1 (3D coordinates assigned)
O=C(/N=c1/[n-]cccc1[O-])c1ccc(C[N@@H+]2CCc3cc(OCC4CC4)ccc3C2)cc1 (nonaromatic ring conformer: 351.8186460922552 kcal/mol)

>  <smiles>  (10) 
O=C(N=c1[nH]cccc1O)c1ccc(CN2CCc3cc(OCC4CC4)ccc3C2)cc1

>  <score_type>  (10) 
oracle

>  <origin>  (10) 
adg

>  <m_score__min__energy>  (10) 
-13.199999999999999

>  <m_primary>  (10) 
energy

$$$$
10:0
     RDKit          3D

 66 69  0  0  0  0  0  0  0  0999 V2000
   59.1780   22.2180   44.9990 C   0  0  0  0  0  0  0  0  0  0  0  0
   58.0150   21.4170   45.5740 C   0  0  0  0  0  0  0  0  0  0  0  0
   57.7050   21.8560   46.8950 O   0  0  0  0  0  0  0  0  0  0  0  0
   56.9310   22.9900   47.1700 C   0  0  0  0  0  0  0  0  0  0  0  0
   57.2980   23.7980   48.0660 O   0  0  0  0  0  0  0  0  0  0  0  0
   55.7050   23.2590   46.3810 C   0  0  0  0  0  0  0  0  0  0  0  0
   55.7270   23.7830   45.0860 C   0  0  0  0  0  0  0  0  0  0  0  0
   56.8890   24.1580   44.3440 N   0  0  0  0  0  0  0  0  0  0  0  0
   57.5700   25.4060   44.5070 C   0  0  0  0  0  0  0  0  0  0  0  0
   57.9520   25.7440   45.6580 O   0  0  0  0  0  0  0  0  0  0  0  0
   57.8040   26.3360   43.3450 C   0  0  0  0  0  0  0  0  0  0  0  0
   58.8370   27.2750   43.6480 O   0  0  0  0  0  0  0  0  0  0  0  0
   58.7120   28.3580   44.5330 C   0  0  0  0  0  0  0  0  0  0  0  0
   57.9060   29.4750   44.2550 C   0  0  0  0  0  0  0  0  0  0  0  0
   57.8170   30.5500   45.1630 C   0  0  0  0  0  0  0  0  0  0  0  0
   57.0140   31.6710   44.8850 O   0  0  0  0  0  0  0  0  0  0  0  0
   57.4880   32.8990   44.3340 C   0  0  0  0  0  0  0  0  0  0  0  0
   58.5590   30.4980   46.3710 C   0  0  0  0  0  0  0  0  0  0  0  0
   58.5460   31.5330   47.3320 C   0  0  0  0  0  0  0  0  0  0  0  0
   57.8470   32.5690   47.1480 O   0  0  0  0  0  0  0  0  0  0  0  0
   59.3330   31.4220   48.4950 C   0  0  0  0  0  0  0  0  0  0  0  0
   59.3480   32.5160   49.4970 C   0  0  0  0  0  0  0  0  0  0  0  0
   58.4350   32.5840   50.3670 O   0  0  0  0  0  0  0  0  0  0  0  0
   60.3620   33.5240   49.4400 N   0  0  0  0  0  0  0  0  0  0  0  0
   61.5000   33.5170   48.5650 C   0  0  0  0  0  0  0  0  0  0  0  0
   62.7540   33.1810   49.0900 C   0  0  0  0  0  0  0  0  0  0  0  0
   63.8790   33.1360   48.2600 C   0  0  0  0  0  0  0  0  0  0  0  0
   63.7570   33.4440   46.9020 C   0  0  0  0  0  0  0  0  0  0  0  0
   62.5170   33.8150   46.3760 C   0  0  0  0  0  0  0  0  0  0  0  0
   61.3900   33.8670   47.2040 C   0  0  0  0  0  0  0  0  0  0  0  0
   60.2140   34.3000   46.6880 F   0  0  0  0  0  0  0  0  0  0  0  0
   60.0960   30.2450   48.6770 C   0  0  0  0  0  0  0  0  0  0  0  0
   60.9380   30.0110   49.8970 C   0  0  0  0  0  0  0  0  0  0  0  0
   60.0800   29.2920   47.7520 O   0  0  0  0  0  0  0  0  0  0  0  0
   59.3670   29.3680   46.6360 C   0  0  0  0  0  0  0  0  0  0  0  0
   59.4280   28.3130   45.7270 C   0  0  0  0  0  0  0  0  0  0  0  0
   54.1860   23.7480   44.4300 S   0  0  0  0  0  0  0  0  0  0  0  0
   53.4260   23.1170   45.7920 C   0  0  0  0  0  0  0  0  0  0  0  0
   51.9870   22.7830   45.8240 C   0  0  0  0  0  0  0  0  0  0  0  0
   51.4150   21.8790   44.8840 N   0  0  0  0  0  0  0  0  0  0  0  0
   51.2410   23.3410   46.6700 O   0  0  0  0  0  0  0  0  0  0  0  0
   54.3890   22.9340   46.8030 C   0  0  0  0  0  0  0  0  0  0  0  0
   54.0530   22.4750   48.1970 C   0  0  0  0  0  0  0  0  0  0  0  0
   59.7798   22.6325   45.8212 H   0  0  0  0  0  0  0  0  0  0  0  0
   59.8061   21.5600   44.3805 H   0  0  0  0  0  0  0  0  0  0  0  0
   58.7872   23.0394   44.3805 H   0  0  0  0  0  0  0  0  0  0  0  0
   57.1318   21.5513   44.9322 H   0  0  0  0  0  0  0  0  0  0  0  0
   58.3012   20.3556   45.6121 H   0  0  0  0  0  0  0  0  0  0  0  0
   58.0993   25.7463   42.4647 H   0  0  0  0  0  0  0  0  0  0  0  0
   56.8743   26.8875   43.1415 H   0  0  0  0  0  0  0  0  0  0  0  0
   57.3360   29.5113   43.3149 H   0  0  0  0  0  0  0  0  0  0  0  0
   57.7540   33.5881   45.1491 H   0  0  0  0  0  0  0  0  0  0  0  0
   58.3756   32.7043   43.7141 H   0  0  0  0  0  0  0  0  0  0  0  0
   56.6998   33.3512   43.7141 H   0  0  0  0  0  0  0  0  0  0  0  0
   62.8549   32.9512   50.1610 H   0  0  0  0  0  0  0  0  0  0  0  0
   64.8589   32.8585   48.6756 H   0  0  0  0  0  0  0  0  0  0  0  0
   64.6388   33.3942   46.2463 H   0  0  0  0  0  0  0  0  0  0  0  0
   62.4264   34.0667   45.3090 H   0  0  0  0  0  0  0  0  0  0  0  0
   60.3314   30.1796   50.7990 H   0  0  0  0  0  0  0  0  0  0  0  0
   61.3094   28.9756   49.8931 H   0  0  0  0  0  0  0  0  0  0  0  0
   61.7904   30.7063   49.8931 H   0  0  0  0  0  0  0  0  0  0  0  0
   60.0491   27.4343   45.9553 H   0  0  0  0  0  0  0  0  0  0  0  0
   51.3890   22.1050   43.8630 H   0  0  0  0  0  0  0  0  0  0  0  0
   54.5384   23.1380   48.9283 H   0  0  0  0  0  0  0  0  0  0  0  0
   52.9629   22.5063   48.3406 H   0  0  0  0  0  0  0  0  0  0  0  0
   54.4123   21.4453   48.3406 H   0  0  0  0  0  0  0  0  0  0  0  0
  1  2  1  0
  2  3  1  0
  3  4  1  0
  4  5  2  0
  4  6  1  0
  6  7  2  0
  7  8  1  0
  8  9  1  0
  9 10  2  0
  9 11  1  0
 11 12  1  0
 12 13  1  0
 13 14  2  0
 14 15  1  0
 15 16  1  0
 16 17  1  0
 15 18  2  0
 18 19  1  0
 19 20  2  0
 19 21  1  0
 21 22  1  0
 22 23  2  0
 22 24  1  0
 24 25  1  0
 25 26  2  0
 26 27  1  0
 27 28  2  0
 28 29  1  0
 29 30  2  0
 30 31  1  0
 21 32  2  0
 32 33  1  0
 32 34  1  0
 34 35  1  0
 35 36  2  0
  7 37  1  0
 37 38  1  0
 38 39  1  0
 39 40  1  0
 39 41  2  0
 38 42  2  0
 42 43  1  0
 42  6  1  0
 36 13  1  0
 35 18  1  0
 30 25  1  0
  1 44  1  0
  1 45  1  0
  1 46  1  0
  2 47  1  0
  2 48  1  0
 11 49  1  0
 11 50  1  0
 14 51  1  0
 17 52  1  0
 17 53  1  0
 17 54  1  0
 26 55  1  0
 27 56  1  0
 28 57  1  0
 29 58  1  0
 33 59  1  0
 33 60  1  0
 33 61  1  0
 36 62  1  0
 40 63  1  0
 43 64  1  0
 43 65  1  0
 43 66  1  0
M  CHG  3   8  -1  24  -1  40  -1
M  END
>  <UniqueID>  (11) 
11

>  <SMILES>  (11) 
CCOC(=O)c1c([N-]C(=O)COc2cc(OC)c3c(=O)c(C(=O)[N-]c4ccccc4F)c(C)oc3c2)sc(C([NH-])=O)c1C

>  <Energy>  (11) 
121.00681458937767

>  <Genealogy>  (11) 
CCOC(=O)c1c([N-]C(=O)COc2cc(OC)c3c(=O)c(C(=O)[N-]c4ccccc4F)c(C)oc3c2)sc(C([NH-])=O)c1C (protonated)
CCOC(=O)c1c([N-]C(=O)COc2cc(OC)c3c(=O)c(C(=O)[N-]c4ccccc4F)c(C)oc3c2)sc(C([NH-])=O)c1C (3D coordinates assigned)
CCOC(=O)c1c([N-]C(=O)COc2cc(OC)c3c(=O)c(C(=O)[N-]c4ccccc4F)c(C)oc3c2)sc(C([NH-])=O)c1C (optimized conformer: 121.00681458937767 kcal/mol)

>  <smiles>  (11) 
CCOC(=O)c1c(NC(=O)COc2cc(OC)c3c(=O)c(C(=O)Nc4ccccc4F)c(C)oc3c2)sc(C(N)=O)c1C

>  <score_type>  (11) 
oracle

>  <origin>  (11) 
adg

>  <m_score__min__energy>  (11) 
-13.51

>  <m_primary>  (11) 
energy

$$$$
11:0
     RDKit          3D

 69 72  0  0  0  0  0  0  0  0999 V2000
   58.1040   32.9070   51.9970 C   0  0  0  0  0  0  0  0  0  0  0  0
   57.5070   31.9240   50.9860 C   0  0  1  0  0  0  0  0  0  0  0  0
   58.5810   31.3020   50.0460 C   0  0  0  0  0  0  0  0  0  0  0  0
   58.7230   29.8560   50.2710 N   0  0  0  0  0  0  0  0  0  0  0  0
   60.1490   29.2330   49.4750 S   0  0  0  0  0  0  0  0  0  0  0  0
   60.9400   30.3860   48.9150 O   0  0  0  0  0  0  0  0  0  0  0  0
   61.0110   28.5280   50.4880 O   0  0  0  0  0  0  0  0  0  0  0  0
   59.7610   28.1110   48.1680 C   0  0  0  0  0  0  0  0  0  0  0  0
   60.6650   27.0990   47.8180 C   0  0  0  0  0  0  0  0  0  0  0  0
   60.3830   26.2380   46.7550 C   0  0  0  0  0  0  0  0  0  0  0  0
   59.2040   26.3920   46.0230 C   0  0  0  0  0  0  0  0  0  0  0  0
   58.2880   27.4100   46.3510 C   0  0  0  0  0  0  0  0  0  0  0  0
   57.0380   27.5790   45.5730 C   0  0  0  0  0  0  0  0  0  0  0  0
   55.9590   27.0760   45.9960 O   0  0  0  0  0  0  0  0  0  0  0  0
   57.0520   28.2890   44.3270 N   0  0  0  0  0  0  0  0  0  0  0  0
   57.7860   29.5300   44.1140 C   0  0  0  0  0  0  0  0  0  0  0  0
   57.1630   30.6200   44.9250 C   0  0  0  0  0  0  0  0  0  0  0  0
   56.0720   31.1400   44.5620 O   0  0  0  0  0  0  0  0  0  0  0  0
   57.7660   31.0260   46.1530 N   0  0  0  0  0  0  0  0  0  0  0  0
   58.6090   32.1850   46.2810 C   0  0  0  0  0  0  0  0  0  0  0  0
   58.0960   33.4400   45.9330 C   0  0  0  0  0  0  0  0  0  0  0  0
   58.9130   34.5750   45.9890 C   0  0  0  0  0  0  0  0  0  0  0  0
   60.2460   34.4620   46.3880 C   0  0  0  0  0  0  0  0  0  0  0  0
   60.7740   33.2130   46.7290 C   0  0  0  0  0  0  0  0  0  0  0  0
   62.4640   33.0790   47.2150 S   0  0  0  0  0  0  0  0  0  0  0  0
   63.2660   34.1290   46.4960 O   0  0  0  0  0  0  0  0  0  0  0  0
   63.0040   31.7230   46.8490 O   0  0  0  0  0  0  0  0  0  0  0  0
   62.5880   33.3190   48.9360 N   0  0  0  0  0  0  0  0  0  0  0  0
   61.2440   33.4430   49.5190 C   0  0  0  0  0  0  0  0  0  0  0  0
   61.3640   33.5880   51.0420 C   0  0  0  0  0  0  0  0  0  0  0  0
   62.0310   32.4710   51.6030 O   0  0  0  0  0  0  0  0  0  0  0  0
   63.3400   32.3730   51.0720 C   0  0  0  0  0  0  0  0  0  0  0  0
   63.3000   32.1860   49.5480 C   0  0  0  0  0  0  0  0  0  0  0  0
   59.9520   32.0770   46.6920 C   0  0  0  0  0  0  0  0  0  0  0  0
   58.5710   28.2590   47.4380 C   0  0  0  0  0  0  0  0  0  0  0  0
   58.7610   29.5870   51.7070 C   0  0  0  0  0  0  0  0  0  0  0  0
   57.3580   29.8890   52.2700 C   0  0  1  0  0  0  0  0  0  0  0  0
   57.3620   30.0740   53.7910 C   0  0  0  0  0  0  0  0  0  0  0  0
   56.6740   30.9630   51.6270 O   0  0  0  0  0  0  0  0  0  0  0  0
   57.8915   32.5571   53.0180 H   0  0  0  0  0  0  0  0  0  0  0  0
   59.1923   32.9688   51.8496 H   0  0  0  0  0  0  0  0  0  0  0  0
   57.6570   33.9012   51.8496 H   0  0  0  0  0  0  0  0  0  0  0  0
   56.8510   32.4972   50.3144 H   0  0  0  0  0  0  0  0  0  0  0  0
   59.5483   31.7899   50.2366 H   0  0  0  0  0  0  0  0  0  0  0  0
   58.2609   31.4591   49.0054 H   0  0  0  0  0  0  0  0  0  0  0  0
   61.6014   26.9821   48.3833 H   0  0  0  0  0  0  0  0  0  0  0  0
   61.0908   25.4374   46.4941 H   0  0  0  0  0  0  0  0  0  0  0  0
   58.9892   25.7134   45.1843 H   0  0  0  0  0  0  0  0  0  0  0  0
   58.8330   29.3950   44.4232 H   0  0  0  0  0  0  0  0  0  0  0  0
   57.7515   29.7992   43.0480 H   0  0  0  0  0  0  0  0  0  0  0  0
   57.0474   33.5345   45.6145 H   0  0  0  0  0  0  0  0  0  0  0  0
   58.5035   35.5592   45.7177 H   0  0  0  0  0  0  0  0  0  0  0  0
   60.8826   35.3579   46.4343 H   0  0  0  0  0  0  0  0  0  0  0  0
   60.7436   34.3301   49.1036 H   0  0  0  0  0  0  0  0  0  0  0  0
   60.6539   32.5462   49.2793 H   0  0  0  0  0  0  0  0  0  0  0  0
   61.9322   34.5010   51.2736 H   0  0  0  0  0  0  0  0  0  0  0  0
   60.3529   33.6469   51.4712 H   0  0  0  0  0  0  0  0  0  0  0  0
   63.8942   33.2935   51.3076 H   0  0  0  0  0  0  0  0  0  0  0  0
   63.8371   31.5002   51.5205 H   0  0  0  0  0  0  0  0  0  0  0  0
   64.3270   32.1430   49.1563 H   0  0  0  0  0  0  0  0  0  0  0  0
   62.7771   31.2490   49.3060 H   0  0  0  0  0  0  0  0  0  0  0  0
   60.3579   31.0976   46.9852 H   0  0  0  0  0  0  0  0  0  0  0  0
   57.8537   29.0448   47.7176 H   0  0  0  0  0  0  0  0  0  0  0  0
   59.5076   30.2338   52.1910 H   0  0  0  0  0  0  0  0  0  0  0  0
   59.0394   28.5402   51.8988 H   0  0  0  0  0  0  0  0  0  0  0  0
   56.7794   28.9837   52.0340 H   0  0  0  0  0  0  0  0  0  0  0  0
   57.3407   29.0890   54.2802 H   0  0  0  0  0  0  0  0  0  0  0  0
   58.2720   30.6135   54.0924 H   0  0  0  0  0  0  0  0  0  0  0  0
   56.4761   30.6523   54.0924 H   0  0  0  0  0  0  0  0  0  0  0  0
  1  2  1  0
  2  3  1  0
  3  4  1  0
  4  5  1  0
  5  6  2  0
  5  7  2  0
  5  8  1  0
  8  9  2  0
  9 10  1  0
 10 11  2  0
 11 12  1  0
 12 13  1  0
 13 14  2  0
 13 15  1  0
 15 16  1  0
 16 17  1  0
 17 18  2  0
 17 19  1  0
 19 20  1  0
 20 21  2  0
 21 22  1  0
 22 23  2  0
 23 24  1  0
 24 25  1  0
 25 26  2  0
 25 27  2  0
 25 28  1  0
 28 29  1  0
 29 30  1  0
 30 31  1  0
 31 32  1  0
 32 33  1  0
 24 34  2  0
 12 35  2  0
  4 36  1  0
 36 37  1  0
 37 38  1  0
 37 39  1  0
 39  2  1  0
 35  8  1  0
 34 20  1  0
 33 28  1  0
  1 40  1  0
  1 41  1  0
  1 42  1  0
  2 43  1  6
  3 44  1  0
  3 45  1  0
  9 46  1  0
 10 47  1  0
 11 48  1  0
 16 49  1  0
 16 50  1  0
 21 51  1  0
 22 52  1  0
 23 53  1  0
 29 54  1  0
 29 55  1  0
 30 56  1  0
 30 57  1  0
 32 58  1  0
 32 59  1  0
 33 60  1  0
 33 61  1  0
 34 62  1  0
 35 63  1  0
 36 64  1  0
 36 65  1  0
 37 66  1  1
 38 67  1  0
 38 68  1  0
 38 69  1  0
M  CHG  2  15  -1  19  -1
M  END
>  <UniqueID>  (12) 
12

>  <SMILES>  (12) 
C[C@@H]1CN(S(=O)(=O)c2cccc(C(=O)[N-]CC(=O)[N-]c3cccc(S(=O)(=O)N4CCOCC4)c3)c2)C[C@H](C)O1

>  <Energy>  (12) 
78.49990563867522

>  <Genealogy>  (12) 
CC1CN(S(=O)(=O)c2cccc(C(=O)[N-]CC(=O)[N-]c3cccc(S(=O)(=O)N4CCOCC4)c3)c2)CC(C)O1 (protonated)
C[C@@H]1CN(S(=O)(=O)c2cccc(C(=O)[N-]CC(=O)[N-]c3cccc(S(=O)(=O)N4CCOCC4)c3)c2)C[C@H](C)O1 (chirality)
C[C@@H]1CN(S(=O)(=O)c2cccc(C(=O)[N-]CC(=O)[N-]c3cccc(S(=O)(=O)N4CCOCC4)c3)c2)C[C@H](C)O1 (3D coordinates assigned)
C[C@@H]1CN(S(=O)(=O)c2cccc(C(=O)[N-]CC(=O)[N-]c3cccc(S(=O)(=O)N4CCOCC4)c3)c2)C[C@H](C)O1 (nonaromatic ring conformer: 78.49990563867522 kcal/mol)

>  <smiles>  (12) 
CC1CN(S(=O)(=O)c2cccc(C(=O)NCC(=O)Nc3cccc(S(=O)(=O)N4CCOCC4)c3)c2)CC(C)O1

>  <score_type>  (12) 
oracle

>  <origin>  (12) 
adg

>  <m_score__min__energy>  (12) 
-14.300000000000001

>  <m_primary>  (12) 
energy

$$$$
12:0
     RDKit          3D

 36 38  0  0  0  0  0  0  0  0999 V2000
   60.2310   27.2820   45.6290 O   0  0  0  0  0  0  0  0  0  0  0  0
   59.3160   27.0110   46.4520 C   0  0  0  0  0  0  0  0  0  0  0  0
   58.6050   28.1330   47.1620 C   0  0  0  0  0  0  0  0  0  0  0  0
   58.0490   29.0950   46.1980 N   0  0  0  0  0  0  0  0  0  0  0  0
   58.3790   30.5120   46.2270 C   0  0  0  0  0  0  0  0  0  0  0  0
   59.4000   30.9860   47.0830 C   0  0  0  0  0  0  0  0  0  0  0  0
   59.7250   32.3410   47.1450 C   0  0  0  0  0  0  0  0  0  0  0  0
   59.0400   33.2610   46.3560 C   0  0  0  0  0  0  0  0  0  0  0  0
   59.4480   34.9660   46.4400 Cl  0  0  0  0  0  0  0  0  0  0  0  0
   58.0300   32.8250   45.5010 C   0  0  0  0  0  0  0  0  0  0  0  0
   57.6910   31.4680   45.4180 C   0  0  0  0  0  0  0  0  0  0  0  0
   56.6370   31.1210   44.5080 N   0  0  0  0  0  0  0  0  0  0  0  0
   56.2070   29.8000   44.2170 C   0  0  0  0  0  0  0  0  0  0  0  0
   55.2680   29.6080   43.4020 O   0  0  0  0  0  0  0  0  0  0  0  0
   56.9860   28.4600   44.9850 S   0  0  0  0  0  0  0  0  0  0  0  0
   55.9460   27.5850   45.6280 O   0  0  0  0  0  0  0  0  0  0  0  0
   57.7760   27.6770   43.9750 O   0  0  0  0  0  0  0  0  0  0  0  0
   59.0300   25.6360   46.7330 N   0  0  0  0  0  0  0  0  0  0  0  0
   57.7720   25.1470   47.2810 C   0  0  0  0  0  0  0  0  0  0  0  0
   56.8690   24.7370   46.1610 C   0  0  0  0  0  0  0  0  0  0  0  0
   57.3970   24.2060   44.9750 C   0  0  0  0  0  0  0  0  0  0  0  0
   56.5270   23.8030   43.9600 C   0  0  0  0  0  0  0  0  0  0  0  0
   55.1470   23.9240   44.1370 C   0  0  0  0  0  0  0  0  0  0  0  0
   54.6570   24.4450   45.3360 C   0  0  0  0  0  0  0  0  0  0  0  0
   55.5180   24.8340   46.3140 N   0  0  0  0  0  0  0  0  0  0  0  0
   57.7866   27.7152   47.7667 H   0  0  0  0  0  0  0  0  0  0  0  0
   59.3283   28.6569   47.8041 H   0  0  0  0  0  0  0  0  0  0  0  0
   59.9494   30.2711   47.7132 H   0  0  0  0  0  0  0  0  0  0  0  0
   60.5243   32.6834   47.8188 H   0  0  0  0  0  0  0  0  0  0  0  0
   57.4907   33.5570   44.8819 H   0  0  0  0  0  0  0  0  0  0  0  0
   57.9666   24.2814   47.9313 H   0  0  0  0  0  0  0  0  0  0  0  0
   57.2918   25.9441   47.8675 H   0  0  0  0  0  0  0  0  0  0  0  0
   58.4850   24.1081   44.8459 H   0  0  0  0  0  0  0  0  0  0  0  0
   56.9280   23.3908   43.0223 H   0  0  0  0  0  0  0  0  0  0  0  0
   54.4544   23.6125   43.3412 H   0  0  0  0  0  0  0  0  0  0  0  0
   53.5721   24.5410   45.4899 H   0  0  0  0  0  0  0  0  0  0  0  0
  1  2  2  0
  2  3  1  0
  3  4  1  0
  4  5  1  0
  5  6  2  0
  6  7  1  0
  7  8  2  0
  8  9  1  0
  8 10  1  0
 10 11  2  0
 11 12  1  0
 12 13  1  0
 13 14  2  0
 13 15  1  0
 15 16  2  0
 15 17  2  0
  2 18  1  0
 18 19  1  0
 19 20  1  0
 20 21  2  0
 21 22  1  0
 22 23  2  0
 23 24  1  0
 24 25  2  0
 15  4  1  0
 25 20  1  0
 11  5  1  0
  3 26  1  0
  3 27  1  0
  6 28  1  0
  7 29  1  0
 10 30  1  0
 19 31  1  0
 19 32  1  0
 21 33  1  0
 22 34  1  0
 23 35  1  0
 24 36  1  0
M  CHG  2  12  -1  18  -1
M  END
>  <UniqueID>  (13) 
13

>  <SMILES>  (13) 
O=C(CN1c2ccc(Cl)cc2[N-]C(=O)S1(=O)=O)[N-]Cc1ccccn1

>  <Energy>  (13) 
42.78508743336263

>  <Genealogy>  (13) 
O=C(CN1c2ccc(Cl)cc2[N-]C(=O)S1(=O)=O)[N-]Cc1ccccn1 (protonated)
O=C(CN1c2ccc(Cl)cc2[N-]C(=O)S1(=O)=O)[N-]Cc1ccccn1 (3D coordinates assigned)
O=C(CN1c2ccc(Cl)cc2[N-]C(=O)S1(=O)=O)[N-]Cc1ccccn1 (nonaromatic ring conformer: 42.78508743336263 kcal/mol)

>  <smiles>  (13) 
O=C(CN1c2ccc(Cl)cc2NC(=O)S1(=O)=O)NCc1ccccn1

>  <score_type>  (13) 
oracle

>  <origin>  (13) 
adg

>  <m_score__min__energy>  (13) 
-11.800000000000001

>  <m_primary>  (13) 
energy

$$$$
13:0
     RDKit          3D

 43 45  0  0  0  0  0  0  0  0999 V2000
   55.4710   29.7250   42.9000 O   0  0  0  0  0  0  0  0  0  0  0  0
   56.0780   29.8950   43.9920 C   0  0  0  0  0  0  0  0  0  0  0  0
   55.8860   28.9960   45.0980 N   0  0  0  0  0  0  0  0  0  0  0  0
   56.6930   28.0510   45.4910 C   0  0  0  0  0  0  0  0  0  0  0  0
   58.0470   28.2140   45.4470 N   0  0  0  0  0  0  0  0  0  0  0  0
   58.9040   27.2400   45.8530 C   0  0  0  0  0  0  0  0  0  0  0  0
   58.4070   26.0270   46.3330 C   0  0  0  0  0  0  0  0  0  0  0  0
   57.0280   25.8300   46.3890 C   0  0  0  0  0  0  0  0  0  0  0  0
   56.1620   26.8430   45.9680 C   0  0  0  0  0  0  0  0  0  0  0  0
   54.7860   26.6450   46.0240 O   0  0  0  0  0  0  0  0  0  0  0  0
   56.9980   31.0280   44.1380 C   0  0  0  0  0  0  0  0  0  0  0  0
   58.0380   31.0810   43.4280 O   0  0  0  0  0  0  0  0  0  0  0  0
   56.7310   32.0350   45.1230 N   0  0  0  0  0  0  0  0  0  0  0  0
   57.7050   32.7730   45.8760 C   0  0  0  0  0  0  0  0  0  0  0  0
   58.3490   33.8520   45.2640 C   0  0  0  0  0  0  0  0  0  0  0  0
   59.3200   34.5810   45.9520 C   0  0  0  0  0  0  0  0  0  0  0  0
   59.6760   34.2250   47.2560 C   0  0  0  0  0  0  0  0  0  0  0  0
   60.6450   34.9700   47.9180 O   0  0  0  0  0  0  0  0  0  0  0  0
   59.0580   33.1240   47.8770 C   0  0  0  0  0  0  0  0  0  0  0  0
   59.5100   32.6160   49.5120 S   0  0  0  0  0  0  0  0  0  0  0  0
   59.7240   33.8310   50.3700 O   0  0  0  0  0  0  0  0  0  0  0  0
   58.3700   31.8370   50.1080 O   0  0  0  0  0  0  0  0  0  0  0  0
   60.9540   31.6220   49.5410 N   0  0  0  0  0  0  0  0  0  0  0  0
   60.7090   30.2500   49.0580 C   0  0  0  0  0  0  0  0  0  0  0  0
   60.7800   30.1260   47.5170 C   0  0  0  0  0  0  0  0  0  0  0  0
   61.1780   31.3240   46.8840 O   0  0  0  0  0  0  0  0  0  0  0  0
   62.3700   31.7920   47.4690 C   0  0  0  0  0  0  0  0  0  0  0  0
   62.1190   32.2730   48.9090 C   0  0  0  0  0  0  0  0  0  0  0  0
   58.0750   32.4020   47.1810 C   0  0  0  0  0  0  0  0  0  0  0  0
   59.9900   27.4078   45.8033 H   0  0  0  0  0  0  0  0  0  0  0  0
   59.0957   25.2355   46.6633 H   0  0  0  0  0  0  0  0  0  0  0  0
   56.6222   24.8788   46.7639 H   0  0  0  0  0  0  0  0  0  0  0  0
   58.0884   34.1288   44.2318 H   0  0  0  0  0  0  0  0  0  0  0  0
   59.8072   35.4392   45.4661 H   0  0  0  0  0  0  0  0  0  0  0  0
   61.4658   29.5838   49.4979 H   0  0  0  0  0  0  0  0  0  0  0  0
   59.6889   29.9729   49.3622 H   0  0  0  0  0  0  0  0  0  0  0  0
   61.5036   29.3378   47.2619 H   0  0  0  0  0  0  0  0  0  0  0  0
   59.7677   29.8860   47.1596 H   0  0  0  0  0  0  0  0  0  0  0  0
   63.1085   30.9769   47.4845 H   0  0  0  0  0  0  0  0  0  0  0  0
   62.7462   32.6379   46.8749 H   0  0  0  0  0  0  0  0  0  0  0  0
   63.0125   32.0543   49.5122 H   0  0  0  0  0  0  0  0  0  0  0  0
   61.9079   33.3516   48.8631 H   0  0  0  0  0  0  0  0  0  0  0  0
   57.5903   31.5389   47.6607 H   0  0  0  0  0  0  0  0  0  0  0  0
  1  2  2  0
  2  3  1  0
  3  4  2  3
  4  5  1  0
  5  6  1  0
  6  7  2  0
  7  8  1  0
  8  9  2  0
  9 10  1  0
  2 11  1  0
 11 12  2  0
 11 13  1  0
 13 14  1  0
 14 15  2  0
 15 16  1  0
 16 17  2  0
 17 18  1  0
 17 19  1  0
 19 20  1  0
 20 21  2  0
 20 22  2  0
 20 23  1  0
 23 24  1  0
 24 25  1  0
 25 26  1  0
 26 27  1  0
 27 28  1  0
 19 29  2  0
  9  4  1  0
 29 14  1  0
 28 23  1  0
  6 30  1  0
  7 31  1  0
  8 32  1  0
 15 33  1  0
 16 34  1  0
 24 35  1  0
 24 36  1  0
 25 37  1  0
 25 38  1  0
 27 39  1  0
 27 40  1  0
 28 41  1  0
 28 42  1  0
 29 43  1  0
M  CHG  4   5  -1  10  -1  13  -1  18  -1
M  END
>  <UniqueID>  (14) 
14

>  <SMILES>  (14) 
O=C(N=c1[n-]cccc1[O-])C(=O)[N-]c1ccc([O-])c(S(=O)(=O)N2CCOCC2)c1

>  <Energy>  (14) 
62.4529130099706

>  <Genealogy>  (14) 
O=C(N=c1[n-]cccc1[O-])C(=O)[N-]c1ccc([O-])c(S(=O)(=O)N2CCOCC2)c1 (protonated)
O=C(N=c1[n-]cccc1[O-])C(=O)[N-]c1ccc([O-])c(S(=O)(=O)N2CCOCC2)c1 (3D coordinates assigned)
O=C(N=c1[n-]cccc1[O-])C(=O)[N-]c1ccc([O-])c(S(=O)(=O)N2CCOCC2)c1 (nonaromatic ring conformer: 62.4529130099706 kcal/mol)

>  <smiles>  (14) 
O=C(N=c1[nH]cccc1O)C(=O)Nc1ccc(O)c(S(=O)(=O)N2CCOCC2)c1

>  <score_type>  (14) 
oracle

>  <origin>  (14) 
adg

>  <m_score__min__energy>  (14) 
-16.25

>  <m_primary>  (14) 
energy

$$$$
14:0
     RDKit          3D

 40 42  0  0  0  0  0  0  0  0999 V2000
   55.9980   30.9850   44.5620 O   0  0  0  0  0  0  0  0  0  0  0  0
   57.2420   31.0550   44.7560 C   0  0  0  0  0  0  0  0  0  0  0  0
   58.0900   29.9000   44.2930 C   0  0  0  0  0  0  0  0  0  0  0  0
   59.1790   29.3210   45.6420 S   0  0  0  0  0  0  0  0  0  0  0  0
   58.3310   27.7600   45.8650 C   0  0  0  0  0  0  0  0  0  0  0  0
   59.0450   26.6190   46.0310 N   0  0  0  0  0  0  0  0  0  0  0  0
   58.4280   25.4190   46.1630 C   0  0  0  0  0  0  0  0  0  0  0  0
   59.1290   24.3820   46.3070 O   0  0  0  0  0  0  0  0  0  0  0  0
   57.0230   25.3430   46.1220 C   0  0  0  0  0  0  0  0  0  0  0  0
   56.2940   24.0270   46.2680 C   0  0  0  0  0  0  0  0  0  0  0  0
   56.5460   23.1370   45.0790 C   0  0  0  0  0  0  0  0  0  0  0  0
   57.3100   21.9660   45.2150 C   0  0  0  0  0  0  0  0  0  0  0  0
   57.5410   21.1400   44.1120 C   0  0  0  0  0  0  0  0  0  0  0  0
   57.0110   21.4780   42.8630 C   0  0  0  0  0  0  0  0  0  0  0  0
   56.2500   22.6420   42.7170 C   0  0  0  0  0  0  0  0  0  0  0  0
   56.0160   23.4680   43.8190 C   0  0  0  0  0  0  0  0  0  0  0  0
   56.3070   26.5430   45.9700 C   0  0  0  0  0  0  0  0  0  0  0  0
   54.9180   26.5410   45.9330 O   0  0  0  0  0  0  0  0  0  0  0  0
   56.9760   27.7170   45.8480 N   0  0  0  0  0  0  0  0  0  0  0  0
   57.8190   32.3050   45.3180 C   0  0  0  0  0  0  0  0  0  0  0  0
   58.1200   33.3760   44.4540 C   0  0  0  0  0  0  0  0  0  0  0  0
   58.7080   34.5450   44.9500 C   0  0  0  0  0  0  0  0  0  0  0  0
   58.9970   34.6630   46.3100 C   0  0  0  0  0  0  0  0  0  0  0  0
   58.6880   33.6190   47.1800 C   0  0  0  0  0  0  0  0  0  0  0  0
   58.1000   32.4470   46.6920 C   0  0  0  0  0  0  0  0  0  0  0  0
   57.4353   29.0744   43.9772 H   0  0  0  0  0  0  0  0  0  0  0  0
   58.7145   30.2333   43.4511 H   0  0  0  0  0  0  0  0  0  0  0  0
   56.6458   23.5197   47.1784 H   0  0  0  0  0  0  0  0  0  0  0  0
   55.2146   24.2289   46.3329 H   0  0  0  0  0  0  0  0  0  0  0  0
   57.7290   21.6977   46.1960 H   0  0  0  0  0  0  0  0  0  0  0  0
   58.1396   20.2242   44.2262 H   0  0  0  0  0  0  0  0  0  0  0  0
   57.1928   20.8277   41.9946 H   0  0  0  0  0  0  0  0  0  0  0  0
   55.8352   22.9075   41.7334 H   0  0  0  0  0  0  0  0  0  0  0  0
   55.4145   24.3814   43.7008 H   0  0  0  0  0  0  0  0  0  0  0  0
   54.3750   26.7130   46.7720 H   0  0  0  0  0  0  0  0  0  0  0  0
   57.8911   33.2928   43.3813 H   0  0  0  0  0  0  0  0  0  0  0  0
   58.9431   35.3735   44.2656 H   0  0  0  0  0  0  0  0  0  0  0  0
   59.4683   35.5793   46.6951 H   0  0  0  0  0  0  0  0  0  0  0  0
   58.9071   33.7167   48.2535 H   0  0  0  0  0  0  0  0  0  0  0  0
   57.8550   31.6297   47.3862 H   0  0  0  0  0  0  0  0  0  0  0  0
  1  2  2  0
  2  3  1  0
  3  4  1  0
  4  5  1  0
  5  6  2  0
  6  7  1  0
  7  8  2  0
  7  9  1  0
  9 10  1  0
 10 11  1  0
 11 12  2  0
 12 13  1  0
 13 14  2  0
 14 15  1  0
 15 16  2  0
  9 17  2  0
 17 18  1  0
 17 19  1  0
  2 20  1  0
 20 21  2  0
 21 22  1  0
 22 23  2  0
 23 24  1  0
 24 25  2  0
 19  5  1  0
 25 20  1  0
 16 11  1  0
  3 26  1  0
  3 27  1  0
 10 28  1  0
 10 29  1  0
 12 30  1  0
 13 31  1  0
 14 32  1  0
 15 33  1  0
 16 34  1  0
 18 35  1  0
 21 36  1  0
 22 37  1  0
 23 38  1  0
 24 39  1  0
 25 40  1  0
M  CHG  1  19  -1
M  END
>  <UniqueID>  (15) 
15

>  <SMILES>  (15) 
O=C(CSc1nc(=O)c(Cc2ccccc2)c(O)[n-]1)c1ccccc1

>  <Energy>  (15) 
39.86711263427547

>  <Genealogy>  (15) 
O=C(CSc1nc(=O)c(Cc2ccccc2)c(O)[n-]1)c1ccccc1 (protonated)
O=C(CSc1nc(=O)c(Cc2ccccc2)c(O)[n-]1)c1ccccc1 (3D coordinates assigned)
O=C(CSc1nc(=O)c(Cc2ccccc2)c(O)[n-]1)c1ccccc1 (optimized conformer: 39.86711263427547 kcal/mol)

>  <smiles>  (15) 
O=C(CSc1nc(=O)c(Cc2ccccc2)c(O)[nH]1)c1ccccc1

>  <score_type>  (15) 
oracle

>  <origin>  (15) 
adg

>  <m_score__min__energy>  (15) 
-11.300000000000001

>  <m_primary>  (15) 
energy

$$$$
15:0
     RDKit          3D

 46 49  0  0  0  0  0  0  0  0999 V2000
   55.3170   30.3850   44.5130 O   0  0  0  0  0  0  0  0  0  0  0  0
   56.5380   30.4450   44.2100 C   0  0  0  0  0  0  0  0  0  0  0  0
   57.0120   29.6670   43.1040 N   0  0  0  0  0  0  0  0  0  0  0  0
   57.3990   28.2640   43.1780 C   0  0  0  0  0  0  0  0  0  0  0  0
   58.0800   28.0050   44.4920 C   0  0  0  0  0  0  0  0  0  0  0  0
   59.4780   28.1060   44.5920 C   0  0  0  0  0  0  0  0  0  0  0  0
   60.1200   27.8360   45.8050 C   0  0  0  0  0  0  0  0  0  0  0  0
   59.3730   27.4520   46.9220 C   0  0  0  0  0  0  0  0  0  0  0  0
   57.9840   27.3320   46.8270 C   0  0  0  0  0  0  0  0  0  0  0  0
   57.3360   27.6010   45.6170 C   0  0  0  0  0  0  0  0  0  0  0  0
   55.9880   27.4660   45.5410 F   0  0  0  0  0  0  0  0  0  0  0  0
   57.4240   31.3410   44.9790 C   0  0  0  0  0  0  0  0  0  0  0  0
   57.2680   32.7310   44.8790 C   0  0  0  0  0  0  0  0  0  0  0  0
   58.0950   33.5910   45.6090 C   0  0  0  0  0  0  0  0  0  0  0  0
   59.0820   33.0680   46.4640 C   0  0  0  0  0  0  0  0  0  0  0  0
   59.9380   33.8890   47.2160 C   0  0  0  0  0  0  0  0  0  0  0  0
   59.8460   35.1450   47.1130 O   0  0  0  0  0  0  0  0  0  0  0  0
   60.8720   33.3290   48.0560 N   0  0  0  0  0  0  0  0  0  0  0  0
   60.9900   31.9590   48.1310 C   0  0  0  0  0  0  0  0  0  0  0  0
   60.1690   31.1600   47.4010 N   0  0  0  0  0  0  0  0  0  0  0  0
   59.2220   31.6740   46.5810 C   0  0  0  0  0  0  0  0  0  0  0  0
   58.3940   30.8160   45.8480 C   0  0  0  0  0  0  0  0  0  0  0  0
   62.0560   31.3060   48.9820 C   0  0  0  0  0  0  0  0  0  0  0  0
   63.5020   31.5720   48.4990 C   0  0  0  0  0  0  0  0  0  0  0  0
   64.0750   32.9670   48.8280 C   0  0  0  0  0  0  0  0  0  0  0  0
   63.2240   34.1360   48.2990 C   0  0  0  0  0  0  0  0  0  0  0  0
   61.7850   34.1840   48.8430 C   0  0  0  0  0  0  0  0  0  0  0  0
   56.5030   27.6310   43.0975 H   0  0  0  0  0  0  0  0  0  0  0  0
   58.0877   28.0279   42.3534 H   0  0  0  0  0  0  0  0  0  0  0  0
   60.0701   28.3987   43.7124 H   0  0  0  0  0  0  0  0  0  0  0  0
   61.2138   27.9260   45.8798 H   0  0  0  0  0  0  0  0  0  0  0  0
   59.8787   27.2441   47.8765 H   0  0  0  0  0  0  0  0  0  0  0  0
   57.3986   27.0251   47.7063 H   0  0  0  0  0  0  0  0  0  0  0  0
   56.4902   33.1477   44.2222 H   0  0  0  0  0  0  0  0  0  0  0  0
   57.9731   34.6801   45.5142 H   0  0  0  0  0  0  0  0  0  0  0  0
   58.5035   29.7265   45.9531 H   0  0  0  0  0  0  0  0  0  0  0  0
   61.9594   31.6874   50.0092 H   0  0  0  0  0  0  0  0  0  0  0  0
   61.8941   30.2201   48.9146 H   0  0  0  0  0  0  0  0  0  0  0  0
   64.1567   30.8202   48.9639 H   0  0  0  0  0  0  0  0  0  0  0  0
   63.4649   31.5160   47.4011 H   0  0  0  0  0  0  0  0  0  0  0  0
   64.1495   33.0609   49.9214 H   0  0  0  0  0  0  0  0  0  0  0  0
   65.0528   33.0345   48.3286 H   0  0  0  0  0  0  0  0  0  0  0  0
   63.7252   35.0759   48.5735 H   0  0  0  0  0  0  0  0  0  0  0  0
   63.1397   33.9908   47.2119 H   0  0  0  0  0  0  0  0  0  0  0  0
   61.7871   33.8365   49.8867 H   0  0  0  0  0  0  0  0  0  0  0  0
   61.4273   35.2218   48.7726 H   0  0  0  0  0  0  0  0  0  0  0  0
  1  2  2  0
  2  3  1  0
  3  4  1  0
  4  5  1  0
  5  6  2  0
  6  7  1  0
  7  8  2  0
  8  9  1  0
  9 10  2  0
 10 11  1  0
  2 12  1  0
 12 13  2  0
 13 14  1  0
 14 15  2  0
 15 16  1  0
 16 17  2  0
 16 18  1  0
 18 19  1  0
 19 20  2  0
 20 21  1  0
 21 22  2  0
 19 23  1  0
 23 24  1  0
 24 25  1  0
 25 26  1  0
 26 27  1  0
 10  5  1  0
 22 12  1  0
 21 15  1  0
 27 18  1  0
  4 28  1  0
  4 29  1  0
  6 30  1  0
  7 31  1  0
  8 32  1  0
  9 33  1  0
 13 34  1  0
 14 35  1  0
 22 36  1  0
 23 37  1  0
 23 38  1  0
 24 39  1  0
 24 40  1  0
 25 41  1  0
 25 42  1  0
 26 43  1  0
 26 44  1  0
 27 45  1  0
 27 46  1  0
M  CHG  1   3  -1
M  END
>  <UniqueID>  (16) 
16

>  <SMILES>  (16) 
O=C([N-]Cc1ccccc1F)c1ccc2c(=O)n3c(nc2c1)CCCCC3

>  <Energy>  (16) 
66.41187864154267

>  <Genealogy>  (16) 
O=C([N-]Cc1ccccc1F)c1ccc2c(=O)n3c(nc2c1)CCCCC3 (protonated)
O=C([N-]Cc1ccccc1F)c1ccc2c(=O)n3c(nc2c1)CCCCC3 (3D coordinates assigned)
O=C([N-]Cc1ccccc1F)c1ccc2c(=O)n3c(nc2c1)CCCCC3 (nonaromatic ring conformer: 66.41187864154267 kcal/mol)

>  <smiles>  (16) 
O=C(NCc1ccccc1F)c1ccc2c(=O)n3c(nc2c1)CCCCC3

>  <score_type>  (16) 
oracle

>  <origin>  (16) 
adg

>  <m_score__min__energy>  (16) 
-8.3200000000000003

>  <m_primary>  (16) 
energy

$$$$
16:0
     RDKit          3D

 38 40  0  0  0  0  0  0  0  0999 V2000
   58.5060   29.8490   47.3800 O   0  0  0  0  0  0  0  0  0  0  0  0
   59.5350   30.0470   46.6770 C   0  0  0  0  0  0  0  0  0  0  0  0
   60.7590   30.6240   47.3220 C   0  0  0  0  0  0  0  0  0  0  0  0
   60.6390   32.0420   47.4370 O   0  0  0  0  0  0  0  0  0  0  0  0
   59.6780   32.8320   46.7830 C   0  0  0  0  0  0  0  0  0  0  0  0
   59.9480   33.5180   45.5820 C   0  0  0  0  0  0  0  0  0  0  0  0
   58.9520   34.2790   44.9650 C   0  0  0  0  0  0  0  0  0  0  0  0
   57.6830   34.3720   45.5430 C   0  0  0  0  0  0  0  0  0  0  0  0
   57.4100   33.7050   46.7380 C   0  0  0  0  0  0  0  0  0  0  0  0
   58.4030   32.9400   47.3580 C   0  0  0  0  0  0  0  0  0  0  0  0
   58.1250   32.2930   48.5160 F   0  0  0  0  0  0  0  0  0  0  0  0
   59.5290   29.7310   45.2780 N   0  0  0  0  0  0  0  0  0  0  0  0
   58.3610   29.1550   44.6030 C   0  0  1  0  0  0  0  0  0  0  0  0
   57.8350   27.9540   45.3680 C   0  0  0  0  0  0  0  0  0  0  0  0
   58.7120   27.0030   45.9130 C   0  0  0  0  0  0  0  0  0  0  0  0
   58.2080   25.8940   46.5930 C   0  0  0  0  0  0  0  0  0  0  0  0
   56.8270   25.7300   46.7050 C   0  0  0  0  0  0  0  0  0  0  0  0
   55.9860   26.6350   46.1370 N   0  0  0  0  0  0  0  0  0  0  0  0
   56.4490   27.7210   45.4630 C   0  0  0  0  0  0  0  0  0  0  0  0
   55.5380   28.6080   44.8820 O   0  0  0  0  0  0  0  0  0  0  0  0
   55.9500   29.6220   43.9660 C   0  0  0  0  0  0  0  0  0  0  0  0
   57.2780   30.2480   44.4130 C   0  0  1  0  0  0  0  0  0  0  0  0
   57.0970   31.0160   45.5800 O   0  0  0  0  0  0  0  0  0  0  0  0
   60.8802   30.1879   48.3246 H   0  0  0  0  0  0  0  0  0  0  0  0
   61.6350   30.3892   46.6995 H   0  0  0  0  0  0  0  0  0  0  0  0
   60.9479   33.4540   45.1281 H   0  0  0  0  0  0  0  0  0  0  0  0
   59.1668   34.8055   44.0234 H   0  0  0  0  0  0  0  0  0  0  0  0
   56.8994   34.9710   45.0560 H   0  0  0  0  0  0  0  0  0  0  0  0
   56.4115   33.7811   47.1933 H   0  0  0  0  0  0  0  0  0  0  0  0
   60.4270   29.8020   44.7450 H   0  0  0  0  0  0  0  0  0  0  0  0
   58.6554   28.7923   43.6071 H   0  0  0  0  0  0  0  0  0  0  0  0
   59.7989   27.1325   45.8037 H   0  0  0  0  0  0  0  0  0  0  0  0
   58.8927   25.1561   47.0365 H   0  0  0  0  0  0  0  0  0  0  0  0
   56.4184   24.8682   47.2530 H   0  0  0  0  0  0  0  0  0  0  0  0
   56.0780   29.1771   42.9682 H   0  0  0  0  0  0  0  0  0  0  0  0
   55.1802   30.4073   43.9372 H   0  0  0  0  0  0  0  0  0  0  0  0
   57.6314   30.9275   43.6234 H   0  0  0  0  0  0  0  0  0  0  0  0
   56.7010   30.4290   46.2750 H   0  0  0  0  0  0  0  0  0  0  0  0
  1  2  2  0
  2  3  1  0
  3  4  1  0
  4  5  1  0
  5  6  2  0
  6  7  1  0
  7  8  2  0
  8  9  1  0
  9 10  2  0
 10 11  1  0
  2 12  1  0
 12 13  1  0
 13 14  1  0
 14 15  2  0
 15 16  1  0
 16 17  2  0
 17 18  1  0
 18 19  2  0
 19 20  1  0
 20 21  1  0
 21 22  1  0
 22 23  1  0
 10  5  1  0
 22 13  1  0
 19 14  1  0
  3 24  1  0
  3 25  1  0
  6 26  1  0
  7 27  1  0
  8 28  1  0
  9 29  1  0
 12 30  1  0
 13 31  1  6
 15 32  1  0
 16 33  1  0
 17 34  1  0
 21 35  1  0
 21 36  1  0
 22 37  1  6
 23 38  1  0
M  END
>  <UniqueID>  (17) 
17

>  <SMILES>  (17) 
O=C(COc1ccccc1F)N[C@H]1c2cccnc2OC[C@H]1O

>  <Energy>  (17) 
40.6851620503525

>  <Genealogy>  (17) 
O=C(COc1ccccc1F)N[C@H]1c2cccnc2OC[C@H]1O (chirality)
O=C(COc1ccccc1F)N[C@H]1c2cccnc2OC[C@H]1O (3D coordinates assigned)
O=C(COc1ccccc1F)N[C@H]1c2cccnc2OC[C@H]1O (nonaromatic ring conformer: 40.6851620503525 kcal/mol)

>  <smiles>  (17) 
O=C(COc1ccccc1F)NC1c2cccnc2OCC1O

>  <score_type>  (17) 
oracle

>  <origin>  (17) 
adg

>  <m_score__min__energy>  (17) 
-7.3399999999999999

>  <m_primary>  (17) 
energy

$$$$
17:0
     RDKit          3D

 42 44  0  0  0  0  0  0  0  0999 V2000
   58.1020   32.6790   51.3210 O   0  0  0  0  0  0  0  0  0  0  0  0
   57.4570   31.5980   51.3940 C   0  0  0  0  0  0  0  0  0  0  0  0
   56.3030   31.4850   52.3390 C   0  0  0  0  0  0  0  0  0  0  0  0
   55.3260   30.5110   51.8470 N   0  0  0  0  0  0  0  0  0  0  0  0
   53.9170   30.5970   52.1300 C   0  0  0  0  0  0  0  0  0  0  0  0
   53.2860   29.7200   53.0350 C   0  0  0  0  0  0  0  0  0  0  0  0
   51.9160   29.8330   53.2900 C   0  0  0  0  0  0  0  0  0  0  0  0
   51.1600   30.8170   52.6470 C   0  0  0  0  0  0  0  0  0  0  0  0
   51.7740   31.6900   51.7470 C   0  0  0  0  0  0  0  0  0  0  0  0
   51.0230   32.6690   51.1070 O   0  0  0  0  0  0  0  0  0  0  0  0
   53.1460   31.5810   51.4890 C   0  0  0  0  0  0  0  0  0  0  0  0
   57.8420   30.4580   50.6160 N   0  0  0  0  0  0  0  0  0  0  0  0
   58.5230   30.4960   49.3200 C   0  0  1  0  0  0  0  0  0  0  0  0
   59.7070   31.4840   49.3310 C   0  0  0  0  0  0  0  0  0  0  0  0
   59.4310   32.6730   48.4550 C   0  0  0  0  0  0  0  0  0  0  0  0
   59.6080   34.0110   48.7950 C   0  0  0  0  0  0  0  0  0  0  0  0
   59.1890   34.8120   47.7890 N   0  0  0  0  0  0  0  0  0  0  0  0
   58.7400   33.9920   46.8240 C   0  0  0  0  0  0  0  0  0  0  0  0
   58.1900   34.3550   45.5950 C   0  0  0  0  0  0  0  0  0  0  0  0
   57.7630   33.3250   44.7350 C   0  0  0  0  0  0  0  0  0  0  0  0
   57.8920   31.9720   45.1210 C   0  0  0  0  0  0  0  0  0  0  0  0
   58.4490   31.6360   46.3680 C   0  0  0  0  0  0  0  0  0  0  0  0
   58.8660   32.6780   47.1950 C   0  0  0  0  0  0  0  0  0  0  0  0
   58.9340   29.1100   48.9010 C   0  0  0  0  0  0  0  0  0  0  0  0
   58.4060   28.5500   47.9040 O   0  0  0  0  0  0  0  0  0  0  0  0
   59.9460   28.4570   49.5920 O   0  0  0  0  0  0  0  0  0  0  0  0
   56.6723   31.1608   53.3231 H   0  0  0  0  0  0  0  0  0  0  0  0
   55.8141   32.4671   52.4201 H   0  0  0  0  0  0  0  0  0  0  0  0
   55.6620   29.7150   51.2570 H   0  0  0  0  0  0  0  0  0  0  0  0
   53.8747   28.9423   53.5435 H   0  0  0  0  0  0  0  0  0  0  0  0
   51.4317   29.1453   53.9989 H   0  0  0  0  0  0  0  0  0  0  0  0
   50.0823   30.9035   52.8498 H   0  0  0  0  0  0  0  0  0  0  0  0
   53.6240   32.2715   50.7786 H   0  0  0  0  0  0  0  0  0  0  0  0
   57.8157   30.8720   48.5662 H   0  0  0  0  0  0  0  0  0  0  0  0
   59.8765   31.8293   50.3615 H   0  0  0  0  0  0  0  0  0  0  0  0
   60.5967   30.9656   48.9442 H   0  0  0  0  0  0  0  0  0  0  0  0
   60.0290   34.3666   49.7470 H   0  0  0  0  0  0  0  0  0  0  0  0
   59.2000   35.8560   47.7760 H   0  0  0  0  0  0  0  0  0  0  0  0
   58.0928   35.4121   45.3066 H   0  0  0  0  0  0  0  0  0  0  0  0
   57.3264   33.5753   43.7569 H   0  0  0  0  0  0  0  0  0  0  0  0
   57.5544   31.1757   44.4414 H   0  0  0  0  0  0  0  0  0  0  0  0
   58.5521   30.5863   46.6803 H   0  0  0  0  0  0  0  0  0  0  0  0
  1  2  2  0
  2  3  1  0
  3  4  1  0
  4  5  1  0
  5  6  2  0
  6  7  1  0
  7  8  2  0
  8  9  1  0
  9 10  1  0
  9 11  2  0
  2 12  1  0
 12 13  1  0
 13 14  1  0
 14 15  1  0
 15 16  2  0
 16 17  1  0
 17 18  1  0
 18 19  2  0
 19 20  1  0
 20 21  2  0
 21 22  1  0
 22 23  2  0
 13 24  1  0
 24 25  2  0
 24 26  1  0
 11  5  1  0
 23 15  1  0
 23 18  1  0
  3 27  1  0
  3 28  1  0
  4 29  1  0
  6 30  1  0
  7 31  1  0
  8 32  1  0
 11 33  1  0
 13 34  1  6
 14 35  1  0
 14 36  1  0
 16 37  1  0
 17 38  1  0
 19 39  1  0
 20 40  1  0
 21 41  1  0
 22 42  1  0
M  CHG  3  10  -1  12  -1  26  -1
M  END
>  <UniqueID>  (18) 
18

>  <SMILES>  (18) 
O=C(CNc1cccc([O-])c1)[N-][C@@H](Cc1c[nH]c2ccccc12)C(=O)[O-]

>  <Energy>  (18) 
72.5980645253383

>  <Genealogy>  (18) 
O=C(CNc1cccc([O-])c1)[N-]C(Cc1c[nH]c2ccccc12)C(=O)[O-] (protonated)
O=C(CNc1cccc([O-])c1)[N-][C@@H](Cc1c[nH]c2ccccc12)C(=O)[O-] (chirality)
O=C(CNc1cccc([O-])c1)[N-][C@@H](Cc1c[nH]c2ccccc12)C(=O)[O-] (3D coordinates assigned)
O=C(CNc1cccc([O-])c1)[N-][C@@H](Cc1c[nH]c2ccccc12)C(=O)[O-] (optimized conformer: 72.5980645253383 kcal/mol)

>  <smiles>  (18) 
O=C(CNc1cccc(O)c1)NC(Cc1c[nH]c2ccccc12)C(=O)O

>  <score_type>  (18) 
oracle

>  <origin>  (18) 
adg

>  <m_score__min__energy>  (18) 
-14.119999999999999

>  <m_primary>  (18) 
energy

$$$$
18:0
     RDKit          3D

 33 35  0  0  0  0  0  0  0  0999 V2000
   58.2120   33.6120   44.4860 C   0  0  0  0  0  0  0  0  0  0  0  0
   57.9530   32.3150   44.6870 C   0  0  0  0  0  0  0  0  0  0  0  0
   57.2830   31.5650   43.7080 C   0  0  0  0  0  0  0  0  0  0  0  0
   57.0110   30.2090   43.9170 C   0  0  0  0  0  0  0  0  0  0  0  0
   57.4040   29.5700   45.1110 C   0  0  0  0  0  0  0  0  0  0  0  0
   57.1410   28.2590   45.3130 C   0  0  0  0  0  0  0  0  0  0  0  0
   55.9090   27.7850   45.6160 N   0  0  0  0  0  0  0  0  0  0  0  0
   56.0990   26.4610   45.7310 C   0  0  0  0  0  0  0  0  0  0  0  0
   55.1820   25.6600   46.0520 O   0  0  0  0  0  0  0  0  0  0  0  0
   57.4230   26.1470   45.4910 C   0  0  0  0  0  0  0  0  0  0  0  0
   58.0300   24.9500   45.5250 C   0  0  0  0  0  0  0  0  0  0  0  0
   57.4660   23.7040   44.9650 C   0  0  0  0  0  0  0  0  0  0  0  0
   57.1250   23.6230   43.6050 C   0  0  0  0  0  0  0  0  0  0  0  0
   56.6380   22.4270   43.0690 C   0  0  0  0  0  0  0  0  0  0  0  0
   56.5080   21.2940   43.8820 C   0  0  0  0  0  0  0  0  0  0  0  0
   56.0240   20.0970   43.3590 O   0  0  0  0  0  0  0  0  0  0  0  0
   56.8720   21.3620   45.2300 C   0  0  0  0  0  0  0  0  0  0  0  0
   57.3590   22.5570   45.7710 C   0  0  0  0  0  0  0  0  0  0  0  0
   57.7240   22.5990   47.1130 O   0  0  0  0  0  0  0  0  0  0  0  0
   58.0850   27.2890   45.2370 N   0  0  0  0  0  0  0  0  0  0  0  0
   58.0770   30.3330   46.0890 C   0  0  0  0  0  0  0  0  0  0  0  0
   58.3470   31.6870   45.8780 C   0  0  0  0  0  0  0  0  0  0  0  0
   58.7375   34.1939   45.2575 H   0  0  0  0  0  0  0  0  0  0  0  0
   57.8995   34.0965   43.5492 H   0  0  0  0  0  0  0  0  0  0  0  0
   56.9697   32.0468   42.7701 H   0  0  0  0  0  0  0  0  0  0  0  0
   56.4844   29.6343   43.1409 H   0  0  0  0  0  0  0  0  0  0  0  0
   59.0184   24.8925   46.0042 H   0  0  0  0  0  0  0  0  0  0  0  0
   57.2417   24.5050   42.9582 H   0  0  0  0  0  0  0  0  0  0  0  0
   56.3565   22.3758   42.0069 H   0  0  0  0  0  0  0  0  0  0  0  0
   56.5770   19.2480   43.3790 H   0  0  0  0  0  0  0  0  0  0  0  0
   56.7751   20.4716   45.8686 H   0  0  0  0  0  0  0  0  0  0  0  0
   58.3926   29.8558   47.0285 H   0  0  0  0  0  0  0  0  0  0  0  0
   58.8728   32.2656   46.6518 H   0  0  0  0  0  0  0  0  0  0  0  0
  1  2  2  0
  2  3  1  0
  3  4  2  0
  4  5  1  0
  5  6  2  3
  6  7  1  0
  7  8  1  0
  8  9  2  0
  8 10  1  0
 10 11  2  3
 11 12  1  0
 12 13  2  0
 13 14  1  0
 14 15  2  0
 15 16  1  0
 15 17  1  0
 17 18  2  0
 18 19  1  0
 10 20  1  0
  5 21  1  0
 21 22  2  0
 22  2  1  0
 20  6  1  0
 18 12  1  0
  1 23  1  0
  1 24  1  0
  3 25  1  0
  4 26  1  0
 11 27  1  0
 13 28  1  0
 14 29  1  0
 16 30  1  0
 17 31  1  0
 21 32  1  0
 22 33  1  0
M  CHG  3   7  -1  19  -1  20  -1
M  END
>  <UniqueID>  (19) 
19

>  <SMILES>  (19) 
C=c1ccc(=c2[n-]c(=O)c(=Cc3ccc(O)cc3[O-])[n-]2)cc1

>  <Energy>  (19) 
78.21564491602322

>  <Genealogy>  (19) 
C=c1ccc(=c2[n-]c(=O)c(=Cc3ccc(O)cc3[O-])[n-]2)cc1 (protonated)
C=c1ccc(=c2[n-]c(=O)c(=Cc3ccc(O)cc3[O-])[n-]2)cc1 (3D coordinates assigned)
C=c1ccc(=c2[n-]c(=O)c(=Cc3ccc(O)cc3[O-])[n-]2)cc1 (optimized conformer: 78.21564491602322 kcal/mol)

>  <smiles>  (19) 
C=c1ccc(=c2[nH]c(=O)c(=Cc3ccc(O)cc3O)[nH]2)cc1

>  <score_type>  (19) 
oracle

>  <origin>  (19) 
adg

>  <m_score__min__energy>  (19) 
-14.01

>  <m_primary>  (19) 
energy

$$$$
19:0
     RDKit          3D

 55 57  0  0  0  0  0  0  0  0999 V2000
   63.8180   33.0990   46.7860 C   0  0  0  0  0  0  0  0  0  0  0  0
   63.3850   32.4250   48.0190 N   0  0  0  0  0  0  0  0  0  0  0  0
   63.6000   33.2840   49.2110 C   0  0  0  0  0  0  0  0  0  0  0  0
   62.2970   33.9210   49.7150 C   0  0  0  0  0  0  0  0  0  0  0  0
   61.3110   32.8870   50.1050 N   0  0  0  0  0  0  0  0  0  0  0  0
   59.9560   33.4700   50.1780 C   0  0  0  0  0  0  0  0  0  0  0  0
   59.3620   33.5930   48.7990 C   0  0  0  0  0  0  0  0  0  0  0  0
   59.8150   34.5790   47.9080 C   0  0  0  0  0  0  0  0  0  0  0  0
   59.2690   34.6740   46.6250 C   0  0  0  0  0  0  0  0  0  0  0  0
   58.2590   33.7890   46.2160 C   0  0  0  0  0  0  0  0  0  0  0  0
   57.6880   33.8670   44.8270 C   0  0  0  0  0  0  0  0  0  0  0  0
   56.9900   32.6260   44.4960 N   0  0  0  0  0  0  0  0  0  0  0  0
   57.4590   31.7260   43.4820 C   0  0  0  0  0  0  0  0  0  0  0  0
   58.4730   32.0150   42.7920 O   0  0  0  0  0  0  0  0  0  0  0  0
   56.7160   30.4590   43.2050 C   0  0  0  0  0  0  0  0  0  0  0  0
   56.1540   29.7340   44.7780 S   0  0  0  0  0  0  0  0  0  0  0  0
   57.8050   29.2130   45.2650 C   0  0  0  0  0  0  0  0  0  0  0  0
   58.3630   29.7670   46.4250 C   0  0  0  0  0  0  0  0  0  0  0  0
   59.6420   29.3900   46.8430 C   0  0  0  0  0  0  0  0  0  0  0  0
   60.3710   28.4560   46.1060 C   0  0  0  0  0  0  0  0  0  0  0  0
   59.8230   27.8940   44.9500 C   0  0  0  0  0  0  0  0  0  0  0  0
   58.5380   28.2630   44.5190 C   0  0  0  0  0  0  0  0  0  0  0  0
   58.0020   27.6690   43.3290 N   0  0  0  0  0  0  0  0  0  0  0  0
   57.8070   32.8020   47.1060 C   0  0  0  0  0  0  0  0  0  0  0  0
   58.3540   32.7060   48.3890 C   0  0  0  0  0  0  0  0  0  0  0  0
   61.3560   31.6720   49.2490 C   0  0  0  0  0  0  0  0  0  0  0  0
   61.9920   31.9440   47.8790 C   0  0  0  0  0  0  0  0  0  0  0  0
   64.3960   33.9987   47.0436 H   0  0  0  0  0  0  0  0  0  0  0  0
   64.4466   32.4158   46.1960 H   0  0  0  0  0  0  0  0  0  0  0  0
   62.9353   33.3867   46.1960 H   0  0  0  0  0  0  0  0  0  0  0  0
   64.0278   32.6696   50.0169 H   0  0  0  0  0  0  0  0  0  0  0  0
   64.2809   34.0975   48.9202 H   0  0  0  0  0  0  0  0  0  0  0  0
   62.5202   34.5514   50.5884 H   0  0  0  0  0  0  0  0  0  0  0  0
   61.8665   34.5235   48.9015 H   0  0  0  0  0  0  0  0  0  0  0  0
   59.3147   32.8208   50.7922 H   0  0  0  0  0  0  0  0  0  0  0  0
   60.0223   34.4713   50.6285 H   0  0  0  0  0  0  0  0  0  0  0  0
   60.6030   35.2797   48.2211 H   0  0  0  0  0  0  0  0  0  0  0  0
   59.6328   35.4467   45.9317 H   0  0  0  0  0  0  0  0  0  0  0  0
   56.9803   34.7073   44.7720 H   0  0  0  0  0  0  0  0  0  0  0  0
   58.5086   34.0186   44.1103 H   0  0  0  0  0  0  0  0  0  0  0  0
   56.1130   32.3950   45.0150 H   0  0  0  0  0  0  0  0  0  0  0  0
   55.8454   30.6753   42.5684 H   0  0  0  0  0  0  0  0  0  0  0  0
   57.3785   29.7491   42.6882 H   0  0  0  0  0  0  0  0  0  0  0  0
   57.7911   30.5026   47.0096 H   0  0  0  0  0  0  0  0  0  0  0  0
   60.0744   29.8299   47.7538 H   0  0  0  0  0  0  0  0  0  0  0  0
   61.3784   28.1617   46.4355 H   0  0  0  0  0  0  0  0  0  0  0  0
   60.4019   27.1575   44.3735 H   0  0  0  0  0  0  0  0  0  0  0  0
   57.1180   27.1140   43.3370 H   0  0  0  0  0  0  0  0  0  0  0  0
   58.4920   27.7820   42.4140 H   0  0  0  0  0  0  0  0  0  0  0  0
   57.0192   32.1012   46.7926 H   0  0  0  0  0  0  0  0  0  0  0  0
   57.9926   31.9312   49.0811 H   0  0  0  0  0  0  0  0  0  0  0  0
   61.9445   30.8986   49.7643 H   0  0  0  0  0  0  0  0  0  0  0  0
   60.3201   31.3438   49.0783 H   0  0  0  0  0  0  0  0  0  0  0  0
   61.9914   31.0134   47.2925 H   0  0  0  0  0  0  0  0  0  0  0  0
   61.4046   32.7237   47.3720 H   0  0  0  0  0  0  0  0  0  0  0  0
  1  2  1  0
  2  3  1  0
  3  4  1  0
  4  5  1  0
  5  6  1  0
  6  7  1  0
  7  8  2  0
  8  9  1  0
  9 10  2  0
 10 11  1  0
 11 12  1  0
 12 13  1  0
 13 14  2  0
 13 15  1  0
 15 16  1  0
 16 17  1  0
 17 18  2  0
 18 19  1  0
 19 20  2  0
 20 21  1  0
 21 22  2  0
 22 23  1  0
 10 24  1  0
 24 25  2  0
  5 26  1  0
 26 27  1  0
 27  2  1  0
 25  7  1  0
 22 17  1  0
  1 28  1  0
  1 29  1  0
  1 30  1  0
  3 31  1  0
  3 32  1  0
  4 33  1  0
  4 34  1  0
  6 35  1  0
  6 36  1  0
  8 37  1  0
  9 38  1  0
 11 39  1  0
 11 40  1  0
 12 41  1  0
 15 42  1  0
 15 43  1  0
 18 44  1  0
 19 45  1  0
 20 46  1  0
 21 47  1  0
 23 48  1  0
 23 49  1  0
 24 50  1  0
 25 51  1  0
 26 52  1  0
 26 53  1  0
 27 54  1  0
 27 55  1  0
M  END
>  <UniqueID>  (20) 
20

>  <SMILES>  (20) 
CN1CCN(Cc2ccc(CNC(=O)CSc3ccccc3N)cc2)CC1

>  <Energy>  (20) 
59.669847797337546

>  <Genealogy>  (20) 
CN1CCN(Cc2ccc(CNC(=O)CSc3ccccc3N)cc2)CC1 (3D coordinates assigned)
CN1CCN(Cc2ccc(CNC(=O)CSc3ccccc3N)cc2)CC1 (nonaromatic ring conformer: 59.669847797337546 kcal/mol)

>  <smiles>  (20) 
CN1CCN(Cc2ccc(CNC(=O)CSc3ccccc3N)cc2)CC1

>  <score_type>  (20) 
oracle

>  <origin>  (20) 
adg

>  <m_score__min__energy>  (20) 
-10.27

>  <m_primary>  (20) 
energy

$$$$
20:0
     RDKit          3D

 17 17  0  0  0  0  0  0  0  0999 V2000
   57.6960   26.1280   44.5440 C   0  0  0  0  0  0  0  0  0  0  0  0
   56.9960   27.1190   45.8440 S   0  0  0  0  0  0  0  0  0  0  0  0
   55.5320   26.8030   45.9690 O   0  0  0  0  0  0  0  0  0  0  0  0
   57.6680   26.7930   47.1490 O   0  0  0  0  0  0  0  0  0  0  0  0
   57.2200   28.8070   45.4720 N   0  0  0  0  0  0  0  0  0  0  0  0
   58.3810   29.4270   45.8320 C   0  0  0  0  0  0  0  0  0  0  0  0
   58.5770   30.7770   45.5520 C   0  0  0  0  0  0  0  0  0  0  0  0
   57.5620   31.4760   44.9040 C   0  0  0  0  0  0  0  0  0  0  0  0
   57.7060   32.6970   44.6340 O   0  0  0  0  0  0  0  0  0  0  0  0
   56.4150   30.8380   44.5660 N   0  0  0  0  0  0  0  0  0  0  0  0
   56.2330   29.5200   44.8440 C   0  0  0  0  0  0  0  0  0  0  0  0
   55.1480   28.9690   44.5190 O   0  0  0  0  0  0  0  0  0  0  0  0
   58.2778   25.3044   44.9836 H   0  0  0  0  0  0  0  0  0  0  0  0
   56.8880   25.7151   43.9221 H   0  0  0  0  0  0  0  0  0  0  0  0
   58.3552   26.7515   43.9221 H   0  0  0  0  0  0  0  0  0  0  0  0
   59.1678   28.8563   46.3471 H   0  0  0  0  0  0  0  0  0  0  0  0
   59.5130   31.2800   45.8365 H   0  0  0  0  0  0  0  0  0  0  0  0
  1  2  1  0
  2  3  2  0
  2  4  2  0
  2  5  1  0
  5  6  1  0
  6  7  2  0
  7  8  1  0
  8  9  2  0
  8 10  1  0
 10 11  1  0
 11 12  2  0
 11  5  1  0
  1 13  1  0
  1 14  1  0
  1 15  1  0
  6 16  1  0
  7 17  1  0
M  CHG  1  10  -1
M  END
>  <UniqueID>  (21) 
21

>  <SMILES>  (21) 
CS(=O)(=O)n1ccc(=O)[n-]c1=O

>  <Energy>  (21) 
15.516199831182576

>  <Genealogy>  (21) 
CS(=O)(=O)n1ccc(=O)[n-]c1=O (protonated)
CS(=O)(=O)n1ccc(=O)[n-]c1=O (3D coordinates assigned)
CS(=O)(=O)n1ccc(=O)[n-]c1=O (optimized conformer: 15.516199831182576 kcal/mol)

>  <smiles>  (21) 
CS(=O)(=O)n1ccc(=O)[nH]c1=O

>  <score_type>  (21) 
oracle

>  <origin>  (21) 
adg

>  <m_score__min__energy>  (21) 
-7.0800000000000001

>  <m_primary>  (21) 
energy

$$$$
21:0
     RDKit          3D

 51 53  0  0  0  0  0  0  0  0999 V2000
   60.3859   26.2550   46.5384 H   0  0  0  0  0  0  0  0  0  0  0  0
   59.2950   26.3930   46.5070 C   0  0  0  0  0  0  0  0  0  0  0  0
   58.4210   25.3570   46.6080 N   0  0  0  0  0  0  0  0  0  0  0  0
   57.1370   25.7730   46.5630 C   0  0  0  0  0  0  0  0  0  0  0  0
   56.1490   24.9270   46.6300 N   0  0  0  0  0  0  0  0  0  0  0  0
   54.9400   24.8790   45.8540 C   0  0  0  0  0  0  0  0  0  0  0  0
   54.3100   25.9510   45.6570 O   0  0  0  0  0  0  0  0  0  0  0  0
   54.4220   23.6200   45.2320 C   0  0  0  0  0  0  0  0  0  0  0  0
   54.1311   22.9130   46.0229 H   0  0  0  0  0  0  0  0  0  0  0  0
   53.5465   23.8526   44.6080 H   0  0  0  0  0  0  0  0  0  0  0  0
   55.2077   23.1691   44.6080 H   0  0  0  0  0  0  0  0  0  0  0  0
   57.0320   27.4510   46.3730 S   0  0  0  0  0  0  0  0  0  0  0  0
   58.7010   27.6390   46.3610 C   0  0  0  0  0  0  0  0  0  0  0  0
   59.5720   29.1990   46.2620 S   0  0  0  0  0  0  0  0  0  0  0  0
   58.4370   29.8980   45.0490 C   0  0  0  0  0  0  0  0  0  0  0  0
   57.9130   29.0260   44.0840 C   0  0  0  0  0  0  0  0  0  0  0  0
   58.2159   27.9685   44.0849 H   0  0  0  0  0  0  0  0  0  0  0  0
   57.0130   29.4840   43.1240 C   0  0  0  0  0  0  0  0  0  0  0  0
   56.5966   28.7863   42.3825 H   0  0  0  0  0  0  0  0  0  0  0  0
   56.6410   30.8260   43.1040 C   0  0  0  0  0  0  0  0  0  0  0  0
   55.9279   31.1867   42.3481 H   0  0  0  0  0  0  0  0  0  0  0  0
   57.1710   31.7140   44.0410 C   0  0  0  0  0  0  0  0  0  0  0  0
   56.8825   32.7749   44.0060 H   0  0  0  0  0  0  0  0  0  0  0  0
   58.0710   31.2710   45.0320 C   0  0  0  0  0  0  0  0  0  0  0  0
   58.6430   32.2650   45.9830 C   0  0  0  0  0  0  0  0  0  0  0  0
   58.4060   32.1640   47.2170 O   0  0  0  0  0  0  0  0  0  0  0  0
   59.4950   33.3250   45.5130 N   0  0  0  0  0  0  0  0  0  0  0  0
   59.5590   33.5130   44.4880 H   0  0  0  0  0  0  0  0  0  0  0  0
   60.0610   34.3340   46.4050 C   0  0  0  0  0  0  0  0  0  0  0  0
   59.3217   34.6008   47.1746 H   0  0  0  0  0  0  0  0  0  0  0  0
   60.3244   35.2320   45.8269 H   0  0  0  0  0  0  0  0  0  0  0  0
   61.2840   33.7820   47.0580 C   0  0  0  0  0  0  0  0  0  0  0  0
   62.8380   33.8350   46.4250 S   0  0  0  0  0  0  0  0  0  0  0  0
   63.5410   32.8660   47.6060 C   0  0  0  0  0  0  0  0  0  0  0  0
   64.6088   32.6111   47.6753 H   0  0  0  0  0  0  0  0  0  0  0  0
   62.5450   32.4400   48.4820 C   0  0  0  0  0  0  0  0  0  0  0  0
   62.8110   31.4810   49.5730 C   0  0  0  0  0  0  0  0  0  0  0  0
   63.9610   31.4620   50.0880 O   0  0  0  0  0  0  0  0  0  0  0  0
   61.8410   30.5290   50.0420 N   0  0  0  0  0  0  0  0  0  0  0  0
   60.9330   29.6950   49.2540 C   0  0  0  0  0  0  0  0  0  0  0  0
   61.3213   28.6660   49.2332 H   0  0  0  0  0  0  0  0  0  0  0  0
   60.8753   30.1145   48.2388 H   0  0  0  0  0  0  0  0  0  0  0  0
   59.5200   29.6810   49.8470 C   0  0  0  0  0  0  0  0  0  0  0  0
   59.5473   29.1832   50.8275 H   0  0  0  0  0  0  0  0  0  0  0  0
   58.8574   29.1398   49.1556 H   0  0  0  0  0  0  0  0  0  0  0  0
   58.9810   31.0990   50.0230 C   0  0  0  0  0  0  0  0  0  0  0  0
   58.8941   31.3277   51.0954 H   0  0  0  0  0  0  0  0  0  0  0  0
   59.6699   31.8144   49.5502 H   0  0  0  0  0  0  0  0  0  0  0  0
   57.9908   31.1762   49.5502 H   0  0  0  0  0  0  0  0  0  0  0  0
   61.2870   32.9890   48.1950 C   0  0  0  0  0  0  0  0  0  0  0  0
   60.3929   32.8086   48.8099 H   0  0  0  0  0  0  0  0  0  0  0  0
  1  2  1  0
  2  3  1  0
  3  4  1  0
  4  5  2  0
  5  6  1  0
  6  7  2  0
  6  8  1  0
  8  9  1  0
  8 10  1  0
  8 11  1  0
  4 12  1  0
 12 13  1  0
 13 14  1  0
 14 15  1  0
 15 16  2  0
 16 17  1  0
 16 18  1  0
 18 19  1  0
 18 20  2  0
 20 21  1  0
 20 22  1  0
 22 23  1  0
 22 24  2  0
 24 25  1  0
 25 26  2  0
 25 27  1  0
 27 28  1  0
 27 29  1  0
 29 30  1  0
 29 31  1  0
 29 32  1  0
 32 33  1  0
 33 34  1  0
 34 35  1  0
 34 36  2  0
 36 37  1  0
 37 38  2  0
 37 39  1  0
 39 40  1  0
 40 41  1  0
 40 42  1  0
 40 43  1  0
 43 44  1  0
 43 45  1  0
 43 46  1  0
 46 47  1  0
 46 48  1  0
 46 49  1  0
 36 50  1  0
 50 51  1  0
 13  2  2  0
 24 15  1  0
 50 32  2  0
M  CHG  2   3  -1  39  -1
M  END
>  <UniqueID>  (22) 
22

>  <SMILES>  (22) 
CCC[N-]C(=O)c1csc(CNC(=O)c2ccccc2Sc2c[n-]/c(=N/C(C)=O)s2)c1

>  <Energy>  (22) 
104.78410889059862

>  <Genealogy>  (22) 
CCC[N-]C(=O)c1csc(CNC(=O)c2ccccc2Sc2c[n-]c(=NC(C)=O)s2)c1 (protonated)
CCC[N-]C(=O)c1csc(CNC(=O)c2ccccc2Sc2c[n-]/c(=N/C(C)=O)s2)c1 (cis-trans isomerization)
CCC[N-]C(=O)c1csc(CNC(=O)c2ccccc2Sc2c[n-]/c(=N/C(C)=O)s2)c1 (3D coordinates assigned)
CCC[N-]C(=O)c1csc(CNC(=O)c2ccccc2Sc2c[n-]/c(=N/C(C)=O)s2)c1 (optimized conformer: 104.78410889059862 kcal/mol)

>  <smiles>  (22) 
CCCNC(=O)c1csc(CNC(=O)c2ccccc2Sc2c[nH]c(=NC(C)=O)s2)c1

>  <score_type>  (22) 
oracle

>  <origin>  (22) 
adg

>  <m_score__min__energy>  (22) 
-12.449999999999999

>  <m_primary>  (22) 
energy

$$$$
22:0
     RDKit          3D

 55 58  0  0  0  0  0  0  0  0999 V2000
   54.9920   20.3770   47.0670 C   0  0  0  0  0  0  0  0  0  0  0  0
   54.9030   21.8020   46.6990 N   0  0  0  0  0  0  0  0  0  0  0  0
   55.9820   22.6290   46.9180 C   0  0  0  0  0  0  0  0  0  0  0  0
   57.0380   22.1960   47.4550 O   0  0  0  0  0  0  0  0  0  0  0  0
   55.8780   23.9610   46.5330 C   0  0  0  0  0  0  0  0  0  0  0  0
   54.7470   24.4170   45.9480 C   0  0  0  0  0  0  0  0  0  0  0  0
   54.8340   25.7390   45.7000 N   0  0  0  0  0  0  0  0  0  0  0  0
   56.0730   26.0520   46.1610 C   0  0  0  0  0  0  0  0  0  0  0  0
   56.7390   24.9850   46.6700 N   0  0  0  0  0  0  0  0  0  0  0  0
   58.0480   25.0090   47.3250 C   0  0  0  0  0  0  0  0  0  0  0  0
   59.1490   24.8530   46.3210 C   0  0  0  0  0  0  0  0  0  0  0  0
   59.5280   23.7030   45.9710 O   0  0  0  0  0  0  0  0  0  0  0  0
   59.8340   26.0160   45.8430 N   0  0  0  0  0  0  0  0  0  0  0  0
   59.2020   27.1730   45.2800 C   0  0  0  0  0  0  0  0  0  0  0  0
   58.3790   27.0830   44.1460 C   0  0  0  0  0  0  0  0  0  0  0  0
   57.7590   28.2270   43.6350 C   0  0  0  0  0  0  0  0  0  0  0  0
   57.9580   29.4720   44.2440 C   0  0  0  0  0  0  0  0  0  0  0  0
   57.1680   30.9050   43.5880 S   0  0  0  0  0  0  0  0  0  0  0  0
   58.1060   31.6250   42.6610 O   0  0  0  0  0  0  0  0  0  0  0  0
   55.9440   30.5100   42.8110 O   0  0  0  0  0  0  0  0  0  0  0  0
   56.6790   31.9540   44.8790 N   0  0  0  0  0  0  0  0  0  0  0  0
   57.5860   32.8060   45.5840 C   0  0  0  0  0  0  0  0  0  0  0  0
   57.7730   33.9920   45.2010 O   0  0  0  0  0  0  0  0  0  0  0  0
   58.2450   32.3110   46.7580 N   0  0  0  0  0  0  0  0  0  0  0  0
   59.3900   32.9390   47.3600 C   0  0  0  0  0  0  0  0  0  0  0  0
   60.5990   33.0060   46.6470 C   0  0  0  0  0  0  0  0  0  0  0  0
   61.7170   33.6320   47.2050 C   0  0  0  0  0  0  0  0  0  0  0  0
   61.6350   34.2120   48.4740 C   0  0  0  0  0  0  0  0  0  0  0  0
   60.4310   34.1740   49.1830 C   0  0  0  0  0  0  0  0  0  0  0  0
   59.3100   33.5460   48.6290 C   0  0  0  0  0  0  0  0  0  0  0  0
   58.7700   29.5610   45.3850 C   0  0  0  0  0  0  0  0  0  0  0  0
   59.3780   28.4140   45.9050 C   0  0  0  0  0  0  0  0  0  0  0  0
   53.6860   23.6080   45.6840 N   0  0  0  0  0  0  0  0  0  0  0  0
   52.4680   24.1580   45.0700 C   0  0  0  0  0  0  0  0  0  0  0  0
   53.7660   22.2890   46.0760 C   0  0  0  0  0  0  0  0  0  0  0  0
   52.7870   21.5170   45.8650 O   0  0  0  0  0  0  0  0  0  0  0  0
   54.9980   20.2810   48.1628 H   0  0  0  0  0  0  0  0  0  0  0  0
   54.1258   19.8375   46.6564 H   0  0  0  0  0  0  0  0  0  0  0  0
   55.9186   19.9494   46.6564 H   0  0  0  0  0  0  0  0  0  0  0  0
   56.4938   27.0677   46.1252 H   0  0  0  0  0  0  0  0  0  0  0  0
   58.1713   25.9682   47.8491 H   0  0  0  0  0  0  0  0  0  0  0  0
   58.1005   24.1731   48.0381 H   0  0  0  0  0  0  0  0  0  0  0  0
   58.2217   26.1096   43.6583 H   0  0  0  0  0  0  0  0  0  0  0  0
   57.1111   28.1486   42.7495 H   0  0  0  0  0  0  0  0  0  0  0  0
   57.8320   31.4730   47.2280 H   0  0  0  0  0  0  0  0  0  0  0  0
   60.6659   32.5626   45.6426 H   0  0  0  0  0  0  0  0  0  0  0  0
   62.6629   33.6683   46.6446 H   0  0  0  0  0  0  0  0  0  0  0  0
   62.5178   34.6983   48.9147 H   0  0  0  0  0  0  0  0  0  0  0  0
   60.3646   34.6385   50.1779 H   0  0  0  0  0  0  0  0  0  0  0  0
   58.3621   33.5261   49.1867 H   0  0  0  0  0  0  0  0  0  0  0  0
   58.9286   30.5348   45.8713 H   0  0  0  0  0  0  0  0  0  0  0  0
   59.9983   28.4869   46.8105 H   0  0  0  0  0  0  0  0  0  0  0  0
   51.7697   24.4733   45.8593 H   0  0  0  0  0  0  0  0  0  0  0  0
   52.7313   25.0246   44.4457 H   0  0  0  0  0  0  0  0  0  0  0  0
   51.9920   23.3875   44.4457 H   0  0  0  0  0  0  0  0  0  0  0  0
  1  2  1  0
  2  3  1  0
  3  4  2  0
  3  5  1  0
  5  6  2  0
  6  7  1  0
  7  8  2  0
  8  9  1  0
  9 10  1  0
 10 11  1  0
 11 12  2  0
 11 13  1  0
 13 14  1  0
 14 15  2  0
 15 16  1  0
 16 17  2  0
 17 18  1  0
 18 19  2  0
 18 20  2  0
 18 21  1  0
 21 22  1  0
 22 23  2  0
 22 24  1  0
 24 25  1  0
 25 26  2  0
 26 27  1  0
 27 28  2  0
 28 29  1  0
 29 30  2  0
 17 31  1  0
 31 32  2  0
  6 33  1  0
 33 34  1  0
 33 35  1  0
 35 36  2  0
 35  2  1  0
  9  5  1  0
 32 14  1  0
 30 25  1  0
  1 37  1  0
  1 38  1  0
  1 39  1  0
  8 40  1  0
 10 41  1  0
 10 42  1  0
 15 43  1  0
 16 44  1  0
 24 45  1  0
 26 46  1  0
 27 47  1  0
 28 48  1  0
 29 49  1  0
 30 50  1  0
 31 51  1  0
 32 52  1  0
 34 53  1  0
 34 54  1  0
 34 55  1  0
M  CHG  2  13  -1  21  -1
M  END
>  <UniqueID>  (23) 
23

>  <SMILES>  (23) 
Cn1c(=O)c2c(ncn2CC(=O)[N-]c2ccc(S(=O)(=O)[N-]C(=O)Nc3ccccc3)cc2)n(C)c1=O

>  <Energy>  (23) 
112.98216800236641

>  <Genealogy>  (23) 
Cn1c(=O)c2c(ncn2CC(=O)[N-]c2ccc(S(=O)(=O)[N-]C(=O)Nc3ccccc3)cc2)n(C)c1=O (protonated)
Cn1c(=O)c2c(ncn2CC(=O)[N-]c2ccc(S(=O)(=O)[N-]C(=O)Nc3ccccc3)cc2)n(C)c1=O (3D coordinates assigned)
Cn1c(=O)c2c(ncn2CC(=O)[N-]c2ccc(S(=O)(=O)[N-]C(=O)Nc3ccccc3)cc2)n(C)c1=O (optimized conformer: 112.98216800236641 kcal/mol)

>  <smiles>  (23) 
Cn1c(=O)c2c(ncn2CC(=O)Nc2ccc(S(=O)(=O)NC(=O)Nc3ccccc3)cc2)n(C)c1=O

>  <score_type>  (23) 
oracle

>  <origin>  (23) 
adg

>  <m_score__min__energy>  (23) 
-11.48

>  <m_primary>  (23) 
energy

$$$$
23:0
     RDKit          3D

 34 35  0  0  1  0  0  0  0  0999 V2000
   57.5060   33.0300   44.6600 N   0  0  0  0  0  0  0  0  0  0  0  0
   58.3170   33.2980   46.1870 S   0  0  0  0  0  0  0  0  0  0  0  0
   57.8250   32.1890   47.0780 O   0  0  0  0  0  0  0  0  0  0  0  0
   57.8490   34.5970   46.7250 O   0  0  0  0  0  0  0  0  0  0  0  0
   60.0360   33.1530   45.9690 C   0  0  0  0  0  0  0  0  0  0  0  0
   60.8360   32.5650   47.0850 C   0  0  0  0  0  0  0  0  0  0  0  0
   61.0780   31.0810   47.0410 C   0  0  0  0  0  0  0  0  0  0  0  0
   60.5630   30.3170   46.0160 N   0  0  0  0  0  0  0  0  0  0  0  0
   59.5190   29.6850   45.9080 C   0  0  0  0  0  0  0  0  0  0  0  0
   58.4200   30.2910   45.4170 N   0  0  0  0  0  0  0  0  0  0  0  0
   57.2420   29.6920   45.2210 C   0  0  0  0  0  0  0  0  0  0  0  0
   56.2300   30.2860   44.7590 O   0  0  0  0  0  0  0  0  0  0  0  0
   57.1450   28.3930   45.5370 N   0  0  0  0  0  0  0  0  0  0  0  0
   55.9400   27.7460   45.3430 O   0  0  0  0  0  0  0  0  0  0  0  0
   58.2170   27.7530   46.0290 C   0  0  0  0  0  0  0  0  0  0  0  0
   58.0540   26.4190   46.3390 C   0  0  0  0  0  0  0  0  0  0  0  0
   56.5150   25.6310   46.0800 Cl  0  0  0  0  0  0  0  0  0  0  0  0
   59.1580   25.7780   46.8500 C   0  0  0  0  0  0  0  0  0  0  0  0
   60.3700   26.3530   47.0680 C   0  0  0  0  0  0  0  0  0  0  0  0
   60.5280   27.7200   46.7470 C   0  0  0  0  0  0  0  0  0  0  0  0
   59.4440   28.3580   46.2410 C   0  0  0  0  0  0  0  0  0  0  0  0
   57.9980   33.4770   43.8770 H   0  0  0  0  0  0  0  0  0  0  0  0
   57.2080   32.0570   44.5310 H   0  0  0  0  0  0  0  0  0  0  0  0
   60.2016   32.5249   45.0812 H   0  0  0  0  0  0  0  0  0  0  0  0
   60.3923   34.1908   45.8919 H   0  0  0  0  0  0  0  0  0  0  0  0
   61.8175   33.0617   47.0879 H   0  0  0  0  0  0  0  0  0  0  0  0
   60.2314   32.7301   47.9890 H   0  0  0  0  0  0  0  0  0  0  0  0
   62.1688   30.9403   47.0211 H   0  0  0  0  0  0  0  0  0  0  0  0
   60.5288   30.7153   47.9212 H   0  0  0  0  0  0  0  0  0  0  0  0
   58.4570   31.3180   45.1550 H   0  0  0  0  0  0  0  0  0  0  0  0
   55.1530   28.1720   44.8740 H   0  0  0  0  0  0  0  0  0  0  0  0
   59.0515   24.7128   47.1030 H   0  0  0  0  0  0  0  0  0  0  0  0
   61.2054   25.7700   47.4831 H   0  0  0  0  0  0  0  0  0  0  0  0
   61.4844   28.2414   46.9003 H   0  0  0  0  0  0  0  0  0  0  0  0
  1  2  1  0
  2  3  2  0
  2  4  2  0
  2  5  1  0
  5  6  1  0
  6  7  1  0
  7  8  1  0
  8  9  2  0
  9 10  1  0
 10 11  1  0
 11 12  2  0
 11 13  1  0
 13 14  1  0
 13 15  1  0
 15 16  2  0
 16 17  1  0
 16 18  1  0
 18 19  2  0
 19 20  1  0
 20 21  2  0
 21  9  1  0
 21 15  1  0
  1 22  1  0
  1 23  1  0
  5 24  1  0
  5 25  1  0
  6 26  1  0
  6 27  1  0
  7 28  1  0
  7 29  1  0
 10 30  1  0
 14 31  1  0
 18 32  1  0
 19 33  1  0
 20 34  1  0
M  END
>  <smiles>  (24) 
NS(=O)(=O)CCCN=c1[nH]c(=O)n(O)c2c(Cl)cccc12

>  <score_type>  (24) 
oracle

>  <origin>  (24) 
adg

>  <m_score__min__energy>  (24) 
-7.0300000000000002

>  <m_primary>  (24) 
energy

$$$$
24:0
     RDKit          3D

 44 46  0  0  0  0  0  0  0  0999 V2000
   58.5500   30.4260   47.9880 H   0  0  0  0  0  0  0  0  0  0  0  0
   58.1330   30.7070   47.1100 O   0  0  0  0  0  0  0  0  0  0  0  0
   58.2750   31.9890   46.5720 C   0  0  0  0  0  0  0  0  0  0  0  0
   58.9640   32.9770   47.3090 C   0  0  0  0  0  0  0  0  0  0  0  0
   59.5430   32.7020   48.5920 N   0  0  0  0  0  0  0  0  0  0  0  0
   58.8190   32.3080   49.7640 C   0  0  0  0  0  0  0  0  0  0  0  0
   58.6430   33.1300   50.7010 O   0  0  0  0  0  0  0  0  0  0  0  0
   58.4110   30.9460   49.9510 N   0  0  0  0  0  0  0  0  0  0  0  0
   59.1600   29.8800   50.0160 C   0  0  0  0  0  0  0  0  0  0  0  0
   59.2710   29.1040   48.9030 N   0  0  0  0  0  0  0  0  0  0  0  0
   60.0350   27.9790   48.8700 C   0  0  0  0  0  0  0  0  0  0  0  0
   60.0925   27.3801   47.9491 H   0  0  0  0  0  0  0  0  0  0  0  0
   60.7450   27.5850   50.0030 C   0  0  0  0  0  0  0  0  0  0  0  0
   61.3561   26.6705   49.9871 H   0  0  0  0  0  0  0  0  0  0  0  0
   60.6710   28.3640   51.1560 C   0  0  0  0  0  0  0  0  0  0  0  0
   61.2291   28.0667   52.0561 H   0  0  0  0  0  0  0  0  0  0  0  0
   59.8900   29.5210   51.1710 C   0  0  0  0  0  0  0  0  0  0  0  0
   59.8434   30.1475   52.0740 H   0  0  0  0  0  0  0  0  0  0  0  0
   59.1670   34.2440   46.7460 C   0  0  0  0  0  0  0  0  0  0  0  0
   59.7412   35.0015   47.2996 H   0  0  0  0  0  0  0  0  0  0  0  0
   58.6470   34.5520   45.4900 C   0  0  0  0  0  0  0  0  0  0  0  0
   58.7890   35.5582   45.0689 H   0  0  0  0  0  0  0  0  0  0  0  0
   57.9470   33.5870   44.7660 C   0  0  0  0  0  0  0  0  0  0  0  0
   57.5296   33.8386   43.7799 H   0  0  0  0  0  0  0  0  0  0  0  0
   57.7730   32.3000   45.2880 C   0  0  0  0  0  0  0  0  0  0  0  0
   56.9520   31.0610   44.2710 S   0  0  0  0  0  0  0  0  0  0  0  0
   58.3300   29.8570   44.3170 C   0  0  0  0  0  0  0  0  0  0  0  0
   59.1999   30.3271   44.7989 H   0  0  0  0  0  0  0  0  0  0  0  0
   58.5673   29.5631   43.2839 H   0  0  0  0  0  0  0  0  0  0  0  0
   57.9530   28.6190   45.0870 C   0  0  0  0  0  0  0  0  0  0  0  0
   58.9490   27.7880   45.6170 C   0  0  0  0  0  0  0  0  0  0  0  0
   60.0070   28.0738   45.5225 H   0  0  0  0  0  0  0  0  0  0  0  0
   58.6060   26.5980   46.2650 C   0  0  0  0  0  0  0  0  0  0  0  0
   59.3951   25.9501   46.6743 H   0  0  0  0  0  0  0  0  0  0  0  0
   57.2540   26.2250   46.3960 C   0  0  0  0  0  0  0  0  0  0  0  0
   56.8630   25.0350   47.0280 O   0  0  0  0  0  0  0  0  0  0  0  0
   56.0880   24.0120   46.4130 C   0  0  0  0  0  0  0  0  0  0  0  0
   55.6177   23.3912   47.1898 H   0  0  0  0  0  0  0  0  0  0  0  0
   55.3077   24.4694   45.7869 H   0  0  0  0  0  0  0  0  0  0  0  0
   56.7395   23.3847   45.7869 H   0  0  0  0  0  0  0  0  0  0  0  0
   56.2600   27.0650   45.8780 C   0  0  0  0  0  0  0  0  0  0  0  0
   54.9190   26.7150   45.9990 O   0  0  0  0  0  0  0  0  0  0  0  0
   56.6050   28.2530   45.2280 C   0  0  0  0  0  0  0  0  0  0  0  0
   55.8161   28.9049   44.8247 H   0  0  0  0  0  0  0  0  0  0  0  0
  1  2  1  0
  2  3  1  0
  3  4  2  0
  4  5  1  0
  5  6  1  0
  6  7  2  0
  6  8  1  0
  8  9  2  0
  9 10  1  0
 10 11  1  0
 11 12  1  0
 11 13  2  0
 13 14  1  0
 13 15  1  0
 15 16  1  0
 15 17  2  0
 17 18  1  0
  4 19  1  0
 19 20  1  0
 19 21  2  0
 21 22  1  0
 21 23  1  0
 23 24  1  0
 23 25  2  0
 25 26  1  0
 26 27  1  0
 27 28  1  0
 27 29  1  0
 27 30  1  0
 30 31  2  0
 31 32  1  0
 31 33  1  0
 33 34  1  0
 33 35  2  0
 35 36  1  0
 36 37  1  0
 37 38  1  0
 37 39  1  0
 37 40  1  0
 35 41  1  0
 41 42  1  0
 41 43  2  0
 43 44  1  0
 25  3  1  0
 43 30  1  0
 17  9  1  0
M  CHG  3   5  -1  10  -1  42  -1
M  END
>  <UniqueID>  (25) 
24

>  <SMILES>  (25) 
COc1ccc(CSc2cccc([N-]C(=O)/N=c3\cccc[n-]3)c2O)cc1[O-]

>  <Energy>  (25) 
52.57056370924708

>  <Genealogy>  (25) 
COc1ccc(CSc2cccc([N-]C(=O)N=c3cccc[n-]3)c2O)cc1[O-] (protonated)
COc1ccc(CSc2cccc([N-]C(=O)/N=c3\cccc[n-]3)c2O)cc1[O-] (cis-trans isomerization)
COc1ccc(CSc2cccc([N-]C(=O)/N=c3\cccc[n-]3)c2O)cc1[O-] (3D coordinates assigned)
COc1ccc(CSc2cccc([N-]C(=O)/N=c3\cccc[n-]3)c2O)cc1[O-] (optimized conformer: 52.57056370924708 kcal/mol)

>  <smiles>  (25) 
COc1ccc(CSc2cccc(NC(=O)N=c3cccc[nH]3)c2O)cc1O

>  <score_type>  (25) 
oracle

>  <origin>  (25) 
adg

>  <m_score__min__energy>  (25) 
-13.06

>  <m_primary>  (25) 
energy

$$$$
25:0
     RDKit          3D

 39 41  0  0  0  0  0  0  0  0999 V2000
   58.1320   35.4026   45.3183 H   0  0  0  0  0  0  0  0  0  0  0  0
   58.0950   34.3440   45.6150 C   0  0  0  0  0  0  0  0  0  0  0  0
   57.3200   33.4630   44.9070 N   0  0  0  0  0  0  0  0  0  0  0  0
   57.2600   32.1840   45.2450 C   0  0  0  0  0  0  0  0  0  0  0  0
   56.5400   31.2790   44.6160 N   0  0  0  0  0  0  0  0  0  0  0  0
   56.8970   29.9690   44.6000 C   0  0  0  0  0  0  0  0  0  0  0  0
   55.3560   29.5830   44.5310 O   0  0  0  0  0  0  0  0  0  0  0  0
   57.2700   28.6040   44.5830 C   0  0  0  0  0  0  0  0  0  0  0  0
   56.4284   28.0156   44.1887 H   0  0  0  0  0  0  0  0  0  0  0  0
   58.1653   28.5155   43.9500 H   0  0  0  0  0  0  0  0  0  0  0  0
   57.6370   28.0620   45.9790 C   0  0  0  0  0  0  0  0  0  0  0  0
   58.7011   27.7845   46.0060 H   0  0  0  0  0  0  0  0  0  0  0  0
   57.4615   28.8272   46.7495 H   0  0  0  0  0  0  0  0  0  0  0  0
   56.7960   26.8670   46.2300 C   0  0  0  0  0  0  0  0  0  0  0  0
   55.4920   26.7060   45.9830 N   0  0  0  0  0  0  0  0  0  0  0  0
   55.1720   25.4870   46.3660 N   0  0  0  0  0  0  0  0  0  0  0  0
   56.2410   24.8440   46.8610 C   0  0  0  0  0  0  0  0  0  0  0  0
   56.3370   23.6740   47.3240 O   0  0  0  0  0  0  0  0  0  0  0  0
   57.2660   25.7140   46.7750 N   0  0  0  0  0  0  0  0  0  0  0  0
   57.9970   31.7330   46.3400 C   0  0  0  0  0  0  0  0  0  0  0  0
   57.9442   30.6708   46.6211 H   0  0  0  0  0  0  0  0  0  0  0  0
   58.7870   32.5820   47.0760 C   0  0  0  0  0  0  0  0  0  0  0  0
   59.4790   32.0220   48.1460 O   0  0  0  0  0  0  0  0  0  0  0  0
   60.5840   31.1610   47.9340 C   0  0  0  0  0  0  0  0  0  0  0  0
   60.6518   30.4308   48.7538 H   0  0  0  0  0  0  0  0  0  0  0  0
   60.4665   30.6116   46.9883 H   0  0  0  0  0  0  0  0  0  0  0  0
   61.8070   31.9930   47.8990 C   0  0  0  0  0  0  0  0  0  0  0  0
   61.9900   32.9400   46.8860 C   0  0  0  0  0  0  0  0  0  0  0  0
   61.2229   33.0788   46.1099 H   0  0  0  0  0  0  0  0  0  0  0  0
   63.1590   33.7090   46.8700 C   0  0  0  0  0  0  0  0  0  0  0  0
   63.3182   34.4567   46.0791 H   0  0  0  0  0  0  0  0  0  0  0  0
   64.1230   33.5220   47.8640 C   0  0  0  0  0  0  0  0  0  0  0  0
   65.0406   34.1284   47.8498 H   0  0  0  0  0  0  0  0  0  0  0  0
   63.9410   32.5880   48.8630 C   0  0  0  0  0  0  0  0  0  0  0  0
   65.1810   32.3720   50.1120 Cl  0  0  0  0  0  0  0  0  0  0  0  0
   62.7780   31.8270   48.8730 C   0  0  0  0  0  0  0  0  0  0  0  0
   62.6262   31.0810   49.6670 H   0  0  0  0  0  0  0  0  0  0  0  0
   58.8400   33.9010   46.7150 C   0  0  0  0  0  0  0  0  0  0  0  0
   59.4625   34.6072   47.2840 H   0  0  0  0  0  0  0  0  0  0  0  0
  1  2  1  0
  2  3  1  0
  3  4  1  0
  4  5  2  0
  5  6  1  0
  6  7  2  0
  6  8  1  0
  8  9  1  0
  8 10  1  0
  8 11  1  0
 11 12  1  0
 11 13  1  0
 11 14  1  0
 14 15  2  0
 15 16  1  0
 16 17  1  0
 17 18  2  0
 17 19  1  0
  4 20  1  0
 20 21  1  0
 20 22  2  0
 22 23  1  0
 23 24  1  0
 24 25  1  0
 24 26  1  0
 24 27  1  0
 27 28  2  0
 28 29  1  0
 28 30  1  0
 30 31  1  0
 30 32  2  0
 32 33  1  0
 32 34  1  0
 34 35  1  0
 34 36  2  0
 36 37  1  0
 22 38  1  0
 38 39  1  0
 38  2  2  0
 19 14  1  0
 36 27  1  0
M  CHG  3   3  -1  16  -1  19  -1
M  END
>  <UniqueID>  (26) 
25

>  <SMILES>  (26) 
O=C(CCc1n[n-]c(=O)[n-]1)/N=c1\cc(OCc2cccc(Cl)c2)cc[n-]1

>  <Energy>  (26) 
340.9272789318938

>  <Genealogy>  (26) 
O=C(CCc1n[n-]c(=O)[n-]1)N=c1cc(OCc2cccc(Cl)c2)cc[n-]1 (protonated)
O=C(CCc1n[n-]c(=O)[n-]1)/N=c1\cc(OCc2cccc(Cl)c2)cc[n-]1 (cis-trans isomerization)
O=C(CCc1n[n-]c(=O)[n-]1)/N=c1\cc(OCc2cccc(Cl)c2)cc[n-]1 (3D coordinates assigned)
O=C(CCc1n[n-]c(=O)[n-]1)/N=c1\cc(OCc2cccc(Cl)c2)cc[n-]1 (optimized conformer: 340.9272789318938 kcal/mol)

>  <smiles>  (26) 
O=C(CCc1n[nH]c(=O)[nH]1)N=c1cc(OCc2cccc(Cl)c2)cc[nH]1

>  <score_type>  (26) 
oracle

>  <origin>  (26) 
adg

>  <m_score__min__energy>  (26) 
-14.550000000000001

>  <m_primary>  (26) 
energy

$$$$
26:0
     RDKit          3D

 39 41  0  0  0  0  0  0  0  0999 V2000
   56.7780   29.4980   42.9600 C   0  0  0  0  0  0  0  0  0  0  0  0
   57.4940   30.2540   44.0460 C   0  0  0  0  0  0  0  0  0  0  0  0
   56.9420   31.4570   44.5120 C   0  0  0  0  0  0  0  0  0  0  0  0
   57.5660   32.1800   45.5310 C   0  0  0  0  0  0  0  0  0  0  0  0
   58.7570   31.7120   46.1070 C   0  0  0  0  0  0  0  0  0  0  0  0
   59.4240   32.4650   47.1980 C   0  0  0  0  0  0  0  0  0  0  0  0
   60.3320   31.8930   47.9460 N   0  0  0  0  0  0  0  0  0  0  0  0
   60.9870   32.5720   49.0690 C   0  0  0  0  0  0  0  0  0  0  0  0
   61.0360   34.0890   48.8630 C   0  0  0  0  0  0  0  0  0  0  0  0
   59.6380   34.5990   48.5320 C   0  0  0  0  0  0  0  0  0  0  0  0
   59.0950   33.8520   47.4020 N   0  0  0  0  0  0  0  0  0  0  0  0
   59.3030   30.5010   45.6550 C   0  0  0  0  0  0  0  0  0  0  0  0
   58.6730   29.7600   44.6460 C   0  0  0  0  0  0  0  0  0  0  0  0
   59.4200   28.1990   44.1470 S   0  0  0  0  0  0  0  0  0  0  0  0
   58.3870   27.2260   45.2440 C   0  0  0  0  0  0  0  0  0  0  0  0
   58.9720   26.3280   46.1480 C   0  0  0  0  0  0  0  0  0  0  0  0
   58.1690   25.5750   47.0080 C   0  0  0  0  0  0  0  0  0  0  0  0
   56.7780   25.7060   46.9600 C   0  0  0  0  0  0  0  0  0  0  0  0
   56.1880   26.5890   46.0500 C   0  0  0  0  0  0  0  0  0  0  0  0
   54.8050   26.7140   45.9970 O   0  0  0  0  0  0  0  0  0  0  0  0
   56.9920   27.3460   45.1900 C   0  0  0  0  0  0  0  0  0  0  0  0
   56.0887   28.7702   43.4131 H   0  0  0  0  0  0  0  0  0  0  0  0
   56.2088   30.2031   42.3365 H   0  0  0  0  0  0  0  0  0  0  0  0
   57.5130   28.9679   42.3365 H   0  0  0  0  0  0  0  0  0  0  0  0
   56.0081   31.8345   44.0701 H   0  0  0  0  0  0  0  0  0  0  0  0
   57.1212   33.1220   45.8842 H   0  0  0  0  0  0  0  0  0  0  0  0
   60.5480   30.8780   47.8210 H   0  0  0  0  0  0  0  0  0  0  0  0
   60.4283   32.3554   49.9915 H   0  0  0  0  0  0  0  0  0  0  0  0
   62.0205   32.2017   49.1380 H   0  0  0  0  0  0  0  0  0  0  0  0
   61.3953   34.5732   49.7831 H   0  0  0  0  0  0  0  0  0  0  0  0
   61.7199   34.3260   48.0347 H   0  0  0  0  0  0  0  0  0  0  0  0
   58.9839   34.4656   49.4063 H   0  0  0  0  0  0  0  0  0  0  0  0
   59.6928   35.6659   48.2700 H   0  0  0  0  0  0  0  0  0  0  0  0
   58.5000   34.3570   46.7090 H   0  0  0  0  0  0  0  0  0  0  0  0
   60.2381   30.1283   46.0986 H   0  0  0  0  0  0  0  0  0  0  0  0
   60.0658   26.2162   46.1801 H   0  0  0  0  0  0  0  0  0  0  0  0
   58.6313   24.8788   47.7232 H   0  0  0  0  0  0  0  0  0  0  0  0
   56.1467   25.1138   47.6388 H   0  0  0  0  0  0  0  0  0  0  0  0
   56.5279   28.0364   44.4704 H   0  0  0  0  0  0  0  0  0  0  0  0
  1  2  1  0
  2  3  2  0
  3  4  1  0
  4  5  2  0
  5  6  1  0
  6  7  2  0
  7  8  1  0
  8  9  1  0
  9 10  1  0
 10 11  1  0
  5 12  1  0
 12 13  2  0
 13 14  1  0
 14 15  1  0
 15 16  2  0
 16 17  1  0
 17 18  2  0
 18 19  1  0
 19 20  1  0
 19 21  2  0
 13  2  1  0
 21 15  1  0
 11  6  1  0
  1 22  1  0
  1 23  1  0
  1 24  1  0
  3 25  1  0
  4 26  1  0
  7 27  1  0
  8 28  1  0
  8 29  1  0
  9 30  1  0
  9 31  1  0
 10 32  1  0
 10 33  1  0
 11 34  1  0
 12 35  1  0
 16 36  1  0
 17 37  1  0
 18 38  1  0
 21 39  1  0
M  CHG  2   7   1  20  -1
M  END
>  <UniqueID>  (27) 
26

>  <SMILES>  (27) 
Cc1ccc(C2=[NH+]CCCN2)cc1Sc1cccc([O-])c1

>  <Energy>  (27) 
38.302542336336984

>  <Genealogy>  (27) 
Cc1ccc(C2=[NH+]CCCN2)cc1Sc1cccc([O-])c1 (protonated)
Cc1ccc(C2=[NH+]CCCN2)cc1Sc1cccc([O-])c1 (3D coordinates assigned)
Cc1ccc(C2=[NH+]CCCN2)cc1Sc1cccc([O-])c1 (nonaromatic ring conformer: 38.302542336336984 kcal/mol)

>  <smiles>  (27) 
Cc1ccc(C2=NCCCN2)cc1Sc1cccc(O)c1

>  <score_type>  (27) 
oracle

>  <origin>  (27) 
adg

>  <m_score__min__energy>  (27) 
-9.6999999999999993

>  <m_primary>  (27) 
energy

$$$$
27:0
     RDKit          3D

 28 30  0  0  0  0  0  0  0  0999 V2000
   57.1060   19.8170   45.7620 C   0  0  0  0  0  0  0  0  0  0  0  0
   56.9000   21.1330   45.7990 C   0  0  0  0  0  0  0  0  0  0  0  0
   57.9660   22.1010   45.8710 N   0  0  0  0  0  0  0  0  0  0  0  0
   57.2300   23.3340   45.8870 C   0  0  0  0  0  0  0  0  0  0  0  0
   57.7870   24.5380   45.9510 O   0  0  0  0  0  0  0  0  0  0  0  0
   57.0480   25.6540   45.9600 C   0  0  0  0  0  0  0  0  0  0  0  0
   57.7500   26.9560   46.0230 C   0  0  0  0  0  0  0  0  0  0  0  0
   57.5260   27.9110   45.0160 C   0  0  0  0  0  0  0  0  0  0  0  0
   58.1610   29.1550   45.0670 C   0  0  0  0  0  0  0  0  0  0  0  0
   59.0150   29.4630   46.1310 C   0  0  0  0  0  0  0  0  0  0  0  0
   59.2280   28.5290   47.1480 C   0  0  0  0  0  0  0  0  0  0  0  0
   58.5940   27.2830   47.1000 C   0  0  0  0  0  0  0  0  0  0  0  0
   55.6280   25.5630   45.9280 C   0  0  0  0  0  0  0  0  0  0  0  0
   54.8300   26.7000   46.0000 O   0  0  0  0  0  0  0  0  0  0  0  0
   55.0270   24.2960   45.8550 C   0  0  0  0  0  0  0  0  0  0  0  0
   53.7750   24.1680   45.8200 O   0  0  0  0  0  0  0  0  0  0  0  0
   55.8630   23.1870   45.8330 C   0  0  0  0  0  0  0  0  0  0  0  0
   55.5910   21.7760   45.7750 C   0  0  0  0  0  0  0  0  0  0  0  0
   54.4620   21.2180   45.7180 O   0  0  0  0  0  0  0  0  0  0  0  0
   56.2505   19.1277   45.7072 H   0  0  0  0  0  0  0  0  0  0  0  0
   58.1315   19.4199   45.7863 H   0  0  0  0  0  0  0  0  0  0  0  0
   58.5060   21.9910   46.7600 H   0  0  0  0  0  0  0  0  0  0  0  0
   58.5680   22.0520   45.0180 H   0  0  0  0  0  0  0  0  0  0  0  0
   56.8468   27.6777   44.1828 H   0  0  0  0  0  0  0  0  0  0  0  0
   57.9889   29.8927   44.2694 H   0  0  0  0  0  0  0  0  0  0  0  0
   59.5187   30.4402   46.1671 H   0  0  0  0  0  0  0  0  0  0  0  0
   59.8952   28.7738   47.9876 H   0  0  0  0  0  0  0  0  0  0  0  0
   58.7562   26.5551   47.9086 H   0  0  0  0  0  0  0  0  0  0  0  0
  1  2  2  0
  2  3  1  0
  3  4  1  0
  4  5  1  0
  5  6  1  0
  6  7  1  0
  7  8  2  0
  8  9  1  0
  9 10  2  0
 10 11  1  0
 11 12  2  0
  6 13  2  0
 13 14  1  0
 13 15  1  0
 15 16  2  0
 15 17  1  0
 17 18  1  0
 18 19  2  0
 18  2  1  0
 17  4  2  0
 12  7  1  0
  1 20  1  0
  1 21  1  0
  3 22  1  0
  3 23  1  0
  8 24  1  0
  9 25  1  0
 10 26  1  0
 11 27  1  0
 12 28  1  0
M  CHG  2   3   1  14  -1
M  END
>  <UniqueID>  (28) 
27

>  <SMILES>  (28) 
C=C1[NH2+]c2oc(-c3ccccc3)c([O-])c(=O)c2C1=O

>  <Energy>  (28) 
61.91142880967322

>  <Genealogy>  (28) 
C=C1[NH2+]c2oc(-c3ccccc3)c([O-])c(=O)c2C1=O (protonated)
C=C1[NH2+]c2oc(-c3ccccc3)c([O-])c(=O)c2C1=O (3D coordinates assigned)
C=C1[NH2+]c2oc(-c3ccccc3)c([O-])c(=O)c2C1=O (nonaromatic ring conformer: 61.91142880967322 kcal/mol)

>  <smiles>  (28) 
C=C1Nc2oc(-c3ccccc3)c(O)c(=O)c2C1=O

>  <score_type>  (28) 
oracle

>  <origin>  (28) 
adg

>  <m_score__min__energy>  (28) 
-8.0199999999999996

>  <m_primary>  (28) 
energy

$$$$
28:0
     RDKit          3D

 57 60  0  0  1  0  0  0  0  0999 V2000
   63.4310   34.2150   50.8570 C   0  0  0  0  0  0  0  0  0  0  0  0
   63.1560   33.8380   49.4560 C   0  0  0  0  0  0  0  0  0  0  0  0
   64.1330   33.4580   48.7580 O   0  0  0  0  0  0  0  0  0  0  0  0
   61.8780   33.8770   48.8520 N   0  0  0  0  0  0  0  0  0  0  0  0
   61.7350   33.3990   47.1930 S   0  0  0  0  0  0  0  0  0  0  0  0
   62.7560   34.1840   46.4100 O   0  0  0  0  0  0  0  0  0  0  0  0
   62.0260   31.9400   47.1130 O   0  0  0  0  0  0  0  0  0  0  0  0
   60.1180   33.6960   46.6040 C   0  0  0  0  0  0  0  0  0  0  0  0
   59.9440   34.0460   45.2790 C   0  0  0  0  0  0  0  0  0  0  0  0
   58.6720   34.2940   44.7640 C   0  0  0  0  0  0  0  0  0  0  0  0
   57.5760   34.1850   45.5940 C   0  0  0  0  0  0  0  0  0  0  0  0
   57.7700   33.8350   46.9160 C   0  0  0  0  0  0  0  0  0  0  0  0
   59.0150   33.5850   47.4510 C   0  0  0  0  0  0  0  0  0  0  0  0
   59.2180   33.2240   48.8130 N   0  0  0  0  0  0  0  0  0  0  0  0
   59.2810   31.9660   49.0970 C   0  0  0  0  0  0  0  0  0  0  0  0
   59.2010   30.9930   48.1710 N   0  0  0  0  0  0  0  0  0  0  0  0
   59.2740   29.7050   48.5400 C   0  0  0  0  0  0  0  0  0  0  0  0
   59.1960   28.7840   47.6510 N   0  0  0  0  0  0  0  0  0  0  0  0
   60.2880   28.4070   46.7740 C   0  0  1  0  0  0  0  0  0  0  0  0
   60.0680   27.0720   46.1220 C   0  0  0  0  0  0  0  0  0  0  0  0
   58.6070   26.9310   45.8460 C   0  0  0  0  0  0  0  0  0  0  0  0
   58.0590   28.1800   45.3060 C   0  0  0  0  0  0  0  0  0  0  0  0
   56.7610   28.2000   44.8840 N   0  0  0  0  0  0  0  0  0  0  0  0
   56.2070   29.3260   44.3770 C   0  0  0  0  0  0  0  0  0  0  0  0
   54.9980   29.3450   43.9850 O   0  0  0  0  0  0  0  0  0  0  0  0
   56.8960   30.4760   44.2610 N   0  0  0  0  0  0  0  0  0  0  0  0
   58.1860   30.5180   44.6620 C   0  0  0  0  0  0  0  0  0  0  0  0
   58.8600   31.5760   44.5670 O   0  0  0  0  0  0  0  0  0  0  0  0
   58.7640   29.3600   45.1860 C   0  0  0  0  0  0  0  0  0  0  0  0
   60.1990   29.4260   45.6260 C   0  0  0  0  0  0  0  0  0  0  0  0
   59.4270   29.3310   49.8200 N   0  0  0  0  0  0  0  0  0  0  0  0
   59.5120   30.2700   50.7820 C   0  0  0  0  0  0  0  0  0  0  0  0
   59.4390   31.6010   50.4200 C   0  0  0  0  0  0  0  0  0  0  0  0
   59.5340   32.6000   51.4830 C   0  0  0  0  0  0  0  0  0  0  0  0
   59.1050   32.3820   52.6530 O   0  0  0  0  0  0  0  0  0  0  0  0
   60.1250   33.8380   51.1720 O   0  0  0  0  0  0  0  0  0  0  0  0
   62.9194   33.5137   51.5326 H   0  0  0  0  0  0  0  0  0  0  0  0
   64.5148   34.1768   51.0410 H   0  0  0  0  0  0  0  0  0  0  0  0
   63.0636   35.2354   51.0410 H   0  0  0  0  0  0  0  0  0  0  0  0
   61.0660   34.1910   49.4240 H   0  0  0  0  0  0  0  0  0  0  0  0
   60.8213   34.1303   44.6208 H   0  0  0  0  0  0  0  0  0  0  0  0
   58.5443   34.5734   43.7078 H   0  0  0  0  0  0  0  0  0  0  0  0
   56.5630   34.3739   45.2091 H   0  0  0  0  0  0  0  0  0  0  0  0
   56.8906   33.7521   47.5716 H   0  0  0  0  0  0  0  0  0  0  0  0
   59.0810   31.2410   47.1650 H   0  0  0  0  0  0  0  0  0  0  0  0
   61.2301   28.3738   47.3409 H   0  0  0  0  0  0  0  0  0  0  0  0
   60.6332   27.0186   45.1798 H   0  0  0  0  0  0  0  0  0  0  0  0
   60.4133   26.2620   46.7814 H   0  0  0  0  0  0  0  0  0  0  0  0
   58.4538   26.1235   45.1149 H   0  0  0  0  0  0  0  0  0  0  0  0
   58.0900   26.6958   46.7880 H   0  0  0  0  0  0  0  0  0  0  0  0
   56.1480   27.3570   44.9350 H   0  0  0  0  0  0  0  0  0  0  0  0
   56.4710   31.3470   43.8700 H   0  0  0  0  0  0  0  0  0  0  0  0
   60.8729   29.1463   44.8028 H   0  0  0  0  0  0  0  0  0  0  0  0
   60.4988   30.4379   45.9362 H   0  0  0  0  0  0  0  0  0  0  0  0
   59.4820   28.3160   50.0900 H   0  0  0  0  0  0  0  0  0  0  0  0
   59.6372   29.9822   51.8363 H   0  0  0  0  0  0  0  0  0  0  0  0
   59.6890   34.4830   50.5010 H   0  0  0  0  0  0  0  0  0  0  0  0
  1  2  1  0
  2  3  2  0
  2  4  1  0
  4  5  1  0
  5  6  2  0
  5  7  2  0
  5  8  1  0
  8  9  2  0
  9 10  1  0
 10 11  2  0
 11 12  1  0
 12 13  2  0
 13 14  1  0
 14 15  2  0
 15 16  1  0
 16 17  1  0
 17 18  2  0
 18 19  1  0
 19 20  1  0
 20 21  1  0
 21 22  1  0
 22 23  1  0
 23 24  1  0
 24 25  2  0
 24 26  1  0
 26 27  1  0
 27 28  2  0
 27 29  1  0
 29 30  1  0
 17 31  1  0
 31 32  1  0
 32 33  2  0
 33 34  1  0
 34 35  2  0
 34 36  1  0
 13  8  1  0
 33 15  1  0
 30 19  1  0
 29 22  2  0
  1 37  1  0
  1 38  1  0
  1 39  1  0
  4 40  1  0
  9 41  1  0
 10 42  1  0
 11 43  1  0
 12 44  1  0
 16 45  1  0
 19 46  1  1
 20 47  1  0
 20 48  1  0
 21 49  1  0
 21 50  1  0
 23 51  1  0
 26 52  1  0
 30 53  1  0
 30 54  1  0
 31 55  1  0
 32 56  1  0
 36 57  1  0
M  END
>  <smiles>  (29) 
CC(=O)NS(=O)(=O)c1ccccc1N=c1[nH]c(=NC2CCc3[nH]c(=O)[nH]c(=O)c3C2)[nH]cc1C(=O)O

>  <score_type>  (29) 
oracle

>  <origin>  (29) 
adg

>  <m_score__min__energy>  (29) 
-11.48

>  <m_primary>  (29) 
energy

$$$$
29:0
     RDKit          3D

 58 61  0  0  0  0  0  0  0  0999 V2000
   57.4270   29.7430   51.2920 O   0  0  0  0  0  0  0  0  0  0  0  0
   58.0110   30.7970   51.0020 C   0  0  0  0  0  0  0  0  0  0  0  0
   57.8000   31.9860   51.8380 C   0  0  0  0  0  0  0  0  0  0  0  0
   59.0700   32.6110   52.2800 C   0  0  0  0  0  0  0  0  0  0  0  0
   59.3310   33.9880   51.7510 C   0  0  0  0  0  0  0  0  0  0  0  0
   59.9910   33.8520   50.4020 C   0  0  0  0  0  0  0  0  0  0  0  0
   59.2650   33.8600   49.2700 N   0  0  0  0  0  0  0  0  0  0  0  0
   59.8420   33.7380   48.0430 C   0  0  0  0  0  0  0  0  0  0  0  0
   59.1850   33.7440   46.9820 O   0  0  0  0  0  0  0  0  0  0  0  0
   61.2110   33.6020   47.9530 C   0  0  0  0  0  0  0  0  0  0  0  0
   61.8850   33.4720   46.7570 C   0  0  0  0  0  0  0  0  0  0  0  0
   63.2650   33.3400   46.7440 C   0  0  0  0  0  0  0  0  0  0  0  0
   63.9980   33.3340   47.9290 C   0  0  0  0  0  0  0  0  0  0  0  0
   63.3250   33.4630   49.1270 C   0  0  0  0  0  0  0  0  0  0  0  0
   61.9520   33.5950   49.1210 C   0  0  0  0  0  0  0  0  0  0  0  0
   61.3480   33.7180   50.3290 N   0  0  0  0  0  0  0  0  0  0  0  0
   58.8650   30.8770   49.8960 N   0  0  0  0  0  0  0  0  0  0  0  0
   59.1880   29.8520   48.9860 C   0  0  0  0  0  0  0  0  0  0  0  0
   60.1170   28.8610   49.1950 C   0  0  0  0  0  0  0  0  0  0  0  0
   60.3750   27.8880   48.2470 C   0  0  0  0  0  0  0  0  0  0  0  0
   59.7190   27.8600   47.0470 C   0  0  0  0  0  0  0  0  0  0  0  0
   58.7810   28.8460   46.8140 C   0  0  0  0  0  0  0  0  0  0  0  0
   57.9320   28.8460   45.3100 S   0  0  0  0  0  0  0  0  0  0  0  0
   58.8460   28.5680   44.1380 O   0  0  0  0  0  0  0  0  0  0  0  0
   56.9460   27.6910   45.3310 O   0  0  0  0  0  0  0  0  0  0  0  0
   57.0580   30.2530   44.9650 N   0  0  0  0  0  0  0  0  0  0  0  0
   56.1870   30.1980   43.8460 C   0  0  0  0  0  0  0  0  0  0  0  0
   56.6630   30.8610   42.5990 C   0  0  0  0  0  0  0  0  0  0  0  0
   57.8570   31.7500   42.7620 C   0  0  0  0  0  0  0  0  0  0  0  0
   57.7840   32.4560   44.1030 C   0  0  0  0  0  0  0  0  0  0  0  0
   57.6860   31.4890   45.2520 C   0  0  0  0  0  0  0  0  0  0  0  0
   58.5290   29.8130   47.7650 C   0  0  0  0  0  0  0  0  0  0  0  0
   57.2273   32.7255   51.2590 H   0  0  0  0  0  0  0  0  0  0  0  0
   57.2579   31.6647   52.7396 H   0  0  0  0  0  0  0  0  0  0  0  0
   59.0553   32.6674   53.3785 H   0  0  0  0  0  0  0  0  0  0  0  0
   59.8739   31.9765   51.8785 H   0  0  0  0  0  0  0  0  0  0  0  0
   58.3819   34.5346   51.6488 H   0  0  0  0  0  0  0  0  0  0  0  0
   59.9824   34.5450   52.4405 H   0  0  0  0  0  0  0  0  0  0  0  0
   61.3257   33.4730   45.8098 H   0  0  0  0  0  0  0  0  0  0  0  0
   63.7898   33.2384   45.7826 H   0  0  0  0  0  0  0  0  0  0  0  0
   65.0928   33.2284   47.9100 H   0  0  0  0  0  0  0  0  0  0  0  0
   63.8783   33.4606   50.0777 H   0  0  0  0  0  0  0  0  0  0  0  0
   61.8690   33.7170   51.2260 H   0  0  0  0  0  0  0  0  0  0  0  0
   59.3210   31.8190   49.7240 H   0  0  0  0  0  0  0  0  0  0  0  0
   60.6718   28.8413   50.1446 H   0  0  0  0  0  0  0  0  0  0  0  0
   61.1279   27.1158   48.4636 H   0  0  0  0  0  0  0  0  0  0  0  0
   59.9303   27.0830   46.2976 H   0  0  0  0  0  0  0  0  0  0  0  0
   56.0084   29.1378   43.6134 H   0  0  0  0  0  0  0  0  0  0  0  0
   55.2893   30.7573   44.1483 H   0  0  0  0  0  0  0  0  0  0  0  0
   56.9209   30.0753   41.8737 H   0  0  0  0  0  0  0  0  0  0  0  0
   55.8411   31.5134   42.2689 H   0  0  0  0  0  0  0  0  0  0  0  0
   58.7740   31.1441   42.7163 H   0  0  0  0  0  0  0  0  0  0  0  0
   57.8700   32.4973   41.9549 H   0  0  0  0  0  0  0  0  0  0  0  0
   58.6896   33.0671   44.2310 H   0  0  0  0  0  0  0  0  0  0  0  0
   56.8765   33.0776   44.1075 H   0  0  0  0  0  0  0  0  0  0  0  0
   58.7069   31.2757   45.6017 H   0  0  0  0  0  0  0  0  0  0  0  0
   57.0496   31.9804   46.0027 H   0  0  0  0  0  0  0  0  0  0  0  0
   57.7755   30.5842   47.5469 H   0  0  0  0  0  0  0  0  0  0  0  0
  1  2  2  0
  2  3  1  0
  3  4  1  0
  4  5  1  0
  5  6  1  0
  6  7  2  0
  7  8  1  0
  8  9  2  0
  8 10  1  0
 10 11  2  0
 11 12  1  0
 12 13  2  0
 13 14  1  0
 14 15  2  0
 15 16  1  0
  2 17  1  0
 17 18  1  0
 18 19  2  0
 19 20  1  0
 20 21  2  0
 21 22  1  0
 22 23  1  0
 23 24  2  0
 23 25  2  0
 23 26  1  0
 26 27  1  0
 27 28  1  0
 28 29  1  0
 29 30  1  0
 30 31  1  0
 22 32  2  0
 16  6  1  0
 32 18  1  0
 15 10  1  0
 31 26  1  0
  3 33  1  0
  3 34  1  0
  4 35  1  0
  4 36  1  0
  5 37  1  0
  5 38  1  0
 11 39  1  0
 12 40  1  0
 13 41  1  0
 14 42  1  0
 16 43  1  0
 17 44  1  0
 19 45  1  0
 20 46  1  0
 21 47  1  0
 27 48  1  0
 27 49  1  0
 28 50  1  0
 28 51  1  0
 29 52  1  0
 29 53  1  0
 30 54  1  0
 30 55  1  0
 31 56  1  0
 31 57  1  0
 32 58  1  0
M  END
>  <smiles>  (30) 
O=C(CCCc1nc(=O)c2ccccc2[nH]1)Nc1cccc(S(=O)(=O)N2CCCCC2)c1

>  <score_type>  (30) 
oracle

>  <origin>  (30) 
adg

>  <m_score__min__energy>  (30) 
-11.279999999999999

>  <m_primary>  (30) 
energy

$$$$
30:0
     RDKit          3D

 36 38  0  0  0  0  0  0  0  0999 V2000
   62.5075   31.3434   48.3337 H   0  0  0  0  0  0  0  0  0  0  0  0
   61.6840   31.2970   47.6060 C   0  0  0  0  0  0  0  0  0  0  0  0
   61.5070   30.1830   46.9520 N   0  0  0  0  0  0  0  0  0  0  0  0
   60.2600   29.5400   46.6500 C   0  0  0  0  0  0  0  0  0  0  0  0
   60.0310   28.1750   46.9750 C   0  0  0  0  0  0  0  0  0  0  0  0
   60.8168   27.5974   47.4837 H   0  0  0  0  0  0  0  0  0  0  0  0
   58.8110   27.5560   46.6530 C   0  0  0  0  0  0  0  0  0  0  0  0
   58.6209   26.5062   46.9210 H   0  0  0  0  0  0  0  0  0  0  0  0
   57.8500   28.3100   45.9850 C   0  0  0  0  0  0  0  0  0  0  0  0
   56.6240   27.8970   45.6100 N   0  0  0  0  0  0  0  0  0  0  0  0
   56.0790   28.9830   45.0130 C   0  0  0  0  0  0  0  0  0  0  0  0
   54.7920   28.9940   44.4910 O   0  0  0  0  0  0  0  0  0  0  0  0
   56.9490   30.0660   44.9950 C   0  0  0  0  0  0  0  0  0  0  0  0
   56.6680   31.4510   44.4920 C   0  0  0  0  0  0  0  0  0  0  0  0
   56.6730   31.4438   43.3920 H   0  0  0  0  0  0  0  0  0  0  0  0
   55.6845   31.7710   44.8666 H   0  0  0  0  0  0  0  0  0  0  0  0
   57.7270   32.4310   44.9920 C   0  0  0  0  0  0  0  0  0  0  0  0
   57.2394   33.2413   45.5538 H   0  0  0  0  0  0  0  0  0  0  0  0
   58.4338   31.9012   45.6475 H   0  0  0  0  0  0  0  0  0  0  0  0
   58.4490   32.9940   43.8570 N   0  0  0  0  0  0  0  0  0  0  0  0
   58.1390   32.7100   42.6560 C   0  0  0  0  0  0  0  0  0  0  0  0
   57.7460   32.3510   41.1360 S   0  0  0  0  0  0  0  0  0  0  0  0
   58.0810   29.6170   45.6370 C   0  0  0  0  0  0  0  0  0  0  0  0
   59.2770   30.2620   45.9470 C   0  0  0  0  0  0  0  0  0  0  0  0
   59.4483   31.3073   45.6503 H   0  0  0  0  0  0  0  0  0  0  0  0
   60.8450   32.5020   47.4290 C   0  0  0  0  0  0  0  0  0  0  0  0
   61.1940   33.4360   46.4420 C   0  0  0  0  0  0  0  0  0  0  0  0
   62.0863   33.2684   45.8209 H   0  0  0  0  0  0  0  0  0  0  0  0
   60.4130   34.5790   46.2440 C   0  0  0  0  0  0  0  0  0  0  0  0
   60.6998   35.3144   45.4779 H   0  0  0  0  0  0  0  0  0  0  0  0
   59.2690   34.7880   47.0180 C   0  0  0  0  0  0  0  0  0  0  0  0
   58.6624   35.6934   46.8690 H   0  0  0  0  0  0  0  0  0  0  0  0
   58.8950   33.8480   47.9810 C   0  0  0  0  0  0  0  0  0  0  0  0
   57.9874   34.0089   48.5813 H   0  0  0  0  0  0  0  0  0  0  0  0
   59.6720   32.7020   48.1840 C   0  0  0  0  0  0  0  0  0  0  0  0
   59.2590   31.7770   49.0880 F   0  0  0  0  0  0  0  0  0  0  0  0
  1  2  1  0
  2  3  2  0
  3  4  1  0
  4  5  2  0
  5  6  1  0
  5  7  1  0
  7  8  1  0
  7  9  2  0
  9 10  1  0
 10 11  1  0
 11 12  1  0
 11 13  2  0
 13 14  1  0
 14 15  1  0
 14 16  1  0
 14 17  1  0
 17 18  1  0
 17 19  1  0
 17 20  1  0
 20 21  2  0
 21 22  2  0
 13 23  1  0
 23 24  2  0
 24 25  1  0
  2 26  1  0
 26 27  2  0
 27 28  1  0
 27 29  1  0
 29 30  1  0
 29 31  2  0
 31 32  1  0
 31 33  1  0
 33 34  1  0
 33 35  2  0
 35 36  1  0
 24  4  1  0
 35 26  1  0
 23  9  1  0
M  CHG  2  10  -1  12  -1
M  END
>  <UniqueID>  (31) 
28

>  <SMILES>  (31) 
[O-]c1[n-]c2ccc(/N=C\c3ccccc3F)cc2c1CCN=C=S

>  <Energy>  (31) 
78.2175140634507

>  <Genealogy>  (31) 
[O-]c1[n-]c2ccc(N=Cc3ccccc3F)cc2c1CCN=C=S (protonated)
[O-]c1[n-]c2ccc(/N=C\c3ccccc3F)cc2c1CCN=C=S (cis-trans isomerization)
[O-]c1[n-]c2ccc(/N=C\c3ccccc3F)cc2c1CCN=C=S (3D coordinates assigned)
[O-]c1[n-]c2ccc(/N=C\c3ccccc3F)cc2c1CCN=C=S (optimized conformer: 78.2175140634507 kcal/mol)

>  <smiles>  (31) 
Oc1[nH]c2ccc(N=Cc3ccccc3F)cc2c1CCN=C=S

>  <score_type>  (31) 
oracle

>  <origin>  (31) 
adg

>  <m_score__min__energy>  (31) 
-12.31

>  <m_primary>  (31) 
energy

$$$$
31:0
     RDKit          3D

 62 66  0  0  0  0  0  0  0  0999 V2000
   59.9430   33.1230   48.9440 O   0  0  0  0  0  0  0  0  0  0  0  0
   60.1660   32.5500   47.8430 C   0  0  0  0  0  0  0  0  0  0  0  0
   61.4400   31.9330   47.5980 N   0  0  0  0  0  0  0  0  0  0  0  0
   62.5750   32.1020   48.4630 C   0  0  0  0  0  0  0  0  0  0  0  0
   63.5900   33.0310   48.1610 C   0  0  0  0  0  0  0  0  0  0  0  0
   63.5400   33.7690   47.0240 F   0  0  0  0  0  0  0  0  0  0  0  0
   64.6900   33.1700   49.0130 C   0  0  0  0  0  0  0  0  0  0  0  0
   64.7950   32.3790   50.1590 C   0  0  0  0  0  0  0  0  0  0  0  0
   63.8040   31.4390   50.4520 C   0  0  0  0  0  0  0  0  0  0  0  0
   62.7020   31.2930   49.6050 C   0  0  0  0  0  0  0  0  0  0  0  0
   61.7460   30.3790   49.9070 F   0  0  0  0  0  0  0  0  0  0  0  0
   59.1140   32.5180   46.8040 C   0  0  0  0  0  0  0  0  0  0  0  0
   58.2920   33.6470   46.6030 C   0  0  0  0  0  0  0  0  0  0  0  0
   57.2610   33.6250   45.6460 C   0  0  0  0  0  0  0  0  0  0  0  0
   57.0320   32.4770   44.8740 C   0  0  0  0  0  0  0  0  0  0  0  0
   57.8490   31.3660   45.0710 C   0  0  0  0  0  0  0  0  0  0  0  0
   58.8650   31.3850   46.0060 C   0  0  0  0  0  0  0  0  0  0  0  0
   59.5580   30.1170   45.8810 C   0  0  0  0  0  0  0  0  0  0  0  0
   60.5770   29.7680   46.5340 O   0  0  0  0  0  0  0  0  0  0  0  0
   58.9320   29.3120   44.8770 N   0  0  0  0  0  0  0  0  0  0  0  0
   59.3550   27.9960   44.3710 C   0  0  0  0  0  0  0  0  0  0  0  0
   59.7640   27.0670   45.5320 C   0  0  0  0  0  0  0  0  0  0  0  0
   58.5550   26.4840   46.2730 C   0  0  0  0  0  0  0  0  0  0  0  0
   57.5040   26.0380   45.3440 N   0  0  0  0  0  0  0  0  0  0  0  0
   56.2510   25.5650   45.8760 C   0  0  0  0  0  0  0  0  0  0  0  0
   56.0480   25.5900   47.1210 O   0  0  0  0  0  0  0  0  0  0  0  0
   55.2540   25.0910   45.0140 O   0  0  0  0  0  0  0  0  0  0  0  0
   55.4230   23.9570   44.1660 C   0  0  0  0  0  0  0  0  0  0  0  0
   56.4220   23.0010   44.7580 C   0  0  0  0  0  0  0  0  0  0  0  0
   56.0590   22.1920   45.8470 C   0  0  0  0  0  0  0  0  0  0  0  0
   56.9780   21.2870   46.3890 C   0  0  0  0  0  0  0  0  0  0  0  0
   56.6220   20.5100   47.4410 F   0  0  0  0  0  0  0  0  0  0  0  0
   58.2610   21.1810   45.8450 C   0  0  0  0  0  0  0  0  0  0  0  0
   58.6280   21.9810   44.7580 C   0  0  0  0  0  0  0  0  0  0  0  0
   59.8720   21.8740   44.2300 F   0  0  0  0  0  0  0  0  0  0  0  0
   57.7130   22.8870   44.2140 C   0  0  0  0  0  0  0  0  0  0  0  0
   57.7700   26.0100   43.8990 C   0  0  0  0  0  0  0  0  0  0  0  0
   58.2970   27.3710   43.4200 C   0  0  0  0  0  0  0  0  0  0  0  0
   57.8070   30.0670   44.3210 C   0  0  0  0  0  0  0  0  0  0  0  0
   61.4970   31.2070   46.8490 H   0  0  0  0  0  0  0  0  0  0  0  0
   65.4749   33.9046   48.7798 H   0  0  0  0  0  0  0  0  0  0  0  0
   65.6580   32.4961   50.8310 H   0  0  0  0  0  0  0  0  0  0  0  0
   63.8913   30.8121   51.3517 H   0  0  0  0  0  0  0  0  0  0  0  0
   58.4592   34.5547   47.2014 H   0  0  0  0  0  0  0  0  0  0  0  0
   56.6301   34.5146   45.5023 H   0  0  0  0  0  0  0  0  0  0  0  0
   56.2238   32.4542   44.1281 H   0  0  0  0  0  0  0  0  0  0  0  0
   60.2532   28.1373   43.7519 H   0  0  0  0  0  0  0  0  0  0  0  0
   60.3621   26.2378   45.1261 H   0  0  0  0  0  0  0  0  0  0  0  0
   60.3395   27.6668   46.2525 H   0  0  0  0  0  0  0  0  0  0  0  0
   58.8868   25.6243   46.8736 H   0  0  0  0  0  0  0  0  0  0  0  0
   58.1328   27.2744   46.9109 H   0  0  0  0  0  0  0  0  0  0  0  0
   54.4566   23.4447   44.0497 H   0  0  0  0  0  0  0  0  0  0  0  0
   55.7923   24.2966   43.1871 H   0  0  0  0  0  0  0  0  0  0  0  0
   55.0488   22.2701   46.2753 H   0  0  0  0  0  0  0  0  0  0  0  0
   58.9822   20.4684   46.2717 H   0  0  0  0  0  0  0  0  0  0  0  0
   58.0042   23.5127   43.3575 H   0  0  0  0  0  0  0  0  0  0  0  0
   58.5212   25.2356   43.6846 H   0  0  0  0  0  0  0  0  0  0  0  0
   56.8318   25.7867   43.3699 H   0  0  0  0  0  0  0  0  0  0  0  0
   58.7554   27.2376   42.4290 H   0  0  0  0  0  0  0  0  0  0  0  0
   57.4391   28.0590   43.3939 H   0  0  0  0  0  0  0  0  0  0  0  0
   57.9400   30.2322   43.2416 H   0  0  0  0  0  0  0  0  0  0  0  0
   56.8459   29.5427   44.4277 H   0  0  0  0  0  0  0  0  0  0  0  0
  1  2  2  0
  2  3  1  0
  3  4  1  0
  4  5  2  0
  5  6  1  0
  5  7  1  0
  7  8  2  0
  8  9  1  0
  9 10  2  0
 10 11  1  0
  2 12  1  0
 12 13  2  0
 13 14  1  0
 14 15  2  0
 15 16  1  0
 16 17  2  0
 17 18  1  0
 18 19  2  0
 18 20  1  0
 20 21  1  0
 21 22  1  0
 22 23  1  0
 23 24  1  0
 24 25  1  0
 25 26  2  0
 25 27  1  0
 27 28  1  0
 28 29  1  0
 29 30  2  0
 30 31  1  0
 31 32  1  0
 31 33  2  0
 33 34  1  0
 34 35  1  0
 34 36  2  0
 24 37  1  0
 37 38  1  0
 20 39  1  0
 10  4  1  0
 17 12  1  0
 38 21  1  0
 39 16  1  0
 36 29  1  0
  3 40  1  0
  7 41  1  0
  8 42  1  0
  9 43  1  0
 13 44  1  0
 14 45  1  0
 15 46  1  0
 21 47  1  0
 22 48  1  0
 22 49  1  0
 23 50  1  0
 23 51  1  0
 28 52  1  0
 28 53  1  0
 30 54  1  0
 33 55  1  0
 36 56  1  0
 37 57  1  0
 37 58  1  0
 38 59  1  0
 38 60  1  0
 39 61  1  0
 39 62  1  0
M  END
>  <UniqueID>  (32) 
29

>  <SMILES>  (32) 
O=C(Nc1c(F)cccc1F)c1cccc2c1C(=O)N(C1CCN(C(=O)OCc3cc(F)cc(F)c3)CC1)C2

>  <Energy>  (32) 
98.71377222922605

>  <Genealogy>  (32) 
O=C(Nc1c(F)cccc1F)c1cccc2c1C(=O)N(C1CCN(C(=O)OCc3cc(F)cc(F)c3)CC1)C2 (3D coordinates assigned)
O=C(Nc1c(F)cccc1F)c1cccc2c1C(=O)N(C1CCN(C(=O)OCc3cc(F)cc(F)c3)CC1)C2 (nonaromatic ring conformer: 98.71377222922605 kcal/mol)

>  <smiles>  (32) 
O=C(Nc1c(F)cccc1F)c1cccc2c1C(=O)N(C1CCN(C(=O)OCc3cc(F)cc(F)c3)CC1)C2

>  <score_type>  (32) 
oracle

>  <origin>  (32) 
adg

>  <m_score__min__energy>  (32) 
-9.8399999999999999

>  <m_primary>  (32) 
energy

$$$$
32:0
     RDKit          3D

 47 50  0  0  0  0  0  0  0  0999 V2000
   59.6923   30.5529   45.4617 H   0  0  0  0  0  0  0  0  0  0  0  0
   58.7550   30.7650   45.9970 C   0  0  0  0  0  0  0  0  0  0  0  0
   57.6740   31.0800   45.2600 C   0  0  0  0  0  0  0  0  0  0  0  0
   57.3170   32.4750   45.1490 C   0  0  0  0  0  0  0  0  0  0  0  0
   57.0320   33.5920   45.0580 N   0  0  0  0  0  0  0  0  0  0  0  0
   56.7930   30.0820   44.6040 C   0  0  0  0  0  0  0  0  0  0  0  0
   56.4050   30.2910   43.4220 O   0  0  0  0  0  0  0  0  0  0  0  0
   56.2900   28.9550   45.3370 N   0  0  0  0  0  0  0  0  0  0  0  0
   56.9530   27.7060   45.5860 C   0  0  0  0  0  0  0  0  0  0  0  0
   58.3560   27.5790   45.5500 C   0  0  0  0  0  0  0  0  0  0  0  0
   58.9805   28.4569   45.3278 H   0  0  0  0  0  0  0  0  0  0  0  0
   58.9570   26.3400   45.7960 C   0  0  0  0  0  0  0  0  0  0  0  0
   60.0516   26.2423   45.7490 H   0  0  0  0  0  0  0  0  0  0  0  0
   58.1710   25.2270   46.1010 C   0  0  0  0  0  0  0  0  0  0  0  0
   58.6461   24.2523   46.2862 H   0  0  0  0  0  0  0  0  0  0  0  0
   56.7820   25.3510   46.1710 C   0  0  0  0  0  0  0  0  0  0  0  0
   56.1645   24.4762   46.4230 H   0  0  0  0  0  0  0  0  0  0  0  0
   56.1740   26.5870   45.9210 C   0  0  0  0  0  0  0  0  0  0  0  0
   54.7900   26.6980   46.0020 O   0  0  0  0  0  0  0  0  0  0  0  0
   58.7760   30.6830   47.4710 C   0  0  0  0  0  0  0  0  0  0  0  0
   58.9680   29.4420   48.0880 C   0  0  0  0  0  0  0  0  0  0  0  0
   59.1310   28.5432   47.4751 H   0  0  0  0  0  0  0  0  0  0  0  0
   58.9530   29.3430   49.4800 C   0  0  0  0  0  0  0  0  0  0  0  0
   59.1069   28.3691   49.9677 H   0  0  0  0  0  0  0  0  0  0  0  0
   58.7410   30.4900   50.2500 C   0  0  0  0  0  0  0  0  0  0  0  0
   58.6190   30.3660   51.6740 N   0  0  0  0  0  0  0  0  0  0  0  0
   57.7160   29.7590   52.4010 C   0  0  0  0  0  0  0  0  0  0  0  0
   58.1910   28.7900   53.2950 C   0  0  0  0  0  0  0  0  0  0  0  0
   59.2718   28.6992   53.4786 H   0  0  0  0  0  0  0  0  0  0  0  0
   57.3050   27.9420   53.9520 C   0  0  0  0  0  0  0  0  0  0  0  0
   57.6899   27.1650   54.6288 H   0  0  0  0  0  0  0  0  0  0  0  0
   55.9700   28.0700   53.7610 N   0  0  0  0  0  0  0  0  0  0  0  0
   55.4480   29.0500   52.9770 C   0  0  0  0  0  0  0  0  0  0  0  0
   54.0570   29.1680   52.8770 C   0  0  0  0  0  0  0  0  0  0  0  0
   53.4107   28.4148   53.3514 H   0  0  0  0  0  0  0  0  0  0  0  0
   53.4800   30.2370   52.1780 C   0  0  0  0  0  0  0  0  0  0  0  0
   52.0490   30.3570   52.0770 N   0  0  0  0  0  0  0  0  0  0  0  0
   51.5230   31.4310   51.7220 O   0  0  0  0  0  0  0  0  0  0  0  0
   51.2370   29.2820   52.3600 O   0  0  0  0  0  0  0  0  0  0  0  0
   54.3210   31.2110   51.6190 C   0  0  0  0  0  0  0  0  0  0  0  0
   53.8807   32.0751   51.0998 H   0  0  0  0  0  0  0  0  0  0  0  0
   55.7090   31.0980   51.7130 C   0  0  0  0  0  0  0  0  0  0  0  0
   56.3472   31.8993   51.3123 H   0  0  0  0  0  0  0  0  0  0  0  0
   56.3040   29.9700   52.3150 C   0  0  0  0  0  0  0  0  0  0  0  0
   58.4970   31.6790   49.6320 N   0  0  0  0  0  0  0  0  0  0  0  0
   58.5210   31.8080   48.2780 C   0  0  0  0  0  0  0  0  0  0  0  0
   58.3000   32.9350   47.7610 O   0  0  0  0  0  0  0  0  0  0  0  0
  1  2  1  0
  2  3  2  0
  3  4  1  0
  4  5  3  0
  3  6  1  0
  6  7  2  0
  6  8  1  0
  8  9  1  0
  9 10  2  0
 10 11  1  0
 10 12  1  0
 12 13  1  0
 12 14  2  0
 14 15  1  0
 14 16  1  0
 16 17  1  0
 16 18  2  0
 18 19  1  0
  2 20  1  0
 20 21  2  0
 21 22  1  0
 21 23  1  0
 23 24  1  0
 23 25  2  0
 25 26  1  0
 26 27  2  3
 27 28  1  0
 28 29  1  0
 28 30  2  0
 30 31  1  0
 30 32  1  0
 32 33  1  0
 33 34  2  0
 34 35  1  0
 34 36  1  0
 36 37  1  0
 37 38  2  0
 37 39  1  0
 36 40  2  0
 40 41  1  0
 40 42  1  0
 42 43  1  0
 42 44  2  0
 25 45  1  0
 45 46  1  0
 46 47  2  0
 18  9  1  0
 46 20  1  0
 44 27  1  0
 44 33  1  0
M  CHG  6   8  -1  19  -1  32  -1  37   1  39  -1  45  -1
M  END
>  <UniqueID>  (33) 
30

>  <SMILES>  (33) 
N#C/C(=C/c1ccc(N=c2cc[n-]c3cc([N+](=O)[O-])ccc23)[n-]c1=O)C(=O)[N-]c1ccccc1[O-]

>  <Energy>  (33) 
85.97122449612431

>  <Genealogy>  (33) 
N#CC(=Cc1ccc(N=c2cc[n-]c3cc([N+](=O)[O-])ccc23)[n-]c1=O)C(=O)[N-]c1ccccc1[O-] (protonated)
N#C/C(=C/c1ccc(N=c2cc[n-]c3cc([N+](=O)[O-])ccc23)[n-]c1=O)C(=O)[N-]c1ccccc1[O-] (cis-trans isomerization)
N#C/C(=C/c1ccc(N=c2cc[n-]c3cc([N+](=O)[O-])ccc23)[n-]c1=O)C(=O)[N-]c1ccccc1[O-] (3D coordinates assigned)
N#C/C(=C/c1ccc(N=c2cc[n-]c3cc([N+](=O)[O-])ccc23)[n-]c1=O)C(=O)[N-]c1ccccc1[O-] (optimized conformer: 85.97122449612431 kcal/mol)

>  <smiles>  (33) 
N#CC(=Cc1ccc(N=c2cc[nH]c3cc([N+](=O)[O-])ccc23)[nH]c1=O)C(=O)Nc1ccccc1O

>  <score_type>  (33) 
oracle

>  <origin>  (33) 
adg

>  <m_score__min__energy>  (33) 
-16.77

>  <m_primary>  (33) 
energy

$$$$
33:0
     RDKit          3D

 43 46  0  0  0  0  0  0  0  0999 V2000
   59.6500   35.7090   46.3410 C   0  0  0  0  0  0  0  0  0  0  0  0
   59.1260   34.5000   46.0660 C   0  0  0  0  0  0  0  0  0  0  0  0
   58.7720   34.2470   44.7730 N   0  0  0  0  0  0  0  0  0  0  0  0
   58.4820   32.9960   44.3390 C   0  0  0  0  0  0  0  0  0  0  0  0
   58.1980   32.8170   43.1200 O   0  0  0  0  0  0  0  0  0  0  0  0
   58.5340   31.9370   45.1990 N   0  0  0  0  0  0  0  0  0  0  0  0
   58.2740   30.6030   44.7130 C   0  0  0  0  0  0  0  0  0  0  0  0
   57.0590   30.3070   44.0730 C   0  0  0  0  0  0  0  0  0  0  0  0
   56.8100   29.0140   43.6000 C   0  0  0  0  0  0  0  0  0  0  0  0
   57.7700   28.0120   43.7630 C   0  0  0  0  0  0  0  0  0  0  0  0
   58.9810   28.2990   44.3980 C   0  0  0  0  0  0  0  0  0  0  0  0
   59.2340   29.5900   44.8730 C   0  0  0  0  0  0  0  0  0  0  0  0
   58.8050   32.1390   46.5260 C   0  0  0  0  0  0  0  0  0  0  0  0
   58.8050   31.1490   47.3140 O   0  0  0  0  0  0  0  0  0  0  0  0
   59.0370   33.4460   47.0280 C   0  0  0  0  0  0  0  0  0  0  0  0
   59.1240   33.6190   48.3760 C   0  0  0  0  0  0  0  0  0  0  0  0
   60.3370   33.4380   49.2000 C   0  0  0  0  0  0  0  0  0  0  0  0
   60.4080   33.5120   50.5910 C   0  0  0  0  0  0  0  0  0  0  0  0
   59.2530   33.7420   51.5110 C   0  0  0  0  0  0  0  0  0  0  0  0
   61.6900   33.4060   51.0120 N   0  0  0  0  0  0  0  0  0  0  0  0
   62.4330   33.2790   49.8980 C   0  0  0  0  0  0  0  0  0  0  0  0
   63.8220   33.1780   49.8200 C   0  0  0  0  0  0  0  0  0  0  0  0
   64.4070   33.1090   48.5430 C   0  0  0  0  0  0  0  0  0  0  0  0
   63.6010   33.1560   47.3840 C   0  0  0  0  0  0  0  0  0  0  0  0
   62.2030   33.2660   47.4920 C   0  0  0  0  0  0  0  0  0  0  0  0
   61.6470   33.3070   48.7710 C   0  0  0  0  0  0  0  0  0  0  0  0
   59.9499   35.9574   47.3698 H   0  0  0  0  0  0  0  0  0  0  0  0
   59.7783   36.4486   45.5370 H   0  0  0  0  0  0  0  0  0  0  0  0
   58.7790   35.0180   44.0640 H   0  0  0  0  0  0  0  0  0  0  0  0
   56.3014   31.0939   43.9434 H   0  0  0  0  0  0  0  0  0  0  0  0
   55.8575   28.7861   43.0993 H   0  0  0  0  0  0  0  0  0  0  0  0
   57.5721   26.9959   43.3909 H   0  0  0  0  0  0  0  0  0  0  0  0
   59.7360   27.5091   44.5245 H   0  0  0  0  0  0  0  0  0  0  0  0
   60.1879   29.8128   45.3735 H   0  0  0  0  0  0  0  0  0  0  0  0
   58.2056   33.9217   48.9003 H   0  0  0  0  0  0  0  0  0  0  0  0
   59.5958   33.6737   52.5540 H   0  0  0  0  0  0  0  0  0  0  0  0
   58.8319   34.7416   51.3281 H   0  0  0  0  0  0  0  0  0  0  0  0
   58.4811   32.9799   51.3281 H   0  0  0  0  0  0  0  0  0  0  0  0
   62.0360   33.4440   51.9960 H   0  0  0  0  0  0  0  0  0  0  0  0
   64.4407   33.1531   50.7292 H   0  0  0  0  0  0  0  0  0  0  0  0
   65.4989   33.0179   48.4461 H   0  0  0  0  0  0  0  0  0  0  0  0
   64.0699   33.1062   46.3902 H   0  0  0  0  0  0  0  0  0  0  0  0
   61.5675   33.3181   46.5957 H   0  0  0  0  0  0  0  0  0  0  0  0
  1  2  2  0
  2  3  1  0
  3  4  1  0
  4  5  2  0
  4  6  1  0
  6  7  1  0
  7  8  2  0
  8  9  1  0
  9 10  2  0
 10 11  1  0
 11 12  2  0
  6 13  1  0
 13 14  2  0
 13 15  1  0
 15 16  2  3
 16 17  1  0
 17 18  2  0
 18 19  1  0
 18 20  1  0
 20 21  1  0
 21 22  2  0
 22 23  1  0
 23 24  2  0
 24 25  1  0
 25 26  2  0
 15  2  1  0
 26 17  1  0
 12  7  1  0
 26 21  1  0
  1 27  1  0
  1 28  1  0
  3 29  1  0
  8 30  1  0
  9 31  1  0
 10 32  1  0
 11 33  1  0
 12 34  1  0
 16 35  1  0
 19 36  1  0
 19 37  1  0
 19 38  1  0
 20 39  1  0
 22 40  1  0
 23 41  1  0
 24 42  1  0
 25 43  1  0
M  END
>  <UniqueID>  (34) 
31

>  <SMILES>  (34) 
C=c1[nH]c(=O)n(-c2ccccc2)c(=O)c1=Cc1c(C)[nH]c2ccccc12

>  <Energy>  (34) 
113.25452486786801

>  <Genealogy>  (34) 
C=c1[nH]c(=O)n(-c2ccccc2)c(=O)c1=Cc1c(C)[nH]c2ccccc12 (3D coordinates assigned)
C=c1[nH]c(=O)n(-c2ccccc2)c(=O)c1=Cc1c(C)[nH]c2ccccc12 (optimized conformer: 113.25452486786801 kcal/mol)

>  <smiles>  (34) 
C=c1[nH]c(=O)n(-c2ccccc2)c(=O)c1=Cc1c(C)[nH]c2ccccc12

>  <score_type>  (34) 
oracle

>  <origin>  (34) 
adg

>  <m_score__min__energy>  (34) 
-8.7699999999999996

>  <m_primary>  (34) 
energy

$$$$
34:0
     RDKit          3D

 34 36  0  0  0  0  0  0  0  0999 V2000
   59.8910   31.5290   52.3830 O   0  0  0  0  0  0  0  0  0  0  0  0
   59.1680   31.2380   51.3920 C   0  0  0  0  0  0  0  0  0  0  0  0
   58.2890   30.1070   51.4930 N   0  0  0  0  0  0  0  0  0  0  0  0
   57.0840   30.0900   51.9910 C   0  0  0  0  0  0  0  0  0  0  0  0
   56.6510   29.1000   52.8970 C   0  0  0  0  0  0  0  0  0  0  0  0
   55.3460   29.1430   53.3900 C   0  0  0  0  0  0  0  0  0  0  0  0
   54.4740   30.1550   52.9850 C   0  0  0  0  0  0  0  0  0  0  0  0
   53.1450   30.1970   53.5240 N   0  0  0  0  0  0  0  0  0  0  0  0
   52.1010   31.0910   53.1230 C   0  0  0  0  0  0  0  0  0  0  0  0
   51.4620   31.7160   54.0100 O   0  0  0  0  0  0  0  0  0  0  0  0
   51.7070   31.2420   51.7090 C   0  0  0  0  0  0  0  0  0  0  0  0
   51.8280   30.2610   50.7390 C   0  0  0  0  0  0  0  0  0  0  0  0
   51.3780   30.8210   49.5640 C   0  0  0  0  0  0  0  0  0  0  0  0
   51.0180   32.1110   49.8830 C   0  0  0  0  0  0  0  0  0  0  0  0
   50.5100   33.0340   48.9780 O   0  0  0  0  0  0  0  0  0  0  0  0
   51.2160   32.3850   51.1840 N   0  0  0  0  0  0  0  0  0  0  0  0
   54.9520   31.1490   52.1160 C   0  0  0  0  0  0  0  0  0  0  0  0
   56.2260   31.0890   51.6470 N   0  0  0  0  0  0  0  0  0  0  0  0
   59.1840   32.1110   50.1910 C   0  0  0  0  0  0  0  0  0  0  0  0
   59.6440   33.4370   50.2860 C   0  0  0  0  0  0  0  0  0  0  0  0
   59.6610   34.2620   49.1570 C   0  0  0  0  0  0  0  0  0  0  0  0
   59.2130   33.7770   47.9270 C   0  0  0  0  0  0  0  0  0  0  0  0
   58.7430   32.4660   47.8230 C   0  0  0  0  0  0  0  0  0  0  0  0
   58.7240   31.6360   48.9490 C   0  0  0  0  0  0  0  0  0  0  0  0
   57.3366   28.2999   53.2128 H   0  0  0  0  0  0  0  0  0  0  0  0
   55.0033   28.3764   54.1005 H   0  0  0  0  0  0  0  0  0  0  0  0
   52.2079   29.2382   50.8791 H   0  0  0  0  0  0  0  0  0  0  0  0
   51.3186   30.3386   48.5772 H   0  0  0  0  0  0  0  0  0  0  0  0
   54.2942   31.9775   51.8144 H   0  0  0  0  0  0  0  0  0  0  0  0
   59.9923   33.8271   51.2537 H   0  0  0  0  0  0  0  0  0  0  0  0
   60.0283   35.2957   49.2383 H   0  0  0  0  0  0  0  0  0  0  0  0
   59.2302   34.4273   47.0399 H   0  0  0  0  0  0  0  0  0  0  0  0
   58.3872   32.0854   46.8542 H   0  0  0  0  0  0  0  0  0  0  0  0
   58.3473   30.6061   48.8629 H   0  0  0  0  0  0  0  0  0  0  0  0
  1  2  2  0
  2  3  1  0
  3  4  2  3
  4  5  1  0
  5  6  2  0
  6  7  1  0
  7  8  1  0
  8  9  1  0
  9 10  2  0
  9 11  1  0
 11 12  2  0
 12 13  1  0
 13 14  2  0
 14 15  1  0
 14 16  1  0
  7 17  2  0
 17 18  1  0
  2 19  1  0
 19 20  2  0
 20 21  1  0
 21 22  2  0
 22 23  1  0
 23 24  2  0
 18  4  1  0
 24 19  1  0
 16 11  1  0
  5 25  1  0
  6 26  1  0
 12 27  1  0
 13 28  1  0
 17 29  1  0
 20 30  1  0
 21 31  1  0
 22 32  1  0
 23 33  1  0
 24 34  1  0
M  CHG  4   8  -1  15  -1  16  -1  18  -1
M  END
>  <UniqueID>  (35) 
32

>  <SMILES>  (35) 
O=C(N=c1ccc([N-]C(=O)c2ccc([O-])[n-]2)c[n-]1)c1ccccc1

>  <Energy>  (35) 
78.09054572683964

>  <Genealogy>  (35) 
O=C(N=c1ccc([N-]C(=O)c2ccc([O-])[n-]2)c[n-]1)c1ccccc1 (protonated)
O=C(N=c1ccc([N-]C(=O)c2ccc([O-])[n-]2)c[n-]1)c1ccccc1 (3D coordinates assigned)
O=C(N=c1ccc([N-]C(=O)c2ccc([O-])[n-]2)c[n-]1)c1ccccc1 (optimized conformer: 78.09054572683964 kcal/mol)

>  <smiles>  (35) 
O=C(N=c1ccc(NC(=O)c2ccc(O)[nH]2)c[nH]1)c1ccccc1

>  <score_type>  (35) 
oracle

>  <origin>  (35) 
adg

>  <m_score__min__energy>  (35) 
-15.710000000000001

>  <m_primary>  (35) 
energy

$$$$
35:0
     RDKit          3D

 29 30  0  0  0  0  0  0  0  0999 V2000
   60.5620   31.8420   47.1850 C   0  0  0  0  0  0  0  0  0  0  0  0
   59.3210   31.9400   46.3390 C   0  0  0  0  0  0  0  0  0  0  0  0
   58.9170   33.1940   45.8530 C   0  0  0  0  0  0  0  0  0  0  0  0
   57.7670   33.3130   45.0750 C   0  0  0  0  0  0  0  0  0  0  0  0
   57.0200   32.1740   44.7830 C   0  0  0  0  0  0  0  0  0  0  0  0
   57.4170   30.9630   45.2510 N   0  0  0  0  0  0  0  0  0  0  0  0
   58.5400   30.8040   46.0080 C   0  0  0  0  0  0  0  0  0  0  0  0
   58.8780   29.4100   46.4770 C   0  0  0  0  0  0  0  0  0  0  0  0
   57.7560   28.5080   46.2310 N   0  0  0  0  0  0  0  0  0  0  0  0
   57.8620   27.0870   46.4140 C   0  0  0  0  0  0  0  0  0  0  0  0
   58.9450   26.5890   46.8280 O   0  0  0  0  0  0  0  0  0  0  0  0
   56.7140   26.2020   46.1190 C   0  0  0  0  0  0  0  0  0  0  0  0
   56.8830   24.8190   45.9620 C   0  0  0  0  0  0  0  0  0  0  0  0
   55.7730   24.0230   45.6830 C   0  0  0  0  0  0  0  0  0  0  0  0
   54.5190   24.6220   45.5660 C   0  0  0  0  0  0  0  0  0  0  0  0
   53.5010   23.9270   45.3150 O   0  0  0  0  0  0  0  0  0  0  0  0
   54.4040   25.9650   45.7250 N   0  0  0  0  0  0  0  0  0  0  0  0
   55.4650   26.7290   45.9920 N   0  0  0  0  0  0  0  0  0  0  0  0
   60.2832   31.8640   48.2489 H   0  0  0  0  0  0  0  0  0  0  0  0
   61.0842   30.8998   46.9622 H   0  0  0  0  0  0  0  0  0  0  0  0
   61.2256   32.6905   46.9622 H   0  0  0  0  0  0  0  0  0  0  0  0
   59.5124   34.0886   46.0880 H   0  0  0  0  0  0  0  0  0  0  0  0
   57.4523   34.2963   44.6953 H   0  0  0  0  0  0  0  0  0  0  0  0
   56.1082   32.2558   44.1731 H   0  0  0  0  0  0  0  0  0  0  0  0
   59.7617   29.0476   45.9314 H   0  0  0  0  0  0  0  0  0  0  0  0
   59.0871   29.4359   47.5566 H   0  0  0  0  0  0  0  0  0  0  0  0
   56.8500   28.9250   45.9200 H   0  0  0  0  0  0  0  0  0  0  0  0
   57.8811   24.3667   46.0580 H   0  0  0  0  0  0  0  0  0  0  0  0
   55.8849   22.9360   45.5567 H   0  0  0  0  0  0  0  0  0  0  0  0
  1  2  1  0
  2  3  2  0
  3  4  1  0
  4  5  2  0
  5  6  1  0
  6  7  2  0
  7  8  1  0
  8  9  1  0
  9 10  1  0
 10 11  2  0
 10 12  1  0
 12 13  1  0
 13 14  2  0
 14 15  1  0
 15 16  2  0
 15 17  1  0
 17 18  1  0
  7  2  1  0
 18 12  2  0
  1 19  1  0
  1 20  1  0
  1 21  1  0
  3 22  1  0
  4 23  1  0
  5 24  1  0
  8 25  1  0
  8 26  1  0
  9 27  1  0
 13 28  1  0
 14 29  1  0
M  CHG  1  17  -1
M  END
>  <UniqueID>  (36) 
33

>  <SMILES>  (36) 
Cc1cccnc1CNC(=O)c1ccc(=O)[n-]n1

>  <Energy>  (36) 
30.754670038297718

>  <Genealogy>  (36) 
Cc1cccnc1CNC(=O)c1ccc(=O)[n-]n1 (protonated)
Cc1cccnc1CNC(=O)c1ccc(=O)[n-]n1 (3D coordinates assigned)
Cc1cccnc1CNC(=O)c1ccc(=O)[n-]n1 (optimized conformer: 30.754670038297718 kcal/mol)

>  <smiles>  (36) 
Cc1cccnc1CNC(=O)c1ccc(=O)[nH]n1

>  <score_type>  (36) 
oracle

>  <origin>  (36) 
adg

>  <m_score__min__energy>  (36) 
-8.7799999999999994

>  <m_primary>  (36) 
energy

$$$$
36:0
     RDKit          3D

 51 52  0  0  0  0  0  0  0  0999 V2000
   57.2760   31.6370   41.8570 C   0  0  0  0  0  0  0  0  0  0  0  0
   57.1960   31.1090   43.0870 C   0  0  0  0  0  0  0  0  0  0  0  0
   56.9670   29.6220   43.2360 C   0  0  0  0  0  0  0  0  0  0  0  0
   57.7410   29.0810   44.4100 C   0  0  0  0  0  0  0  0  0  0  0  0
   57.1750   28.6030   45.5270 C   0  0  0  0  0  0  0  0  0  0  0  0
   57.7780   27.5740   46.3940 C   0  0  0  0  0  0  0  0  0  0  0  0
   58.7560   27.8940   47.1200 O   0  0  0  0  0  0  0  0  0  0  0  0
   57.2170   26.2140   46.4860 C   0  0  0  0  0  0  0  0  0  0  0  0
   57.9290   25.1370   46.7450 O   0  0  0  0  0  0  0  0  0  0  0  0
   57.1240   24.0970   46.7360 C   0  0  0  0  0  0  0  0  0  0  0  0
   57.5390   22.7930   46.9740 O   0  0  0  0  0  0  0  0  0  0  0  0
   55.8340   24.4860   46.4580 C   0  0  0  0  0  0  0  0  0  0  0  0
   54.7250   23.6370   46.3740 O   0  0  0  0  0  0  0  0  0  0  0  0
   53.6130   23.8840   45.5240 C   0  0  0  0  0  0  0  0  0  0  0  0
   55.8940   25.8550   46.2930 C   0  0  0  0  0  0  0  0  0  0  0  0
   54.8400   26.7090   45.9920 O   0  0  0  0  0  0  0  0  0  0  0  0
   57.2750   31.9560   44.3110 C   0  0  0  0  0  0  0  0  0  0  0  0
   56.2960   31.9640   45.1090 O   0  0  0  0  0  0  0  0  0  0  0  0
   58.4980   32.7880   44.6250 C   0  0  0  0  0  0  0  0  0  0  0  0
   58.1500   34.1560   45.1390 C   0  0  0  0  0  0  0  0  0  0  0  0
   56.9580   34.5580   45.0560 O   0  0  0  0  0  0  0  0  0  0  0  0
   59.1780   34.9680   45.8270 C   0  0  0  0  0  0  0  0  0  0  0  0
   59.6250   34.7580   47.0760 C   0  0  0  0  0  0  0  0  0  0  0  0
   60.4790   33.6240   47.4960 C   0  0  0  0  0  0  0  0  0  0  0  0
   61.8710   33.7820   47.6190 C   0  0  0  0  0  0  0  0  0  0  0  0
   62.6860   32.6920   47.9820 C   0  0  0  0  0  0  0  0  0  0  0  0
   64.0770   32.8090   48.1340 O   0  0  0  0  0  0  0  0  0  0  0  0
   64.7590   32.7100   49.3810 C   0  0  0  0  0  0  0  0  0  0  0  0
   62.0970   31.4410   48.1940 C   0  0  0  0  0  0  0  0  0  0  0  0
   60.7180   31.2710   48.0440 C   0  0  0  0  0  0  0  0  0  0  0  0
   59.9100   32.3530   47.6890 C   0  0  0  0  0  0  0  0  0  0  0  0
   58.5400   32.1610   47.5400 O   0  0  0  0  0  0  0  0  0  0  0  0
   57.4423   32.7171   41.7319 H   0  0  0  0  0  0  0  0  0  0  0  0
   57.1753   30.9900   40.9731 H   0  0  0  0  0  0  0  0  0  0  0  0
   55.8944   29.4354   43.3933 H   0  0  0  0  0  0  0  0  0  0  0  0
   57.3111   29.1169   42.3214 H   0  0  0  0  0  0  0  0  0  0  0  0
   58.8392   29.0781   44.3465 H   0  0  0  0  0  0  0  0  0  0  0  0
   56.1934   29.0060   45.8168 H   0  0  0  0  0  0  0  0  0  0  0  0
   52.7206   24.0822   46.1359 H   0  0  0  0  0  0  0  0  0  0  0  0
   53.8236   24.7573   44.8891 H   0  0  0  0  0  0  0  0  0  0  0  0
   53.4341   23.0037   44.8891 H   0  0  0  0  0  0  0  0  0  0  0  0
   59.0929   32.2656   45.3887 H   0  0  0  0  0  0  0  0  0  0  0  0
   59.0620   32.9173   43.6895 H   0  0  0  0  0  0  0  0  0  0  0  0
   59.6113   35.8121   45.2704 H   0  0  0  0  0  0  0  0  0  0  0  0
   59.3336   35.4859   47.8476 H   0  0  0  0  0  0  0  0  0  0  0  0
   62.3271   34.7650   47.4302 H   0  0  0  0  0  0  0  0  0  0  0  0
   64.0362   32.8149   50.2036 H   0  0  0  0  0  0  0  0  0  0  0  0
   65.2546   31.7305   49.4511 H   0  0  0  0  0  0  0  0  0  0  0  0
   65.5127   33.5082   49.4511 H   0  0  0  0  0  0  0  0  0  0  0  0
   62.7243   30.5842   48.4811 H   0  0  0  0  0  0  0  0  0  0  0  0
   60.2673   30.2808   48.2063 H   0  0  0  0  0  0  0  0  0  0  0  0
  1  2  2  0
  2  3  1  0
  3  4  1  0
  4  5  2  3
  5  6  1  0
  6  7  2  0
  6  8  1  0
  8  9  1  0
  9 10  1  0
 10 11  1  0
 10 12  2  0
 12 13  1  0
 13 14  1  0
 12 15  1  0
 15 16  1  0
  2 17  1  0
 17 18  2  0
 17 19  1  0
 19 20  1  0
 20 21  2  0
 20 22  1  0
 22 23  2  3
 23 24  1  0
 24 25  2  0
 25 26  1  0
 26 27  1  0
 27 28  1  0
 26 29  2  0
 29 30  1  0
 30 31  2  0
 31 32  1  0
 15  8  2  0
 31 24  1  0
  1 33  1  0
  1 34  1  0
  3 35  1  0
  3 36  1  0
  4 37  1  0
  5 38  1  0
 14 39  1  0
 14 40  1  0
 14 41  1  0
 19 42  1  0
 19 43  1  0
 22 44  1  0
 23 45  1  0
 25 46  1  0
 28 47  1  0
 28 48  1  0
 28 49  1  0
 29 50  1  0
 30 51  1  0
M  CHG  3  11  -1  16  -1  32  -1
M  END
>  <UniqueID>  (37) 
34

>  <SMILES>  (37) 
C=C(CC=CC(=O)c1oc([O-])c(OC)c1[O-])C(=O)CC(=O)C=Cc1cc(OC)ccc1[O-]

>  <Energy>  (37) 
91.55420009659802

>  <Genealogy>  (37) 
C=C(CC=CC(=O)c1oc([O-])c(OC)c1[O-])C(=O)CC(=O)C=Cc1cc(OC)ccc1[O-] (protonated)
C=C(CC=CC(=O)c1oc([O-])c(OC)c1[O-])C(=O)CC(=O)C=Cc1cc(OC)ccc1[O-] (3D coordinates assigned)
C=C(CC=CC(=O)c1oc([O-])c(OC)c1[O-])C(=O)CC(=O)C=Cc1cc(OC)ccc1[O-] (optimized conformer: 91.55420009659802 kcal/mol)

>  <smiles>  (37) 
C=C(CC=CC(=O)c1oc(O)c(OC)c1O)C(=O)CC(=O)C=Cc1cc(OC)ccc1O

>  <score_type>  (37) 
oracle

>  <origin>  (37) 
adg

>  <m_score__min__energy>  (37) 
-14.75

>  <m_primary>  (37) 
energy

$$$$
37:0
     RDKit          3D

 51 53  0  0  0  0  0  0  0  0999 V2000
   57.9180   28.4470   44.1660 C   0  0  0  0  0  0  0  0  0  0  0  0
   56.8520   29.8720   44.3650 S   0  0  0  0  0  0  0  0  0  0  0  0
   56.6450   30.5180   43.0230 O   0  0  0  0  0  0  0  0  0  0  0  0
   55.5120   29.4080   44.8640 O   0  0  0  0  0  0  0  0  0  0  0  0
   57.5270   31.0450   45.4910 N   0  0  1  0  0  0  0  0  0  0  0  0
   58.9800   30.8250   45.6940 C   0  0  0  0  0  0  0  0  0  0  0  0
   59.2900   30.2810   47.0710 C   0  0  0  0  0  0  0  0  0  0  0  0
   58.3450   29.8180   47.7690 O   0  0  0  0  0  0  0  0  0  0  0  0
   60.6080   30.3580   47.6490 N   0  0  0  0  0  0  0  0  0  0  0  0
   61.3770   31.5570   47.8660 C   0  0  0  0  0  0  0  0  0  0  0  0
   61.7110   32.4030   46.7920 C   0  0  0  0  0  0  0  0  0  0  0  0
   62.4570   33.5700   47.0080 C   0  0  0  0  0  0  0  0  0  0  0  0
   62.9240   33.8770   48.2900 C   0  0  0  0  0  0  0  0  0  0  0  0
   62.6610   33.0070   49.3510 C   0  0  0  0  0  0  0  0  0  0  0  0
   61.8980   31.8420   49.1460 C   0  0  0  0  0  0  0  0  0  0  0  0
   61.6770   30.7000   50.5190 S   0  0  0  0  0  0  0  0  0  0  0  0
   60.0400   31.3090   50.9440 C   0  0  0  0  0  0  0  0  0  0  0  0
   59.8580   32.6590   51.2930 C   0  0  0  0  0  0  0  0  0  0  0  0
   58.5830   33.1360   51.6090 C   0  0  0  0  0  0  0  0  0  0  0  0
   57.4890   32.2550   51.6190 C   0  0  0  0  0  0  0  0  0  0  0  0
   57.6670   30.9060   51.2780 C   0  0  0  0  0  0  0  0  0  0  0  0
   58.9410   30.4340   50.9380 C   0  0  0  0  0  0  0  0  0  0  0  0
   57.2650   32.4230   45.0020 C   0  0  0  0  0  0  0  0  0  0  0  0
   58.1510   33.4360   45.6990 C   0  0  0  0  0  0  0  0  0  0  0  0
   58.8900   34.3510   44.9290 C   0  0  0  0  0  0  0  0  0  0  0  0
   59.6520   35.3460   45.5470 C   0  0  0  0  0  0  0  0  0  0  0  0
   59.6940   35.4300   46.9420 C   0  0  0  0  0  0  0  0  0  0  0  0
   58.9740   34.5180   47.7180 C   0  0  0  0  0  0  0  0  0  0  0  0
   58.2030   33.5230   47.1050 C   0  0  0  0  0  0  0  0  0  0  0  0
   57.4990   32.6590   47.8800 F   0  0  0  0  0  0  0  0  0  0  0  0
   58.2053   28.0629   45.1559 H   0  0  0  0  0  0  0  0  0  0  0  0
   57.3826   27.6634   43.6099 H   0  0  0  0  0  0  0  0  0  0  0  0
   58.8209   28.7394   43.6099 H   0  0  0  0  0  0  0  0  0  0  0  0
   57.0300   30.9090   46.4040 H   0  0  0  0  0  0  0  0  0  0  0  0
   59.3380   30.1074   44.9410 H   0  0  0  0  0  0  0  0  0  0  0  0
   59.4853   31.7969   45.5939 H   0  0  0  0  0  0  0  0  0  0  0  0
   61.3837   32.1461   45.7737 H   0  0  0  0  0  0  0  0  0  0  0  0
   62.6754   34.2454   46.1677 H   0  0  0  0  0  0  0  0  0  0  0  0
   63.4965   34.8004   48.4624 H   0  0  0  0  0  0  0  0  0  0  0  0
   63.0529   33.2339   50.3535 H   0  0  0  0  0  0  0  0  0  0  0  0
   60.7208   33.3409   51.3173 H   0  0  0  0  0  0  0  0  0  0  0  0
   58.4364   34.1993   51.8494 H   0  0  0  0  0  0  0  0  0  0  0  0
   56.4901   32.6239   51.8949 H   0  0  0  0  0  0  0  0  0  0  0  0
   56.8072   30.2199   51.2776 H   0  0  0  0  0  0  0  0  0  0  0  0
   59.0812   29.3774   50.6661 H   0  0  0  0  0  0  0  0  0  0  0  0
   57.4599   32.4617   43.9201 H   0  0  0  0  0  0  0  0  0  0  0  0
   56.2162   32.6735   45.2194 H   0  0  0  0  0  0  0  0  0  0  0  0
   58.8682   34.2832   43.8313 H   0  0  0  0  0  0  0  0  0  0  0  0
   60.2190   36.0635   44.9357 H   0  0  0  0  0  0  0  0  0  0  0  0
   60.2935   36.2136   47.4283 H   0  0  0  0  0  0  0  0  0  0  0  0
   59.0131   34.5820   48.8154 H   0  0  0  0  0  0  0  0  0  0  0  0
  1  2  1  0
  2  3  2  0
  2  4  2  0
  2  5  1  0
  5  6  1  0
  6  7  1  0
  7  8  2  0
  7  9  1  0
  9 10  1  0
 10 11  2  0
 11 12  1  0
 12 13  2  0
 13 14  1  0
 14 15  2  0
 15 16  1  0
 16 17  1  0
 17 18  2  0
 18 19  1  0
 19 20  2  0
 20 21  1  0
 21 22  2  0
  5 23  1  0
 23 24  1  0
 24 25  2  0
 25 26  1  0
 26 27  2  0
 27 28  1  0
 28 29  2  0
 29 30  1  0
 15 10  1  0
 22 17  1  0
 29 24  1  0
  1 31  1  0
  1 32  1  0
  1 33  1  0
  5 34  1  1
  6 35  1  0
  6 36  1  0
 11 37  1  0
 12 38  1  0
 13 39  1  0
 14 40  1  0
 18 41  1  0
 19 42  1  0
 20 43  1  0
 21 44  1  0
 22 45  1  0
 23 46  1  0
 23 47  1  0
 25 48  1  0
 26 49  1  0
 27 50  1  0
 28 51  1  0
M  CHG  2   5   1   9  -1
M  END
>  <UniqueID>  (38) 
35

>  <SMILES>  (38) 
CS(=O)(=O)[N@@H+](CC(=O)[N-]c1ccccc1Sc1ccccc1)Cc1ccccc1F

>  <Energy>  (38) 
46.142632480972225

>  <Genealogy>  (38) 
CS(=O)(=O)[NH+](CC(=O)[N-]c1ccccc1Sc1ccccc1)Cc1ccccc1F (protonated)
CS(=O)(=O)[N@@H+](CC(=O)[N-]c1ccccc1Sc1ccccc1)Cc1ccccc1F (chirality)
CS(=O)(=O)[N@@H+](CC(=O)[N-]c1ccccc1Sc1ccccc1)Cc1ccccc1F (3D coordinates assigned)
CS(=O)(=O)[N@@H+](CC(=O)[N-]c1ccccc1Sc1ccccc1)Cc1ccccc1F (optimized conformer: 46.142632480972225 kcal/mol)

>  <smiles>  (38) 
CS(=O)(=O)N(CC(=O)Nc1ccccc1Sc1ccccc1)Cc1ccccc1F

>  <score_type>  (38) 
oracle

>  <origin>  (38) 
adg

>  <m_score__min__energy>  (38) 
-9.1999999999999993

>  <m_primary>  (38) 
energy

$$$$
38:0
     RDKit          3D

 32 33  0  0  0  0  0  0  0  0999 V2000
   58.2112   32.1592   42.4718 H   0  0  0  0  0  0  0  0  0  0  0  0
   57.6500   31.4050   43.0430 C   0  0  0  0  0  0  0  0  0  0  0  0
   57.9320   31.1990   44.3570 N   0  0  0  0  0  0  0  0  0  0  0  0
   57.2670   30.2760   45.1060 C   0  0  0  0  0  0  0  0  0  0  0  0
   57.5520   30.0830   46.3630 N   0  0  0  0  0  0  0  0  0  0  0  0
   58.8320   30.0400   47.0210 C   0  0  0  0  0  0  0  0  0  0  0  0
   59.0400   30.8590   47.9550 O   0  0  0  0  0  0  0  0  0  0  0  0
   59.8900   28.9960   46.7480 C   0  0  0  0  0  0  0  0  0  0  0  0
   60.0639   28.9420   45.6632 H   0  0  0  0  0  0  0  0  0  0  0  0
   60.8043   29.2911   47.2837 H   0  0  0  0  0  0  0  0  0  0  0  0
   59.4730   27.6090   47.2520 C   0  0  0  0  0  0  0  0  0  0  0  0
   60.2702   26.8875   47.0198 H   0  0  0  0  0  0  0  0  0  0  0  0
   59.3085   27.6664   48.3381 H   0  0  0  0  0  0  0  0  0  0  0  0
   58.2310   27.1700   46.6160 N   0  0  0  0  0  0  0  0  0  0  0  0
   57.4860   27.8880   46.4750 H   0  0  0  0  0  0  0  0  0  0  0  0
   57.9400   25.7890   46.3460 C   0  0  0  0  0  0  0  0  0  0  0  0
   58.8450   24.9200   46.4690 O   0  0  0  0  0  0  0  0  0  0  0  0
   56.5740   25.3760   45.9540 C   0  0  0  0  0  0  0  0  0  0  0  0
   55.5100   26.1640   46.2690 N   0  0  0  0  0  0  0  0  0  0  0  0
   54.2590   25.8100   45.9670 N   0  0  0  0  0  0  0  0  0  0  0  0
   53.9890   24.6420   45.3310 C   0  0  0  0  0  0  0  0  0  0  0  0
   52.7990   24.3310   45.0620 O   0  0  0  0  0  0  0  0  0  0  0  0
   55.0370   23.7920   44.9810 C   0  0  0  0  0  0  0  0  0  0  0  0
   54.8352   22.8416   44.4652 H   0  0  0  0  0  0  0  0  0  0  0  0
   56.3430   24.1620   45.2930 C   0  0  0  0  0  0  0  0  0  0  0  0
   57.1850   23.5076   45.0232 H   0  0  0  0  0  0  0  0  0  0  0  0
   56.2450   29.5190   44.5110 C   0  0  0  0  0  0  0  0  0  0  0  0
   55.5410   28.5720   45.2470 O   0  0  0  0  0  0  0  0  0  0  0  0
   55.9430   29.7130   43.1610 C   0  0  0  0  0  0  0  0  0  0  0  0
   55.1493   29.1196   42.6836 H   0  0  0  0  0  0  0  0  0  0  0  0
   56.6490   30.6600   42.4190 C   0  0  0  0  0  0  0  0  0  0  0  0
   56.4193   30.8175   41.3548 H   0  0  0  0  0  0  0  0  0  0  0  0
  1  2  1  0
  2  3  1  0
  3  4  1  0
  4  5  2  0
  5  6  1  0
  6  7  2  0
  6  8  1  0
  8  9  1  0
  8 10  1  0
  8 11  1  0
 11 12  1  0
 11 13  1  0
 11 14  1  0
 14 15  1  0
 14 16  1  0
 16 17  2  0
 16 18  1  0
 18 19  2  0
 19 20  1  0
 20 21  1  0
 21 22  2  0
 21 23  1  0
 23 24  1  0
 23 25  2  0
 25 26  1  0
  4 27  1  0
 27 28  1  0
 27 29  2  0
 29 30  1  0
 29 31  1  0
 31 32  1  0
 31  2  2  0
 25 18  1  0
M  CHG  3   3  -1  20  -1  28  -1
M  END
>  <UniqueID>  (39) 
36

>  <SMILES>  (39) 
O=C(CCNC(=O)c1ccc(=O)[n-]n1)/N=c1\[n-]cccc1[O-]

>  <Energy>  (39) 
34.43950650053849

>  <Genealogy>  (39) 
O=C(CCNC(=O)c1ccc(=O)[n-]n1)N=c1[n-]cccc1[O-] (protonated)
O=C(CCNC(=O)c1ccc(=O)[n-]n1)/N=c1\[n-]cccc1[O-] (cis-trans isomerization)
O=C(CCNC(=O)c1ccc(=O)[n-]n1)/N=c1\[n-]cccc1[O-] (3D coordinates assigned)
O=C(CCNC(=O)c1ccc(=O)[n-]n1)/N=c1\[n-]cccc1[O-] (optimized conformer: 34.43950650053849 kcal/mol)

>  <smiles>  (39) 
O=C(CCNC(=O)c1ccc(=O)[nH]n1)N=c1[nH]cccc1O

>  <score_type>  (39) 
oracle

>  <origin>  (39) 
adg

>  <m_score__min__energy>  (39) 
-13.48

>  <m_primary>  (39) 
energy

$$$$
39:0
     RDKit          3D

 56 58  0  0  0  0  0  0  0  0999 V2000
   58.7940   28.6380   48.0810 C   0  0  0  0  0  0  0  0  0  0  0  0
   58.2320   29.6980   48.8470 O   0  0  0  0  0  0  0  0  0  0  0  0
   58.9580   30.7910   49.3450 C   0  0  0  0  0  0  0  0  0  0  0  0
   59.1630   31.9630   48.5890 C   0  0  0  0  0  0  0  0  0  0  0  0
   59.8560   33.0500   49.1370 C   0  0  0  0  0  0  0  0  0  0  0  0
   60.0390   34.2830   48.3420 C   0  0  0  0  0  0  0  0  0  0  0  0
   59.0880   34.8130   47.5590 C   0  0  0  0  0  0  0  0  0  0  0  0
   59.0020   34.5700   46.1070 C   0  0  0  0  0  0  0  0  0  0  0  0
   59.5570   35.3680   45.3010 O   0  0  0  0  0  0  0  0  0  0  0  0
   58.2920   33.4270   45.6140 N   0  0  0  0  0  0  0  0  0  0  0  0
   58.4120   32.9810   44.2260 C   0  0  0  0  0  0  0  0  0  0  0  0
   57.7010   31.6710   44.0350 C   0  0  0  0  0  0  0  0  0  0  0  0
   57.2850   31.2640   42.7590 C   0  0  0  0  0  0  0  0  0  0  0  0
   56.5730   30.0710   42.6200 C   0  0  0  0  0  0  0  0  0  0  0  0
   56.2810   29.3000   43.7470 C   0  0  0  0  0  0  0  0  0  0  0  0
   56.7040   29.7390   45.0040 C   0  0  0  0  0  0  0  0  0  0  0  0
   57.3960   30.9040   45.1190 N   0  0  0  0  0  0  0  0  0  0  0  0
   60.4080   32.9370   50.4230 C   0  0  0  0  0  0  0  0  0  0  0  0
   60.2180   31.7780   51.1730 C   0  0  0  0  0  0  0  0  0  0  0  0
   59.4760   30.7070   50.6470 C   0  0  0  0  0  0  0  0  0  0  0  0
   59.2180   29.5490   51.3950 O   0  0  0  0  0  0  0  0  0  0  0  0
   58.8920   29.5400   52.7830 C   0  0  0  0  0  0  0  0  0  0  0  0
   57.4930   30.0500   52.9800 C   0  0  0  0  0  0  0  0  0  0  0  0
   57.2820   30.9290   53.8570 O   0  0  0  0  0  0  0  0  0  0  0  0
   56.3840   29.5540   52.2150 N   0  0  0  0  0  0  0  0  0  0  0  0
   55.0310   30.0260   52.2930 C   0  0  0  0  0  0  0  0  0  0  0  0
   54.1930   29.6720   53.3610 C   0  0  0  0  0  0  0  0  0  0  0  0
   52.9010   30.1980   53.4470 C   0  0  0  0  0  0  0  0  0  0  0  0
   52.4160   31.0660   52.4510 C   0  0  0  0  0  0  0  0  0  0  0  0
   51.0570   31.6460   52.5570 C   0  0  0  0  0  0  0  0  0  0  0  0
   50.6550   32.7120   51.6970 N   0  0  0  0  0  0  0  0  0  0  0  0
   50.2430   31.2070   53.4130 O   0  0  0  0  0  0  0  0  0  0  0  0
   53.2430   31.3720   51.3560 C   0  0  0  0  0  0  0  0  0  0  0  0
   54.5390   30.8510   51.2760 C   0  0  0  0  0  0  0  0  0  0  0  0
   59.2002   27.8719   48.7578 H   0  0  0  0  0  0  0  0  0  0  0  0
   58.0145   28.1908   47.4466 H   0  0  0  0  0  0  0  0  0  0  0  0
   59.6016   29.0322   47.4466 H   0  0  0  0  0  0  0  0  0  0  0  0
   58.7759   32.0244   47.5612 H   0  0  0  0  0  0  0  0  0  0  0  0
   61.0111   34.7951   48.3959 H   0  0  0  0  0  0  0  0  0  0  0  0
   58.3324   35.4631   48.0242 H   0  0  0  0  0  0  0  0  0  0  0  0
   57.7450   32.8400   46.2820 H   0  0  0  0  0  0  0  0  0  0  0  0
   57.9655   33.7362   43.5625 H   0  0  0  0  0  0  0  0  0  0  0  0
   59.4768   32.8484   43.9839 H   0  0  0  0  0  0  0  0  0  0  0  0
   57.5173   31.8784   41.8766 H   0  0  0  0  0  0  0  0  0  0  0  0
   56.2427   29.7391   41.6246 H   0  0  0  0  0  0  0  0  0  0  0  0
   55.7238   28.3569   43.6461 H   0  0  0  0  0  0  0  0  0  0  0  0
   56.4775   29.1427   45.9002 H   0  0  0  0  0  0  0  0  0  0  0  0
   60.9942   33.7686   50.8411 H   0  0  0  0  0  0  0  0  0  0  0  0
   60.6508   31.7012   52.1813 H   0  0  0  0  0  0  0  0  0  0  0  0
   58.9637   28.5122   53.1684 H   0  0  0  0  0  0  0  0  0  0  0  0
   59.5951   30.1890   53.3256 H   0  0  0  0  0  0  0  0  0  0  0  0
   54.5543   28.9776   54.1339 H   0  0  0  0  0  0  0  0  0  0  0  0
   52.2586   29.9316   54.2993 H   0  0  0  0  0  0  0  0  0  0  0  0
   49.9430   33.4100   52.0070 H   0  0  0  0  0  0  0  0  0  0  0  0
   52.8680   32.0265   50.5554 H   0  0  0  0  0  0  0  0  0  0  0  0
   55.1735   31.0910   50.4101 H   0  0  0  0  0  0  0  0  0  0  0  0
  1  2  1  0
  2  3  1  0
  3  4  2  0
  4  5  1  0
  5  6  1  0
  6  7  2  3
  7  8  1  0
  8  9  2  0
  8 10  1  0
 10 11  1  0
 11 12  1  0
 12 13  2  0
 13 14  1  0
 14 15  2  0
 15 16  1  0
 16 17  2  0
  5 18  2  0
 18 19  1  0
 19 20  2  0
 20 21  1  0
 21 22  1  0
 22 23  1  0
 23 24  2  0
 23 25  1  0
 25 26  1  0
 26 27  2  0
 27 28  1  0
 28 29  2  0
 29 30  1  0
 30 31  1  0
 30 32  2  0
 29 33  1  0
 33 34  2  0
 20  3  1  0
 34 26  1  0
 17 12  1  0
  1 35  1  0
  1 36  1  0
  1 37  1  0
  4 38  1  0
  6 39  1  0
  7 40  1  0
 10 41  1  0
 11 42  1  0
 11 43  1  0
 13 44  1  0
 14 45  1  0
 15 46  1  0
 16 47  1  0
 18 48  1  0
 19 49  1  0
 22 50  1  0
 22 51  1  0
 27 52  1  0
 28 53  1  0
 31 54  1  0
 33 55  1  0
 34 56  1  0
M  CHG  2  25  -1  31  -1
M  END
>  <UniqueID>  (40) 
37

>  <SMILES>  (40) 
COc1cc(C=CC(=O)NCc2ccccn2)ccc1OCC(=O)[N-]c1ccc(C([NH-])=O)cc1

>  <Energy>  (40) 
62.70933527420764

>  <Genealogy>  (40) 
COc1cc(C=CC(=O)NCc2ccccn2)ccc1OCC(=O)[N-]c1ccc(C([NH-])=O)cc1 (protonated)
COc1cc(C=CC(=O)NCc2ccccn2)ccc1OCC(=O)[N-]c1ccc(C([NH-])=O)cc1 (3D coordinates assigned)
COc1cc(C=CC(=O)NCc2ccccn2)ccc1OCC(=O)[N-]c1ccc(C([NH-])=O)cc1 (optimized conformer: 62.70933527420764 kcal/mol)

>  <smiles>  (40) 
COc1cc(C=CC(=O)NCc2ccccn2)ccc1OCC(=O)Nc1ccc(C(N)=O)cc1

>  <score_type>  (40) 
oracle

>  <origin>  (40) 
adg

>  <m_score__min__energy>  (40) 
-13.529999999999999

>  <m_primary>  (40) 
energy

$$$$
40:0
     RDKit          3D

 50 53  0  0  0  0  0  0  0  0999 V2000
   60.4910   29.4450   46.2880 C   0  0  0  0  0  0  0  0  0  0  0  0
   59.6670   30.4440   45.9370 C   0  0  0  0  0  0  0  0  0  0  0  0
   58.5810   30.3910   45.0460 C   0  0  0  0  0  0  0  0  0  0  0  0
   57.9990   29.3520   44.4150 C   0  0  0  0  0  0  0  0  0  0  0  0
   57.4140   28.1670   45.0720 C   0  0  0  0  0  0  0  0  0  0  0  0
   56.0280   28.0580   45.2760 C   0  0  0  0  0  0  0  0  0  0  0  0
   55.1720   29.0880   44.9020 O   0  0  0  0  0  0  0  0  0  0  0  0
   55.5130   26.9340   45.8380 N   0  0  0  0  0  0  0  0  0  0  0  0
   56.3150   25.8980   46.1950 C   0  0  0  0  0  0  0  0  0  0  0  0
   55.8160   24.8690   46.7170 O   0  0  0  0  0  0  0  0  0  0  0  0
   57.6540   25.9710   45.9830 N   0  0  0  0  0  0  0  0  0  0  0  0
   58.2180   27.0730   45.4250 C   0  0  0  0  0  0  0  0  0  0  0  0
   59.4640   27.1040   45.2380 O   0  0  0  0  0  0  0  0  0  0  0  0
   58.1330   31.6960   44.9030 C   0  0  0  0  0  0  0  0  0  0  0  0
   58.9160   32.4800   45.7250 C   0  0  0  0  0  0  0  0  0  0  0  0
   58.7560   33.9570   45.9150 C   0  0  0  0  0  0  0  0  0  0  0  0
   59.8380   31.7240   46.3540 N   0  0  0  0  0  0  0  0  0  0  0  0
   60.8300   32.2140   47.2700 C   0  0  0  0  0  0  0  0  0  0  0  0
   62.0280   32.7390   46.7800 C   0  0  0  0  0  0  0  0  0  0  0  0
   63.0010   33.2080   47.6610 C   0  0  0  0  0  0  0  0  0  0  0  0
   62.7710   33.1430   49.0470 C   0  0  0  0  0  0  0  0  0  0  0  0
   63.7540   33.6100   49.9990 N   0  0  0  0  0  0  0  0  0  0  0  0
   65.1770   33.2770   49.8450 C   0  0  0  0  0  0  0  0  0  0  0  0
   65.8790   33.2940   51.2060 C   0  0  0  0  0  0  0  0  0  0  0  0
   65.6160   34.5010   51.8940 O   0  0  0  0  0  0  0  0  0  0  0  0
   64.2400   34.5740   52.2100 C   0  0  0  0  0  0  0  0  0  0  0  0
   63.3960   34.6810   50.9380 C   0  0  0  0  0  0  0  0  0  0  0  0
   61.5910   32.6320   49.4970 N   0  0  0  0  0  0  0  0  0  0  0  0
   60.6240   32.1670   48.6600 C   0  0  0  0  0  0  0  0  0  0  0  0
   59.3540   31.6200   49.2400 C   0  0  0  0  0  0  0  0  0  0  0  0
   61.3066   29.6301   47.0026 H   0  0  0  0  0  0  0  0  0  0  0  0
   60.3510   28.4409   45.8612 H   0  0  0  0  0  0  0  0  0  0  0  0
   57.9564   29.3905   43.3165 H   0  0  0  0  0  0  0  0  0  0  0  0
   57.3110   32.0398   44.2579 H   0  0  0  0  0  0  0  0  0  0  0  0
   58.7310   34.1878   46.9902 H   0  0  0  0  0  0  0  0  0  0  0  0
   59.6027   34.4807   45.4472 H   0  0  0  0  0  0  0  0  0  0  0  0
   57.8168   34.2873   45.4472 H   0  0  0  0  0  0  0  0  0  0  0  0
   62.2042   32.7825   45.6951 H   0  0  0  0  0  0  0  0  0  0  0  0
   63.9423   33.6261   47.2749 H   0  0  0  0  0  0  0  0  0  0  0  0
   65.2688   32.2743   49.4022 H   0  0  0  0  0  0  0  0  0  0  0  0
   65.6496   34.0238   49.1901 H   0  0  0  0  0  0  0  0  0  0  0  0
   65.5157   32.4490   51.8093 H   0  0  0  0  0  0  0  0  0  0  0  0
   66.9637   33.2113   51.0432 H   0  0  0  0  0  0  0  0  0  0  0  0
   63.9480   33.6682   52.7616 H   0  0  0  0  0  0  0  0  0  0  0  0
   64.0662   35.4692   52.8252 H   0  0  0  0  0  0  0  0  0  0  0  0
   62.3313   34.5933   51.2002 H   0  0  0  0  0  0  0  0  0  0  0  0
   63.5871   35.6540   50.4618 H   0  0  0  0  0  0  0  0  0  0  0  0
   59.4119   31.6449   50.3382 H   0  0  0  0  0  0  0  0  0  0  0  0
   58.5040   32.2318   48.9036 H   0  0  0  0  0  0  0  0  0  0  0  0
   59.2145   30.5820   48.9036 H   0  0  0  0  0  0  0  0  0  0  0  0
  1  2  2  0
  2  3  1  0
  3  4  2  3
  4  5  1  0
  5  6  2  0
  6  7  1  0
  6  8  1  0
  8  9  1  0
  9 10  2  0
  9 11  1  0
 11 12  1  0
 12 13  2  0
  3 14  1  0
 14 15  2  0
 15 16  1  0
 15 17  1  0
 17 18  1  0
 18 19  2  0
 19 20  1  0
 20 21  2  0
 21 22  1  0
 22 23  1  0
 23 24  1  0
 24 25  1  0
 25 26  1  0
 26 27  1  0
 21 28  1  0
 28 29  2  0
 29 30  1  0
 17  2  1  0
 29 18  1  0
 12  5  1  0
 27 22  1  0
  1 31  1  0
  1 32  1  0
  4 33  1  0
 14 34  1  0
 16 35  1  0
 16 36  1  0
 16 37  1  0
 19 38  1  0
 20 39  1  0
 23 40  1  0
 23 41  1  0
 24 42  1  0
 24 43  1  0
 26 44  1  0
 26 45  1  0
 27 46  1  0
 27 47  1  0
 30 48  1  0
 30 49  1  0
 30 50  1  0
M  CHG  3   7  -1   8  -1  11  -1
M  END
>  <UniqueID>  (41) 
38

>  <SMILES>  (41) 
C=c1c(=Cc2c([O-])[n-]c(=O)[n-]c2=O)cc(C)n1-c1ccc(N2CCOCC2)nc1C

>  <Energy>  (41) 
106.1173826774669

>  <Genealogy>  (41) 
C=c1c(=Cc2c([O-])[n-]c(=O)[n-]c2=O)cc(C)n1-c1ccc(N2CCOCC2)nc1C (protonated)
C=c1c(=Cc2c([O-])[n-]c(=O)[n-]c2=O)cc(C)n1-c1ccc(N2CCOCC2)nc1C (3D coordinates assigned)
C=c1c(=Cc2c([O-])[n-]c(=O)[n-]c2=O)cc(C)n1-c1ccc(N2CCOCC2)nc1C (nonaromatic ring conformer: 106.1173826774669 kcal/mol)

>  <smiles>  (41) 
C=c1c(=Cc2c(O)[nH]c(=O)[nH]c2=O)cc(C)n1-c1ccc(N2CCOCC2)nc1C

>  <score_type>  (41) 
oracle

>  <origin>  (41) 
adg

>  <m_score__min__energy>  (41) 
-15.33

>  <m_primary>  (41) 
energy

$$$$
41:0
     RDKit          3D

 70 75  0  0  0  0  0  0  0  0999 V2000
   59.8960   33.8270   49.0600 C   0  0  0  0  0  0  0  0  0  0  0  0
   58.6710   33.4330   48.4500 O   0  0  0  0  0  0  0  0  0  0  0  0
   58.4310   33.4580   47.0680 C   0  0  0  0  0  0  0  0  0  0  0  0
   58.9130   34.4880   46.2400 C   0  0  0  0  0  0  0  0  0  0  0  0
   58.6470   34.4700   44.8690 C   0  0  0  0  0  0  0  0  0  0  0  0
   57.8850   33.4380   44.3160 C   0  0  0  0  0  0  0  0  0  0  0  0
   57.3830   32.4100   45.1260 C   0  0  0  0  0  0  0  0  0  0  0  0
   56.6220   31.3660   44.4950 N   0  0  0  0  0  0  0  0  0  0  0  0
   56.5790   29.9650   44.8100 C   0  0  0  0  0  0  0  0  0  0  0  0
   55.4790   29.3550   44.8850 O   0  0  0  0  0  0  0  0  0  0  0  0
   57.8180   29.2450   44.9940 N   0  0  2  0  0  0  0  0  0  0  0  0
   57.7530   28.3440   46.1800 C   0  0  0  0  0  0  0  0  0  0  0  0
   58.8470   28.7850   47.0640 C   0  0  0  0  0  0  0  0  0  0  0  0
   59.1700   28.2780   48.2940 N   0  0  0  0  0  0  0  0  0  0  0  0
   60.2270   28.7990   48.9940 C   0  0  0  0  0  0  0  0  0  0  0  0
   60.5290   28.3460   50.1280 O   0  0  0  0  0  0  0  0  0  0  0  0
   60.9620   29.8460   48.4160 C   0  0  0  0  0  0  0  0  0  0  0  0
   62.0100   30.4700   48.8920 O   0  0  0  0  0  0  0  0  0  0  0  0
   62.3750   31.3720   47.9940 C   0  0  0  0  0  0  0  0  0  0  0  0
   63.5270   32.2740   48.1660 C   0  0  0  0  0  0  0  0  0  0  0  0
   63.9980   32.8820   47.1700 O   0  0  0  0  0  0  0  0  0  0  0  0
   64.1080   32.4820   49.4630 N   0  0  0  0  0  0  0  0  0  0  0  0
   64.4860   31.3520   50.3140 C   0  0  0  0  0  0  0  0  0  0  0  0
   63.8610   31.5110   51.7050 C   0  0  0  0  0  0  0  0  0  0  0  0
   64.0220   32.9250   52.3240 C   0  0  0  0  0  0  0  0  0  0  0  0
   65.2620   33.1630   53.1220 N   0  0  0  0  0  0  0  0  0  0  0  0
   65.7980   34.5320   53.2880 C   0  0  0  0  0  0  0  0  0  0  0  0
   66.8550   34.9000   52.2310 C   0  0  0  0  0  0  0  0  0  0  0  0
   67.9350   33.8220   52.1150 C   0  0  0  0  0  0  0  0  0  0  0  0
   67.3130   32.4420   51.9020 C   0  0  0  0  0  0  0  0  0  0  0  0
   66.3150   32.1300   53.0210 C   0  0  0  0  0  0  0  0  0  0  0  0
   63.7780   34.0650   51.3040 C   0  0  0  0  0  0  0  0  0  0  0  0
   64.4170   33.8310   49.9300 C   0  0  0  0  0  0  0  0  0  0  0  0
   61.5250   31.3420   46.8870 C   0  0  0  0  0  0  0  0  0  0  0  0
   60.6240   30.3480   47.1870 C   0  0  0  0  0  0  0  0  0  0  0  0
   59.5440   29.8160   46.4960 C   0  0  0  0  0  0  0  0  0  0  0  0
   58.9660   30.1780   45.1870 C   0  0  0  0  0  0  0  0  0  0  0  0
   57.6860   32.4140   46.5020 C   0  0  0  0  0  0  0  0  0  0  0  0
   59.7885   33.7924   50.1542 H   0  0  0  0  0  0  0  0  0  0  0  0
   60.6979   33.1414   48.7485 H   0  0  0  0  0  0  0  0  0  0  0  0
   60.1479   34.8515   48.7485 H   0  0  0  0  0  0  0  0  0  0  0  0
   59.5012   35.3102   46.6736 H   0  0  0  0  0  0  0  0  0  0  0  0
   59.0383   35.2700   44.2234 H   0  0  0  0  0  0  0  0  0  0  0  0
   57.6772   33.4320   43.2358 H   0  0  0  0  0  0  0  0  0  0  0  0
   58.0000   28.6640   44.1400 H   0  0  0  0  0  0  0  0  0  0  0  0
   56.7826   28.4452   46.6880 H   0  0  0  0  0  0  0  0  0  0  0  0
   57.8555   27.2859   45.8973 H   0  0  0  0  0  0  0  0  0  0  0  0
   64.1278   30.4171   49.8584 H   0  0  0  0  0  0  0  0  0  0  0  0
   65.5813   31.3238   50.4114 H   0  0  0  0  0  0  0  0  0  0  0  0
   62.7862   31.2906   51.6262 H   0  0  0  0  0  0  0  0  0  0  0  0
   64.3946   30.8155   52.3695 H   0  0  0  0  0  0  0  0  0  0  0  0
   63.2124   32.9476   53.0684 H   0  0  0  0  0  0  0  0  0  0  0  0
   64.9644   35.2457   53.2125 H   0  0  0  0  0  0  0  0  0  0  0  0
   66.2894   34.5744   54.2712 H   0  0  0  0  0  0  0  0  0  0  0  0
   66.3595   35.0152   51.2557 H   0  0  0  0  0  0  0  0  0  0  0  0
   67.3379   35.8389   52.5398 H   0  0  0  0  0  0  0  0  0  0  0  0
   68.5879   34.0576   51.2616 H   0  0  0  0  0  0  0  0  0  0  0  0
   68.5135   33.8043   53.0504 H   0  0  0  0  0  0  0  0  0  0  0  0
   66.7901   32.4251   50.9344 H   0  0  0  0  0  0  0  0  0  0  0  0
   68.1107   31.6846   51.9127 H   0  0  0  0  0  0  0  0  0  0  0  0
   65.8420   31.1584   52.8154 H   0  0  0  0  0  0  0  0  0  0  0  0
   66.8651   32.1086   53.9733 H   0  0  0  0  0  0  0  0  0  0  0  0
   62.6925   34.1758   51.1646 H   0  0  0  0  0  0  0  0  0  0  0  0
   64.2502   34.9667   51.7211 H   0  0  0  0  0  0  0  0  0  0  0  0
   64.0205   34.5652   49.2132 H   0  0  0  0  0  0  0  0  0  0  0  0
   65.5079   33.9452   50.0130 H   0  0  0  0  0  0  0  0  0  0  0  0
   61.5666   31.9686   45.9839 H   0  0  0  0  0  0  0  0  0  0  0  0
   58.6178   31.2214   45.1945 H   0  0  0  0  0  0  0  0  0  0  0  0
   59.7036   30.0952   44.3752 H   0  0  0  0  0  0  0  0  0  0  0  0
   57.3342   31.5891   47.1390 H   0  0  0  0  0  0  0  0  0  0  0  0
  1  2  1  0
  2  3  1  0
  3  4  2  0
  4  5  1  0
  5  6  2  0
  6  7  1  0
  7  8  1  0
  8  9  1  0
  9 10  2  0
  9 11  1  0
 11 12  1  0
 12 13  1  0
 13 14  1  0
 14 15  1  0
 15 16  2  0
 15 17  1  0
 17 18  1  0
 18 19  1  0
 19 20  1  0
 20 21  2  0
 20 22  1  0
 22 23  1  0
 23 24  1  0
 24 25  1  0
 25 26  1  0
 26 27  1  0
 27 28  1  0
 28 29  1  0
 29 30  1  0
 30 31  1  0
 25 32  1  0
 32 33  1  0
 19 34  2  0
 34 35  1  0
 35 36  1  0
 36 37  1  0
  7 38  2  0
 38  3  1  0
 37 11  1  0
 36 13  2  0
 35 17  2  0
 33 22  1  0
 31 26  1  0
  1 39  1  0
  1 40  1  0
  1 41  1  0
  4 42  1  0
  5 43  1  0
  6 44  1  0
 11 45  1  6
 12 46  1  0
 12 47  1  0
 23 48  1  0
 23 49  1  0
 24 50  1  0
 24 51  1  0
 25 52  1  0
 27 53  1  0
 27 54  1  0
 28 55  1  0
 28 56  1  0
 29 57  1  0
 29 58  1  0
 30 59  1  0
 30 60  1  0
 31 61  1  0
 31 62  1  0
 32 63  1  0
 32 64  1  0
 33 65  1  0
 33 66  1  0
 34 67  1  0
 37 68  1  0
 37 69  1  0
 38 70  1  0
M  CHG  3   8  -1  11   1  14  -1
M  END
>  <UniqueID>  (42) 
39

>  <SMILES>  (42) 
COc1cccc([N-]C(=O)[N@@H+]2Cc3[n-]c(=O)c4oc(C(=O)N5CCC(N6CCCCC6)CC5)cc4c3C2)c1

>  <Energy>  (42) 
145.97354030123105

>  <Genealogy>  (42) 
COc1cccc([N-]C(=O)[NH+]2Cc3[n-]c(=O)c4oc(C(=O)N5CCC(N6CCCCC6)CC5)cc4c3C2)c1 (protonated)
COc1cccc([N-]C(=O)[N@@H+]2Cc3[n-]c(=O)c4oc(C(=O)N5CCC(N6CCCCC6)CC5)cc4c3C2)c1 (chirality)
COc1cccc([N-]C(=O)[N@@H+]2Cc3[n-]c(=O)c4oc(C(=O)N5CCC(N6CCCCC6)CC5)cc4c3C2)c1 (3D coordinates assigned)
COc1cccc([N-]C(=O)[N@@H+]2Cc3[n-]c(=O)c4oc(C(=O)N5CCC(N6CCCCC6)CC5)cc4c3C2)c1 (nonaromatic ring conformer: 145.97354030123105 kcal/mol)

>  <smiles>  (42) 
COc1cccc(NC(=O)N2Cc3[nH]c(=O)c4oc(C(=O)N5CCC(N6CCCCC6)CC5)cc4c3C2)c1

>  <score_type>  (42) 
oracle

>  <origin>  (42) 
adg

>  <m_score__min__energy>  (42) 
-11.140000000000001

>  <m_primary>  (42) 
energy

$$$$
42:0
     RDKit          3D

 39 41  0  0  0  0  0  0  0  0999 V2000
   55.7240   27.3850   45.0440 H   0  0  0  0  0  0  0  0  0  0  0  0
   56.5500   27.1770   45.6500 N   0  0  0  0  0  0  0  0  0  0  0  0
   57.4270   28.0690   45.9900 C   0  0  0  0  0  0  0  0  0  0  0  0
   58.5320   27.6730   46.6750 N   0  0  0  0  0  0  0  0  0  0  0  0
   59.4960   28.5460   47.0660 C   0  0  0  0  0  0  0  0  0  0  0  0
   60.3757   28.1796   47.6155 H   0  0  0  0  0  0  0  0  0  0  0  0
   59.3760   29.9120   46.7730 C   0  0  0  0  0  0  0  0  0  0  0  0
   60.4270   30.8740   47.1950 C   0  0  0  0  0  0  0  0  0  0  0  0
   61.7890   30.5590   47.0460 C   0  0  0  0  0  0  0  0  0  0  0  0
   62.0885   29.5938   46.6116 H   0  0  0  0  0  0  0  0  0  0  0  0
   62.7600   31.4770   47.4520 C   0  0  0  0  0  0  0  0  0  0  0  0
   63.8267   31.2342   47.3375 H   0  0  0  0  0  0  0  0  0  0  0  0
   62.3900   32.6690   47.9880 N   0  0  0  0  0  0  0  0  0  0  0  0
   61.0800   33.0100   48.1470 C   0  0  0  0  0  0  0  0  0  0  0  0
   60.7480   34.1560   48.6610 N   0  0  0  0  0  0  0  0  0  0  0  0
   59.6160   34.9630   48.2120 C   0  0  0  0  0  0  0  0  0  0  0  0
   58.6831   34.4030   48.3739 H   0  0  0  0  0  0  0  0  0  0  0  0
   59.5935   35.9017   48.7850 H   0  0  0  0  0  0  0  0  0  0  0  0
   59.7590   35.2880   46.7250 C   0  0  0  0  0  0  0  0  0  0  0  0
   59.4578   36.3324   46.5560 H   0  0  0  0  0  0  0  0  0  0  0  0
   60.8090   35.1337   46.4356 H   0  0  0  0  0  0  0  0  0  0  0  0
   58.9010   34.3910   45.8860 C   0  0  0  0  0  0  0  0  0  0  0  0
   57.3880   33.8010   46.3260 S   0  0  0  0  0  0  0  0  0  0  0  0
   57.0810   32.9950   44.8810 C   0  0  0  0  0  0  0  0  0  0  0  0
   56.1782   32.4109   44.6490 H   0  0  0  0  0  0  0  0  0  0  0  0
   58.1620   33.1930   44.0310 C   0  0  0  0  0  0  0  0  0  0  0  0
   58.2149   32.7723   43.0160 H   0  0  0  0  0  0  0  0  0  0  0  0
   59.1780   33.9790   44.5890 C   0  0  0  0  0  0  0  0  0  0  0  0
   60.1021   34.2433   44.0540 H   0  0  0  0  0  0  0  0  0  0  0  0
   60.0770   32.1160   47.7530 C   0  0  0  0  0  0  0  0  0  0  0  0
   59.0179   32.3848   47.8797 H   0  0  0  0  0  0  0  0  0  0  0  0
   58.2430   30.3470   46.0680 C   0  0  0  0  0  0  0  0  0  0  0  0
   58.1267   31.4141   45.8275 H   0  0  0  0  0  0  0  0  0  0  0  0
   57.2540   29.4290   45.6660 C   0  0  0  0  0  0  0  0  0  0  0  0
   56.1090   29.8300   44.9550 O   0  0  0  0  0  0  0  0  0  0  0  0
   55.9140   29.6560   43.5540 C   0  0  0  0  0  0  0  0  0  0  0  0
   56.5035   28.7939   43.2088 H   0  0  0  0  0  0  0  0  0  0  0  0
   56.3150   30.8040   42.8990 F   0  0  0  0  0  0  0  0  0  0  0  0
   54.5750   29.4310   43.2880 F   0  0  0  0  0  0  0  0  0  0  0  0
  1  2  1  0
  2  3  2  0
  3  4  1  0
  4  5  1  0
  5  6  1  0
  5  7  2  0
  7  8  1  0
  8  9  1  0
  9 10  1  0
  9 11  2  0
 11 12  1  0
 11 13  1  0
 13 14  1  0
 14 15  2  0
 15 16  1  0
 16 17  1  0
 16 18  1  0
 16 19  1  0
 19 20  1  0
 19 21  1  0
 19 22  1  0
 22 23  1  0
 23 24  1  0
 24 25  1  0
 24 26  2  0
 26 27  1  0
 26 28  1  0
 28 29  1  0
 14 30  1  0
 30 31  1  0
  7 32  1  0
 32 33  1  0
 32 34  2  0
 34 35  1  0
 35 36  1  0
 36 37  1  0
 36 38  1  0
 36 39  1  0
 34  3  1  0
 30  8  2  0
 28 22  2  0
M  CHG  2   4  -1  13  -1
M  END
>  <UniqueID>  (43) 
40

>  <SMILES>  (43) 
[H]/N=c1/[n-]cc(-c2cc[n-]/c(=N\CCc3cccs3)c2)cc1OC(F)F

>  <Energy>  (43) 
70.53086568315022

>  <Genealogy>  (43) 
N=c1[n-]cc(-c2cc[n-]c(=NCCc3cccs3)c2)cc1OC(F)F (protonated)
[H]/N=c1/[n-]cc(-c2cc[n-]/c(=N\CCc3cccs3)c2)cc1OC(F)F (cis-trans isomerization)
[H]/N=c1/[n-]cc(-c2cc[n-]/c(=N\CCc3cccs3)c2)cc1OC(F)F (3D coordinates assigned)
[H]/N=c1/[n-]cc(-c2cc[n-]/c(=N\CCc3cccs3)c2)cc1OC(F)F (optimized conformer: 70.53086568315022 kcal/mol)

>  <smiles>  (43) 
N=c1[nH]cc(-c2cc[nH]c(=NCCc3cccs3)c2)cc1OC(F)F

>  <score_type>  (43) 
oracle

>  <origin>  (43) 
adg

>  <m_score__min__energy>  (43) 
-9.6199999999999992

>  <m_primary>  (43) 
energy

$$$$
43:0
     RDKit          3D

 44 47  0  0  0  0  0  0  0  0999 V2000
   59.6070   27.8120   46.9170 C   0  0  0  0  0  0  0  0  0  0  0  0
   58.8530   28.6710   46.2140 C   0  0  0  0  0  0  0  0  0  0  0  0
   57.9190   28.3620   45.2100 C   0  0  0  0  0  0  0  0  0  0  0  0
   57.4120   27.1810   44.8050 C   0  0  0  0  0  0  0  0  0  0  0  0
   57.1590   26.0110   45.6690 C   0  0  0  0  0  0  0  0  0  0  0  0
   55.9010   25.8270   46.2580 C   0  0  0  0  0  0  0  0  0  0  0  0
   54.8600   26.7120   45.9960 O   0  0  0  0  0  0  0  0  0  0  0  0
   55.6860   24.7710   47.0860 N   0  0  0  0  0  0  0  0  0  0  0  0
   56.6810   23.8900   47.3690 C   0  0  0  0  0  0  0  0  0  0  0  0
   56.4580   22.9180   48.1350 O   0  0  0  0  0  0  0  0  0  0  0  0
   57.9160   24.0640   46.8340 N   0  0  0  0  0  0  0  0  0  0  0  0
   58.1810   25.1040   46.0010 C   0  0  0  0  0  0  0  0  0  0  0  0
   59.3450   25.2460   45.5400 O   0  0  0  0  0  0  0  0  0  0  0  0
   57.5450   29.5690   44.6440 C   0  0  0  0  0  0  0  0  0  0  0  0
   58.2000   30.5610   45.3420 C   0  0  0  0  0  0  0  0  0  0  0  0
   58.0680   32.0270   45.0630 C   0  0  0  0  0  0  0  0  0  0  0  0
   58.9940   30.0210   46.2930 N   0  0  0  0  0  0  0  0  0  0  0  0
   59.8390   30.7550   47.1970 C   0  0  0  0  0  0  0  0  0  0  0  0
   61.2340   30.6650   47.0930 C   0  0  0  0  0  0  0  0  0  0  0  0
   62.0530   31.3850   47.9670 C   0  0  0  0  0  0  0  0  0  0  0  0
   61.4870   32.2070   48.9560 C   0  0  0  0  0  0  0  0  0  0  0  0
   62.3570   32.9730   49.8840 C   0  0  0  0  0  0  0  0  0  0  0  0
   63.5880   33.4990   49.4540 C   0  0  0  0  0  0  0  0  0  0  0  0
   64.0290   33.2960   48.1480 O   0  0  0  0  0  0  0  0  0  0  0  0
   64.3660   34.1980   50.3210 N   0  0  0  0  0  0  0  0  0  0  0  0
   63.9810   34.3990   51.6060 C   0  0  0  0  0  0  0  0  0  0  0  0
   64.7200   35.0500   52.3900 O   0  0  0  0  0  0  0  0  0  0  0  0
   62.7990   33.9000   52.0470 N   0  0  0  0  0  0  0  0  0  0  0  0
   61.9810   33.1970   51.2220 C   0  0  0  0  0  0  0  0  0  0  0  0
   60.8840   32.7650   51.6650 O   0  0  0  0  0  0  0  0  0  0  0  0
   60.0890   32.2950   49.0570 C   0  0  0  0  0  0  0  0  0  0  0  0
   59.2720   31.5740   48.1830 C   0  0  0  0  0  0  0  0  0  0  0  0
   60.3037   28.1890   47.6802 H   0  0  0  0  0  0  0  0  0  0  0  0
   59.5283   26.7308   46.7301 H   0  0  0  0  0  0  0  0  0  0  0  0
   57.1652   27.0799   43.7378 H   0  0  0  0  0  0  0  0  0  0  0  0
   56.8561   29.7096   43.7981 H   0  0  0  0  0  0  0  0  0  0  0  0
   58.0184   32.5782   46.0137 H   0  0  0  0  0  0  0  0  0  0  0  0
   58.9389   32.3702   44.4852 H   0  0  0  0  0  0  0  0  0  0  0  0
   57.1498   32.2091   44.4852 H   0  0  0  0  0  0  0  0  0  0  0  0
   61.6857   30.0253   46.3206 H   0  0  0  0  0  0  0  0  0  0  0  0
   63.1468   31.3078   47.8802 H   0  0  0  0  0  0  0  0  0  0  0  0
   64.8550   32.7420   47.9570 H   0  0  0  0  0  0  0  0  0  0  0  0
   59.6352   32.9348   49.8281 H   0  0  0  0  0  0  0  0  0  0  0  0
   58.1780   31.6494   48.2690 H   0  0  0  0  0  0  0  0  0  0  0  0
  1  2  2  0
  2  3  1  0
  3  4  2  3
  4  5  1  0
  5  6  2  0
  6  7  1  0
  6  8  1  0
  8  9  1  0
  9 10  2  0
  9 11  1  0
 11 12  1  0
 12 13  2  0
  3 14  1  0
 14 15  2  0
 15 16  1  0
 15 17  1  0
 17 18  1  0
 18 19  2  0
 19 20  1  0
 20 21  2  0
 21 22  1  0
 22 23  2  0
 23 24  1  0
 23 25  1  0
 25 26  1  0
 26 27  2  0
 26 28  1  0
 28 29  1  0
 29 30  2  0
 21 31  1  0
 31 32  2  0
 17  2  1  0
 32 18  1  0
 12  5  1  0
 29 22  1  0
  1 33  1  0
  1 34  1  0
  4 35  1  0
 14 36  1  0
 16 37  1  0
 16 38  1  0
 16 39  1  0
 19 40  1  0
 20 41  1  0
 24 42  1  0
 31 43  1  0
 32 44  1  0
M  CHG  5   7  -1   8  -1  11  -1  25  -1  28  -1
M  END
>  <UniqueID>  (44) 
41

>  <SMILES>  (44) 
C=c1c(=Cc2c([O-])[n-]c(=O)[n-]c2=O)cc(C)n1-c1ccc(-c2c(O)[n-]c(=O)[n-]c2=O)cc1

>  <Energy>  (44) 
106.35106503667004

>  <Genealogy>  (44) 
C=c1c(=Cc2c([O-])[n-]c(=O)[n-]c2=O)cc(C)n1-c1ccc(-c2c(O)[n-]c(=O)[n-]c2=O)cc1 (protonated)
C=c1c(=Cc2c([O-])[n-]c(=O)[n-]c2=O)cc(C)n1-c1ccc(-c2c(O)[n-]c(=O)[n-]c2=O)cc1 (3D coordinates assigned)
C=c1c(=Cc2c([O-])[n-]c(=O)[n-]c2=O)cc(C)n1-c1ccc(-c2c(O)[n-]c(=O)[n-]c2=O)cc1 (optimized conformer: 106.35106503667004 kcal/mol)

>  <smiles>  (44) 
C=c1c(=Cc2c(O)[nH]c(=O)[nH]c2=O)cc(C)n1-c1ccc(-c2c(O)[nH]c(=O)[nH]c2=O)cc1

>  <score_type>  (44) 
oracle

>  <origin>  (44) 
adg

>  <m_score__min__energy>  (44) 
-16.52

>  <m_primary>  (44) 
energy

$$$$
44:0
     RDKit          3D

 29 30  0  0  0  0  0  0  0  0999 V2000
   54.7420   26.2060   45.9260 N   0  0  0  0  0  0  0  0  0  0  0  0
   56.4570   26.4180   45.9100 S   0  0  0  0  0  0  0  0  0  0  0  0
   57.0700   25.5330   44.8620 O   0  0  0  0  0  0  0  0  0  0  0  0
   57.0150   26.0460   47.2550 O   0  0  0  0  0  0  0  0  0  0  0  0
   56.8450   28.0900   45.5620 C   0  0  0  0  0  0  0  0  0  0  0  0
   55.9630   28.9710   45.0410 N   0  0  0  0  0  0  0  0  0  0  0  0
   56.4830   30.1830   44.8550 N   0  0  0  0  0  0  0  0  0  0  0  0
   57.7800   30.2590   45.2280 C   0  0  0  0  0  0  0  0  0  0  0  0
   58.4990   31.3340   45.1400 N   0  0  0  0  0  0  0  0  0  0  0  0
   57.8530   32.8770   44.6880 S   0  0  0  0  0  0  0  0  0  0  0  0
   56.6560   33.1740   45.5470 O   0  0  0  0  0  0  0  0  0  0  0  0
   57.4230   32.8420   43.2470 O   0  0  0  0  0  0  0  0  0  0  0  0
   59.0880   34.1420   44.9360 C   0  0  0  0  0  0  0  0  0  0  0  0
   59.7140   34.0050   46.2960 C   0  0  0  0  0  0  0  0  0  0  0  0
   58.9110   34.0100   47.4490 C   0  0  0  0  0  0  0  0  0  0  0  0
   59.4910   33.8500   48.7110 C   0  0  0  0  0  0  0  0  0  0  0  0
   60.8720   33.6770   48.8300 C   0  0  0  0  0  0  0  0  0  0  0  0
   61.6760   33.6590   47.6870 C   0  0  0  0  0  0  0  0  0  0  0  0
   61.1000   33.8180   46.4230 C   0  0  0  0  0  0  0  0  0  0  0  0
   58.3550   28.7940   45.8210 S   0  0  0  0  0  0  0  0  0  0  0  0
   54.3640   26.6950   45.0840 H   0  0  0  0  0  0  0  0  0  0  0  0
   54.3780   26.7190   46.7620 H   0  0  0  0  0  0  0  0  0  0  0  0
   59.8678   34.0428   44.1666 H   0  0  0  0  0  0  0  0  0  0  0  0
   58.6073   35.1287   44.8626 H   0  0  0  0  0  0  0  0  0  0  0  0
   57.8225   34.1402   47.3584 H   0  0  0  0  0  0  0  0  0  0  0  0
   58.8591   33.8604   49.6113 H   0  0  0  0  0  0  0  0  0  0  0  0
   61.3270   33.5548   49.8240 H   0  0  0  0  0  0  0  0  0  0  0  0
   62.7630   33.5196   47.7819 H   0  0  0  0  0  0  0  0  0  0  0  0
   61.7347   33.7965   45.5248 H   0  0  0  0  0  0  0  0  0  0  0  0
  1  2  1  0
  2  3  2  0
  2  4  2  0
  2  5  1  0
  5  6  2  0
  6  7  1  0
  7  8  1  0
  8  9  2  3
  9 10  1  0
 10 11  2  0
 10 12  2  0
 10 13  1  0
 13 14  1  0
 14 15  2  0
 15 16  1  0
 16 17  2  0
 17 18  1  0
 18 19  2  0
  8 20  1  0
 20  5  1  0
 19 14  1  0
  1 21  1  0
  1 22  1  0
 13 23  1  0
 13 24  1  0
 15 25  1  0
 16 26  1  0
 17 27  1  0
 18 28  1  0
 19 29  1  0
M  CHG  1   7  -1
M  END
>  <UniqueID>  (45) 
42

>  <SMILES>  (45) 
NS(=O)(=O)c1n[n-]c(=NS(=O)(=O)Cc2ccccc2)s1

>  <Energy>  (45) 
59.76708572098977

>  <Genealogy>  (45) 
NS(=O)(=O)c1n[n-]c(=NS(=O)(=O)Cc2ccccc2)s1 (protonated)
NS(=O)(=O)c1n[n-]c(=NS(=O)(=O)Cc2ccccc2)s1 (3D coordinates assigned)
NS(=O)(=O)c1n[n-]c(=NS(=O)(=O)Cc2ccccc2)s1 (optimized conformer: 59.76708572098977 kcal/mol)

>  <smiles>  (45) 
NS(=O)(=O)c1n[nH]c(=NS(=O)(=O)Cc2ccccc2)s1

>  <score_type>  (45) 
oracle

>  <origin>  (45) 
adg

>  <m_score__min__energy>  (45) 
-10.01

>  <m_primary>  (45) 
energy

$$$$
45:0
     RDKit          3D

 47 49  0  0  0  0  0  0  0  0999 V2000
   50.9750   32.3440   49.8560 N   0  0  0  0  0  0  0  0  0  0  0  0
   51.4100   32.2710   51.2120 C   0  0  0  0  0  0  0  0  0  0  0  0
   51.0860   33.1930   52.0100 O   0  0  0  0  0  0  0  0  0  0  0  0
   52.2310   31.1300   51.6810 C   0  0  0  0  0  0  0  0  0  0  0  0
   51.6190   29.9630   52.1680 C   0  0  0  0  0  0  0  0  0  0  0  0
   52.3950   28.8910   52.6130 C   0  0  0  0  0  0  0  0  0  0  0  0
   53.7890   28.9660   52.5750 C   0  0  0  0  0  0  0  0  0  0  0  0
   54.4250   30.1190   52.0830 C   0  0  0  0  0  0  0  0  0  0  0  0
   55.9060   30.2100   52.0460 C   0  0  0  0  0  0  0  0  0  0  0  0
   56.5990   29.2100   52.3800 O   0  0  0  0  0  0  0  0  0  0  0  0
   56.5590   31.4370   51.6780 N   0  0  0  0  0  0  0  0  0  0  0  0
   57.9160   31.5090   51.2090 C   0  0  0  0  0  0  0  0  0  0  0  0
   58.8760   30.6320   51.7360 C   0  0  0  0  0  0  0  0  0  0  0  0
   60.2070   30.7020   51.3170 C   0  0  0  0  0  0  0  0  0  0  0  0
   60.5950   31.6570   50.3740 C   0  0  0  0  0  0  0  0  0  0  0  0
   59.6530   32.5480   49.8470 C   0  0  0  0  0  0  0  0  0  0  0  0
   60.1610   33.7820   48.6960 S   0  0  0  0  0  0  0  0  0  0  0  0
   61.6470   33.9980   48.8050 O   0  0  0  0  0  0  0  0  0  0  0  0
   59.4640   35.0710   49.0290 O   0  0  0  0  0  0  0  0  0  0  0  0
   59.7470   33.2920   47.0710 N   0  0  0  0  0  0  0  0  0  0  0  0
   59.8270   34.4550   46.1580 C   0  0  0  0  0  0  0  0  0  0  0  0
   59.0560   34.2040   44.8590 C   0  0  0  0  0  0  0  0  0  0  0  0
   57.5580   33.9900   45.1380 C   0  0  0  0  0  0  0  0  0  0  0  0
   57.2870   33.4540   46.5540 C   0  0  0  0  0  0  0  0  0  0  0  0
   58.4470   32.5760   47.0460 C   0  0  0  0  0  0  0  0  0  0  0  0
   58.3190   32.4810   50.2740 C   0  0  0  0  0  0  0  0  0  0  0  0
   53.6370   31.1990   51.6460 C   0  0  0  0  0  0  0  0  0  0  0  0
   49.9600   32.3010   49.6140 H   0  0  0  0  0  0  0  0  0  0  0  0
   50.5216   29.8934   52.1989 H   0  0  0  0  0  0  0  0  0  0  0  0
   51.9060   27.9829   52.9954 H   0  0  0  0  0  0  0  0  0  0  0  0
   54.3925   28.1184   52.9319 H   0  0  0  0  0  0  0  0  0  0  0  0
   56.0580   32.3350   51.8630 H   0  0  0  0  0  0  0  0  0  0  0  0
   58.5784   29.8834   52.4850 H   0  0  0  0  0  0  0  0  0  0  0  0
   60.9504   30.0043   51.7301 H   0  0  0  0  0  0  0  0  0  0  0  0
   61.6433   31.7088   50.0449 H   0  0  0  0  0  0  0  0  0  0  0  0
   59.4008   35.3349   46.6621 H   0  0  0  0  0  0  0  0  0  0  0  0
   60.8843   34.6222   45.9045 H   0  0  0  0  0  0  0  0  0  0  0  0
   59.1775   35.0727   44.1952 H   0  0  0  0  0  0  0  0  0  0  0  0
   59.4567   33.2963   44.3841 H   0  0  0  0  0  0  0  0  0  0  0  0
   57.0375   34.9519   45.0206 H   0  0  0  0  0  0  0  0  0  0  0  0
   57.1916   33.2384   44.4232 H   0  0  0  0  0  0  0  0  0  0  0  0
   57.1630   34.3035   47.2418 H   0  0  0  0  0  0  0  0  0  0  0  0
   56.3737   32.8416   46.5261 H   0  0  0  0  0  0  0  0  0  0  0  0
   58.2175   32.2308   48.0649 H   0  0  0  0  0  0  0  0  0  0  0  0
   58.5469   31.7377   46.3408 H   0  0  0  0  0  0  0  0  0  0  0  0
   57.5818   33.1935   49.8752 H   0  0  0  0  0  0  0  0  0  0  0  0
   54.1260   32.1104   51.2716 H   0  0  0  0  0  0  0  0  0  0  0  0
  1  2  1  0
  2  3  2  0
  2  4  1  0
  4  5  2  0
  5  6  1  0
  6  7  2  0
  7  8  1  0
  8  9  1  0
  9 10  2  0
  9 11  1  0
 11 12  1  0
 12 13  2  0
 13 14  1  0
 14 15  2  0
 15 16  1  0
 16 17  1  0
 17 18  2  0
 17 19  2  0
 17 20  1  0
 20 21  1  0
 21 22  1  0
 22 23  1  0
 23 24  1  0
 24 25  1  0
 16 26  2  0
  8 27  2  0
 27  4  1  0
 26 12  1  0
 25 20  1  0
  1 28  1  0
  5 29  1  0
  6 30  1  0
  7 31  1  0
 11 32  1  0
 13 33  1  0
 14 34  1  0
 15 35  1  0
 21 36  1  0
 21 37  1  0
 22 38  1  0
 22 39  1  0
 23 40  1  0
 23 41  1  0
 24 42  1  0
 24 43  1  0
 25 44  1  0
 25 45  1  0
 26 46  1  0
 27 47  1  0
M  CHG  1   1  -1
M  END
>  <UniqueID>  (46) 
43

>  <SMILES>  (46) 
[NH-]C(=O)c1cccc(C(=O)Nc2cccc(S(=O)(=O)N3CCCCC3)c2)c1

>  <Energy>  (46) 
59.09045750516854

>  <Genealogy>  (46) 
[NH-]C(=O)c1cccc(C(=O)Nc2cccc(S(=O)(=O)N3CCCCC3)c2)c1 (protonated)
[NH-]C(=O)c1cccc(C(=O)Nc2cccc(S(=O)(=O)N3CCCCC3)c2)c1 (3D coordinates assigned)
[NH-]C(=O)c1cccc(C(=O)Nc2cccc(S(=O)(=O)N3CCCCC3)c2)c1 (nonaromatic ring conformer: 59.09045750516854 kcal/mol)

>  <smiles>  (46) 
NC(=O)c1cccc(C(=O)Nc2cccc(S(=O)(=O)N3CCCCC3)c2)c1

>  <score_type>  (46) 
oracle

>  <origin>  (46) 
adg

>  <m_score__min__energy>  (46) 
-13.83

>  <m_primary>  (46) 
energy

$$$$
46:0
     RDKit          3D

 47 50  0  0  0  0  0  0  0  0999 V2000
   60.7241   27.7388   48.1198 H   0  0  0  0  0  0  0  0  0  0  0  0
   59.9010   27.4980   47.4310 C   0  0  0  0  0  0  0  0  0  0  0  0
   59.5287   26.4655   47.3585 H   0  0  0  0  0  0  0  0  0  0  0  0
   59.3510   28.4640   46.6790 C   0  0  0  0  0  0  0  0  0  0  0  0
   58.3010   28.3320   45.7550 C   0  0  0  0  0  0  0  0  0  0  0  0
   57.7040   27.2380   45.2430 C   0  0  0  0  0  0  0  0  0  0  0  0
   57.5934   27.1914   44.1496 H   0  0  0  0  0  0  0  0  0  0  0  0
   57.1870   26.1000   46.0200 C   0  0  0  0  0  0  0  0  0  0  0  0
   57.9190   25.0390   46.4060 N   0  0  0  0  0  0  0  0  0  0  0  0
   57.0030   24.2090   46.9480 C   0  0  0  0  0  0  0  0  0  0  0  0
   57.3090   23.0930   47.4450 O   0  0  0  0  0  0  0  0  0  0  0  0
   55.7320   24.6610   46.9060 N   0  0  0  0  0  0  0  0  0  0  0  0
   55.8660   25.8530   46.3020 C   0  0  0  0  0  0  0  0  0  0  0  0
   54.8000   26.6950   46.0080 O   0  0  0  0  0  0  0  0  0  0  0  0
   57.9470   29.6200   45.3850 C   0  0  0  0  0  0  0  0  0  0  0  0
   57.1312   29.9051   44.7045 H   0  0  0  0  0  0  0  0  0  0  0  0
   58.8130   30.4760   46.0330 C   0  0  0  0  0  0  0  0  0  0  0  0
   58.8080   31.9680   45.8990 C   0  0  0  0  0  0  0  0  0  0  0  0
   58.8065   32.4260   46.8991 H   0  0  0  0  0  0  0  0  0  0  0  0
   59.7051   32.2898   45.3497 H   0  0  0  0  0  0  0  0  0  0  0  0
   57.9088   32.2838   45.3497 H   0  0  0  0  0  0  0  0  0  0  0  0
   59.6670   29.7770   46.8090 N   0  0  0  0  0  0  0  0  0  0  0  0
   60.6680   30.3530   47.6660 C   0  0  0  0  0  0  0  0  0  0  0  0
   61.7760   30.9980   47.1050 C   0  0  0  0  0  0  0  0  0  0  0  0
   61.8801   31.0559   46.0115 H   0  0  0  0  0  0  0  0  0  0  0  0
   62.7510   31.5690   47.9280 C   0  0  0  0  0  0  0  0  0  0  0  0
   63.6220   32.0682   47.4784 H   0  0  0  0  0  0  0  0  0  0  0  0
   62.6250   31.5090   49.3260 C   0  0  0  0  0  0  0  0  0  0  0  0
   63.6330   32.0860   50.1760 N   0  0  0  0  0  0  0  0  0  0  0  0
   63.6860   33.5510   50.3400 C   0  0  0  0  0  0  0  0  0  0  0  0
   63.7161   34.0170   49.3440 H   0  0  0  0  0  0  0  0  0  0  0  0
   62.7916   33.8578   50.9021 H   0  0  0  0  0  0  0  0  0  0  0  0
   64.9190   34.0080   51.1360 C   0  0  0  0  0  0  0  0  0  0  0  0
   65.0889   35.0799   50.9568 H   0  0  0  0  0  0  0  0  0  0  0  0
   64.7394   33.8266   52.2060 H   0  0  0  0  0  0  0  0  0  0  0  0
   66.1390   33.2340   50.7080 C   0  0  0  0  0  0  0  0  0  0  0  0
   67.2090   33.8070   50.5730 O   0  0  0  0  0  0  0  0  0  0  0  0
   66.0510   31.7500   50.4790 C   0  0  0  0  0  0  0  0  0  0  0  0
   66.2760   31.5338   49.4242 H   0  0  0  0  0  0  0  0  0  0  0  0
   66.7768   31.2481   51.1358 H   0  0  0  0  0  0  0  0  0  0  0  0
   64.6480   31.2310   50.8100 C   0  0  0  0  0  0  0  0  0  0  0  0
   64.5426   30.2019   50.4360 H   0  0  0  0  0  0  0  0  0  0  0  0
   64.5046   31.2481   51.9005 H   0  0  0  0  0  0  0  0  0  0  0  0
   61.5080   30.8630   49.8850 C   0  0  0  0  0  0  0  0  0  0  0  0
   61.4007   30.8066   50.9783 H   0  0  0  0  0  0  0  0  0  0  0  0
   60.5330   30.2920   49.0620 C   0  0  0  0  0  0  0  0  0  0  0  0
   59.4300   29.6680   49.6340 O   0  0  0  0  0  0  0  0  0  0  0  0
  1  2  1  0
  2  3  1  0
  2  4  2  0
  4  5  1  0
  5  6  2  0
  6  7  1  0
  6  8  1  0
  8  9  1  0
  9 10  1  0
 10 11  2  0
 10 12  1  0
 12 13  1  0
 13 14  1  0
  5 15  1  0
 15 16  1  0
 15 17  2  0
 17 18  1  0
 18 19  1  0
 18 20  1  0
 18 21  1  0
 17 22  1  0
 22 23  1  0
 23 24  2  0
 24 25  1  0
 24 26  1  0
 26 27  1  0
 26 28  2  0
 28 29  1  0
 29 30  1  0
 30 31  1  0
 30 32  1  0
 30 33  1  0
 33 34  1  0
 33 35  1  0
 33 36  1  0
 36 37  2  0
 36 38  1  0
 38 39  1  0
 38 40  1  0
 38 41  1  0
 41 42  1  0
 41 43  1  0
 28 44  1  0
 44 45  1  0
 44 46  2  0
 46 47  1  0
 22  4  1  0
 46 23  1  0
 13  8  2  0
 41 29  1  0
M  CHG  4   9  -1  12  -1  14  -1  47  -1
M  END
>  <UniqueID>  (47) 
44

>  <SMILES>  (47) 
C=c1/c(=C\c2[n-]c(=O)[n-]c2[O-])cc(C)n1-c1ccc(N2CCC(=O)CC2)cc1[O-]

>  <Energy>  (47) 
129.11708389347234

>  <Genealogy>  (47) 
C=c1c(=Cc2[n-]c(=O)[n-]c2[O-])cc(C)n1-c1ccc(N2CCC(=O)CC2)cc1[O-] (protonated)
C=c1/c(=C\c2[n-]c(=O)[n-]c2[O-])cc(C)n1-c1ccc(N2CCC(=O)CC2)cc1[O-] (cis-trans isomerization)
C=c1/c(=C\c2[n-]c(=O)[n-]c2[O-])cc(C)n1-c1ccc(N2CCC(=O)CC2)cc1[O-] (3D coordinates assigned)
C=c1/c(=C\c2[n-]c(=O)[n-]c2[O-])cc(C)n1-c1ccc(N2CCC(=O)CC2)cc1[O-] (nonaromatic ring conformer: 129.11708389347234 kcal/mol)

>  <smiles>  (47) 
C=c1c(=Cc2[nH]c(=O)[nH]c2O)cc(C)n1-c1ccc(N2CCC(=O)CC2)cc1O

>  <score_type>  (47) 
oracle

>  <origin>  (47) 
adg

>  <m_score__min__energy>  (47) 
-16.960000000000001

>  <m_primary>  (47) 
energy

$$$$
47:0
     RDKit          3D

 34 35  0  0  0  0  0  0  0  0999 V2000
   56.9570   32.0210   45.2360 O   0  0  0  0  0  0  0  0  0  0  0  0
   57.6380   33.0380   44.9370 C   0  0  0  0  0  0  0  0  0  0  0  0
   58.3290   33.0560   43.7320 O   0  0  0  0  0  0  0  0  0  0  0  0
   57.7380   34.1480   45.9030 C   0  0  0  0  0  0  0  0  0  0  0  0
   58.8780   34.6160   46.4350 C   0  0  0  0  0  0  0  0  0  0  0  0
   59.7380   33.8860   47.3860 C   0  0  0  0  0  0  0  0  0  0  0  0
   60.5180   34.5560   48.1140 O   0  0  0  0  0  0  0  0  0  0  0  0
   59.7640   32.4020   47.4620 C   0  0  0  0  0  0  0  0  0  0  0  0
   58.8330   31.6990   48.2500 C   0  0  0  0  0  0  0  0  0  0  0  0
   58.8760   30.3030   48.3200 C   0  0  0  0  0  0  0  0  0  0  0  0
   59.8500   29.5880   47.6160 C   0  0  0  0  0  0  0  0  0  0  0  0
   59.8680   28.1570   47.7160 N   0  0  0  0  0  0  0  0  0  0  0  0
   59.6280   27.2350   46.6440 C   0  0  0  0  0  0  0  0  0  0  0  0
   60.4570   27.1820   45.6970 O   0  0  0  0  0  0  0  0  0  0  0  0
   58.4120   26.3870   46.5920 C   0  0  0  0  0  0  0  0  0  0  0  0
   58.5110   25.0010   46.7990 C   0  0  0  0  0  0  0  0  0  0  0  0
   57.3700   24.1930   46.7550 C   0  0  0  0  0  0  0  0  0  0  0  0
   57.4920   22.8250   46.9730 O   0  0  0  0  0  0  0  0  0  0  0  0
   56.1130   24.7630   46.4910 C   0  0  0  0  0  0  0  0  0  0  0  0
   54.9620   23.9760   46.4450 O   0  0  0  0  0  0  0  0  0  0  0  0
   56.0120   26.1410   46.2680 C   0  0  0  0  0  0  0  0  0  0  0  0
   54.7750   26.7150   45.9990 O   0  0  0  0  0  0  0  0  0  0  0  0
   57.1540   26.9470   46.3120 C   0  0  0  0  0  0  0  0  0  0  0  0
   60.7560   30.2810   46.7980 C   0  0  0  0  0  0  0  0  0  0  0  0
   60.7140   31.6760   46.7240 C   0  0  0  0  0  0  0  0  0  0  0  0
   56.8005   34.6326   46.2132 H   0  0  0  0  0  0  0  0  0  0  0  0
   59.1970   35.6259   46.1378 H   0  0  0  0  0  0  0  0  0  0  0  0
   58.0670   32.2512   48.8141 H   0  0  0  0  0  0  0  0  0  0  0  0
   58.1388   29.7637   48.9329 H   0  0  0  0  0  0  0  0  0  0  0  0
   59.4934   24.5476   46.9972 H   0  0  0  0  0  0  0  0  0  0  0  0
   54.9850   22.9790   46.6180 H   0  0  0  0  0  0  0  0  0  0  0  0
   57.0668   28.0276   46.1260 H   0  0  0  0  0  0  0  0  0  0  0  0
   61.5023   29.7237   46.2127 H   0  0  0  0  0  0  0  0  0  0  0  0
   61.4306   32.2100   46.0827 H   0  0  0  0  0  0  0  0  0  0  0  0
  1  2  2  0
  2  3  1  0
  2  4  1  0
  4  5  2  3
  5  6  1  0
  6  7  2  0
  6  8  1  0
  8  9  2  0
  9 10  1  0
 10 11  2  0
 11 12  1  0
 12 13  1  0
 13 14  2  0
 13 15  1  0
 15 16  2  0
 16 17  1  0
 17 18  1  0
 17 19  2  0
 19 20  1  0
 19 21  1  0
 21 22  1  0
 21 23  2  0
 11 24  1  0
 24 25  2  0
 25  8  1  0
 23 15  1  0
  4 26  1  0
  5 27  1  0
  9 28  1  0
 10 29  1  0
 16 30  1  0
 20 31  1  0
 23 32  1  0
 24 33  1  0
 25 34  1  0
M  CHG  4   3  -1  12  -1  18  -1  22  -1
M  END
>  <UniqueID>  (48) 
45

>  <SMILES>  (48) 
O=C([O-])C=CC(=O)c1ccc([N-]C(=O)c2cc([O-])c(O)c([O-])c2)cc1

>  <Energy>  (48) 
50.8761024801235

>  <Genealogy>  (48) 
O=C([O-])C=CC(=O)c1ccc([N-]C(=O)c2cc([O-])c(O)c([O-])c2)cc1 (protonated)
O=C([O-])C=CC(=O)c1ccc([N-]C(=O)c2cc([O-])c(O)c([O-])c2)cc1 (3D coordinates assigned)
O=C([O-])C=CC(=O)c1ccc([N-]C(=O)c2cc([O-])c(O)c([O-])c2)cc1 (optimized conformer: 50.8761024801235 kcal/mol)

>  <smiles>  (48) 
O=C(O)C=CC(=O)c1ccc(NC(=O)c2cc(O)c(O)c(O)c2)cc1

>  <score_type>  (48) 
oracle

>  <origin>  (48) 
adg

>  <m_score__min__energy>  (48) 
-15.92

>  <m_primary>  (48) 
energy

$$$$
48:0
     RDKit          3D

 47 49  0  0  0  0  0  0  0  0999 V2000
   60.4410   26.6400   47.7260 N   0  0  0  0  0  0  0  0  0  0  0  0
   60.2300   27.7760   47.6610 C   0  0  0  0  0  0  0  0  0  0  0  0
   59.9660   29.1890   47.5790 C   0  0  0  0  0  0  0  0  0  0  0  0
   60.5270   29.9480   46.5450 C   0  0  0  0  0  0  0  0  0  0  0  0
   60.2680   31.3190   46.4610 C   0  0  0  0  0  0  0  0  0  0  0  0
   59.4410   31.9430   47.4080 C   0  0  0  0  0  0  0  0  0  0  0  0
   59.1550   33.4170   47.3210 C   0  0  0  0  0  0  0  0  0  0  0  0
   57.7930   33.6520   46.8480 N   0  0  0  0  0  0  0  0  0  0  0  0
   57.3780   33.7130   45.4770 C   0  0  0  0  0  0  0  0  0  0  0  0
   56.5730   34.6140   45.1260 O   0  0  0  0  0  0  0  0  0  0  0  0
   57.8890   32.8140   44.4850 N   0  0  0  0  0  0  0  0  0  0  0  0
   57.5270   31.5740   44.3640 C   0  0  0  0  0  0  0  0  0  0  0  0
   57.5310   30.6830   45.3790 N   0  0  0  0  0  0  0  0  0  0  0  0
   57.1040   29.4600   44.9650 C   0  0  0  0  0  0  0  0  0  0  0  0
   57.1240   28.2760   45.8790 C   0  0  0  0  0  0  0  0  0  0  0  0
   55.9640   27.4210   45.6220 N   0  0  0  0  0  0  0  0  0  0  0  0
   55.8610   26.1040   46.1850 C   0  0  0  0  0  0  0  0  0  0  0  0
   56.8120   25.6330   46.8630 O   0  0  0  0  0  0  0  0  0  0  0  0
   54.6920   25.2990   45.9850 N   0  0  0  0  0  0  0  0  0  0  0  0
   54.5740   24.1960   45.0350 C   0  0  0  0  0  0  0  0  0  0  0  0
   55.8110   23.3300   45.0400 C   0  0  0  0  0  0  0  0  0  0  0  0
   56.3120   22.8240   46.2540 C   0  0  0  0  0  0  0  0  0  0  0  0
   57.4210   21.9750   46.2630 C   0  0  0  0  0  0  0  0  0  0  0  0
   58.0300   21.6060   45.0610 C   0  0  0  0  0  0  0  0  0  0  0  0
   57.5330   22.0900   43.8480 C   0  0  0  0  0  0  0  0  0  0  0  0
   56.4280   22.9480   43.8330 C   0  0  0  0  0  0  0  0  0  0  0  0
   55.9600   23.3930   42.6390 F   0  0  0  0  0  0  0  0  0  0  0  0
   56.7600   29.3760   43.6170 C   0  0  0  0  0  0  0  0  0  0  0  0
   56.9880   30.8970   42.9270 S   0  0  0  0  0  0  0  0  0  0  0  0
   58.8880   31.1790   48.4480 C   0  0  0  0  0  0  0  0  0  0  0  0
   59.1470   29.8070   48.5310 C   0  0  0  0  0  0  0  0  0  0  0  0
   61.1728   29.4645   45.7972 H   0  0  0  0  0  0  0  0  0  0  0  0
   60.7144   31.9117   45.6489 H   0  0  0  0  0  0  0  0  0  0  0  0
   59.2738   33.8673   48.3176 H   0  0  0  0  0  0  0  0  0  0  0  0
   59.8597   33.8725   46.6097 H   0  0  0  0  0  0  0  0  0  0  0  0
   58.0453   27.7000   45.7077 H   0  0  0  0  0  0  0  0  0  0  0  0
   57.0889   28.6258   46.9213 H   0  0  0  0  0  0  0  0  0  0  0  0
   55.1640   27.8130   45.0800 H   0  0  0  0  0  0  0  0  0  0  0  0
   53.7046   23.5799   45.3081 H   0  0  0  0  0  0  0  0  0  0  0  0
   54.4515   24.6189   44.0269 H   0  0  0  0  0  0  0  0  0  0  0  0
   55.8269   23.0990   47.2022 H   0  0  0  0  0  0  0  0  0  0  0  0
   57.8154   21.5965   47.2176 H   0  0  0  0  0  0  0  0  0  0  0  0
   58.9010   20.9342   45.0695 H   0  0  0  0  0  0  0  0  0  0  0  0
   58.0118   21.7956   42.9024 H   0  0  0  0  0  0  0  0  0  0  0  0
   56.4027   28.4759   43.0953 H   0  0  0  0  0  0  0  0  0  0  0  0
   58.2480   31.6617   49.2012 H   0  0  0  0  0  0  0  0  0  0  0  0
   58.7065   29.2130   49.3454 H   0  0  0  0  0  0  0  0  0  0  0  0
  1  2  3  0
  2  3  1  0
  3  4  2  0
  4  5  1  0
  5  6  2  0
  6  7  1  0
  7  8  1  0
  8  9  1  0
  9 10  2  0
  9 11  1  0
 11 12  2  3
 12 13  1  0
 13 14  1  0
 14 15  1  0
 15 16  1  0
 16 17  1  0
 17 18  2  0
 17 19  1  0
 19 20  1  0
 20 21  1  0
 21 22  2  0
 22 23  1  0
 23 24  2  0
 24 25  1  0
 25 26  2  0
 26 27  1  0
 14 28  2  0
 28 29  1  0
  6 30  1  0
 30 31  2  0
 31  3  1  0
 29 12  1  0
 26 21  1  0
  4 32  1  0
  5 33  1  0
  7 34  1  0
  7 35  1  0
 15 36  1  0
 15 37  1  0
 16 38  1  0
 20 39  1  0
 20 40  1  0
 22 41  1  0
 23 42  1  0
 24 43  1  0
 25 44  1  0
 28 45  1  0
 30 46  1  0
 31 47  1  0
M  CHG  3   8  -1  13  -1  19  -1
M  END
>  <UniqueID>  (49) 
46

>  <SMILES>  (49) 
N#Cc1ccc(C[N-]C(=O)N=c2[n-]c(CNC(=O)[N-]Cc3ccccc3F)cs2)cc1

>  <Energy>  (49) 
74.66132418324001

>  <Genealogy>  (49) 
N#Cc1ccc(C[N-]C(=O)N=c2[n-]c(CNC(=O)[N-]Cc3ccccc3F)cs2)cc1 (protonated)
N#Cc1ccc(C[N-]C(=O)N=c2[n-]c(CNC(=O)[N-]Cc3ccccc3F)cs2)cc1 (3D coordinates assigned)
N#Cc1ccc(C[N-]C(=O)N=c2[n-]c(CNC(=O)[N-]Cc3ccccc3F)cs2)cc1 (optimized conformer: 74.66132418324001 kcal/mol)

>  <smiles>  (49) 
N#Cc1ccc(CNC(=O)N=c2[nH]c(CNC(=O)NCc3ccccc3F)cs2)cc1

>  <score_type>  (49) 
oracle

>  <origin>  (49) 
adg

>  <m_score__min__energy>  (49) 
-12.93

>  <m_primary>  (49) 
energy

$$$$
49:0
     RDKit          3D

 24 25  0  0  0  0  0  0  0  0999 V2000
   56.9970   27.2030   46.0910 C   0  0  0  0  0  0  0  0  0  0  0  0
   57.2550   28.6820   45.9580 C   0  0  0  0  0  0  0  0  0  0  0  0
   56.3810   29.4980   45.2310 C   0  0  0  0  0  0  0  0  0  0  0  0
   55.2380   28.9700   44.6410 O   0  0  0  0  0  0  0  0  0  0  0  0
   56.6450   30.8190   45.0950 N   0  0  0  0  0  0  0  0  0  0  0  0
   57.7540   31.3850   45.6350 C   0  0  0  0  0  0  0  0  0  0  0  0
   57.9650   33.0040   45.4390 S   0  0  0  0  0  0  0  0  0  0  0  0
   58.6510   30.6110   46.3320 N   0  0  0  0  0  0  0  0  0  0  0  0
   59.8450   31.1870   46.8980 C   0  0  0  0  0  0  0  0  0  0  0  0
   59.7570   32.2940   47.7560 C   0  0  0  0  0  0  0  0  0  0  0  0
   60.9170   32.8550   48.3000 C   0  0  0  0  0  0  0  0  0  0  0  0
   62.1690   32.3150   47.9880 C   0  0  0  0  0  0  0  0  0  0  0  0
   63.7530   33.0830   48.7320 Br  0  0  0  0  0  0  0  0  0  0  0  0
   62.2620   31.2140   47.1300 C   0  0  0  0  0  0  0  0  0  0  0  0
   61.1030   30.6520   46.5850 C   0  0  0  0  0  0  0  0  0  0  0  0
   58.4160   29.2690   46.4920 C   0  0  0  0  0  0  0  0  0  0  0  0
   59.2480   28.5510   47.1150 O   0  0  0  0  0  0  0  0  0  0  0  0
   56.9500   26.9334   47.1564 H   0  0  0  0  0  0  0  0  0  0  0  0
   56.0416   26.9525   45.6068 H   0  0  0  0  0  0  0  0  0  0  0  0
   57.8112   26.6438   45.6068 H   0  0  0  0  0  0  0  0  0  0  0  0
   58.7736   32.7214   48.0012 H   0  0  0  0  0  0  0  0  0  0  0  0
   60.8446   33.7215   48.9737 H   0  0  0  0  0  0  0  0  0  0  0  0
   63.2468   30.7902   46.8839 H   0  0  0  0  0  0  0  0  0  0  0  0
   61.1784   29.7877   45.9088 H   0  0  0  0  0  0  0  0  0  0  0  0
  1  2  1  0
  2  3  2  0
  3  4  1  0
  3  5  1  0
  5  6  1  0
  6  7  2  0
  6  8  1  0
  8  9  1  0
  9 10  2  0
 10 11  1  0
 11 12  2  0
 12 13  1  0
 12 14  1  0
 14 15  2  0
  8 16  1  0
 16 17  2  0
 16  2  1  0
 15  9  1  0
  1 18  1  0
  1 19  1  0
  1 20  1  0
 10 21  1  0
 11 22  1  0
 14 23  1  0
 15 24  1  0
M  CHG  2   4  -1   5  -1
M  END
>  <UniqueID>  (50) 
47

>  <SMILES>  (50) 
Cc1c([O-])[n-]c(=S)n(-c2ccc(Br)cc2)c1=O

>  <Energy>  (50) 
38.1654307992699

>  <Genealogy>  (50) 
Cc1c([O-])[n-]c(=S)n(-c2ccc(Br)cc2)c1=O (protonated)
Cc1c([O-])[n-]c(=S)n(-c2ccc(Br)cc2)c1=O (3D coordinates assigned)
Cc1c([O-])[n-]c(=S)n(-c2ccc(Br)cc2)c1=O (optimized conformer: 38.1654307992699 kcal/mol)

>  <smiles>  (50) 
Cc1c(O)[nH]c(=S)n(-c2ccc(Br)cc2)c1=O

>  <score_type>  (50) 
oracle

>  <origin>  (50) 
adg

>  <m_score__min__energy>  (50) 
-11.51

>  <m_primary>  (50) 
energy

$$$$
50:0
     RDKit          3D

 38 40  0  0  0  0  0  0  0  0999 V2000
   56.9797   27.2880   44.4534 H   0  0  0  0  0  0  0  0  0  0  0  0
   57.4450   28.2790   44.3470 C   0  0  0  0  0  0  0  0  0  0  0  0
   56.6050   29.4220   43.9260 C   0  0  0  0  0  0  0  0  0  0  0  0
   55.9380   29.3520   42.8590 O   0  0  0  0  0  0  0  0  0  0  0  0
   56.4550   30.5830   44.7540 N   0  0  0  0  0  0  0  0  0  0  0  0
   57.1610   31.6750   44.7010 C   0  0  0  0  0  0  0  0  0  0  0  0
   57.7820   32.0690   43.5690 N   0  0  0  0  0  0  0  0  0  0  0  0
   58.5020   33.2070   43.7550 C   0  0  0  0  0  0  0  0  0  0  0  0
   59.0774   33.6834   42.9476 H   0  0  0  0  0  0  0  0  0  0  0  0
   58.4540   33.7220   45.0470 C   0  0  0  0  0  0  0  0  0  0  0  0
   59.2160   34.9080   45.5460 C   0  0  0  0  0  0  0  0  0  0  0  0
   59.8466   35.3027   44.7357 H   0  0  0  0  0  0  0  0  0  0  0  0
   58.5054   35.6799   45.8765 H   0  0  0  0  0  0  0  0  0  0  0  0
   60.0870   34.5110   46.7060 C   0  0  0  0  0  0  0  0  0  0  0  0
   59.5990   34.5970   48.0190 C   0  0  0  0  0  0  0  0  0  0  0  0
   58.5861   34.9844   48.2033 H   0  0  0  0  0  0  0  0  0  0  0  0
   60.3960   34.1920   49.0930 C   0  0  0  0  0  0  0  0  0  0  0  0
   60.0107   34.2708   50.1203 H   0  0  0  0  0  0  0  0  0  0  0  0
   61.6810   33.6870   48.8690 C   0  0  0  0  0  0  0  0  0  0  0  0
   62.6530   33.1860   50.2460 Cl  0  0  0  0  0  0  0  0  0  0  0  0
   62.1710   33.5850   47.5550 C   0  0  0  0  0  0  0  0  0  0  0  0
   63.7760   32.9460   47.2280 Cl  0  0  0  0  0  0  0  0  0  0  0  0
   61.3720   33.9920   46.4800 C   0  0  0  0  0  0  0  0  0  0  0  0
   61.7532   33.9047   45.4519 H   0  0  0  0  0  0  0  0  0  0  0  0
   57.5040   32.7080   45.9950 S   0  0  0  0  0  0  0  0  0  0  0  0
   58.7540   28.4110   44.6030 C   0  0  0  0  0  0  0  0  0  0  0  0
   59.4680   27.9316   43.9171 H   0  0  0  0  0  0  0  0  0  0  0  0
   59.2940   29.1670   45.7590 C   0  0  0  0  0  0  0  0  0  0  0  0
   58.5390   29.4140   46.9220 C   0  0  0  0  0  0  0  0  0  0  0  0
   57.5106   29.0328   47.0054 H   0  0  0  0  0  0  0  0  0  0  0  0
   59.1040   30.1460   47.9690 C   0  0  0  0  0  0  0  0  0  0  0  0
   58.5206   30.3341   48.8823 H   0  0  0  0  0  0  0  0  0  0  0  0
   60.3710   30.6270   47.8650 N   0  0  0  0  0  0  0  0  0  0  0  0
   60.7780   31.1730   48.6570 H   0  0  0  0  0  0  0  0  0  0  0  0
   61.1170   30.4190   46.7470 C   0  0  0  0  0  0  0  0  0  0  0  0
   62.1375   30.8250   46.6856 H   0  0  0  0  0  0  0  0  0  0  0  0
   60.5920   29.6920   45.6770 C   0  0  0  0  0  0  0  0  0  0  0  0
   61.1952   29.5312   44.7713 H   0  0  0  0  0  0  0  0  0  0  0  0
  1  2  1  0
  2  3  1  0
  3  4  2  0
  3  5  1  0
  5  6  2  0
  6  7  1  0
  7  8  1  0
  8  9  1  0
  8 10  2  0
 10 11  1  0
 11 12  1  0
 11 13  1  0
 11 14  1  0
 14 15  2  0
 15 16  1  0
 15 17  1  0
 17 18  1  0
 17 19  2  0
 19 20  1  0
 19 21  1  0
 21 22  1  0
 21 23  2  0
 23 24  1  0
 10 25  1  0
  2 26  2  3
 26 27  1  0
 26 28  1  0
 28 29  2  0
 29 30  1  0
 29 31  1  0
 31 32  1  0
 31 33  2  0
 33 34  1  0
 33 35  1  0
 35 36  1  0
 35 37  2  0
 37 38  1  0
 25  6  1  0
 37 28  1  0
 23 14  1  0
M  CHG  2   7  -1  33   1
M  END
>  <UniqueID>  (51) 
48

>  <SMILES>  (51) 
O=C(C=Cc1cc[nH+]cc1)/N=c1/[n-]cc(Cc2ccc(Cl)c(Cl)c2)s1

>  <Energy>  (51) 
77.42764867563525

>  <Genealogy>  (51) 
O=C(C=Cc1cc[nH+]cc1)N=c1[n-]cc(Cc2ccc(Cl)c(Cl)c2)s1 (protonated)
O=C(C=Cc1cc[nH+]cc1)/N=c1/[n-]cc(Cc2ccc(Cl)c(Cl)c2)s1 (cis-trans isomerization)
O=C(C=Cc1cc[nH+]cc1)/N=c1/[n-]cc(Cc2ccc(Cl)c(Cl)c2)s1 (3D coordinates assigned)
O=C(C=Cc1cc[nH+]cc1)/N=c1/[n-]cc(Cc2ccc(Cl)c(Cl)c2)s1 (optimized conformer: 77.42764867563525 kcal/mol)

>  <smiles>  (51) 
O=C(C=Cc1ccncc1)N=c1[nH]cc(Cc2ccc(Cl)c(Cl)c2)s1

>  <score_type>  (51) 
oracle

>  <origin>  (51) 
adg

>  <m_score__min__energy>  (51) 
-9.2300000000000004

>  <m_primary>  (51) 
energy

$$$$
51:0
     RDKit          3D

 32 33  0  0  0  0  0  0  0  0999 V2000
   54.7880   29.4470   44.1310 N   0  0  0  0  0  0  0  0  0  0  0  0
   56.3410   30.2020   44.0260 S   0  0  0  0  0  0  0  0  0  0  0  0
   56.6250   30.5220   42.5850 O   0  0  0  0  0  0  0  0  0  0  0  0
   56.3350   31.4730   44.8280 O   0  0  0  0  0  0  0  0  0  0  0  0
   57.5770   29.1180   44.6550 C   0  0  0  0  0  0  0  0  0  0  0  0
   58.2160   29.4020   45.8690 C   0  0  0  0  0  0  0  0  0  0  0  0
   59.1910   28.5340   46.3720 C   0  0  0  0  0  0  0  0  0  0  0  0
   59.5360   27.3710   45.6650 C   0  0  0  0  0  0  0  0  0  0  0  0
   60.5660   26.4300   46.2250 C   0  0  0  0  0  0  0  0  0  0  0  0
   59.9250   25.2280   46.7430 N   0  0  0  0  0  0  0  0  0  0  0  0
   59.5260   24.1220   45.9230 C   0  0  0  0  0  0  0  0  0  0  0  0
   60.3810   23.2640   45.5710 O   0  0  0  0  0  0  0  0  0  0  0  0
   58.1150   23.9850   45.4920 C   0  0  0  0  0  0  0  0  0  0  0  0
   57.7340   22.9770   44.5900 C   0  0  0  0  0  0  0  0  0  0  0  0
   56.3940   22.8650   44.1970 C   0  0  0  0  0  0  0  0  0  0  0  0
   55.9960   21.8740   43.3050 O   0  0  0  0  0  0  0  0  0  0  0  0
   55.4690   23.7300   44.6910 N   0  0  0  0  0  0  0  0  0  0  0  0
   55.8040   24.7150   45.5650 C   0  0  0  0  0  0  0  0  0  0  0  0
   54.9160   25.4950   45.9980 O   0  0  0  0  0  0  0  0  0  0  0  0
   57.1300   24.8610   45.9820 C   0  0  0  0  0  0  0  0  0  0  0  0
   58.8850   27.0830   44.4550 C   0  0  0  0  0  0  0  0  0  0  0  0
   57.9110   27.9520   43.9550 C   0  0  0  0  0  0  0  0  0  0  0  0
   54.5620   29.3560   45.1480 H   0  0  0  0  0  0  0  0  0  0  0  0
   57.9501   30.3108   46.4287 H   0  0  0  0  0  0  0  0  0  0  0  0
   59.6894   28.7636   47.3253 H   0  0  0  0  0  0  0  0  0  0  0  0
   61.2725   26.1504   45.4296 H   0  0  0  0  0  0  0  0  0  0  0  0
   61.1007   26.9318   47.0449 H   0  0  0  0  0  0  0  0  0  0  0  0
   58.4855   22.2782   44.1938 H   0  0  0  0  0  0  0  0  0  0  0  0
   56.6420   21.1670   42.9750 H   0  0  0  0  0  0  0  0  0  0  0  0
   57.4019   25.6575   46.6903 H   0  0  0  0  0  0  0  0  0  0  0  0
   59.1424   26.1699   43.8982 H   0  0  0  0  0  0  0  0  0  0  0  0
   57.4043   27.7188   43.0069 H   0  0  0  0  0  0  0  0  0  0  0  0
  1  2  1  0
  2  3  2  0
  2  4  2  0
  2  5  1  0
  5  6  2  0
  6  7  1  0
  7  8  2  0
  8  9  1  0
  9 10  1  0
 10 11  1  0
 11 12  2  0
 11 13  1  0
 13 14  1  0
 14 15  2  0
 15 16  1  0
 15 17  1  0
 17 18  1  0
 18 19  2  0
 18 20  1  0
  8 21  1  0
 21 22  2  0
 22  5  1  0
 20 13  2  0
  1 23  1  0
  6 24  1  0
  7 25  1  0
  9 26  1  0
  9 27  1  0
 14 28  1  0
 16 29  1  0
 20 30  1  0
 21 31  1  0
 22 32  1  0
M  CHG  3   1  -1  10  -1  17  -1
M  END
>  <UniqueID>  (52) 
49

>  <SMILES>  (52) 
[NH-]S(=O)(=O)c1ccc(C[N-]C(=O)c2cc(O)[n-]c(=O)c2)cc1

>  <Energy>  (52) 
31.324835882947923

>  <Genealogy>  (52) 
[NH-]S(=O)(=O)c1ccc(C[N-]C(=O)c2cc(O)[n-]c(=O)c2)cc1 (protonated)
[NH-]S(=O)(=O)c1ccc(C[N-]C(=O)c2cc(O)[n-]c(=O)c2)cc1 (3D coordinates assigned)
[NH-]S(=O)(=O)c1ccc(C[N-]C(=O)c2cc(O)[n-]c(=O)c2)cc1 (optimized conformer: 31.324835882947923 kcal/mol)

>  <smiles>  (52) 
NS(=O)(=O)c1ccc(CNC(=O)c2cc(O)[nH]c(=O)c2)cc1

>  <score_type>  (52) 
oracle

>  <origin>  (52) 
adg

>  <m_score__min__energy>  (52) 
-13.789999999999999

>  <m_primary>  (52) 
energy

$$$$
52:0
     RDKit          3D

 49 51  0  0  0  0  0  0  0  0999 V2000
   60.2403   28.1316   43.9227 H   0  0  0  0  0  0  0  0  0  0  0  0
   59.7650   28.2630   44.9060 C   0  0  0  0  0  0  0  0  0  0  0  0
   60.3940   27.7680   46.3850 S   0  0  0  0  0  0  0  0  0  0  0  0
   59.0690   28.3350   47.2620 C   0  0  0  0  0  0  0  0  0  0  0  0
   58.9260   28.3080   48.5550 N   0  0  0  0  0  0  0  0  0  0  0  0
   59.2080   29.3650   49.4880 C   0  0  0  0  0  0  0  0  0  0  0  0
   58.2770   29.9980   50.0550 O   0  0  0  0  0  0  0  0  0  0  0  0
   60.5620   29.6800   49.8260 N   0  0  0  0  0  0  0  0  0  0  0  0
   61.3870   30.6200   49.1240 C   0  0  0  0  0  0  0  0  0  0  0  0
   61.1430   30.9340   47.7760 C   0  0  0  0  0  0  0  0  0  0  0  0
   60.3102   30.4519   47.2430 H   0  0  0  0  0  0  0  0  0  0  0  0
   61.9550   31.8570   47.1100 C   0  0  0  0  0  0  0  0  0  0  0  0
   61.7623   32.0955   46.0536 H   0  0  0  0  0  0  0  0  0  0  0  0
   63.0120   32.4780   47.7840 C   0  0  0  0  0  0  0  0  0  0  0  0
   63.6513   33.2009   47.2561 H   0  0  0  0  0  0  0  0  0  0  0  0
   63.2560   32.1810   49.1260 C   0  0  0  0  0  0  0  0  0  0  0  0
   64.0870   32.6718   49.6537 H   0  0  0  0  0  0  0  0  0  0  0  0
   62.4400   31.2530   49.8080 C   0  0  0  0  0  0  0  0  0  0  0  0
   62.6550   30.9250   51.1550 O   0  0  0  0  0  0  0  0  0  0  0  0
   62.9750   29.6160   51.6280 C   0  0  0  0  0  0  0  0  0  0  0  0
   62.9756   29.6136   52.7280 H   0  0  0  0  0  0  0  0  0  0  0  0
   62.2255   28.8998   51.2602 H   0  0  0  0  0  0  0  0  0  0  0  0
   63.9704   29.3264   51.2602 H   0  0  0  0  0  0  0  0  0  0  0  0
   58.1490   28.9010   46.4540 N   0  0  0  0  0  0  0  0  0  0  0  0
   58.5330   28.8700   45.1490 C   0  0  0  0  0  0  0  0  0  0  0  0
   57.6720   29.4350   44.0630 C   0  0  0  0  0  0  0  0  0  0  0  0
   57.3731   28.6265   43.3797 H   0  0  0  0  0  0  0  0  0  0  0  0
   58.2429   30.1999   43.5161 H   0  0  0  0  0  0  0  0  0  0  0  0
   56.4410   30.0700   44.6480 C   0  0  0  0  0  0  0  0  0  0  0  0
   55.4320   29.3500   44.8700 O   0  0  0  0  0  0  0  0  0  0  0  0
   56.3310   31.4860   44.8400 N   0  0  0  0  0  0  0  0  0  0  0  0
   57.4000   32.3710   45.1950 C   0  0  0  0  0  0  0  0  0  0  0  0
   58.0660   33.0740   44.1860 C   0  0  0  0  0  0  0  0  0  0  0  0
   57.7585   32.9498   43.1372 H   0  0  0  0  0  0  0  0  0  0  0  0
   59.1210   33.9340   44.5050 C   0  0  0  0  0  0  0  0  0  0  0  0
   59.6512   34.4723   43.7056 H   0  0  0  0  0  0  0  0  0  0  0  0
   59.5030   34.1110   45.8360 C   0  0  0  0  0  0  0  0  0  0  0  0
   60.3481   34.7721   46.0784 H   0  0  0  0  0  0  0  0  0  0  0  0
   58.8150   33.4500   46.8690 C   0  0  0  0  0  0  0  0  0  0  0  0
   59.2280   33.6460   48.2790 C   0  0  0  0  0  0  0  0  0  0  0  0
   59.8870   34.6750   48.5870 O   0  0  0  0  0  0  0  0  0  0  0  0
   58.8860   32.6920   49.2950 N   0  0  0  0  0  0  0  0  0  0  0  0
   58.2580   31.8870   49.0700 H   0  0  0  0  0  0  0  0  0  0  0  0
   59.3190   32.8590   50.6780 C   0  0  0  0  0  0  0  0  0  0  0  0
   58.5105   32.5472   51.3555 H   0  0  0  0  0  0  0  0  0  0  0  0
   60.2097   32.2399   50.8607 H   0  0  0  0  0  0  0  0  0  0  0  0
   59.5633   33.9159   50.8607 H   0  0  0  0  0  0  0  0  0  0  0  0
   57.7510   32.5870   46.5400 C   0  0  0  0  0  0  0  0  0  0  0  0
   57.1915   32.0792   47.3395 H   0  0  0  0  0  0  0  0  0  0  0  0
  1  2  1  0
  2  3  1  0
  3  4  1  0
  4  5  2  0
  5  6  1  0
  6  7  2  0
  6  8  1  0
  8  9  1  0
  9 10  2  0
 10 11  1  0
 10 12  1  0
 12 13  1  0
 12 14  2  0
 14 15  1  0
 14 16  1  0
 16 17  1  0
 16 18  2  0
 18 19  1  0
 19 20  1  0
 20 21  1  0
 20 22  1  0
 20 23  1  0
  4 24  1  0
 24 25  1  0
 25 26  1  0
 26 27  1  0
 26 28  1  0
 26 29  1  0
 29 30  2  0
 29 31  1  0
 31 32  1  0
 32 33  2  0
 33 34  1  0
 33 35  1  0
 35 36  1  0
 35 37  2  0
 37 38  1  0
 37 39  1  0
 39 40  1  0
 40 41  2  0
 40 42  1  0
 42 43  1  0
 42 44  1  0
 44 45  1  0
 44 46  1  0
 44 47  1  0
 39 48  2  0
 48 49  1  0
 25  2  2  0
 48 32  1  0
 18  9  1  0
M  CHG  3   8  -1  24  -1  31  -1
M  END
>  <UniqueID>  (53) 
50

>  <SMILES>  (53) 
CNC(=O)c1cccc([N-]C(=O)Cc2cs/c(=N\C(=O)[N-]c3ccccc3OC)[n-]2)c1

>  <Energy>  (53) 
90.98846065248588

>  <Genealogy>  (53) 
CNC(=O)c1cccc([N-]C(=O)Cc2csc(=NC(=O)[N-]c3ccccc3OC)[n-]2)c1 (protonated)
CNC(=O)c1cccc([N-]C(=O)Cc2cs/c(=N\C(=O)[N-]c3ccccc3OC)[n-]2)c1 (cis-trans isomerization)
CNC(=O)c1cccc([N-]C(=O)Cc2cs/c(=N\C(=O)[N-]c3ccccc3OC)[n-]2)c1 (3D coordinates assigned)
CNC(=O)c1cccc([N-]C(=O)Cc2cs/c(=N\C(=O)[N-]c3ccccc3OC)[n-]2)c1 (optimized conformer: 90.98846065248588 kcal/mol)

>  <smiles>  (53) 
CNC(=O)c1cccc(NC(=O)Cc2csc(=NC(=O)Nc3ccccc3OC)[nH]2)c1

>  <score_type>  (53) 
oracle

>  <origin>  (53) 
adg

>  <m_score__min__energy>  (53) 
-13.380000000000001

>  <m_primary>  (53) 
energy

$$$$
53:0
     RDKit          3D

 33 36  0  0  0  0  0  0  0  0999 V2000
   57.2670   23.1770   47.9370 O   0  0  0  0  0  0  0  0  0  0  0  0
   57.0700   24.2940   47.3910 C   0  0  0  0  0  0  0  0  0  0  0  0
   55.8670   24.6650   46.9110 N   0  0  0  0  0  0  0  0  0  0  0  0
   56.1070   25.8970   46.4300 C   0  0  0  0  0  0  0  0  0  0  0  0
   55.1360   26.6880   45.8250 O   0  0  0  0  0  0  0  0  0  0  0  0
   57.4310   26.2410   46.6250 C   0  0  0  0  0  0  0  0  0  0  0  0
   58.1160   27.5380   46.2300 C   0  0  1  0  0  0  0  0  0  0  0  0
   57.0680   28.5900   45.7590 C   0  0  0  0  0  0  0  0  0  0  0  0
   57.7720   29.9060   45.3600 C   0  0  2  0  0  0  0  0  0  0  0  0
   58.7620   29.6300   44.2070 C   0  0  0  0  0  0  0  0  0  0  0  0
   59.8160   28.6010   44.6690 C   0  0  1  0  0  0  0  0  0  0  0  0
   60.5830   29.1620   45.8880 C   0  0  0  0  0  0  0  0  0  0  0  0
   59.5930   29.4410   47.0400 C   0  0  1  0  0  0  0  0  0  0  0  0
   58.5380   30.4680   46.5750 C   0  0  0  0  0  0  0  0  0  0  0  0
   58.8900   28.1260   47.4440 C   0  0  0  0  0  0  0  0  0  0  0  0
   59.1130   27.2840   45.0650 C   0  0  0  0  0  0  0  0  0  0  0  0
   58.0470   25.2120   47.2410 N   0  0  0  0  0  0  0  0  0  0  0  0
   54.3850   27.0910   46.3700 H   0  0  0  0  0  0  0  0  0  0  0  0
   56.3614   28.7902   46.5779 H   0  0  0  0  0  0  0  0  0  0  0  0
   56.5297   28.1929   44.8857 H   0  0  0  0  0  0  0  0  0  0  0  0
   57.0213   30.6393   45.0303 H   0  0  0  0  0  0  0  0  0  0  0  0
   59.2640   30.5666   43.9226 H   0  0  0  0  0  0  0  0  0  0  0  0
   58.2141   29.2301   43.3411 H   0  0  0  0  0  0  0  0  0  0  0  0
   60.5221   28.4064   43.8483 H   0  0  0  0  0  0  0  0  0  0  0  0
   61.0873   30.0975   45.6042 H   0  0  0  0  0  0  0  0  0  0  0  0
   61.3306   28.4262   46.2192 H   0  0  0  0  0  0  0  0  0  0  0  0
   60.1403   29.8446   47.9046 H   0  0  0  0  0  0  0  0  0  0  0  0
   59.0392   31.4050   46.2908 H   0  0  0  0  0  0  0  0  0  0  0  0
   57.8312   30.6635   47.3949 H   0  0  0  0  0  0  0  0  0  0  0  0
   58.1835   28.3279   48.2625 H   0  0  0  0  0  0  0  0  0  0  0  0
   59.6475   27.3997   47.7736 H   0  0  0  0  0  0  0  0  0  0  0  0
   58.5647   26.8893   44.1969 H   0  0  0  0  0  0  0  0  0  0  0  0
   59.8705   26.5568   45.3925 H   0  0  0  0  0  0  0  0  0  0  0  0
  1  2  2  0
  2  3  1  0
  3  4  1  0
  4  5  1  0
  4  6  2  0
  7  6  1  1
  7  8  1  0
  8  9  1  0
  9 10  1  0
 10 11  1  0
 11 12  1  0
 12 13  1  0
 13 14  1  0
 13 15  1  0
 11 16  1  0
  6 17  1  0
 17  2  1  0
 15  7  1  0
 16  7  1  0
 14  9  1  0
  5 18  1  0
  8 19  1  0
  8 20  1  0
  9 21  1  6
 10 22  1  0
 10 23  1  0
 11 24  1  6
 12 25  1  0
 12 26  1  0
 13 27  1  1
 14 28  1  0
 14 29  1  0
 15 30  1  0
 15 31  1  0
 16 32  1  0
 16 33  1  0
M  CHG  2   3  -1  17  -1
M  END
>  <UniqueID>  (54) 
51

>  <SMILES>  (54) 
O=c1[n-]c(O)c(C23CC4CC(CC(C4)C2)C3)[n-]1

>  <Energy>  (54) 
62.44271481508944

>  <Genealogy>  (54) 
O=c1[n-]c(O)c(C23CC4CC(CC(C4)C2)C3)[n-]1 (protonated)
O=c1[n-]c(O)c(C23CC4CC(CC(C4)C2)C3)[n-]1 (3D coordinates assigned)
O=c1[n-]c(O)c(C23CC4CC(CC(C4)C2)C3)[n-]1 (nonaromatic ring conformer: 62.44271481508944 kcal/mol)

>  <smiles>  (54) 
O=c1[nH]c(O)c(C23CC4CC(CC(C4)C2)C3)[nH]1

>  <score_type>  (54) 
oracle

>  <origin>  (54) 
adg

>  <m_score__min__energy>  (54) 
-11.32

>  <m_primary>  (54) 
energy

$$$$
54:0
     RDKit          3D

 35 35  0  0  0  0  0  0  0  0999 V2000
   59.2400   27.9650   45.9370 C   0  0  0  0  0  0  0  0  0  0  0  0
   57.8840   27.7580   46.6180 C   0  0  0  0  0  0  0  0  0  0  0  0
   56.7570   27.3550   45.6500 C   0  0  2  0  0  0  0  0  0  0  0  0
   55.9990   28.5430   45.2440 N   0  0  0  0  0  0  0  0  0  0  0  0
   56.6280   29.2240   43.7720 S   0  0  0  0  0  0  0  0  0  0  0  0
   55.5250   29.3350   42.7560 O   0  0  0  0  0  0  0  0  0  0  0  0
   57.6870   28.3110   43.2220 O   0  0  0  0  0  0  0  0  0  0  0  0
   57.3360   30.8090   44.0720 C   0  0  0  0  0  0  0  0  0  0  0  0
   57.6630   31.2080   45.3740 C   0  0  0  0  0  0  0  0  0  0  0  0
   58.2620   32.4490   45.6000 C   0  0  0  0  0  0  0  0  0  0  0  0
   58.5530   33.3080   44.5270 C   0  0  0  0  0  0  0  0  0  0  0  0
   59.1790   34.5750   44.7970 N   0  0  0  0  0  0  0  0  0  0  0  0
   59.7410   35.0760   46.3620 S   0  0  0  0  0  0  0  0  0  0  0  0
   61.2200   34.1850   46.7970 C   0  0  0  0  0  0  0  0  0  0  0  0
   59.9970   36.5570   46.3680 O   0  0  0  0  0  0  0  0  0  0  0  0
   58.6810   34.7650   47.3800 O   0  0  0  0  0  0  0  0  0  0  0  0
   58.2130   32.9060   43.2220 C   0  0  0  0  0  0  0  0  0  0  0  0
   57.6130   31.6630   42.9990 C   0  0  0  0  0  0  0  0  0  0  0  0
   55.8440   26.3370   46.2780 C   0  0  0  0  0  0  0  0  0  0  0  0
   56.3000   25.5130   47.1150 O   0  0  0  0  0  0  0  0  0  0  0  0
   54.4870   26.3220   45.9740 O   0  0  0  0  0  0  0  0  0  0  0  0
   60.0205   28.0842   46.7029 H   0  0  0  0  0  0  0  0  0  0  0  0
   59.4723   27.0919   45.3095 H   0  0  0  0  0  0  0  0  0  0  0  0
   59.2012   28.8676   45.3095 H   0  0  0  0  0  0  0  0  0  0  0  0
   57.9926   26.9653   47.3729 H   0  0  0  0  0  0  0  0  0  0  0  0
   57.5967   28.7237   47.0594 H   0  0  0  0  0  0  0  0  0  0  0  0
   57.2106   26.8970   44.7587 H   0  0  0  0  0  0  0  0  0  0  0  0
   57.4472   30.5413   46.2219 H   0  0  0  0  0  0  0  0  0  0  0  0
   58.5081   32.7567   46.6270 H   0  0  0  0  0  0  0  0  0  0  0  0
   59.2190   35.2900   44.0360 H   0  0  0  0  0  0  0  0  0  0  0  0
   61.3075   34.1323   47.8922 H   0  0  0  0  0  0  0  0  0  0  0  0
   61.1696   33.1668   46.3837 H   0  0  0  0  0  0  0  0  0  0  0  0
   62.0965   34.7055   46.3837 H   0  0  0  0  0  0  0  0  0  0  0  0
   58.4204   33.5734   42.3726 H   0  0  0  0  0  0  0  0  0  0  0  0
   57.3574   31.3549   41.9745 H   0  0  0  0  0  0  0  0  0  0  0  0
  1  2  1  0
  2  3  1  0
  3  4  1  0
  4  5  1  0
  5  6  2  0
  5  7  2  0
  5  8  1  0
  8  9  2  0
  9 10  1  0
 10 11  2  0
 11 12  1  0
 12 13  1  0
 13 14  1  0
 13 15  2  0
 13 16  2  0
 11 17  1  0
 17 18  2  0
  3 19  1  0
 19 20  2  0
 19 21  1  0
 18  8  1  0
  1 22  1  0
  1 23  1  0
  1 24  1  0
  2 25  1  0
  2 26  1  0
  3 27  1  6
  9 28  1  0
 10 29  1  0
 12 30  1  0
 14 31  1  0
 14 32  1  0
 14 33  1  0
 17 34  1  0
 18 35  1  0
M  CHG  2   4  -1  21  -1
M  END
>  <UniqueID>  (55) 
52

>  <SMILES>  (55) 
CC[C@H]([N-]S(=O)(=O)c1ccc(NS(C)(=O)=O)cc1)C(=O)[O-]

>  <Energy>  (55) 
26.911025426096614

>  <Genealogy>  (55) 
CCC([N-]S(=O)(=O)c1ccc(NS(C)(=O)=O)cc1)C(=O)[O-] (protonated)
CC[C@H]([N-]S(=O)(=O)c1ccc(NS(C)(=O)=O)cc1)C(=O)[O-] (chirality)
CC[C@H]([N-]S(=O)(=O)c1ccc(NS(C)(=O)=O)cc1)C(=O)[O-] (3D coordinates assigned)
CC[C@H]([N-]S(=O)(=O)c1ccc(NS(C)(=O)=O)cc1)C(=O)[O-] (optimized conformer: 26.911025426096614 kcal/mol)

>  <smiles>  (55) 
CCC(NS(=O)(=O)c1ccc(NS(C)(=O)=O)cc1)C(=O)O

>  <score_type>  (55) 
oracle

>  <origin>  (55) 
adg

>  <m_score__min__energy>  (55) 
-11.800000000000001

>  <m_primary>  (55) 
energy

$$$$
55:0
     RDKit          3D

 38 40  0  0  0  0  0  0  0  0999 V2000
   58.7630   30.4130   47.3480 C   0  0  0  0  0  0  0  0  0  0  0  0
   58.3820   31.1900   46.3210 C   0  0  0  0  0  0  0  0  0  0  0  0
   57.9850   30.7700   45.0390 C   0  0  0  0  0  0  0  0  0  0  0  0
   57.9740   29.5510   44.4640 C   0  0  0  0  0  0  0  0  0  0  0  0
   57.4090   28.3240   45.0560 C   0  0  0  0  0  0  0  0  0  0  0  0
   56.0250   28.1830   45.2510 C   0  0  0  0  0  0  0  0  0  0  0  0
   55.1460   29.1830   44.8530 O   0  0  0  0  0  0  0  0  0  0  0  0
   55.5350   27.0600   45.8390 N   0  0  0  0  0  0  0  0  0  0  0  0
   56.3650   26.0710   46.2590 C   0  0  0  0  0  0  0  0  0  0  0  0
   55.8890   25.0390   46.7970 O   0  0  0  0  0  0  0  0  0  0  0  0
   57.7090   26.1970   46.1050 N   0  0  0  0  0  0  0  0  0  0  0  0
   58.2470   27.3000   45.5230 C   0  0  0  0  0  0  0  0  0  0  0  0
   59.4980   27.3880   45.4030 O   0  0  0  0  0  0  0  0  0  0  0  0
   57.5910   31.9120   44.3640 C   0  0  0  0  0  0  0  0  0  0  0  0
   57.7900   32.9740   45.2180 C   0  0  0  0  0  0  0  0  0  0  0  0
   57.5710   34.4110   44.8410 C   0  0  0  0  0  0  0  0  0  0  0  0
   58.2640   32.5440   46.4100 N   0  0  0  0  0  0  0  0  0  0  0  0
   58.5780   33.3920   47.5740 C   0  0  0  0  0  0  0  0  0  0  0  0
   60.0490   33.3450   47.9190 C   0  0  0  0  0  0  0  0  0  0  0  0
   60.4540   33.0180   49.2240 C   0  0  0  0  0  0  0  0  0  0  0  0
   61.7740   32.9540   49.5400 N   0  0  0  0  0  0  0  0  0  0  0  0
   62.7440   33.1920   48.6180 C   0  0  0  0  0  0  0  0  0  0  0  0
   64.1260   33.1140   49.0040 C   0  0  0  0  0  0  0  0  0  0  0  0
   65.2380   33.0520   49.3160 N   0  0  0  0  0  0  0  0  0  0  0  0
   62.3930   33.5050   47.3030 C   0  0  0  0  0  0  0  0  0  0  0  0
   61.0440   33.5750   46.9500 C   0  0  0  0  0  0  0  0  0  0  0  0
   60.7150   33.8670   45.6680 F   0  0  0  0  0  0  0  0  0  0  0  0
   59.0516   30.8701   48.3060 H   0  0  0  0  0  0  0  0  0  0  0  0
   58.7865   29.3195   47.2312 H   0  0  0  0  0  0  0  0  0  0  0  0
   58.4263   29.4636   43.4651 H   0  0  0  0  0  0  0  0  0  0  0  0
   57.1940   31.9621   43.3393 H   0  0  0  0  0  0  0  0  0  0  0  0
   57.4783   35.0193   45.7528 H   0  0  0  0  0  0  0  0  0  0  0  0
   58.4250   34.7685   44.2470 H   0  0  0  0  0  0  0  0  0  0  0  0
   56.6492   34.4979   44.2470 H   0  0  0  0  0  0  0  0  0  0  0  0
   58.2987   34.4308   47.3440 H   0  0  0  0  0  0  0  0  0  0  0  0
   58.0109   33.0134   48.4372 H   0  0  0  0  0  0  0  0  0  0  0  0
   59.6972   32.8124   49.9953 H   0  0  0  0  0  0  0  0  0  0  0  0
   63.1733   33.6949   46.5512 H   0  0  0  0  0  0  0  0  0  0  0  0
  1  2  2  0
  2  3  1  0
  3  4  2  3
  4  5  1  0
  5  6  2  0
  6  7  1  0
  6  8  1  0
  8  9  1  0
  9 10  2  0
  9 11  1  0
 11 12  1  0
 12 13  2  0
  3 14  1  0
 14 15  2  0
 15 16  1  0
 15 17  1  0
 17 18  1  0
 18 19  1  0
 19 20  2  0
 20 21  1  0
 21 22  2  0
 22 23  1  0
 23 24  3  0
 22 25  1  0
 25 26  2  0
 26 27  1  0
 17  2  1  0
 26 19  1  0
 12  5  1  0
  1 28  1  0
  1 29  1  0
  4 30  1  0
 14 31  1  0
 16 32  1  0
 16 33  1  0
 16 34  1  0
 18 35  1  0
 18 36  1  0
 20 37  1  0
 25 38  1  0
M  CHG  3   7  -1   8  -1  11  -1
M  END
>  <UniqueID>  (56) 
53

>  <SMILES>  (56) 
C=c1c(=Cc2c([O-])[n-]c(=O)[n-]c2=O)cc(C)n1Cc1cnc(C#N)cc1F

>  <Energy>  (56) 
84.05871746446759

>  <Genealogy>  (56) 
C=c1c(=Cc2c([O-])[n-]c(=O)[n-]c2=O)cc(C)n1Cc1cnc(C#N)cc1F (protonated)
C=c1c(=Cc2c([O-])[n-]c(=O)[n-]c2=O)cc(C)n1Cc1cnc(C#N)cc1F (3D coordinates assigned)
C=c1c(=Cc2c([O-])[n-]c(=O)[n-]c2=O)cc(C)n1Cc1cnc(C#N)cc1F (optimized conformer: 84.05871746446759 kcal/mol)

>  <smiles>  (56) 
C=c1c(=Cc2c(O)[nH]c(=O)[nH]c2=O)cc(C)n1Cc1cnc(C#N)cc1F

>  <score_type>  (56) 
oracle

>  <origin>  (56) 
adg

>  <m_score__min__energy>  (56) 
-15.369999999999999

>  <m_primary>  (56) 
energy

$$$$
56:0
     RDKit          3D

 51 53  0  0  0  0  0  0  0  0999 V2000
   55.8950   21.8620   42.5800 N   0  0  0  0  0  0  0  0  0  0  0  0
   56.8090   21.7880   43.6710 C   0  0  0  0  0  0  0  0  0  0  0  0
   58.0350   21.5970   43.4500 O   0  0  0  0  0  0  0  0  0  0  0  0
   56.3190   21.9730   45.0740 C   0  0  0  0  0  0  0  0  0  0  0  0
   57.4000   21.6190   46.0950 C   0  0  0  0  0  0  0  0  0  0  0  0
   57.3040   22.4960   47.2590 N   0  0  0  0  0  0  0  0  0  0  0  0
   57.0820   23.9100   47.2030 C   0  0  0  0  0  0  0  0  0  0  0  0
   57.0510   24.5670   48.2750 O   0  0  0  0  0  0  0  0  0  0  0  0
   56.8990   24.5970   45.9600 N   0  0  0  0  0  0  0  0  0  0  0  0
   57.2300   25.9690   45.6970 C   0  0  0  0  0  0  0  0  0  0  0  0
   58.5540   26.2870   45.3710 C   0  0  0  0  0  0  0  0  0  0  0  0
   58.9270   27.6110   45.1250 C   0  0  0  0  0  0  0  0  0  0  0  0
   57.9750   28.6340   45.1710 C   0  0  0  0  0  0  0  0  0  0  0  0
   58.3970   29.9850   44.9310 N   0  0  0  0  0  0  0  0  0  0  0  0
   57.5740   31.1570   45.0140 C   0  0  0  0  0  0  0  0  0  0  0  0
   56.3410   31.0450   44.7790 O   0  0  0  0  0  0  0  0  0  0  0  0
   58.1200   32.4750   45.4160 C   0  0  0  0  0  0  0  0  0  0  0  0
   58.3640   33.4740   44.4580 C   0  0  0  0  0  0  0  0  0  0  0  0
   58.8950   34.7060   44.8420 C   0  0  0  0  0  0  0  0  0  0  0  0
   59.1850   34.9570   46.1840 C   0  0  0  0  0  0  0  0  0  0  0  0
   58.9360   33.9820   47.1560 C   0  0  0  0  0  0  0  0  0  0  0  0
   59.2660   34.2700   48.5240 N   0  0  0  0  0  0  0  0  0  0  0  0
   60.4290   33.8160   49.2300 C   0  0  0  0  0  0  0  0  0  0  0  0
   60.5090   33.9870   50.4780 O   0  0  0  0  0  0  0  0  0  0  0  0
   61.5650   33.1970   48.4970 C   0  0  0  0  0  0  0  0  0  0  0  0
   62.7000   33.9720   48.1860 C   0  0  0  0  0  0  0  0  0  0  0  0
   63.7790   33.4110   47.4990 C   0  0  0  0  0  0  0  0  0  0  0  0
   63.7420   32.0710   47.1120 C   0  0  0  0  0  0  0  0  0  0  0  0
   62.6270   31.2890   47.4110 C   0  0  0  0  0  0  0  0  0  0  0  0
   61.5410   31.8410   48.1000 C   0  0  0  0  0  0  0  0  0  0  0  0
   60.4780   31.0430   48.3660 F   0  0  0  0  0  0  0  0  0  0  0  0
   58.4250   32.7310   46.7640 C   0  0  0  0  0  0  0  0  0  0  0  0
   56.6430   28.3220   45.4920 C   0  0  0  0  0  0  0  0  0  0  0  0
   56.2640   26.9970   45.7320 C   0  0  0  0  0  0  0  0  0  0  0  0
   54.9250   26.7160   45.9840 O   0  0  0  0  0  0  0  0  0  0  0  0
   56.0100   22.5800   41.8310 H   0  0  0  0  0  0  0  0  0  0  0  0
   56.0247   23.0236   45.2144 H   0  0  0  0  0  0  0  0  0  0  0  0
   55.4616   21.3023   45.2319 H   0  0  0  0  0  0  0  0  0  0  0  0
   57.2687   20.5749   46.4154 H   0  0  0  0  0  0  0  0  0  0  0  0
   58.3882   21.7487   45.6296 H   0  0  0  0  0  0  0  0  0  0  0  0
   59.3071   25.4877   45.3080 H   0  0  0  0  0  0  0  0  0  0  0  0
   59.9756   27.8498   44.8938 H   0  0  0  0  0  0  0  0  0  0  0  0
   58.1350   33.2836   43.3991 H   0  0  0  0  0  0  0  0  0  0  0  0
   59.0855   35.4812   44.0852 H   0  0  0  0  0  0  0  0  0  0  0  0
   59.6118   35.9269   46.4791 H   0  0  0  0  0  0  0  0  0  0  0  0
   62.7366   35.0293   48.4873 H   0  0  0  0  0  0  0  0  0  0  0  0
   64.6594   34.0267   47.2627 H   0  0  0  0  0  0  0  0  0  0  0  0
   64.5928   31.6313   46.5708 H   0  0  0  0  0  0  0  0  0  0  0  0
   62.6008   30.2331   47.1039 H   0  0  0  0  0  0  0  0  0  0  0  0
   58.2629   31.9471   47.5185 H   0  0  0  0  0  0  0  0  0  0  0  0
   55.8936   29.1248   45.5550 H   0  0  0  0  0  0  0  0  0  0  0  0
  1  2  1  0
  2  3  2  0
  2  4  1  0
  4  5  1  0
  5  6  1  0
  6  7  1  0
  7  8  2  0
  7  9  1  0
  9 10  1  0
 10 11  2  0
 11 12  1  0
 12 13  2  0
 13 14  1  0
 14 15  1  0
 15 16  2  0
 15 17  1  0
 17 18  2  0
 18 19  1  0
 19 20  2  0
 20 21  1  0
 21 22  1  0
 22 23  1  0
 23 24  2  0
 23 25  1  0
 25 26  2  0
 26 27  1  0
 27 28  2  0
 28 29  1  0
 29 30  2  0
 30 31  1  0
 21 32  2  0
 13 33  1  0
 33 34  2  0
 34 35  1  0
 34 10  1  0
 32 17  1  0
 30 25  1  0
  1 36  1  0
  4 37  1  0
  4 38  1  0
  5 39  1  0
  5 40  1  0
 11 41  1  0
 12 42  1  0
 18 43  1  0
 19 44  1  0
 20 45  1  0
 26 46  1  0
 27 47  1  0
 28 48  1  0
 29 49  1  0
 32 50  1  0
 33 51  1  0
M  CHG  6   1  -1   6  -1   9  -1  14  -1  22  -1  35  -1
M  END
>  <UniqueID>  (57) 
54

>  <SMILES>  (57) 
[NH-]C(=O)CC[N-]C(=O)[N-]c1ccc([N-]C(=O)c2cccc([N-]C(=O)c3ccccc3F)c2)cc1[O-]

>  <Energy>  (57) 
70.6682296587329

>  <Genealogy>  (57) 
[NH-]C(=O)CC[N-]C(=O)[N-]c1ccc([N-]C(=O)c2cccc([N-]C(=O)c3ccccc3F)c2)cc1[O-] (protonated)
[NH-]C(=O)CC[N-]C(=O)[N-]c1ccc([N-]C(=O)c2cccc([N-]C(=O)c3ccccc3F)c2)cc1[O-] (3D coordinates assigned)
[NH-]C(=O)CC[N-]C(=O)[N-]c1ccc([N-]C(=O)c2cccc([N-]C(=O)c3ccccc3F)c2)cc1[O-] (optimized conformer: 70.6682296587329 kcal/mol)

>  <smiles>  (57) 
NC(=O)CCNC(=O)Nc1ccc(NC(=O)c2cccc(NC(=O)c3ccccc3F)c2)cc1O

>  <score_type>  (57) 
oracle

>  <origin>  (57) 
adg

>  <m_score__min__energy>  (57) 
-19.949999999999999

>  <m_primary>  (57) 
energy

$$$$
57:0
     RDKit          3D

 58 61  0  0  0  0  0  0  0  0999 V2000
   63.8410   33.0434   49.3515 H   0  0  0  0  0  0  0  0  0  0  0  0
   63.0370   33.3730   48.6770 C   0  0  0  0  0  0  0  0  0  0  0  0
   61.8150   33.8020   49.2030 C   0  0  0  0  0  0  0  0  0  0  0  0
   61.6567   33.8067   50.2915 H   0  0  0  0  0  0  0  0  0  0  0  0
   60.7940   34.2250   48.3470 C   0  0  0  0  0  0  0  0  0  0  0  0
   59.8313   34.5548   48.7647 H   0  0  0  0  0  0  0  0  0  0  0  0
   60.9910   34.2310   46.9570 C   0  0  0  0  0  0  0  0  0  0  0  0
   59.8860   34.6600   46.0340 C   0  0  0  0  0  0  0  0  0  0  0  0
   60.3169   34.9686   45.0701 H   0  0  0  0  0  0  0  0  0  0  0  0
   59.3441   35.5019   46.4896 H   0  0  0  0  0  0  0  0  0  0  0  0
   58.9330   33.5300   45.8100 C   0  0  0  0  0  0  0  0  0  0  0  0
   58.6880   32.5660   46.7270 N   0  0  0  0  0  0  0  0  0  0  0  0
   57.7700   31.6850   46.3300 N   0  0  0  0  0  0  0  0  0  0  0  0
   57.2820   31.9520   45.0970 C   0  0  0  0  0  0  0  0  0  0  0  0
   56.3610   31.2560   44.4980 N   0  0  0  0  0  0  0  0  0  0  0  0
   56.2300   29.8260   44.4530 C   0  0  0  0  0  0  0  0  0  0  0  0
   55.1570   29.3200   44.8710 O   0  0  0  0  0  0  0  0  0  0  0  0
   57.3310   28.9330   43.9100 C   0  0  0  0  0  0  0  0  0  0  0  0
   57.7774   29.4316   43.0370 H   0  0  0  0  0  0  0  0  0  0  0  0
   56.8579   27.9710   43.6636 H   0  0  0  0  0  0  0  0  0  0  0  0
   58.4140   28.6320   44.8730 N   0  0  0  0  0  0  0  0  0  0  0  0
   59.5260   29.6020   44.8460 C   0  0  0  0  0  0  0  0  0  0  0  0
   59.1429   30.6017   45.0985 H   0  0  0  0  0  0  0  0  0  0  0  0
   59.9688   29.6142   43.8391 H   0  0  0  0  0  0  0  0  0  0  0  0
   60.6020   29.1990   45.8630 C   0  0  0  0  0  0  0  0  0  0  0  0
   61.3853   29.9713   45.8661 H   0  0  0  0  0  0  0  0  0  0  0  0
   60.9877   28.2160   45.5547 H   0  0  0  0  0  0  0  0  0  0  0  0
   60.0780   29.0500   47.2560 N   0  0  0  0  0  0  0  0  0  0  0  0
   60.3680   28.1060   47.6080 H   0  0  0  0  0  0  0  0  0  0  0  0
   60.6430   30.0740   48.1710 C   0  0  0  0  0  0  0  0  0  0  0  0
   60.8066   31.0034   47.6058 H   0  0  0  0  0  0  0  0  0  0  0  0
   61.5877   29.6825   48.5763 H   0  0  0  0  0  0  0  0  0  0  0  0
   59.7220   30.3660   49.3340 C   0  0  0  0  0  0  0  0  0  0  0  0
   59.5470   29.4260   50.3630 C   0  0  0  0  0  0  0  0  0  0  0  0
   60.0810   28.4651   50.3232 H   0  0  0  0  0  0  0  0  0  0  0  0
   58.6970   29.7060   51.4380 C   0  0  0  0  0  0  0  0  0  0  0  0
   58.5653   28.9638   52.2391 H   0  0  0  0  0  0  0  0  0  0  0  0
   58.0090   30.9330   51.5000 C   0  0  0  0  0  0  0  0  0  0  0  0
   57.1480   31.2610   52.5580 O   0  0  0  0  0  0  0  0  0  0  0  0
   55.7720   30.8970   52.6150 C   0  0  0  0  0  0  0  0  0  0  0  0
   55.4579   30.8139   53.6659 H   0  0  0  0  0  0  0  0  0  0  0  0
   55.1681   31.6663   52.1115 H   0  0  0  0  0  0  0  0  0  0  0  0
   55.6274   29.9297   52.1115 H   0  0  0  0  0  0  0  0  0  0  0  0
   58.1860   31.8660   50.4730 C   0  0  0  0  0  0  0  0  0  0  0  0
   57.6512   32.8265   50.5111 H   0  0  0  0  0  0  0  0  0  0  0  0
   59.0360   31.5890   49.3990 C   0  0  0  0  0  0  0  0  0  0  0  0
   59.1683   32.3334   48.6001 H   0  0  0  0  0  0  0  0  0  0  0  0
   58.5970   29.0830   47.3350 C   0  0  0  0  0  0  0  0  0  0  0  0
   58.2569   30.1241   47.2331 H   0  0  0  0  0  0  0  0  0  0  0  0
   58.2942   28.6649   48.3063 H   0  0  0  0  0  0  0  0  0  0  0  0
   57.9540   28.2370   46.2250 C   0  0  0  0  0  0  0  0  0  0  0  0
   56.8620   28.3592   46.2759 H   0  0  0  0  0  0  0  0  0  0  0  0
   58.2515   27.1905   46.3871 H   0  0  0  0  0  0  0  0  0  0  0  0
   57.9720   33.3360   44.4370 S   0  0  0  0  0  0  0  0  0  0  0  0
   62.2180   33.7860   46.4360 C   0  0  0  0  0  0  0  0  0  0  0  0
   62.3772   33.7705   45.3477 H   0  0  0  0  0  0  0  0  0  0  0  0
   63.2370   33.3630   47.2940 C   0  0  0  0  0  0  0  0  0  0  0  0
   64.1974   33.0219   46.8802 H   0  0  0  0  0  0  0  0  0  0  0  0
  1  2  1  0
  2  3  2  0
  3  4  1  0
  3  5  1  0
  5  6  1  0
  5  7  2  0
  7  8  1  0
  8  9  1  0
  8 10  1  0
  8 11  1  0
 11 12  2  0
 12 13  1  0
 13 14  1  0
 14 15  2  0
 15 16  1  0
 16 17  2  0
 16 18  1  0
 18 19  1  0
 18 20  1  0
 18 21  1  0
 21 22  1  0
 22 23  1  0
 22 24  1  0
 22 25  1  0
 25 26  1  0
 25 27  1  0
 25 28  1  0
 28 29  1  0
 28 30  1  0
 30 31  1  0
 30 32  1  0
 30 33  1  0
 33 34  2  0
 34 35  1  0
 34 36  1  0
 36 37  1  0
 36 38  2  0
 38 39  1  0
 39 40  1  0
 40 41  1  0
 40 42  1  0
 40 43  1  0
 38 44  1  0
 44 45  1  0
 44 46  2  0
 46 47  1  0
 28 48  1  0
 48 49  1  0
 48 50  1  0
 48 51  1  0
 51 52  1  0
 51 53  1  0
 14 54  1  0
  7 55  1  0
 55 56  1  0
 55 57  2  0
 57 58  1  0
 57  2  1  0
 54 11  1  0
 51 21  1  0
 46 33  1  0
M  CHG  2  13  -1  28   1
M  END
>  <UniqueID>  (58) 
55

>  <SMILES>  (58) 
COc1ccc(C[NH+]2CCN(CC(=O)/N=c3\[n-]nc(Cc4ccccc4)s3)CC2)cc1

>  <Energy>  (58) 
115.05029803488176

>  <Genealogy>  (58) 
COc1ccc(C[NH+]2CCN(CC(=O)N=c3[n-]nc(Cc4ccccc4)s3)CC2)cc1 (protonated)
COc1ccc(C[NH+]2CCN(CC(=O)/N=c3\[n-]nc(Cc4ccccc4)s3)CC2)cc1 (cis-trans isomerization)
COc1ccc(C[NH+]2CCN(CC(=O)/N=c3\[n-]nc(Cc4ccccc4)s3)CC2)cc1 (3D coordinates assigned)
COc1ccc(C[NH+]2CCN(CC(=O)/N=c3\[n-]nc(Cc4ccccc4)s3)CC2)cc1 (nonaromatic ring conformer: 115.05029803488176 kcal/mol)

>  <smiles>  (58) 
COc1ccc(CN2CCN(CC(=O)N=c3[nH]nc(Cc4ccccc4)s3)CC2)cc1

>  <score_type>  (58) 
oracle

>  <origin>  (58) 
adg

>  <m_score__min__energy>  (58) 
-10.19

>  <m_primary>  (58) 
energy

$$$$
58:0
     RDKit          3D

 29 30  0  0  0  0  0  0  0  0999 V2000
   56.5820   30.2260   42.9360 C   0  0  0  0  0  0  0  0  0  0  0  0
   55.5060   29.7300   43.8430 C   0  0  0  0  0  0  0  0  0  0  0  0
   54.3800   29.4210   43.3670 O   0  0  0  0  0  0  0  0  0  0  0  0
   55.7840   29.5460   45.2360 N   0  0  0  0  0  0  0  0  0  0  0  0
   57.0870   29.1520   45.7640 C   0  0  0  0  0  0  0  0  0  0  0  0
   57.0830   27.6740   46.1790 C   0  0  2  0  0  0  0  0  0  0  0  0
   58.1850   26.8840   45.4230 C   0  0  0  0  0  0  0  0  0  0  0  0
   57.9910   25.4440   45.6100 N   0  0  0  0  0  0  0  0  0  0  0  0
   58.8760   24.4480   45.4610 C   0  0  0  0  0  0  0  0  0  0  0  0
   58.1750   23.2590   45.5730 C   0  0  0  0  0  0  0  0  0  0  0  0
   58.7500   21.9080   45.4720 C   0  0  0  0  0  0  0  0  0  0  0  0
   57.9200   20.7520   45.5790 N   0  0  0  0  0  0  0  0  0  0  0  0
   59.9900   21.7670   45.2900 O   0  0  0  0  0  0  0  0  0  0  0  0
   56.8580   23.5060   45.7650 N   0  0  0  0  0  0  0  0  0  0  0  0
   56.7980   24.8530   45.7730 C   0  0  0  0  0  0  0  0  0  0  0  0
   55.5920   25.6610   45.9000 C   0  0  0  0  0  0  0  0  0  0  0  0
   54.4460   25.1420   45.9290 O   0  0  0  0  0  0  0  0  0  0  0  0
   55.7570   27.0810   45.9520 N   0  0  0  0  0  0  0  0  0  0  0  0
   57.4189   30.6118   43.5366 H   0  0  0  0  0  0  0  0  0  0  0  0
   56.9362   29.4003   42.3014 H   0  0  0  0  0  0  0  0  0  0  0  0
   56.1842   31.0316   42.3014 H   0  0  0  0  0  0  0  0  0  0  0  0
   57.8520   29.3068   44.9889 H   0  0  0  0  0  0  0  0  0  0  0  0
   57.3090   29.7661   46.6492 H   0  0  0  0  0  0  0  0  0  0  0  0
   57.3065   27.6144   47.2544 H   0  0  0  0  0  0  0  0  0  0  0  0
   58.1320   27.1219   44.3503 H   0  0  0  0  0  0  0  0  0  0  0  0
   59.1698   27.1691   45.8217 H   0  0  0  0  0  0  0  0  0  0  0  0
   59.9562   24.5552   45.2832 H   0  0  0  0  0  0  0  0  0  0  0  0
   58.3370   19.7980   45.5070 H   0  0  0  0  0  0  0  0  0  0  0  0
   56.8910   20.8390   45.7320 H   0  0  0  0  0  0  0  0  0  0  0  0
  1  2  1  0
  2  3  2  0
  2  4  1  0
  4  5  1  0
  5  6  1  0
  6  7  1  0
  7  8  1  0
  8  9  1  0
  9 10  2  0
 10 11  1  0
 11 12  1  0
 11 13  2  0
 10 14  1  0
 14 15  2  0
 15 16  1  0
 16 17  2  0
 16 18  1  0
 18  6  1  0
 15  8  1  0
  1 19  1  0
  1 20  1  0
  1 21  1  0
  5 22  1  0
  5 23  1  0
  6 24  1  1
  7 25  1  0
  7 26  1  0
  9 27  1  0
 12 28  1  0
 12 29  1  0
M  CHG  2   4  -1  18  -1
M  END
>  <UniqueID>  (59) 
56

>  <SMILES>  (59) 
CC(=O)[N-]C[C@@H]1Cn2cc(C(N)=O)nc2C(=O)[N-]1

>  <Energy>  (59) 
53.51792213777853

>  <Genealogy>  (59) 
CC(=O)[N-]CC1Cn2cc(C(N)=O)nc2C(=O)[N-]1 (protonated)
CC(=O)[N-]C[C@@H]1Cn2cc(C(N)=O)nc2C(=O)[N-]1 (chirality)
CC(=O)[N-]C[C@@H]1Cn2cc(C(N)=O)nc2C(=O)[N-]1 (3D coordinates assigned)
CC(=O)[N-]C[C@@H]1Cn2cc(C(N)=O)nc2C(=O)[N-]1 (nonaromatic ring conformer: 53.51792213777853 kcal/mol)

>  <smiles>  (59) 
CC(=O)NCC1Cn2cc(C(N)=O)nc2C(=O)N1

>  <score_type>  (59) 
oracle

>  <origin>  (59) 
adg

>  <m_score__min__energy>  (59) 
-11.140000000000001

>  <m_primary>  (59) 
energy

$$$$
59:0
     RDKit          3D

 56 58  0  0  0  0  0  0  0  0999 V2000
   56.3946   23.2158   48.4411 H   0  0  0  0  0  0  0  0  0  0  0  0
   56.7860   24.0880   47.8970 C   0  0  0  0  0  0  0  0  0  0  0  0
   56.9998   25.0224   48.4366 H   0  0  0  0  0  0  0  0  0  0  0  0
   57.0030   24.0120   46.5730 C   0  0  0  0  0  0  0  0  0  0  0  0
   57.4970   25.0310   45.7370 C   0  0  0  0  0  0  0  0  0  0  0  0
   58.0300   26.2330   46.0270 C   0  0  0  0  0  0  0  0  0  0  0  0
   58.9471   26.2450   46.6343 H   0  0  0  0  0  0  0  0  0  0  0  0
   57.4850   27.5370   45.5970 C   0  0  0  0  0  0  0  0  0  0  0  0
   56.1050   27.7530   45.5920 C   0  0  0  0  0  0  0  0  0  0  0  0
   55.2280   26.7530   45.9970 O   0  0  0  0  0  0  0  0  0  0  0  0
   55.6120   28.9530   45.2040 N   0  0  0  0  0  0  0  0  0  0  0  0
   56.4280   29.9590   44.7990 C   0  0  0  0  0  0  0  0  0  0  0  0
   55.9140   31.0660   44.4780 O   0  0  0  0  0  0  0  0  0  0  0  0
   57.7860   29.7720   44.7430 N   0  0  0  0  0  0  0  0  0  0  0  0
   58.6750   30.8810   44.3420 C   0  0  0  0  0  0  0  0  0  0  0  0
   59.7221   30.5501   44.4064 H   0  0  0  0  0  0  0  0  0  0  0  0
   58.4401   31.1767   43.3088 H   0  0  0  0  0  0  0  0  0  0  0  0
   58.4640   32.0860   45.2720 C   0  0  0  0  0  0  0  0  0  0  0  0
   59.2655   32.8156   45.0844 H   0  0  0  0  0  0  0  0  0  0  0  0
   57.4677   32.4963   45.0505 H   0  0  0  0  0  0  0  0  0  0  0  0
   58.4810   31.7130   46.7790 C   0  0  2  0  0  0  0  0  0  0  0  0
   57.5554   31.1499   46.9694 H   0  0  0  0  0  0  0  0  0  0  0  0
   58.4760   32.9860   47.6740 C   0  0  0  0  0  0  0  0  0  0  0  0
   58.2218   33.8531   47.0467 H   0  0  0  0  0  0  0  0  0  0  0  0
   57.7366   32.8212   48.4716 H   0  0  0  0  0  0  0  0  0  0  0  0
   59.8280   33.2550   48.3540 C   0  0  0  0  0  0  0  0  0  0  0  0
   59.8901   34.3202   48.6215 H   0  0  0  0  0  0  0  0  0  0  0  0
   59.8981   32.6260   49.2537 H   0  0  0  0  0  0  0  0  0  0  0  0
   60.9900   32.9050   47.4250 C   0  0  0  0  0  0  0  0  0  0  0  0
   60.9476   33.5583   46.5410 H   0  0  0  0  0  0  0  0  0  0  0  0
   61.9273   33.0512   47.9819 H   0  0  0  0  0  0  0  0  0  0  0  0
   60.9340   31.4330   46.9610 C   0  0  0  0  0  0  0  0  0  0  0  0
   61.1989   31.3926   45.8941 H   0  0  0  0  0  0  0  0  0  0  0  0
   61.6416   30.8669   47.5846 H   0  0  0  0  0  0  0  0  0  0  0  0
   59.6020   30.8160   47.1380 N   0  0  0  0  0  0  0  0  0  0  0  0
   59.5560   29.9310   46.5840 H   0  0  0  0  0  0  0  0  0  0  0  0
   59.4940   30.5310   48.1410 H   0  0  0  0  0  0  0  0  0  0  0  0
   58.3210   28.5680   45.1330 C   0  0  0  0  0  0  0  0  0  0  0  0
   59.5690   28.3800   45.0820 O   0  0  0  0  0  0  0  0  0  0  0  0
   57.3770   24.5590   44.4420 C   0  0  0  0  0  0  0  0  0  0  0  0
   57.6269   25.1056   43.5207 H   0  0  0  0  0  0  0  0  0  0  0  0
   56.8850   23.2740   44.5250 C   0  0  0  0  0  0  0  0  0  0  0  0
   56.6230   22.3920   43.3420 C   0  0  0  0  0  0  0  0  0  0  0  0
   56.3258   21.3915   43.6893 H   0  0  0  0  0  0  0  0  0  0  0  0
   55.8145   22.8243   42.7342 H   0  0  0  0  0  0  0  0  0  0  0  0
   57.5364   22.3128   42.7342 H   0  0  0  0  0  0  0  0  0  0  0  0
   56.6600   22.9340   45.8180 N   0  0  0  0  0  0  0  0  0  0  0  0
   56.1600   21.6320   46.2930 C   0  0  0  0  0  0  0  0  0  0  0  0
   56.8180   20.8355   45.9152 H   0  0  0  0  0  0  0  0  0  0  0  0
   56.1543   21.6415   47.3929 H   0  0  0  0  0  0  0  0  0  0  0  0
   54.7290   21.3740   45.8020 C   0  0  0  0  0  0  0  0  0  0  0  0
   54.7600   21.1011   44.7368 H   0  0  0  0  0  0  0  0  0  0  0  0
   54.2993   20.5583   46.4020 H   0  0  0  0  0  0  0  0  0  0  0  0
   53.8670   22.5850   45.9690 C   0  0  0  0  0  0  0  0  0  0  0  0
   53.8710   23.2220   47.0550 O   0  0  0  0  0  0  0  0  0  0  0  0
   53.0200   22.9820   44.9410 O   0  0  0  0  0  0  0  0  0  0  0  0
  1  2  1  0
  2  3  1  0
  2  4  2  0
  4  5  1  0
  5  6  2  0
  6  7  1  0
  6  8  1  0
  8  9  2  0
  9 10  1  0
  9 11  1  0
 11 12  1  0
 12 13  2  0
 12 14  1  0
 14 15  1  0
 15 16  1  0
 15 17  1  0
 15 18  1  0
 18 19  1  0
 18 20  1  0
 18 21  1  0
 21 22  1  1
 21 23  1  0
 23 24  1  0
 23 25  1  0
 23 26  1  0
 26 27  1  0
 26 28  1  0
 26 29  1  0
 29 30  1  0
 29 31  1  0
 29 32  1  0
 32 33  1  0
 32 34  1  0
 32 35  1  0
 35 36  1  0
 35 37  1  0
 14 38  1  0
 38 39  2  0
  5 40  1  0
 40 41  1  0
 40 42  2  0
 42 43  1  0
 43 44  1  0
 43 45  1  0
 43 46  1  0
 42 47  1  0
 47 48  1  0
 48 49  1  0
 48 50  1  0
 48 51  1  0
 51 52  1  0
 51 53  1  0
 51 54  1  0
 54 55  2  0
 54 56  1  0
 47  4  1  0
 38  8  1  0
 35 21  1  0
M  CHG  4  10  -1  11  -1  35   1  56  -1
M  END
>  <UniqueID>  (60) 
57

>  <SMILES>  (60) 
C=c1/c(=C\c2c([O-])[n-]c(=O)n(CC[C@@H]3CCCC[NH2+]3)c2=O)cc(C)n1CCC(=O)[O-]

>  <Energy>  (60) 
102.17391958041107

>  <Genealogy>  (60) 
C=c1c(=Cc2c([O-])[n-]c(=O)n(CCC3CCCC[NH2+]3)c2=O)cc(C)n1CCC(=O)[O-] (protonated)
C=c1c(=Cc2c([O-])[n-]c(=O)n(CC[C@@H]3CCCC[NH2+]3)c2=O)cc(C)n1CCC(=O)[O-] (chirality)
C=c1/c(=C\c2c([O-])[n-]c(=O)n(CC[C@@H]3CCCC[NH2+]3)c2=O)cc(C)n1CCC(=O)[O-] (cis-trans isomerization)
C=c1/c(=C\c2c([O-])[n-]c(=O)n(CC[C@@H]3CCCC[NH2+]3)c2=O)cc(C)n1CCC(=O)[O-] (3D coordinates assigned)
C=c1/c(=C\c2c([O-])[n-]c(=O)n(CC[C@@H]3CCCC[NH2+]3)c2=O)cc(C)n1CCC(=O)[O-] (nonaromatic ring conformer: 102.17391958041107 kcal/mol)

>  <smiles>  (60) 
C=c1c(=Cc2c(O)[nH]c(=O)n(CCC3CCCCN3)c2=O)cc(C)n1CCC(=O)O

>  <score_type>  (60) 
oracle

>  <origin>  (60) 
adg

>  <m_score__min__energy>  (60) 
-13.82

>  <m_primary>  (60) 
energy

$$$$
60:0
     RDKit          3D

 44 46  0  0  0  0  0  0  0  0999 V2000
   58.5730   34.4890   47.2940 N   0  0  0  0  0  0  0  0  0  0  0  0
   59.3180   34.0140   45.8100 S   0  0  0  0  0  0  0  0  0  0  0  0
   60.8030   33.8900   46.0090 O   0  0  0  0  0  0  0  0  0  0  0  0
   59.0560   35.0630   44.7650 O   0  0  0  0  0  0  0  0  0  0  0  0
   58.6560   32.4680   45.2850 C   0  0  0  0  0  0  0  0  0  0  0  0
   57.6780   32.4180   44.2820 C   0  0  0  0  0  0  0  0  0  0  0  0
   57.1520   31.1910   43.8690 C   0  0  0  0  0  0  0  0  0  0  0  0
   57.5930   29.9980   44.4630 C   0  0  0  0  0  0  0  0  0  0  0  0
   57.0800   28.6700   43.9760 C   0  0  0  0  0  0  0  0  0  0  0  0
   58.2220   27.8480   43.3660 C   0  0  0  0  0  0  0  0  0  0  0  0
   58.7160   26.8500   44.3170 N   0  0  0  0  0  0  0  0  0  0  0  0
   58.1750   26.5560   45.4650 C   0  0  0  0  0  0  0  0  0  0  0  0
   57.0010   25.6660   45.5990 C   0  0  0  0  0  0  0  0  0  0  0  0
   55.7150   26.2060   45.6790 C   0  0  0  0  0  0  0  0  0  0  0  0
   55.5190   27.5830   45.6210 O   0  0  0  0  0  0  0  0  0  0  0  0
   54.6450   25.3880   45.8280 N   0  0  0  0  0  0  0  0  0  0  0  0
   54.7890   24.0410   45.8970 C   0  0  0  0  0  0  0  0  0  0  0  0
   53.7630   23.3210   46.0420 O   0  0  0  0  0  0  0  0  0  0  0  0
   56.0320   23.4740   45.7970 N   0  0  0  0  0  0  0  0  0  0  0  0
   56.1800   22.0410   45.8620 C   0  0  0  0  0  0  0  0  0  0  0  0
   55.6870   21.2380   44.8210 C   0  0  0  0  0  0  0  0  0  0  0  0
   55.8360   19.8490   44.8720 C   0  0  0  0  0  0  0  0  0  0  0  0
   55.3450   19.0600   43.8390 O   0  0  0  0  0  0  0  0  0  0  0  0
   56.4800   19.2530   45.9620 C   0  0  0  0  0  0  0  0  0  0  0  0
   56.9760   20.0470   47.0010 C   0  0  0  0  0  0  0  0  0  0  0  0
   56.8290   21.4380   46.9540 C   0  0  0  0  0  0  0  0  0  0  0  0
   57.3380   22.2160   47.9880 O   0  0  0  0  0  0  0  0  0  0  0  0
   57.1360   24.2680   45.6270 C   0  0  0  0  0  0  0  0  0  0  0  0
   58.2790   23.7490   45.4900 O   0  0  0  0  0  0  0  0  0  0  0  0
   58.5770   30.0500   45.4660 C   0  0  0  0  0  0  0  0  0  0  0  0
   59.0990   31.2800   45.8780 C   0  0  0  0  0  0  0  0  0  0  0  0
   58.8060   35.4950   47.4470 H   0  0  0  0  0  0  0  0  0  0  0  0
   57.3227   33.3497   43.8175 H   0  0  0  0  0  0  0  0  0  0  0  0
   56.3902   31.1599   43.0761 H   0  0  0  0  0  0  0  0  0  0  0  0
   56.6464   28.1164   44.8219 H   0  0  0  0  0  0  0  0  0  0  0  0
   56.3139   28.8436   43.2060 H   0  0  0  0  0  0  0  0  0  0  0  0
   57.8547   27.3353   42.4648 H   0  0  0  0  0  0  0  0  0  0  0  0
   59.0476   28.5292   43.1122 H   0  0  0  0  0  0  0  0  0  0  0  0
   58.6113   26.9896   46.3769 H   0  0  0  0  0  0  0  0  0  0  0  0
   55.1816   21.7037   43.9621 H   0  0  0  0  0  0  0  0  0  0  0  0
   56.5961   18.1599   46.0017 H   0  0  0  0  0  0  0  0  0  0  0  0
   57.4827   19.5772   47.8569 H   0  0  0  0  0  0  0  0  0  0  0  0
   58.9376   29.1193   45.9284 H   0  0  0  0  0  0  0  0  0  0  0  0
   59.8606   31.3141   46.6710 H   0  0  0  0  0  0  0  0  0  0  0  0
  1  2  1  0
  2  3  2  0
  2  4  2  0
  2  5  1  0
  5  6  2  0
  6  7  1  0
  7  8  2  0
  8  9  1  0
  9 10  1  0
 10 11  1  0
 11 12  2  3
 12 13  1  0
 13 14  2  0
 14 15  1  0
 14 16  1  0
 16 17  1  0
 17 18  2  0
 17 19  1  0
 19 20  1  0
 20 21  2  0
 21 22  1  0
 22 23  1  0
 22 24  2  0
 24 25  1  0
 25 26  2  0
 26 27  1  0
 19 28  1  0
 28 29  2  0
  8 30  1  0
 30 31  2  0
 31  5  1  0
 28 13  1  0
 26 20  1  0
  1 32  1  0
  6 33  1  0
  7 34  1  0
  9 35  1  0
  9 36  1  0
 10 37  1  0
 10 38  1  0
 12 39  1  0
 21 40  1  0
 24 41  1  0
 25 42  1  0
 30 43  1  0
 31 44  1  0
M  CHG  5   1  -1  15  -1  16  -1  23  -1  27  -1
M  END
>  <UniqueID>  (61) 
58

>  <SMILES>  (61) 
[NH-]S(=O)(=O)c1ccc(CCN=Cc2c([O-])[n-]c(=O)n(-c3cc([O-])ccc3[O-])c2=O)cc1

>  <Energy>  (61) 
62.614986747794724

>  <Genealogy>  (61) 
[NH-]S(=O)(=O)c1ccc(CCN=Cc2c([O-])[n-]c(=O)n(-c3cc([O-])ccc3[O-])c2=O)cc1 (protonated)
[NH-]S(=O)(=O)c1ccc(CCN=Cc2c([O-])[n-]c(=O)n(-c3cc([O-])ccc3[O-])c2=O)cc1 (3D coordinates assigned)
[NH-]S(=O)(=O)c1ccc(CCN=Cc2c([O-])[n-]c(=O)n(-c3cc([O-])ccc3[O-])c2=O)cc1 (optimized conformer: 62.614986747794724 kcal/mol)

>  <smiles>  (61) 
NS(=O)(=O)c1ccc(CCN=Cc2c(O)[nH]c(=O)n(-c3cc(O)ccc3O)c2=O)cc1

>  <score_type>  (61) 
oracle

>  <origin>  (61) 
adg

>  <m_score__min__energy>  (61) 
-16.969999999999999

>  <m_primary>  (61) 
energy

$$$$
61:0
     RDKit          3D

 61 65  0  0  0  0  0  0  0  0999 V2000
   63.9900   33.0670   48.7430 C   0  0  0  0  0  0  0  0  0  0  0  0
   62.5710   33.1960   48.4010 N   0  0  0  0  0  0  0  0  0  0  0  0
   61.6550   32.7300   49.2660 N   0  0  0  0  0  0  0  0  0  0  0  0
   60.3070   32.7770   49.0210 C   0  0  0  0  0  0  0  0  0  0  0  0
   59.3660   32.2590   50.0360 C   0  0  0  0  0  0  0  0  0  0  0  0
   58.8680   30.9500   49.9520 C   0  0  0  0  0  0  0  0  0  0  0  0
   57.9480   30.4770   50.8910 C   0  0  0  0  0  0  0  0  0  0  0  0
   57.4960   31.3110   51.9320 C   0  0  0  0  0  0  0  0  0  0  0  0
   56.5250   30.8050   52.9370 C   0  0  0  0  0  0  0  0  0  0  0  0
   56.9000   30.6680   54.2870 C   0  0  0  0  0  0  0  0  0  0  0  0
   55.9900   30.1820   55.2320 C   0  0  0  0  0  0  0  0  0  0  0  0
   54.6970   29.8270   54.8400 C   0  0  0  0  0  0  0  0  0  0  0  0
   54.3110   29.9630   53.5050 C   0  0  0  0  0  0  0  0  0  0  0  0
   55.2170   30.4480   52.5560 C   0  0  0  0  0  0  0  0  0  0  0  0
   57.9770   32.6340   51.9990 C   0  0  0  0  0  0  0  0  0  0  0  0
   58.8950   33.1060   51.0540 C   0  0  0  0  0  0  0  0  0  0  0  0
   59.9000   33.3240   47.7980 C   0  0  0  0  0  0  0  0  0  0  0  0
   58.6730   33.4160   47.1570 C   0  0  0  0  0  0  0  0  0  0  0  0
   57.4510   32.9430   47.6380 O   0  0  0  0  0  0  0  0  0  0  0  0
   58.8380   33.9720   45.9340 N   0  0  0  0  0  0  0  0  0  0  0  0
   57.8060   34.1500   44.9110 C   0  0  0  0  0  0  0  0  0  0  0  0
   57.8480   33.0210   43.8770 C   0  0  0  0  0  0  0  0  0  0  0  0
   57.3910   31.7160   44.4570 C   0  0  0  0  0  0  0  0  0  0  0  0
   56.1980   31.5920   44.8600 O   0  0  0  0  0  0  0  0  0  0  0  0
   58.3120   30.6190   44.5530 N   0  0  0  0  0  0  0  0  0  0  0  0
   58.7740   30.0580   45.8170 C   0  0  0  0  0  0  0  0  0  0  0  0
   58.3920   28.6040   45.9410 C   0  0  0  0  0  0  0  0  0  0  0  0
   59.3650   27.6480   46.2900 C   0  0  0  0  0  0  0  0  0  0  0  0
   59.0290   26.2930   46.3780 C   0  0  0  0  0  0  0  0  0  0  0  0
   57.7240   25.8790   46.1090 C   0  0  0  0  0  0  0  0  0  0  0  0
   56.7510   26.8200   45.7610 C   0  0  0  0  0  0  0  0  0  0  0  0
   57.0710   28.1850   45.6940 C   0  0  0  0  0  0  0  0  0  0  0  0
   56.0820   29.1220   45.3820 O   0  0  0  0  0  0  0  0  0  0  0  0
   60.1610   34.2140   45.7740 C   0  0  0  0  0  0  0  0  0  0  0  0
   60.8270   33.8090   46.9160 C   0  0  0  0  0  0  0  0  0  0  0  0
   62.1860   33.7500   47.2040 C   0  0  0  0  0  0  0  0  0  0  0  0
   63.0410   34.1770   46.3770 O   0  0  0  0  0  0  0  0  0  0  0  0
   64.1040   33.0566   49.8370 H   0  0  0  0  0  0  0  0  0  0  0  0
   64.3843   32.1293   48.3244 H   0  0  0  0  0  0  0  0  0  0  0  0
   64.5469   33.9182   48.3244 H   0  0  0  0  0  0  0  0  0  0  0  0
   59.2051   30.2899   49.1392 H   0  0  0  0  0  0  0  0  0  0  0  0
   57.5738   29.4453   50.8167 H   0  0  0  0  0  0  0  0  0  0  0  0
   57.9170   30.9454   54.6014 H   0  0  0  0  0  0  0  0  0  0  0  0
   56.2929   30.0793   56.2845 H   0  0  0  0  0  0  0  0  0  0  0  0
   53.9834   29.4406   55.5826 H   0  0  0  0  0  0  0  0  0  0  0  0
   53.2910   29.6878   53.1986 H   0  0  0  0  0  0  0  0  0  0  0  0
   54.9060   30.5512   51.5059 H   0  0  0  0  0  0  0  0  0  0  0  0
   57.6279   33.3012   52.8008 H   0  0  0  0  0  0  0  0  0  0  0  0
   59.2500   34.1457   51.1082 H   0  0  0  0  0  0  0  0  0  0  0  0
   56.8184   34.1559   45.3953 H   0  0  0  0  0  0  0  0  0  0  0  0
   57.9907   35.1027   44.3931 H   0  0  0  0  0  0  0  0  0  0  0  0
   57.1918   33.2853   43.0347 H   0  0  0  0  0  0  0  0  0  0  0  0
   58.8897   32.9009   43.5448 H   0  0  0  0  0  0  0  0  0  0  0  0
   59.8691   30.1470   45.8700 H   0  0  0  0  0  0  0  0  0  0  0  0
   58.2992   30.6140   46.6389 H   0  0  0  0  0  0  0  0  0  0  0  0
   60.3970   27.9690   46.4950 H   0  0  0  0  0  0  0  0  0  0  0  0
   59.7936   25.5539   46.6593 H   0  0  0  0  0  0  0  0  0  0  0  0
   57.4611   24.8127   46.1708 H   0  0  0  0  0  0  0  0  0  0  0  0
   55.7262   26.4882   45.5378 H   0  0  0  0  0  0  0  0  0  0  0  0
   56.1910   30.1060   45.6160 H   0  0  0  0  0  0  0  0  0  0  0  0
   60.6282   34.6590   44.8831 H   0  0  0  0  0  0  0  0  0  0  0  0
  1  2  1  0
  2  3  1  0
  3  4  2  0
  4  5  1  0
  5  6  2  0
  6  7  1  0
  7  8  2  0
  8  9  1  0
  9 10  2  0
 10 11  1  0
 11 12  2  0
 12 13  1  0
 13 14  2  0
  8 15  1  0
 15 16  2  0
  4 17  1  0
 17 18  2  0
 18 19  1  0
 18 20  1  0
 20 21  1  0
 21 22  1  0
 22 23  1  0
 23 24  2  0
 23 25  1  0
 25 26  1  0
 26 27  1  0
 27 28  2  0
 28 29  1  0
 29 30  2  0
 30 31  1  0
 31 32  2  0
 32 33  1  0
 20 34  1  0
 34 35  2  0
 35 36  1  0
 36 37  2  0
 36  2  1  0
 16  5  1  0
 35 17  1  0
 14  9  1  0
 32 27  1  0
  1 38  1  0
  1 39  1  0
  1 40  1  0
  6 41  1  0
  7 42  1  0
 10 43  1  0
 11 44  1  0
 12 45  1  0
 13 46  1  0
 14 47  1  0
 15 48  1  0
 16 49  1  0
 21 50  1  0
 21 51  1  0
 22 52  1  0
 22 53  1  0
 26 54  1  0
 26 55  1  0
 28 56  1  0
 29 57  1  0
 30 58  1  0
 31 59  1  0
 33 60  1  0
 34 61  1  0
M  CHG  2  19  -1  25  -1
M  END
>  <UniqueID>  (62) 
59

>  <SMILES>  (62) 
Cn1nc(-c2ccc(-c3ccccc3)cc2)c2c([O-])n(CCC(=O)[N-]Cc3ccccc3O)cc2c1=O

>  <Energy>  (62) 
107.84269165301627

>  <Genealogy>  (62) 
Cn1nc(-c2ccc(-c3ccccc3)cc2)c2c([O-])n(CCC(=O)[N-]Cc3ccccc3O)cc2c1=O (protonated)
Cn1nc(-c2ccc(-c3ccccc3)cc2)c2c([O-])n(CCC(=O)[N-]Cc3ccccc3O)cc2c1=O (3D coordinates assigned)
Cn1nc(-c2ccc(-c3ccccc3)cc2)c2c([O-])n(CCC(=O)[N-]Cc3ccccc3O)cc2c1=O (optimized conformer: 107.84269165301627 kcal/mol)

>  <smiles>  (62) 
Cn1nc(-c2ccc(-c3ccccc3)cc2)c2c(O)n(CCC(=O)NCc3ccccc3O)cc2c1=O

>  <score_type>  (62) 
oracle

>  <origin>  (62) 
adg

>  <m_score__min__energy>  (62) 
-12.74

>  <m_primary>  (62) 
energy

$$$$
62:0
     RDKit          3D

 49 51  0  0  0  0  0  0  0  0999 V2000
   57.2313   31.1219   50.2297 H   0  0  0  0  0  0  0  0  0  0  0  0
   57.9430   31.8830   50.5820 C   0  0  0  0  0  0  0  0  0  0  0  0
   58.6510   32.6200   49.6840 N   0  0  0  0  0  0  0  0  0  0  0  0
   59.5440   33.5740   50.0760 C   0  0  0  0  0  0  0  0  0  0  0  0
   60.2140   34.2740   49.2060 N   0  0  0  0  0  0  0  0  0  0  0  0
   61.2620   33.8050   48.3430 C   0  0  0  0  0  0  0  0  0  0  0  0
   62.4730   34.0630   48.5830 O   0  0  0  0  0  0  0  0  0  0  0  0
   60.9070   32.9680   47.1460 C   0  0  0  0  0  0  0  0  0  0  0  0
   61.0914   33.5550   46.2342 H   0  0  0  0  0  0  0  0  0  0  0  0
   61.5300   32.0617   47.1667 H   0  0  0  0  0  0  0  0  0  0  0  0
   59.4850   32.5490   47.1670 N   0  0  0  0  0  0  0  0  0  0  0  0
   59.1050   32.7780   48.1180 H   0  0  0  0  0  0  0  0  0  0  0  0
   59.3550   31.0770   46.9730 C   0  0  0  0  0  0  0  0  0  0  0  0
   60.1568   30.7343   46.3024 H   0  0  0  0  0  0  0  0  0  0  0  0
   59.4301   30.5947   47.9588 H   0  0  0  0  0  0  0  0  0  0  0  0
   58.0020   30.7000   46.3610 C   0  0  0  0  0  0  0  0  0  0  0  0
   57.9303   29.6048   46.2870 H   0  0  0  0  0  0  0  0  0  0  0  0
   57.1988   31.0890   47.0041 H   0  0  0  0  0  0  0  0  0  0  0  0
   57.8640   31.2890   45.0130 N   0  0  0  0  0  0  0  0  0  0  0  0
   56.4930   31.1980   44.4620 C   0  0  0  0  0  0  0  0  0  0  0  0
   55.7803   31.3870   45.2783 H   0  0  0  0  0  0  0  0  0  0  0  0
   56.4270   31.9437   43.6560 H   0  0  0  0  0  0  0  0  0  0  0  0
   56.1540   29.8370   43.8320 C   0  0  0  0  0  0  0  0  0  0  0  0
   55.2824   29.9441   43.1695 H   0  0  0  0  0  0  0  0  0  0  0  0
   57.0112   29.4752   43.2452 H   0  0  0  0  0  0  0  0  0  0  0  0
   55.8540   28.9070   44.8700 O   0  0  0  0  0  0  0  0  0  0  0  0
   56.7030   27.8630   45.2710 C   0  0  0  0  0  0  0  0  0  0  0  0
   58.0930   27.8930   45.0420 C   0  0  0  0  0  0  0  0  0  0  0  0
   58.5464   28.7564   44.5331 H   0  0  0  0  0  0  0  0  0  0  0  0
   58.8980   26.8280   45.4600 C   0  0  0  0  0  0  0  0  0  0  0  0
   59.9823   26.8549   45.2770 H   0  0  0  0  0  0  0  0  0  0  0  0
   58.3280   25.7310   46.1090 C   0  0  0  0  0  0  0  0  0  0  0  0
   58.9635   24.8960   46.4391 H   0  0  0  0  0  0  0  0  0  0  0  0
   56.9510   25.6940   46.3390 C   0  0  0  0  0  0  0  0  0  0  0  0
   56.5028   24.8281   46.8483 H   0  0  0  0  0  0  0  0  0  0  0  0
   56.1400   26.7560   45.9230 C   0  0  0  0  0  0  0  0  0  0  0  0
   54.7710   26.7080   46.1590 O   0  0  0  0  0  0  0  0  0  0  0  0
   58.5150   32.6100   44.8440 C   0  0  0  0  0  0  0  0  0  0  0  0
   59.5054   32.4625   44.3887 H   0  0  0  0  0  0  0  0  0  0  0  0
   57.8703   33.2274   44.2012 H   0  0  0  0  0  0  0  0  0  0  0  0
   58.6890   33.3410   46.1860 C   0  0  0  0  0  0  0  0  0  0  0  0
   59.2030   34.2963   46.0036 H   0  0  0  0  0  0  0  0  0  0  0  0
   57.6880   33.4966   46.6148 H   0  0  0  0  0  0  0  0  0  0  0  0
   59.7440   33.8090   51.4420 C   0  0  0  0  0  0  0  0  0  0  0  0
   60.4603   34.5753   51.7733 H   0  0  0  0  0  0  0  0  0  0  0  0
   59.0270   33.0630   52.3810 C   0  0  0  0  0  0  0  0  0  0  0  0
   59.1769   33.2397   53.4563 H   0  0  0  0  0  0  0  0  0  0  0  0
   58.1200   32.0930   51.9510 C   0  0  0  0  0  0  0  0  0  0  0  0
   57.4190   31.3620   52.8530 F   0  0  0  0  0  0  0  0  0  0  0  0
  1  2  1  0
  2  3  1  0
  3  4  1  0
  4  5  2  0
  5  6  1  0
  6  7  2  0
  6  8  1  0
  8  9  1  0
  8 10  1  0
  8 11  1  0
 11 12  1  0
 11 13  1  0
 13 14  1  0
 13 15  1  0
 13 16  1  0
 16 17  1  0
 16 18  1  0
 16 19  1  0
 19 20  1  0
 20 21  1  0
 20 22  1  0
 20 23  1  0
 23 24  1  0
 23 25  1  0
 23 26  1  0
 26 27  1  0
 27 28  2  0
 28 29  1  0
 28 30  1  0
 30 31  1  0
 30 32  2  0
 32 33  1  0
 32 34  1  0
 34 35  1  0
 34 36  2  0
 36 37  1  0
 19 38  1  0
 38 39  1  0
 38 40  1  0
 38 41  1  0
 41 42  1  0
 41 43  1  0
  4 44  1  0
 44 45  1  0
 44 46  2  0
 46 47  1  0
 46 48  1  0
 48 49  1  0
 48  2  2  0
 41 11  1  0
 36 27  1  0
M  CHG  3   3  -1  11   1  37  -1
M  END
>  <UniqueID>  (63) 
60

>  <SMILES>  (63) 
O=C(C[NH+]1CCN(CCOc2ccccc2[O-])CC1)/N=c1/ccc(F)c[n-]1

>  <Energy>  (63) 
67.92203888805199

>  <Genealogy>  (63) 
O=C(C[NH+]1CCN(CCOc2ccccc2[O-])CC1)N=c1ccc(F)c[n-]1 (protonated)
O=C(C[NH+]1CCN(CCOc2ccccc2[O-])CC1)/N=c1/ccc(F)c[n-]1 (cis-trans isomerization)
O=C(C[NH+]1CCN(CCOc2ccccc2[O-])CC1)/N=c1/ccc(F)c[n-]1 (3D coordinates assigned)
O=C(C[NH+]1CCN(CCOc2ccccc2[O-])CC1)/N=c1/ccc(F)c[n-]1 (nonaromatic ring conformer: 67.92203888805199 kcal/mol)

>  <smiles>  (63) 
O=C(CN1CCN(CCOc2ccccc2O)CC1)N=c1ccc(F)c[nH]1

>  <score_type>  (63) 
oracle

>  <origin>  (63) 
adg

>  <m_score__min__energy>  (63) 
-10.789999999999999

>  <m_primary>  (63) 
energy

$$$$
63:0
     RDKit          3D

 37 39  0  0  0  0  0  0  0  0999 V2000
   55.6510   30.0490   44.8780 O   0  0  0  0  0  0  0  0  0  0  0  0
   56.2570   28.9480   44.7810 C   0  0  0  0  0  0  0  0  0  0  0  0
   57.3730   28.8030   43.7970 C   0  0  0  0  0  0  0  0  0  0  0  0
   58.7230   29.0180   44.4840 C   0  0  0  0  0  0  0  0  0  0  0  0
   58.6370   30.1270   45.4300 N   0  0  0  0  0  0  0  0  0  0  0  0
   59.1320   30.1410   46.7680 C   0  0  0  0  0  0  0  0  0  0  0  0
   59.4810   29.1110   47.4050 O   0  0  0  0  0  0  0  0  0  0  0  0
   59.1880   31.5080   47.2660 C   0  0  0  0  0  0  0  0  0  0  0  0
   59.5400   31.9810   48.5260 C   0  0  0  0  0  0  0  0  0  0  0  0
   59.4670   33.3620   48.7580 C   0  0  0  0  0  0  0  0  0  0  0  0
   59.0540   34.2380   47.7340 C   0  0  0  0  0  0  0  0  0  0  0  0
   58.7140   33.7500   46.4530 C   0  0  0  0  0  0  0  0  0  0  0  0
   58.3290   34.6630   45.4140 N   0  0  0  0  0  0  0  0  0  0  0  0
   57.2090   34.5720   44.8720 O   0  0  0  0  0  0  0  0  0  0  0  0
   59.2630   35.5110   44.8650 O   0  0  0  0  0  0  0  0  0  0  0  0
   58.7790   32.3570   46.2520 C   0  0  0  0  0  0  0  0  0  0  0  0
   58.4330   31.5050   45.1050 C   0  0  0  0  0  0  0  0  0  0  0  0
   57.9880   31.8970   43.9960 O   0  0  0  0  0  0  0  0  0  0  0  0
   55.8970   27.8350   45.6080 N   0  0  0  0  0  0  0  0  0  0  0  0
   56.6950   26.6720   45.8730 C   0  0  0  0  0  0  0  0  0  0  0  0
   57.7850   26.7900   46.7460 C   0  0  0  0  0  0  0  0  0  0  0  0
   58.6000   25.6850   47.0130 C   0  0  0  0  0  0  0  0  0  0  0  0
   58.3410   24.4580   46.3980 C   0  0  0  0  0  0  0  0  0  0  0  0
   57.2710   24.3370   45.5060 C   0  0  0  0  0  0  0  0  0  0  0  0
   56.4540   25.4390   45.2370 C   0  0  0  0  0  0  0  0  0  0  0  0
   57.3443   27.7926   43.3631 H   0  0  0  0  0  0  0  0  0  0  0  0
   57.2513   29.5582   43.0065 H   0  0  0  0  0  0  0  0  0  0  0  0
   59.0063   28.1019   45.0230 H   0  0  0  0  0  0  0  0  0  0  0  0
   59.4798   29.2547   43.7216 H   0  0  0  0  0  0  0  0  0  0  0  0
   59.8664   31.2911   49.3181 H   0  0  0  0  0  0  0  0  0  0  0  0
   59.7340   33.7645   49.7463 H   0  0  0  0  0  0  0  0  0  0  0  0
   58.9956   35.3178   47.9355 H   0  0  0  0  0  0  0  0  0  0  0  0
   58.0008   27.7570   47.2239 H   0  0  0  0  0  0  0  0  0  0  0  0
   59.4465   25.7825   47.7086 H   0  0  0  0  0  0  0  0  0  0  0  0
   58.9780   23.5879   46.6151 H   0  0  0  0  0  0  0  0  0  0  0  0
   57.0718   23.3730   45.0151 H   0  0  0  0  0  0  0  0  0  0  0  0
   55.6201   25.3426   44.5261 H   0  0  0  0  0  0  0  0  0  0  0  0
  1  2  2  0
  2  3  1  0
  3  4  1  0
  4  5  1  0
  5  6  1  0
  6  7  2  0
  6  8  1  0
  8  9  2  0
  9 10  1  0
 10 11  2  0
 11 12  1  0
 12 13  1  0
 13 14  2  0
 13 15  1  0
 12 16  2  0
 16 17  1  0
 17 18  2  0
  2 19  1  0
 19 20  1  0
 20 21  2  0
 21 22  1  0
 22 23  2  0
 23 24  1  0
 24 25  2  0
 17  5  1  0
 25 20  1  0
 16  8  1  0
  3 26  1  0
  3 27  1  0
  4 28  1  0
  4 29  1  0
  9 30  1  0
 10 31  1  0
 11 32  1  0
 21 33  1  0
 22 34  1  0
 23 35  1  0
 24 36  1  0
 25 37  1  0
M  CHG  3  13   1  15  -1  19  -1
M  END
>  <UniqueID>  (64) 
61

>  <SMILES>  (64) 
O=C(CCN1C(=O)c2cccc([N+](=O)[O-])c2C1=O)[N-]c1ccccc1

>  <Energy>  (64) 
74.97858788312311

>  <Genealogy>  (64) 
O=C(CCN1C(=O)c2cccc([N+](=O)[O-])c2C1=O)[N-]c1ccccc1 (protonated)
O=C(CCN1C(=O)c2cccc([N+](=O)[O-])c2C1=O)[N-]c1ccccc1 (3D coordinates assigned)
O=C(CCN1C(=O)c2cccc([N+](=O)[O-])c2C1=O)[N-]c1ccccc1 (nonaromatic ring conformer: 74.97858788312311 kcal/mol)

>  <smiles>  (64) 
O=C(CCN1C(=O)c2cccc([N+](=O)[O-])c2C1=O)Nc1ccccc1

>  <score_type>  (64) 
oracle

>  <origin>  (64) 
adg

>  <m_score__min__energy>  (64) 
-10.09

>  <m_primary>  (64) 
energy

$$$$
64:0
     RDKit          3D

 52 55  0  0  0  0  0  0  0  0999 V2000
   58.1350   32.3990   48.0000 C   0  0  0  0  0  0  0  0  0  0  0  0
   58.8240   31.2760   48.2550 C   0  0  0  0  0  0  0  0  0  0  0  0
   59.2880   30.3550   47.3120 C   0  0  0  0  0  0  0  0  0  0  0  0
   59.1350   30.4050   45.9730 C   0  0  0  0  0  0  0  0  0  0  0  0
   57.8440   30.1590   45.2900 C   0  0  0  0  0  0  0  0  0  0  0  0
   57.0550   29.0350   45.5870 C   0  0  0  0  0  0  0  0  0  0  0  0
   57.4680   28.1110   46.5450 O   0  0  0  0  0  0  0  0  0  0  0  0
   55.8870   28.8340   44.9220 N   0  0  0  0  0  0  0  0  0  0  0  0
   55.4720   29.6930   43.9570 C   0  0  0  0  0  0  0  0  0  0  0  0
   54.3850   29.4880   43.3570 O   0  0  0  0  0  0  0  0  0  0  0  0
   56.2330   30.7690   43.6310 N   0  0  0  0  0  0  0  0  0  0  0  0
   57.4080   31.0160   44.2670 C   0  0  0  0  0  0  0  0  0  0  0  0
   58.0880   32.0230   43.9380 O   0  0  0  0  0  0  0  0  0  0  0  0
   59.9040   29.3380   48.0280 C   0  0  0  0  0  0  0  0  0  0  0  0
   59.8090   29.6800   49.3620 C   0  0  0  0  0  0  0  0  0  0  0  0
   60.3410   28.8520   50.4920 C   0  0  0  0  0  0  0  0  0  0  0  0
   59.1510   30.8520   49.5030 N   0  0  0  0  0  0  0  0  0  0  0  0
   58.8670   31.5160   50.7480 C   0  0  0  0  0  0  0  0  0  0  0  0
   59.5300   32.7060   51.0800 C   0  0  0  0  0  0  0  0  0  0  0  0
   59.2290   33.3700   52.2710 C   0  0  0  0  0  0  0  0  0  0  0  0
   58.2680   32.8480   53.1420 C   0  0  0  0  0  0  0  0  0  0  0  0
   57.6180   31.6440   52.8340 C   0  0  0  0  0  0  0  0  0  0  0  0
   56.6030   31.1010   53.7550 C   0  0  0  0  0  0  0  0  0  0  0  0
   56.6940   31.3540   54.9850 O   0  0  0  0  0  0  0  0  0  0  0  0
   55.5250   30.2770   53.2960 N   0  0  0  0  0  0  0  0  0  0  0  0
   54.9100   30.3580   51.9740 C   0  0  0  0  0  0  0  0  0  0  0  0
   53.4950   30.8580   52.0850 C   0  0  0  0  0  0  0  0  0  0  0  0
   52.7680   30.6880   53.2760 C   0  0  0  0  0  0  0  0  0  0  0  0
   51.4660   31.1860   53.3820 C   0  0  0  0  0  0  0  0  0  0  0  0
   50.8810   31.8580   52.3050 C   0  0  0  0  0  0  0  0  0  0  0  0
   51.6000   32.0340   51.1180 C   0  0  0  0  0  0  0  0  0  0  0  0
   51.0200   32.7060   50.0480 O   0  0  0  0  0  0  0  0  0  0  0  0
   52.9040   31.5370   51.0080 C   0  0  0  0  0  0  0  0  0  0  0  0
   57.9150   30.9850   51.6310 C   0  0  0  0  0  0  0  0  0  0  0  0
   57.8204   33.0513   48.8280 H   0  0  0  0  0  0  0  0  0  0  0  0
   57.8848   32.6672   46.9630 H   0  0  0  0  0  0  0  0  0  0  0  0
   60.0147   30.6407   45.3561 H   0  0  0  0  0  0  0  0  0  0  0  0
   58.3480   27.6200   46.4480 H   0  0  0  0  0  0  0  0  0  0  0  0
   60.3760   28.4352   47.6132 H   0  0  0  0  0  0  0  0  0  0  0  0
   60.0484   29.3074   51.4496 H   0  0  0  0  0  0  0  0  0  0  0  0
   59.9269   27.8349   50.4279 H   0  0  0  0  0  0  0  0  0  0  0  0
   61.4382   28.8059   50.4279 H   0  0  0  0  0  0  0  0  0  0  0  0
   60.2900   33.1180   50.3998 H   0  0  0  0  0  0  0  0  0  0  0  0
   59.7490   34.3056   52.5244 H   0  0  0  0  0  0  0  0  0  0  0  0
   58.0211   33.3828   54.0710 H   0  0  0  0  0  0  0  0  0  0  0  0
   55.4907   31.0493   51.3456 H   0  0  0  0  0  0  0  0  0  0  0  0
   54.9003   29.3551   51.5222 H   0  0  0  0  0  0  0  0  0  0  0  0
   53.2248   30.1616   54.1270 H   0  0  0  0  0  0  0  0  0  0  0  0
   50.9004   31.0486   54.3154 H   0  0  0  0  0  0  0  0  0  0  0  0
   49.8561   32.2481   52.3907 H   0  0  0  0  0  0  0  0  0  0  0  0
   53.4676   31.6791   50.0741 H   0  0  0  0  0  0  0  0  0  0  0  0
   57.3985   30.0470   51.3791 H   0  0  0  0  0  0  0  0  0  0  0  0
  1  2  2  0
  2  3  1  0
  3  4  2  3
  4  5  1  0
  5  6  2  0
  6  7  1  0
  6  8  1  0
  8  9  1  0
  9 10  2  0
  9 11  1  0
 11 12  1  0
 12 13  2  0
  3 14  1  0
 14 15  2  0
 15 16  1  0
 15 17  1  0
 17 18  1  0
 18 19  2  0
 19 20  1  0
 20 21  2  0
 21 22  1  0
 22 23  1  0
 23 24  2  0
 23 25  1  0
 25 26  1  0
 26 27  1  0
 27 28  2  0
 28 29  1  0
 29 30  2  0
 30 31  1  0
 31 32  1  0
 31 33  2  0
 22 34  2  0
 17  2  1  0
 34 18  1  0
 12  5  1  0
 33 27  1  0
  1 35  1  0
  1 36  1  0
  4 37  1  0
  7 38  1  0
 14 39  1  0
 16 40  1  0
 16 41  1  0
 16 42  1  0
 19 43  1  0
 20 44  1  0
 21 45  1  0
 26 46  1  0
 26 47  1  0
 28 48  1  0
 29 49  1  0
 30 50  1  0
 33 51  1  0
 34 52  1  0
M  CHG  4   8  -1  11  -1  25  -1  32  -1
M  END
>  <UniqueID>  (65) 
62

>  <SMILES>  (65) 
C=c1c(=Cc2c(O)[n-]c(=O)[n-]c2=O)cc(C)n1-c1cccc(C(=O)[N-]Cc2cccc([O-])c2)c1

>  <Energy>  (65) 
102.25574733742832

>  <Genealogy>  (65) 
C=c1c(=Cc2c(O)[n-]c(=O)[n-]c2=O)cc(C)n1-c1cccc(C(=O)[N-]Cc2cccc([O-])c2)c1 (protonated)
C=c1c(=Cc2c(O)[n-]c(=O)[n-]c2=O)cc(C)n1-c1cccc(C(=O)[N-]Cc2cccc([O-])c2)c1 (3D coordinates assigned)
C=c1c(=Cc2c(O)[n-]c(=O)[n-]c2=O)cc(C)n1-c1cccc(C(=O)[N-]Cc2cccc([O-])c2)c1 (optimized conformer: 102.25574733742832 kcal/mol)

>  <smiles>  (65) 
C=c1c(=Cc2c(O)[nH]c(=O)[nH]c2=O)cc(C)n1-c1cccc(C(=O)NCc2cccc(O)c2)c1

>  <score_type>  (65) 
oracle

>  <origin>  (65) 
adg

>  <m_score__min__energy>  (65) 
-19.760000000000002

>  <m_primary>  (65) 
energy

$$$$
65:0
     RDKit          3D

 62 66  0  0  1  0  0  0  0  0999 V2000
   61.0940   28.2440   51.0980 C   0  0  0  0  0  0  0  0  0  0  0  0
   61.3330   28.9930   49.9270 O   0  0  0  0  0  0  0  0  0  0  0  0
   60.3790   28.8990   48.9200 C   0  0  0  0  0  0  0  0  0  0  0  0
   59.8330   30.0790   48.5080 C   0  0  0  0  0  0  0  0  0  0  0  0
   58.8670   29.9990   47.4910 C   0  0  0  0  0  0  0  0  0  0  0  0
   58.5350   28.7770   46.9830 C   0  0  0  0  0  0  0  0  0  0  0  0
   57.6000   28.6630   45.9930 C   0  0  0  0  0  0  0  0  0  0  0  0
   57.0050   29.6330   45.5430 N   0  0  0  0  0  0  0  0  0  0  0  0
   57.3560   30.7140   44.7960 C   0  0  0  0  0  0  0  0  0  0  0  0
   57.4630   30.6800   43.3800 C   0  0  0  0  0  0  0  0  0  0  0  0
   57.7090   31.8770   42.7490 C   0  0  0  0  0  0  0  0  0  0  0  0
   57.8560   33.0780   43.3810 C   0  0  0  0  0  0  0  0  0  0  0  0
   57.7510   33.1070   44.7550 C   0  0  0  0  0  0  0  0  0  0  0  0
   57.8970   34.3840   45.5400 C   0  0  0  0  0  0  0  0  0  0  0  0
   59.3100   34.9110   45.4410 C   0  0  0  0  0  0  0  0  0  0  0  0
   60.0710   34.3110   46.5710 C   0  0  0  0  0  0  0  0  0  0  0  0
   61.3550   33.8430   46.4090 C   0  0  0  0  0  0  0  0  0  0  0  0
   62.0320   33.2930   47.4860 C   0  0  0  0  0  0  0  0  0  0  0  0
   61.4490   33.2000   48.7260 C   0  0  0  0  0  0  0  0  0  0  0  0
   62.0900   32.6490   49.8660 N   0  0  0  0  0  0  0  0  0  0  0  0
   63.0580   33.2010   50.4710 C   0  0  0  0  0  0  0  0  0  0  0  0
   64.3390   32.5140   50.6120 C   0  0  0  0  0  0  0  0  0  0  0  0
   65.5470   33.0770   50.3020 C   0  0  0  0  0  0  0  0  0  0  0  0
   66.7430   32.4090   50.4420 C   0  0  0  0  0  0  0  0  0  0  0  0
   66.7290   31.1060   50.9180 C   0  0  0  0  0  0  0  0  0  0  0  0
   65.5360   30.5010   51.2410 C   0  0  0  0  0  0  0  0  0  0  0  0
   64.3570   31.2010   51.0890 C   0  0  0  0  0  0  0  0  0  0  0  0
   63.1500   30.5970   51.4130 O   0  0  0  0  0  0  0  0  0  0  0  0
   60.1580   33.6670   48.9030 C   0  0  0  0  0  0  0  0  0  0  0  0
   59.4910   34.2130   47.8290 C   0  0  0  0  0  0  0  0  0  0  0  0
   57.5090   31.9640   45.4490 C   0  0  0  0  0  0  0  0  0  0  0  0
   57.2920   27.4270   45.5030 N   0  0  0  0  0  0  0  0  0  0  0  0
   57.8570   26.2940   45.9380 C   0  0  0  0  0  0  0  0  0  0  0  0
   58.7800   26.4070   46.9170 N   0  0  0  0  0  0  0  0  0  0  0  0
   59.1100   27.6170   47.4250 C   0  0  0  0  0  0  0  0  0  0  0  0
   60.0530   27.6610   48.4140 C   0  0  0  0  0  0  0  0  0  0  0  0
   61.2936   28.8696   51.9805 H   0  0  0  0  0  0  0  0  0  0  0  0
   60.0454   27.9122   51.1134 H   0  0  0  0  0  0  0  0  0  0  0  0
   61.7566   27.3661   51.1134 H   0  0  0  0  0  0  0  0  0  0  0  0
   60.1328   31.0414   48.9483 H   0  0  0  0  0  0  0  0  0  0  0  0
   58.3842   30.9105   47.1089 H   0  0  0  0  0  0  0  0  0  0  0  0
   57.3544   29.7421   42.8157 H   0  0  0  0  0  0  0  0  0  0  0  0
   57.7937   31.8658   41.6523 H   0  0  0  0  0  0  0  0  0  0  0  0
   58.0528   33.9971   42.8096 H   0  0  0  0  0  0  0  0  0  0  0  0
   57.2017   35.1362   45.1391 H   0  0  0  0  0  0  0  0  0  0  0  0
   57.6683   34.1789   46.5962 H   0  0  0  0  0  0  0  0  0  0  0  0
   59.7589   34.6140   44.4817 H   0  0  0  0  0  0  0  0  0  0  0  0
   59.3268   36.0097   45.4921 H   0  0  0  0  0  0  0  0  0  0  0  0
   61.8436   33.9054   45.4254 H   0  0  0  0  0  0  0  0  0  0  0  0
   63.0582   32.9230   47.3446 H   0  0  0  0  0  0  0  0  0  0  0  0
   62.9315   34.2084   50.8943 H   0  0  0  0  0  0  0  0  0  0  0  0
   65.5635   34.1098   49.9239 H   0  0  0  0  0  0  0  0  0  0  0  0
   67.6923   32.8997   50.1811 H   0  0  0  0  0  0  0  0  0  0  0  0
   67.6737   30.5552   51.0375 H   0  0  0  0  0  0  0  0  0  0  0  0
   65.5226   29.4675   51.6174 H   0  0  0  0  0  0  0  0  0  0  0  0
   62.3790   30.6850   50.7680 H   0  0  0  0  0  0  0  0  0  0  0  0
   59.6717   33.6029   49.8876 H   0  0  0  0  0  0  0  0  0  0  0  0
   58.4653   34.5836   47.9723 H   0  0  0  0  0  0  0  0  0  0  0  0
   57.4297   32.0092   46.5452 H   0  0  0  0  0  0  0  0  0  0  0  0
   56.5770   27.3200   44.7410 H   0  0  0  0  0  0  0  0  0  0  0  0
   57.5819   25.3157   45.5171 H   0  0  0  0  0  0  0  0  0  0  0  0
   60.5316   26.7447   48.7900 H   0  0  0  0  0  0  0  0  0  0  0  0
  1  2  1  0
  2  3  1  0
  3  4  2  0
  4  5  1  0
  5  6  2  0
  6  7  1  0
  7  8  2  0
  8  9  1  0
  9 10  2  0
 10 11  1  0
 11 12  2  0
 12 13  1  0
 13 14  1  0
 14 15  1  0
 15 16  1  0
 16 17  2  0
 17 18  1  0
 18 19  2  0
 19 20  1  0
 20 21  2  0
 21 22  1  0
 22 23  2  0
 23 24  1  0
 24 25  2  0
 25 26  1  0
 26 27  2  0
 27 28  1  0
 19 29  1  0
 29 30  2  0
 13 31  2  0
  7 32  1  0
 32 33  1  0
 33 34  2  0
 34 35  1  0
 35 36  2  0
 36  3  1  0
 35  6  1  0
 31  9  1  0
 30 16  1  0
 27 22  1  0
  1 37  1  0
  1 38  1  0
  1 39  1  0
  4 40  1  0
  5 41  1  0
 10 42  1  0
 11 43  1  0
 12 44  1  0
 14 45  1  0
 14 46  1  0
 15 47  1  0
 15 48  1  0
 17 49  1  0
 18 50  1  0
 21 51  1  0
 23 52  1  0
 24 53  1  0
 25 54  1  0
 26 55  1  0
 28 56  1  0
 29 57  1  0
 30 58  1  0
 31 59  1  0
 32 60  1  0
 33 61  1  0
 36 62  1  0
M  END
>  <smiles>  (66) 
COc1ccc2c(=Nc3cccc(CCc4ccc(N=Cc5ccccc5O)cc4)c3)[nH]cnc2c1

>  <score_type>  (66) 
oracle

>  <origin>  (66) 
adg

>  <m_score__min__energy>  (66) 
-11.130000000000001

>  <m_primary>  (66) 
energy

$$$$
66:0
     RDKit          3D

 51 54  0  0  0  0  0  0  0  0999 V2000
   64.7110   32.9470   50.5670 C   0  0  0  0  0  0  0  0  0  0  0  0
   63.8380   32.6330   49.3810 C   0  0  0  0  0  0  0  0  0  0  0  0
   63.9380   33.4280   48.2300 C   0  0  0  0  0  0  0  0  0  0  0  0
   63.1460   33.1600   47.1160 C   0  0  0  0  0  0  0  0  0  0  0  0
   62.2460   32.0970   47.1330 C   0  0  0  0  0  0  0  0  0  0  0  0
   62.1200   31.2780   48.2700 C   0  0  0  0  0  0  0  0  0  0  0  0
   61.1420   30.1550   48.2510 C   0  0  0  0  0  0  0  0  0  0  0  0
   60.6720   29.6970   49.3260 O   0  0  0  0  0  0  0  0  0  0  0  0
   60.7660   29.5550   47.0010 N   0  0  0  0  0  0  0  0  0  0  0  0
   59.4260   29.3250   46.5420 C   0  0  0  0  0  0  0  0  0  0  0  0
   58.8040   28.1150   46.8630 C   0  0  0  0  0  0  0  0  0  0  0  0
   57.5060   27.8480   46.4210 C   0  0  0  0  0  0  0  0  0  0  0  0
   56.8200   28.7860   45.6430 C   0  0  0  0  0  0  0  0  0  0  0  0
   55.5200   28.5090   45.2320 O   0  0  0  0  0  0  0  0  0  0  0  0
   57.4390   30.0020   45.2980 C   0  0  0  0  0  0  0  0  0  0  0  0
   56.7240   31.0010   44.4770 C   0  0  0  0  0  0  0  0  0  0  0  0
   55.4900   30.8350   44.2680 O   0  0  0  0  0  0  0  0  0  0  0  0
   57.3920   32.1630   43.9330 N   0  0  0  0  0  0  0  0  0  0  0  0
   58.1140   32.0240   42.6640 C   0  0  0  0  0  0  0  0  0  0  0  0
   57.3050   33.4830   44.5840 C   0  0  0  0  0  0  0  0  0  0  0  0
   58.0440   33.4860   45.8860 C   0  0  0  0  0  0  0  0  0  0  0  0
   57.6780   32.7060   46.9370 N   0  0  0  0  0  0  0  0  0  0  0  0
   58.5520   33.0710   47.8850 C   0  0  0  0  0  0  0  0  0  0  0  0
   58.6350   32.6000   49.1930 C   0  0  0  0  0  0  0  0  0  0  0  0
   59.6340   33.1470   50.0200 C   0  0  0  0  0  0  0  0  0  0  0  0
   60.5110   34.1380   49.5220 C   0  0  0  0  0  0  0  0  0  0  0  0
   60.3950   34.5900   48.1940 C   0  0  0  0  0  0  0  0  0  0  0  0
   59.3950   34.0260   47.4060 C   0  0  0  0  0  0  0  0  0  0  0  0
   59.0940   34.3140   46.1320 N   0  0  0  0  0  0  0  0  0  0  0  0
   58.7490   30.2550   45.7330 C   0  0  0  0  0  0  0  0  0  0  0  0
   62.9270   31.5480   49.4050 C   0  0  0  0  0  0  0  0  0  0  0  0
   62.8180   30.7340   50.5380 O   0  0  0  0  0  0  0  0  0  0  0  0
   64.1549   32.7470   51.4948 H   0  0  0  0  0  0  0  0  0  0  0  0
   65.6119   32.3166   50.5363 H   0  0  0  0  0  0  0  0  0  0  0  0
   65.0039   34.0068   50.5363 H   0  0  0  0  0  0  0  0  0  0  0  0
   64.6467   34.2689   48.2068 H   0  0  0  0  0  0  0  0  0  0  0  0
   63.2316   33.7906   46.2188 H   0  0  0  0  0  0  0  0  0  0  0  0
   61.6263   31.8955   46.2468 H   0  0  0  0  0  0  0  0  0  0  0  0
   59.3400   27.3684   47.4674 H   0  0  0  0  0  0  0  0  0  0  0  0
   57.0217   26.8965   46.6859 H   0  0  0  0  0  0  0  0  0  0  0  0
   59.1757   31.8196   42.8667 H   0  0  0  0  0  0  0  0  0  0  0  0
   57.6841   31.1921   42.0868 H   0  0  0  0  0  0  0  0  0  0  0  0
   58.0237   32.9560   42.0868 H   0  0  0  0  0  0  0  0  0  0  0  0
   57.7433   34.2420   43.9193 H   0  0  0  0  0  0  0  0  0  0  0  0
   56.2465   33.7092   44.7800 H   0  0  0  0  0  0  0  0  0  0  0  0
   57.9451   31.8288   49.5661 H   0  0  0  0  0  0  0  0  0  0  0  0
   59.7330   32.8016   51.0596 H   0  0  0  0  0  0  0  0  0  0  0  0
   61.2888   34.5584   50.1765 H   0  0  0  0  0  0  0  0  0  0  0  0
   61.0698   35.3608   47.7932 H   0  0  0  0  0  0  0  0  0  0  0  0
   59.2506   31.1887   45.4387 H   0  0  0  0  0  0  0  0  0  0  0  0
   62.1330   29.9960   50.6320 H   0  0  0  0  0  0  0  0  0  0  0  0
  1  2  1  0
  2  3  2  0
  3  4  1  0
  4  5  2  0
  5  6  1  0
  6  7  1  0
  7  8  2  0
  7  9  1  0
  9 10  1  0
 10 11  2  0
 11 12  1  0
 12 13  2  0
 13 14  1  0
 13 15  1  0
 15 16  1  0
 16 17  2  0
 16 18  1  0
 18 19  1  0
 18 20  1  0
 20 21  1  0
 21 22  2  0
 22 23  1  0
 23 24  2  0
 24 25  1  0
 25 26  2  0
 26 27  1  0
 27 28  2  0
 28 29  1  0
 15 30  2  0
  6 31  2  0
 31 32  1  0
 31  2  1  0
 30 10  1  0
 29 21  1  0
 28 23  1  0
  1 33  1  0
  1 34  1  0
  1 35  1  0
  3 36  1  0
  4 37  1  0
  5 38  1  0
 11 39  1  0
 12 40  1  0
 19 41  1  0
 19 42  1  0
 19 43  1  0
 20 44  1  0
 20 45  1  0
 24 46  1  0
 25 47  1  0
 26 48  1  0
 27 49  1  0
 30 50  1  0
 32 51  1  0
M  CHG  3   9  -1  14  -1  29  -1
M  END
>  <UniqueID>  (67) 
63

>  <SMILES>  (67) 
Cc1cccc(C(=O)[N-]c2ccc([O-])c(C(=O)N(C)Cc3nc4ccccc4[n-]3)c2)c1O

>  <Energy>  (67) 
99.00889814172334

>  <Genealogy>  (67) 
Cc1cccc(C(=O)[N-]c2ccc([O-])c(C(=O)N(C)Cc3nc4ccccc4[n-]3)c2)c1O (protonated)
Cc1cccc(C(=O)[N-]c2ccc([O-])c(C(=O)N(C)Cc3nc4ccccc4[n-]3)c2)c1O (3D coordinates assigned)
Cc1cccc(C(=O)[N-]c2ccc([O-])c(C(=O)N(C)Cc3nc4ccccc4[n-]3)c2)c1O (optimized conformer: 99.00889814172334 kcal/mol)

>  <smiles>  (67) 
Cc1cccc(C(=O)Nc2ccc(O)c(C(=O)N(C)Cc3nc4ccccc4[nH]3)c2)c1O

>  <score_type>  (67) 
oracle

>  <origin>  (67) 
adg

>  <m_score__min__energy>  (67) 
-14.550000000000001

>  <m_primary>  (67) 
energy

$$$$
67:0
     RDKit          3D

 49 52  0  0  1  0  0  0  0  0999 V2000
   56.0420   24.3610   44.8760 C   0  0  0  0  0  0  0  0  0  0  0  0
   56.9680   25.2370   45.5790 C   0  0  0  0  0  0  0  0  0  0  0  0
   58.3050   25.0000   45.7330 N   0  0  0  0  0  0  0  0  0  0  0  0
   58.9640   25.8910   46.3470 C   0  0  0  0  0  0  0  0  0  0  0  0
   60.2970   25.5080   46.4230 O   0  0  0  0  0  0  0  0  0  0  0  0
   59.0170   27.0680   46.9880 C   0  0  0  0  0  0  0  0  0  0  0  0
   59.0700   28.2290   47.6190 N   0  0  0  0  0  0  0  0  0  0  0  0
   60.0680   29.2010   46.9280 C   0  0  0  0  0  0  0  0  0  0  0  0
   59.2410   30.1060   46.1040 C   0  0  0  0  0  0  0  0  0  0  0  0
   58.6910   29.5230   44.9570 C   0  0  0  0  0  0  0  0  0  0  0  0
   57.8890   30.2430   44.1220 C   0  0  0  0  0  0  0  0  0  0  0  0
   57.5650   31.5930   44.3590 C   0  0  0  0  0  0  0  0  0  0  0  0
   58.1370   32.1850   45.5510 C   0  0  0  0  0  0  0  0  0  0  0  0
   57.7340   33.5240   45.7440 C   0  0  0  0  0  0  0  0  0  0  0  0
   56.8160   33.9810   44.9410 O   0  0  0  0  0  0  0  0  0  0  0  0
   58.1600   34.5250   46.6910 N   0  0  0  0  0  0  0  0  0  0  0  0
   59.2620   34.1740   47.3760 C   0  0  0  0  0  0  0  0  0  0  0  0
   60.5400   34.2870   46.9640 C   0  0  0  0  0  0  0  0  0  0  0  0
   61.4030   33.7530   47.9010 C   0  0  0  0  0  0  0  0  0  0  0  0
   62.9090   33.7720   47.8510 C   0  0  0  0  0  0  0  0  0  0  0  0
   63.5270   32.4450   47.5000 C   0  0  0  0  0  0  0  0  0  0  0  0
   63.5200   33.5220   46.5020 C   0  0  0  0  0  0  0  0  0  0  0  0
   60.5960   33.3110   48.8890 N   0  0  0  0  0  0  0  0  0  0  0  0
   59.3090   33.5620   48.5800 N   0  0  0  0  0  0  0  0  0  0  0  0
   58.9330   31.4020   46.3340 C   0  0  0  0  0  0  0  0  0  0  0  0
   57.3540   27.2730   46.7530 C   0  0  0  0  0  0  0  0  0  0  0  0
   56.6080   26.4090   46.1350 C   0  0  0  0  0  0  0  0  0  0  0  0
   55.1960   26.7020   46.0030 O   0  0  0  0  0  0  0  0  0  0  0  0
   55.4449   23.7962   45.6071 H   0  0  0  0  0  0  0  0  0  0  0  0
   55.3734   24.9649   44.2449 H   0  0  0  0  0  0  0  0  0  0  0  0
   56.6079   23.6600   44.2449 H   0  0  0  0  0  0  0  0  0  0  0  0
   58.7160   24.1250   45.3560 H   0  0  0  0  0  0  0  0  0  0  0  0
   58.6960   28.7430   48.4130 H   0  0  0  0  0  0  0  0  0  0  0  0
   60.6289   29.7738   47.6812 H   0  0  0  0  0  0  0  0  0  0  0  0
   60.8059   28.6587   46.3186 H   0  0  0  0  0  0  0  0  0  0  0  0
   58.9086   28.4698   44.7259 H   0  0  0  0  0  0  0  0  0  0  0  0
   57.4789   29.7502   43.2282 H   0  0  0  0  0  0  0  0  0  0  0  0
   56.9159   32.1642   43.6790 H   0  0  0  0  0  0  0  0  0  0  0  0
   60.8529   34.7418   46.0126 H   0  0  0  0  0  0  0  0  0  0  0  0
   63.0392   34.5308   48.6367 H   0  0  0  0  0  0  0  0  0  0  0  0
   64.4734   32.1395   47.9702 H   0  0  0  0  0  0  0  0  0  0  0  0
   63.1797   31.4014   47.5149 H   0  0  0  0  0  0  0  0  0  0  0  0
   64.4617   34.0195   46.2267 H   0  0  0  0  0  0  0  0  0  0  0  0
   63.1653   33.6117   45.4646 H   0  0  0  0  0  0  0  0  0  0  0  0
   60.9300   32.8260   49.7820 H   0  0  0  0  0  0  0  0  0  0  0  0
   58.4610   33.3540   49.1410 H   0  0  0  0  0  0  0  0  0  0  0  0
   59.3630   31.8667   47.2335 H   0  0  0  0  0  0  0  0  0  0  0  0
   56.8806   28.1856   47.1441 H   0  0  0  0  0  0  0  0  0  0  0  0
   54.5910   26.3550   46.7460 H   0  0  0  0  0  0  0  0  0  0  0  0
  1  2  1  0
  2  3  1  0
  3  4  1  0
  4  5  2  0
  4  6  1  0
  6  7  1  0
  7  8  1  0
  8  9  1  0
  9 10  2  0
 10 11  1  0
 11 12  2  0
 12 13  1  0
 13 14  1  0
 14 15  2  0
 14 16  1  0
 16 17  2  0
 17 18  1  0
 18 19  2  0
 19 20  1  0
 20 21  1  0
 21 22  1  0
 19 23  1  0
 23 24  1  0
 13 25  2  0
  6 26  2  0
 26 27  1  0
 27 28  1  0
 27  2  2  0
 25  9  1  0
 24 17  1  0
 22 20  1  0
  1 29  1  0
  1 30  1  0
  1 31  1  0
  3 32  1  0
  7 33  1  0
  8 34  1  0
  8 35  1  0
 10 36  1  0
 11 37  1  0
 12 38  1  0
 18 39  1  0
 20 40  1  0
 21 41  1  0
 21 42  1  0
 22 43  1  0
 22 44  1  0
 23 45  1  0
 24 46  1  0
 25 47  1  0
 26 48  1  0
 28 49  1  0
M  END
>  <smiles>  (68) 
Cc1[nH]c(=O)c(NCc2cccc(C(=O)N=c3cc(C4CC4)[nH][nH]3)c2)cc1O

>  <score_type>  (68) 
oracle

>  <origin>  (68) 
adg

>  <m_score__min__energy>  (68) 
-9.4399999999999995

>  <m_primary>  (68) 
energy

$$$$
68:0
     RDKit          3D

 30 31  0  0  0  0  0  0  0  0999 V2000
   62.8922   33.0200   46.1180 H   0  0  0  0  0  0  0  0  0  0  0  0
   62.1290   33.3080   46.8560 C   0  0  0  0  0  0  0  0  0  0  0  0
   60.8500   33.5370   46.4560 N   0  0  0  0  0  0  0  0  0  0  0  0
   59.8710   33.9000   47.3330 C   0  0  0  0  0  0  0  0  0  0  0  0
   58.6470   34.1120   46.9410 N   0  0  0  0  0  0  0  0  0  0  0  0
   58.1150   34.1240   45.6040 C   0  0  0  0  0  0  0  0  0  0  0  0
   58.5980   34.9400   44.7760 O   0  0  0  0  0  0  0  0  0  0  0  0
   57.0450   33.1760   45.1310 C   0  0  0  0  0  0  0  0  0  0  0  0
   56.0949   33.4296   45.6239 H   0  0  0  0  0  0  0  0  0  0  0  0
   56.9472   33.2708   44.0395 H   0  0  0  0  0  0  0  0  0  0  0  0
   57.3890   31.8270   45.4440 O   0  0  0  0  0  0  0  0  0  0  0  0
   57.4610   30.8060   44.4880 C   0  0  0  0  0  0  0  0  0  0  0  0
   57.5320   31.1010   43.2620 O   0  0  0  0  0  0  0  0  0  0  0  0
   57.4570   29.3810   44.9090 C   0  0  0  0  0  0  0  0  0  0  0  0
   58.6740   28.6770   44.9910 C   0  0  0  0  0  0  0  0  0  0  0  0
   59.6156   29.1865   44.7383 H   0  0  0  0  0  0  0  0  0  0  0  0
   58.6980   27.3380   45.3900 C   0  0  0  0  0  0  0  0  0  0  0  0
   59.6557   26.8001   45.4486 H   0  0  0  0  0  0  0  0  0  0  0  0
   57.5110   26.6820   45.7140 C   0  0  0  0  0  0  0  0  0  0  0  0
   57.5332   25.6280   46.0279 H   0  0  0  0  0  0  0  0  0  0  0  0
   56.2940   27.3630   45.6400 C   0  0  0  0  0  0  0  0  0  0  0  0
   55.1150   26.7020   45.9670 O   0  0  0  0  0  0  0  0  0  0  0  0
   56.2580   28.7070   45.2410 C   0  0  0  0  0  0  0  0  0  0  0  0
   55.0280   29.3540   45.1790 O   0  0  0  0  0  0  0  0  0  0  0  0
   60.1830   34.0290   48.6920 C   0  0  0  0  0  0  0  0  0  0  0  0
   59.4023   34.3091   49.4145 H   0  0  0  0  0  0  0  0  0  0  0  0
   61.4910   33.8000   49.1250 C   0  0  0  0  0  0  0  0  0  0  0  0
   61.7453   33.9046   50.1901 H   0  0  0  0  0  0  0  0  0  0  0  0
   62.4750   33.4380   48.2030 C   0  0  0  0  0  0  0  0  0  0  0  0
   64.1230   33.1500   48.7280 Cl  0  0  0  0  0  0  0  0  0  0  0  0
  1  2  1  0
  2  3  1  0
  3  4  1  0
  4  5  2  0
  5  6  1  0
  6  7  2  0
  6  8  1  0
  8  9  1  0
  8 10  1  0
  8 11  1  0
 11 12  1  0
 12 13  2  0
 12 14  1  0
 14 15  2  0
 15 16  1  0
 15 17  1  0
 17 18  1  0
 17 19  2  0
 19 20  1  0
 19 21  1  0
 21 22  1  0
 21 23  2  0
 23 24  1  0
  4 25  1  0
 25 26  1  0
 25 27  2  0
 27 28  1  0
 27 29  1  0
 29 30  1  0
 29  2  2  0
 23 14  1  0
M  CHG  3   3  -1  22  -1  24  -1
M  END
>  <UniqueID>  (69) 
64

>  <SMILES>  (69) 
O=C(COC(=O)c1cccc([O-])c1[O-])/N=c1/ccc(Cl)c[n-]1

>  <Energy>  (69) 
35.8300682556132

>  <Genealogy>  (69) 
O=C(COC(=O)c1cccc([O-])c1[O-])N=c1ccc(Cl)c[n-]1 (protonated)
O=C(COC(=O)c1cccc([O-])c1[O-])/N=c1/ccc(Cl)c[n-]1 (cis-trans isomerization)
O=C(COC(=O)c1cccc([O-])c1[O-])/N=c1/ccc(Cl)c[n-]1 (3D coordinates assigned)
O=C(COC(=O)c1cccc([O-])c1[O-])/N=c1/ccc(Cl)c[n-]1 (optimized conformer: 35.8300682556132 kcal/mol)

>  <smiles>  (69) 
O=C(COC(=O)c1cccc(O)c1O)N=c1ccc(Cl)c[nH]1

>  <score_type>  (69) 
oracle

>  <origin>  (69) 
adg

>  <m_score__min__energy>  (69) 
-15.65

>  <m_primary>  (69) 
energy

$$$$
69:0
     RDKit          3D

 27 28  0  0  0  0  0  0  0  0999 V2000
   55.8640   29.7600   43.1420 C   0  0  0  0  0  0  0  0  0  0  0  0
   56.0130   30.2040   44.4860 O   0  0  0  0  0  0  0  0  0  0  0  0
   57.2450   30.3970   45.1330 C   0  0  0  0  0  0  0  0  0  0  0  0
   57.7270   31.6870   45.4350 C   0  0  0  0  0  0  0  0  0  0  0  0
   58.9570   31.8510   46.0760 C   0  0  0  0  0  0  0  0  0  0  0  0
   59.7210   30.7380   46.4210 C   0  0  0  0  0  0  0  0  0  0  0  0
   59.2580   29.4540   46.1270 C   0  0  0  0  0  0  0  0  0  0  0  0
   58.0220   29.2700   45.4870 C   0  0  0  0  0  0  0  0  0  0  0  0
   57.5700   27.8660   45.1630 C   0  0  0  0  0  0  0  0  0  0  0  0
   56.3600   27.5300   45.9140 N   0  0  0  0  0  0  0  0  0  0  0  0
   55.9170   26.3240   46.1120 C   0  0  0  0  0  0  0  0  0  0  0  0
   56.6650   25.4030   46.7780 N   0  0  0  0  0  0  0  0  0  0  0  0
   56.1860   24.1500   46.9780 C   0  0  0  0  0  0  0  0  0  0  0  0
   56.8800   23.3030   47.5980 O   0  0  0  0  0  0  0  0  0  0  0  0
   54.9590   23.8110   46.5110 N   0  0  0  0  0  0  0  0  0  0  0  0
   54.2110   24.7250   45.8440 C   0  0  0  0  0  0  0  0  0  0  0  0
   53.0730   24.4120   45.4100 O   0  0  0  0  0  0  0  0  0  0  0  0
   54.6910   25.9800   45.6460 N   0  0  0  0  0  0  0  0  0  0  0  0
   55.5140   28.7172   43.1370 H   0  0  0  0  0  0  0  0  0  0  0  0
   55.1299   30.3956   42.6251 H   0  0  0  0  0  0  0  0  0  0  0  0
   56.8329   29.8241   42.6251 H   0  0  0  0  0  0  0  0  0  0  0  0
   57.1302   32.5704   45.1639 H   0  0  0  0  0  0  0  0  0  0  0  0
   59.3236   32.8616   46.3091 H   0  0  0  0  0  0  0  0  0  0  0  0
   60.6895   30.8710   46.9253 H   0  0  0  0  0  0  0  0  0  0  0  0
   59.8668   28.5792   46.3991 H   0  0  0  0  0  0  0  0  0  0  0  0
   57.3592   27.7933   44.0858 H   0  0  0  0  0  0  0  0  0  0  0  0
   58.3682   27.1624   45.4420 H   0  0  0  0  0  0  0  0  0  0  0  0
  1  2  1  0
  2  3  1  0
  3  4  2  0
  4  5  1  0
  5  6  2  0
  6  7  1  0
  7  8  2  0
  8  9  1  0
  9 10  1  0
 10 11  2  3
 11 12  1  0
 12 13  1  0
 13 14  2  0
 13 15  1  0
 15 16  1  0
 16 17  2  0
 16 18  1  0
  8  3  1  0
 18 11  1  0
  1 19  1  0
  1 20  1  0
  1 21  1  0
  4 22  1  0
  5 23  1  0
  6 24  1  0
  7 25  1  0
  9 26  1  0
  9 27  1  0
M  CHG  3  12  -1  15  -1  18  -1
M  END
>  <UniqueID>  (70) 
65

>  <SMILES>  (70) 
COc1ccccc1CN=c1[n-]c(=O)[n-]c(=O)[n-]1

>  <Energy>  (70) 
27.6833700931099

>  <Genealogy>  (70) 
COc1ccccc1CN=c1[n-]c(=O)[n-]c(=O)[n-]1 (protonated)
COc1ccccc1CN=c1[n-]c(=O)[n-]c(=O)[n-]1 (3D coordinates assigned)
COc1ccccc1CN=c1[n-]c(=O)[n-]c(=O)[n-]1 (optimized conformer: 27.6833700931099 kcal/mol)

>  <smiles>  (70) 
COc1ccccc1CN=c1[nH]c(=O)[nH]c(=O)[nH]1

>  <score_type>  (70) 
oracle

>  <origin>  (70) 
adg

>  <m_score__min__energy>  (70) 
-11.66

>  <m_primary>  (70) 
energy

$$$$
70:0
     RDKit          3D

 55 58  0  0  0  0  0  0  0  0999 V2000
   55.1630   26.5190   45.9880 O   0  0  0  0  0  0  0  0  0  0  0  0
   56.4080   26.7060   45.9960 C   0  0  0  0  0  0  0  0  0  0  0  0
   57.2460   25.7170   46.6130 N   0  0  0  0  0  0  0  0  0  0  0  0
   58.6450   25.4300   46.2880 C   0  0  0  0  0  0  0  0  0  0  0  0
   59.5990   26.4290   46.9650 C   0  0  1  0  0  0  0  0  0  0  0  0
   60.1730   27.4650   46.0080 C   0  0  0  0  0  0  0  0  0  0  0  0
   60.3800   28.6480   46.9000 C   0  0  0  0  0  0  0  0  0  0  0  0
   59.3340   28.4510   47.9820 C   0  0  0  0  0  0  0  0  0  0  0  0
   58.9470   27.0940   48.0260 O   0  0  0  0  0  0  0  0  0  0  0  0
   56.9530   27.9210   45.3630 C   0  0  0  0  0  0  0  0  0  0  0  0
   57.4520   27.9330   44.0630 C   0  0  0  0  0  0  0  0  0  0  0  0
   58.0110   29.4840   43.7420 S   0  0  0  0  0  0  0  0  0  0  0  0
   57.6130   30.0760   45.2700 C   0  0  0  0  0  0  0  0  0  0  0  0
   57.8560   31.4510   45.7620 C   0  0  0  0  0  0  0  0  0  0  0  0
   57.7820   32.5090   44.9400 C   0  0  0  0  0  0  0  0  0  0  0  0
   58.0210   33.8910   45.4720 C   0  0  0  0  0  0  0  0  0  0  0  0
   59.1210   33.8750   46.4500 N   0  0  0  0  0  0  0  0  0  0  0  0
   60.1230   34.9080   46.4130 C   0  0  0  0  0  0  0  0  0  0  0  0
   59.7740   36.1170   46.3680 O   0  0  0  0  0  0  0  0  0  0  0  0
   61.5190   34.5930   46.3570 N   0  0  0  0  0  0  0  0  0  0  0  0
   62.2620   33.8650   47.3440 C   0  0  0  0  0  0  0  0  0  0  0  0
   63.0600   32.7600   47.0060 C   0  0  0  0  0  0  0  0  0  0  0  0
   63.7530   32.0610   47.9980 C   0  0  0  0  0  0  0  0  0  0  0  0
   63.6480   32.4400   49.3420 C   0  0  0  0  0  0  0  0  0  0  0  0
   64.3700   31.7020   50.2960 O   0  0  0  0  0  0  0  0  0  0  0  0
   65.7400   31.9120   50.6370 C   0  0  0  0  0  0  0  0  0  0  0  0
   65.8040   32.4970   51.8870 F   0  0  0  0  0  0  0  0  0  0  0  0
   66.4150   30.7040   50.6740 F   0  0  0  0  0  0  0  0  0  0  0  0
   66.3350   32.7580   49.7200 F   0  0  0  0  0  0  0  0  0  0  0  0
   62.8270   33.5320   49.6830 C   0  0  0  0  0  0  0  0  0  0  0  0
   62.1380   34.2330   48.6890 C   0  0  0  0  0  0  0  0  0  0  0  0
   59.2840   32.7400   47.3760 C   0  0  0  0  0  0  0  0  0  0  0  0
   58.1620   31.6980   47.2200 C   0  0  0  0  0  0  0  0  0  0  0  0
   57.0580   29.1040   46.0280 N   0  0  0  0  0  0  0  0  0  0  0  0
   58.8900   24.4138   46.6306 H   0  0  0  0  0  0  0  0  0  0  0  0
   58.7706   25.5178   45.1987 H   0  0  0  0  0  0  0  0  0  0  0  0
   60.4404   25.8299   47.3433 H   0  0  0  0  0  0  0  0  0  0  0  0
   61.1242   27.1223   45.5746 H   0  0  0  0  0  0  0  0  0  0  0  0
   59.5230   27.6738   45.1455 H   0  0  0  0  0  0  0  0  0  0  0  0
   61.3940   28.6483   47.3265 H   0  0  0  0  0  0  0  0  0  0  0  0
   60.2816   29.6088   46.3735 H   0  0  0  0  0  0  0  0  0  0  0  0
   59.7548   28.7433   48.9554 H   0  0  0  0  0  0  0  0  0  0  0  0
   58.4555   29.0740   47.7582 H   0  0  0  0  0  0  0  0  0  0  0  0
   57.4758   27.0791   43.3700 H   0  0  0  0  0  0  0  0  0  0  0  0
   57.5460   32.3628   43.8756 H   0  0  0  0  0  0  0  0  0  0  0  0
   58.2842   34.5604   44.6398 H   0  0  0  0  0  0  0  0  0  0  0  0
   57.1059   34.2490   45.9663 H   0  0  0  0  0  0  0  0  0  0  0  0
   63.1400   32.4432   45.9556 H   0  0  0  0  0  0  0  0  0  0  0  0
   64.3865   31.2056   47.7207 H   0  0  0  0  0  0  0  0  0  0  0  0
   62.7274   33.8347   50.7358 H   0  0  0  0  0  0  0  0  0  0  0  0
   61.4934   35.0803   48.9658 H   0  0  0  0  0  0  0  0  0  0  0  0
   60.2498   32.2538   47.1742 H   0  0  0  0  0  0  0  0  0  0  0  0
   59.2407   33.1324   48.4027 H   0  0  0  0  0  0  0  0  0  0  0  0
   58.4798   30.7538   47.6864 H   0  0  0  0  0  0  0  0  0  0  0  0
   57.2549   32.0818   47.7097 H   0  0  0  0  0  0  0  0  0  0  0  0
  1  2  2  0
  2  3  1  0
  3  4  1  0
  4  5  1  0
  5  6  1  0
  6  7  1  0
  7  8  1  0
  8  9  1  0
  2 10  1  0
 10 11  2  0
 11 12  1  0
 12 13  1  0
 13 14  1  0
 14 15  2  0
 15 16  1  0
 16 17  1  0
 17 18  1  0
 18 19  2  0
 18 20  1  0
 20 21  1  0
 21 22  2  0
 22 23  1  0
 23 24  2  0
 24 25  1  0
 25 26  1  0
 26 27  1  0
 26 28  1  0
 26 29  1  0
 24 30  1  0
 30 31  2  0
 17 32  1  0
 32 33  1  0
 13 34  2  0
  9  5  1  0
 34 10  1  0
 33 14  1  0
 31 21  1  0
  4 35  1  0
  4 36  1  0
  5 37  1  1
  6 38  1  0
  6 39  1  0
  7 40  1  0
  7 41  1  0
  8 42  1  0
  8 43  1  0
 11 44  1  0
 15 45  1  0
 16 46  1  0
 16 47  1  0
 22 48  1  0
 23 49  1  0
 30 50  1  0
 31 51  1  0
 32 52  1  0
 32 53  1  0
 33 54  1  0
 33 55  1  0
M  CHG  2   3  -1  20  -1
M  END
>  <UniqueID>  (71) 
66

>  <SMILES>  (71) 
O=C([N-]C[C@H]1CCCO1)c1csc(C2=CCN(C(=O)[N-]c3ccc(OC(F)(F)F)cc3)CC2)n1

>  <Energy>  (71) 
96.83436834603147

>  <Genealogy>  (71) 
O=C([N-]CC1CCCO1)c1csc(C2=CCN(C(=O)[N-]c3ccc(OC(F)(F)F)cc3)CC2)n1 (protonated)
O=C([N-]C[C@H]1CCCO1)c1csc(C2=CCN(C(=O)[N-]c3ccc(OC(F)(F)F)cc3)CC2)n1 (chirality)
O=C([N-]C[C@H]1CCCO1)c1csc(C2=CCN(C(=O)[N-]c3ccc(OC(F)(F)F)cc3)CC2)n1 (3D coordinates assigned)
O=C([N-]C[C@H]1CCCO1)c1csc(C2=CCN(C(=O)[N-]c3ccc(OC(F)(F)F)cc3)CC2)n1 (nonaromatic ring conformer: 96.83436834603147 kcal/mol)

>  <smiles>  (71) 
O=C(NCC1CCCO1)c1csc(C2=CCN(C(=O)Nc3ccc(OC(F)(F)F)cc3)CC2)n1

>  <score_type>  (71) 
oracle

>  <origin>  (71) 
adg

>  <m_score__min__energy>  (71) 
-12.359999999999999

>  <m_primary>  (71) 
energy

$$$$
71:0
     RDKit          3D

 34 37  0  0  0  0  0  0  0  0999 V2000
   55.4280   24.5230   46.5050 O   0  0  0  0  0  0  0  0  0  0  0  0
   55.9590   25.6250   46.2080 C   0  0  0  0  0  0  0  0  0  0  0  0
   55.2360   26.7140   45.8700 N   0  0  0  0  0  0  0  0  0  0  0  0
   56.1840   27.6370   45.6410 C   0  0  0  0  0  0  0  0  0  0  0  0
   55.9160   28.9500   45.2680 O   0  0  0  0  0  0  0  0  0  0  0  0
   57.4330   27.0940   45.8310 C   0  0  0  0  0  0  0  0  0  0  0  0
   58.7490   27.8080   45.7120 C   0  0  0  0  0  0  0  0  0  0  0  0
   59.3800   28.0240   47.0720 C   0  0  0  0  0  0  0  0  0  0  0  0
   59.8390   26.8960   47.7780 C   0  0  0  0  0  0  0  0  0  0  0  0
   60.4880   27.0350   49.0060 C   0  0  0  0  0  0  0  0  0  0  0  0
   60.6980   28.3020   49.5440 C   0  0  0  0  0  0  0  0  0  0  0  0
   60.2550   29.4350   48.8620 C   0  0  0  0  0  0  0  0  0  0  0  0
   59.5820   29.3190   47.6320 C   0  0  0  0  0  0  0  0  0  0  0  0
   59.1390   30.5660   46.9620 C   0  0  0  0  0  0  0  0  0  0  0  0
   57.9340   30.6990   46.3460 N   0  0  0  0  0  0  0  0  0  0  0  0
   57.9630   31.9640   45.9090 C   0  0  0  0  0  0  0  0  0  0  0  0
   56.9820   32.6390   45.1870 C   0  0  0  0  0  0  0  0  0  0  0  0
   57.2400   33.9770   44.8300 C   0  0  0  0  0  0  0  0  0  0  0  0
   58.4570   34.5930   45.2010 C   0  0  0  0  0  0  0  0  0  0  0  0
   59.4250   33.8770   45.9300 C   0  0  0  0  0  0  0  0  0  0  0  0
   59.1350   32.5560   46.2640 C   0  0  0  0  0  0  0  0  0  0  0  0
   59.9030   31.6930   46.9420 N   0  0  0  0  0  0  0  0  0  0  0  0
   57.2980   25.8100   46.2050 N   0  0  0  0  0  0  0  0  0  0  0  0
   55.9040   29.6910   45.9580 H   0  0  0  0  0  0  0  0  0  0  0  0
   59.4294   27.2054   45.0924 H   0  0  0  0  0  0  0  0  0  0  0  0
   58.5717   28.7905   45.2503 H   0  0  0  0  0  0  0  0  0  0  0  0
   59.6842   25.8918   47.3565 H   0  0  0  0  0  0  0  0  0  0  0  0
   60.8337   26.1430   49.5490 H   0  0  0  0  0  0  0  0  0  0  0  0
   61.2145   28.4095   50.5092 H   0  0  0  0  0  0  0  0  0  0  0  0
   60.4341   30.4319   49.2912 H   0  0  0  0  0  0  0  0  0  0  0  0
   56.0401   32.1454   44.9058 H   0  0  0  0  0  0  0  0  0  0  0  0
   56.4906   34.5454   44.2596 H   0  0  0  0  0  0  0  0  0  0  0  0
   58.6488   35.6386   44.9182 H   0  0  0  0  0  0  0  0  0  0  0  0
   60.3763   34.3437   46.2254 H   0  0  0  0  0  0  0  0  0  0  0  0
  1  2  2  0
  2  3  1  0
  3  4  1  0
  4  5  1  0
  4  6  2  0
  6  7  1  0
  7  8  1  0
  8  9  2  0
  9 10  1  0
 10 11  2  0
 11 12  1  0
 12 13  2  0
 13 14  1  0
 14 15  2  0
 15 16  1  0
 16 17  2  0
 17 18  1  0
 18 19  2  0
 19 20  1  0
 20 21  2  0
 21 22  1  0
  6 23  1  0
 23  2  1  0
 13  8  1  0
 22 14  1  0
 21 16  1  0
  5 24  1  0
  7 25  1  0
  7 26  1  0
  9 27  1  0
 10 28  1  0
 11 29  1  0
 12 30  1  0
 17 31  1  0
 18 32  1  0
 19 33  1  0
 20 34  1  0
M  CHG  3   3  -1  22  -1  23  -1
M  END
>  <UniqueID>  (72) 
67

>  <SMILES>  (72) 
O=c1[n-]c(O)c(Cc2ccccc2-c2nc3ccccc3[n-]2)[n-]1

>  <Energy>  (72) 
105.69411387285992

>  <Genealogy>  (72) 
O=c1[n-]c(O)c(Cc2ccccc2-c2nc3ccccc3[n-]2)[n-]1 (protonated)
O=c1[n-]c(O)c(Cc2ccccc2-c2nc3ccccc3[n-]2)[n-]1 (3D coordinates assigned)
O=c1[n-]c(O)c(Cc2ccccc2-c2nc3ccccc3[n-]2)[n-]1 (optimized conformer: 105.69411387285992 kcal/mol)

>  <smiles>  (72) 
O=c1[nH]c(O)c(Cc2ccccc2-c2nc3ccccc3[nH]2)[nH]1

>  <score_type>  (72) 
oracle

>  <origin>  (72) 
adg

>  <m_score__min__energy>  (72) 
-12.800000000000001

>  <m_primary>  (72) 
energy

$$$$
72:0
     RDKit          3D

 17 18  0  0  0  0  0  0  0  0999 V2000
   56.0530   30.7080   44.5420 O   0  0  0  0  0  0  0  0  0  0  0  0
   56.6570   29.6550   44.8820 C   0  0  0  0  0  0  0  0  0  0  0  0
   55.9440   28.5590   45.2440 N   0  0  0  0  0  0  0  0  0  0  0  0
   56.5630   27.4080   45.6170 C   0  0  0  0  0  0  0  0  0  0  0  0
   55.8080   26.2870   45.9860 C   0  0  0  0  0  0  0  0  0  0  0  0
   54.4180   26.3390   45.9770 O   0  0  0  0  0  0  0  0  0  0  0  0
   56.4520   25.1050   46.3690 C   0  0  0  0  0  0  0  0  0  0  0  0
   57.8490   25.0390   46.3840 C   0  0  0  0  0  0  0  0  0  0  0  0
   58.6110   26.1530   46.0160 C   0  0  0  0  0  0  0  0  0  0  0  0
   57.9730   27.3450   45.6300 C   0  0  0  0  0  0  0  0  0  0  0  0
   58.6890   28.4940   45.2510 C   0  0  0  0  0  0  0  0  0  0  0  0
   59.9510   28.4930   45.2450 O   0  0  0  0  0  0  0  0  0  0  0  0
   58.0180   29.6200   44.8870 N   0  0  0  0  0  0  0  0  0  0  0  0
   55.8580   24.2257   46.6589 H   0  0  0  0  0  0  0  0  0  0  0  0
   58.3504   24.1077   46.6863 H   0  0  0  0  0  0  0  0  0  0  0  0
   59.7095   26.0964   46.0286 H   0  0  0  0  0  0  0  0  0  0  0  0
   58.5550   30.4720   44.6060 H   0  0  0  0  0  0  0  0  0  0  0  0
  1  2  2  0
  2  3  1  0
  3  4  1  0
  4  5  2  0
  5  6  1  0
  5  7  1  0
  7  8  2  0
  8  9  1  0
  9 10  2  0
 10 11  1  0
 11 12  2  0
 11 13  1  0
 13  2  1  0
 10  4  1  0
  7 14  1  0
  8 15  1  0
  9 16  1  0
 13 17  1  0
M  CHG  2   3  -1   6  -1
M  END
>  <UniqueID>  (73) 
68

>  <SMILES>  (73) 
O=c1[n-]c2c([O-])cccc2c(=O)[nH]1

>  <Energy>  (73) 
22.97112581461859

>  <Genealogy>  (73) 
O=c1[n-]c2c([O-])cccc2c(=O)[nH]1 (protonated)
O=c1[n-]c2c([O-])cccc2c(=O)[nH]1 (3D coordinates assigned)
O=c1[n-]c2c([O-])cccc2c(=O)[nH]1 (optimized conformer: 22.97112581461859 kcal/mol)

>  <smiles>  (73) 
O=c1[nH]c(=O)c2cccc(O)c2[nH]1

>  <score_type>  (73) 
oracle

>  <origin>  (73) 
adg

>  <m_score__min__energy>  (73) 
-11.68

>  <m_primary>  (73) 
energy

$$$$
73:0
     RDKit          3D

 39 40  0  0  0  0  0  0  0  0999 V2000
   55.5960   29.7170   46.0180 H   0  0  0  0  0  0  0  0  0  0  0  0
   55.6450   29.7190   45.0060 O   0  0  0  0  0  0  0  0  0  0  0  0
   56.8280   30.0400   44.3410 C   0  0  0  0  0  0  0  0  0  0  0  0
   57.5010   31.1940   44.6370 C   0  0  0  0  0  0  0  0  0  0  0  0
   57.9430   31.4350   45.9710 C   0  0  0  0  0  0  0  0  0  0  0  0
   57.8300   30.5490   46.8650 O   0  0  0  0  0  0  0  0  0  0  0  0
   58.4680   32.6840   46.3370 C   0  0  0  0  0  0  0  0  0  0  0  0
   58.8880   32.9620   47.7560 C   0  0  0  0  0  0  0  0  0  0  0  0
   58.1753   32.4902   48.4485 H   0  0  0  0  0  0  0  0  0  0  0  0
   59.8935   32.5505   47.9281 H   0  0  0  0  0  0  0  0  0  0  0  0
   58.9020   34.0484   47.9281 H   0  0  0  0  0  0  0  0  0  0  0  0
   58.5210   33.7000   45.3870 C   0  0  0  0  0  0  0  0  0  0  0  0
   58.8466   34.7079   45.6839 H   0  0  0  0  0  0  0  0  0  0  0  0
   58.1750   33.4580   44.1000 N   0  0  0  0  0  0  0  0  0  0  0  0
   58.3040   34.2420   43.4190 H   0  0  0  0  0  0  0  0  0  0  0  0
   57.7480   32.2310   43.6730 C   0  0  0  0  0  0  0  0  0  0  0  0
   57.7000   32.0230   42.3430 C   0  0  0  0  0  0  0  0  0  0  0  0
   57.3633   31.0524   41.9499 H   0  0  0  0  0  0  0  0  0  0  0  0
   57.9975   32.8238   41.6500 H   0  0  0  0  0  0  0  0  0  0  0  0
   57.2570   29.1450   43.3020 N   0  0  0  0  0  0  0  0  0  0  0  0
   57.6180   29.5880   42.4270 H   0  0  0  0  0  0  0  0  0  0  0  0
   57.7650   27.8140   43.6330 C   0  0  0  0  0  0  0  0  0  0  0  0
   56.9328   27.0948   43.6204 H   0  0  0  0  0  0  0  0  0  0  0  0
   58.5238   27.5264   42.8903 H   0  0  0  0  0  0  0  0  0  0  0  0
   58.3970   27.8190   45.0020 C   0  0  0  0  0  0  0  0  0  0  0  0
   59.7390   28.2110   45.1490 C   0  0  0  0  0  0  0  0  0  0  0  0
   60.3267   28.4905   44.2622 H   0  0  0  0  0  0  0  0  0  0  0  0
   60.3310   28.2480   46.4130 C   0  0  0  0  0  0  0  0  0  0  0  0
   61.3822   28.5546   46.5183 H   0  0  0  0  0  0  0  0  0  0  0  0
   59.5920   27.8970   47.5420 C   0  0  0  0  0  0  0  0  0  0  0  0
   60.0613   27.9261   48.5364 H   0  0  0  0  0  0  0  0  0  0  0  0
   58.2550   27.5080   47.4120 C   0  0  0  0  0  0  0  0  0  0  0  0
   57.6767   27.2323   48.3061 H   0  0  0  0  0  0  0  0  0  0  0  0
   57.6440   27.4670   46.1430 C   0  0  0  0  0  0  0  0  0  0  0  0
   56.3020   27.0850   45.9810 O   0  0  0  0  0  0  0  0  0  0  0  0
   55.8390   25.7380   45.9760 C   0  0  0  0  0  0  0  0  0  0  0  0
   55.7186   25.3878   47.0118 H   0  0  0  0  0  0  0  0  0  0  0  0
   54.8710   25.6849   45.4562 H   0  0  0  0  0  0  0  0  0  0  0  0
   56.5698   25.1010   45.4562 H   0  0  0  0  0  0  0  0  0  0  0  0
  1  2  1  0
  2  3  1  0
  3  4  2  0
  4  5  1  0
  5  6  2  0
  5  7  1  0
  7  8  1  0
  8  9  1  0
  8 10  1  0
  8 11  1  0
  7 12  2  0
 12 13  1  0
 12 14  1  0
 14 15  1  0
 14 16  1  0
 16 17  2  0
 17 18  1  0
 17 19  1  0
  3 20  1  0
 20 21  1  0
 20 22  1  0
 22 23  1  0
 22 24  1  0
 22 25  1  0
 25 26  2  0
 26 27  1  0
 26 28  1  0
 28 29  1  0
 28 30  2  0
 30 31  1  0
 30 32  1  0
 32 33  1  0
 32 34  2  0
 34 35  1  0
 35 36  1  0
 36 37  1  0
 36 38  1  0
 36 39  1  0
 16  4  1  0
 34 25  1  0
M  END
>  <UniqueID>  (74) 
69

>  <SMILES>  (74) 
C=c1[nH]cc(C)c(=O)/c1=C(\O)NCc1ccccc1OC

>  <Energy>  (74) 
62.59079090479614

>  <Genealogy>  (74) 
C=c1[nH]cc(C)c(=O)/c1=C(\O)NCc1ccccc1OC (cis-trans isomerization)
C=c1[nH]cc(C)c(=O)/c1=C(\O)NCc1ccccc1OC (3D coordinates assigned)
C=c1[nH]cc(C)c(=O)/c1=C(\O)NCc1ccccc1OC (optimized conformer: 62.59079090479614 kcal/mol)

>  <smiles>  (74) 
C=c1[nH]cc(C)c(=O)c1=C(O)NCc1ccccc1OC

>  <score_type>  (74) 
oracle

>  <origin>  (74) 
adg

>  <m_score__min__energy>  (74) 
-8.0299999999999994

>  <m_primary>  (74) 
energy

$$$$
74:0
     RDKit          3D

 53 56  0  0  0  0  0  0  0  0999 V2000
   59.6381   24.7529   46.4544 H   0  0  0  0  0  0  0  0  0  0  0  0
   59.2260   24.0800   45.6880 C   0  0  0  0  0  0  0  0  0  0  0  0
   59.8350   23.2504   45.2995 H   0  0  0  0  0  0  0  0  0  0  0  0
   57.9750   24.2720   45.2250 C   0  0  0  0  0  0  0  0  0  0  0  0
   57.0830   25.2510   45.7610 C   0  0  0  0  0  0  0  0  0  0  0  0
   57.4630   26.3120   46.5350 C   0  0  0  0  0  0  0  0  0  0  0  0
   57.7509   26.0876   47.5727 H   0  0  0  0  0  0  0  0  0  0  0  0
   57.5270   27.7330   46.1200 C   0  0  0  0  0  0  0  0  0  0  0  0
   57.0840   28.0870   44.8370 C   0  0  0  0  0  0  0  0  0  0  0  0
   56.6450   27.3218   44.1799 H   0  0  0  0  0  0  0  0  0  0  0  0
   57.1970   29.4070   44.3880 C   0  0  0  0  0  0  0  0  0  0  0  0
   56.8418   29.6759   43.3823 H   0  0  0  0  0  0  0  0  0  0  0  0
   57.7620   30.3900   45.2160 C   0  0  0  0  0  0  0  0  0  0  0  0
   57.8800   31.7510   44.7830 N   0  0  0  0  0  0  0  0  0  0  0  0
   58.1450   33.0820   45.8610 S   0  0  0  0  0  0  0  0  0  0  0  0
   57.9470   34.3630   45.1020 O   0  0  0  0  0  0  0  0  0  0  0  0
   57.1230   33.0250   46.9690 O   0  0  0  0  0  0  0  0  0  0  0  0
   59.7740   33.0560   46.5350 C   0  0  0  0  0  0  0  0  0  0  0  0
   60.7740   33.8880   46.0010 C   0  0  0  0  0  0  0  0  0  0  0  0
   60.5388   34.5594   45.1620 H   0  0  0  0  0  0  0  0  0  0  0  0
   62.0670   33.8640   46.5340 C   0  0  0  0  0  0  0  0  0  0  0  0
   62.8406   34.5288   46.1221 H   0  0  0  0  0  0  0  0  0  0  0  0
   62.3850   32.9920   47.5970 C   0  0  0  0  0  0  0  0  0  0  0  0
   63.7670   32.9780   48.1890 C   0  0  0  0  0  0  0  0  0  0  0  0
   63.6957   32.9787   49.2867 H   0  0  0  0  0  0  0  0  0  0  0  0
   64.2991   32.0744   47.8567 H   0  0  0  0  0  0  0  0  0  0  0  0
   64.3173   33.8706   47.8567 H   0  0  0  0  0  0  0  0  0  0  0  0
   61.3800   32.1700   48.1390 C   0  0  0  0  0  0  0  0  0  0  0  0
   61.6134   31.5021   48.9812 H   0  0  0  0  0  0  0  0  0  0  0  0
   60.0830   32.1990   47.6100 C   0  0  0  0  0  0  0  0  0  0  0  0
   59.3030   31.5504   48.0354 H   0  0  0  0  0  0  0  0  0  0  0  0
   58.2100   30.0360   46.4950 C   0  0  0  0  0  0  0  0  0  0  0  0
   58.6341   30.8051   47.1573 H   0  0  0  0  0  0  0  0  0  0  0  0
   58.1220   28.7120   46.9360 C   0  0  0  0  0  0  0  0  0  0  0  0
   58.5192   28.4353   47.9238 H   0  0  0  0  0  0  0  0  0  0  0  0
   55.7090   25.1090   45.4370 C   0  0  0  0  0  0  0  0  0  0  0  0
   54.8550   25.8630   45.9850 O   0  0  0  0  0  0  0  0  0  0  0  0
   55.2970   24.1850   44.5100 N   0  0  0  0  0  0  0  0  0  0  0  0
   53.8690   24.0750   44.1420 C   0  0  0  0  0  0  0  0  0  0  0  0
   53.4432   25.0837   44.0359 H   0  0  0  0  0  0  0  0  0  0  0  0
   53.7864   23.5283   43.1911 H   0  0  0  0  0  0  0  0  0  0  0  0
   53.1140   23.3290   45.1990 C   0  0  0  0  0  0  0  0  0  0  0  0
   53.5630   22.2520   45.7960 O   0  0  0  0  0  0  0  0  0  0  0  0
   52.6640   21.8510   46.6640 C   0  0  0  0  0  0  0  0  0  0  0  0
   52.7610   20.9704   47.3160 H   0  0  0  0  0  0  0  0  0  0  0  0
   51.5780   22.7030   46.6340 C   0  0  0  0  0  0  0  0  0  0  0  0
   50.6653   22.6325   47.2440 H   0  0  0  0  0  0  0  0  0  0  0  0
   51.8680   23.6580   45.6870 C   0  0  0  0  0  0  0  0  0  0  0  0
   51.2373   24.5065   45.3831 H   0  0  0  0  0  0  0  0  0  0  0  0
   56.2080   23.3500   43.9250 C   0  0  0  0  0  0  0  0  0  0  0  0
   55.8380   22.4950   43.0700 O   0  0  0  0  0  0  0  0  0  0  0  0
   57.5160   23.4070   44.2750 N   0  0  0  0  0  0  0  0  0  0  0  0
   58.1680   22.7160   43.8320 H   0  0  0  0  0  0  0  0  0  0  0  0
  1  2  1  0
  2  3  1  0
  2  4  2  0
  4  5  1  0
  5  6  2  0
  6  7  1  0
  6  8  1  0
  8  9  2  0
  9 10  1  0
  9 11  1  0
 11 12  1  0
 11 13  2  0
 13 14  1  0
 14 15  1  0
 15 16  2  0
 15 17  2  0
 15 18  1  0
 18 19  2  0
 19 20  1  0
 19 21  1  0
 21 22  1  0
 21 23  2  0
 23 24  1  0
 24 25  1  0
 24 26  1  0
 24 27  1  0
 23 28  1  0
 28 29  1  0
 28 30  2  0
 30 31  1  0
 13 32  1  0
 32 33  1  0
 32 34  2  0
 34 35  1  0
  5 36  1  0
 36 37  2  0
 36 38  1  0
 38 39  1  0
 39 40  1  0
 39 41  1  0
 39 42  1  0
 42 43  1  0
 43 44  1  0
 44 45  1  0
 44 46  2  0
 46 47  1  0
 46 48  1  0
 48 49  1  0
 38 50  1  0
 50 51  2  0
 50 52  1  0
 52 53  1  0
 52  4  1  0
 34  8  1  0
 48 42  2  0
 30 18  1  0
M  CHG  1  14  -1
M  END
>  <UniqueID>  (75) 
70

>  <SMILES>  (75) 
C=c1[nH]c(=O)n(Cc2ccco2)c(=O)/c1=C/c1ccc([N-]S(=O)(=O)c2ccc(C)cc2)cc1

>  <Energy>  (75) 
116.24949057562749

>  <Genealogy>  (75) 
C=c1[nH]c(=O)n(Cc2ccco2)c(=O)c1=Cc1ccc([N-]S(=O)(=O)c2ccc(C)cc2)cc1 (protonated)
C=c1[nH]c(=O)n(Cc2ccco2)c(=O)/c1=C/c1ccc([N-]S(=O)(=O)c2ccc(C)cc2)cc1 (cis-trans isomerization)
C=c1[nH]c(=O)n(Cc2ccco2)c(=O)/c1=C/c1ccc([N-]S(=O)(=O)c2ccc(C)cc2)cc1 (3D coordinates assigned)
C=c1[nH]c(=O)n(Cc2ccco2)c(=O)/c1=C/c1ccc([N-]S(=O)(=O)c2ccc(C)cc2)cc1 (optimized conformer: 116.24949057562749 kcal/mol)

>  <smiles>  (75) 
C=c1[nH]c(=O)n(Cc2ccco2)c(=O)c1=Cc1ccc(NS(=O)(=O)c2ccc(C)cc2)cc1

>  <score_type>  (75) 
oracle

>  <origin>  (75) 
adg

>  <m_score__min__energy>  (75) 
-11.44

>  <m_primary>  (75) 
energy

$$$$
75:0
     RDKit          3D

 78 83  0  0  0  0  0  0  0  0999 V2000
   60.0301   36.0334   48.1568 H   0  0  0  0  0  0  0  0  0  0  0  0
   59.7990   34.9580   48.1420 C   0  0  0  0  0  0  0  0  0  0  0  0
   59.1230   34.4240   47.0910 N   0  0  0  0  0  0  0  0  0  0  0  0
   58.8170   33.1000   47.0310 C   0  0  0  0  0  0  0  0  0  0  0  0
   58.1080   32.5920   45.9350 C   0  0  0  0  0  0  0  0  0  0  0  0
   57.5690   33.7450   44.4990 Br  0  0  0  0  0  0  0  0  0  0  0  0
   57.7770   31.2330   45.9030 C   0  0  0  0  0  0  0  0  0  0  0  0
   57.0300   30.7300   44.8290 O   0  0  0  0  0  0  0  0  0  0  0  0
   57.4570   29.6510   43.9990 C   0  0  0  0  0  0  0  0  0  0  0  0
   58.0707   30.0474   43.1767 H   0  0  0  0  0  0  0  0  0  0  0  0
   56.5708   29.1384   43.5966 H   0  0  0  0  0  0  0  0  0  0  0  0
   58.2710   28.6660   44.7950 C   0  0  0  0  0  0  0  0  0  0  0  0
   59.6690   28.7620   44.8210 C   0  0  0  0  0  0  0  0  0  0  0  0
   60.1705   29.5579   44.2510 H   0  0  0  0  0  0  0  0  0  0  0  0
   60.4310   27.8590   45.5620 C   0  0  0  0  0  0  0  0  0  0  0  0
   61.5267   27.9532   45.5869 H   0  0  0  0  0  0  0  0  0  0  0  0
   59.8020   26.8370   46.2710 C   0  0  0  0  0  0  0  0  0  0  0  0
   60.4051   26.1132   46.8388 H   0  0  0  0  0  0  0  0  0  0  0  0
   58.4030   26.7270   46.2640 C   0  0  0  0  0  0  0  0  0  0  0  0
   57.7490   25.5490   46.9320 C   0  0  0  0  0  0  0  0  0  0  0  0
   56.9525   25.9035   47.6028 H   0  0  0  0  0  0  0  0  0  0  0  0
   58.4995   24.9947   47.5147 H   0  0  0  0  0  0  0  0  0  0  0  0
   57.1690   24.6610   45.9060 N   0  0  0  0  0  0  0  0  0  0  0  0
   57.9160   24.7500   44.6320 C   0  0  0  0  0  0  0  0  0  0  0  0
   58.8052   24.1060   44.6995 H   0  0  0  0  0  0  0  0  0  0  0  0
   58.1887   25.8047   44.4793 H   0  0  0  0  0  0  0  0  0  0  0  0
   57.0770   24.3060   43.4200 C   0  0  0  0  0  0  0  0  0  0  0  0
   57.7475   23.8662   42.6670 H   0  0  0  0  0  0  0  0  0  0  0  0
   56.5584   25.1921   43.0253 H   0  0  0  0  0  0  0  0  0  0  0  0
   56.0520   23.3060   43.7870 N   0  0  0  0  0  0  0  0  0  0  0  0
   56.6650   22.0130   44.1450 C   0  0  0  0  0  0  0  0  0  0  0  0
   56.7096   21.9190   45.2401 H   0  0  0  0  0  0  0  0  0  0  0  0
   56.0597   21.1931   43.7310 H   0  0  0  0  0  0  0  0  0  0  0  0
   57.6829   21.9626   43.7310 H   0  0  0  0  0  0  0  0  0  0  0  0
   55.1260   23.7990   44.8380 C   0  0  0  0  0  0  0  0  0  0  0  0
   54.8567   22.9550   45.4900 H   0  0  0  0  0  0  0  0  0  0  0  0
   54.2495   24.2239   44.3269 H   0  0  0  0  0  0  0  0  0  0  0  0
   55.7330   24.9170   45.7100 C   0  0  0  0  0  0  0  0  0  0  0  0
   55.2272   24.9357   46.6866 H   0  0  0  0  0  0  0  0  0  0  0  0
   55.5984   25.8869   45.2088 H   0  0  0  0  0  0  0  0  0  0  0  0
   57.6410   27.6540   45.5310 C   0  0  0  0  0  0  0  0  0  0  0  0
   56.5432   27.5841   45.5355 H   0  0  0  0  0  0  0  0  0  0  0  0
   58.1690   30.4190   46.9220 N   0  0  0  0  0  0  0  0  0  0  0  0
   58.8620   30.8720   48.0050 C   0  0  0  0  0  0  0  0  0  0  0  0
   59.1560   30.0670   48.9880 N   0  0  0  0  0  0  0  0  0  0  0  0
   60.4360   29.4740   49.2310 C   0  0  0  0  0  0  0  0  0  0  0  0
   60.7160   28.3400   48.7460 O   0  0  0  0  0  0  0  0  0  0  0  0
   61.4140   30.2260   49.9600 N   0  0  0  0  0  0  0  0  0  0  0  0
   62.3320   31.2150   49.4640 C   0  0  0  0  0  0  0  0  0  0  0  0
   62.5920   31.3780   48.0860 C   0  0  0  0  0  0  0  0  0  0  0  0
   62.0510   30.7633   47.3515 H   0  0  0  0  0  0  0  0  0  0  0  0
   63.5320   32.3150   47.6490 C   0  0  0  0  0  0  0  0  0  0  0  0
   63.7216   32.4414   46.5729 H   0  0  0  0  0  0  0  0  0  0  0  0
   64.2300   33.0900   48.5740 C   0  0  0  0  0  0  0  0  0  0  0  0
   64.9614   33.8349   48.2273 H   0  0  0  0  0  0  0  0  0  0  0  0
   64.0000   32.9200   49.9420 C   0  0  0  0  0  0  0  0  0  0  0  0
   64.5675   33.5194   50.6690 H   0  0  0  0  0  0  0  0  0  0  0  0
   63.0470   31.9870   50.3980 C   0  0  0  0  0  0  0  0  0  0  0  0
   62.7380   31.8270   51.7600 O   0  0  0  0  0  0  0  0  0  0  0  0
   62.0900   32.7870   52.5930 C   0  0  0  0  0  0  0  0  0  0  0  0
   62.3482   32.5895   53.6439 H   0  0  0  0  0  0  0  0  0  0  0  0
   62.4252   33.7950   52.3072 H   0  0  0  0  0  0  0  0  0  0  0  0
   60.6000   32.6990   52.4230 C   0  0  0  0  0  0  0  0  0  0  0  0
   59.8310   33.8760   52.4510 C   0  0  0  0  0  0  0  0  0  0  0  0
   60.3263   34.8530   52.5517 H   0  0  0  0  0  0  0  0  0  0  0  0
   58.4370   33.8070   52.3510 C   0  0  0  0  0  0  0  0  0  0  0  0
   57.8391   34.7299   52.3786 H   0  0  0  0  0  0  0  0  0  0  0  0
   57.8010   32.5680   52.2160 C   0  0  0  0  0  0  0  0  0  0  0  0
   56.7041   32.5177   52.1499 H   0  0  0  0  0  0  0  0  0  0  0  0
   58.5590   31.3930   52.1650 C   0  0  0  0  0  0  0  0  0  0  0  0
   58.0597   30.4208   52.0404 H   0  0  0  0  0  0  0  0  0  0  0  0
   59.9570   31.4560   52.2730 C   0  0  0  0  0  0  0  0  0  0  0  0
   60.5518   30.5313   52.2403 H   0  0  0  0  0  0  0  0  0  0  0  0
   59.1990   32.2390   48.0850 C   0  0  0  0  0  0  0  0  0  0  0  0
   59.8990   32.7840   49.1780 C   0  0  0  0  0  0  0  0  0  0  0  0
   60.2080   32.1372   50.0123 H   0  0  0  0  0  0  0  0  0  0  0  0
   60.2000   34.1460   49.2010 C   0  0  0  0  0  0  0  0  0  0  0  0
   60.7508   34.5765   50.0503 H   0  0  0  0  0  0  0  0  0  0  0  0
  1  2  1  0
  2  3  2  0
  3  4  1  0
  4  5  1  0
  5  6  1  0
  5  7  2  0
  7  8  1  0
  8  9  1  0
  9 10  1  0
  9 11  1  0
  9 12  1  0
 12 13  2  0
 13 14  1  0
 13 15  1  0
 15 16  1  0
 15 17  2  0
 17 18  1  0
 17 19  1  0
 19 20  1  0
 20 21  1  0
 20 22  1  0
 20 23  1  0
 23 24  1  0
 24 25  1  0
 24 26  1  0
 24 27  1  0
 27 28  1  0
 27 29  1  0
 27 30  1  0
 30 31  1  0
 31 32  1  0
 31 33  1  0
 31 34  1  0
 30 35  1  0
 35 36  1  0
 35 37  1  0
 35 38  1  0
 38 39  1  0
 38 40  1  0
 19 41  2  0
 41 42  1  0
  7 43  1  0
 43 44  1  0
 44 45  2  0
 45 46  1  0
 46 47  2  0
 46 48  1  0
 48 49  1  0
 49 50  2  0
 50 51  1  0
 50 52  1  0
 52 53  1  0
 52 54  2  0
 54 55  1  0
 54 56  1  0
 56 57  1  0
 56 58  2  0
 58 59  1  0
 59 60  1  0
 60 61  1  0
 60 62  1  0
 60 63  1  0
 63 64  2  0
 64 65  1  0
 64 66  1  0
 66 67  1  0
 66 68  2  0
 68 69  1  0
 68 70  1  0
 70 71  1  0
 70 72  2  0
 72 73  1  0
 44 74  1  0
 74 75  1  0
 75 76  1  0
 75 77  2  0
 77 78  1  0
 77  2  1  0
 74  4  2  0
 41 12  1  0
 58 49  1  0
 72 63  1  0
 38 23  1  0
M  CHG  2  43  -1  48  -1
M  END
>  <UniqueID>  (76) 
71

>  <SMILES>  (76) 
CN1CCN(Cc2cccc(COc3[n-]/c(=N\C(=O)[N-]c4ccccc4OCc4ccccc4)c4cccnc4c3Br)c2)CC1

>  <Energy>  (76) 
110.30823592618405

>  <Genealogy>  (76) 
CN1CCN(Cc2cccc(COc3[n-]c(=NC(=O)[N-]c4ccccc4OCc4ccccc4)c4cccnc4c3Br)c2)CC1 (protonated)
CN1CCN(Cc2cccc(COc3[n-]/c(=N\C(=O)[N-]c4ccccc4OCc4ccccc4)c4cccnc4c3Br)c2)CC1 (cis-trans isomerization)
CN1CCN(Cc2cccc(COc3[n-]/c(=N\C(=O)[N-]c4ccccc4OCc4ccccc4)c4cccnc4c3Br)c2)CC1 (3D coordinates assigned)
CN1CCN(Cc2cccc(COc3[n-]/c(=N\C(=O)[N-]c4ccccc4OCc4ccccc4)c4cccnc4c3Br)c2)CC1 (nonaromatic ring conformer: 110.30823592618405 kcal/mol)

>  <smiles>  (76) 
CN1CCN(Cc2cccc(COc3[nH]c(=NC(=O)Nc4ccccc4OCc4ccccc4)c4cccnc4c3Br)c2)CC1

>  <score_type>  (76) 
oracle

>  <origin>  (76) 
adg

>  <m_score__min__energy>  (76) 
-12.42

>  <m_primary>  (76) 
energy

$$$$
76:0
     RDKit          3D

 69 72  0  0  0  0  0  0  0  0999 V2000
   58.1500   32.4520   42.3560 O   0  0  0  0  0  0  0  0  0  0  0  0
   57.7590   32.0990   43.5020 C   0  0  0  0  0  0  0  0  0  0  0  0
   58.1160   30.7410   44.0280 C   0  0  0  0  0  0  0  0  0  0  0  0
   56.9970   29.7250   43.7900 C   0  0  0  0  0  0  0  0  0  0  0  0
   57.5530   28.3850   43.5830 N   0  0  0  0  0  0  0  0  0  0  0  0
   57.7470   27.5860   45.1150 S   0  0  0  0  0  0  0  0  0  0  0  0
   58.2920   26.2010   44.8990 O   0  0  0  0  0  0  0  0  0  0  0  0
   56.4080   27.4690   45.7850 O   0  0  0  0  0  0  0  0  0  0  0  0
   58.8340   28.5080   46.1530 C   0  0  0  0  0  0  0  0  0  0  0  0
   60.0350   29.0250   45.6430 C   0  0  0  0  0  0  0  0  0  0  0  0
   60.8780   29.7810   46.4630 C   0  0  0  0  0  0  0  0  0  0  0  0
   60.5240   30.0250   47.7930 C   0  0  0  0  0  0  0  0  0  0  0  0
   59.3270   29.5160   48.3040 C   0  0  0  0  0  0  0  0  0  0  0  0
   58.4810   28.7610   47.4860 C   0  0  0  0  0  0  0  0  0  0  0  0
   57.0180   32.9730   44.3060 O   0  0  0  0  0  0  0  0  0  0  0  0
   57.5250   34.2160   44.7890 C   0  0  0  0  0  0  0  0  0  0  0  0
   58.3060   34.0140   46.0600 C   0  0  0  0  0  0  0  0  0  0  0  0
   57.8720   33.0750   47.0080 C   0  0  0  0  0  0  0  0  0  0  0  0
   58.6020   32.8660   48.1810 C   0  0  0  0  0  0  0  0  0  0  0  0
   59.7720   33.6020   48.4310 C   0  0  0  0  0  0  0  0  0  0  0  0
   60.5630   33.3730   49.6630 C   0  0  0  0  0  0  0  0  0  0  0  0
   59.9630   33.2450   50.7640 O   0  0  0  0  0  0  0  0  0  0  0  0
   62.0010   33.2940   49.6340 N   0  0  0  0  0  0  0  0  0  0  0  0
   62.7660   33.8260   50.7700 C   0  0  0  0  0  0  0  0  0  0  0  0
   64.2730   33.8020   50.4860 C   0  0  0  0  0  0  0  0  0  0  0  0
   64.7740   32.3990   50.0540 C   0  0  0  0  0  0  0  0  0  0  0  0
   65.2070   31.5690   51.2850 C   0  0  0  0  0  0  0  0  0  0  0  0
   64.1650   30.5510   51.6790 C   0  0  0  0  0  0  0  0  0  0  0  0
   64.4710   29.1790   51.6730 C   0  0  0  0  0  0  0  0  0  0  0  0
   63.5070   28.2410   52.0530 C   0  0  0  0  0  0  0  0  0  0  0  0
   62.2330   28.6640   52.4450 C   0  0  0  0  0  0  0  0  0  0  0  0
   61.9230   30.0270   52.4580 C   0  0  0  0  0  0  0  0  0  0  0  0
   62.8850   30.9690   52.0790 C   0  0  0  0  0  0  0  0  0  0  0  0
   63.7370   31.6310   49.1840 C   0  0  0  0  0  0  0  0  0  0  0  0
   62.6910   32.5600   48.5650 C   0  0  0  0  0  0  0  0  0  0  0  0
   60.2090   34.5340   47.4760 C   0  0  0  0  0  0  0  0  0  0  0  0
   59.4810   34.7410   46.3010 C   0  0  0  0  0  0  0  0  0  0  0  0
   59.0275   30.3915   43.5210 H   0  0  0  0  0  0  0  0  0  0  0  0
   58.2740   30.8263   45.1132 H   0  0  0  0  0  0  0  0  0  0  0  0
   56.3310   29.7089   44.6653 H   0  0  0  0  0  0  0  0  0  0  0  0
   56.4360   30.0192   42.8907 H   0  0  0  0  0  0  0  0  0  0  0  0
   56.8610   27.8250   43.0340 H   0  0  0  0  0  0  0  0  0  0  0  0
   60.3136   28.8350   44.5960 H   0  0  0  0  0  0  0  0  0  0  0  0
   61.8196   30.1837   46.0616 H   0  0  0  0  0  0  0  0  0  0  0  0
   61.1884   30.6184   48.4383 H   0  0  0  0  0  0  0  0  0  0  0  0
   59.0501   29.7095   49.3508 H   0  0  0  0  0  0  0  0  0  0  0  0
   57.5372   28.3650   47.8889 H   0  0  0  0  0  0  0  0  0  0  0  0
   58.1836   34.6580   44.0268 H   0  0  0  0  0  0  0  0  0  0  0  0
   56.6782   34.8866   44.9969 H   0  0  0  0  0  0  0  0  0  0  0  0
   56.9519   32.5001   46.8268 H   0  0  0  0  0  0  0  0  0  0  0  0
   58.2583   32.1205   48.9132 H   0  0  0  0  0  0  0  0  0  0  0  0
   62.4532   34.8636   50.9584 H   0  0  0  0  0  0  0  0  0  0  0  0
   62.5678   33.1946   51.6487 H   0  0  0  0  0  0  0  0  0  0  0  0
   64.4915   34.5181   49.6801 H   0  0  0  0  0  0  0  0  0  0  0  0
   64.7929   34.0702   51.4175 H   0  0  0  0  0  0  0  0  0  0  0  0
   65.6549   32.5550   49.4139 H   0  0  0  0  0  0  0  0  0  0  0  0
   66.1437   31.0437   51.0468 H   0  0  0  0  0  0  0  0  0  0  0  0
   65.3407   32.2608   52.1297 H   0  0  0  0  0  0  0  0  0  0  0  0
   65.4729   28.8424   51.3681 H   0  0  0  0  0  0  0  0  0  0  0  0
   63.7508   27.1684   52.0437 H   0  0  0  0  0  0  0  0  0  0  0  0
   61.4752   27.9245   52.7430 H   0  0  0  0  0  0  0  0  0  0  0  0
   60.9209   30.3593   52.7668 H   0  0  0  0  0  0  0  0  0  0  0  0
   62.6383   32.0409   52.0942 H   0  0  0  0  0  0  0  0  0  0  0  0
   64.2709   31.1116   48.3746 H   0  0  0  0  0  0  0  0  0  0  0  0
   63.2094   30.9224   49.8394 H   0  0  0  0  0  0  0  0  0  0  0  0
   63.1865   33.2733   47.8900 H   0  0  0  0  0  0  0  0  0  0  0  0
   61.9613   31.9659   47.9953 H   0  0  0  0  0  0  0  0  0  0  0  0
   61.1317   35.1058   47.6540 H   0  0  0  0  0  0  0  0  0  0  0  0
   59.8310   35.4771   45.5623 H   0  0  0  0  0  0  0  0  0  0  0  0
  1  2  2  0
  2  3  1  0
  3  4  1  0
  4  5  1  0
  5  6  1  0
  6  7  2  0
  6  8  2  0
  6  9  1  0
  9 10  2  0
 10 11  1  0
 11 12  2  0
 12 13  1  0
 13 14  2  0
  2 15  1  0
 15 16  1  0
 16 17  1  0
 17 18  2  0
 18 19  1  0
 19 20  2  0
 20 21  1  0
 21 22  2  0
 21 23  1  0
 23 24  1  0
 24 25  1  0
 25 26  1  0
 26 27  1  0
 27 28  1  0
 28 29  2  0
 29 30  1  0
 30 31  2  0
 31 32  1  0
 32 33  2  0
 26 34  1  0
 34 35  1  0
 20 36  1  0
 36 37  2  0
 14  9  1  0
 37 17  1  0
 35 23  1  0
 33 28  1  0
  3 38  1  0
  3 39  1  0
  4 40  1  0
  4 41  1  0
  5 42  1  0
 10 43  1  0
 11 44  1  0
 12 45  1  0
 13 46  1  0
 14 47  1  0
 16 48  1  0
 16 49  1  0
 18 50  1  0
 19 51  1  0
 24 52  1  0
 24 53  1  0
 25 54  1  0
 25 55  1  0
 26 56  1  0
 27 57  1  0
 27 58  1  0
 29 59  1  0
 30 60  1  0
 31 61  1  0
 32 62  1  0
 33 63  1  0
 34 64  1  0
 34 65  1  0
 35 66  1  0
 35 67  1  0
 36 68  1  0
 37 69  1  0
M  END
>  <UniqueID>  (77) 
72

>  <SMILES>  (77) 
O=C(CCNS(=O)(=O)c1ccccc1)OCc1ccc(C(=O)N2CCC(Cc3ccccc3)CC2)cc1

>  <Energy>  (77) 
70.10749652420955

>  <Genealogy>  (77) 
O=C(CCNS(=O)(=O)c1ccccc1)OCc1ccc(C(=O)N2CCC(Cc3ccccc3)CC2)cc1 (3D coordinates assigned)
O=C(CCNS(=O)(=O)c1ccccc1)OCc1ccc(C(=O)N2CCC(Cc3ccccc3)CC2)cc1 (nonaromatic ring conformer: 70.10749652420955 kcal/mol)

>  <smiles>  (77) 
O=C(CCNS(=O)(=O)c1ccccc1)OCc1ccc(C(=O)N2CCC(Cc3ccccc3)CC2)cc1

>  <score_type>  (77) 
oracle

>  <origin>  (77) 
adg

>  <m_score__min__energy>  (77) 
-10.720000000000001

>  <m_primary>  (77) 
energy

$$$$
77:0
     RDKit          3D

 40 42  0  0  0  0  0  0  0  0999 V2000
   58.0800   27.2980   47.3840 N   0  0  0  0  0  0  0  0  0  0  0  0
   57.6870   26.5670   46.3850 C   0  0  0  0  0  0  0  0  0  0  0  0
   57.9190   25.1490   46.4340 N   0  0  0  0  0  0  0  0  0  0  0  0
   57.6350   24.2910   45.4990 C   0  0  0  0  0  0  0  0  0  0  0  0
   56.5630   24.4670   44.6770 N   0  0  0  0  0  0  0  0  0  0  0  0
   56.2540   23.5550   43.7200 C   0  0  0  0  0  0  0  0  0  0  0  0
   57.0340   22.4100   43.5750 C   0  0  0  0  0  0  0  0  0  0  0  0
   58.1200   22.2340   44.4310 C   0  0  0  0  0  0  0  0  0  0  0  0
   58.3970   23.1710   45.3750 N   0  0  0  0  0  0  0  0  0  0  0  0
   57.0670   27.1660   45.2280 N   0  0  0  0  0  0  0  0  0  0  0  0
   57.2690   28.5280   44.8130 C   0  0  0  0  0  0  0  0  0  0  0  0
   56.1880   29.3510   44.4550 C   0  0  0  0  0  0  0  0  0  0  0  0
   56.4040   30.6830   44.0920 C   0  0  0  0  0  0  0  0  0  0  0  0
   57.7030   31.2190   44.0910 C   0  0  0  0  0  0  0  0  0  0  0  0
   57.9220   32.6020   43.7470 N   0  0  0  0  0  0  0  0  0  0  0  0
   58.3110   33.3370   44.9240 C   0  0  0  0  0  0  0  0  0  0  0  0
   57.7720   33.0060   46.1820 C   0  0  0  0  0  0  0  0  0  0  0  0
   58.1750   33.7000   47.3270 C   0  0  0  0  0  0  0  0  0  0  0  0
   59.1200   34.7250   47.2300 C   0  0  0  0  0  0  0  0  0  0  0  0
   59.6680   35.0560   45.9870 C   0  0  0  0  0  0  0  0  0  0  0  0
   59.2680   34.3640   44.8390 C   0  0  0  0  0  0  0  0  0  0  0  0
   58.7790   30.4030   44.4820 C   0  0  0  0  0  0  0  0  0  0  0  0
   58.5610   29.0720   44.8450 C   0  0  0  0  0  0  0  0  0  0  0  0
   59.0970   27.4870   47.5310 H   0  0  0  0  0  0  0  0  0  0  0  0
   57.4100   27.6730   48.0900 H   0  0  0  0  0  0  0  0  0  0  0  0
   55.3893   23.7199   43.0603 H   0  0  0  0  0  0  0  0  0  0  0  0
   56.7985   21.6624   42.8032 H   0  0  0  0  0  0  0  0  0  0  0  0
   58.7517   21.3379   44.3423 H   0  0  0  0  0  0  0  0  0  0  0  0
   56.4810   26.5730   44.6020 H   0  0  0  0  0  0  0  0  0  0  0  0
   55.1659   28.9445   44.4605 H   0  0  0  0  0  0  0  0  0  0  0  0
   55.5515   31.3162   43.8051 H   0  0  0  0  0  0  0  0  0  0  0  0
   57.0500   33.0130   43.3380 H   0  0  0  0  0  0  0  0  0  0  0  0
   58.6640   32.6770   43.0130 H   0  0  0  0  0  0  0  0  0  0  0  0
   57.0305   32.1977   46.2644 H   0  0  0  0  0  0  0  0  0  0  0  0
   57.7473   33.4386   48.3062 H   0  0  0  0  0  0  0  0  0  0  0  0
   59.4328   35.2716   48.1319 H   0  0  0  0  0  0  0  0  0  0  0  0
   60.4140   35.8609   45.9118 H   0  0  0  0  0  0  0  0  0  0  0  0
   59.7047   34.6248   43.8637 H   0  0  0  0  0  0  0  0  0  0  0  0
   59.7986   30.8152   44.5022 H   0  0  0  0  0  0  0  0  0  0  0  0
   59.4093   28.4458   45.1584 H   0  0  0  0  0  0  0  0  0  0  0  0
  1  2  2  0
  2  3  1  0
  3  4  2  3
  4  5  1  0
  5  6  2  0
  6  7  1  0
  7  8  2  0
  8  9  1  0
  2 10  1  0
 10 11  1  0
 11 12  2  0
 12 13  1  0
 13 14  2  0
 14 15  1  0
 15 16  1  0
 16 17  2  0
 17 18  1  0
 18 19  2  0
 19 20  1  0
 20 21  2  0
 14 22  1  0
 22 23  2  0
  9  4  1  0
 23 11  1  0
 21 16  1  0
  1 24  1  0
  1 25  1  0
  6 26  1  0
  7 27  1  0
  8 28  1  0
 10 29  1  0
 12 30  1  0
 13 31  1  0
 15 32  1  0
 15 33  1  0
 17 34  1  0
 18 35  1  0
 19 36  1  0
 20 37  1  0
 21 38  1  0
 22 39  1  0
 23 40  1  0
M  CHG  3   1   1   9  -1  15   1
M  END
>  <UniqueID>  (78) 
73

>  <SMILES>  (78) 
[NH2+]=C(N=c1nccc[n-]1)Nc1ccc([NH2+]c2ccccc2)cc1

>  <Energy>  (78) 
56.32059734936099

>  <Genealogy>  (78) 
[NH2+]=C(N=c1nccc[n-]1)Nc1ccc([NH2+]c2ccccc2)cc1 (protonated)
[NH2+]=C(N=c1nccc[n-]1)Nc1ccc([NH2+]c2ccccc2)cc1 (3D coordinates assigned)
[NH2+]=C(N=c1nccc[n-]1)Nc1ccc([NH2+]c2ccccc2)cc1 (optimized conformer: 56.32059734936099 kcal/mol)

>  <smiles>  (78) 
N=C(N=c1nccc[nH]1)Nc1ccc(Nc2ccccc2)cc1

>  <score_type>  (78) 
oracle

>  <origin>  (78) 
adg

>  <m_score__min__energy>  (78) 
-6.8300000000000001

>  <m_primary>  (78) 
energy

$$$$
78:0
     RDKit          3D

 57 60  0  0  0  0  0  0  0  0999 V2000
   54.7670   27.0880   44.9790 H   0  0  0  0  0  0  0  0  0  0  0  0
   54.8040   26.3200   45.6380 O   0  0  0  0  0  0  0  0  0  0  0  0
   55.8080   25.3530   45.6010 C   0  0  0  0  0  0  0  0  0  0  0  0
   55.5490   24.1270   44.9810 C   0  0  0  0  0  0  0  0  0  0  0  0
   54.5626   23.9354   44.5335 H   0  0  0  0  0  0  0  0  0  0  0  0
   56.5390   23.1470   44.9290 C   0  0  0  0  0  0  0  0  0  0  0  0
   56.3383   22.1790   44.4466 H   0  0  0  0  0  0  0  0  0  0  0  0
   57.7860   23.4070   45.4950 C   0  0  0  0  0  0  0  0  0  0  0  0
   58.5781   22.6448   45.4544 H   0  0  0  0  0  0  0  0  0  0  0  0
   58.0230   24.6000   46.0960 N   0  0  0  0  0  0  0  0  0  0  0  0
   57.0740   25.5740   46.1790 C   0  0  0  0  0  0  0  0  0  0  0  0
   57.3330   26.7100   46.7600 N   0  0  0  0  0  0  0  0  0  0  0  0
   57.4120   27.9950   46.1200 C   0  0  0  0  0  0  0  0  0  0  0  0
   56.4690   28.3510   45.3660 O   0  0  0  0  0  0  0  0  0  0  0  0
   58.5370   28.9300   46.3600 C   0  0  0  0  0  0  0  0  0  0  0  0
   59.5440   28.5990   47.2810 C   0  0  0  0  0  0  0  0  0  0  0  0
   59.5139   27.6298   47.8003 H   0  0  0  0  0  0  0  0  0  0  0  0
   60.5850   29.4960   47.5410 C   0  0  0  0  0  0  0  0  0  0  0  0
   61.3600   29.2368   48.2773 H   0  0  0  0  0  0  0  0  0  0  0  0
   60.6450   30.7210   46.8690 C   0  0  0  0  0  0  0  0  0  0  0  0
   61.9000   31.8820   47.2830 S   0  0  0  0  0  0  0  0  0  0  0  0
   63.2520   31.2430   47.1350 O   0  0  0  0  0  0  0  0  0  0  0  0
   61.8380   33.0710   46.3670 O   0  0  0  0  0  0  0  0  0  0  0  0
   61.6510   32.4010   48.9210 N   0  0  0  0  0  0  0  0  0  0  0  0
   60.4900   31.9240   49.6130 C   0  0  0  0  0  0  0  0  0  0  0  0
   60.5610   30.7360   50.3530 C   0  0  0  0  0  0  0  0  0  0  0  0
   61.5052   30.1733   50.3966 H   0  0  0  0  0  0  0  0  0  0  0  0
   59.4380   30.2640   51.0350 C   0  0  0  0  0  0  0  0  0  0  0  0
   59.4983   29.3315   51.6153 H   0  0  0  0  0  0  0  0  0  0  0  0
   58.2370   30.9770   50.9800 C   0  0  0  0  0  0  0  0  0  0  0  0
   57.3519   30.6031   51.5156 H   0  0  0  0  0  0  0  0  0  0  0  0
   58.1580   32.1640   50.2460 C   0  0  0  0  0  0  0  0  0  0  0  0
   57.2114   32.7230   50.2079 H   0  0  0  0  0  0  0  0  0  0  0  0
   59.2850   32.6460   49.5560 C   0  0  0  0  0  0  0  0  0  0  0  0
   59.2480   33.8630   48.8600 O   0  0  0  0  0  0  0  0  0  0  0  0
   58.9010   34.0130   47.5070 C   0  0  0  0  0  0  0  0  0  0  0  0
   57.7520   33.3660   47.0330 C   0  0  0  0  0  0  0  0  0  0  0  0
   57.1582   32.7385   47.7138 H   0  0  0  0  0  0  0  0  0  0  0  0
   57.3550   33.5130   45.6990 C   0  0  0  0  0  0  0  0  0  0  0  0
   56.4567   32.9945   45.3326 H   0  0  0  0  0  0  0  0  0  0  0  0
   58.0990   34.3180   44.8320 C   0  0  0  0  0  0  0  0  0  0  0  0
   57.7879   34.4314   43.7830 H   0  0  0  0  0  0  0  0  0  0  0  0
   59.2390   34.9790   45.2990 C   0  0  0  0  0  0  0  0  0  0  0  0
   59.8220   35.6163   44.6178 H   0  0  0  0  0  0  0  0  0  0  0  0
   59.6400   34.8310   46.6330 C   0  0  0  0  0  0  0  0  0  0  0  0
   60.5351   35.3558   46.9981 H   0  0  0  0  0  0  0  0  0  0  0  0
   62.7250   33.0710   49.6590 C   0  0  0  0  0  0  0  0  0  0  0  0
   63.6946   32.6613   49.3395 H   0  0  0  0  0  0  0  0  0  0  0  0
   62.5786   32.8999   50.7357 H   0  0  0  0  0  0  0  0  0  0  0  0
   62.7000   34.5700   49.3890 C   0  0  0  0  0  0  0  0  0  0  0  0
   62.6909   35.1146   50.3447 H   0  0  0  0  0  0  0  0  0  0  0  0
   63.5935   34.8539   48.8137 H   0  0  0  0  0  0  0  0  0  0  0  0
   61.7975   34.8239   48.8137 H   0  0  0  0  0  0  0  0  0  0  0  0
   59.6600   31.0410   45.9270 C   0  0  0  0  0  0  0  0  0  0  0  0
   59.7068   31.9999   45.3900 H   0  0  0  0  0  0  0  0  0  0  0  0
   58.6180   30.1480   45.6660 C   0  0  0  0  0  0  0  0  0  0  0  0
   57.8570   30.4003   44.9129 H   0  0  0  0  0  0  0  0  0  0  0  0
  1  2  1  0
  2  3  1  0
  3  4  2  0
  4  5  1  0
  4  6  1  0
  6  7  1  0
  6  8  2  0
  8  9  1  0
  8 10  1  0
 10 11  1  0
 11 12  2  0
 12 13  1  0
 13 14  2  0
 13 15  1  0
 15 16  2  0
 16 17  1  0
 16 18  1  0
 18 19  1  0
 18 20  2  0
 20 21  1  0
 21 22  2  0
 21 23  2  0
 21 24  1  0
 24 25  1  0
 25 26  2  0
 26 27  1  0
 26 28  1  0
 28 29  1  0
 28 30  2  0
 30 31  1  0
 30 32  1  0
 32 33  1  0
 32 34  2  0
 34 35  1  0
 35 36  1  0
 36 37  2  0
 37 38  1  0
 37 39  1  0
 39 40  1  0
 39 41  2  0
 41 42  1  0
 41 43  1  0
 43 44  1  0
 43 45  2  0
 45 46  1  0
 24 47  1  0
 47 48  1  0
 47 49  1  0
 47 50  1  0
 50 51  1  0
 50 52  1  0
 50 53  1  0
 20 54  1  0
 54 55  1  0
 54 56  2  0
 56 57  1  0
 11  3  1  0
 56 15  1  0
 34 25  1  0
 45 36  1  0
M  CHG  1  10  -1
M  END
>  <UniqueID>  (79) 
74

>  <SMILES>  (79) 
CCN(c1ccccc1Oc1ccccc1)S(=O)(=O)c1ccc(C(=O)/N=c2\[n-]cccc2O)cc1

>  <Energy>  (79) 
75.38747948131214

>  <Genealogy>  (79) 
CCN(c1ccccc1Oc1ccccc1)S(=O)(=O)c1ccc(C(=O)N=c2[n-]cccc2O)cc1 (protonated)
CCN(c1ccccc1Oc1ccccc1)S(=O)(=O)c1ccc(C(=O)/N=c2\[n-]cccc2O)cc1 (cis-trans isomerization)
CCN(c1ccccc1Oc1ccccc1)S(=O)(=O)c1ccc(C(=O)/N=c2\[n-]cccc2O)cc1 (3D coordinates assigned)
CCN(c1ccccc1Oc1ccccc1)S(=O)(=O)c1ccc(C(=O)/N=c2\[n-]cccc2O)cc1 (optimized conformer: 75.38747948131214 kcal/mol)

>  <smiles>  (79) 
CCN(c1ccccc1Oc1ccccc1)S(=O)(=O)c1ccc(C(=O)N=c2[nH]cccc2O)cc1

>  <score_type>  (79) 
oracle

>  <origin>  (79) 
adg

>  <m_score__min__energy>  (79) 
-12.140000000000001

>  <m_primary>  (79) 
energy

$$$$
79:0
     RDKit          3D

 54 57  0  0  0  0  0  0  0  0999 V2000
   56.8780   31.1430   45.0310 O   0  0  0  0  0  0  0  0  0  0  0  0
   57.4300   30.0700   45.3930 C   0  0  0  0  0  0  0  0  0  0  0  0
   56.6670   28.8570   45.4690 N   0  0  0  0  0  0  0  0  0  0  0  0
   57.0620   27.6650   45.8230 C   0  0  0  0  0  0  0  0  0  0  0  0
   58.4030   27.4300   45.8590 N   0  0  0  0  0  0  0  0  0  0  0  0
   58.9280   26.2280   46.2100 C   0  0  0  0  0  0  0  0  0  0  0  0
   58.0860   25.1710   46.5470 C   0  0  0  0  0  0  0  0  0  0  0  0
   56.7060   25.3590   46.4980 C   0  0  0  0  0  0  0  0  0  0  0  0
   56.1770   26.5960   46.1210 C   0  0  0  0  0  0  0  0  0  0  0  0
   54.7970   26.7150   46.0080 O   0  0  0  0  0  0  0  0  0  0  0  0
   58.7740   30.1120   45.8810 N   0  0  0  0  0  0  0  0  0  0  0  0
   59.1790   30.5400   47.1910 C   0  0  0  0  0  0  0  0  0  0  0  0
   59.6640   29.6250   48.1410 C   0  0  0  0  0  0  0  0  0  0  0  0
   60.0760   30.0620   49.4070 C   0  0  0  0  0  0  0  0  0  0  0  0
   60.6940   28.9020   50.5870 S   0  0  0  0  0  0  0  0  0  0  0  0
   60.3630   27.5080   50.1310 O   0  0  0  0  0  0  0  0  0  0  0  0
   62.1910   29.0230   50.6620 O   0  0  0  0  0  0  0  0  0  0  0  0
   60.0080   29.1670   52.1740 N   0  0  0  0  0  0  0  0  0  0  0  0
   58.5460   29.3370   52.0830 C   0  0  0  0  0  0  0  0  0  0  0  0
   57.8810   29.0600   53.4410 C   0  0  0  0  0  0  0  0  0  0  0  0
   58.1040   27.7450   53.9390 O   0  0  0  0  0  0  0  0  0  0  0  0
   59.2640   27.1200   53.4090 C   0  0  0  0  0  0  0  0  0  0  0  0
   60.4110   28.1080   53.1260 C   0  0  0  0  0  0  0  0  0  0  0  0
   60.0050   31.4240   49.7250 C   0  0  0  0  0  0  0  0  0  0  0  0
   59.5510   32.3430   48.7760 C   0  0  0  0  0  0  0  0  0  0  0  0
   59.1480   31.9100   47.5090 C   0  0  0  0  0  0  0  0  0  0  0  0
   58.6920   32.8750   46.5510 N   0  0  0  0  0  0  0  0  0  0  0  0
   59.6700   33.5480   45.6970 C   0  0  0  0  0  0  0  0  0  0  0  0
   58.9780   34.0580   44.4290 C   0  0  0  0  0  0  0  0  0  0  0  0
   57.8340   34.8260   44.7550 O   0  0  0  0  0  0  0  0  0  0  0  0
   56.8660   34.0020   45.3770 C   0  0  0  0  0  0  0  0  0  0  0  0
   57.3750   33.4880   46.7270 C   0  0  0  0  0  0  0  0  0  0  0  0
   60.0190   26.0889   46.2282 H   0  0  0  0  0  0  0  0  0  0  0  0
   58.5051   24.1996   46.8482 H   0  0  0  0  0  0  0  0  0  0  0  0
   56.0306   24.5303   46.7571 H   0  0  0  0  0  0  0  0  0  0  0  0
   59.7207   28.5559   47.8884 H   0  0  0  0  0  0  0  0  0  0  0  0
   58.3210   30.3686   51.7745 H   0  0  0  0  0  0  0  0  0  0  0  0
   58.1523   28.6232   51.3444 H   0  0  0  0  0  0  0  0  0  0  0  0
   58.2778   29.7787   54.1731 H   0  0  0  0  0  0  0  0  0  0  0  0
   56.7962   29.1628   53.2903 H   0  0  0  0  0  0  0  0  0  0  0  0
   59.6186   26.3708   54.1322 H   0  0  0  0  0  0  0  0  0  0  0  0
   58.9800   26.6657   52.4483 H   0  0  0  0  0  0  0  0  0  0  0  0
   60.7161   28.5785   54.0723 H   0  0  0  0  0  0  0  0  0  0  0  0
   61.2416   27.5445   52.6759 H   0  0  0  0  0  0  0  0  0  0  0  0
   60.3074   31.7708   50.7241 H   0  0  0  0  0  0  0  0  0  0  0  0
   59.5103   33.4132   49.0268 H   0  0  0  0  0  0  0  0  0  0  0  0
   60.1090   34.3970   46.2415 H   0  0  0  0  0  0  0  0  0  0  0  0
   60.4639   32.8386   45.4205 H   0  0  0  0  0  0  0  0  0  0  0  0
   59.6821   34.6833   43.8605 H   0  0  0  0  0  0  0  0  0  0  0  0
   58.6623   33.1930   43.8273 H   0  0  0  0  0  0  0  0  0  0  0  0
   55.9461   34.5837   45.5363 H   0  0  0  0  0  0  0  0  0  0  0  0
   56.6658   33.1395   44.7244 H   0  0  0  0  0  0  0  0  0  0  0  0
   57.4529   34.3277   47.4332 H   0  0  0  0  0  0  0  0  0  0  0  0
   56.6725   32.7398   47.1227 H   0  0  0  0  0  0  0  0  0  0  0  0
  1  2  2  0
  2  3  1  0
  3  4  2  3
  4  5  1  0
  5  6  1  0
  6  7  2  0
  7  8  1  0
  8  9  2  0
  9 10  1  0
  2 11  1  0
 11 12  1  0
 12 13  2  0
 13 14  1  0
 14 15  1  0
 15 16  2  0
 15 17  2  0
 15 18  1  0
 18 19  1  0
 19 20  1  0
 20 21  1  0
 21 22  1  0
 22 23  1  0
 14 24  2  0
 24 25  1  0
 25 26  2  0
 26 27  1  0
 27 28  1  0
 28 29  1  0
 29 30  1  0
 30 31  1  0
 31 32  1  0
  9  4  1  0
 26 12  1  0
 32 27  1  0
 23 18  1  0
  6 33  1  0
  7 34  1  0
  8 35  1  0
 13 36  1  0
 19 37  1  0
 19 38  1  0
 20 39  1  0
 20 40  1  0
 22 41  1  0
 22 42  1  0
 23 43  1  0
 23 44  1  0
 24 45  1  0
 25 46  1  0
 28 47  1  0
 28 48  1  0
 29 49  1  0
 29 50  1  0
 31 51  1  0
 31 52  1  0
 32 53  1  0
 32 54  1  0
M  CHG  3   5  -1  10  -1  11  -1
M  END
>  <UniqueID>  (80) 
75

>  <SMILES>  (80) 
O=C(N=c1[n-]cccc1[O-])[N-]c1cc(S(=O)(=O)N2CCOCC2)ccc1N1CCOCC1

>  <Energy>  (80) 
89.59982674897626

>  <Genealogy>  (80) 
O=C(N=c1[n-]cccc1[O-])[N-]c1cc(S(=O)(=O)N2CCOCC2)ccc1N1CCOCC1 (protonated)
O=C(N=c1[n-]cccc1[O-])[N-]c1cc(S(=O)(=O)N2CCOCC2)ccc1N1CCOCC1 (3D coordinates assigned)
O=C(N=c1[n-]cccc1[O-])[N-]c1cc(S(=O)(=O)N2CCOCC2)ccc1N1CCOCC1 (nonaromatic ring conformer: 89.59982674897626 kcal/mol)

>  <smiles>  (80) 
O=C(N=c1[nH]cccc1O)Nc1cc(S(=O)(=O)N2CCOCC2)ccc1N1CCOCC1

>  <score_type>  (80) 
oracle

>  <origin>  (80) 
adg

>  <m_score__min__energy>  (80) 
-14.27

>  <m_primary>  (80) 
energy

$$$$
80:0
     RDKit          3D

 41 43  0  0  0  0  0  0  0  0999 V2000
   57.4300   33.4680   46.7600 C   0  0  0  0  0  0  0  0  0  0  0  0
   58.1260   33.0880   47.9430 O   0  0  0  0  0  0  0  0  0  0  0  0
   59.5130   33.2210   48.1290 C   0  0  0  0  0  0  0  0  0  0  0  0
   60.3520   33.7210   47.1130 C   0  0  0  0  0  0  0  0  0  0  0  0
   61.7290   33.8270   47.3200 C   0  0  0  0  0  0  0  0  0  0  0  0
   62.2860   33.4410   48.5390 C   0  0  0  0  0  0  0  0  0  0  0  0
   61.4660   32.9510   49.5580 C   0  0  0  0  0  0  0  0  0  0  0  0
   60.0800   32.8280   49.3620 C   0  0  0  0  0  0  0  0  0  0  0  0
   59.2280   32.3080   50.4580 C   0  0  0  0  0  0  0  0  0  0  0  0
   58.5210   33.1120   51.1200 O   0  0  0  0  0  0  0  0  0  0  0  0
   59.2200   30.9190   50.8320 N   0  0  0  0  0  0  0  0  0  0  0  0
   58.4440   30.3740   51.7220 C   0  0  0  0  0  0  0  0  0  0  0  0
   57.1000   30.2960   51.6130 N   0  0  0  0  0  0  0  0  0  0  0  0
   56.5410   29.6930   52.6950 C   0  0  0  0  0  0  0  0  0  0  0  0
   55.0880   29.4660   52.7900 C   0  0  0  0  0  0  0  0  0  0  0  0
   54.5330   28.6470   52.0090 O   0  0  0  0  0  0  0  0  0  0  0  0
   54.3040   30.1760   53.7630 N   0  0  0  0  0  0  0  0  0  0  0  0
   52.8490   30.0740   53.8180 C   0  0  0  0  0  0  0  0  0  0  0  0
   52.2350   30.7430   52.6140 C   0  0  0  0  0  0  0  0  0  0  0  0
   52.3860   30.1790   51.3380 C   0  0  0  0  0  0  0  0  0  0  0  0
   51.8420   30.8160   50.2210 C   0  0  0  0  0  0  0  0  0  0  0  0
   51.1520   32.0180   50.3880 C   0  0  0  0  0  0  0  0  0  0  0  0
   50.6050   32.6660   49.2890 O   0  0  0  0  0  0  0  0  0  0  0  0
   51.0170   32.5590   51.6280 N   0  0  0  0  0  0  0  0  0  0  0  0
   51.5360   31.9600   52.7330 C   0  0  0  0  0  0  0  0  0  0  0  0
   51.3850   32.5060   53.8590 O   0  0  0  0  0  0  0  0  0  0  0  0
   57.4480   29.3010   53.6800 C   0  0  0  0  0  0  0  0  0  0  0  0
   58.9950   29.7250   53.1670 S   0  0  0  0  0  0  0  0  0  0  0  0
   56.4947   33.9786   47.0329 H   0  0  0  0  0  0  0  0  0  0  0  0
   58.0593   34.1477   46.1667 H   0  0  0  0  0  0  0  0  0  0  0  0
   57.1985   32.5711   46.1667 H   0  0  0  0  0  0  0  0  0  0  0  0
   59.9191   34.0300   46.1501 H   0  0  0  0  0  0  0  0  0  0  0  0
   62.3759   34.2158   46.5198 H   0  0  0  0  0  0  0  0  0  0  0  0
   63.3714   33.5225   48.6980 H   0  0  0  0  0  0  0  0  0  0  0  0
   61.9088   32.6590   50.5217 H   0  0  0  0  0  0  0  0  0  0  0  0
   54.7780   30.8030   54.4510 H   0  0  0  0  0  0  0  0  0  0  0  0
   52.5592   29.0129   53.8315 H   0  0  0  0  0  0  0  0  0  0  0  0
   52.4880   30.5731   54.7294 H   0  0  0  0  0  0  0  0  0  0  0  0
   52.9342   29.2330   51.2175 H   0  0  0  0  0  0  0  0  0  0  0  0
   51.9559   30.3752   49.2196 H   0  0  0  0  0  0  0  0  0  0  0  0
   57.1963   28.8017   54.6273 H   0  0  0  0  0  0  0  0  0  0  0  0
  1  2  1  0
  2  3  1  0
  3  4  2  0
  4  5  1  0
  5  6  2  0
  6  7  1  0
  7  8  2  0
  8  9  1  0
  9 10  2  0
  9 11  1  0
 11 12  2  3
 12 13  1  0
 13 14  1  0
 14 15  1  0
 15 16  2  0
 15 17  1  0
 17 18  1  0
 18 19  1  0
 19 20  2  0
 20 21  1  0
 21 22  2  0
 22 23  1  0
 22 24  1  0
 24 25  1  0
 25 26  2  0
 14 27  2  0
 27 28  1  0
  8  3  1  0
 28 12  1  0
 25 19  1  0
  1 29  1  0
  1 30  1  0
  1 31  1  0
  4 32  1  0
  5 33  1  0
  6 34  1  0
  7 35  1  0
 17 36  1  0
 18 37  1  0
 18 38  1  0
 20 39  1  0
 21 40  1  0
 27 41  1  0
M  CHG  3  13  -1  23  -1  24  -1
M  END
>  <UniqueID>  (81) 
76

>  <SMILES>  (81) 
COc1ccccc1C(=O)N=c1[n-]c(C(=O)NCc2ccc([O-])[n-]c2=O)cs1

>  <Energy>  (81) 
77.97141069133225

>  <Genealogy>  (81) 
COc1ccccc1C(=O)N=c1[n-]c(C(=O)NCc2ccc([O-])[n-]c2=O)cs1 (protonated)
COc1ccccc1C(=O)N=c1[n-]c(C(=O)NCc2ccc([O-])[n-]c2=O)cs1 (3D coordinates assigned)
COc1ccccc1C(=O)N=c1[n-]c(C(=O)NCc2ccc([O-])[n-]c2=O)cs1 (optimized conformer: 77.97141069133225 kcal/mol)

>  <smiles>  (81) 
COc1ccccc1C(=O)N=c1[nH]c(C(=O)NCc2ccc(O)[nH]c2=O)cs1

>  <score_type>  (81) 
oracle

>  <origin>  (81) 
adg

>  <m_score__min__energy>  (81) 
-15.630000000000001

>  <m_primary>  (81) 
energy

$$$$
81:0
     RDKit          3D

 54 56  0  0  0  0  0  0  0  0999 V2000
   64.4740   32.2070   49.6710 C   0  0  0  0  0  0  0  0  0  0  0  0
   64.3570   33.3490   48.6690 C   0  0  0  0  0  0  0  0  0  0  0  0
   63.2830   34.2180   49.0170 O   0  0  0  0  0  0  0  0  0  0  0  0
   62.0480   33.7660   49.5000 C   0  0  0  0  0  0  0  0  0  0  0  0
   61.7560   33.9020   50.7220 O   0  0  0  0  0  0  0  0  0  0  0  0
   61.1100   33.1560   48.5970 N   0  0  0  0  0  0  0  0  0  0  0  0
   59.8640   32.5600   49.1070 C   0  0  0  0  0  0  0  0  0  0  0  0
   59.4180   31.3940   48.2140 C   0  0  0  0  0  0  0  0  0  0  0  0
   59.2720   31.7870   46.7200 C   0  0  0  0  0  0  0  0  0  0  0  0
   57.8460   31.9620   46.3810 N   0  0  0  0  0  0  0  0  0  0  0  0
   57.4200   31.0550   44.9560 S   0  0  0  0  0  0  0  0  0  0  0  0
   56.0430   31.4400   44.4940 O   0  0  0  0  0  0  0  0  0  0  0  0
   58.3950   31.3770   43.8580 O   0  0  0  0  0  0  0  0  0  0  0  0
   57.5170   29.3230   45.3080 C   0  0  0  0  0  0  0  0  0  0  0  0
   58.7550   28.7870   45.6840 C   0  0  0  0  0  0  0  0  0  0  0  0
   58.8780   27.4370   46.0300 C   0  0  0  0  0  0  0  0  0  0  0  0
   60.4790   26.8210   46.4150 Cl  0  0  0  0  0  0  0  0  0  0  0  0
   57.7390   26.6040   46.0090 C   0  0  0  0  0  0  0  0  0  0  0  0
   57.7910   25.2520   46.3720 O   0  0  0  0  0  0  0  0  0  0  0  0
   56.6940   24.3770   46.3920 C   0  0  0  0  0  0  0  0  0  0  0  0
   56.1660   24.0210   47.6360 C   0  0  0  0  0  0  0  0  0  0  0  0
   55.0660   23.1630   47.7230 C   0  0  0  0  0  0  0  0  0  0  0  0
   54.4830   22.6310   46.5610 C   0  0  0  0  0  0  0  0  0  0  0  0
   53.3520   21.7440   46.6480 N   0  0  0  0  0  0  0  0  0  0  0  0
   52.5000   21.7080   45.7360 O   0  0  0  0  0  0  0  0  0  0  0  0
   53.1720   20.9420   47.7520 O   0  0  0  0  0  0  0  0  0  0  0  0
   55.0280   22.9680   45.3110 C   0  0  0  0  0  0  0  0  0  0  0  0
   56.1310   23.8270   45.2170 C   0  0  0  0  0  0  0  0  0  0  0  0
   56.8210   24.1100   43.6220 Cl  0  0  0  0  0  0  0  0  0  0  0  0
   56.5110   27.1310   45.5930 C   0  0  0  0  0  0  0  0  0  0  0  0
   56.3900   28.4820   45.2590 C   0  0  0  0  0  0  0  0  0  0  0  0
   55.1420   28.9730   44.8900 O   0  0  0  0  0  0  0  0  0  0  0  0
   60.0710   33.0640   46.3610 C   0  0  0  0  0  0  0  0  0  0  0  0
   61.3790   33.1660   47.1510 C   0  0  0  0  0  0  0  0  0  0  0  0
   64.4326   32.6106   50.6934 H   0  0  0  0  0  0  0  0  0  0  0  0
   63.6434   31.5015   49.5215 H   0  0  0  0  0  0  0  0  0  0  0  0
   65.4304   31.6845   49.5215 H   0  0  0  0  0  0  0  0  0  0  0  0
   65.2965   33.9211   48.6626 H   0  0  0  0  0  0  0  0  0  0  0  0
   64.1602   32.9259   47.6729 H   0  0  0  0  0  0  0  0  0  0  0  0
   60.0325   32.1890   50.1287 H   0  0  0  0  0  0  0  0  0  0  0  0
   59.0770   33.3285   49.1063 H   0  0  0  0  0  0  0  0  0  0  0  0
   60.1637   30.5891   48.2922 H   0  0  0  0  0  0  0  0  0  0  0  0
   58.4258   31.0749   48.5657 H   0  0  0  0  0  0  0  0  0  0  0  0
   59.6957   30.9658   46.1233 H   0  0  0  0  0  0  0  0  0  0  0  0
   57.6530   32.9630   46.1450 H   0  0  0  0  0  0  0  0  0  0  0  0
   59.6427   29.4362   45.7076 H   0  0  0  0  0  0  0  0  0  0  0  0
   56.6202   24.4197   48.5551 H   0  0  0  0  0  0  0  0  0  0  0  0
   54.6537   22.9024   48.7090 H   0  0  0  0  0  0  0  0  0  0  0  0
   54.5834   22.5524   44.3947 H   0  0  0  0  0  0  0  0  0  0  0  0
   55.6312   26.4739   45.5283 H   0  0  0  0  0  0  0  0  0  0  0  0
   60.3061   33.0450   45.2866 H   0  0  0  0  0  0  0  0  0  0  0  0
   59.4508   33.9353   46.6184 H   0  0  0  0  0  0  0  0  0  0  0  0
   62.0230   32.3112   46.8967 H   0  0  0  0  0  0  0  0  0  0  0  0
   61.8800   34.1096   46.8890 H   0  0  0  0  0  0  0  0  0  0  0  0
  1  2  1  0
  2  3  1  0
  3  4  1  0
  4  5  2  0
  4  6  1  0
  6  7  1  0
  7  8  1  0
  8  9  1  0
  9 10  1  0
 10 11  1  0
 11 12  2  0
 11 13  2  0
 11 14  1  0
 14 15  2  0
 15 16  1  0
 16 17  1  0
 16 18  2  0
 18 19  1  0
 19 20  1  0
 20 21  2  0
 21 22  1  0
 22 23  2  0
 23 24  1  0
 24 25  2  0
 24 26  1  0
 23 27  1  0
 27 28  2  0
 28 29  1  0
 18 30  1  0
 30 31  2  0
 31 32  1  0
  9 33  1  0
 33 34  1  0
 34  6  1  0
 31 14  1  0
 28 20  1  0
  1 35  1  0
  1 36  1  0
  1 37  1  0
  2 38  1  0
  2 39  1  0
  7 40  1  0
  7 41  1  0
  8 42  1  0
  8 43  1  0
  9 44  1  0
 10 45  1  0
 15 46  1  0
 21 47  1  0
 22 48  1  0
 27 49  1  0
 30 50  1  0
 33 51  1  0
 33 52  1  0
 34 53  1  0
 34 54  1  0
M  CHG  3  24   1  26  -1  32  -1
M  END
>  <UniqueID>  (82) 
77

>  <SMILES>  (82) 
CCOC(=O)N1CCC(NS(=O)(=O)c2cc(Cl)c(Oc3ccc([N+](=O)[O-])cc3Cl)cc2[O-])CC1

>  <Energy>  (82) 
67.02988818090157

>  <Genealogy>  (82) 
CCOC(=O)N1CCC(NS(=O)(=O)c2cc(Cl)c(Oc3ccc([N+](=O)[O-])cc3Cl)cc2[O-])CC1 (protonated)
CCOC(=O)N1CCC(NS(=O)(=O)c2cc(Cl)c(Oc3ccc([N+](=O)[O-])cc3Cl)cc2[O-])CC1 (3D coordinates assigned)
CCOC(=O)N1CCC(NS(=O)(=O)c2cc(Cl)c(Oc3ccc([N+](=O)[O-])cc3Cl)cc2[O-])CC1 (nonaromatic ring conformer: 67.02988818090157 kcal/mol)

>  <smiles>  (82) 
CCOC(=O)N1CCC(NS(=O)(=O)c2cc(Cl)c(Oc3ccc([N+](=O)[O-])cc3Cl)cc2O)CC1

>  <score_type>  (82) 
oracle

>  <origin>  (82) 
adg

>  <m_score__min__energy>  (82) 
-12.57

>  <m_primary>  (82) 
energy

$$$$
82:0
     RDKit          3D

 54 57  0  0  0  0  0  0  0  0999 V2000
   57.2880   30.9760   43.4040 O   0  0  0  0  0  0  0  0  0  0  0  0
   57.1760   30.3840   44.5080 C   0  0  0  0  0  0  0  0  0  0  0  0
   56.3120   29.1620   44.6040 C   0  0  0  0  0  0  0  0  0  0  0  0
   56.9620   28.1530   45.4980 C   0  0  0  0  0  0  0  0  0  0  0  0
   58.2730   28.1450   45.7930 N   0  0  0  0  0  0  0  0  0  0  0  0
   58.4240   27.0340   46.5550 C   0  0  0  0  0  0  0  0  0  0  0  0
   59.7400   26.6220   47.1460 C   0  0  0  0  0  0  0  0  0  0  0  0
   60.0010   27.3600   48.4340 C   0  0  0  0  0  0  0  0  0  0  0  0
   59.4670   28.6440   48.6370 C   0  0  0  0  0  0  0  0  0  0  0  0
   59.7230   29.3350   49.8260 C   0  0  0  0  0  0  0  0  0  0  0  0
   60.5130   28.7540   50.8220 C   0  0  0  0  0  0  0  0  0  0  0  0
   61.0630   27.4840   50.6190 C   0  0  0  0  0  0  0  0  0  0  0  0
   60.8090   26.7900   49.4310 C   0  0  0  0  0  0  0  0  0  0  0  0
   57.2780   26.3450   46.7600 N   0  0  0  0  0  0  0  0  0  0  0  0
   56.3680   27.0590   46.0780 C   0  0  0  0  0  0  0  0  0  0  0  0
   55.0250   26.7160   45.9880 O   0  0  0  0  0  0  0  0  0  0  0  0
   57.8960   30.8490   45.6620 N   0  0  0  0  0  0  0  0  0  0  0  0
   58.4700   32.1630   45.7710 C   0  0  0  0  0  0  0  0  0  0  0  0
   57.7090   33.2990   45.4460 C   0  0  0  0  0  0  0  0  0  0  0  0
   58.2480   34.5770   45.5940 C   0  0  0  0  0  0  0  0  0  0  0  0
   59.5360   34.7420   46.1010 C   0  0  0  0  0  0  0  0  0  0  0  0
   60.2940   33.6270   46.4830 C   0  0  0  0  0  0  0  0  0  0  0  0
   61.6160   33.8240   47.1040 C   0  0  0  0  0  0  0  0  0  0  0  0
   62.6510   33.5180   46.4600 O   0  0  0  0  0  0  0  0  0  0  0  0
   61.7590   34.3450   48.4290 N   0  0  0  0  0  0  0  0  0  0  0  0
   61.8630   33.3890   49.8740 S   0  0  0  0  0  0  0  0  0  0  0  0
   62.4960   32.0650   49.5430 O   0  0  0  0  0  0  0  0  0  0  0  0
   62.7260   34.1030   50.8770 O   0  0  0  0  0  0  0  0  0  0  0  0
   60.2590   33.0890   50.5420 C   0  0  0  0  0  0  0  0  0  0  0  0
   59.2600   32.4780   49.7670 C   0  0  0  0  0  0  0  0  0  0  0  0
   58.0200   32.1740   50.3350 C   0  0  0  0  0  0  0  0  0  0  0  0
   57.7640   32.4980   51.6730 C   0  0  0  0  0  0  0  0  0  0  0  0
   58.7510   33.1230   52.4440 C   0  0  0  0  0  0  0  0  0  0  0  0
   59.9930   33.4280   51.8790 C   0  0  0  0  0  0  0  0  0  0  0  0
   59.7710   32.3300   46.2950 C   0  0  0  0  0  0  0  0  0  0  0  0
   60.7290   30.9160   46.7460 Cl  0  0  0  0  0  0  0  0  0  0  0  0
   55.3313   29.4393   45.0180 H   0  0  0  0  0  0  0  0  0  0  0  0
   56.1809   28.7291   43.6013 H   0  0  0  0  0  0  0  0  0  0  0  0
   59.7228   25.5406   47.3468 H   0  0  0  0  0  0  0  0  0  0  0  0
   60.5399   26.8652   46.4312 H   0  0  0  0  0  0  0  0  0  0  0  0
   58.8449   29.1078   47.8573 H   0  0  0  0  0  0  0  0  0  0  0  0
   59.3010   30.3394   49.9777 H   0  0  0  0  0  0  0  0  0  0  0  0
   60.7015   29.2934   51.7619 H   0  0  0  0  0  0  0  0  0  0  0  0
   61.6966   27.0299   51.3951 H   0  0  0  0  0  0  0  0  0  0  0  0
   61.2449   25.7918   49.2771 H   0  0  0  0  0  0  0  0  0  0  0  0
   58.0050   30.1830   46.4600 H   0  0  0  0  0  0  0  0  0  0  0  0
   56.6813   33.1795   45.0724 H   0  0  0  0  0  0  0  0  0  0  0  0
   57.6543   35.4582   45.3095 H   0  0  0  0  0  0  0  0  0  0  0  0
   59.9594   35.7523   46.2017 H   0  0  0  0  0  0  0  0  0  0  0  0
   59.4539   32.2383   48.7111 H   0  0  0  0  0  0  0  0  0  0  0  0
   57.2448   31.6800   49.7309 H   0  0  0  0  0  0  0  0  0  0  0  0
   56.7865   32.2612   52.1185 H   0  0  0  0  0  0  0  0  0  0  0  0
   58.5493   33.3745   53.4957 H   0  0  0  0  0  0  0  0  0  0  0  0
   60.7620   33.9335   52.4816 H   0  0  0  0  0  0  0  0  0  0  0  0
  1  2  2  0
  2  3  1  0
  3  4  1  0
  4  5  1  0
  5  6  2  0
  6  7  1  0
  7  8  1  0
  8  9  2  0
  9 10  1  0
 10 11  2  0
 11 12  1  0
 12 13  2  0
  6 14  1  0
 14 15  1  0
 15 16  1  0
  2 17  1  0
 17 18  1  0
 18 19  2  0
 19 20  1  0
 20 21  2  0
 21 22  1  0
 22 23  1  0
 23 24  2  0
 23 25  1  0
 25 26  1  0
 26 27  2  0
 26 28  2  0
 26 29  1  0
 29 30  2  0
 30 31  1  0
 31 32  2  0
 32 33  1  0
 33 34  2  0
 22 35  2  0
 35 36  1  0
 15  4  2  0
 35 18  1  0
 13  8  1  0
 34 29  1  0
  3 37  1  0
  3 38  1  0
  7 39  1  0
  7 40  1  0
  9 41  1  0
 10 42  1  0
 11 43  1  0
 12 44  1  0
 13 45  1  0
 17 46  1  0
 19 47  1  0
 20 48  1  0
 21 49  1  0
 30 50  1  0
 31 51  1  0
 32 52  1  0
 33 53  1  0
 34 54  1  0
M  CHG  3  14  -1  16  -1  25  -1
M  END
>  <UniqueID>  (83) 
78

>  <SMILES>  (83) 
O=C(Cc1nc(Cc2ccccc2)[n-]c1[O-])Nc1cccc(C(=O)[N-]S(=O)(=O)c2ccccc2)c1Cl

>  <Energy>  (83) 
90.5997216872354

>  <Genealogy>  (83) 
O=C(Cc1nc(Cc2ccccc2)[n-]c1[O-])Nc1cccc(C(=O)[N-]S(=O)(=O)c2ccccc2)c1Cl (protonated)
O=C(Cc1nc(Cc2ccccc2)[n-]c1[O-])Nc1cccc(C(=O)[N-]S(=O)(=O)c2ccccc2)c1Cl (3D coordinates assigned)
O=C(Cc1nc(Cc2ccccc2)[n-]c1[O-])Nc1cccc(C(=O)[N-]S(=O)(=O)c2ccccc2)c1Cl (optimized conformer: 90.5997216872354 kcal/mol)

>  <smiles>  (83) 
O=C(Cc1nc(Cc2ccccc2)[nH]c1O)Nc1cccc(C(=O)NS(=O)(=O)c2ccccc2)c1Cl

>  <score_type>  (83) 
oracle

>  <origin>  (83) 
adg

>  <m_score__min__energy>  (83) 
-15.75

>  <m_primary>  (83) 
energy

$$$$
83:0
     RDKit          3D

 53 56  0  0  0  0  0  0  0  0999 V2000
   54.1120   29.8230   53.4540 O   0  0  0  0  0  0  0  0  0  0  0  0
   54.1920   30.5260   52.4090 C   0  0  0  0  0  0  0  0  0  0  0  0
   55.4820   30.8860   51.8880 N   0  0  0  0  0  0  0  0  0  0  0  0
   56.7070   30.2650   52.3170 C   0  0  0  0  0  0  0  0  0  0  0  0
   56.6660   29.0820   53.0760 C   0  0  0  0  0  0  0  0  0  0  0  0
   57.8440   28.4250   53.4330 C   0  0  0  0  0  0  0  0  0  0  0  0
   59.0780   28.9340   53.0300 C   0  0  0  0  0  0  0  0  0  0  0  0
   59.1380   30.1020   52.2690 C   0  0  0  0  0  0  0  0  0  0  0  0
   57.9600   30.7770   51.9000 C   0  0  0  0  0  0  0  0  0  0  0  0
   58.0640   32.0350   51.1240 C   0  0  0  0  0  0  0  0  0  0  0  0
   58.2480   33.1230   51.7300 O   0  0  0  0  0  0  0  0  0  0  0  0
   58.0500   32.0410   49.6900 N   0  0  0  0  0  0  0  0  0  0  0  0
   59.1020   31.5730   48.8340 C   0  0  0  0  0  0  0  0  0  0  0  0
   60.3780   32.1610   48.8430 C   0  0  0  0  0  0  0  0  0  0  0  0
   61.3810   31.6780   47.9980 C   0  0  0  0  0  0  0  0  0  0  0  0
   61.1240   30.5970   47.1520 C   0  0  0  0  0  0  0  0  0  0  0  0
   59.8640   29.9830   47.1590 C   0  0  0  0  0  0  0  0  0  0  0  0
   59.5170   28.6290   46.0880 S   0  0  0  0  0  0  0  0  0  0  0  0
   58.8360   27.5490   46.8810 O   0  0  0  0  0  0  0  0  0  0  0  0
   60.7960   28.0760   45.5210 O   0  0  0  0  0  0  0  0  0  0  0  0
   58.4700   29.1520   44.7910 N   0  0  0  0  0  0  0  0  0  0  0  0
   57.0680   28.8160   45.1070 C   0  0  0  0  0  0  0  0  0  0  0  0
   56.1020   29.6960   44.2950 C   0  0  0  0  0  0  0  0  0  0  0  0
   56.2460   31.0920   44.5330 O   0  0  0  0  0  0  0  0  0  0  0  0
   57.5210   31.4560   45.0440 C   0  0  0  0  0  0  0  0  0  0  0  0
   58.6660   30.5890   44.4930 C   0  0  0  0  0  0  0  0  0  0  0  0
   58.8600   30.4700   48.0050 C   0  0  0  0  0  0  0  0  0  0  0  0
   52.9600   31.0060   51.7490 C   0  0  0  0  0  0  0  0  0  0  0  0
   52.5700   30.5130   50.4940 C   0  0  0  0  0  0  0  0  0  0  0  0
   51.4030   31.0130   49.9150 C   0  0  0  0  0  0  0  0  0  0  0  0
   51.0290   30.5950   48.7880 O   0  0  0  0  0  0  0  0  0  0  0  0
   50.6690   31.9510   50.5660 N   0  0  0  0  0  0  0  0  0  0  0  0
   51.0560   32.4190   51.7800 C   0  0  0  0  0  0  0  0  0  0  0  0
   50.3620   33.2860   52.3710 O   0  0  0  0  0  0  0  0  0  0  0  0
   52.1900   31.9480   52.3590 N   0  0  0  0  0  0  0  0  0  0  0  0
   55.5420   31.6770   51.2090 H   0  0  0  0  0  0  0  0  0  0  0  0
   55.6958   28.6705   53.3914 H   0  0  0  0  0  0  0  0  0  0  0  0
   57.7992   27.5043   54.0332 H   0  0  0  0  0  0  0  0  0  0  0  0
   60.0054   28.4141   53.3124 H   0  0  0  0  0  0  0  0  0  0  0  0
   60.1148   30.4985   51.9548 H   0  0  0  0  0  0  0  0  0  0  0  0
   60.5883   33.0043   49.5173 H   0  0  0  0  0  0  0  0  0  0  0  0
   62.3745   32.1501   47.9993 H   0  0  0  0  0  0  0  0  0  0  0  0
   61.9116   30.2268   46.4791 H   0  0  0  0  0  0  0  0  0  0  0  0
   56.8860   27.7591   44.8624 H   0  0  0  0  0  0  0  0  0  0  0  0
   56.8941   28.9951   46.1783 H   0  0  0  0  0  0  0  0  0  0  0  0
   56.2797   29.5080   43.2259 H   0  0  0  0  0  0  0  0  0  0  0  0
   55.0842   29.4242   44.6115 H   0  0  0  0  0  0  0  0  0  0  0  0
   57.7177   32.5050   44.7776 H   0  0  0  0  0  0  0  0  0  0  0  0
   57.4916   31.3042   46.1331 H   0  0  0  0  0  0  0  0  0  0  0  0
   58.7176   30.7211   43.4022 H   0  0  0  0  0  0  0  0  0  0  0  0
   59.5988   30.9114   44.9788 H   0  0  0  0  0  0  0  0  0  0  0  0
   57.8739   29.9828   48.0187 H   0  0  0  0  0  0  0  0  0  0  0  0
   53.1710   29.7495   49.9784 H   0  0  0  0  0  0  0  0  0  0  0  0
  1  2  2  0
  2  3  1  0
  3  4  1  0
  4  5  2  0
  5  6  1  0
  6  7  2  0
  7  8  1  0
  8  9  2  0
  9 10  1  0
 10 11  2  0
 10 12  1  0
 12 13  1  0
 13 14  2  0
 14 15  1  0
 15 16  2  0
 16 17  1  0
 17 18  1  0
 18 19  2  0
 18 20  2  0
 18 21  1  0
 21 22  1  0
 22 23  1  0
 23 24  1  0
 24 25  1  0
 25 26  1  0
 17 27  2  0
  2 28  1  0
 28 29  2  0
 29 30  1  0
 30 31  2  0
 30 32  1  0
 32 33  1  0
 33 34  2  0
 33 35  1  0
  9  4  1  0
 27 13  1  0
 35 28  1  0
 26 21  1  0
  3 36  1  0
  5 37  1  0
  6 38  1  0
  7 39  1  0
  8 40  1  0
 14 41  1  0
 15 42  1  0
 16 43  1  0
 22 44  1  0
 22 45  1  0
 23 46  1  0
 23 47  1  0
 25 48  1  0
 25 49  1  0
 26 50  1  0
 26 51  1  0
 27 52  1  0
 29 53  1  0
M  CHG  3  12  -1  32  -1  35  -1
M  END
>  <UniqueID>  (84) 
79

>  <SMILES>  (84) 
O=C(Nc1ccccc1C(=O)[N-]c1cccc(S(=O)(=O)N2CCOCC2)c1)c1cc(=O)[n-]c(=O)[n-]1

>  <Energy>  (84) 
82.64660211763727

>  <Genealogy>  (84) 
O=C(Nc1ccccc1C(=O)[N-]c1cccc(S(=O)(=O)N2CCOCC2)c1)c1cc(=O)[n-]c(=O)[n-]1 (protonated)
O=C(Nc1ccccc1C(=O)[N-]c1cccc(S(=O)(=O)N2CCOCC2)c1)c1cc(=O)[n-]c(=O)[n-]1 (3D coordinates assigned)
O=C(Nc1ccccc1C(=O)[N-]c1cccc(S(=O)(=O)N2CCOCC2)c1)c1cc(=O)[n-]c(=O)[n-]1 (nonaromatic ring conformer: 82.64660211763727 kcal/mol)

>  <smiles>  (84) 
O=C(Nc1ccccc1C(=O)Nc1cccc(S(=O)(=O)N2CCOCC2)c1)c1cc(=O)[nH]c(=O)[nH]1

>  <score_type>  (84) 
oracle

>  <origin>  (84) 
adg

>  <m_score__min__energy>  (84) 
-16.379999999999999

>  <m_primary>  (84) 
energy

$$$$
84:0
     RDKit          3D

 44 47  0  0  1  0  0  0  0  0999 V2000
   55.6240   30.8490   44.5050 O   0  0  0  0  0  0  0  0  0  0  0  0
   56.8100   30.7210   44.0620 C   0  0  0  0  0  0  0  0  0  0  0  0
   57.5180   31.9420   43.6160 C   0  0  0  0  0  0  0  0  0  0  0  0
   58.0210   32.7450   44.7550 C   0  0  0  0  0  0  0  0  0  0  0  0
   58.8080   33.8660   44.5280 C   0  0  0  0  0  0  0  0  0  0  0  0
   59.2530   34.5820   45.6170 C   0  0  0  0  0  0  0  0  0  0  0  0
   58.9550   34.2420   46.9230 C   0  0  0  0  0  0  0  0  0  0  0  0
   59.4060   34.9650   48.0140 O   0  0  0  0  0  0  0  0  0  0  0  0
   58.1660   33.1180   47.1440 C   0  0  0  0  0  0  0  0  0  0  0  0
   57.7270   32.4080   46.0430 C   0  0  0  0  0  0  0  0  0  0  0  0
   59.9580   29.0520   47.9770 N   0  0  0  0  0  0  0  0  0  0  0  0
   60.6080   30.1330   47.7570 C   0  0  0  0  0  0  0  0  0  0  0  0
   58.6770   29.2350   45.9420 N   0  0  0  0  0  0  0  0  0  0  0  0
   59.0450   28.5040   47.0290 C   0  0  0  0  0  0  0  0  0  0  0  0
   57.4780   29.4840   43.9780 N   0  0  0  0  0  0  0  0  0  0  0  0
   57.8310   28.7970   45.0110 C   0  0  0  0  0  0  0  0  0  0  0  0
   61.5220   30.7240   48.5940 C   0  0  0  0  0  0  0  0  0  0  0  0
   61.9670   31.8620   47.9520 C   0  0  0  0  0  0  0  0  0  0  0  0
   62.9780   32.7760   48.5550 C   0  0  0  0  0  0  0  0  0  0  0  0
   62.7070   34.1930   48.7960 C   0  0  0  0  0  0  0  0  0  0  0  0
   63.5030   33.8240   47.5600 C   0  0  0  0  0  0  0  0  0  0  0  0
   61.3480   31.9550   46.7750 N   0  0  0  0  0  0  0  0  0  0  0  0
   60.5390   30.9130   46.6750 N   0  0  0  0  0  0  0  0  0  0  0  0
   58.5210   27.2320   47.1930 C   0  0  0  0  0  0  0  0  0  0  0  0
   57.6370   26.7710   46.2240 C   0  0  0  0  0  0  0  0  0  0  0  0
   57.3140   27.5530   45.1670 N   0  0  0  0  0  0  0  0  0  0  0  0
   58.3706   31.6471   42.9866 H   0  0  0  0  0  0  0  0  0  0  0  0
   56.8023   32.5618   43.0559 H   0  0  0  0  0  0  0  0  0  0  0  0
   59.0693   34.1743   43.5049 H   0  0  0  0  0  0  0  0  0  0  0  0
   59.8774   35.4698   45.4382 H   0  0  0  0  0  0  0  0  0  0  0  0
   58.9200   35.7800   48.3200 H   0  0  0  0  0  0  0  0  0  0  0  0
   57.8997   32.8040   48.1640 H   0  0  0  0  0  0  0  0  0  0  0  0
   57.1035   31.5184   46.2158 H   0  0  0  0  0  0  0  0  0  0  0  0
   61.8380   30.3613   49.5832 H   0  0  0  0  0  0  0  0  0  0  0  0
   63.3711   31.9952   49.2227 H   0  0  0  0  0  0  0  0  0  0  0  0
   61.6818   34.5768   48.6883 H   0  0  0  0  0  0  0  0  0  0  0  0
   62.8813   34.8719   49.6438 H   0  0  0  0  0  0  0  0  0  0  0  0
   63.0546   33.9169   46.5598 H   0  0  0  0  0  0  0  0  0  0  0  0
   64.4808   34.0954   47.1354 H   0  0  0  0  0  0  0  0  0  0  0  0
   61.4870   32.7220   46.0690 H   0  0  0  0  0  0  0  0  0  0  0  0
   59.9380   30.7510   45.8470 H   0  0  0  0  0  0  0  0  0  0  0  0
   58.7943   26.6098   48.0580 H   0  0  0  0  0  0  0  0  0  0  0  0
   57.1981   25.7666   46.3165 H   0  0  0  0  0  0  0  0  0  0  0  0
   56.6420   27.1340   44.4800 H   0  0  0  0  0  0  0  0  0  0  0  0
  1  2  2  0
  2  3  1  0
  3  4  1  0
  4  5  2  0
  5  6  1  0
  6  7  2  0
  7  8  1  0
  7  9  1  0
  9 10  2  0
  2 11  1  0
 11 12  2  0
 12 13  1  0
 13 14  2  0
 14 15  1  0
 15 16  2  0
 16 17  1  0
 17 18  2  0
 18 19  1  0
 19 20  1  0
 20 21  1  0
 18 22  1  0
 22 23  1  0
 14 24  1  0
 24 25  2  0
 25 26  1  0
 10  4  1  0
 26 12  1  0
 23 16  1  0
 21 19  1  0
  3 27  1  0
  3 28  1  0
  5 29  1  0
  6 30  1  0
  8 31  1  0
  9 32  1  0
 10 33  1  0
 17 34  1  0
 19 35  1  0
 20 36  1  0
 20 37  1  0
 21 38  1  0
 21 39  1  0
 22 40  1  0
 23 41  1  0
 24 42  1  0
 25 43  1  0
 26 44  1  0
M  END
>  <smiles>  (85) 
O=C(Cc1ccc(O)cc1)N=c1nc(N=c2cc(C3CC3)[nH][nH]2)cc[nH]1

>  <score_type>  (85) 
oracle

>  <origin>  (85) 
adg

>  <m_score__min__energy>  (85) 
-9.4100000000000001

>  <m_primary>  (85) 
energy

$$$$
85:0
     RDKit          3D

 47 49  0  0  0  0  0  0  0  0999 V2000
   55.2590   25.1650   46.3280 N   0  0  0  0  0  0  0  0  0  0  0  0
   56.3390   25.5780   46.3440 C   0  0  0  0  0  0  0  0  0  0  0  0
   57.6840   26.0930   46.3640 C   0  0  0  0  0  0  0  0  0  0  0  0
   58.7700   25.2100   46.3580 C   0  0  0  0  0  0  0  0  0  0  0  0
   60.0750   25.7080   46.3710 C   0  0  0  0  0  0  0  0  0  0  0  0
   60.3000   27.0880   46.3930 C   0  0  0  0  0  0  0  0  0  0  0  0
   59.2190   27.9880   46.4090 C   0  0  0  0  0  0  0  0  0  0  0  0
   59.4470   29.4530   46.4210 C   0  0  0  0  0  0  0  0  0  0  0  0
   60.5940   29.9020   46.6940 O   0  0  0  0  0  0  0  0  0  0  0  0
   58.3880   30.3670   46.0970 N   0  0  0  0  0  0  0  0  0  0  0  0
   58.4320   31.7640   46.4350 C   0  0  0  0  0  0  0  0  0  0  0  0
   59.2800   32.1840   47.4700 C   0  0  0  0  0  0  0  0  0  0  0  0
   59.3570   33.5370   47.8290 C   0  0  0  0  0  0  0  0  0  0  0  0
   60.2910   33.9810   48.9220 C   0  0  0  0  0  0  0  0  0  0  0  0
   61.7200   33.8050   48.4880 C   0  0  0  0  0  0  0  0  0  0  0  0
   62.0560   33.8200   47.1270 C   0  0  0  0  0  0  0  0  0  0  0  0
   63.3840   33.6180   46.7430 C   0  0  0  0  0  0  0  0  0  0  0  0
   64.3400   33.3990   47.6850 N   0  0  0  0  0  0  0  0  0  0  0  0
   64.0410   33.3690   49.0100 C   0  0  0  0  0  0  0  0  0  0  0  0
   62.7250   33.5660   49.4380 C   0  0  0  0  0  0  0  0  0  0  0  0
   58.6080   34.4810   47.1140 C   0  0  0  0  0  0  0  0  0  0  0  0
   57.7800   34.0760   46.0660 C   0  0  0  0  0  0  0  0  0  0  0  0
   57.6730   32.7170   45.7220 C   0  0  0  0  0  0  0  0  0  0  0  0
   56.8990   32.2980   44.5880 N   0  0  0  0  0  0  0  0  0  0  0  0
   57.3930   31.6450   43.4120 C   0  0  0  0  0  0  0  0  0  0  0  0
   58.4410   32.0490   42.8400 O   0  0  0  0  0  0  0  0  0  0  0  0
   56.6400   30.4850   42.8470 C   0  0  0  0  0  0  0  0  0  0  0  0
   56.5320   29.4320   43.8480 N   0  0  0  0  0  0  0  0  0  0  0  0
   57.3960   28.5330   43.9030 O   0  0  0  0  0  0  0  0  0  0  0  0
   55.6150   29.5490   44.8660 O   0  0  0  0  0  0  0  0  0  0  0  0
   57.9070   27.4760   46.3860 C   0  0  0  0  0  0  0  0  0  0  0  0
   58.5958   24.1240   46.3431 H   0  0  0  0  0  0  0  0  0  0  0  0
   60.9276   25.0130   46.3639 H   0  0  0  0  0  0  0  0  0  0  0  0
   61.3305   27.4728   46.3978 H   0  0  0  0  0  0  0  0  0  0  0  0
   57.6460   30.0490   45.4330 H   0  0  0  0  0  0  0  0  0  0  0  0
   59.8916   31.4435   48.0062 H   0  0  0  0  0  0  0  0  0  0  0  0
   60.1079   35.0419   49.1476 H   0  0  0  0  0  0  0  0  0  0  0  0
   60.1105   33.3696   49.8184 H   0  0  0  0  0  0  0  0  0  0  0  0
   61.2794   33.9896   46.3667 H   0  0  0  0  0  0  0  0  0  0  0  0
   63.6566   33.6361   45.6775 H   0  0  0  0  0  0  0  0  0  0  0  0
   64.8367   33.1892   49.7479 H   0  0  0  0  0  0  0  0  0  0  0  0
   62.4793   33.5340   50.5097 H   0  0  0  0  0  0  0  0  0  0  0  0
   58.6729   35.5464   47.3799 H   0  0  0  0  0  0  0  0  0  0  0  0
   57.2057   34.8271   45.5039 H   0  0  0  0  0  0  0  0  0  0  0  0
   55.6324   30.8127   42.5515 H   0  0  0  0  0  0  0  0  0  0  0  0
   57.1762   30.0972   41.9683 H   0  0  0  0  0  0  0  0  0  0  0  0
   57.0512   28.1671   46.3853 H   0  0  0  0  0  0  0  0  0  0  0  0
  1  2  3  0
  2  3  1  0
  3  4  2  0
  4  5  1  0
  5  6  2  0
  6  7  1  0
  7  8  1  0
  8  9  2  0
  8 10  1  0
 10 11  1  0
 11 12  2  0
 12 13  1  0
 13 14  1  0
 14 15  1  0
 15 16  2  0
 16 17  1  0
 17 18  2  0
 18 19  1  0
 19 20  2  0
 13 21  2  0
 21 22  1  0
 22 23  2  0
 23 24  1  0
 24 25  1  0
 25 26  2  0
 25 27  1  0
 27 28  1  0
 28 29  2  0
 28 30  1  0
  7 31  2  0
 31  3  1  0
 23 11  1  0
 20 15  1  0
  4 32  1  0
  5 33  1  0
  6 34  1  0
 10 35  1  0
 12 36  1  0
 14 37  1  0
 14 38  1  0
 16 39  1  0
 17 40  1  0
 19 41  1  0
 20 42  1  0
 21 43  1  0
 22 44  1  0
 27 45  1  0
 27 46  1  0
 31 47  1  0
M  CHG  3  24  -1  28   1  30  -1
M  END
>  <UniqueID>  (86) 
80

>  <SMILES>  (86) 
N#Cc1cccc(C(=O)Nc2cc(Cc3ccncc3)ccc2[N-]C(=O)C[N+](=O)[O-])c1

>  <Energy>  (86) 
56.094303620191894

>  <Genealogy>  (86) 
N#Cc1cccc(C(=O)Nc2cc(Cc3ccncc3)ccc2[N-]C(=O)C[N+](=O)[O-])c1 (protonated)
N#Cc1cccc(C(=O)Nc2cc(Cc3ccncc3)ccc2[N-]C(=O)C[N+](=O)[O-])c1 (3D coordinates assigned)
N#Cc1cccc(C(=O)Nc2cc(Cc3ccncc3)ccc2[N-]C(=O)C[N+](=O)[O-])c1 (optimized conformer: 56.094303620191894 kcal/mol)

>  <smiles>  (86) 
N#Cc1cccc(C(=O)Nc2cc(Cc3ccncc3)ccc2NC(=O)C[N+](=O)[O-])c1

>  <score_type>  (86) 
oracle

>  <origin>  (86) 
adg

>  <m_score__min__energy>  (86) 
-10.34

>  <m_primary>  (86) 
energy

$$$$
86:0
     RDKit          3D

 54 57  0  0  0  0  0  0  0  0999 V2000
   56.5710   29.6800   44.6500 C   0  0  0  0  0  0  0  0  0  0  0  0
   57.7790   29.3340   45.1220 C   0  0  0  0  0  0  0  0  0  0  0  0
   58.3560   28.0530   45.1470 C   0  0  0  0  0  0  0  0  0  0  0  0
   57.8380   26.8440   44.8610 C   0  0  0  0  0  0  0  0  0  0  0  0
   57.3180   25.8810   45.8440 C   0  0  0  0  0  0  0  0  0  0  0  0
   58.0070   24.8180   46.3030 N   0  0  0  0  0  0  0  0  0  0  0  0
   57.0990   24.1580   47.0510 C   0  0  0  0  0  0  0  0  0  0  0  0
   57.3730   23.0960   47.6700 O   0  0  0  0  0  0  0  0  0  0  0  0
   55.8710   24.7180   47.0770 N   0  0  0  0  0  0  0  0  0  0  0  0
   56.0220   25.8010   46.2970 C   0  0  0  0  0  0  0  0  0  0  0  0
   54.9910   26.6940   46.0160 O   0  0  0  0  0  0  0  0  0  0  0  0
   59.6670   28.2270   45.5670 C   0  0  0  0  0  0  0  0  0  0  0  0
   59.8320   29.5730   45.8190 C   0  0  0  0  0  0  0  0  0  0  0  0
   61.0780   30.1960   46.3710 C   0  0  0  0  0  0  0  0  0  0  0  0
   58.6900   30.2410   45.5560 N   0  0  0  0  0  0  0  0  0  0  0  0
   58.5230   31.6670   45.6230 C   0  0  0  0  0  0  0  0  0  0  0  0
   58.4540   32.4060   44.4340 C   0  0  0  0  0  0  0  0  0  0  0  0
   58.3470   33.7980   44.4760 C   0  0  0  0  0  0  0  0  0  0  0  0
   58.3120   34.4610   45.7050 C   0  0  0  0  0  0  0  0  0  0  0  0
   58.3800   33.7330   46.8970 C   0  0  0  0  0  0  0  0  0  0  0  0
   58.4880   32.3340   46.8680 C   0  0  0  0  0  0  0  0  0  0  0  0
   58.5280   31.5790   48.1370 C   0  0  0  0  0  0  0  0  0  0  0  0
   58.5120   30.3210   48.1070 O   0  0  0  0  0  0  0  0  0  0  0  0
   58.6060   32.2370   49.4050 N   0  0  0  0  0  0  0  0  0  0  0  0
   59.8280   32.3800   50.1880 C   0  0  0  0  0  0  0  0  0  0  0  0
   61.0000   32.5540   49.2600 C   0  0  0  0  0  0  0  0  0  0  0  0
   61.1000   33.7120   48.4680 C   0  0  0  0  0  0  0  0  0  0  0  0
   62.1800   33.8800   47.5980 C   0  0  0  0  0  0  0  0  0  0  0  0
   63.1700   32.9010   47.5140 C   0  0  0  0  0  0  0  0  0  0  0  0
   63.0870   31.7500   48.3000 C   0  0  0  0  0  0  0  0  0  0  0  0
   62.0040   31.5670   49.1840 C   0  0  0  0  0  0  0  0  0  0  0  0
   61.9000   30.4280   50.0020 O   0  0  0  0  0  0  0  0  0  0  0  0
   61.0090   29.3430   49.7700 C   0  0  0  0  0  0  0  0  0  0  0  0
   56.2433   30.7292   44.6936 H   0  0  0  0  0  0  0  0  0  0  0  0
   55.9087   28.9144   44.2196 H   0  0  0  0  0  0  0  0  0  0  0  0
   57.8003   26.5510   43.8014 H   0  0  0  0  0  0  0  0  0  0  0  0
   55.1460   27.5070   45.4330 H   0  0  0  0  0  0  0  0  0  0  0  0
   60.4291   27.4415   45.6778 H   0  0  0  0  0  0  0  0  0  0  0  0
   61.0412   30.1776   47.4702 H   0  0  0  0  0  0  0  0  0  0  0  0
   61.9554   29.6305   46.0240 H   0  0  0  0  0  0  0  0  0  0  0  0
   61.1521   31.2372   46.0240 H   0  0  0  0  0  0  0  0  0  0  0  0
   58.4842   31.8878   43.4642 H   0  0  0  0  0  0  0  0  0  0  0  0
   58.2902   34.3730   43.5400 H   0  0  0  0  0  0  0  0  0  0  0  0
   58.2308   35.5576   45.7352 H   0  0  0  0  0  0  0  0  0  0  0  0
   58.3487   34.2595   47.8623 H   0  0  0  0  0  0  0  0  0  0  0  0
   59.7438   33.2607   50.8417 H   0  0  0  0  0  0  0  0  0  0  0  0
   59.9772   31.4803   50.8030 H   0  0  0  0  0  0  0  0  0  0  0  0
   60.3242   34.4890   48.5339 H   0  0  0  0  0  0  0  0  0  0  0  0
   62.2498   34.7860   46.9781 H   0  0  0  0  0  0  0  0  0  0  0  0
   64.0182   33.0361   46.8268 H   0  0  0  0  0  0  0  0  0  0  0  0
   63.8710   30.9817   48.2291 H   0  0  0  0  0  0  0  0  0  0  0  0
   60.6721   28.9328   50.7334 H   0  0  0  0  0  0  0  0  0  0  0  0
   60.1390   29.6988   49.1986 H   0  0  0  0  0  0  0  0  0  0  0  0
   61.5272   28.5588   49.1986 H   0  0  0  0  0  0  0  0  0  0  0  0
  1  2  2  0
  2  3  1  0
  3  4  2  3
  4  5  1  0
  5  6  1  0
  6  7  1  0
  7  8  2  0
  7  9  1  0
  9 10  1  0
 10 11  1  0
  3 12  1  0
 12 13  2  0
 13 14  1  0
 13 15  1  0
 15 16  1  0
 16 17  2  0
 17 18  1  0
 18 19  2  0
 19 20  1  0
 20 21  2  0
 21 22  1  0
 22 23  2  0
 22 24  1  0
 24 25  1  0
 25 26  1  0
 26 27  2  0
 27 28  1  0
 28 29  2  0
 29 30  1  0
 30 31  2  0
 31 32  1  0
 32 33  1  0
 15  2  1  0
 21 16  1  0
 31 26  1  0
 10  5  2  0
  1 34  1  0
  1 35  1  0
  4 36  1  0
 11 37  1  0
 12 38  1  0
 14 39  1  0
 14 40  1  0
 14 41  1  0
 17 42  1  0
 18 43  1  0
 19 44  1  0
 20 45  1  0
 25 46  1  0
 25 47  1  0
 27 48  1  0
 28 49  1  0
 29 50  1  0
 30 51  1  0
 33 52  1  0
 33 53  1  0
 33 54  1  0
M  CHG  3   6  -1   9  -1  24  -1
M  END
>  <UniqueID>  (87) 
81

>  <SMILES>  (87) 
C=c1c(=Cc2[n-]c(=O)[n-]c2O)cc(C)n1-c1ccccc1C(=O)[N-]Cc1ccccc1OC

>  <Energy>  (87) 
133.56360625644786

>  <Genealogy>  (87) 
C=c1c(=Cc2[n-]c(=O)[n-]c2O)cc(C)n1-c1ccccc1C(=O)[N-]Cc1ccccc1OC (protonated)
C=c1c(=Cc2[n-]c(=O)[n-]c2O)cc(C)n1-c1ccccc1C(=O)[N-]Cc1ccccc1OC (3D coordinates assigned)
C=c1c(=Cc2[n-]c(=O)[n-]c2O)cc(C)n1-c1ccccc1C(=O)[N-]Cc1ccccc1OC (optimized conformer: 133.56360625644786 kcal/mol)

>  <smiles>  (87) 
C=c1c(=Cc2[nH]c(=O)[nH]c2O)cc(C)n1-c1ccccc1C(=O)NCc1ccccc1OC

>  <score_type>  (87) 
oracle

>  <origin>  (87) 
adg

>  <m_score__min__energy>  (87) 
-14.92

>  <m_primary>  (87) 
energy

$$$$
87:0
     RDKit          3D

 42 43  0  0  0  0  0  0  0  0999 V2000
   56.1730   24.3970   44.6280 C   0  0  0  0  0  0  0  0  0  0  0  0
   55.3420   24.8650   45.8180 C   0  0  0  0  0  0  0  0  0  0  0  0
   55.5030   26.2670   46.0250 O   0  0  0  0  0  0  0  0  0  0  0  0
   56.7490   26.8980   46.1340 C   0  0  0  0  0  0  0  0  0  0  0  0
   57.3630   26.9250   47.2350 O   0  0  0  0  0  0  0  0  0  0  0  0
   57.3870   27.5000   44.9190 C   0  0  0  0  0  0  0  0  0  0  0  0
   57.1730   28.9470   44.8950 N   0  0  0  0  0  0  0  0  0  0  0  0
   56.0210   29.5960   44.6320 C   0  0  0  0  0  0  0  0  0  0  0  0
   54.7870   28.9780   44.4770 O   0  0  0  0  0  0  0  0  0  0  0  0
   56.2670   30.9460   44.4930 C   0  0  0  0  0  0  0  0  0  0  0  0
   57.5920   31.1410   44.6610 N   0  0  0  0  0  0  0  0  0  0  0  0
   58.3300   32.3780   44.4080 C   0  0  0  0  0  0  0  0  0  0  0  0
   58.6940   33.0180   45.7140 C   0  0  0  0  0  0  0  0  0  0  0  0
   58.4880   34.2520   45.8730 O   0  0  0  0  0  0  0  0  0  0  0  0
   59.1770   32.2050   46.7950 N   0  0  0  0  0  0  0  0  0  0  0  0
   59.2500   32.6530   48.1590 C   0  0  0  0  0  0  0  0  0  0  0  0
   58.5710   31.9340   49.1520 C   0  0  0  0  0  0  0  0  0  0  0  0
   58.6110   32.3520   50.4850 C   0  0  0  0  0  0  0  0  0  0  0  0
   59.3520   33.4880   50.8540 C   0  0  0  0  0  0  0  0  0  0  0  0
   59.3950   33.9360   52.2660 C   0  0  0  0  0  0  0  0  0  0  0  0
   60.5390   33.6710   53.0760 N   0  0  0  0  0  0  0  0  0  0  0  0
   58.4180   34.5570   52.7660 O   0  0  0  0  0  0  0  0  0  0  0  0
   60.0600   34.1890   49.8600 C   0  0  0  0  0  0  0  0  0  0  0  0
   60.0140   33.7710   48.5270 C   0  0  0  0  0  0  0  0  0  0  0  0
   58.1130   29.9150   44.8870 C   0  0  0  0  0  0  0  0  0  0  0  0
   59.3460   29.6930   45.0240 O   0  0  0  0  0  0  0  0  0  0  0  0
   57.0779   23.8874   44.9905 H   0  0  0  0  0  0  0  0  0  0  0  0
   55.5795   23.7005   44.0176 H   0  0  0  0  0  0  0  0  0  0  0  0
   56.4610   25.2656   44.0176 H   0  0  0  0  0  0  0  0  0  0  0  0
   54.2810   24.6479   45.6252 H   0  0  0  0  0  0  0  0  0  0  0  0
   55.6828   24.3331   46.7185 H   0  0  0  0  0  0  0  0  0  0  0  0
   58.4673   27.2936   44.9369 H   0  0  0  0  0  0  0  0  0  0  0  0
   56.9325   27.0570   44.0206 H   0  0  0  0  0  0  0  0  0  0  0  0
   55.5181   31.7238   44.2830 H   0  0  0  0  0  0  0  0  0  0  0  0
   59.2461   32.1496   43.8435 H   0  0  0  0  0  0  0  0  0  0  0  0
   57.7021   33.0670   43.8241 H   0  0  0  0  0  0  0  0  0  0  0  0
   59.2710   31.1790   46.6180 H   0  0  0  0  0  0  0  0  0  0  0  0
   58.0017   31.0330   48.8799 H   0  0  0  0  0  0  0  0  0  0  0  0
   58.0586   31.7879   51.2509 H   0  0  0  0  0  0  0  0  0  0  0  0
   61.5040   33.8580   52.7200 H   0  0  0  0  0  0  0  0  0  0  0  0
   60.6544   35.0730   50.1343 H   0  0  0  0  0  0  0  0  0  0  0  0
   60.5803   34.3219   47.7616 H   0  0  0  0  0  0  0  0  0  0  0  0
  1  2  1  0
  2  3  1  0
  3  4  1  0
  4  5  2  0
  4  6  1  0
  6  7  1  0
  7  8  1  0
  8  9  1  0
  8 10  2  0
 10 11  1  0
 11 12  1  0
 12 13  1  0
 13 14  2  0
 13 15  1  0
 15 16  1  0
 16 17  2  0
 17 18  1  0
 18 19  2  0
 19 20  1  0
 20 21  1  0
 20 22  2  0
 19 23  1  0
 23 24  2  0
 11 25  1  0
 25 26  2  0
 25  7  1  0
 24 16  1  0
  1 27  1  0
  1 28  1  0
  1 29  1  0
  2 30  1  0
  2 31  1  0
  6 32  1  0
  6 33  1  0
 10 34  1  0
 12 35  1  0
 12 36  1  0
 15 37  1  0
 17 38  1  0
 18 39  1  0
 21 40  1  0
 23 41  1  0
 24 42  1  0
M  CHG  2   9  -1  21  -1
M  END
>  <UniqueID>  (88) 
82

>  <SMILES>  (88) 
CCOC(=O)Cn1c([O-])cn(CC(=O)Nc2ccc(C([NH-])=O)cc2)c1=O

>  <Energy>  (88) 
70.70620129954918

>  <Genealogy>  (88) 
CCOC(=O)Cn1c([O-])cn(CC(=O)Nc2ccc(C([NH-])=O)cc2)c1=O (protonated)
CCOC(=O)Cn1c([O-])cn(CC(=O)Nc2ccc(C([NH-])=O)cc2)c1=O (3D coordinates assigned)
CCOC(=O)Cn1c([O-])cn(CC(=O)Nc2ccc(C([NH-])=O)cc2)c1=O (optimized conformer: 70.70620129954918 kcal/mol)

>  <smiles>  (88) 
CCOC(=O)Cn1c(O)cn(CC(=O)Nc2ccc(C(N)=O)cc2)c1=O

>  <score_type>  (88) 
oracle

>  <origin>  (88) 
adg

>  <m_score__min__energy>  (88) 
-10.550000000000001

>  <m_primary>  (88) 
energy

$$$$
88:0
     RDKit          3D

 57 60  0  0  0  0  0  0  0  0999 V2000
   55.1890   29.3580   44.8750 N   0  0  0  0  0  0  0  0  0  0  0  0
   56.7720   29.2540   44.1900 S   0  0  0  0  0  0  0  0  0  0  0  0
   57.6590   28.4230   45.0780 O   0  0  0  0  0  0  0  0  0  0  0  0
   56.6810   28.5910   42.8440 O   0  0  0  0  0  0  0  0  0  0  0  0
   57.4400   30.8770   44.0250 C   0  0  0  0  0  0  0  0  0  0  0  0
   57.7520   31.3920   42.7590 C   0  0  0  0  0  0  0  0  0  0  0  0
   58.2520   32.6900   42.6320 C   0  0  0  0  0  0  0  0  0  0  0  0
   58.4270   33.4870   43.7700 C   0  0  0  0  0  0  0  0  0  0  0  0
   58.1060   32.9900   45.0370 C   0  0  0  0  0  0  0  0  0  0  0  0
   58.3170   33.8110   46.1530 O   0  0  0  0  0  0  0  0  0  0  0  0
   58.7470   33.3770   47.4160 C   0  0  0  0  0  0  0  0  0  0  0  0
   59.8660   33.9920   47.9910 C   0  0  0  0  0  0  0  0  0  0  0  0
   60.3220   33.5980   49.2490 C   0  0  0  0  0  0  0  0  0  0  0  0
   59.6600   32.5850   49.9630 C   0  0  0  0  0  0  0  0  0  0  0  0
   60.1270   32.1870   51.3110 C   0  0  0  0  0  0  0  0  0  0  0  0
   61.2020   32.6650   51.7660 O   0  0  0  0  0  0  0  0  0  0  0  0
   59.3950   31.2390   52.1010 N   0  0  0  0  0  0  0  0  0  0  0  0
   57.9610   31.4200   52.3430 C   0  0  0  0  0  0  0  0  0  0  0  0
   57.5870   30.9820   53.7740 C   0  0  0  0  0  0  0  0  0  0  0  0
   58.3390   29.7980   54.2760 N   0  0  0  0  0  0  0  0  0  0  0  0
   57.4470   28.8930   55.0310 C   0  0  0  0  0  0  0  0  0  0  0  0
   55.9990   29.2690   54.8390 C   0  0  0  0  0  0  0  0  0  0  0  0
   55.3200   30.0140   55.8190 C   0  0  0  0  0  0  0  0  0  0  0  0
   53.9890   30.3920   55.6200 C   0  0  0  0  0  0  0  0  0  0  0  0
   53.3270   30.0310   54.4420 C   0  0  0  0  0  0  0  0  0  0  0  0
   53.9950   29.2920   53.4560 C   0  0  0  0  0  0  0  0  0  0  0  0
   53.3230   28.9430   52.2890 O   0  0  0  0  0  0  0  0  0  0  0  0
   55.3300   28.9120   53.6550 C   0  0  0  0  0  0  0  0  0  0  0  0
   59.0690   29.0730   53.2160 C   0  0  0  0  0  0  0  0  0  0  0  0
   60.0640   30.0150   52.5410 C   0  0  0  0  0  0  0  0  0  0  0  0
   58.5130   31.9960   49.4050 C   0  0  0  0  0  0  0  0  0  0  0  0
   58.0620   32.3850   48.1400 C   0  0  0  0  0  0  0  0  0  0  0  0
   57.6280   31.6720   45.1620 C   0  0  0  0  0  0  0  0  0  0  0  0
   55.1440   28.6490   45.6430 H   0  0  0  0  0  0  0  0  0  0  0  0
   57.6026   30.7719   41.8628 H   0  0  0  0  0  0  0  0  0  0  0  0
   58.5082   33.0861   41.6383 H   0  0  0  0  0  0  0  0  0  0  0  0
   58.8191   34.5095   43.6667 H   0  0  0  0  0  0  0  0  0  0  0  0
   60.3893   34.7918   47.4465 H   0  0  0  0  0  0  0  0  0  0  0  0
   61.2069   34.0842   49.6855 H   0  0  0  0  0  0  0  0  0  0  0  0
   57.7045   32.4816   52.2122 H   0  0  0  0  0  0  0  0  0  0  0  0
   57.4017   30.7997   51.6271 H   0  0  0  0  0  0  0  0  0  0  0  0
   57.7816   31.8253   54.4529 H   0  0  0  0  0  0  0  0  0  0  0  0
   56.5273   30.6886   53.7436 H   0  0  0  0  0  0  0  0  0  0  0  0
   57.5998   27.8623   54.6785 H   0  0  0  0  0  0  0  0  0  0  0  0
   57.6898   28.9772   56.1006 H   0  0  0  0  0  0  0  0  0  0  0  0
   55.8381   30.3006   56.7460 H   0  0  0  0  0  0  0  0  0  0  0  0
   53.4619   30.9738   56.3905 H   0  0  0  0  0  0  0  0  0  0  0  0
   52.2790   30.3279   54.2889 H   0  0  0  0  0  0  0  0  0  0  0  0
   53.6550   28.1960   51.6890 H   0  0  0  0  0  0  0  0  0  0  0  0
   55.8558   28.3325   52.8819 H   0  0  0  0  0  0  0  0  0  0  0  0
   59.6112   28.2250   53.6596 H   0  0  0  0  0  0  0  0  0  0  0  0
   58.3527   28.7022   52.4680 H   0  0  0  0  0  0  0  0  0  0  0  0
   60.8589   30.2741   53.2558 H   0  0  0  0  0  0  0  0  0  0  0  0
   60.4926   29.5092   51.6632 H   0  0  0  0  0  0  0  0  0  0  0  0
   57.9665   31.2241   49.9667 H   0  0  0  0  0  0  0  0  0  0  0  0
   57.1669   31.9127   47.7090 H   0  0  0  0  0  0  0  0  0  0  0  0
   57.4010   31.2645   46.1582 H   0  0  0  0  0  0  0  0  0  0  0  0
  1  2  1  0
  2  3  2  0
  2  4  2  0
  2  5  1  0
  5  6  2  0
  6  7  1  0
  7  8  2  0
  8  9  1  0
  9 10  1  0
 10 11  1  0
 11 12  2  0
 12 13  1  0
 13 14  2  0
 14 15  1  0
 15 16  2  0
 15 17  1  0
 17 18  1  0
 18 19  1  0
 19 20  1  0
 20 21  1  0
 21 22  1  0
 22 23  2  0
 23 24  1  0
 24 25  2  0
 25 26  1  0
 26 27  1  0
 26 28  2  0
 20 29  1  0
 29 30  1  0
 14 31  1  0
 31 32  2  0
  9 33  2  0
 33  5  1  0
 32 11  1  0
 30 17  1  0
 28 22  1  0
  1 34  1  0
  6 35  1  0
  7 36  1  0
  8 37  1  0
 12 38  1  0
 13 39  1  0
 18 40  1  0
 18 41  1  0
 19 42  1  0
 19 43  1  0
 21 44  1  0
 21 45  1  0
 23 46  1  0
 24 47  1  0
 25 48  1  0
 27 49  1  0
 28 50  1  0
 29 51  1  0
 29 52  1  0
 30 53  1  0
 30 54  1  0
 31 55  1  0
 32 56  1  0
 33 57  1  0
M  CHG  1   1  -1
M  END
>  <UniqueID>  (89) 
83

>  <SMILES>  (89) 
[NH-]S(=O)(=O)c1cccc(Oc2ccc(C(=O)N3CCN(Cc4cccc(O)c4)CC3)cc2)c1

>  <Energy>  (89) 
78.25733055485975

>  <Genealogy>  (89) 
[NH-]S(=O)(=O)c1cccc(Oc2ccc(C(=O)N3CCN(Cc4cccc(O)c4)CC3)cc2)c1 (protonated)
[NH-]S(=O)(=O)c1cccc(Oc2ccc(C(=O)N3CCN(Cc4cccc(O)c4)CC3)cc2)c1 (3D coordinates assigned)
[NH-]S(=O)(=O)c1cccc(Oc2ccc(C(=O)N3CCN(Cc4cccc(O)c4)CC3)cc2)c1 (nonaromatic ring conformer: 78.25733055485975 kcal/mol)

>  <smiles>  (89) 
NS(=O)(=O)c1cccc(Oc2ccc(C(=O)N3CCN(Cc4cccc(O)c4)CC3)cc2)c1

>  <score_type>  (89) 
oracle

>  <origin>  (89) 
adg

>  <m_score__min__energy>  (89) 
-11.289999999999999

>  <m_primary>  (89) 
energy

$$$$
89:0
     RDKit          3D

 56 59  0  0  0  0  0  0  0  0999 V2000
   58.1090   27.1140   42.8570 C   0  0  0  0  0  0  0  0  0  0  0  0
   58.0920   28.2810   43.7490 N   0  0  0  0  0  0  0  0  0  0  0  0
   56.8950   29.1360   43.7420 C   0  0  0  0  0  0  0  0  0  0  0  0
   57.2810   30.5880   43.7520 C   0  0  0  0  0  0  0  0  0  0  0  0
   57.3610   31.3690   42.5870 C   0  0  0  0  0  0  0  0  0  0  0  0
   57.7490   32.6790   42.8250 C   0  0  0  0  0  0  0  0  0  0  0  0
   57.9880   32.8610   44.4790 S   0  0  0  0  0  0  0  0  0  0  0  0
   57.6010   31.2850   44.9120 C   0  0  0  0  0  0  0  0  0  0  0  0
   59.2050   28.4520   44.6630 C   0  0  0  0  0  0  0  0  0  0  0  0
   60.2480   29.0230   44.2390 O   0  0  0  0  0  0  0  0  0  0  0  0
   59.1700   28.0780   46.1400 C   0  0  1  0  0  0  0  0  0  0  0  0
   59.3040   26.5580   46.4010 C   0  0  0  0  0  0  0  0  0  0  0  0
   58.0210   25.7700   46.2880 C   0  0  0  0  0  0  0  0  0  0  0  0
   58.0540   24.3640   46.3170 C   0  0  0  0  0  0  0  0  0  0  0  0
   56.8680   23.6280   46.2220 C   0  0  0  0  0  0  0  0  0  0  0  0
   55.6450   24.2850   46.0840 C   0  0  0  0  0  0  0  0  0  0  0  0
   55.6030   25.6820   46.0290 C   0  0  0  0  0  0  0  0  0  0  0  0
   54.3850   26.3340   45.8790 O   0  0  0  0  0  0  0  0  0  0  0  0
   56.7870   26.4220   46.1240 C   0  0  0  0  0  0  0  0  0  0  0  0
   60.1040   28.8710   46.9450 N   0  0  0  0  0  0  0  0  0  0  0  0
   59.8980   29.1080   48.3460 C   0  0  0  0  0  0  0  0  0  0  0  0
   58.9020   28.6020   48.9340 O   0  0  0  0  0  0  0  0  0  0  0  0
   60.8210   30.0310   49.0890 C   0  0  0  0  0  0  0  0  0  0  0  0
   61.2630   31.1780   48.2280 C   0  0  0  0  0  0  0  0  0  0  0  0
   62.5520   31.4100   47.7550 C   0  0  0  0  0  0  0  0  0  0  0  0
   62.6000   32.5800   47.0770 N   0  0  0  0  0  0  0  0  0  0  0  0
   61.3590   33.0920   47.1280 C   0  0  0  0  0  0  0  0  0  0  0  0
   60.9210   34.3000   46.5870 C   0  0  0  0  0  0  0  0  0  0  0  0
   59.5730   34.6570   46.7810 C   0  0  0  0  0  0  0  0  0  0  0  0
   58.7050   33.8080   47.5040 C   0  0  0  0  0  0  0  0  0  0  0  0
   59.1760   32.5960   48.0400 C   0  0  0  0  0  0  0  0  0  0  0  0
   60.5150   32.2670   47.8280 C   0  0  0  0  0  0  0  0  0  0  0  0
   58.1224   26.1930   43.4583 H   0  0  0  0  0  0  0  0  0  0  0  0
   57.2106   27.1245   42.2223 H   0  0  0  0  0  0  0  0  0  0  0  0
   59.0067   27.1506   42.2223 H   0  0  0  0  0  0  0  0  0  0  0  0
   56.3056   28.9250   42.8375 H   0  0  0  0  0  0  0  0  0  0  0  0
   56.3010   28.9212   44.6426 H   0  0  0  0  0  0  0  0  0  0  0  0
   57.1375   30.9791   41.5830 H   0  0  0  0  0  0  0  0  0  0  0  0
   57.8779   33.4626   42.0639 H   0  0  0  0  0  0  0  0  0  0  0  0
   57.6007   30.8762   45.9332 H   0  0  0  0  0  0  0  0  0  0  0  0
   58.1582   28.3430   46.4807 H   0  0  0  0  0  0  0  0  0  0  0  0
   60.0194   26.1495   45.6721 H   0  0  0  0  0  0  0  0  0  0  0  0
   59.6336   26.4559   47.4455 H   0  0  0  0  0  0  0  0  0  0  0  0
   59.0167   23.8408   46.4148 H   0  0  0  0  0  0  0  0  0  0  0  0
   56.8998   22.5290   46.2562 H   0  0  0  0  0  0  0  0  0  0  0  0
   54.7132   23.7040   46.0184 H   0  0  0  0  0  0  0  0  0  0  0  0
   56.7515   27.5201   46.0700 H   0  0  0  0  0  0  0  0  0  0  0  0
   60.9910   29.2160   46.5180 H   0  0  0  0  0  0  0  0  0  0  0  0
   60.2962   30.4275   49.9707 H   0  0  0  0  0  0  0  0  0  0  0  0
   61.7127   29.4602   49.3875 H   0  0  0  0  0  0  0  0  0  0  0  0
   63.4089   30.7380   47.9104 H   0  0  0  0  0  0  0  0  0  0  0  0
   63.4400   33.0020   46.6210 H   0  0  0  0  0  0  0  0  0  0  0  0
   61.6064   34.9530   46.0268 H   0  0  0  0  0  0  0  0  0  0  0  0
   59.1931   35.6027   46.3672 H   0  0  0  0  0  0  0  0  0  0  0  0
   57.6536   34.0971   47.6486 H   0  0  0  0  0  0  0  0  0  0  0  0
   58.5103   31.9293   48.6078 H   0  0  0  0  0  0  0  0  0  0  0  0
  1  2  1  0
  2  3  1  0
  3  4  1  0
  4  5  1  0
  5  6  2  0
  6  7  1  0
  7  8  1  0
  2  9  1  0
  9 10  2  0
  9 11  1  0
 11 12  1  0
 12 13  1  0
 13 14  2  0
 14 15  1  0
 15 16  2  0
 16 17  1  0
 17 18  1  0
 17 19  2  0
 11 20  1  0
 20 21  1  0
 21 22  2  0
 21 23  1  0
 23 24  1  0
 24 25  2  0
 25 26  1  0
 26 27  1  0
 27 28  2  0
 28 29  1  0
 29 30  2  0
 30 31  1  0
 31 32  2  0
  8  4  2  0
 19 13  1  0
 32 24  1  0
 32 27  1  0
  1 33  1  0
  1 34  1  0
  1 35  1  0
  3 36  1  0
  3 37  1  0
  5 38  1  0
  6 39  1  0
  8 40  1  0
 11 41  1  1
 12 42  1  0
 12 43  1  0
 14 44  1  0
 15 45  1  0
 16 46  1  0
 19 47  1  0
 20 48  1  0
 23 49  1  0
 23 50  1  0
 25 51  1  0
 26 52  1  0
 28 53  1  0
 29 54  1  0
 30 55  1  0
 31 56  1  0
M  CHG  1  18  -1
M  END
>  <UniqueID>  (90) 
84

>  <SMILES>  (90) 
CN(Cc1ccsc1)C(=O)[C@@H](Cc1cccc([O-])c1)NC(=O)Cc1c[nH]c2ccccc12

>  <Energy>  (90) 
114.8803086956072

>  <Genealogy>  (90) 
CN(Cc1ccsc1)C(=O)C(Cc1cccc([O-])c1)NC(=O)Cc1c[nH]c2ccccc12 (protonated)
CN(Cc1ccsc1)C(=O)[C@@H](Cc1cccc([O-])c1)NC(=O)Cc1c[nH]c2ccccc12 (chirality)
CN(Cc1ccsc1)C(=O)[C@@H](Cc1cccc([O-])c1)NC(=O)Cc1c[nH]c2ccccc12 (3D coordinates assigned)
CN(Cc1ccsc1)C(=O)[C@@H](Cc1cccc([O-])c1)NC(=O)Cc1c[nH]c2ccccc12 (optimized conformer: 114.8803086956072 kcal/mol)

>  <smiles>  (90) 
CN(Cc1ccsc1)C(=O)C(Cc1cccc(O)c1)NC(=O)Cc1c[nH]c2ccccc12

>  <score_type>  (90) 
oracle

>  <origin>  (90) 
adg

>  <m_score__min__energy>  (90) 
-12.82

>  <m_primary>  (90) 
energy

$$$$
90:0
     RDKit          3D

 50 53  0  0  0  0  0  0  0  0999 V2000
   64.0623   30.9795   47.4879 H   0  0  0  0  0  0  0  0  0  0  0  0
   63.2380   31.6680   47.2500 C   0  0  0  0  0  0  0  0  0  0  0  0
   61.9320   31.1830   47.1440 C   0  0  0  0  0  0  0  0  0  0  0  0
   61.7300   30.1114   47.2888 H   0  0  0  0  0  0  0  0  0  0  0  0
   60.8820   32.0590   46.8540 C   0  0  0  0  0  0  0  0  0  0  0  0
   59.8553   31.6734   46.7694 H   0  0  0  0  0  0  0  0  0  0  0  0
   61.1310   33.4290   46.6700 C   0  0  0  0  0  0  0  0  0  0  0  0
   60.0090   34.3640   46.3090 C   0  0  0  0  0  0  0  0  0  0  0  0
   60.3971   35.1705   45.6696 H   0  0  0  0  0  0  0  0  0  0  0  0
   59.5831   34.7924   47.2283 H   0  0  0  0  0  0  0  0  0  0  0  0
   58.9450   33.6170   45.5740 C   0  0  0  0  0  0  0  0  0  0  0  0
   58.9160   33.4800   44.2290 N   0  0  0  0  0  0  0  0  0  0  0  0
   57.9420   32.6780   43.8000 N   0  0  0  0  0  0  0  0  0  0  0  0
   57.2060   32.1550   44.8030 C   0  0  0  0  0  0  0  0  0  0  0  0
   56.2260   31.3280   44.5870 N   0  0  0  0  0  0  0  0  0  0  0  0
   56.2790   29.9010   44.7540 C   0  0  0  0  0  0  0  0  0  0  0  0
   55.2380   29.2300   44.5280 O   0  0  0  0  0  0  0  0  0  0  0  0
   57.5370   29.1980   45.1110 C   0  0  0  0  0  0  0  0  0  0  0  0
   58.1920   28.3930   44.1670 C   0  0  0  0  0  0  0  0  0  0  0  0
   57.7796   28.2944   43.1520 H   0  0  0  0  0  0  0  0  0  0  0  0
   59.3650   27.7160   44.5090 C   0  0  0  0  0  0  0  0  0  0  0  0
   59.8757   27.0923   43.7605 H   0  0  0  0  0  0  0  0  0  0  0  0
   59.8920   27.8280   45.7980 C   0  0  0  0  0  0  0  0  0  0  0  0
   60.8125   27.2865   46.0616 H   0  0  0  0  0  0  0  0  0  0  0  0
   59.2530   28.6280   46.7590 C   0  0  0  0  0  0  0  0  0  0  0  0
   59.8010   28.7290   48.1310 C   0  0  0  0  0  0  0  0  0  0  0  0
   60.7220   27.9460   48.4920 O   0  0  0  0  0  0  0  0  0  0  0  0
   59.2860   29.6970   49.0600 N   0  0  0  0  0  0  0  0  0  0  0  0
   58.3650   30.1550   48.8740 H   0  0  0  0  0  0  0  0  0  0  0  0
   59.9910   30.0500   50.2890 C   0  0  0  0  0  0  0  0  0  0  0  0
   59.3148   29.9196   51.1467 H   0  0  0  0  0  0  0  0  0  0  0  0
   60.8683   29.3961   50.4016 H   0  0  0  0  0  0  0  0  0  0  0  0
   60.4480   31.4810   50.2290 C   0  0  0  0  0  0  0  0  0  0  0  0
   59.5320   32.4960   49.9070 C   0  0  0  0  0  0  0  0  0  0  0  0
   58.4777   32.2439   49.7203 H   0  0  0  0  0  0  0  0  0  0  0  0
   59.9560   33.8260   49.8230 C   0  0  0  0  0  0  0  0  0  0  0  0
   59.2338   34.6182   49.5763 H   0  0  0  0  0  0  0  0  0  0  0  0
   61.2960   34.1500   50.0520 C   0  0  0  0  0  0  0  0  0  0  0  0
   61.6281   35.1965   49.9851 H   0  0  0  0  0  0  0  0  0  0  0  0
   62.2140   33.1440   50.3660 C   0  0  0  0  0  0  0  0  0  0  0  0
   63.2687   33.3996   50.5457 H   0  0  0  0  0  0  0  0  0  0  0  0
   61.7940   31.8140   50.4520 C   0  0  0  0  0  0  0  0  0  0  0  0
   62.5205   31.0247   50.6953 H   0  0  0  0  0  0  0  0  0  0  0  0
   58.0950   29.3380   46.3960 C   0  0  0  0  0  0  0  0  0  0  0  0
   57.6193   30.0109   47.1247 H   0  0  0  0  0  0  0  0  0  0  0  0
   57.7310   32.7110   46.3110 S   0  0  0  0  0  0  0  0  0  0  0  0
   62.4500   33.9050   46.7580 C   0  0  0  0  0  0  0  0  0  0  0  0
   62.6594   34.9723   46.5935 H   0  0  0  0  0  0  0  0  0  0  0  0
   63.4980   33.0270   47.0540 C   0  0  0  0  0  0  0  0  0  0  0  0
   64.5275   33.4066   47.1325 H   0  0  0  0  0  0  0  0  0  0  0  0
  1  2  1  0
  2  3  2  0
  3  4  1  0
  3  5  1  0
  5  6  1  0
  5  7  2  0
  7  8  1  0
  8  9  1  0
  8 10  1  0
  8 11  1  0
 11 12  2  0
 12 13  1  0
 13 14  1  0
 14 15  2  0
 15 16  1  0
 16 17  2  0
 16 18  1  0
 18 19  2  0
 19 20  1  0
 19 21  1  0
 21 22  1  0
 21 23  2  0
 23 24  1  0
 23 25  1  0
 25 26  1  0
 26 27  2  0
 26 28  1  0
 28 29  1  0
 28 30  1  0
 30 31  1  0
 30 32  1  0
 30 33  1  0
 33 34  2  0
 34 35  1  0
 34 36  1  0
 36 37  1  0
 36 38  2  0
 38 39  1  0
 38 40  1  0
 40 41  1  0
 40 42  2  0
 42 43  1  0
 25 44  2  0
 44 45  1  0
 14 46  1  0
  7 47  1  0
 47 48  1  0
 47 49  2  0
 49 50  1  0
 49  2  1  0
 46 11  1  0
 44 18  1  0
 42 33  1  0
M  CHG  1  13  -1
M  END
>  <UniqueID>  (91) 
85

>  <SMILES>  (91) 
O=C(/N=c1/[n-]nc(Cc2ccccc2)s1)c1cccc(C(=O)NCc2ccccc2)c1

>  <Energy>  (91) 
91.30386590880408

>  <Genealogy>  (91) 
O=C(N=c1[n-]nc(Cc2ccccc2)s1)c1cccc(C(=O)NCc2ccccc2)c1 (protonated)
O=C(/N=c1/[n-]nc(Cc2ccccc2)s1)c1cccc(C(=O)NCc2ccccc2)c1 (cis-trans isomerization)
O=C(/N=c1/[n-]nc(Cc2ccccc2)s1)c1cccc(C(=O)NCc2ccccc2)c1 (3D coordinates assigned)
O=C(/N=c1/[n-]nc(Cc2ccccc2)s1)c1cccc(C(=O)NCc2ccccc2)c1 (optimized conformer: 91.30386590880408 kcal/mol)

>  <smiles>  (91) 
O=C(N=c1[nH]nc(Cc2ccccc2)s1)c1cccc(C(=O)NCc2ccccc2)c1

>  <score_type>  (91) 
oracle

>  <origin>  (91) 
adg

>  <m_score__min__energy>  (91) 
-12.06

>  <m_primary>  (91) 
energy

$$$$
91:0
     RDKit          3D

 35 37  0  0  0  0  0  0  0  0999 V2000
   56.8960   19.6080   43.4530 H   0  0  0  0  0  0  0  0  0  0  0  0
   56.2940   20.4200   43.3890 O   0  0  0  0  0  0  0  0  0  0  0  0
   56.5470   21.5740   44.1280 C   0  0  0  0  0  0  0  0  0  0  0  0
   56.3250   22.8410   43.5710 C   0  0  0  0  0  0  0  0  0  0  0  0
   55.9473   22.9302   42.5417 H   0  0  0  0  0  0  0  0  0  0  0  0
   56.5830   23.9910   44.3220 C   0  0  0  0  0  0  0  0  0  0  0  0
   56.3870   24.9825   43.8879 H   0  0  0  0  0  0  0  0  0  0  0  0
   57.0900   23.8890   45.6250 C   0  0  0  0  0  0  0  0  0  0  0  0
   57.3060   25.0900   46.3820 N   0  0  0  0  0  0  0  0  0  0  0  0
   57.2480   26.3080   45.9330 C   0  0  0  0  0  0  0  0  0  0  0  0
   56.0730   26.9540   45.7660 N   0  0  0  0  0  0  0  0  0  0  0  0
   56.2550   28.1970   45.2470 C   0  0  0  0  0  0  0  0  0  0  0  0
   55.1880   29.0530   45.0120 O   0  0  0  0  0  0  0  0  0  0  0  0
   57.5780   28.5400   44.9730 C   0  0  0  0  0  0  0  0  0  0  0  0
   58.0670   29.8580   44.4640 C   0  0  0  0  0  0  0  0  0  0  0  0
   57.9135   29.9085   43.3759 H   0  0  0  0  0  0  0  0  0  0  0  0
   59.1379   29.9602   44.6936 H   0  0  0  0  0  0  0  0  0  0  0  0
   57.3140   30.9690   45.1230 C   0  0  0  0  0  0  0  0  0  0  0  0
   56.2760   31.4270   44.5710 O   0  0  0  0  0  0  0  0  0  0  0  0
   57.8180   31.5270   46.3470 N   0  0  0  0  0  0  0  0  0  0  0  0
   59.0290   31.9460   46.5780 C   0  0  0  0  0  0  0  0  0  0  0  0
   60.0110   31.0900   46.9860 N   0  0  0  0  0  0  0  0  0  0  0  0
   61.2790   31.5140   47.2310 C   0  0  0  0  0  0  0  0  0  0  0  0
   62.0447   30.7955   47.5588 H   0  0  0  0  0  0  0  0  0  0  0  0
   61.6110   32.8610   47.0670 C   0  0  0  0  0  0  0  0  0  0  0  0
   63.3880   33.4680   47.4090 Br  0  0  0  0  0  0  0  0  0  0  0  0
   60.6250   33.7590   46.6500 C   0  0  0  0  0  0  0  0  0  0  0  0
   60.8698   34.8230   46.5157 H   0  0  0  0  0  0  0  0  0  0  0  0
   59.3280   33.3030   46.4040 C   0  0  0  0  0  0  0  0  0  0  0  0
   58.5470   34.0047   46.0759 H   0  0  0  0  0  0  0  0  0  0  0  0
   58.5580   27.2490   45.4230 S   0  0  0  0  0  0  0  0  0  0  0  0
   57.2810   22.6150   46.1900 C   0  0  0  0  0  0  0  0  0  0  0  0
   57.6368   22.5229   47.2268 H   0  0  0  0  0  0  0  0  0  0  0  0
   57.0200   21.4650   45.4380 C   0  0  0  0  0  0  0  0  0  0  0  0
   57.1877   20.4715   45.8794 H   0  0  0  0  0  0  0  0  0  0  0  0
  1  2  1  0
  2  3  1  0
  3  4  2  0
  4  5  1  0
  4  6  1  0
  6  7  1  0
  6  8  2  0
  8  9  1  0
  9 10  2  0
 10 11  1  0
 11 12  1  0
 12 13  1  0
 12 14  2  0
 14 15  1  0
 15 16  1  0
 15 17  1  0
 15 18  1  0
 18 19  2  0
 18 20  1  0
 20 21  2  3
 21 22  1  0
 22 23  1  0
 23 24  1  0
 23 25  2  0
 25 26  1  0
 25 27  1  0
 27 28  1  0
 27 29  2  0
 29 30  1  0
 14 31  1  0
  8 32  1  0
 32 33  1  0
 32 34  2  0
 34 35  1  0
 34  3  1  0
 31 10  1  0
 29 21  1  0
M  CHG  3  11  -1  13  -1  22  -1
M  END
>  <UniqueID>  (92) 
86

>  <SMILES>  (92) 
O=C(Cc1s/c(=N\c2ccc(O)cc2)[n-]c1[O-])N=c1ccc(Br)c[n-]1

>  <Energy>  (92) 
75.80267735551175

>  <Genealogy>  (92) 
O=C(Cc1sc(=Nc2ccc(O)cc2)[n-]c1[O-])N=c1ccc(Br)c[n-]1 (protonated)
O=C(Cc1s/c(=N\c2ccc(O)cc2)[n-]c1[O-])N=c1ccc(Br)c[n-]1 (cis-trans isomerization)
O=C(Cc1s/c(=N\c2ccc(O)cc2)[n-]c1[O-])N=c1ccc(Br)c[n-]1 (3D coordinates assigned)
O=C(Cc1s/c(=N\c2ccc(O)cc2)[n-]c1[O-])N=c1ccc(Br)c[n-]1 (optimized conformer: 75.80267735551175 kcal/mol)

>  <smiles>  (92) 
O=C(Cc1sc(=Nc2ccc(O)cc2)[nH]c1O)N=c1ccc(Br)c[nH]1

>  <score_type>  (92) 
oracle

>  <origin>  (92) 
adg

>  <m_score__min__energy>  (92) 
-15.109999999999999

>  <m_primary>  (92) 
energy

$$$$
92:0
     RDKit          3D

 53 55  0  0  0  0  0  0  0  0999 V2000
   63.1980   31.5250   47.1280 C   0  0  0  0  0  0  0  0  0  0  0  0
   62.0020   31.7330   47.9990 C   0  0  0  0  0  0  0  0  0  0  0  0
   62.0490   32.3900   49.1740 N   0  0  0  0  0  0  0  0  0  0  0  0
   60.8280   32.3900   49.6840 N   0  0  0  0  0  0  0  0  0  0  0  0
   60.4860   33.0670   50.9310 C   0  0  0  0  0  0  0  0  0  0  0  0
   59.9760   31.7630   48.8430 C   0  0  0  0  0  0  0  0  0  0  0  0
   58.4860   31.6550   49.0470 C   0  0  0  0  0  0  0  0  0  0  0  0
   57.8110   32.7410   48.4110 O   0  0  0  0  0  0  0  0  0  0  0  0
   58.3140   33.4920   47.3370 C   0  0  0  0  0  0  0  0  0  0  0  0
   59.3810   34.4020   47.4790 C   0  0  0  0  0  0  0  0  0  0  0  0
   59.8270   35.1400   46.3780 C   0  0  0  0  0  0  0  0  0  0  0  0
   59.2250   34.9680   45.1290 C   0  0  0  0  0  0  0  0  0  0  0  0
   58.1740   34.0600   44.9780 C   0  0  0  0  0  0  0  0  0  0  0  0
   57.7230   33.3240   46.0780 C   0  0  0  0  0  0  0  0  0  0  0  0
   60.7000   31.3210   47.7460 C   0  0  0  0  0  0  0  0  0  0  0  0
   60.1970   30.5910   46.5700 C   0  0  0  0  0  0  0  0  0  0  0  0
   60.9990   29.9140   45.8740 O   0  0  0  0  0  0  0  0  0  0  0  0
   58.8040   30.6280   46.2330 N   0  0  0  0  0  0  0  0  0  0  0  0
   58.2380   29.8330   45.1470 C   0  0  0  0  0  0  0  0  0  0  0  0
   57.9020   28.4450   45.6390 C   0  0  0  0  0  0  0  0  0  0  0  0
   58.9410   27.5990   46.0550 C   0  0  0  0  0  0  0  0  0  0  0  0
   58.6690   26.2890   46.4500 C   0  0  0  0  0  0  0  0  0  0  0  0
   57.3600   25.8070   46.4330 C   0  0  0  0  0  0  0  0  0  0  0  0
   56.3030   26.6410   46.0270 C   0  0  0  0  0  0  0  0  0  0  0  0
   54.9430   26.1850   45.9970 N   0  0  0  0  0  0  0  0  0  0  0  0
   54.4170   24.5670   45.6630 S   0  0  0  0  0  0  0  0  0  0  0  0
   55.3490   23.8940   44.3020 C   0  0  0  0  0  0  0  0  0  0  0  0
   54.5780   23.7080   46.8860 O   0  0  0  0  0  0  0  0  0  0  0  0
   52.9620   24.6000   45.2840 O   0  0  0  0  0  0  0  0  0  0  0  0
   56.5790   27.9600   45.6310 C   0  0  0  0  0  0  0  0  0  0  0  0
   55.5310   28.7810   45.2230 O   0  0  0  0  0  0  0  0  0  0  0  0
   64.0872   31.3704   47.7569 H   0  0  0  0  0  0  0  0  0  0  0  0
   63.0398   30.6409   46.4929 H   0  0  0  0  0  0  0  0  0  0  0  0
   63.3476   32.4106   46.4929 H   0  0  0  0  0  0  0  0  0  0  0  0
   60.7996   32.4462   51.7832 H   0  0  0  0  0  0  0  0  0  0  0  0
   61.0020   34.0375   50.9748 H   0  0  0  0  0  0  0  0  0  0  0  0
   59.3987   33.2275   50.9748 H   0  0  0  0  0  0  0  0  0  0  0  0
   58.1302   30.7070   48.6173 H   0  0  0  0  0  0  0  0  0  0  0  0
   58.2727   31.6881   50.1256 H   0  0  0  0  0  0  0  0  0  0  0  0
   59.8642   34.5321   48.4586 H   0  0  0  0  0  0  0  0  0  0  0  0
   60.6530   35.8569   46.4955 H   0  0  0  0  0  0  0  0  0  0  0  0
   59.5788   35.5479   44.2639 H   0  0  0  0  0  0  0  0  0  0  0  0
   57.7014   33.9241   43.9940 H   0  0  0  0  0  0  0  0  0  0  0  0
   56.8977   32.6075   45.9538 H   0  0  0  0  0  0  0  0  0  0  0  0
   58.1460   31.1760   46.8330 H   0  0  0  0  0  0  0  0  0  0  0  0
   57.3228   30.3197   44.7788 H   0  0  0  0  0  0  0  0  0  0  0  0
   58.9755   29.7577   44.3343 H   0  0  0  0  0  0  0  0  0  0  0  0
   59.9762   27.9708   46.0698 H   0  0  0  0  0  0  0  0  0  0  0  0
   59.4899   25.6335   46.7762 H   0  0  0  0  0  0  0  0  0  0  0  0
   57.1538   24.7705   46.7384 H   0  0  0  0  0  0  0  0  0  0  0  0
   56.1831   23.2917   44.6911 H   0  0  0  0  0  0  0  0  0  0  0  0
   54.6939   23.2592   43.6873 H   0  0  0  0  0  0  0  0  0  0  0  0
   55.7455   24.7155   43.6873 H   0  0  0  0  0  0  0  0  0  0  0  0
  1  2  1  0
  2  3  2  0
  3  4  1  0
  4  5  1  0
  4  6  1  0
  6  7  1  0
  7  8  1  0
  8  9  1  0
  9 10  2  0
 10 11  1  0
 11 12  2  0
 12 13  1  0
 13 14  2  0
  6 15  2  0
 15 16  1  0
 16 17  2  0
 16 18  1  0
 18 19  1  0
 19 20  1  0
 20 21  2  0
 21 22  1  0
 22 23  2  0
 23 24  1  0
 24 25  1  0
 25 26  1  0
 26 27  1  0
 26 28  2  0
 26 29  2  0
 24 30  2  0
 30 31  1  0
 15  2  1  0
 30 20  1  0
 14  9  1  0
  1 32  1  0
  1 33  1  0
  1 34  1  0
  5 35  1  0
  5 36  1  0
  5 37  1  0
  7 38  1  0
  7 39  1  0
 10 40  1  0
 11 41  1  0
 12 42  1  0
 13 43  1  0
 14 44  1  0
 18 45  1  0
 19 46  1  0
 19 47  1  0
 21 48  1  0
 22 49  1  0
 23 50  1  0
 27 51  1  0
 27 52  1  0
 27 53  1  0
M  CHG  2  25  -1  31  -1
M  END
>  <UniqueID>  (93) 
87

>  <SMILES>  (93) 
Cc1nn(C)c(COc2ccccc2)c1C(=O)NCc1cccc([N-]S(C)(=O)=O)c1[O-]

>  <Energy>  (93) 
81.6488776917495

>  <Genealogy>  (93) 
Cc1nn(C)c(COc2ccccc2)c1C(=O)NCc1cccc([N-]S(C)(=O)=O)c1[O-] (protonated)
Cc1nn(C)c(COc2ccccc2)c1C(=O)NCc1cccc([N-]S(C)(=O)=O)c1[O-] (3D coordinates assigned)
Cc1nn(C)c(COc2ccccc2)c1C(=O)NCc1cccc([N-]S(C)(=O)=O)c1[O-] (optimized conformer: 81.6488776917495 kcal/mol)

>  <smiles>  (93) 
Cc1nn(C)c(COc2ccccc2)c1C(=O)NCc1cccc(NS(C)(=O)=O)c1O

>  <score_type>  (93) 
oracle

>  <origin>  (93) 
adg

>  <m_score__min__energy>  (93) 
-14.800000000000001

>  <m_primary>  (93) 
energy

$$$$
93:0
     RDKit          3D

 30 31  0  0  0  0  0  0  0  0999 V2000
   58.5381   29.9398   51.8219 H   0  0  0  0  0  0  0  0  0  0  0  0
   58.8560   30.0330   50.7730 C   0  0  0  0  0  0  0  0  0  0  0  0
   59.6000   29.0110   50.1760 C   0  0  0  0  0  0  0  0  0  0  0  0
   59.8669   28.1163   50.7576 H   0  0  0  0  0  0  0  0  0  0  0  0
   60.0080   29.1220   48.8370 C   0  0  0  0  0  0  0  0  0  0  0  0
   60.8290   28.0370   48.1920 C   0  0  0  0  0  0  0  0  0  0  0  0
   61.6923   27.8070   48.8337 H   0  0  0  0  0  0  0  0  0  0  0  0
   61.1701   28.3883   47.2070 H   0  0  0  0  0  0  0  0  0  0  0  0
   60.0290   26.8260   48.0100 N   0  0  0  0  0  0  0  0  0  0  0  0
   58.8540   26.7890   47.4520 C   0  0  0  0  0  0  0  0  0  0  0  0
   58.4600   27.8190   46.6590 N   0  0  0  0  0  0  0  0  0  0  0  0
   57.2430   27.8210   46.0530 C   0  0  0  0  0  0  0  0  0  0  0  0
   56.7880   29.1870   45.0430 S   0  0  0  0  0  0  0  0  0  0  0  0
   57.4040   30.4460   45.5850 O   0  0  0  0  0  0  0  0  0  0  0  0
   55.2920   29.3350   45.0510 O   0  0  0  0  0  0  0  0  0  0  0  0
   57.3360   28.9120   43.3730 C   0  0  0  0  0  0  0  0  0  0  0  0
   58.3191   28.4187   43.3862 H   0  0  0  0  0  0  0  0  0  0  0  0
   56.6110   28.2709   42.8501 H   0  0  0  0  0  0  0  0  0  0  0  0
   57.4167   29.8764   42.8501 H   0  0  0  0  0  0  0  0  0  0  0  0
   56.3730   26.7420   46.2490 C   0  0  0  0  0  0  0  0  0  0  0  0
   55.1180   26.7110   45.6470 O   0  0  0  0  0  0  0  0  0  0  0  0
   56.7910   25.6900   47.0690 C   0  0  0  0  0  0  0  0  0  0  0  0
   56.0390   24.7010   47.2710 O   0  0  0  0  0  0  0  0  0  0  0  0
   58.0160   25.7340   47.6510 N   0  0  0  0  0  0  0  0  0  0  0  0
   59.6660   30.2710   48.1060 C   0  0  0  0  0  0  0  0  0  0  0  0
   59.9850   30.3674   47.0577 H   0  0  0  0  0  0  0  0  0  0  0  0
   58.9210   31.2950   48.7040 C   0  0  0  0  0  0  0  0  0  0  0  0
   58.5040   32.7240   47.7750 Cl  0  0  0  0  0  0  0  0  0  0  0  0
   58.5150   31.1740   50.0390 C   0  0  0  0  0  0  0  0  0  0  0  0
   57.7950   32.1610   50.6290 F   0  0  0  0  0  0  0  0  0  0  0  0
  1  2  1  0
  2  3  2  0
  3  4  1  0
  3  5  1  0
  5  6  1  0
  6  7  1  0
  6  8  1  0
  6  9  1  0
  9 10  2  0
 10 11  1  0
 11 12  1  0
 12 13  1  0
 13 14  2  0
 13 15  2  0
 13 16  1  0
 16 17  1  0
 16 18  1  0
 16 19  1  0
 12 20  2  0
 20 21  1  0
 20 22  1  0
 22 23  2  0
 22 24  1  0
  5 25  2  0
 25 26  1  0
 25 27  1  0
 27 28  1  0
 27 29  2  0
 29 30  1  0
 29  2  1  0
 24 10  1  0
M  CHG  3  11  -1  21  -1  24  -1
M  END
>  <UniqueID>  (94) 
88

>  <SMILES>  (94) 
CS(=O)(=O)c1[n-]/c(=N/Cc2ccc(F)c(Cl)c2)[n-]c(=O)c1[O-]

>  <Energy>  (94) 
28.92166619945741

>  <Genealogy>  (94) 
CS(=O)(=O)c1[n-]c(=NCc2ccc(F)c(Cl)c2)[n-]c(=O)c1[O-] (protonated)
CS(=O)(=O)c1[n-]/c(=N/Cc2ccc(F)c(Cl)c2)[n-]c(=O)c1[O-] (cis-trans isomerization)
CS(=O)(=O)c1[n-]/c(=N/Cc2ccc(F)c(Cl)c2)[n-]c(=O)c1[O-] (3D coordinates assigned)
CS(=O)(=O)c1[n-]/c(=N/Cc2ccc(F)c(Cl)c2)[n-]c(=O)c1[O-] (optimized conformer: 28.92166619945741 kcal/mol)

>  <smiles>  (94) 
CS(=O)(=O)c1[nH]c(=NCc2ccc(F)c(Cl)c2)[nH]c(=O)c1O

>  <score_type>  (94) 
oracle

>  <origin>  (94) 
adg

>  <m_score__min__energy>  (94) 
-12.960000000000001

>  <m_primary>  (94) 
energy

$$$$
94:0
     RDKit          3D

 40 42  0  0  0  0  0  0  0  0999 V2000
   55.5010   29.3800   44.8690 O   0  0  0  0  0  0  0  0  0  0  0  0
   56.7430   29.3150   45.0720 C   0  0  0  0  0  0  0  0  0  0  0  0
   57.3580   28.0020   45.4480 C   0  0  0  0  0  0  0  0  0  0  0  0
   59.1000   27.9260   44.9080 S   0  0  0  0  0  0  0  0  0  0  0  0
   59.7290   28.8540   46.3060 C   0  0  0  0  0  0  0  0  0  0  0  0
   60.4330   29.9950   46.1710 N   0  0  0  0  0  0  0  0  0  0  0  0
   60.7250   30.3430   47.4380 C   0  0  0  0  0  0  0  0  0  0  0  0
   61.5120   31.5480   47.7990 C   0  0  0  0  0  0  0  0  0  0  0  0
   62.7430   31.7980   47.1630 C   0  0  0  0  0  0  0  0  0  0  0  0
   63.4970   32.9270   47.4930 C   0  0  0  0  0  0  0  0  0  0  0  0
   63.0340   33.8200   48.4610 C   0  0  0  0  0  0  0  0  0  0  0  0
   61.8150   33.5860   49.0990 C   0  0  0  0  0  0  0  0  0  0  0  0
   61.0560   32.4570   48.7730 C   0  0  0  0  0  0  0  0  0  0  0  0
   60.1890   29.4050   48.2990 C   0  0  0  0  0  0  0  0  0  0  0  0
   59.5550   28.4610   47.5820 N   0  0  0  0  0  0  0  0  0  0  0  0
   57.5700   30.4770   44.9110 N   0  0  0  0  0  0  0  0  0  0  0  0
   57.0520   31.7790   44.4860 C   0  0  0  0  0  0  0  0  0  0  0  0
   58.1680   32.8340   44.4580 C   0  0  1  0  0  0  0  0  0  0  0  0
   57.6850   34.2150   44.8890 C   0  0  0  0  0  0  0  0  0  0  0  0
   58.8740   34.7700   45.6070 C   0  0  0  0  0  0  0  0  0  0  0  0
   59.5760   33.5260   46.1090 C   0  0  0  0  0  0  0  0  0  0  0  0
   59.2430   32.4350   45.2810 O   0  0  0  0  0  0  0  0  0  0  0  0
   57.3133   27.8822   46.5405 H   0  0  0  0  0  0  0  0  0  0  0  0
   56.7988   27.1950   44.9519 H   0  0  0  0  0  0  0  0  0  0  0  0
   63.1143   31.0984   46.3997 H   0  0  0  0  0  0  0  0  0  0  0  0
   64.4571   33.1125   46.9892 H   0  0  0  0  0  0  0  0  0  0  0  0
   63.6296   34.7076   48.7207 H   0  0  0  0  0  0  0  0  0  0  0  0
   61.4500   34.2912   49.8602 H   0  0  0  0  0  0  0  0  0  0  0  0
   60.0968   32.2782   49.2808 H   0  0  0  0  0  0  0  0  0  0  0  0
   60.2683   29.4270   49.3959 H   0  0  0  0  0  0  0  0  0  0  0  0
   58.5970   30.3900   45.0840 H   0  0  0  0  0  0  0  0  0  0  0  0
   56.6223   31.6833   43.4779 H   0  0  0  0  0  0  0  0  0  0  0  0
   56.2835   32.1013   45.2040 H   0  0  0  0  0  0  0  0  0  0  0  0
   58.5011   32.9098   43.4124 H   0  0  0  0  0  0  0  0  0  0  0  0
   57.4235   34.8335   44.0178 H   0  0  0  0  0  0  0  0  0  0  0  0
   56.7759   34.1860   45.5076 H   0  0  0  0  0  0  0  0  0  0  0  0
   59.5195   35.3398   44.9224 H   0  0  0  0  0  0  0  0  0  0  0  0
   58.6078   35.4729   46.4101 H   0  0  0  0  0  0  0  0  0  0  0  0
   60.6643   33.6846   46.0874 H   0  0  0  0  0  0  0  0  0  0  0  0
   59.2579   33.3152   47.1407 H   0  0  0  0  0  0  0  0  0  0  0  0
  1  2  2  0
  2  3  1  0
  3  4  1  0
  4  5  1  0
  5  6  2  0
  6  7  1  0
  7  8  1  0
  8  9  2  0
  9 10  1  0
 10 11  2  0
 11 12  1  0
 12 13  2  0
  7 14  2  0
 14 15  1  0
  2 16  1  0
 16 17  1  0
 17 18  1  0
 18 19  1  0
 19 20  1  0
 20 21  1  0
 21 22  1  0
 15  5  1  0
 22 18  1  0
 13  8  1  0
  3 23  1  0
  3 24  1  0
  9 25  1  0
 10 26  1  0
 11 27  1  0
 12 28  1  0
 13 29  1  0
 14 30  1  0
 16 31  1  0
 17 32  1  0
 17 33  1  0
 18 34  1  6
 19 35  1  0
 19 36  1  0
 20 37  1  0
 20 38  1  0
 21 39  1  0
 21 40  1  0
M  CHG  1  15  -1
M  END
>  <UniqueID>  (95) 
89

>  <SMILES>  (95) 
O=C(CSc1nc(-c2ccccc2)c[n-]1)NC[C@H]1CCCO1

>  <Energy>  (95) 
61.440932037218445

>  <Genealogy>  (95) 
O=C(CSc1nc(-c2ccccc2)c[n-]1)NCC1CCCO1 (protonated)
O=C(CSc1nc(-c2ccccc2)c[n-]1)NC[C@H]1CCCO1 (chirality)
O=C(CSc1nc(-c2ccccc2)c[n-]1)NC[C@H]1CCCO1 (3D coordinates assigned)
O=C(CSc1nc(-c2ccccc2)c[n-]1)NC[C@H]1CCCO1 (nonaromatic ring conformer: 61.440932037218445 kcal/mol)

>  <smiles>  (95) 
O=C(CSc1nc(-c2ccccc2)c[nH]1)NCC1CCCO1

>  <score_type>  (95) 
oracle

>  <origin>  (95) 
adg

>  <m_score__min__energy>  (95) 
-7.8700000000000001

>  <m_primary>  (95) 
energy

$$$$
