0:0
     RDKit          3D

 28 28  0  0  0  0  0  0  0  0999 V2000
   55.9920   29.9440   43.5750 C   0  0  0  0  0  0  0  0  0  0  0  0
   56.5260   30.4990   44.8310 N   0  0  0  0  0  0  0  0  0  0  0  0
   57.3910   31.6510   44.5250 C   0  0  0  0  0  0  0  0  0  0  0  0
   57.2840   29.4780   45.5860 C   0  0  0  0  0  0  0  0  0  0  0  0
   57.0580   28.0860   44.9950 C   0  0  0  0  0  0  0  0  0  0  0  0
   55.8920   27.4720   45.6220 N   0  0  0  0  0  0  0  0  0  0  0  0
   55.6760   26.0590   45.7180 C   0  0  0  0  0  0  0  0  0  0  0  0
   54.5160   25.6370   45.9690 O   0  0  0  0  0  0  0  0  0  0  0  0
   56.7750   25.0880   45.5440 C   0  0  0  0  0  0  0  0  0  0  0  0
   58.0050   25.3020   46.1830 C   0  0  0  0  0  0  0  0  0  0  0  0
   59.0520   24.3980   46.0090 C   0  0  0  0  0  0  0  0  0  0  0  0
   58.8650   23.2860   45.1870 C   0  0  0  0  0  0  0  0  0  0  0  0
   57.6730   23.0940   44.5640 N   0  0  0  0  0  0  0  0  0  0  0  0
   56.6330   23.9590   44.7140 C   0  0  0  0  0  0  0  0  0  0  0  0
   55.1240   23.6040   43.8840 Cl  0  0  0  0  0  0  0  0  0  0  0  0
   55.2461   29.1688   43.8046 H   0  0  0  0  0  0  0  0  0  0  0  0
   55.5184   30.7471   42.9914 H   0  0  0  0  0  0  0  0  0  0  0  0
   56.8128   29.5017   42.9914 H   0  0  0  0  0  0  0  0  0  0  0  0
   57.7357   32.1101   45.4633 H   0  0  0  0  0  0  0  0  0  0  0  0
   58.2599   31.3124   43.9416 H   0  0  0  0  0  0  0  0  0  0  0  0
   56.8234   32.3909   43.9416 H   0  0  0  0  0  0  0  0  0  0  0  0
   58.3564   29.7189   45.5413 H   0  0  0  0  0  0  0  0  0  0  0  0
   56.9342   29.4791   46.6289 H   0  0  0  0  0  0  0  0  0  0  0  0
   56.8888   28.1713   43.9114 H   0  0  0  0  0  0  0  0  0  0  0  0
   57.9443   27.4616   45.1809 H   0  0  0  0  0  0  0  0  0  0  0  0
   58.1440   26.1856   46.8233 H   0  0  0  0  0  0  0  0  0  0  0  0
   60.0155   24.5597   46.5145 H   0  0  0  0  0  0  0  0  0  0  0  0
   59.6829   22.5646   45.0434 H   0  0  0  0  0  0  0  0  0  0  0  0
  1  2  1  0
  2  3  1  0
  2  4  1  0
  4  5  1  0
  5  6  1  0
  6  7  1  0
  7  8  2  0
  7  9  1  0
  9 10  2  0
 10 11  1  0
 11 12  2  0
 12 13  1  0
 13 14  2  0
 14 15  1  0
 14  9  1  0
  1 16  1  0
  1 17  1  0
  1 18  1  0
  3 19  1  0
  3 20  1  0
  3 21  1  0
  4 22  1  0
  4 23  1  0
  5 24  1  0
  5 25  1  0
 10 26  1  0
 11 27  1  0
 12 28  1  0
M  CHG  1   6  -1
M  END
>  <UniqueID>  (1) 
1

>  <SMILES>  (1) 
CN(C)CC[N-]C(=O)c1cccnc1Cl

>  <Energy>  (1) 
30.431232858935427

>  <Genealogy>  (1) 
CN(C)CC[N-]C(=O)c1cccnc1Cl (protonated)
CN(C)CC[N-]C(=O)c1cccnc1Cl (3D coordinates assigned)
CN(C)CC[N-]C(=O)c1cccnc1Cl (optimized conformer: 30.431232858935427 kcal/mol)

>  <smiles>  (1) 
CN(C)CCNC(=O)c1cccnc1Cl

>  <score_type>  (1) 
oracle

>  <origin>  (1) 
adg

>  <m_score__min__energy>  (1) 
-7.5

>  <m_primary>  (1) 
energy

$$$$
1:0
     RDKit          3D

 51 54  0  0  0  0  0  0  0  0999 V2000
   58.5450   33.0960   53.6640 C   0  0  0  0  0  0  0  0  0  0  0  0
   58.5120   31.9760   52.6920 C   0  0  0  0  0  0  0  0  0  0  0  0
   58.3890   30.6880   53.1810 C   0  0  0  0  0  0  0  0  0  0  0  0
   58.3580   29.6460   52.2510 C   0  0  0  0  0  0  0  0  0  0  0  0
   58.4540   29.9260   50.8830 C   0  0  0  0  0  0  0  0  0  0  0  0
   58.5760   31.2200   50.4290 C   0  0  0  0  0  0  0  0  0  0  0  0
   58.6720   31.4360   48.9700 C   0  0  0  0  0  0  0  0  0  0  0  0
   59.0210   30.4610   48.2970 O   0  0  0  0  0  0  0  0  0  0  0  0
   58.3900   32.6700   48.3550 N   0  0  0  0  0  0  0  0  0  0  0  0
   58.4530   32.9770   46.9870 C   0  0  0  0  0  0  0  0  0  0  0  0
   58.8140   34.2830   46.6270 C   0  0  0  0  0  0  0  0  0  0  0  0
   58.9050   34.6730   45.3110 C   0  0  0  0  0  0  0  0  0  0  0  0
   58.6430   33.7890   44.2910 C   0  0  0  0  0  0  0  0  0  0  0  0
   58.2860   32.5000   44.6040 C   0  0  0  0  0  0  0  0  0  0  0  0
   57.9740   31.4600   43.5850 C   0  0  0  0  0  0  0  0  0  0  0  0
   57.5820   30.2300   44.2940 C   0  0  0  0  0  0  0  0  0  0  0  0
   56.2470   30.0770   44.5450 N   0  0  0  0  0  0  0  0  0  0  0  0
   55.7900   28.9990   45.1470 N   0  0  0  0  0  0  0  0  0  0  0  0
   56.5600   27.9800   45.5600 C   0  0  0  0  0  0  0  0  0  0  0  0
   56.0420   27.0050   46.1180 O   0  0  0  0  0  0  0  0  0  0  0  0
   57.9200   28.1000   45.3230 C   0  0  0  0  0  0  0  0  0  0  0  0
   58.4300   29.2290   44.6890 C   0  0  0  0  0  0  0  0  0  0  0  0
   59.8950   29.3410   44.4720 C   0  0  0  0  0  0  0  0  0  0  0  0
   60.5580   28.8750   45.7670 C   0  0  0  0  0  0  0  0  0  0  0  0
   60.1410   27.5360   46.2360 C   0  0  0  0  0  0  0  0  0  0  0  0
   58.8380   27.0200   45.7390 C   0  0  0  0  0  0  0  0  0  0  0  0
   58.2000   32.1270   45.9470 C   0  0  0  0  0  0  0  0  0  0  0  0
   58.6050   32.2470   51.3380 C   0  0  0  0  0  0  0  0  0  0  0  0
   58.5331   32.6936   54.6877 H   0  0  0  0  0  0  0  0  0  0  0  0
   59.4609   33.6861   53.5126 H   0  0  0  0  0  0  0  0  0  0  0  0
   57.6654   33.7390   53.5126 H   0  0  0  0  0  0  0  0  0  0  0  0
   58.3183   30.4916   54.2610 H   0  0  0  0  0  0  0  0  0  0  0  0
   58.2582   28.6056   52.5938 H   0  0  0  0  0  0  0  0  0  0  0  0
   58.4316   29.0985   50.1586 H   0  0  0  0  0  0  0  0  0  0  0  0
   58.0970   33.4510   49.0160 H   0  0  0  0  0  0  0  0  0  0  0  0
   59.0303   35.0157   47.4184 H   0  0  0  0  0  0  0  0  0  0  0  0
   59.1917   35.7075   45.0711 H   0  0  0  0  0  0  0  0  0  0  0  0
   58.7181   34.1088   43.2412 H   0  0  0  0  0  0  0  0  0  0  0  0
   57.1472   31.8012   42.9447 H   0  0  0  0  0  0  0  0  0  0  0  0
   58.8526   31.2714   42.9506 H   0  0  0  0  0  0  0  0  0  0  0  0
   54.7460   28.9650   45.3010 H   0  0  0  0  0  0  0  0  0  0  0  0
   60.2057   28.7006   43.6333 H   0  0  0  0  0  0  0  0  0  0  0  0
   60.1843   30.3729   44.2240 H   0  0  0  0  0  0  0  0  0  0  0  0
   61.6460   28.8566   45.6059 H   0  0  0  0  0  0  0  0  0  0  0  0
   60.2438   29.5852   46.5460 H   0  0  0  0  0  0  0  0  0  0  0  0
   60.9189   26.8208   45.9307 H   0  0  0  0  0  0  0  0  0  0  0  0
   60.0089   27.6433   47.3228 H   0  0  0  0  0  0  0  0  0  0  0  0
   59.0250   26.3646   44.8756 H   0  0  0  0  0  0  0  0  0  0  0  0
   58.3584   26.4755   46.5657 H   0  0  0  0  0  0  0  0  0  0  0  0
   57.9126   31.0913   46.1809 H   0  0  0  0  0  0  0  0  0  0  0  0
   58.7022   33.2862   50.9906 H   0  0  0  0  0  0  0  0  0  0  0  0
  1  2  1  0
  2  3  2  0
  3  4  1  0
  4  5  2  0
  5  6  1  0
  6  7  1  0
  7  8  2  0
  7  9  1  0
  9 10  1  0
 10 11  2  0
 11 12  1  0
 12 13  2  0
 13 14  1  0
 14 15  1  0
 15 16  1  0
 16 17  2  0
 17 18  1  0
 18 19  1  0
 19 20  2  0
 19 21  1  0
 21 22  2  0
 22 23  1  0
 23 24  1  0
 24 25  1  0
 25 26  1  0
 14 27  2  0
  6 28  2  0
 28  2  1  0
 27 10  1  0
 22 16  1  0
 26 21  1  0
  1 29  1  0
  1 30  1  0
  1 31  1  0
  3 32  1  0
  4 33  1  0
  5 34  1  0
  9 35  1  0
 11 36  1  0
 12 37  1  0
 13 38  1  0
 15 39  1  0
 15 40  1  0
 18 41  1  0
 23 42  1  0
 23 43  1  0
 24 44  1  0
 24 45  1  0
 25 46  1  0
 25 47  1  0
 26 48  1  0
 26 49  1  0
 27 50  1  0
 28 51  1  0
M  END
>  <smiles>  (2) 
Cc1cccc(C(=O)Nc2cccc(Cc3n[nH]c(=O)c4c3CCCC4)c2)c1

>  <score_type>  (2) 
oracle

>  <origin>  (2) 
adg

>  <m_score__min__energy>  (2) 
-10.35

>  <m_primary>  (2) 
energy

$$$$
2:0
     RDKit          3D

 38 40  0  0  0  0  0  0  0  0999 V2000
   62.8610   31.2970   47.2730 C   0  0  0  0  0  0  0  0  0  0  0  0
   63.5340   32.5350   47.7110 N   0  0  0  0  0  0  0  0  0  0  0  0
   63.4760   33.5370   46.6320 C   0  0  0  0  0  0  0  0  0  0  0  0
   62.9130   33.0780   48.9420 C   0  0  0  0  0  0  0  0  0  0  0  0
   61.9320   34.2380   48.6460 C   0  0  0  0  0  0  0  0  0  0  0  0
   60.5400   33.7730   48.5310 N   0  0  0  0  0  0  0  0  0  0  0  0
   59.8500   33.2240   49.6790 C   0  0  0  0  0  0  0  0  0  0  0  0
   59.9720   33.8060   50.9560 C   0  0  0  0  0  0  0  0  0  0  0  0
   59.1730   33.3620   52.0140 C   0  0  0  0  0  0  0  0  0  0  0  0
   58.2430   32.3390   51.8110 C   0  0  0  0  0  0  0  0  0  0  0  0
   58.1300   31.7360   50.5560 C   0  0  0  0  0  0  0  0  0  0  0  0
   58.9440   32.1600   49.5000 C   0  0  0  0  0  0  0  0  0  0  0  0
   58.9390   31.2570   47.9520 S   0  0  0  0  0  0  0  0  0  0  0  0
   58.9440   32.7460   46.9560 C   0  0  0  0  0  0  0  0  0  0  0  0
   58.1200   32.8270   45.8280 C   0  0  0  0  0  0  0  0  0  0  0  0
   58.2120   33.9280   44.9740 C   0  0  0  0  0  0  0  0  0  0  0  0
   59.1250   34.9490   45.2470 C   0  0  0  0  0  0  0  0  0  0  0  0
   59.9330   34.8840   46.3860 C   0  0  0  0  0  0  0  0  0  0  0  0
   59.8440   33.7860   47.2610 C   0  0  0  0  0  0  0  0  0  0  0  0
   62.5467   30.7189   48.1545 H   0  0  0  0  0  0  0  0  0  0  0  0
   61.9782   31.5536   46.6690 H   0  0  0  0  0  0  0  0  0  0  0  0
   63.5564   30.6956   46.6690 H   0  0  0  0  0  0  0  0  0  0  0  0
   64.5430   32.3210   47.8910 H   0  0  0  0  0  0  0  0  0  0  0  0
   63.4177   34.5444   47.0699 H   0  0  0  0  0  0  0  0  0  0  0  0
   64.3802   33.4592   46.0103 H   0  0  0  0  0  0  0  0  0  0  0  0
   62.5869   33.3554   46.0103 H   0  0  0  0  0  0  0  0  0  0  0  0
   62.3626   32.2699   49.4460 H   0  0  0  0  0  0  0  0  0  0  0  0
   63.7188   33.4742   49.5773 H   0  0  0  0  0  0  0  0  0  0  0  0
   61.9941   34.9718   49.4632 H   0  0  0  0  0  0  0  0  0  0  0  0
   62.2192   34.6860   47.6833 H   0  0  0  0  0  0  0  0  0  0  0  0
   60.6997   34.6141   51.1217 H   0  0  0  0  0  0  0  0  0  0  0  0
   59.2768   33.8193   53.0090 H   0  0  0  0  0  0  0  0  0  0  0  0
   57.5997   32.0084   52.6397 H   0  0  0  0  0  0  0  0  0  0  0  0
   57.4009   30.9277   50.3980 H   0  0  0  0  0  0  0  0  0  0  0  0
   57.3999   32.0235   45.6140 H   0  0  0  0  0  0  0  0  0  0  0  0
   57.5654   33.9911   44.0863 H   0  0  0  0  0  0  0  0  0  0  0  0
   59.2086   35.8070   44.5637 H   0  0  0  0  0  0  0  0  0  0  0  0
   60.6430   35.6967   46.5994 H   0  0  0  0  0  0  0  0  0  0  0  0
  1  2  1  0
  2  3  1  0
  2  4  1  0
  4  5  1  0
  5  6  1  0
  6  7  1  0
  7  8  2  0
  8  9  1  0
  9 10  2  0
 10 11  1  0
 11 12  2  0
 12 13  1  0
 13 14  1  0
 14 15  2  0
 15 16  1  0
 16 17  2  0
 17 18  1  0
 18 19  2  0
 19  6  1  0
 12  7  1  0
 19 14  1  0
  1 20  1  0
  1 21  1  0
  1 22  1  0
  2 23  1  0
  3 24  1  0
  3 25  1  0
  3 26  1  0
  4 27  1  0
  4 28  1  0
  5 29  1  0
  5 30  1  0
  8 31  1  0
  9 32  1  0
 10 33  1  0
 11 34  1  0
 15 35  1  0
 16 36  1  0
 17 37  1  0
 18 38  1  0
M  CHG  1   2   1
M  END
>  <UniqueID>  (3) 
2

>  <SMILES>  (3) 
C[NH+](C)CCN1c2ccccc2Sc2ccccc21

>  <Energy>  (3) 
59.26272813852882

>  <Genealogy>  (3) 
C[NH+](C)CCN1c2ccccc2Sc2ccccc21 (protonated)
C[NH+](C)CCN1c2ccccc2Sc2ccccc21 (3D coordinates assigned)
C[NH+](C)CCN1c2ccccc2Sc2ccccc21 (nonaromatic ring conformer: 59.26272813852882 kcal/mol)

>  <smiles>  (3) 
CN(C)CCN1c2ccccc2Sc2ccccc21

>  <score_type>  (3) 
oracle

>  <origin>  (3) 
adg

>  <m_score__min__energy>  (3) 
-5.3600000000000003

>  <m_primary>  (3) 
energy

$$$$
3:0
     RDKit          3D

 35 37  0  0  0  0  0  0  0  0999 V2000
   55.5100   30.1160   44.5330 O   0  0  0  0  0  0  0  0  0  0  0  0
   56.7610   30.1980   44.4010 C   0  0  0  0  0  0  0  0  0  0  0  0
   57.4800   29.0330   43.7740 C   0  0  0  0  0  0  0  0  0  0  0  0
   58.3840   28.3620   44.7700 C   0  0  0  0  0  0  0  0  0  0  0  0
   57.9160   27.5000   45.7750 C   0  0  0  0  0  0  0  0  0  0  0  0
   58.9230   26.9840   46.5780 C   0  0  0  0  0  0  0  0  0  0  0  0
   60.3890   27.5930   46.0300 S   0  0  0  0  0  0  0  0  0  0  0  0
   59.7660   28.5160   44.7720 C   0  0  0  0  0  0  0  0  0  0  0  0
   57.4710   31.4110   44.8970 C   0  0  0  0  0  0  0  0  0  0  0  0
   57.4520   32.5940   44.1320 C   0  0  0  0  0  0  0  0  0  0  0  0
   58.1070   33.7440   44.5820 C   0  0  0  0  0  0  0  0  0  0  0  0
   58.7960   33.7320   45.7970 C   0  0  0  0  0  0  0  0  0  0  0  0
   59.6410   35.2060   46.3690 S   0  0  0  0  0  0  0  0  0  0  0  0
   60.9470   34.2650   47.1650 C   0  0  0  0  0  0  0  0  0  0  0  0
   62.0470   33.8320   46.4140 C   0  0  0  0  0  0  0  0  0  0  0  0
   63.0720   33.1030   47.0270 C   0  0  0  0  0  0  0  0  0  0  0  0
   62.9970   32.8010   48.3900 C   0  0  0  0  0  0  0  0  0  0  0  0
   63.9900   32.0950   48.9830 F   0  0  0  0  0  0  0  0  0  0  0  0
   61.8960   33.2270   49.1410 C   0  0  0  0  0  0  0  0  0  0  0  0
   60.8700   33.9560   48.5310 C   0  0  0  0  0  0  0  0  0  0  0  0
   59.8060   34.3600   49.2690 F   0  0  0  0  0  0  0  0  0  0  0  0
   58.8210   32.5660   46.5680 C   0  0  0  0  0  0  0  0  0  0  0  0
   58.1680   31.4130   46.1230 C   0  0  0  0  0  0  0  0  0  0  0  0
   56.7391   28.3048   43.4123 H   0  0  0  0  0  0  0  0  0  0  0  0
   58.0917   29.4055   42.9391 H   0  0  0  0  0  0  0  0  0  0  0  0
   56.8520   27.2569   45.9125 H   0  0  0  0  0  0  0  0  0  0  0  0
   58.7852   26.2963   47.4254 H   0  0  0  0  0  0  0  0  0  0  0  0
   60.3489   29.1336   44.0728 H   0  0  0  0  0  0  0  0  0  0  0  0
   56.9165   32.6128   43.1713 H   0  0  0  0  0  0  0  0  0  0  0  0
   58.0797   34.6622   43.9768 H   0  0  0  0  0  0  0  0  0  0  0  0
   62.1052   34.0654   45.3406 H   0  0  0  0  0  0  0  0  0  0  0  0
   63.9371   32.7674   46.4363 H   0  0  0  0  0  0  0  0  0  0  0  0
   61.8372   32.9881   50.2131 H   0  0  0  0  0  0  0  0  0  0  0  0
   59.3567   32.5559   47.5287 H   0  0  0  0  0  0  0  0  0  0  0  0
   58.1980   30.4991   46.7345 H   0  0  0  0  0  0  0  0  0  0  0  0
  1  2  2  0
  2  3  1  0
  3  4  1  0
  4  5  1  0
  5  6  2  0
  6  7  1  0
  7  8  1  0
  2  9  1  0
  9 10  2  0
 10 11  1  0
 11 12  2  0
 12 13  1  0
 13 14  1  0
 14 15  2  0
 15 16  1  0
 16 17  2  0
 17 18  1  0
 17 19  1  0
 19 20  2  0
 20 21  1  0
 12 22  1  0
 22 23  2  0
  8  4  2  0
 23  9  1  0
 20 14  1  0
  3 24  1  0
  3 25  1  0
  5 26  1  0
  6 27  1  0
  8 28  1  0
 10 29  1  0
 11 30  1  0
 15 31  1  0
 16 32  1  0
 19 33  1  0
 22 34  1  0
 23 35  1  0
M  END
>  <UniqueID>  (4) 
3

>  <SMILES>  (4) 
O=C(Cc1ccsc1)c1ccc(Sc2ccc(F)cc2F)cc1

>  <Energy>  (4) 
59.05919361441929

>  <Genealogy>  (4) 
O=C(Cc1ccsc1)c1ccc(Sc2ccc(F)cc2F)cc1 (3D coordinates assigned)
O=C(Cc1ccsc1)c1ccc(Sc2ccc(F)cc2F)cc1 (optimized conformer: 59.05919361441929 kcal/mol)

>  <smiles>  (4) 
O=C(Cc1ccsc1)c1ccc(Sc2ccc(F)cc2F)cc1

>  <score_type>  (4) 
oracle

>  <origin>  (4) 
adg

>  <m_score__min__energy>  (4) 
-8.4000000000000004

>  <m_primary>  (4) 
energy

$$$$
4:0
     RDKit          3D

 38 41  0  0  0  0  0  0  0  0999 V2000
   59.2400   23.7860   45.7860 F   0  0  0  0  0  0  0  0  0  0  0  0
   58.3610   23.2490   44.9030 C   0  0  0  0  0  0  0  0  0  0  0  0
   58.3700   21.8650   44.6960 C   0  0  0  0  0  0  0  0  0  0  0  0
   57.5030   21.2870   43.7660 C   0  0  0  0  0  0  0  0  0  0  0  0
   56.6260   22.0900   43.0350 C   0  0  0  0  0  0  0  0  0  0  0  0
   56.6110   23.4740   43.2360 C   0  0  0  0  0  0  0  0  0  0  0  0
   57.4740   24.0680   44.1750 C   0  0  0  0  0  0  0  0  0  0  0  0
   57.4450   25.5370   44.3830 C   0  0  0  0  0  0  0  0  0  0  0  0
   57.0510   26.0710   45.6200 C   0  0  0  0  0  0  0  0  0  0  0  0
   57.0280   27.4540   45.8200 C   0  0  0  0  0  0  0  0  0  0  0  0
   57.4040   28.3330   44.7890 C   0  0  0  0  0  0  0  0  0  0  0  0
   57.3720   29.7990   45.0220 C   0  0  0  0  0  0  0  0  0  0  0  0
   56.6590   30.7450   44.3110 C   0  0  0  0  0  0  0  0  0  0  0  0
   56.8880   31.9590   44.8380 N   0  0  0  0  0  0  0  0  0  0  0  0
   57.7460   31.7180   45.8520 C   0  0  0  0  0  0  0  0  0  0  0  0
   58.2420   32.7860   46.7700 C   0  0  0  0  0  0  0  0  0  0  0  0
   58.2630   34.1310   46.0360 C   0  0  0  0  0  0  0  0  0  0  0  0
   59.4660   35.0100   46.3410 C   0  0  0  0  0  0  0  0  0  0  0  0
   59.3650   34.2980   45.0010 C   0  0  0  0  0  0  0  0  0  0  0  0
   58.0570   30.4150   46.0050 N   0  0  0  0  0  0  0  0  0  0  0  0
   57.8050   27.7960   43.5540 C   0  0  0  0  0  0  0  0  0  0  0  0
   57.8260   26.4130   43.3540 C   0  0  0  0  0  0  0  0  0  0  0  0
   59.0625   21.2299   45.2679 H   0  0  0  0  0  0  0  0  0  0  0  0
   57.5113   20.1982   43.6095 H   0  0  0  0  0  0  0  0  0  0  0  0
   55.9461   21.6340   42.3003 H   0  0  0  0  0  0  0  0  0  0  0  0
   55.9195   24.1026   42.6558 H   0  0  0  0  0  0  0  0  0  0  0  0
   56.7583   25.3961   46.4378 H   0  0  0  0  0  0  0  0  0  0  0  0
   56.7128   27.8586   46.7931 H   0  0  0  0  0  0  0  0  0  0  0  0
   56.0071   30.5369   43.4498 H   0  0  0  0  0  0  0  0  0  0  0  0
   57.5759   32.8562   47.6425 H   0  0  0  0  0  0  0  0  0  0  0  0
   59.2608   32.5365   47.1014 H   0  0  0  0  0  0  0  0  0  0  0  0
   57.1717   34.2690   46.0367 H   0  0  0  0  0  0  0  0  0  0  0  0
   59.3497   36.1026   46.3934 H   0  0  0  0  0  0  0  0  0  0  0  0
   60.2152   35.0512   47.1453 H   0  0  0  0  0  0  0  0  0  0  0  0
   59.1756   34.8756   44.0842 H   0  0  0  0  0  0  0  0  0  0  0  0
   60.0108   33.6109   44.4347 H   0  0  0  0  0  0  0  0  0  0  0  0
   58.1049   28.4698   42.7378 H   0  0  0  0  0  0  0  0  0  0  0  0
   58.1437   26.0073   42.3822 H   0  0  0  0  0  0  0  0  0  0  0  0
  1  2  1  0
  2  3  2  0
  3  4  1  0
  4  5  2  0
  5  6  1  0
  6  7  2  0
  7  8  1  0
  8  9  2  0
  9 10  1  0
 10 11  2  0
 11 12  1  0
 12 13  2  0
 13 14  1  0
 14 15  1  0
 15 16  1  0
 16 17  1  0
 17 18  1  0
 18 19  1  0
 15 20  2  0
 11 21  1  0
 21 22  2  0
  7  2  1  0
 22  8  1  0
 20 12  1  0
 19 17  1  0
  3 23  1  0
  4 24  1  0
  5 25  1  0
  6 26  1  0
  9 27  1  0
 10 28  1  0
 13 29  1  0
 16 30  1  0
 16 31  1  0
 17 32  1  0
 18 33  1  0
 18 34  1  0
 19 35  1  0
 19 36  1  0
 21 37  1  0
 22 38  1  0
M  CHG  1  14  -1
M  END
>  <UniqueID>  (5) 
4

>  <SMILES>  (5) 
Fc1ccccc1-c1ccc(-c2c[n-]c(CC3CC3)n2)cc1

>  <Energy>  (5) 
337.8092801381103

>  <Genealogy>  (5) 
Fc1ccccc1-c1ccc(-c2c[n-]c(CC3CC3)n2)cc1 (protonated)
Fc1ccccc1-c1ccc(-c2c[n-]c(CC3CC3)n2)cc1 (3D coordinates assigned)
Fc1ccccc1-c1ccc(-c2c[n-]c(CC3CC3)n2)cc1 (nonaromatic ring conformer: 337.8092801381103 kcal/mol)

>  <smiles>  (5) 
Fc1ccccc1-c1ccc(-c2c[nH]c(CC3CC3)n2)cc1

>  <score_type>  (5) 
oracle

>  <origin>  (5) 
adg

>  <m_score__min__energy>  (5) 
-8.8699999999999992

>  <m_primary>  (5) 
energy

$$$$
5:0
     RDKit          3D

 42 45  0  0  1  0  0  0  0  0999 V2000
   59.2820   34.5430   47.2630 C   0  0  0  0  0  0  0  0  0  0  0  0
   58.4520   33.4500   47.4960 C   0  0  0  0  0  0  0  0  0  0  0  0
   57.8670   32.8280   46.4120 C   0  0  0  0  0  0  0  0  0  0  0  0
   58.0940   33.2730   45.1090 C   0  0  0  0  0  0  0  0  0  0  0  0
   57.4070   32.5190   44.0330 C   0  0  0  0  0  0  0  0  0  0  0  0
   57.8080   31.0430   44.0200 C   0  0  0  0  0  0  0  0  0  0  0  0
   56.8300   30.3390   44.8300 N   0  0  0  0  0  0  0  0  0  0  0  0
   57.0060   29.1470   45.2780 C   0  0  0  0  0  0  0  0  0  0  0  0
   56.1160   28.1380   45.2660 N   0  0  0  0  0  0  0  0  0  0  0  0
   56.7330   27.0860   45.8350 C   0  0  0  0  0  0  0  0  0  0  0  0
   56.3260   25.8030   46.0930 C   0  0  0  0  0  0  0  0  0  0  0  0
   57.1720   24.8760   46.7090 C   0  0  0  0  0  0  0  0  0  0  0  0
   56.7350   23.5480   46.9690 N   0  0  0  0  0  0  0  0  0  0  0  0
   56.8300   22.6530   46.0440 C   0  0  0  0  0  0  0  0  0  0  0  0
   56.5680   21.3150   46.2480 C   0  0  0  0  0  0  0  0  0  0  0  0
   56.7040   20.4470   45.1830 C   0  0  0  0  0  0  0  0  0  0  0  0
   57.0800   20.8380   43.9520 N   0  0  0  0  0  0  0  0  0  0  0  0
   57.3340   22.1690   43.7820 C   0  0  0  0  0  0  0  0  0  0  0  0
   57.2100   23.0440   44.8030 N   0  0  0  0  0  0  0  0  0  0  0  0
   58.4320   25.3230   47.0410 C   0  0  0  0  0  0  0  0  0  0  0  0
   58.8790   26.6000   46.8000 C   0  0  0  0  0  0  0  0  0  0  0  0
   58.0070   27.4820   46.1890 C   0  0  0  0  0  0  0  0  0  0  0  0
   58.1320   28.7450   45.8320 O   0  0  0  0  0  0  0  0  0  0  0  0
   58.9160   34.3560   44.8730 C   0  0  0  0  0  0  0  0  0  0  0  0
   59.5040   34.9810   45.9680 C   0  0  0  0  0  0  0  0  0  0  0  0
   59.7617   35.0590   48.1078 H   0  0  0  0  0  0  0  0  0  0  0  0
   58.2670   33.0909   48.5192 H   0  0  0  0  0  0  0  0  0  0  0  0
   57.2079   31.9632   46.5785 H   0  0  0  0  0  0  0  0  0  0  0  0
   56.3203   32.5902   44.1879 H   0  0  0  0  0  0  0  0  0  0  0  0
   57.7018   32.9591   43.0689 H   0  0  0  0  0  0  0  0  0  0  0  0
   57.7970   30.6560   42.9904 H   0  0  0  0  0  0  0  0  0  0  0  0
   58.8244   30.9051   44.4173 H   0  0  0  0  0  0  0  0  0  0  0  0
   55.1490   28.2120   44.8780 H   0  0  0  0  0  0  0  0  0  0  0  0
   55.3090   25.4951   45.8085 H   0  0  0  0  0  0  0  0  0  0  0  0
   56.2576   20.9472   47.2371 H   0  0  0  0  0  0  0  0  0  0  0  0
   56.4940   19.3802   45.3498 H   0  0  0  0  0  0  0  0  0  0  0  0
   57.1860   20.1910   43.1420 H   0  0  0  0  0  0  0  0  0  0  0  0
   57.6460   22.5359   42.7930 H   0  0  0  0  0  0  0  0  0  0  0  0
   59.1206   24.6165   47.5275 H   0  0  0  0  0  0  0  0  0  0  0  0
   59.8957   26.9098   47.0835 H   0  0  0  0  0  0  0  0  0  0  0  0
   59.1008   34.7144   43.8496 H   0  0  0  0  0  0  0  0  0  0  0  0
   60.1627   35.8460   45.8008 H   0  0  0  0  0  0  0  0  0  0  0  0
  1  2  2  0
  2  3  1  0
  3  4  2  0
  4  5  1  0
  5  6  1  0
  6  7  1  0
  7  8  2  0
  8  9  1  0
  9 10  1  0
 10 11  2  0
 11 12  1  0
 12 13  1  0
 13 14  2  0
 14 15  1  0
 15 16  2  0
 16 17  1  0
 17 18  1  0
 18 19  2  0
 12 20  2  0
 20 21  1  0
 21 22  2  0
 22 23  1  0
  4 24  1  0
 24 25  2  0
 25  1  1  0
 23  8  1  0
 22 10  1  0
 19 14  1  0
  1 26  1  0
  2 27  1  0
  3 28  1  0
  5 29  1  0
  5 30  1  0
  6 31  1  0
  6 32  1  0
  9 33  1  0
 11 34  1  0
 15 35  1  0
 16 36  1  0
 17 37  1  0
 18 38  1  0
 20 39  1  0
 21 40  1  0
 24 41  1  0
 25 42  1  0
M  END
>  <smiles>  (6) 
c1ccc(CCN=c2[nH]c3cc(N=c4cc[nH]cn4)ccc3o2)cc1

>  <score_type>  (6) 
oracle

>  <origin>  (6) 
adg

>  <m_score__min__energy>  (6) 
-8.4499999999999993

>  <m_primary>  (6) 
energy

$$$$
6:0
     RDKit          3D

 51 53  0  0  0  0  0  0  0  0999 V2000
   61.4650   34.1620   48.6120 C   0  0  0  0  0  0  0  0  0  0  0  0
   60.0050   34.2250   48.8890 C   0  0  0  0  0  0  0  0  0  0  0  0
   59.2130   33.7210   47.7140 C   0  0  0  0  0  0  0  0  0  0  0  0
   58.9280   34.5390   46.6360 C   0  0  0  0  0  0  0  0  0  0  0  0
   58.2140   34.0720   45.5590 C   0  0  0  0  0  0  0  0  0  0  0  0
   57.7700   32.7750   45.5400 C   0  0  0  0  0  0  0  0  0  0  0  0
   57.0330   32.1960   44.4690 N   0  0  0  0  0  0  0  0  0  0  0  0
   57.6250   31.7610   43.2560 C   0  0  0  0  0  0  0  0  0  0  0  0
   58.8490   31.8500   43.0060 O   0  0  0  0  0  0  0  0  0  0  0  0
   56.6610   31.1610   42.2460 C   0  0  0  0  0  0  0  0  0  0  0  0
   55.9880   29.7110   43.1380 S   0  0  0  0  0  0  0  0  0  0  0  0
   57.1850   29.0210   44.2570 C   0  0  0  0  0  0  0  0  0  0  0  0
   56.6780   28.2730   45.2810 N   0  0  0  0  0  0  0  0  0  0  0  0
   57.5080   27.6820   46.1700 C   0  0  0  0  0  0  0  0  0  0  0  0
   56.9530   27.0120   47.0790 O   0  0  0  0  0  0  0  0  0  0  0  0
   58.8880   27.8170   46.0690 C   0  0  0  0  0  0  0  0  0  0  0  0
   59.9460   27.0610   47.2160 S   0  0  0  0  0  0  0  0  0  0  0  0
   59.1780   25.9620   47.9450 O   0  0  0  0  0  0  0  0  0  0  0  0
   61.1350   26.4550   46.5260 O   0  0  0  0  0  0  0  0  0  0  0  0
   60.5050   28.2510   48.3490 C   0  0  0  0  0  0  0  0  0  0  0  0
   60.7560   29.5340   47.8400 C   0  0  0  0  0  0  0  0  0  0  0  0
   61.1930   30.5560   48.6400 C   0  0  0  0  0  0  0  0  0  0  0  0
   61.3960   30.3110   50.0000 C   0  0  0  0  0  0  0  0  0  0  0  0
   61.8810   31.4200   50.9010 C   0  0  0  0  0  0  0  0  0  0  0  0
   61.1500   29.0430   50.5190 C   0  0  0  0  0  0  0  0  0  0  0  0
   60.7060   28.0200   49.6900 C   0  0  0  0  0  0  0  0  0  0  0  0
   59.3560   28.5950   45.0020 C   0  0  0  0  0  0  0  0  0  0  0  0
   58.5110   29.1750   44.1280 N   0  0  0  0  0  0  0  0  0  0  0  0
   58.0440   31.9400   46.6090 C   0  0  0  0  0  0  0  0  0  0  0  0
   58.7580   32.4060   47.6860 C   0  0  0  0  0  0  0  0  0  0  0  0
   62.0179   34.1381   49.5627 H   0  0  0  0  0  0  0  0  0  0  0  0
   61.6897   33.2533   48.0342 H   0  0  0  0  0  0  0  0  0  0  0  0
   61.7672   35.0479   48.0342 H   0  0  0  0  0  0  0  0  0  0  0  0
   59.7783   33.6047   49.7687 H   0  0  0  0  0  0  0  0  0  0  0  0
   59.7279   35.2730   49.0758 H   0  0  0  0  0  0  0  0  0  0  0  0
   59.2790   35.5815   46.6409 H   0  0  0  0  0  0  0  0  0  0  0  0
   57.9985   34.7392   44.7114 H   0  0  0  0  0  0  0  0  0  0  0  0
   55.9950   32.0800   44.5710 H   0  0  0  0  0  0  0  0  0  0  0  0
   55.8631   31.8731   41.9886 H   0  0  0  0  0  0  0  0  0  0  0  0
   57.1387   30.9006   41.2900 H   0  0  0  0  0  0  0  0  0  0  0  0
   60.5973   29.7244   46.7683 H   0  0  0  0  0  0  0  0  0  0  0  0
   61.3812   31.5543   48.2181 H   0  0  0  0  0  0  0  0  0  0  0  0
   61.7507   31.1221   51.9519 H   0  0  0  0  0  0  0  0  0  0  0  0
   62.9458   31.6133   50.7040 H   0  0  0  0  0  0  0  0  0  0  0  0
   61.3000   32.3330   50.7040 H   0  0  0  0  0  0  0  0  0  0  0  0
   61.3078   28.8499   51.5904 H   0  0  0  0  0  0  0  0  0  0  0  0
   60.5144   27.0208   50.1081 H   0  0  0  0  0  0  0  0  0  0  0  0
   60.4396   28.7356   44.8749 H   0  0  0  0  0  0  0  0  0  0  0  0
   58.8850   29.7540   43.3410 H   0  0  0  0  0  0  0  0  0  0  0  0
   57.6886   30.8991   46.5962 H   0  0  0  0  0  0  0  0  0  0  0  0
   58.9715   31.7357   48.5316 H   0  0  0  0  0  0  0  0  0  0  0  0
  1  2  1  0
  2  3  1  0
  3  4  2  0
  4  5  1  0
  5  6  2  0
  6  7  1  0
  7  8  1  0
  8  9  2  0
  8 10  1  0
 10 11  1  0
 11 12  1  0
 12 13  2  0
 13 14  1  0
 14 15  2  0
 14 16  1  0
 16 17  1  0
 17 18  2  0
 17 19  2  0
 17 20  1  0
 20 21  2  0
 21 22  1  0
 22 23  2  0
 23 24  1  0
 23 25  1  0
 25 26  2  0
 16 27  2  0
 27 28  1  0
  6 29  1  0
 29 30  2  0
 30  3  1  0
 28 12  1  0
 26 20  1  0
  1 31  1  0
  1 32  1  0
  1 33  1  0
  2 34  1  0
  2 35  1  0
  4 36  1  0
  5 37  1  0
  7 38  1  0
 10 39  1  0
 10 40  1  0
 21 41  1  0
 22 42  1  0
 24 43  1  0
 24 44  1  0
 24 45  1  0
 25 46  1  0
 26 47  1  0
 27 48  1  0
 28 49  1  0
 29 50  1  0
 30 51  1  0
M  END
>  <smiles>  (7) 
CCc1ccc(NC(=O)CSc2nc(=O)c(S(=O)(=O)c3ccc(C)cc3)c[nH]2)cc1

>  <score_type>  (7) 
oracle

>  <origin>  (7) 
adg

>  <m_score__min__energy>  (7) 
-8.9000000000000004

>  <m_primary>  (7) 
energy

$$$$
7:0
     RDKit          3D

 45 46  0  0  0  0  0  0  0  0999 V2000
   58.8020   28.1530   44.2060 C   0  0  0  0  0  0  0  0  0  0  0  0
   57.4060   27.9870   44.6350 N   0  0  0  0  0  0  0  0  0  0  0  0
   57.3170   27.7480   46.0910 C   0  0  0  0  0  0  0  0  0  0  0  0
   56.3700   26.6220   46.3820 C   0  0  0  0  0  0  0  0  0  0  0  0
   55.1740   26.7100   45.9950 O   0  0  0  0  0  0  0  0  0  0  0  0
   56.8210   25.4550   47.0810 N   0  0  0  0  0  0  0  0  0  0  0  0
   56.6540   24.0830   46.6030 C   0  0  0  0  0  0  0  0  0  0  0  0
   57.0210   23.9370   45.1100 C   0  0  0  0  0  0  0  0  0  0  0  0
   55.7810   23.5730   44.2530 C   0  0  0  0  0  0  0  0  0  0  0  0
   56.1950   22.9760   42.9050 C   0  0  0  0  0  0  0  0  0  0  0  0
   56.9820   21.6620   43.0830 C   0  0  0  0  0  0  0  0  0  0  0  0
   57.7900   21.5960   44.3950 C   0  0  0  0  0  0  0  0  0  0  0  0
   58.2260   22.9860   44.8730 C   0  0  0  0  0  0  0  0  0  0  0  0
   56.4910   29.4060   44.1760 S   0  0  0  0  0  0  0  0  0  0  0  0
   55.1510   29.4040   44.8610 O   0  0  0  0  0  0  0  0  0  0  0  0
   56.2640   29.4300   42.6910 O   0  0  0  0  0  0  0  0  0  0  0  0
   57.4030   30.8430   44.6240 C   0  0  0  0  0  0  0  0  0  0  0  0
   57.4510   31.9570   43.7740 C   0  0  0  0  0  0  0  0  0  0  0  0
   58.1700   33.0960   44.1510 C   0  0  0  0  0  0  0  0  0  0  0  0
   58.8400   33.1280   45.3780 C   0  0  0  0  0  0  0  0  0  0  0  0
   59.5350   34.2330   45.7420 F   0  0  0  0  0  0  0  0  0  0  0  0
   58.7880   32.0210   46.2310 C   0  0  0  0  0  0  0  0  0  0  0  0
   58.0700   30.8810   45.8560 C   0  0  0  0  0  0  0  0  0  0  0  0
   59.4508   28.2302   45.0909 H   0  0  0  0  0  0  0  0  0  0  0  0
   59.1060   27.2847   43.6030 H   0  0  0  0  0  0  0  0  0  0  0  0
   58.8939   29.0684   43.6030 H   0  0  0  0  0  0  0  0  0  0  0  0
   58.3144   27.4910   46.4772 H   0  0  0  0  0  0  0  0  0  0  0  0
   56.9447   28.6608   46.5791 H   0  0  0  0  0  0  0  0  0  0  0  0
   57.3034   23.4204   47.1939 H   0  0  0  0  0  0  0  0  0  0  0  0
   55.5943   23.8117   46.7185 H   0  0  0  0  0  0  0  0  0  0  0  0
   57.3641   24.9242   44.7669 H   0  0  0  0  0  0  0  0  0  0  0  0
   55.1710   22.8381   44.7987 H   0  0  0  0  0  0  0  0  0  0  0  0
   55.2058   24.4916   44.0650 H   0  0  0  0  0  0  0  0  0  0  0  0
   55.2911   22.7730   42.3119 H   0  0  0  0  0  0  0  0  0  0  0  0
   56.8463   23.7002   42.3938 H   0  0  0  0  0  0  0  0  0  0  0  0
   56.2679   20.8254   43.0725 H   0  0  0  0  0  0  0  0  0  0  0  0
   57.7059   21.6064   42.2566 H   0  0  0  0  0  0  0  0  0  0  0  0
   57.1658   21.1327   45.1733 H   0  0  0  0  0  0  0  0  0  0  0  0
   58.6966   21.0026   44.2056 H   0  0  0  0  0  0  0  0  0  0  0  0
   58.7806   22.8769   45.8167 H   0  0  0  0  0  0  0  0  0  0  0  0
   58.8528   23.4296   44.0854 H   0  0  0  0  0  0  0  0  0  0  0  0
   56.9226   31.9352   42.8095 H   0  0  0  0  0  0  0  0  0  0  0  0
   58.2085   33.9678   43.4813 H   0  0  0  0  0  0  0  0  0  0  0  0
   59.3123   32.0470   47.1977 H   0  0  0  0  0  0  0  0  0  0  0  0
   58.0287   30.0123   46.5295 H   0  0  0  0  0  0  0  0  0  0  0  0
  1  2  1  0
  2  3  1  0
  3  4  1  0
  4  5  2  0
  4  6  1  0
  6  7  1  0
  7  8  1  0
  8  9  1  0
  9 10  1  0
 10 11  1  0
 11 12  1  0
 12 13  1  0
  2 14  1  0
 14 15  2  0
 14 16  2  0
 14 17  1  0
 17 18  2  0
 18 19  1  0
 19 20  2  0
 20 21  1  0
 20 22  1  0
 22 23  2  0
 13  8  1  0
 23 17  1  0
  1 24  1  0
  1 25  1  0
  1 26  1  0
  3 27  1  0
  3 28  1  0
  7 29  1  0
  7 30  1  0
  8 31  1  0
  9 32  1  0
  9 33  1  0
 10 34  1  0
 10 35  1  0
 11 36  1  0
 11 37  1  0
 12 38  1  0
 12 39  1  0
 13 40  1  0
 13 41  1  0
 18 42  1  0
 19 43  1  0
 22 44  1  0
 23 45  1  0
M  CHG  1   6  -1
M  END
>  <UniqueID>  (8) 
5

>  <SMILES>  (8) 
CN(CC(=O)[N-]CC1CCCCC1)S(=O)(=O)c1ccc(F)cc1

>  <Energy>  (8) 
42.990961218959285

>  <Genealogy>  (8) 
CN(CC(=O)[N-]CC1CCCCC1)S(=O)(=O)c1ccc(F)cc1 (protonated)
CN(CC(=O)[N-]CC1CCCCC1)S(=O)(=O)c1ccc(F)cc1 (3D coordinates assigned)
CN(CC(=O)[N-]CC1CCCCC1)S(=O)(=O)c1ccc(F)cc1 (nonaromatic ring conformer: 42.990961218959285 kcal/mol)

>  <smiles>  (8) 
CN(CC(=O)NCC1CCCCC1)S(=O)(=O)c1ccc(F)cc1

>  <score_type>  (8) 
oracle

>  <origin>  (8) 
adg

>  <m_score__min__energy>  (8) 
-10.15

>  <m_primary>  (8) 
energy

$$$$
8:0
     RDKit          3D

 49 52  0  0  0  0  0  0  0  0999 V2000
   54.5662   30.5985   44.0112 H   0  0  0  0  0  0  0  0  0  0  0  0
   55.5020   30.2010   44.4310 C   0  0  0  0  0  0  0  0  0  0  0  0
   55.5570   28.9150   44.8820 N   0  0  0  0  0  0  0  0  0  0  0  0
   56.7110   28.4680   45.3710 N   0  0  0  0  0  0  0  0  0  0  0  0
   57.0070   27.2740   45.8950 C   0  0  0  0  0  0  0  0  0  0  0  0
   56.0420   26.1520   46.1060 C   0  0  0  0  0  0  0  0  0  0  0  0
   55.9008   25.9878   47.1845 H   0  0  0  0  0  0  0  0  0  0  0  0
   55.0766   26.4070   45.6444 H   0  0  0  0  0  0  0  0  0  0  0  0
   56.4385   25.2356   45.6444 H   0  0  0  0  0  0  0  0  0  0  0  0
   58.3270   27.3350   46.3170 C   0  0  0  0  0  0  0  0  0  0  0  0
   58.8715   26.5147   46.8074 H   0  0  0  0  0  0  0  0  0  0  0  0
   58.8480   28.5580   46.0350 N   0  0  0  0  0  0  0  0  0  0  0  0
   57.8170   29.2100   45.4550 C   0  0  0  0  0  0  0  0  0  0  0  0
   57.7940   30.5250   45.0060 C   0  0  0  0  0  0  0  0  0  0  0  0
   58.8440   31.2830   45.1370 N   0  0  0  0  0  0  0  0  0  0  0  0
   58.9230   32.6120   45.6850 C   0  0  0  0  0  0  0  0  0  0  0  0
   59.0560   33.7480   44.8600 C   0  0  0  0  0  0  0  0  0  0  0  0
   59.0225   33.6360   43.7662 H   0  0  0  0  0  0  0  0  0  0  0  0
   59.2300   35.0150   45.4230 C   0  0  0  0  0  0  0  0  0  0  0  0
   59.3016   35.8995   44.7730 H   0  0  0  0  0  0  0  0  0  0  0  0
   59.3130   35.1600   46.8080 C   0  0  0  0  0  0  0  0  0  0  0  0
   59.4511   36.1583   47.2489 H   0  0  0  0  0  0  0  0  0  0  0  0
   59.2210   34.0400   47.6340 C   0  0  0  0  0  0  0  0  0  0  0  0
   59.3208   34.1545   48.7235 H   0  0  0  0  0  0  0  0  0  0  0  0
   59.0020   32.7690   47.0840 C   0  0  0  0  0  0  0  0  0  0  0  0
   58.9240   31.3320   48.1720 S   0  0  0  0  0  0  0  0  0  0  0  0
   59.5540   32.1780   49.6380 C   0  0  0  0  0  0  0  0  0  0  0  0
   58.6140   32.5840   50.5980 C   0  0  0  0  0  0  0  0  0  0  0  0
   57.5527   32.3284   50.4624 H   0  0  0  0  0  0  0  0  0  0  0  0
   59.0110   33.3080   51.7220 C   0  0  0  0  0  0  0  0  0  0  0  0
   58.2669   33.6022   52.4768 H   0  0  0  0  0  0  0  0  0  0  0  0
   60.3480   33.6590   51.8900 C   0  0  0  0  0  0  0  0  0  0  0  0
   60.6587   34.2348   52.7743 H   0  0  0  0  0  0  0  0  0  0  0  0
   61.2940   33.2800   50.9360 C   0  0  0  0  0  0  0  0  0  0  0  0
   62.3446   33.5799   51.0634 H   0  0  0  0  0  0  0  0  0  0  0  0
   60.9190   32.5180   49.8120 C   0  0  0  0  0  0  0  0  0  0  0  0
   61.9860   32.1480   48.8030 C   0  0  0  0  0  0  0  0  0  0  0  0
   62.6980   31.4545   49.2744 H   0  0  0  0  0  0  0  0  0  0  0  0
   61.4940   31.6783   47.9385 H   0  0  0  0  0  0  0  0  0  0  0  0
   62.7210   33.3400   48.3260 N   0  0  0  0  0  0  0  0  0  0  0  0
   64.1360   33.2940   48.7370 C   0  0  0  0  0  0  0  0  0  0  0  0
   64.1990   33.2920   49.8352 H   0  0  0  0  0  0  0  0  0  0  0  0
   64.6033   32.3802   48.3412 H   0  0  0  0  0  0  0  0  0  0  0  0
   64.6616   34.1755   48.3412 H   0  0  0  0  0  0  0  0  0  0  0  0
   62.6340   33.4280   46.8600 C   0  0  0  0  0  0  0  0  0  0  0  0
   61.8858   34.1848   46.5819 H   0  0  0  0  0  0  0  0  0  0  0  0
   63.6143   33.7139   46.4510 H   0  0  0  0  0  0  0  0  0  0  0  0
   62.3369   32.4510   46.4510 H   0  0  0  0  0  0  0  0  0  0  0  0
   56.6130   30.9950   44.5020 N   0  0  0  0  0  0  0  0  0  0  0  0
  1  2  1  0
  2  3  2  0
  3  4  1  0
  4  5  1  0
  5  6  1  0
  6  7  1  0
  6  8  1  0
  6  9  1  0
  5 10  2  0
 10 11  1  0
 10 12  1  0
 12 13  2  0
 13 14  1  0
 14 15  2  0
 15 16  1  0
 16 17  2  0
 17 18  1  0
 17 19  1  0
 19 20  1  0
 19 21  2  0
 21 22  1  0
 21 23  1  0
 23 24  1  0
 23 25  2  0
 25 26  1  0
 26 27  1  0
 27 28  2  0
 28 29  1  0
 28 30  1  0
 30 31  1  0
 30 32  2  0
 32 33  1  0
 32 34  1  0
 34 35  1  0
 34 36  2  0
 36 37  1  0
 37 38  1  0
 37 39  1  0
 37 40  1  0
 40 41  1  0
 41 42  1  0
 41 43  1  0
 41 44  1  0
 40 45  1  0
 45 46  1  0
 45 47  1  0
 45 48  1  0
 14 49  1  0
 49  2  1  0
 13  4  1  0
 25 16  1  0
 36 27  1  0
M  CHG  1  49  -1
M  END
>  <UniqueID>  (9) 
6

>  <SMILES>  (9) 
Cc1cnc2/c(=N/c3ccccc3Sc3ccccc3CN(C)C)[n-]cnn12

>  <Energy>  (9) 
93.97095294741632

>  <Genealogy>  (9) 
Cc1cnc2c(=Nc3ccccc3Sc3ccccc3CN(C)C)[n-]cnn12 (protonated)
Cc1cnc2/c(=N/c3ccccc3Sc3ccccc3CN(C)C)[n-]cnn12 (cis-trans isomerization)
Cc1cnc2/c(=N/c3ccccc3Sc3ccccc3CN(C)C)[n-]cnn12 (3D coordinates assigned)
Cc1cnc2/c(=N/c3ccccc3Sc3ccccc3CN(C)C)[n-]cnn12 (optimized conformer: 93.97095294741632 kcal/mol)

>  <smiles>  (9) 
Cc1cnc2c(=Nc3ccccc3Sc3ccccc3CN(C)C)[nH]cnn12

>  <score_type>  (9) 
oracle

>  <origin>  (9) 
adg

>  <m_score__min__energy>  (9) 
-9.8900000000000006

>  <m_primary>  (9) 
energy

$$$$
9:0
     RDKit          3D

 37 39  0  0  1  0  0  0  0  0999 V2000
   65.1620   32.0110   50.2440 C   0  0  0  0  0  0  0  0  0  0  0  0
   64.7670   32.7770   49.1620 O   0  0  0  0  0  0  0  0  0  0  0  0
   63.5430   32.6620   48.5250 C   0  0  0  0  0  0  0  0  0  0  0  0
   63.3710   31.5860   47.7120 C   0  0  0  0  0  0  0  0  0  0  0  0
   62.1180   31.4930   47.0770 C   0  0  0  0  0  0  0  0  0  0  0  0
   61.1870   32.4610   47.3110 C   0  0  0  0  0  0  0  0  0  0  0  0
   59.9570   32.4020   46.7080 C   0  0  0  0  0  0  0  0  0  0  0  0
   59.6570   31.5050   45.9340 N   0  0  0  0  0  0  0  0  0  0  0  0
   58.7210   30.5290   45.9070 C   0  0  0  0  0  0  0  0  0  0  0  0
   59.0630   29.2400   46.3890 C   0  0  0  0  0  0  0  0  0  0  0  0
   58.1790   28.1920   46.2810 C   0  0  0  0  0  0  0  0  0  0  0  0
   56.9460   28.3860   45.7000 C   0  0  0  0  0  0  0  0  0  0  0  0
   56.0720   27.3010   45.6050 O   0  0  0  0  0  0  0  0  0  0  0  0
   56.5730   29.6380   45.2130 C   0  0  0  0  0  0  0  0  0  0  0  0
   55.3180   29.7290   44.6480 O   0  0  0  0  0  0  0  0  0  0  0  0
   55.2290   29.7180   43.2340 C   0  0  0  0  0  0  0  0  0  0  0  0
   57.4440   30.7040   45.3110 C   0  0  0  0  0  0  0  0  0  0  0  0
   59.0250   33.3750   46.9470 N   0  0  0  0  0  0  0  0  0  0  0  0
   59.3100   34.3860   47.7670 C   0  0  0  0  0  0  0  0  0  0  0  0
   60.4950   34.4960   48.3840 N   0  0  0  0  0  0  0  0  0  0  0  0
   61.4050   33.5370   48.1440 C   0  0  0  0  0  0  0  0  0  0  0  0
   62.6120   33.6380   48.7660 C   0  0  0  0  0  0  0  0  0  0  0  0
   64.8949   32.5289   51.1769 H   0  0  0  0  0  0  0  0  0  0  0  0
   64.6543   31.0358   50.2077 H   0  0  0  0  0  0  0  0  0  0  0  0
   66.2509   31.8591   50.2077 H   0  0  0  0  0  0  0  0  0  0  0  0
   64.1608   30.8356   47.5600 H   0  0  0  0  0  0  0  0  0  0  0  0
   61.8938   30.6530   46.4031 H   0  0  0  0  0  0  0  0  0  0  0  0
   60.0462   29.0765   46.8544 H   0  0  0  0  0  0  0  0  0  0  0  0
   58.4575   27.1974   46.6594 H   0  0  0  0  0  0  0  0  0  0  0  0
   55.1460   27.5210   45.2690 H   0  0  0  0  0  0  0  0  0  0  0  0
   54.1788   29.5882   42.9337 H   0  0  0  0  0  0  0  0  0  0  0  0
   55.6094   30.6700   42.8352 H   0  0  0  0  0  0  0  0  0  0  0  0
   55.8297   28.8873   42.8352 H   0  0  0  0  0  0  0  0  0  0  0  0
   57.1484   31.6914   44.9266 H   0  0  0  0  0  0  0  0  0  0  0  0
   58.5460   35.1574   47.9438 H   0  0  0  0  0  0  0  0  0  0  0  0
   60.6960   35.2930   49.0210 H   0  0  0  0  0  0  0  0  0  0  0  0
   62.8330   34.4776   49.4414 H   0  0  0  0  0  0  0  0  0  0  0  0
  1  2  1  0
  2  3  1  0
  3  4  2  0
  4  5  1  0
  5  6  2  0
  6  7  1  0
  7  8  2  0
  8  9  1  0
  9 10  2  0
 10 11  1  0
 11 12  2  0
 12 13  1  0
 12 14  1  0
 14 15  1  0
 15 16  1  0
 14 17  2  0
  7 18  1  0
 18 19  2  0
 19 20  1  0
 20 21  1  0
 21 22  2  0
 22  3  1  0
 21  6  1  0
 17  9  1  0
  1 23  1  0
  1 24  1  0
  1 25  1  0
  4 26  1  0
  5 27  1  0
 10 28  1  0
 11 29  1  0
 13 30  1  0
 16 31  1  0
 16 32  1  0
 16 33  1  0
 17 34  1  0
 19 35  1  0
 20 36  1  0
 22 37  1  0
M  END
>  <smiles>  (10) 
COc1ccc2c(=Nc3ccc(O)c(OC)c3)nc[nH]c2c1

>  <score_type>  (10) 
oracle

>  <origin>  (10) 
adg

>  <m_score__min__energy>  (10) 
-6.9199999999999999

>  <m_primary>  (10) 
energy

$$$$
10:0
     RDKit          3D

 40 43  0  0  0  0  0  0  0  0999 V2000
   56.2060   30.4190   44.8430 O   0  0  0  0  0  0  0  0  0  0  0  0
   57.4420   30.6740   44.8410 C   0  0  0  0  0  0  0  0  0  0  0  0
   58.3750   29.6740   44.3970 N   0  0  0  0  0  0  0  0  0  0  0  0
   58.0870   28.2650   44.3780 C   0  0  0  0  0  0  0  0  0  0  0  0
   58.3720   27.4760   43.2560 C   0  0  0  0  0  0  0  0  0  0  0  0
   58.0630   26.1160   43.2520 C   0  0  0  0  0  0  0  0  0  0  0  0
   57.4380   25.5050   44.3600 C   0  0  0  0  0  0  0  0  0  0  0  0
   57.1630   26.3000   45.4970 C   0  0  0  0  0  0  0  0  0  0  0  0
   57.4770   27.6710   45.4880 C   0  0  0  0  0  0  0  0  0  0  0  0
   56.6760   25.6750   46.7680 C   0  0  0  0  0  0  0  0  0  0  0  0
   57.7350   24.6820   47.2370 C   0  0  0  0  0  0  0  0  0  0  0  0
   57.5480   23.4030   46.6410 O   0  0  0  0  0  0  0  0  0  0  0  0
   57.1480   23.1100   45.3270 C   0  0  0  0  0  0  0  0  0  0  0  0
   56.8270   21.8090   45.0840 N   0  0  0  0  0  0  0  0  0  0  0  0
   56.3740   21.3690   43.8850 C   0  0  0  0  0  0  0  0  0  0  0  0
   56.1990   22.2650   42.8410 C   0  0  0  0  0  0  0  0  0  0  0  0
   56.5240   23.6050   43.0340 C   0  0  0  0  0  0  0  0  0  0  0  0
   57.0360   24.0630   44.2660 C   0  0  0  0  0  0  0  0  0  0  0  0
   57.9080   32.0210   45.2500 C   0  0  0  0  0  0  0  0  0  0  0  0
   58.1280   33.0320   44.2940 C   0  0  0  0  0  0  0  0  0  0  0  0
   58.5750   34.2960   44.6890 C   0  0  0  0  0  0  0  0  0  0  0  0
   58.8110   34.5660   46.0400 C   0  0  0  0  0  0  0  0  0  0  0  0
   59.2460   35.7930   46.4200 F   0  0  0  0  0  0  0  0  0  0  0  0
   58.6060   33.5700   46.9970 C   0  0  0  0  0  0  0  0  0  0  0  0
   58.1600   32.3030   46.6050 C   0  0  0  0  0  0  0  0  0  0  0  0
   59.2670   29.9950   43.9590 H   0  0  0  0  0  0  0  0  0  0  0  0
   58.8425   27.9321   42.3725 H   0  0  0  0  0  0  0  0  0  0  0  0
   58.3110   25.5085   42.3691 H   0  0  0  0  0  0  0  0  0  0  0  0
   57.2390   28.2863   46.3682 H   0  0  0  0  0  0  0  0  0  0  0  0
   56.5264   26.4512   47.5330 H   0  0  0  0  0  0  0  0  0  0  0  0
   55.7171   25.1626   46.6006 H   0  0  0  0  0  0  0  0  0  0  0  0
   58.7296   25.0630   46.9620 H   0  0  0  0  0  0  0  0  0  0  0  0
   57.6471   24.5717   48.3279 H   0  0  0  0  0  0  0  0  0  0  0  0
   56.1454   20.3028   43.7400 H   0  0  0  0  0  0  0  0  0  0  0  0
   55.8081   21.9211   41.8720 H   0  0  0  0  0  0  0  0  0  0  0  0
   56.3788   24.3197   42.2105 H   0  0  0  0  0  0  0  0  0  0  0  0
   57.9467   32.8252   43.2289 H   0  0  0  0  0  0  0  0  0  0  0  0
   58.7414   35.0797   43.9353 H   0  0  0  0  0  0  0  0  0  0  0  0
   58.7953   33.7816   48.0597 H   0  0  0  0  0  0  0  0  0  0  0  0
   58.0051   31.5208   47.3628 H   0  0  0  0  0  0  0  0  0  0  0  0
  1  2  2  0
  2  3  1  0
  3  4  1  0
  4  5  2  0
  5  6  1  0
  6  7  2  0
  7  8  1  0
  8  9  2  0
  8 10  1  0
 10 11  1  0
 11 12  1  0
 12 13  1  0
 13 14  2  0
 14 15  1  0
 15 16  2  0
 16 17  1  0
 17 18  2  0
  2 19  1  0
 19 20  2  0
 20 21  1  0
 21 22  2  0
 22 23  1  0
 22 24  1  0
 24 25  2  0
  9  4  1  0
 18 13  1  0
 25 19  1  0
 18  7  1  0
  3 26  1  0
  5 27  1  0
  6 28  1  0
  9 29  1  0
 10 30  1  0
 10 31  1  0
 11 32  1  0
 11 33  1  0
 15 34  1  0
 16 35  1  0
 17 36  1  0
 20 37  1  0
 21 38  1  0
 24 39  1  0
 25 40  1  0
M  END
>  <UniqueID>  (11) 
7

>  <SMILES>  (11) 
O=C(Nc1ccc2c(c1)CCOc1ncccc1-2)c1ccc(F)cc1

>  <Energy>  (11) 
67.43381625897634

>  <Genealogy>  (11) 
O=C(Nc1ccc2c(c1)CCOc1ncccc1-2)c1ccc(F)cc1 (3D coordinates assigned)
O=C(Nc1ccc2c(c1)CCOc1ncccc1-2)c1ccc(F)cc1 (nonaromatic ring conformer: 67.43381625897634 kcal/mol)

>  <smiles>  (11) 
O=C(Nc1ccc2c(c1)CCOc1ncccc1-2)c1ccc(F)cc1

>  <score_type>  (11) 
oracle

>  <origin>  (11) 
adg

>  <m_score__min__energy>  (11) 
-6.8099999999999996

>  <m_primary>  (11) 
energy

$$$$
11:0
     RDKit          3D

 44 45  0  0  0  0  0  0  0  0999 V2000
   57.3980   28.5340   43.8500 C   0  0  0  0  0  0  0  0  0  0  0  0
   57.3100   30.1040   44.6850 S   0  0  0  0  0  0  0  0  0  0  0  0
   58.2910   31.0720   44.0850 O   0  0  0  0  0  0  0  0  0  0  0  0
   55.9250   30.6600   44.5240 O   0  0  0  0  0  0  0  0  0  0  0  0
   57.6370   29.8990   46.3750 N   0  0  0  0  0  0  0  0  0  0  0  0
   58.8690   30.2180   47.0360 C   0  0  0  0  0  0  0  0  0  0  0  0
   60.0670   30.4340   46.3320 C   0  0  0  0  0  0  0  0  0  0  0  0
   61.2430   30.7460   47.0190 C   0  0  0  0  0  0  0  0  0  0  0  0
   61.2430   30.8410   48.4190 C   0  0  0  0  0  0  0  0  0  0  0  0
   62.5040   31.2160   49.1550 C   0  0  0  0  0  0  0  0  0  0  0  0
   62.9630   32.6370   48.8120 C   0  0  0  0  0  0  0  0  0  0  0  0
   61.9320   33.6140   49.1920 N   0  0  0  0  0  0  0  0  0  0  0  0
   61.2630   34.1980   48.0190 C   0  0  0  0  0  0  0  0  0  0  0  0
   59.7900   34.5240   48.3270 C   0  0  2  0  0  0  0  0  0  0  0  0
   59.3490   33.8280   49.4640 O   0  0  0  0  0  0  0  0  0  0  0  0
   58.9060   34.1960   47.1430 C   0  0  0  0  0  0  0  0  0  0  0  0
   58.9940   34.9540   45.9640 C   0  0  0  0  0  0  0  0  0  0  0  0
   58.2140   34.6190   44.8570 C   0  0  0  0  0  0  0  0  0  0  0  0
   57.3550   33.5200   44.9300 C   0  0  0  0  0  0  0  0  0  0  0  0
   57.2890   32.7810   46.0690 N   0  0  0  0  0  0  0  0  0  0  0  0
   58.0390   33.0880   47.1630 C   0  0  0  0  0  0  0  0  0  0  0  0
   60.0460   30.6350   49.1220 C   0  0  0  0  0  0  0  0  0  0  0  0
   58.8700   30.3220   48.4330 C   0  0  0  0  0  0  0  0  0  0  0  0
   57.4433   27.7250   44.5940 H   0  0  0  0  0  0  0  0  0  0  0  0
   56.5058   28.4032   43.2201 H   0  0  0  0  0  0  0  0  0  0  0  0
   58.2992   28.5037   43.2201 H   0  0  0  0  0  0  0  0  0  0  0  0
   60.0784   30.3569   45.2348 H   0  0  0  0  0  0  0  0  0  0  0  0
   62.1741   30.9181   46.4592 H   0  0  0  0  0  0  0  0  0  0  0  0
   62.3163   31.1541   50.2371 H   0  0  0  0  0  0  0  0  0  0  0  0
   63.2976   30.5179   48.8504 H   0  0  0  0  0  0  0  0  0  0  0  0
   63.8919   32.8595   49.3575 H   0  0  0  0  0  0  0  0  0  0  0  0
   63.1362   32.7043   47.7278 H   0  0  0  0  0  0  0  0  0  0  0  0
   61.2100   33.1120   49.7610 H   0  0  0  0  0  0  0  0  0  0  0  0
   61.7836   35.1236   47.7322 H   0  0  0  0  0  0  0  0  0  0  0  0
   61.2950   33.4666   47.1980 H   0  0  0  0  0  0  0  0  0  0  0  0
   59.7217   35.6032   48.5285 H   0  0  0  0  0  0  0  0  0  0  0  0
   60.0400   33.9610   50.1680 H   0  0  0  0  0  0  0  0  0  0  0  0
   59.6790   35.8132   45.9134 H   0  0  0  0  0  0  0  0  0  0  0  0
   58.2749   35.2152   43.9346 H   0  0  0  0  0  0  0  0  0  0  0  0
   56.7311   33.2522   44.0646 H   0  0  0  0  0  0  0  0  0  0  0  0
   56.6520   31.9530   46.1030 H   0  0  0  0  0  0  0  0  0  0  0  0
   57.9668   32.4663   48.0676 H   0  0  0  0  0  0  0  0  0  0  0  0
   60.0327   30.7200   50.2186 H   0  0  0  0  0  0  0  0  0  0  0  0
   57.9378   30.1560   48.9928 H   0  0  0  0  0  0  0  0  0  0  0  0
  1  2  1  0
  2  3  2  0
  2  4  2  0
  2  5  1  0
  5  6  1  0
  6  7  2  0
  7  8  1  0
  8  9  2  0
  9 10  1  0
 10 11  1  0
 11 12  1  0
 12 13  1  0
 13 14  1  0
 14 15  1  0
 14 16  1  0
 16 17  2  0
 17 18  1  0
 18 19  2  0
 19 20  1  0
 20 21  2  0
  9 22  1  0
 22 23  2  0
 23  6  1  0
 21 16  1  0
  1 24  1  0
  1 25  1  0
  1 26  1  0
  7 27  1  0
  8 28  1  0
 10 29  1  0
 10 30  1  0
 11 31  1  0
 11 32  1  0
 12 33  1  0
 13 34  1  0
 13 35  1  0
 14 36  1  1
 15 37  1  0
 17 38  1  0
 18 39  1  0
 19 40  1  0
 20 41  1  0
 21 42  1  0
 22 43  1  0
 23 44  1  0
M  CHG  2   5  -1  20   1
M  END
>  <UniqueID>  (12) 
8

>  <SMILES>  (12) 
CS(=O)(=O)[N-]c1ccc(CCNC[C@H](O)c2ccc[nH+]c2)cc1

>  <Energy>  (12) 
39.34713593812995

>  <Genealogy>  (12) 
CS(=O)(=O)[N-]c1ccc(CCNCC(O)c2ccc[nH+]c2)cc1 (protonated)
CS(=O)(=O)[N-]c1ccc(CCNC[C@H](O)c2ccc[nH+]c2)cc1 (chirality)
CS(=O)(=O)[N-]c1ccc(CCNC[C@H](O)c2ccc[nH+]c2)cc1 (3D coordinates assigned)
CS(=O)(=O)[N-]c1ccc(CCNC[C@H](O)c2ccc[nH+]c2)cc1 (optimized conformer: 39.34713593812995 kcal/mol)

>  <smiles>  (12) 
CS(=O)(=O)Nc1ccc(CCNCC(O)c2cccnc2)cc1

>  <score_type>  (12) 
oracle

>  <origin>  (12) 
adg

>  <m_score__min__energy>  (12) 
-5.5999999999999996

>  <m_primary>  (12) 
energy

$$$$
12:0
     RDKit          3D

 43 45  0  0  0  0  0  0  0  0999 V2000
   61.1180   29.5140   50.0350 C   0  0  0  0  0  0  0  0  0  0  0  0
   60.4270   28.8490   48.9830 O   0  0  0  0  0  0  0  0  0  0  0  0
   59.8070   29.5030   47.9080 C   0  0  0  0  0  0  0  0  0  0  0  0
   59.2690   28.7980   46.8000 C   0  0  0  0  0  0  0  0  0  0  0  0
   58.6580   29.4880   45.7400 C   0  0  0  0  0  0  0  0  0  0  0  0
   58.5920   30.8790   45.8120 C   0  0  0  0  0  0  0  0  0  0  0  0
   58.0800   31.8060   44.9230 C   0  0  0  0  0  0  0  0  0  0  0  0
   57.3990   31.5190   43.6140 C   0  0  0  0  0  0  0  0  0  0  0  0
   56.5750   30.2720   43.7190 C   0  0  0  0  0  0  0  0  0  0  0  0
   56.9290   29.1060   42.9760 N   0  0  0  0  0  0  0  0  0  0  0  0
   55.5810   30.2400   44.4910 O   0  0  0  0  0  0  0  0  0  0  0  0
   58.2920   33.0530   45.5180 C   0  0  0  0  0  0  0  0  0  0  0  0
   57.9730   34.3780   44.8850 C   0  0  0  0  0  0  0  0  0  0  0  0
   58.9310   32.9060   46.7120 N   0  0  0  0  0  0  0  0  0  0  0  0
   59.4160   33.9820   47.5870 C   0  0  0  0  0  0  0  0  0  0  0  0
   60.9150   33.9250   47.7090 C   0  0  0  0  0  0  0  0  0  0  0  0
   61.7230   33.8370   46.5620 C   0  0  0  0  0  0  0  0  0  0  0  0
   63.1140   33.7630   46.6840 C   0  0  0  0  0  0  0  0  0  0  0  0
   63.7080   33.7760   47.9480 C   0  0  0  0  0  0  0  0  0  0  0  0
   62.9120   33.8620   49.0940 C   0  0  0  0  0  0  0  0  0  0  0  0
   61.5220   33.9350   48.9770 C   0  0  0  0  0  0  0  0  0  0  0  0
   59.1060   31.5750   46.8790 C   0  0  0  0  0  0  0  0  0  0  0  0
   59.7250   30.9080   47.9440 C   0  0  0  0  0  0  0  0  0  0  0  0
   60.7438   29.1538   51.0046 H   0  0  0  0  0  0  0  0  0  0  0  0
   62.1949   29.3039   49.9566 H   0  0  0  0  0  0  0  0  0  0  0  0
   60.9493   30.5982   49.9566 H   0  0  0  0  0  0  0  0  0  0  0  0
   59.3311   27.7001   46.7710 H   0  0  0  0  0  0  0  0  0  0  0  0
   58.2432   28.9462   44.8772 H   0  0  0  0  0  0  0  0  0  0  0  0
   56.7460   32.3644   43.3516 H   0  0  0  0  0  0  0  0  0  0  0  0
   58.1638   31.3781   42.8361 H   0  0  0  0  0  0  0  0  0  0  0  0
   57.7540   29.1090   42.3370 H   0  0  0  0  0  0  0  0  0  0  0  0
   56.3620   28.2350   43.0620 H   0  0  0  0  0  0  0  0  0  0  0  0
   57.7929   35.1260   45.6711 H   0  0  0  0  0  0  0  0  0  0  0  0
   58.8195   34.6992   44.2602 H   0  0  0  0  0  0  0  0  0  0  0  0
   57.0731   34.2787   44.2602 H   0  0  0  0  0  0  0  0  0  0  0  0
   59.1238   34.9537   47.1623 H   0  0  0  0  0  0  0  0  0  0  0  0
   58.9722   33.8565   48.5856 H   0  0  0  0  0  0  0  0  0  0  0  0
   61.2592   33.8263   45.5646 H   0  0  0  0  0  0  0  0  0  0  0  0
   63.7414   33.6944   45.7831 H   0  0  0  0  0  0  0  0  0  0  0  0
   64.8025   33.7186   48.0418 H   0  0  0  0  0  0  0  0  0  0  0  0
   63.3808   33.8722   50.0890 H   0  0  0  0  0  0  0  0  0  0  0  0
   60.8993   34.0006   49.8814 H   0  0  0  0  0  0  0  0  0  0  0  0
   60.1394   31.4717   48.7929 H   0  0  0  0  0  0  0  0  0  0  0  0
  1  2  1  0
  2  3  1  0
  3  4  2  0
  4  5  1  0
  5  6  2  0
  6  7  1  0
  7  8  1  0
  8  9  1  0
  9 10  1  0
  9 11  2  0
  7 12  2  0
 12 13  1  0
 12 14  1  0
 14 15  1  0
 15 16  1  0
 16 17  2  0
 17 18  1  0
 18 19  2  0
 19 20  1  0
 20 21  2  0
 14 22  1  0
 22 23  2  0
 23  3  1  0
 22  6  1  0
 21 16  1  0
  1 24  1  0
  1 25  1  0
  1 26  1  0
  4 27  1  0
  5 28  1  0
  8 29  1  0
  8 30  1  0
 10 31  1  0
 10 32  1  0
 13 33  1  0
 13 34  1  0
 13 35  1  0
 15 36  1  0
 15 37  1  0
 17 38  1  0
 18 39  1  0
 19 40  1  0
 20 41  1  0
 21 42  1  0
 23 43  1  0
M  END
>  <UniqueID>  (13) 
9

>  <SMILES>  (13) 
COc1ccc2c(CC(N)=O)c(C)n(Cc3ccccc3)c2c1

>  <Energy>  (13) 
73.03143155117928

>  <Genealogy>  (13) 
COc1ccc2c(CC(N)=O)c(C)n(Cc3ccccc3)c2c1 (3D coordinates assigned)
COc1ccc2c(CC(N)=O)c(C)n(Cc3ccccc3)c2c1 (optimized conformer: 73.03143155117928 kcal/mol)

>  <smiles>  (13) 
COc1ccc2c(CC(N)=O)c(C)n(Cc3ccccc3)c2c1

>  <score_type>  (13) 
oracle

>  <origin>  (13) 
adg

>  <m_score__min__energy>  (13) 
-8.6500000000000004

>  <m_primary>  (13) 
energy

$$$$
13:0
     RDKit          3D

 40 42  0  0  0  0  0  0  0  0999 V2000
   59.5514   30.5058   53.0906 H   0  0  0  0  0  0  0  0  0  0  0  0
   58.4900   30.2810   52.9090 C   0  0  0  0  0  0  0  0  0  0  0  0
   57.8790   30.6720   51.7040 C   0  0  0  0  0  0  0  0  0  0  0  0
   58.6290   31.3890   50.6400 C   0  0  0  0  0  0  0  0  0  0  0  0
   58.6600   32.7930   50.6310 C   0  0  0  0  0  0  0  0  0  0  0  0
   58.1331   33.3532   51.4175 H   0  0  0  0  0  0  0  0  0  0  0  0
   59.3520   33.4870   49.6350 C   0  0  0  0  0  0  0  0  0  0  0  0
   59.3670   34.5868   49.6495 H   0  0  0  0  0  0  0  0  0  0  0  0
   60.0310   32.7950   48.6120 C   0  0  0  0  0  0  0  0  0  0  0  0
   60.7500   33.5140   47.5760 N   0  0  0  0  0  0  0  0  0  0  0  0
   60.0640   34.5130   46.7450 C   0  0  0  0  0  0  0  0  0  0  0  0
   59.5608   35.2458   47.3930 H   0  0  0  0  0  0  0  0  0  0  0  0
   60.7992   35.0290   46.1100 H   0  0  0  0  0  0  0  0  0  0  0  0
   59.3184   34.0121   46.1100 H   0  0  0  0  0  0  0  0  0  0  0  0
   62.1770   33.2580   47.3420 C   0  0  0  0  0  0  0  0  0  0  0  0
   62.6959   33.1649   48.3074 H   0  0  0  0  0  0  0  0  0  0  0  0
   62.2934   32.3246   46.7717 H   0  0  0  0  0  0  0  0  0  0  0  0
   62.6106   34.0927   46.7717 H   0  0  0  0  0  0  0  0  0  0  0  0
   59.9860   31.3860   48.6170 C   0  0  0  0  0  0  0  0  0  0  0  0
   60.5027   30.8233   47.8256 H   0  0  0  0  0  0  0  0  0  0  0  0
   59.2930   30.6950   49.6150 C   0  0  0  0  0  0  0  0  0  0  0  0
   59.2673   29.5954   49.5975 H   0  0  0  0  0  0  0  0  0  0  0  0
   56.5580   30.3980   51.5160 N   0  0  0  0  0  0  0  0  0  0  0  0
   55.7990   29.7520   52.4460 C   0  0  0  0  0  0  0  0  0  0  0  0
   54.5450   29.4810   52.2260 N   0  0  0  0  0  0  0  0  0  0  0  0
   53.4550   30.4190   52.2070 C   0  0  0  0  0  0  0  0  0  0  0  0
   53.1150   31.0310   50.9930 C   0  0  0  0  0  0  0  0  0  0  0  0
   53.6938   30.8034   50.0857 H   0  0  0  0  0  0  0  0  0  0  0  0
   52.0450   31.9290   50.9270 C   0  0  0  0  0  0  0  0  0  0  0  0
   51.7958   32.4183   49.9739 H   0  0  0  0  0  0  0  0  0  0  0  0
   51.2920   32.2050   52.0720 C   0  0  0  0  0  0  0  0  0  0  0  0
   50.2300   33.0980   52.0080 O   0  0  0  0  0  0  0  0  0  0  0  0
   51.6030   31.5750   53.2820 C   0  0  0  0  0  0  0  0  0  0  0  0
   51.0055   31.7862   54.1811 H   0  0  0  0  0  0  0  0  0  0  0  0
   52.6730   30.6770   53.3490 C   0  0  0  0  0  0  0  0  0  0  0  0
   52.9045   30.1703   54.2975 H   0  0  0  0  0  0  0  0  0  0  0  0
   56.3910   29.3320   53.6420 C   0  0  0  0  0  0  0  0  0  0  0  0
   55.7985   28.7907   54.3943 H   0  0  0  0  0  0  0  0  0  0  0  0
   57.7400   29.6060   53.8720 C   0  0  0  0  0  0  0  0  0  0  0  0
   58.2122   29.2893   54.8137 H   0  0  0  0  0  0  0  0  0  0  0  0
  1  2  1  0
  2  3  2  0
  3  4  1  0
  4  5  2  0
  5  6  1  0
  5  7  1  0
  7  8  1  0
  7  9  2  0
  9 10  1  0
 10 11  1  0
 11 12  1  0
 11 13  1  0
 11 14  1  0
 10 15  1  0
 15 16  1  0
 15 17  1  0
 15 18  1  0
  9 19  1  0
 19 20  1  0
 19 21  2  0
 21 22  1  0
  3 23  1  0
 23 24  1  0
 24 25  2  0
 25 26  1  0
 26 27  2  0
 27 28  1  0
 27 29  1  0
 29 30  1  0
 29 31  2  0
 31 32  1  0
 31 33  1  0
 33 34  1  0
 33 35  2  0
 35 36  1  0
 24 37  1  0
 37 38  1  0
 37 39  2  0
 39 40  1  0
 39  2  1  0
 21  4  1  0
 35 26  1  0
M  CHG  2  23  -1  32  -1
M  END
>  <UniqueID>  (14) 
10

>  <SMILES>  (14) 
CN(C)c1ccc(-c2ccc/c(=N/c3ccc([O-])cc3)[n-]2)cc1

>  <Energy>  (14) 
54.34038776053892

>  <Genealogy>  (14) 
CN(C)c1ccc(-c2cccc(=Nc3ccc([O-])cc3)[n-]2)cc1 (protonated)
CN(C)c1ccc(-c2ccc/c(=N/c3ccc([O-])cc3)[n-]2)cc1 (cis-trans isomerization)
CN(C)c1ccc(-c2ccc/c(=N/c3ccc([O-])cc3)[n-]2)cc1 (3D coordinates assigned)
CN(C)c1ccc(-c2ccc/c(=N/c3ccc([O-])cc3)[n-]2)cc1 (optimized conformer: 54.34038776053892 kcal/mol)

>  <smiles>  (14) 
CN(C)c1ccc(-c2cccc(=Nc3ccc(O)cc3)[nH]2)cc1

>  <score_type>  (14) 
oracle

>  <origin>  (14) 
adg

>  <m_score__min__energy>  (14) 
-12.49

>  <m_primary>  (14) 
energy

$$$$
14:0
     RDKit          3D

 25 26  0  0  0  0  0  0  0  0999 V2000
   58.8009   26.7355   45.6597 H   0  0  0  0  0  0  0  0  0  0  0  0
   58.1210   27.5780   45.4650 C   0  0  0  0  0  0  0  0  0  0  0  0
   58.5750   29.1290   45.0000 S   0  0  0  0  0  0  0  0  0  0  0  0
   56.9830   29.6830   44.9180 C   0  0  0  0  0  0  0  0  0  0  0  0
   56.6030   30.8950   44.6350 N   0  0  0  0  0  0  0  0  0  0  0  0
   57.3440   32.1010   44.8820 C   0  0  0  0  0  0  0  0  0  0  0  0
   57.3890   32.6690   46.1690 C   0  0  0  0  0  0  0  0  0  0  0  0
   56.8256   32.2039   46.9914 H   0  0  0  0  0  0  0  0  0  0  0  0
   58.1440   33.8190   46.4090 C   0  0  0  0  0  0  0  0  0  0  0  0
   58.1618   34.2649   47.4144 H   0  0  0  0  0  0  0  0  0  0  0  0
   58.8760   34.4030   45.3740 C   0  0  0  0  0  0  0  0  0  0  0  0
   59.4624   35.3144   45.5623 H   0  0  0  0  0  0  0  0  0  0  0  0
   58.8650   33.8320   44.1000 C   0  0  0  0  0  0  0  0  0  0  0  0
   59.4500   34.2919   43.2899 H   0  0  0  0  0  0  0  0  0  0  0  0
   58.1110   32.6730   43.8460 C   0  0  0  0  0  0  0  0  0  0  0  0
   58.1100   32.0650   42.4710 C   0  0  0  0  0  0  0  0  0  0  0  0
   58.1082   30.9682   42.5551 H   0  0  0  0  0  0  0  0  0  0  0  0
   57.2124   32.3924   41.9259 H   0  0  0  0  0  0  0  0  0  0  0  0
   59.0087   32.3895   41.9259 H   0  0  0  0  0  0  0  0  0  0  0  0
   56.1030   28.7170   45.2540 N   0  0  0  0  0  0  0  0  0  0  0  0
   56.7310   27.5490   45.5600 C   0  0  0  0  0  0  0  0  0  0  0  0
   55.9700   26.3170   45.9210 C   0  0  0  0  0  0  0  0  0  0  0  0
   55.9149   26.2277   47.0160 H   0  0  0  0  0  0  0  0  0  0  0  0
   54.9530   26.3796   45.5065 H   0  0  0  0  0  0  0  0  0  0  0  0
   56.4812   25.4356   45.5065 H   0  0  0  0  0  0  0  0  0  0  0  0
  1  2  1  0
  2  3  1  0
  3  4  1  0
  4  5  2  0
  5  6  1  0
  6  7  2  0
  7  8  1  0
  7  9  1  0
  9 10  1  0
  9 11  2  0
 11 12  1  0
 11 13  1  0
 13 14  1  0
 13 15  2  0
 15 16  1  0
 16 17  1  0
 16 18  1  0
 16 19  1  0
  4 20  1  0
 20 21  1  0
 21 22  1  0
 22 23  1  0
 22 24  1  0
 22 25  1  0
 21  2  2  0
 15  6  1  0
M  CHG  1  20  -1
M  END
>  <UniqueID>  (15) 
11

>  <SMILES>  (15) 
Cc1cs/c(=N\c2ccccc2C)[n-]1

>  <Energy>  (15) 
60.98516706525241

>  <Genealogy>  (15) 
Cc1csc(=Nc2ccccc2C)[n-]1 (protonated)
Cc1cs/c(=N\c2ccccc2C)[n-]1 (cis-trans isomerization)
Cc1cs/c(=N\c2ccccc2C)[n-]1 (3D coordinates assigned)
Cc1cs/c(=N\c2ccccc2C)[n-]1 (optimized conformer: 60.98516706525241 kcal/mol)

>  <smiles>  (15) 
Cc1csc(=Nc2ccccc2C)[nH]1

>  <score_type>  (15) 
oracle

>  <origin>  (15) 
adg

>  <m_score__min__energy>  (15) 
-7.5999999999999996

>  <m_primary>  (15) 
energy

$$$$
15:0
     RDKit          3D

 42 45  0  0  0  0  0  0  0  0999 V2000
   62.4600   31.4140   48.3020 C   0  0  0  0  0  0  0  0  0  0  0  0
   61.8000   30.1680   48.5050 O   0  0  0  0  0  0  0  0  0  0  0  0
   60.6790   29.7380   47.7810 C   0  0  0  0  0  0  0  0  0  0  0  0
   59.4820   29.3400   48.4070 C   0  0  0  0  0  0  0  0  0  0  0  0
   58.3920   28.9220   47.6390 C   0  0  0  0  0  0  0  0  0  0  0  0
   58.4690   28.9090   46.2410 C   0  0  0  0  0  0  0  0  0  0  0  0
   57.3320   28.4520   45.4940 N   0  0  0  0  0  0  0  0  0  0  0  0
   56.3980   29.2680   44.7720 C   0  0  0  0  0  0  0  0  0  0  0  0
   55.1720   28.9760   44.7690 O   0  0  0  0  0  0  0  0  0  0  0  0
   56.8850   30.4240   43.9850 C   0  0  0  0  0  0  0  0  0  0  0  0
   56.6400   30.5230   42.5940 C   0  0  0  0  0  0  0  0  0  0  0  0
   57.1120   31.6290   41.8520 C   0  0  0  0  0  0  0  0  0  0  0  0
   57.8360   32.6540   42.4830 C   0  0  0  0  0  0  0  0  0  0  0  0
   58.0660   32.5360   43.8500 C   0  0  0  0  0  0  0  0  0  0  0  0
   58.7330   33.3690   44.7190 C   0  0  0  0  0  0  0  0  0  0  0  0
   58.6390   32.7290   45.9560 C   0  0  0  0  0  0  0  0  0  0  0  0
   59.1950   33.2040   47.2440 C   0  0  0  0  0  0  0  0  0  0  0  0
   58.6820   32.7590   48.4780 C   0  0  0  0  0  0  0  0  0  0  0  0
   59.2250   33.2250   49.6790 C   0  0  0  0  0  0  0  0  0  0  0  0
   60.2840   34.1360   49.6640 C   0  0  0  0  0  0  0  0  0  0  0  0
   60.8010   34.5840   48.4470 C   0  0  0  0  0  0  0  0  0  0  0  0
   60.2620   34.1220   47.2420 C   0  0  0  0  0  0  0  0  0  0  0  0
   57.9640   31.5980   45.8330 O   0  0  0  0  0  0  0  0  0  0  0  0
   57.6120   31.4680   44.5760 C   0  0  0  0  0  0  0  0  0  0  0  0
   59.6720   29.2830   45.6160 C   0  0  0  0  0  0  0  0  0  0  0  0
   60.7630   29.7010   46.3850 C   0  0  0  0  0  0  0  0  0  0  0  0
   62.6991   31.8653   49.2763 H   0  0  0  0  0  0  0  0  0  0  0  0
   63.3890   31.2490   47.7365 H   0  0  0  0  0  0  0  0  0  0  0  0
   61.8016   32.0898   47.7365 H   0  0  0  0  0  0  0  0  0  0  0  0
   59.4048   29.3582   49.5041 H   0  0  0  0  0  0  0  0  0  0  0  0
   57.4654   28.6004   48.1370 H   0  0  0  0  0  0  0  0  0  0  0  0
   56.0749   29.7287   42.0844 H   0  0  0  0  0  0  0  0  0  0  0  0
   56.9110   31.6877   40.7721 H   0  0  0  0  0  0  0  0  0  0  0  0
   58.2082   33.5200   41.9160 H   0  0  0  0  0  0  0  0  0  0  0  0
   59.2286   34.3240   44.4903 H   0  0  0  0  0  0  0  0  0  0  0  0
   57.8492   32.0406   48.4968 H   0  0  0  0  0  0  0  0  0  0  0  0
   58.8173   32.8734   50.6383 H   0  0  0  0  0  0  0  0  0  0  0  0
   60.7102   34.5001   50.6105 H   0  0  0  0  0  0  0  0  0  0  0  0
   61.6342   35.3020   48.4358 H   0  0  0  0  0  0  0  0  0  0  0  0
   60.6746   34.4783   46.2866 H   0  0  0  0  0  0  0  0  0  0  0  0
   59.7552   29.2467   44.5197 H   0  0  0  0  0  0  0  0  0  0  0  0
   61.6961   30.0036   45.8873 H   0  0  0  0  0  0  0  0  0  0  0  0
  1  2  1  0
  2  3  1  0
  3  4  2  0
  4  5  1  0
  5  6  2  0
  6  7  1  0
  7  8  1  0
  8  9  2  0
  8 10  1  0
 10 11  2  0
 11 12  1  0
 12 13  2  0
 13 14  1  0
 14 15  1  0
 15 16  2  0
 16 17  1  0
 17 18  2  0
 18 19  1  0
 19 20  2  0
 20 21  1  0
 21 22  2  0
 16 23  1  0
 23 24  1  0
  6 25  1  0
 25 26  2  0
 26  3  1  0
 24 10  1  0
 24 14  2  0
 22 17  1  0
  1 27  1  0
  1 28  1  0
  1 29  1  0
  4 30  1  0
  5 31  1  0
 11 32  1  0
 12 33  1  0
 13 34  1  0
 15 35  1  0
 18 36  1  0
 19 37  1  0
 20 38  1  0
 21 39  1  0
 22 40  1  0
 25 41  1  0
 26 42  1  0
M  CHG  1   7  -1
M  END
>  <UniqueID>  (16) 
12

>  <SMILES>  (16) 
COc1ccc([N-]C(=O)c2cccc3cc(-c4ccccc4)oc23)cc1

>  <Energy>  (16) 
84.99009918801534

>  <Genealogy>  (16) 
COc1ccc([N-]C(=O)c2cccc3cc(-c4ccccc4)oc23)cc1 (protonated)
COc1ccc([N-]C(=O)c2cccc3cc(-c4ccccc4)oc23)cc1 (3D coordinates assigned)
COc1ccc([N-]C(=O)c2cccc3cc(-c4ccccc4)oc23)cc1 (optimized conformer: 84.99009918801534 kcal/mol)

>  <smiles>  (16) 
COc1ccc(NC(=O)c2cccc3cc(-c4ccccc4)oc23)cc1

>  <score_type>  (16) 
oracle

>  <origin>  (16) 
adg

>  <m_score__min__energy>  (16) 
-10.51

>  <m_primary>  (16) 
energy

$$$$
16:0
     RDKit          3D

 37 39  0  0  1  0  0  0  0  0999 V2000
   55.2860   23.2840   46.0690 C   0  0  0  0  0  0  0  0  0  0  0  0
   55.6470   24.6850   45.9720 C   0  0  0  0  0  0  0  0  0  0  0  0
   55.1830   25.7670   46.0310 N   0  0  0  0  0  0  0  0  0  0  0  0
   55.6700   26.9410   45.9180 N   0  0  0  0  0  0  0  0  0  0  0  0
   57.0130   26.9930   45.6760 C   0  0  0  0  0  0  0  0  0  0  0  0
   57.8220   27.9000   45.5100 N   0  0  0  0  0  0  0  0  0  0  0  0
   57.4290   29.2790   45.5790 C   0  0  0  0  0  0  0  0  0  0  0  0
   56.2630   29.6020   45.2400 O   0  0  0  0  0  0  0  0  0  0  0  0
   58.4070   30.2610   46.0420 C   0  0  0  0  0  0  0  0  0  0  0  0
   59.5920   29.8350   46.6490 C   0  0  0  0  0  0  0  0  0  0  0  0
   60.5280   30.7710   47.0930 C   0  0  0  0  0  0  0  0  0  0  0  0
   60.3150   32.1320   46.9490 C   0  0  0  0  0  0  0  0  0  0  0  0
   61.3230   33.0030   47.4330 N   0  0  0  0  0  0  0  0  0  0  0  0
   62.7070   32.6780   47.1490 C   0  0  0  0  0  0  0  0  0  0  0  0
   63.5340   33.8100   47.7070 C   0  0  0  0  0  0  0  0  0  0  0  0
   63.3060   34.0700   49.0350 O   0  0  0  0  0  0  0  0  0  0  0  0
   61.9880   34.1520   49.4150 C   0  0  0  0  0  0  0  0  0  0  0  0
   61.0660   34.2030   48.1950 C   0  0  0  0  0  0  0  0  0  0  0  0
   59.1530   32.5310   46.3540 C   0  0  0  0  0  0  0  0  0  0  0  0
   58.1990   31.6330   45.9010 C   0  0  0  0  0  0  0  0  0  0  0  0
   57.4790   25.1660   45.6330 S   0  0  0  0  0  0  0  0  0  0  0  0
   55.2120   22.9969   47.1283 H   0  0  0  0  0  0  0  0  0  0  0  0
   54.3163   23.1202   45.5761 H   0  0  0  0  0  0  0  0  0  0  0  0
   56.0558   22.6720   45.5761 H   0  0  0  0  0  0  0  0  0  0  0  0
   55.1440   27.8640   45.9920 H   0  0  0  0  0  0  0  0  0  0  0  0
   59.7874   28.7601   46.7771 H   0  0  0  0  0  0  0  0  0  0  0  0
   61.4558   30.4195   47.5680 H   0  0  0  0  0  0  0  0  0  0  0  0
   62.9825   31.7303   47.6347 H   0  0  0  0  0  0  0  0  0  0  0  0
   62.8744   32.5570   46.0686 H   0  0  0  0  0  0  0  0  0  0  0  0
   64.5968   33.5551   47.5826 H   0  0  0  0  0  0  0  0  0  0  0  0
   63.2461   34.7156   47.1530 H   0  0  0  0  0  0  0  0  0  0  0  0
   61.7333   33.2703   50.0214 H   0  0  0  0  0  0  0  0  0  0  0  0
   61.8487   35.0747   49.9975 H   0  0  0  0  0  0  0  0  0  0  0  0
   60.0140   34.2312   48.5152 H   0  0  0  0  0  0  0  0  0  0  0  0
   61.2549   35.1036   47.5924 H   0  0  0  0  0  0  0  0  0  0  0  0
   58.9662   33.6078   46.2290 H   0  0  0  0  0  0  0  0  0  0  0  0
   57.2766   32.0030   45.4296 H   0  0  0  0  0  0  0  0  0  0  0  0
  1  2  1  0
  2  3  2  0
  3  4  1  0
  4  5  1  0
  5  6  2  0
  6  7  1  0
  7  8  2  0
  7  9  1  0
  9 10  2  0
 10 11  1  0
 11 12  2  0
 12 13  1  0
 13 14  1  0
 14 15  1  0
 15 16  1  0
 16 17  1  0
 17 18  1  0
 12 19  1  0
 19 20  2  0
  5 21  1  0
 21  2  1  0
 20  9  1  0
 18 13  1  0
  1 22  1  0
  1 23  1  0
  1 24  1  0
  4 25  1  0
 10 26  1  0
 11 27  1  0
 14 28  1  0
 14 29  1  0
 15 30  1  0
 15 31  1  0
 17 32  1  0
 17 33  1  0
 18 34  1  0
 18 35  1  0
 19 36  1  0
 20 37  1  0
M  END
>  <smiles>  (17) 
Cc1n[nH]c(=NC(=O)c2ccc(N3CCOCC3)cc2)s1

>  <score_type>  (17) 
oracle

>  <origin>  (17) 
adg

>  <m_score__min__energy>  (17) 
-7.6399999999999997

>  <m_primary>  (17) 
energy

$$$$
17:0
     RDKit          3D

 25 25  0  0  0  0  0  0  0  0999 V2000
   59.5540   34.9560   46.7780 C   0  0  0  0  0  0  0  0  0  0  0  0
   58.7050   34.2700   46.0070 C   0  0  0  0  0  0  0  0  0  0  0  0
   58.9370   34.1130   44.5310 C   0  0  0  0  0  0  0  0  0  0  0  0
   58.1620   32.9900   44.0130 N   0  0  0  0  0  0  0  0  0  0  0  0
   57.4130   32.1290   44.7230 C   0  0  0  0  0  0  0  0  0  0  0  0
   56.9280   31.2060   43.8160 C   0  0  0  0  0  0  0  0  0  0  0  0
   56.0610   30.0600   44.1030 C   0  0  0  0  0  0  0  0  0  0  0  0
   55.1430   29.7470   43.2970 O   0  0  0  0  0  0  0  0  0  0  0  0
   56.2630   29.3220   45.2730 O   0  0  0  0  0  0  0  0  0  0  0  0
   57.4060   28.4970   45.4720 C   0  0  0  0  0  0  0  0  0  0  0  0
   57.9290   28.0170   44.1280 C   0  0  0  0  0  0  0  0  0  0  0  0
   57.3950   31.5190   42.5890 N   0  0  0  0  0  0  0  0  0  0  0  0
   58.1410   32.6030   42.7480 N   0  0  0  0  0  0  0  0  0  0  0  0
   59.3602   35.0555   47.8562 H   0  0  0  0  0  0  0  0  0  0  0  0
   60.4467   35.4212   46.3344 H   0  0  0  0  0  0  0  0  0  0  0  0
   57.8162   33.8099   46.4634 H   0  0  0  0  0  0  0  0  0  0  0  0
   58.6295   35.0347   44.0153 H   0  0  0  0  0  0  0  0  0  0  0  0
   60.0058   33.9214   44.3552 H   0  0  0  0  0  0  0  0  0  0  0  0
   57.2243   32.1540   45.8064 H   0  0  0  0  0  0  0  0  0  0  0  0
   58.1894   29.0745   45.9846 H   0  0  0  0  0  0  0  0  0  0  0  0
   57.1269   27.6284   46.0866 H   0  0  0  0  0  0  0  0  0  0  0  0
   58.7308   27.2811   44.2881 H   0  0  0  0  0  0  0  0  0  0  0  0
   57.1101   27.5495   43.5616 H   0  0  0  0  0  0  0  0  0  0  0  0
   58.3247   28.8729   43.5616 H   0  0  0  0  0  0  0  0  0  0  0  0
   58.6530   33.0790   41.9720 H   0  0  0  0  0  0  0  0  0  0  0  0
  1  2  2  0
  2  3  1  0
  3  4  1  0
  4  5  1  0
  5  6  2  0
  6  7  1  0
  7  8  2  0
  7  9  1  0
  9 10  1  0
 10 11  1  0
  6 12  1  0
 12 13  2  0
 13  4  1  0
  1 14  1  0
  1 15  1  0
  2 16  1  0
  3 17  1  0
  3 18  1  0
  5 19  1  0
 10 20  1  0
 10 21  1  0
 11 22  1  0
 11 23  1  0
 11 24  1  0
 13 25  1  0
M  CHG  1  13   1
M  END
>  <UniqueID>  (18) 
13

>  <SMILES>  (18) 
C=CCn1cc(C(=O)OCC)n[nH+]1

>  <Energy>  (18) 
47.70155428117285

>  <Genealogy>  (18) 
C=CCn1cc(C(=O)OCC)n[nH+]1 (protonated)
C=CCn1cc(C(=O)OCC)n[nH+]1 (3D coordinates assigned)
C=CCn1cc(C(=O)OCC)n[nH+]1 (optimized conformer: 47.70155428117285 kcal/mol)

>  <smiles>  (18) 
C=CCn1cc(C(=O)OCC)nn1

>  <score_type>  (18) 
oracle

>  <origin>  (18) 
adg

>  <m_score__min__energy>  (18) 
-3.7000000000000002

>  <m_primary>  (18) 
energy

$$$$
18:0
     RDKit          3D

 51 54  0  0  0  0  0  0  0  0999 V2000
   59.6820   35.3860   46.7380 C   0  0  0  0  0  0  0  0  0  0  0  0
   58.9600   34.2660   46.0510 C   0  0  0  0  0  0  0  0  0  0  0  0
   58.8800   34.2300   44.6510 C   0  0  0  0  0  0  0  0  0  0  0  0
   58.2390   33.1650   44.0080 C   0  0  0  0  0  0  0  0  0  0  0  0
   57.6800   32.1240   44.7580 C   0  0  0  0  0  0  0  0  0  0  0  0
   56.9010   30.7730   43.9350 S   0  0  0  0  0  0  0  0  0  0  0  0
   55.5280   30.5490   44.5050 O   0  0  0  0  0  0  0  0  0  0  0  0
   56.7650   31.1130   42.4760 O   0  0  0  0  0  0  0  0  0  0  0  0
   57.8690   29.3310   44.1150 N   0  0  0  0  0  0  0  0  0  0  0  0
   59.2480   29.6900   44.5060 C   0  0  0  0  0  0  0  0  0  0  0  0
   59.9500   28.5110   45.1860 C   0  0  0  0  0  0  0  0  0  0  0  0
   59.2810   28.1610   46.4560 N   0  0  0  0  0  0  0  0  0  0  0  0
   59.6810   26.5260   46.9320 S   0  0  0  0  0  0  0  0  0  0  0  0
   61.0350   26.1620   46.3870 O   0  0  0  0  0  0  0  0  0  0  0  0
   59.7480   26.4500   48.4310 O   0  0  0  0  0  0  0  0  0  0  0  0
   58.4870   25.3670   46.3430 C   0  0  0  0  0  0  0  0  0  0  0  0
   58.9000   24.2260   45.6340 C   0  0  0  0  0  0  0  0  0  0  0  0
   57.9590   23.2910   45.1920 C   0  0  0  0  0  0  0  0  0  0  0  0
   56.6020   23.4930   45.4530 C   0  0  0  0  0  0  0  0  0  0  0  0
   56.1810   24.6480   46.1270 C   0  0  0  0  0  0  0  0  0  0  0  0
   57.1200   25.5760   46.5830 C   0  0  0  0  0  0  0  0  0  0  0  0
   54.8140   24.8510   46.3370 O   0  0  0  0  0  0  0  0  0  0  0  0
   53.8360   24.0650   45.6500 C   0  0  0  0  0  0  0  0  0  0  0  0
   54.3060   22.6080   45.5430 C   0  0  0  0  0  0  0  0  0  0  0  0
   55.6460   22.5550   45.0490 O   0  0  0  0  0  0  0  0  0  0  0  0
   57.8170   28.3880   46.4480 C   0  0  0  0  0  0  0  0  0  0  0  0
   57.2180   28.3610   45.0290 C   0  0  0  0  0  0  0  0  0  0  0  0
   57.7800   32.1440   46.1560 C   0  0  0  0  0  0  0  0  0  0  0  0
   58.4200   33.2080   46.7980 C   0  0  0  0  0  0  0  0  0  0  0  0
   59.6011   35.2605   47.8278 H   0  0  0  0  0  0  0  0  0  0  0  0
   60.7422   35.3730   46.4451 H   0  0  0  0  0  0  0  0  0  0  0  0
   59.2324   36.3463   46.4451 H   0  0  0  0  0  0  0  0  0  0  0  0
   59.3230   35.0423   44.0560 H   0  0  0  0  0  0  0  0  0  0  0  0
   58.1744   33.1461   42.9101 H   0  0  0  0  0  0  0  0  0  0  0  0
   59.8139   29.9758   43.6071 H   0  0  0  0  0  0  0  0  0  0  0  0
   59.2038   30.5287   45.2164 H   0  0  0  0  0  0  0  0  0  0  0  0
   59.9251   27.6406   44.5139 H   0  0  0  0  0  0  0  0  0  0  0  0
   60.9893   28.7985   45.4035 H   0  0  0  0  0  0  0  0  0  0  0  0
   59.9685   24.0678   45.4258 H   0  0  0  0  0  0  0  0  0  0  0  0
   58.2869   22.3980   44.6397 H   0  0  0  0  0  0  0  0  0  0  0  0
   56.7882   26.4707   47.1302 H   0  0  0  0  0  0  0  0  0  0  0  0
   52.8866   24.1006   46.2044 H   0  0  0  0  0  0  0  0  0  0  0  0
   53.6956   24.4718   44.6377 H   0  0  0  0  0  0  0  0  0  0  0  0
   54.2670   22.1400   46.5377 H   0  0  0  0  0  0  0  0  0  0  0  0
   53.6462   22.0689   44.8473 H   0  0  0  0  0  0  0  0  0  0  0  0
   57.3358   27.6015   47.0479 H   0  0  0  0  0  0  0  0  0  0  0  0
   57.6341   29.3887   46.8664 H   0  0  0  0  0  0  0  0  0  0  0  0
   57.3407   27.3496   44.6143 H   0  0  0  0  0  0  0  0  0  0  0  0
   56.1574   28.6410   45.1104 H   0  0  0  0  0  0  0  0  0  0  0  0
   57.3541   31.3211   46.7488 H   0  0  0  0  0  0  0  0  0  0  0  0
   58.5008   33.2160   47.8950 H   0  0  0  0  0  0  0  0  0  0  0  0
  1  2  1  0
  2  3  2  0
  3  4  1  0
  4  5  2  0
  5  6  1  0
  6  7  2  0
  6  8  2  0
  6  9  1  0
  9 10  1  0
 10 11  1  0
 11 12  1  0
 12 13  1  0
 13 14  2  0
 13 15  2  0
 13 16  1  0
 16 17  2  0
 17 18  1  0
 18 19  2  0
 19 20  1  0
 20 21  2  0
 20 22  1  0
 22 23  1  0
 23 24  1  0
 24 25  1  0
 12 26  1  0
 26 27  1  0
  5 28  1  0
 28 29  2  0
 29  2  1  0
 27  9  1  0
 21 16  1  0
 25 19  1  0
  1 30  1  0
  1 31  1  0
  1 32  1  0
  3 33  1  0
  4 34  1  0
 10 35  1  0
 10 36  1  0
 11 37  1  0
 11 38  1  0
 17 39  1  0
 18 40  1  0
 21 41  1  0
 23 42  1  0
 23 43  1  0
 24 44  1  0
 24 45  1  0
 26 46  1  0
 26 47  1  0
 27 48  1  0
 27 49  1  0
 28 50  1  0
 29 51  1  0
M  END
>  <UniqueID>  (19) 
14

>  <SMILES>  (19) 
Cc1ccc(S(=O)(=O)N2CCN(S(=O)(=O)c3ccc4c(c3)OCCO4)CC2)cc1

>  <Energy>  (19) 
62.28492495308424

>  <Genealogy>  (19) 
Cc1ccc(S(=O)(=O)N2CCN(S(=O)(=O)c3ccc4c(c3)OCCO4)CC2)cc1 (3D coordinates assigned)
Cc1ccc(S(=O)(=O)N2CCN(S(=O)(=O)c3ccc4c(c3)OCCO4)CC2)cc1 (nonaromatic ring conformer: 62.28492495308424 kcal/mol)

>  <smiles>  (19) 
Cc1ccc(S(=O)(=O)N2CCN(S(=O)(=O)c3ccc4c(c3)OCCO4)CC2)cc1

>  <score_type>  (19) 
oracle

>  <origin>  (19) 
adg

>  <m_score__min__energy>  (19) 
-9.6500000000000004

>  <m_primary>  (19) 
energy

$$$$
19:0
     RDKit          3D

 26 28  0  0  0  0  0  0  0  0999 V2000
   57.4550   33.1800   44.8500 Cl  0  0  0  0  0  0  0  0  0  0  0  0
   57.6110   31.4400   44.9700 C   0  0  0  0  0  0  0  0  0  0  0  0
   58.7830   30.8710   45.4700 C   0  0  0  0  0  0  0  0  0  0  0  0
   58.8870   29.4810   45.5570 C   0  0  0  0  0  0  0  0  0  0  0  0
   57.8180   28.6650   45.1450 C   0  0  0  0  0  0  0  0  0  0  0  0
   57.8870   27.1880   45.2220 C   0  0  0  0  0  0  0  0  0  0  0  0
   57.3940   26.3300   44.3080 N   0  0  0  0  0  0  0  0  0  0  0  0
   57.7040   25.1240   44.8280 C   0  0  0  0  0  0  0  0  0  0  0  0
   57.3810   23.8150   44.2080 C   0  0  0  0  0  0  0  0  0  0  0  0
   58.2330   22.7140   44.4030 C   0  0  0  0  0  0  0  0  0  0  0  0
   57.9330   21.4810   43.8210 C   0  0  0  0  0  0  0  0  0  0  0  0
   56.7810   21.3530   43.0450 C   0  0  0  0  0  0  0  0  0  0  0  0
   55.9640   22.4210   42.8620 N   0  0  0  0  0  0  0  0  0  0  0  0
   56.2310   23.6340   43.4170 C   0  0  0  0  0  0  0  0  0  0  0  0
   58.3550   25.2510   46.0030 N   0  0  0  0  0  0  0  0  0  0  0  0
   58.4480   26.5320   46.2100 O   0  0  0  0  0  0  0  0  0  0  0  0
   56.6600   29.2860   44.6500 C   0  0  0  0  0  0  0  0  0  0  0  0
   56.5840   30.6420   44.5750 N   0  0  0  0  0  0  0  0  0  0  0  0
   59.6172   31.5113   45.7926 H   0  0  0  0  0  0  0  0  0  0  0  0
   59.8073   29.0232   45.9487 H   0  0  0  0  0  0  0  0  0  0  0  0
   56.8950   26.5470   43.4190 H   0  0  0  0  0  0  0  0  0  0  0  0
   59.1394   22.8244   45.0164 H   0  0  0  0  0  0  0  0  0  0  0  0
   58.5988   20.6186   43.9729 H   0  0  0  0  0  0  0  0  0  0  0  0
   56.5348   20.3863   42.5814 H   0  0  0  0  0  0  0  0  0  0  0  0
   55.5451   24.4770   43.2468 H   0  0  0  0  0  0  0  0  0  0  0  0
   55.8088   28.6719   44.3208 H   0  0  0  0  0  0  0  0  0  0  0  0
  1  2  1  0
  2  3  2  0
  3  4  1  0
  4  5  2  0
  5  6  1  0
  6  7  2  0
  7  8  1  0
  8  9  1  0
  9 10  2  0
 10 11  1  0
 11 12  2  0
 12 13  1  0
 13 14  2  0
  8 15  2  0
 15 16  1  0
  5 17  1  0
 17 18  2  0
 18  2  1  0
 16  6  1  0
 14  9  1  0
  3 19  1  0
  4 20  1  0
  7 21  1  0
 10 22  1  0
 11 23  1  0
 12 24  1  0
 14 25  1  0
 17 26  1  0
M  CHG  1   7   1
M  END
>  <UniqueID>  (20) 
15

>  <SMILES>  (20) 
Clc1ccc(-c2[nH+]c(-c3cccnc3)no2)cn1

>  <Energy>  (20) 
67.54618088290914

>  <Genealogy>  (20) 
Clc1ccc(-c2[nH+]c(-c3cccnc3)no2)cn1 (protonated)
Clc1ccc(-c2[nH+]c(-c3cccnc3)no2)cn1 (3D coordinates assigned)
Clc1ccc(-c2[nH+]c(-c3cccnc3)no2)cn1 (optimized conformer: 67.54618088290914 kcal/mol)

>  <smiles>  (20) 
Clc1ccc(-c2nc(-c3cccnc3)no2)cn1

>  <score_type>  (20) 
oracle

>  <origin>  (20) 
adg

>  <m_score__min__energy>  (20) 
-5.71

>  <m_primary>  (20) 
energy

$$$$
20:0
     RDKit          3D

 37 39  0  0  0  0  0  0  0  0999 V2000
   60.2970   28.7760   49.1040 C   0  0  0  0  0  0  0  0  0  0  0  0
   60.3900   28.0070   47.9100 O   0  0  0  0  0  0  0  0  0  0  0  0
   59.5170   28.1320   46.8180 C   0  0  0  0  0  0  0  0  0  0  0  0
   60.0490   28.5150   45.5830 C   0  0  0  0  0  0  0  0  0  0  0  0
   59.2210   28.6560   44.4660 C   0  0  0  0  0  0  0  0  0  0  0  0
   57.8420   28.4190   44.5650 C   0  0  0  0  0  0  0  0  0  0  0  0
   57.0160   28.5800   43.3940 N   0  0  0  0  0  0  0  0  0  0  0  0
   56.3570   29.8280   43.0110 C   0  0  0  0  0  0  0  0  0  0  0  0
   57.1200   31.0040   43.5360 C   0  0  0  0  0  0  0  0  0  0  0  0
   57.7190   31.9850   42.7800 C   0  0  0  0  0  0  0  0  0  0  0  0
   58.2980   32.8170   43.6090 O   0  0  0  0  0  0  0  0  0  0  0  0
   58.0730   32.3760   44.8290 C   0  0  0  0  0  0  0  0  0  0  0  0
   58.5710   33.0450   46.0460 C   0  0  0  0  0  0  0  0  0  0  0  0
   58.5120   32.4000   47.2950 C   0  0  0  0  0  0  0  0  0  0  0  0
   58.9890   33.0400   48.4430 C   0  0  0  0  0  0  0  0  0  0  0  0
   59.5280   34.3270   48.3570 C   0  0  0  0  0  0  0  0  0  0  0  0
   59.9890   34.9450   49.4710 F   0  0  0  0  0  0  0  0  0  0  0  0
   59.5910   34.9750   47.1210 C   0  0  0  0  0  0  0  0  0  0  0  0
   59.1160   34.3390   45.9690 C   0  0  0  0  0  0  0  0  0  0  0  0
   57.3370   31.2410   44.8430 N   0  0  0  0  0  0  0  0  0  0  0  0
   57.3070   28.0270   45.8060 C   0  0  0  0  0  0  0  0  0  0  0  0
   58.1360   27.8870   46.9240 C   0  0  0  0  0  0  0  0  0  0  0  0
   60.3775   28.1104   49.9760 H   0  0  0  0  0  0  0  0  0  0  0  0
   61.1125   29.5138   49.1294 H   0  0  0  0  0  0  0  0  0  0  0  0
   59.3292   29.2982   49.1294 H   0  0  0  0  0  0  0  0  0  0  0  0
   61.1281   28.7069   45.4898 H   0  0  0  0  0  0  0  0  0  0  0  0
   59.6546   28.9555   43.5005 H   0  0  0  0  0  0  0  0  0  0  0  0
   56.9000   27.7640   42.7500 H   0  0  0  0  0  0  0  0  0  0  0  0
   56.3066   29.8893   41.9139 H   0  0  0  0  0  0  0  0  0  0  0  0
   55.3432   29.8414   43.4376 H   0  0  0  0  0  0  0  0  0  0  0  0
   57.7127   32.0571   41.6824 H   0  0  0  0  0  0  0  0  0  0  0  0
   58.0886   31.3874   47.3687 H   0  0  0  0  0  0  0  0  0  0  0  0
   58.9400   32.5296   49.4162 H   0  0  0  0  0  0  0  0  0  0  0  0
   60.0151   35.9877   47.0534 H   0  0  0  0  0  0  0  0  0  0  0  0
   59.1691   34.8537   44.9983 H   0  0  0  0  0  0  0  0  0  0  0  0
   56.2288   27.8292   45.8977 H   0  0  0  0  0  0  0  0  0  0  0  0
   57.7061   27.5840   47.8901 H   0  0  0  0  0  0  0  0  0  0  0  0
  1  2  1  0
  2  3  1  0
  3  4  2  0
  4  5  1  0
  5  6  2  0
  6  7  1  0
  7  8  1  0
  8  9  1  0
  9 10  2  0
 10 11  1  0
 11 12  1  0
 12 13  1  0
 13 14  2  0
 14 15  1  0
 15 16  2  0
 16 17  1  0
 16 18  1  0
 18 19  2  0
 12 20  2  0
  6 21  1  0
 21 22  2  0
 22  3  1  0
 20  9  1  0
 19 13  1  0
  1 23  1  0
  1 24  1  0
  1 25  1  0
  4 26  1  0
  5 27  1  0
  7 28  1  0
  8 29  1  0
  8 30  1  0
 10 31  1  0
 14 32  1  0
 15 33  1  0
 18 34  1  0
 19 35  1  0
 21 36  1  0
 22 37  1  0
M  END
>  <UniqueID>  (21) 
16

>  <SMILES>  (21) 
COc1ccc(NCc2coc(-c3ccc(F)cc3)n2)cc1

>  <Energy>  (21) 
66.96440465003798

>  <Genealogy>  (21) 
COc1ccc(NCc2coc(-c3ccc(F)cc3)n2)cc1 (3D coordinates assigned)
COc1ccc(NCc2coc(-c3ccc(F)cc3)n2)cc1 (optimized conformer: 66.96440465003798 kcal/mol)

>  <smiles>  (21) 
COc1ccc(NCc2coc(-c3ccc(F)cc3)n2)cc1

>  <score_type>  (21) 
oracle

>  <origin>  (21) 
adg

>  <m_score__min__energy>  (21) 
-7.25

>  <m_primary>  (21) 
energy

$$$$
21:0
     RDKit          3D

 26 27  0  0  0  0  0  0  0  0999 V2000
   57.1600   24.7140   47.1680 C   0  0  0  0  0  0  0  0  0  0  0  0
   57.3820   25.9200   46.3540 N   0  0  0  0  0  0  0  0  0  0  0  0
   58.6560   26.3120   46.0310 C   0  0  0  0  0  0  0  0  0  0  0  0
   59.6540   25.6350   46.4040 O   0  0  0  0  0  0  0  0  0  0  0  0
   58.8690   27.4720   45.2840 C   0  0  0  0  0  0  0  0  0  0  0  0
   57.7710   28.2390   44.8980 C   0  0  0  0  0  0  0  0  0  0  0  0
   57.9620   29.4200   44.1040 N   0  0  0  0  0  0  0  0  0  0  0  0
   58.2790   30.7130   44.6480 C   0  0  0  0  0  0  0  0  0  0  0  0
   59.0300   30.7960   45.8310 C   0  0  0  0  0  0  0  0  0  0  0  0
   59.3320   32.0420   46.3920 C   0  0  0  0  0  0  0  0  0  0  0  0
   58.8710   33.2140   45.7850 C   0  0  0  0  0  0  0  0  0  0  0  0
   59.2800   34.9130   46.5550 Br  0  0  0  0  0  0  0  0  0  0  0  0
   58.1010   33.1400   44.6210 C   0  0  0  0  0  0  0  0  0  0  0  0
   57.7990   31.8960   44.0570 C   0  0  0  0  0  0  0  0  0  0  0  0
   56.5230   27.8300   45.2470 N   0  0  0  0  0  0  0  0  0  0  0  0
   56.3190   26.7010   45.9720 C   0  0  0  0  0  0  0  0  0  0  0  0
   55.1390   26.3860   46.2880 O   0  0  0  0  0  0  0  0  0  0  0  0
   57.2085   24.9776   48.2348 H   0  0  0  0  0  0  0  0  0  0  0  0
   56.1695   24.2941   46.9388 H   0  0  0  0  0  0  0  0  0  0  0  0
   57.9361   23.9689   46.9388 H   0  0  0  0  0  0  0  0  0  0  0  0
   59.8884   27.7762   45.0041 H   0  0  0  0  0  0  0  0  0  0  0  0
   57.7790   29.3560   43.0760 H   0  0  0  0  0  0  0  0  0  0  0  0
   59.3832   29.8762   46.3200 H   0  0  0  0  0  0  0  0  0  0  0  0
   59.9328   32.0993   47.3116 H   0  0  0  0  0  0  0  0  0  0  0  0
   57.7318   34.0617   44.1475 H   0  0  0  0  0  0  0  0  0  0  0  0
   57.1833   31.8425   43.1470 H   0  0  0  0  0  0  0  0  0  0  0  0
  1  2  1  0
  2  3  1  0
  3  4  2  0
  3  5  1  0
  5  6  2  0
  6  7  1  0
  7  8  1  0
  8  9  2  0
  9 10  1  0
 10 11  2  0
 11 12  1  0
 11 13  1  0
 13 14  2  0
  6 15  1  0
 15 16  1  0
 16 17  2  0
 16  2  1  0
 14  8  1  0
  1 18  1  0
  1 19  1  0
  1 20  1  0
  5 21  1  0
  7 22  1  0
  9 23  1  0
 10 24  1  0
 13 25  1  0
 14 26  1  0
M  CHG  1  15  -1
M  END
>  <UniqueID>  (22) 
17

>  <SMILES>  (22) 
Cn1c(=O)cc(Nc2ccc(Br)cc2)[n-]c1=O

>  <Energy>  (22) 
34.368843073053135

>  <Genealogy>  (22) 
Cn1c(=O)cc(Nc2ccc(Br)cc2)[n-]c1=O (protonated)
Cn1c(=O)cc(Nc2ccc(Br)cc2)[n-]c1=O (3D coordinates assigned)
Cn1c(=O)cc(Nc2ccc(Br)cc2)[n-]c1=O (optimized conformer: 34.368843073053135 kcal/mol)

>  <smiles>  (22) 
Cn1c(=O)cc(Nc2ccc(Br)cc2)[nH]c1=O

>  <score_type>  (22) 
oracle

>  <origin>  (22) 
adg

>  <m_score__min__energy>  (22) 
-8.25

>  <m_primary>  (22) 
energy

$$$$
22:0
     RDKit          3D

 36 37  0  0  1  0  0  0  0  0999 V2000
   58.9960   27.4950   46.6880 C   0  0  0  0  0  0  0  0  0  0  0  0
   58.8070   28.4850   45.5640 C   0  0  0  0  0  0  0  0  0  0  0  0
   60.0870   28.7290   44.8430 C   0  0  0  0  0  0  0  0  0  0  0  0
   57.7030   27.9930   44.6580 C   0  0  0  0  0  0  0  0  0  0  0  0
   56.6370   28.9210   44.5680 O   0  0  0  0  0  0  0  0  0  0  0  0
   57.0080   30.2430   44.3220 C   0  0  0  0  0  0  0  0  0  0  0  0
   57.0450   31.1670   45.2880 N   0  0  0  0  0  0  0  0  0  0  0  0
   57.4050   32.4340   45.0300 C   0  0  0  0  0  0  0  0  0  0  0  0
   57.4480   33.3370   45.9480 N   0  0  0  0  0  0  0  0  0  0  0  0
   58.6390   33.4970   46.6860 C   0  0  0  0  0  0  0  0  0  0  0  0
   58.7510   33.1110   48.0160 C   0  0  0  0  0  0  0  0  0  0  0  0
   59.9450   33.2850   48.7130 C   0  0  0  0  0  0  0  0  0  0  0  0
   61.0610   33.8470   48.1080 C   0  0  0  0  0  0  0  0  0  0  0  0
   62.2810   34.0270   48.8120 C   0  0  0  0  0  0  0  0  0  0  0  0
   63.2960   34.1740   49.3760 N   0  0  0  0  0  0  0  0  0  0  0  0
   60.9170   34.2220   46.7790 C   0  0  0  0  0  0  0  0  0  0  0  0
   59.7330   34.0480   46.0900 C   0  0  0  0  0  0  0  0  0  0  0  0
   57.7480   32.8220   43.7520 C   0  0  0  0  0  0  0  0  0  0  0  0
   57.7090   31.8700   42.7530 C   0  0  0  0  0  0  0  0  0  0  0  0
   58.1400   32.3390   41.1200 Cl  0  0  0  0  0  0  0  0  0  0  0  0
   57.3380   30.6040   43.0680 N   0  0  0  0  0  0  0  0  0  0  0  0
   58.8971   28.0130   47.6534 H   0  0  0  0  0  0  0  0  0  0  0  0
   58.2321   26.7069   46.6148 H   0  0  0  0  0  0  0  0  0  0  0  0
   59.9965   27.0438   46.6148 H   0  0  0  0  0  0  0  0  0  0  0  0
   58.5038   29.4616   45.9694 H   0  0  0  0  0  0  0  0  0  0  0  0
   60.8954   28.8831   45.5729 H   0  0  0  0  0  0  0  0  0  0  0  0
   60.3237   27.8598   44.2118 H   0  0  0  0  0  0  0  0  0  0  0  0
   59.9874   29.6243   44.2118 H   0  0  0  0  0  0  0  0  0  0  0  0
   58.1162   27.8282   43.6520 H   0  0  0  0  0  0  0  0  0  0  0  0
   57.3056   27.0594   45.0829 H   0  0  0  0  0  0  0  0  0  0  0  0
   57.8856   32.6621   48.5255 H   0  0  0  0  0  0  0  0  0  0  0  0
   60.0046   32.9703   49.7653 H   0  0  0  0  0  0  0  0  0  0  0  0
   61.7744   34.6726   46.2577 H   0  0  0  0  0  0  0  0  0  0  0  0
   59.6719   34.3611   45.0373 H   0  0  0  0  0  0  0  0  0  0  0  0
   58.0438   33.8590   43.5350 H   0  0  0  0  0  0  0  0  0  0  0  0
   57.3080   29.8830   42.3160 H   0  0  0  0  0  0  0  0  0  0  0  0
  1  2  1  0
  2  3  1  0
  2  4  1  0
  4  5  1  0
  5  6  1  0
  6  7  2  0
  7  8  1  0
  8  9  2  0
  9 10  1  0
 10 11  2  0
 11 12  1  0
 12 13  2  0
 13 14  1  0
 14 15  3  0
 13 16  1  0
 16 17  2  0
  8 18  1  0
 18 19  2  0
 19 20  1  0
 19 21  1  0
 21  6  1  0
 17 10  1  0
  1 22  1  0
  1 23  1  0
  1 24  1  0
  2 25  1  0
  3 26  1  0
  3 27  1  0
  3 28  1  0
  4 29  1  0
  4 30  1  0
 11 31  1  0
 12 32  1  0
 16 33  1  0
 17 34  1  0
 18 35  1  0
 21 36  1  0
M  END
>  <smiles>  (23) 
CC(C)COc1nc(=Nc2ccc(C#N)cc2)cc(Cl)[nH]1

>  <score_type>  (23) 
oracle

>  <origin>  (23) 
adg

>  <m_score__min__energy>  (23) 
-7.6200000000000001

>  <m_primary>  (23) 
energy

$$$$
23:0
     RDKit          3D

 35 37  0  0  0  0  0  0  0  0999 V2000
   61.8690   32.2000   47.4170 C   0  0  0  0  0  0  0  0  0  0  0  0
   60.2990   31.2760   47.3980 S   0  0  0  0  0  0  0  0  0  0  0  0
   59.4520   32.4790   46.3640 C   0  0  0  0  0  0  0  0  0  0  0  0
   59.8130   33.7860   46.4790 N   0  0  0  0  0  0  0  0  0  0  0  0
   59.1950   34.7730   45.7790 C   0  0  0  0  0  0  0  0  0  0  0  0
   58.1400   34.4650   44.9240 C   0  0  0  0  0  0  0  0  0  0  0  0
   57.7290   33.1380   44.7960 C   0  0  0  0  0  0  0  0  0  0  0  0
   58.3850   32.1200   45.5060 C   0  0  0  0  0  0  0  0  0  0  0  0
   57.8910   30.7300   45.3850 C   0  0  0  0  0  0  0  0  0  0  0  0
   56.6570   30.5290   45.2120 O   0  0  0  0  0  0  0  0  0  0  0  0
   58.8030   29.6230   45.3790 N   0  0  0  0  0  0  0  0  0  0  0  0
   58.4330   28.2770   45.7220 C   0  0  0  0  0  0  0  0  0  0  0  0
   59.4050   27.3010   46.0160 C   0  0  0  0  0  0  0  0  0  0  0  0
   59.0220   25.9910   46.3280 C   0  0  0  0  0  0  0  0  0  0  0  0
   57.6700   25.6450   46.3380 C   0  0  0  0  0  0  0  0  0  0  0  0
   56.7000   26.5970   46.0000 C   0  0  0  0  0  0  0  0  0  0  0  0
   57.0770   27.9090   45.7010 C   0  0  0  0  0  0  0  0  0  0  0  0
   55.3550   26.2140   45.9660 O   0  0  0  0  0  0  0  0  0  0  0  0
   54.9790   24.8340   45.9960 C   0  0  0  0  0  0  0  0  0  0  0  0
   55.8920   24.0560   46.9520 C   0  0  0  0  0  0  0  0  0  0  0  0
   57.2630   24.3510   46.6770 O   0  0  0  0  0  0  0  0  0  0  0  0
   62.1757   32.3805   48.4579 H   0  0  0  0  0  0  0  0  0  0  0  0
   62.6452   31.6147   46.9023 H   0  0  0  0  0  0  0  0  0  0  0  0
   61.7341   33.1628   46.9023 H   0  0  0  0  0  0  0  0  0  0  0  0
   59.5282   35.8157   45.8877 H   0  0  0  0  0  0  0  0  0  0  0  0
   57.6357   35.2601   44.3552 H   0  0  0  0  0  0  0  0  0  0  0  0
   56.8861   32.8879   44.1350 H   0  0  0  0  0  0  0  0  0  0  0  0
   59.7670   29.7940   45.0160 H   0  0  0  0  0  0  0  0  0  0  0  0
   60.4716   27.5697   46.0004 H   0  0  0  0  0  0  0  0  0  0  0  0
   59.7856   25.2355   46.5649 H   0  0  0  0  0  0  0  0  0  0  0  0
   56.3100   28.6559   45.4484 H   0  0  0  0  0  0  0  0  0  0  0  0
   53.9373   24.7488   46.3388 H   0  0  0  0  0  0  0  0  0  0  0  0
   55.0775   24.4134   44.9844 H   0  0  0  0  0  0  0  0  0  0  0  0
   55.6600   24.3417   47.9886 H   0  0  0  0  0  0  0  0  0  0  0  0
   55.7223   22.9783   46.8117 H   0  0  0  0  0  0  0  0  0  0  0  0
  1  2  1  0
  2  3  1  0
  3  4  2  0
  4  5  1  0
  5  6  2  0
  6  7  1  0
  7  8  2  0
  8  9  1  0
  9 10  2  0
  9 11  1  0
 11 12  1  0
 12 13  2  0
 13 14  1  0
 14 15  2  0
 15 16  1  0
 16 17  2  0
 16 18  1  0
 18 19  1  0
 19 20  1  0
 20 21  1  0
  8  3  1  0
 17 12  1  0
 21 15  1  0
  1 22  1  0
  1 23  1  0
  1 24  1  0
  5 25  1  0
  6 26  1  0
  7 27  1  0
 11 28  1  0
 13 29  1  0
 14 30  1  0
 17 31  1  0
 19 32  1  0
 19 33  1  0
 20 34  1  0
 20 35  1  0
M  END
>  <UniqueID>  (24) 
18

>  <SMILES>  (24) 
CSc1ncccc1C(=O)Nc1ccc2c(c1)OCCO2

>  <Energy>  (24) 
44.10135079262089

>  <Genealogy>  (24) 
CSc1ncccc1C(=O)Nc1ccc2c(c1)OCCO2 (3D coordinates assigned)
CSc1ncccc1C(=O)Nc1ccc2c(c1)OCCO2 (nonaromatic ring conformer: 44.10135079262089 kcal/mol)

>  <smiles>  (24) 
CSc1ncccc1C(=O)Nc1ccc2c(c1)OCCO2

>  <score_type>  (24) 
oracle

>  <origin>  (24) 
adg

>  <m_score__min__energy>  (24) 
-7.3499999999999996

>  <m_primary>  (24) 
energy

$$$$
24:0
     RDKit          3D

 28 28  0  0  0  0  0  0  0  0999 V2000
   55.6840   28.6530   55.7040 C   0  0  0  0  0  0  0  0  0  0  0  0
   55.3070   30.1260   55.7270 C   0  0  0  0  0  0  0  0  0  0  0  0
   56.2850   30.8660   55.0260 O   0  0  0  0  0  0  0  0  0  0  0  0
   56.9550   30.0420   54.0910 C   0  0  0  0  0  0  0  0  0  0  0  0
   56.9390   30.6690   52.6940 C   0  0  0  0  0  0  0  0  0  0  0  0
   55.9840   30.0170   51.8570 O   0  0  0  0  0  0  0  0  0  0  0  0
   54.7290   29.5840   52.3000 C   0  0  0  0  0  0  0  0  0  0  0  0
   54.5860   28.4170   52.7590 O   0  0  0  0  0  0  0  0  0  0  0  0
   53.5660   30.4960   52.2200 C   0  0  0  0  0  0  0  0  0  0  0  0
   52.7580   30.7170   53.3510 C   0  0  0  0  0  0  0  0  0  0  0  0
   51.6570   31.5760   53.2770 C   0  0  0  0  0  0  0  0  0  0  0  0
   51.3510   32.2230   52.0760 C   0  0  0  0  0  0  0  0  0  0  0  0
   50.2570   33.0760   52.0060 O   0  0  0  0  0  0  0  0  0  0  0  0
   52.1460   32.0100   50.9470 C   0  0  0  0  0  0  0  0  0  0  0  0
   53.2480   31.1510   51.0160 C   0  0  0  0  0  0  0  0  0  0  0  0
   55.7788   28.2826   56.7354 H   0  0  0  0  0  0  0  0  0  0  0  0
   54.9029   28.0827   55.1800 H   0  0  0  0  0  0  0  0  0  0  0  0
   56.6431   28.5281   55.1800 H   0  0  0  0  0  0  0  0  0  0  0  0
   54.3272   30.2627   55.2460 H   0  0  0  0  0  0  0  0  0  0  0  0
   55.2526   30.4777   56.7678 H   0  0  0  0  0  0  0  0  0  0  0  0
   57.9983   29.9079   54.4128 H   0  0  0  0  0  0  0  0  0  0  0  0
   56.4373   29.0725   54.0452 H   0  0  0  0  0  0  0  0  0  0  0  0
   56.6763   31.7337   52.7795 H   0  0  0  0  0  0  0  0  0  0  0  0
   57.9369   30.5559   52.2452 H   0  0  0  0  0  0  0  0  0  0  0  0
   52.9939   30.2110   54.2988 H   0  0  0  0  0  0  0  0  0  0  0  0
   51.0304   31.7430   54.1655 H   0  0  0  0  0  0  0  0  0  0  0  0
   51.9049   32.5187   50.0020 H   0  0  0  0  0  0  0  0  0  0  0  0
   53.8697   30.9866   50.1235 H   0  0  0  0  0  0  0  0  0  0  0  0
  1  2  1  0
  2  3  1  0
  3  4  1  0
  4  5  1  0
  5  6  1  0
  6  7  1  0
  7  8  2  0
  7  9  1  0
  9 10  2  0
 10 11  1  0
 11 12  2  0
 12 13  1  0
 12 14  1  0
 14 15  2  0
 15  9  1  0
  1 16  1  0
  1 17  1  0
  1 18  1  0
  2 19  1  0
  2 20  1  0
  4 21  1  0
  4 22  1  0
  5 23  1  0
  5 24  1  0
 10 25  1  0
 11 26  1  0
 14 27  1  0
 15 28  1  0
M  CHG  1  13  -1
M  END
>  <UniqueID>  (25) 
19

>  <SMILES>  (25) 
CCOCCOC(=O)c1ccc([O-])cc1

>  <Energy>  (25) 
22.81456880602112

>  <Genealogy>  (25) 
CCOCCOC(=O)c1ccc([O-])cc1 (protonated)
CCOCCOC(=O)c1ccc([O-])cc1 (3D coordinates assigned)
CCOCCOC(=O)c1ccc([O-])cc1 (optimized conformer: 22.81456880602112 kcal/mol)

>  <smiles>  (25) 
CCOCCOC(=O)c1ccc(O)cc1

>  <score_type>  (25) 
oracle

>  <origin>  (25) 
adg

>  <m_score__min__energy>  (25) 
-8.7599999999999998

>  <m_primary>  (25) 
energy

$$$$
25:0
     RDKit          3D

 40 42  0  0  0  0  0  0  0  0999 V2000
   56.9400   30.8740   45.1900 O   0  0  0  0  0  0  0  0  0  0  0  0
   57.9340   30.6850   45.9440 C   0  0  0  0  0  0  0  0  0  0  0  0
   58.4250   31.7590   46.7580 N   0  0  0  0  0  0  0  0  0  0  0  0
   58.1020   33.1570   46.4650 C   0  0  2  0  0  0  0  0  0  0  0  0
   58.3410   33.4760   44.9860 C   0  0  0  0  0  0  0  0  0  0  0  0
   58.8550   34.9100   44.8890 C   0  0  0  0  0  0  0  0  0  0  0  0
   60.0110   35.1740   46.2660 S   0  0  0  0  0  0  0  0  0  0  0  0
   58.9850   34.0860   47.2310 C   0  0  0  0  0  0  0  0  0  0  0  0
   58.9330   34.1700   48.4480 O   0  0  0  0  0  0  0  0  0  0  0  0
   58.5650   29.3460   45.9920 C   0  0  0  0  0  0  0  0  0  0  0  0
   58.3240   28.4360   44.9490 C   0  0  0  0  0  0  0  0  0  0  0  0
   58.9120   27.1700   44.9640 C   0  0  0  0  0  0  0  0  0  0  0  0
   59.7500   26.8010   46.0130 C   0  0  0  0  0  0  0  0  0  0  0  0
   60.0160   27.6990   47.0480 C   0  0  0  0  0  0  0  0  0  0  0  0
   59.4370   28.9850   47.0450 C   0  0  0  0  0  0  0  0  0  0  0  0
   59.7230   29.9270   48.0490 O   0  0  0  0  0  0  0  0  0  0  0  0
   60.9550   30.0380   48.7630 C   0  0  0  0  0  0  0  0  0  0  0  0
   61.6220   31.3530   48.4680 C   0  0  0  0  0  0  0  0  0  0  0  0
   62.5080   31.4800   47.3840 C   0  0  0  0  0  0  0  0  0  0  0  0
   63.1270   32.7060   47.1220 C   0  0  0  0  0  0  0  0  0  0  0  0
   62.8740   33.8100   47.9410 C   0  0  0  0  0  0  0  0  0  0  0  0
   62.0020   33.6880   49.0260 C   0  0  0  0  0  0  0  0  0  0  0  0
   61.3800   32.4640   49.2930 C   0  0  0  0  0  0  0  0  0  0  0  0
   59.0390   31.5320   47.5750 H   0  0  0  0  0  0  0  0  0  0  0  0
   57.0457   33.2925   46.7405 H   0  0  0  0  0  0  0  0  0  0  0  0
   59.0876   32.7831   44.5707 H   0  0  0  0  0  0  0  0  0  0  0  0
   57.4067   33.3659   44.4159 H   0  0  0  0  0  0  0  0  0  0  0  0
   59.3735   35.0585   43.9303 H   0  0  0  0  0  0  0  0  0  0  0  0
   58.0200   35.6241   44.9434 H   0  0  0  0  0  0  0  0  0  0  0  0
   57.6673   28.7232   44.1146 H   0  0  0  0  0  0  0  0  0  0  0  0
   58.7129   26.4626   44.1455 H   0  0  0  0  0  0  0  0  0  0  0  0
   60.2037   25.7990   46.0261 H   0  0  0  0  0  0  0  0  0  0  0  0
   60.6818   27.4016   47.8716 H   0  0  0  0  0  0  0  0  0  0  0  0
   60.7546   29.9686   49.8424 H   0  0  0  0  0  0  0  0  0  0  0  0
   61.6227   29.2232   48.4463 H   0  0  0  0  0  0  0  0  0  0  0  0
   62.7149   30.6124   46.7401 H   0  0  0  0  0  0  0  0  0  0  0  0
   63.8149   32.8020   46.2690 H   0  0  0  0  0  0  0  0  0  0  0  0
   63.3609   34.7739   47.7316 H   0  0  0  0  0  0  0  0  0  0  0  0
   61.8043   34.5564   49.6715 H   0  0  0  0  0  0  0  0  0  0  0  0
   60.6990   32.3710   50.1519 H   0  0  0  0  0  0  0  0  0  0  0  0
  1  2  2  0
  2  3  1  0
  3  4  1  0
  4  5  1  0
  5  6  1  0
  6  7  1  0
  7  8  1  0
  8  9  2  0
  2 10  1  0
 10 11  2  0
 11 12  1  0
 12 13  2  0
 13 14  1  0
 14 15  2  0
 15 16  1  0
 16 17  1  0
 17 18  1  0
 18 19  2  0
 19 20  1  0
 20 21  2  0
 21 22  1  0
 22 23  2  0
  8  4  1  0
 15 10  1  0
 23 18  1  0
  3 24  1  0
  4 25  1  1
  5 26  1  0
  5 27  1  0
  6 28  1  0
  6 29  1  0
 11 30  1  0
 12 31  1  0
 13 32  1  0
 14 33  1  0
 17 34  1  0
 17 35  1  0
 19 36  1  0
 20 37  1  0
 21 38  1  0
 22 39  1  0
 23 40  1  0
M  END
>  <UniqueID>  (26) 
20

>  <SMILES>  (26) 
O=C(N[C@@H]1CCSC1=O)c1ccccc1OCc1ccccc1

>  <Energy>  (26) 
46.422268683875295

>  <Genealogy>  (26) 
O=C(N[C@@H]1CCSC1=O)c1ccccc1OCc1ccccc1 (chirality)
O=C(N[C@@H]1CCSC1=O)c1ccccc1OCc1ccccc1 (3D coordinates assigned)
O=C(N[C@@H]1CCSC1=O)c1ccccc1OCc1ccccc1 (nonaromatic ring conformer: 46.422268683875295 kcal/mol)

>  <smiles>  (26) 
O=C(NC1CCSC1=O)c1ccccc1OCc1ccccc1

>  <score_type>  (26) 
oracle

>  <origin>  (26) 
adg

>  <m_score__min__energy>  (26) 
-7.5

>  <m_primary>  (26) 
energy

$$$$
26:0
     RDKit          3D

 31 32  0  0  0  0  0  0  0  0999 V2000
   58.8870   30.0160   47.2600 C   0  0  0  0  0  0  0  0  0  0  0  0
   58.0620   31.0090   46.6620 O   0  0  0  0  0  0  0  0  0  0  0  0
   58.4580   32.3360   46.4210 C   0  0  0  0  0  0  0  0  0  0  0  0
   59.0970   33.1120   47.4090 C   0  0  0  0  0  0  0  0  0  0  0  0
   59.4910   34.4230   47.1330 C   0  0  0  0  0  0  0  0  0  0  0  0
   59.2590   34.9740   45.8730 C   0  0  0  0  0  0  0  0  0  0  0  0
   58.6270   34.2170   44.8840 C   0  0  0  0  0  0  0  0  0  0  0  0
   58.2120   32.9020   45.1520 C   0  0  0  0  0  0  0  0  0  0  0  0
   57.5570   32.0880   44.0660 C   0  0  0  0  0  0  0  0  0  0  0  0
   56.4010   31.3720   44.6170 N   0  0  0  0  0  0  0  0  0  0  0  0
   56.0700   30.2150   43.7810 C   0  0  0  0  0  0  0  0  0  0  0  0
   56.5950   28.9700   44.4200 C   0  0  0  0  0  0  0  0  0  0  0  0
   57.8720   28.4630   44.2780 C   0  0  0  0  0  0  0  0  0  0  0  0
   57.9130   27.3360   45.0700 C   0  0  0  0  0  0  0  0  0  0  0  0
   56.6620   27.2270   45.6470 C   0  0  0  0  0  0  0  0  0  0  0  0
   55.9010   28.2170   45.2430 O   0  0  0  0  0  0  0  0  0  0  0  0
   58.8211   30.0954   48.3551 H   0  0  0  0  0  0  0  0  0  0  0  0
   58.5481   29.0185   46.9436 H   0  0  0  0  0  0  0  0  0  0  0  0
   59.9297   30.1664   46.9436 H   0  0  0  0  0  0  0  0  0  0  0  0
   59.2865   32.6823   48.4037 H   0  0  0  0  0  0  0  0  0  0  0  0
   59.9856   35.0226   47.9114 H   0  0  0  0  0  0  0  0  0  0  0  0
   59.5741   36.0057   45.6579 H   0  0  0  0  0  0  0  0  0  0  0  0
   58.4532   34.6531   43.8892 H   0  0  0  0  0  0  0  0  0  0  0  0
   57.2229   32.7562   43.2586 H   0  0  0  0  0  0  0  0  0  0  0  0
   58.2804   31.3617   43.6672 H   0  0  0  0  0  0  0  0  0  0  0  0
   56.6680   31.0190   45.5670 H   0  0  0  0  0  0  0  0  0  0  0  0
   54.9777   30.1399   43.6752 H   0  0  0  0  0  0  0  0  0  0  0  0
   56.5277   30.3379   42.7883 H   0  0  0  0  0  0  0  0  0  0  0  0
   58.6858   28.8730   43.6618 H   0  0  0  0  0  0  0  0  0  0  0  0
   58.7686   26.6598   45.2138 H   0  0  0  0  0  0  0  0  0  0  0  0
   56.3512   26.4311   46.3398 H   0  0  0  0  0  0  0  0  0  0  0  0
  1  2  1  0
  2  3  1  0
  3  4  2  0
  4  5  1  0
  5  6  2  0
  6  7  1  0
  7  8  2  0
  8  9  1  0
  9 10  1  0
 10 11  1  0
 11 12  1  0
 12 13  2  0
 13 14  1  0
 14 15  2  0
 15 16  1  0
  8  3  1  0
 16 12  1  0
  1 17  1  0
  1 18  1  0
  1 19  1  0
  4 20  1  0
  5 21  1  0
  6 22  1  0
  7 23  1  0
  9 24  1  0
  9 25  1  0
 10 26  1  0
 11 27  1  0
 11 28  1  0
 13 29  1  0
 14 30  1  0
 15 31  1  0
M  END
>  <UniqueID>  (27) 
21

>  <SMILES>  (27) 
COc1ccccc1CNCc1ccco1

>  <Energy>  (27) 
53.734130111230755

>  <Genealogy>  (27) 
COc1ccccc1CNCc1ccco1 (3D coordinates assigned)
COc1ccccc1CNCc1ccco1 (optimized conformer: 53.734130111230755 kcal/mol)

>  <smiles>  (27) 
COc1ccccc1CNCc1ccco1

>  <score_type>  (27) 
oracle

>  <origin>  (27) 
adg

>  <m_score__min__energy>  (27) 
-6.0499999999999998

>  <m_primary>  (27) 
energy

$$$$
27:0
     RDKit          3D

 32 34  0  0  0  0  0  0  0  0999 V2000
   63.8960   31.4660   50.2720 C   0  0  0  0  0  0  0  0  0  0  0  0
   63.4080   32.1320   49.0200 C   0  0  0  0  0  0  0  0  0  0  0  0
   62.1670   31.7760   48.4740 C   0  0  0  0  0  0  0  0  0  0  0  0
   61.6980   32.4230   47.3190 C   0  0  0  0  0  0  0  0  0  0  0  0
   60.3890   32.0530   46.7220 C   0  0  0  0  0  0  0  0  0  0  0  0
   59.4180   33.0380   46.4670 C   0  0  0  0  0  0  0  0  0  0  0  0
   58.1900   32.6940   45.8970 C   0  0  0  0  0  0  0  0  0  0  0  0
   57.9100   31.3620   45.5830 C   0  0  0  0  0  0  0  0  0  0  0  0
   58.8650   30.3610   45.8410 C   0  0  0  0  0  0  0  0  0  0  0  0
   60.1050   30.7130   46.3950 C   0  0  0  0  0  0  0  0  0  0  0  0
   58.6010   28.9390   45.4030 C   0  0  0  0  0  0  0  0  0  0  0  0
   57.1120   28.5730   45.4870 C   0  0  0  0  0  0  0  0  0  0  0  0
   56.2600   29.6470   44.8750 C   0  0  0  0  0  0  0  0  0  0  0  0
   55.1780   29.3530   44.3050 O   0  0  0  0  0  0  0  0  0  0  0  0
   56.6460   31.0170   45.0110 N   0  0  0  0  0  0  0  0  0  0  0  0
   62.4890   33.4280   46.7410 C   0  0  0  0  0  0  0  0  0  0  0  0
   63.7120   33.7680   47.3220 C   0  0  0  0  0  0  0  0  0  0  0  0
   64.1420   33.1270   48.4410 N   0  0  0  0  0  0  0  0  0  0  0  0
   63.5036   32.0015   51.1490 H   0  0  0  0  0  0  0  0  0  0  0  0
   63.5467   30.4231   50.2926 H   0  0  0  0  0  0  0  0  0  0  0  0
   64.9956   31.4848   50.2926 H   0  0  0  0  0  0  0  0  0  0  0  0
   61.5611   30.9907   48.9496 H   0  0  0  0  0  0  0  0  0  0  0  0
   59.6274   34.0882   46.7186 H   0  0  0  0  0  0  0  0  0  0  0  0
   57.4414   33.4742   45.6948 H   0  0  0  0  0  0  0  0  0  0  0  0
   60.8619   29.9355   46.5755 H   0  0  0  0  0  0  0  0  0  0  0  0
   58.9366   28.8209   44.3621 H   0  0  0  0  0  0  0  0  0  0  0  0
   59.1520   28.2694   46.0798 H   0  0  0  0  0  0  0  0  0  0  0  0
   56.9425   27.6287   44.9489 H   0  0  0  0  0  0  0  0  0  0  0  0
   56.8358   28.4669   46.5465 H   0  0  0  0  0  0  0  0  0  0  0  0
   62.1464   33.9461   45.8331 H   0  0  0  0  0  0  0  0  0  0  0  0
   64.3307   34.5584   46.8721 H   0  0  0  0  0  0  0  0  0  0  0  0
   65.0570   33.4100   48.8590 H   0  0  0  0  0  0  0  0  0  0  0  0
  1  2  1  0
  2  3  2  0
  3  4  1  0
  4  5  1  0
  5  6  2  0
  6  7  1  0
  7  8  2  0
  8  9  1  0
  9 10  2  0
  9 11  1  0
 11 12  1  0
 12 13  1  0
 13 14  2  0
 13 15  1  0
  4 16  2  0
 16 17  1  0
 17 18  2  0
 18  2  1  0
 10  5  1  0
 15  8  1  0
  1 19  1  0
  1 20  1  0
  1 21  1  0
  3 22  1  0
  6 23  1  0
  7 24  1  0
 10 25  1  0
 11 26  1  0
 11 27  1  0
 12 28  1  0
 12 29  1  0
 16 30  1  0
 17 31  1  0
 18 32  1  0
M  CHG  2  15  -1  18   1
M  END
>  <UniqueID>  (28) 
22

>  <SMILES>  (28) 
Cc1cc(-c2ccc3c(c2)CCC(=O)[N-]3)cc[nH+]1

>  <Energy>  (28) 
38.60061907125222

>  <Genealogy>  (28) 
Cc1cc(-c2ccc3c(c2)CCC(=O)[N-]3)cc[nH+]1 (protonated)
Cc1cc(-c2ccc3c(c2)CCC(=O)[N-]3)cc[nH+]1 (3D coordinates assigned)
Cc1cc(-c2ccc3c(c2)CCC(=O)[N-]3)cc[nH+]1 (nonaromatic ring conformer: 38.60061907125222 kcal/mol)

>  <smiles>  (28) 
Cc1cc(-c2ccc3c(c2)CCC(=O)N3)ccn1

>  <score_type>  (28) 
oracle

>  <origin>  (28) 
adg

>  <m_score__min__energy>  (28) 
-7.3600000000000003

>  <m_primary>  (28) 
energy

$$$$
28:0
     RDKit          3D

 39 41  0  0  1  0  0  0  0  0999 V2000
   56.1310   26.0970   46.0050 C   0  0  0  0  0  0  0  0  0  0  0  0
   55.9130   27.4140   45.6230 O   0  0  0  0  0  0  0  0  0  0  0  0
   57.1080   27.9670   45.2000 C   0  0  0  0  0  0  0  0  0  0  0  0
   56.9780   29.4180   45.0710 C   0  0  0  0  0  0  0  0  0  0  0  0
   57.9360   30.3200   45.5030 C   0  0  0  0  0  0  0  0  0  0  0  0
   57.4860   31.5960   45.2200 C   0  0  0  0  0  0  0  0  0  0  0  0
   58.1560   32.8640   45.4930 C   0  0  0  0  0  0  0  0  0  0  0  0
   58.6620   33.0710   46.7640 C   0  0  0  0  0  0  0  0  0  0  0  0
   59.3030   34.2660   47.0490 C   0  0  0  0  0  0  0  0  0  0  0  0
   59.7690   34.4330   48.2510 N   0  0  0  0  0  0  0  0  0  0  0  0
   61.0670   33.9180   48.6100 C   0  0  0  0  0  0  0  0  0  0  0  0
   62.0890   33.7810   47.7260 C   0  0  0  0  0  0  0  0  0  0  0  0
   63.3250   33.2800   48.1120 C   0  0  0  0  0  0  0  0  0  0  0  0
   63.4970   32.9230   49.4140 C   0  0  0  0  0  0  0  0  0  0  0  0
   64.7850   32.3940   49.8470 C   0  0  0  0  0  0  0  0  0  0  0  0
   66.0040   33.0880   49.6100 N   0  0  0  0  0  0  0  0  0  0  0  0
   64.8460   31.2900   50.4510 O   0  0  0  0  0  0  0  0  0  0  0  0
   62.4760   33.0530   50.3330 C   0  0  0  0  0  0  0  0  0  0  0  0
   61.2410   33.5560   49.9310 C   0  0  0  0  0  0  0  0  0  0  0  0
   59.4370   35.2180   46.1070 N   0  0  0  0  0  0  0  0  0  0  0  0
   58.9300   34.9770   44.8810 C   0  0  0  0  0  0  0  0  0  0  0  0
   58.3010   33.8300   44.5660 N   0  0  0  0  0  0  0  0  0  0  0  0
   56.3140   31.4200   44.6490 O   0  0  0  0  0  0  0  0  0  0  0  0
   55.9980   30.1860   44.5500 N   0  0  0  0  0  0  0  0  0  0  0  0
   56.1420   26.0307   47.1029 H   0  0  0  0  0  0  0  0  0  0  0  0
   55.3258   25.4618   45.6073 H   0  0  0  0  0  0  0  0  0  0  0  0
   57.0980   25.7551   45.6073 H   0  0  0  0  0  0  0  0  0  0  0  0
   57.8943   27.7369   45.9340 H   0  0  0  0  0  0  0  0  0  0  0  0
   57.3717   27.5427   44.2200 H   0  0  0  0  0  0  0  0  0  0  0  0
   58.8901   30.0651   45.9875 H   0  0  0  0  0  0  0  0  0  0  0  0
   58.5568   32.2968   47.5383 H   0  0  0  0  0  0  0  0  0  0  0  0
   61.9335   34.0745   46.6773 H   0  0  0  0  0  0  0  0  0  0  0  0
   64.1435   33.1744   47.3848 H   0  0  0  0  0  0  0  0  0  0  0  0
   66.1530   34.0550   50.0250 H   0  0  0  0  0  0  0  0  0  0  0  0
   66.7390   32.6560   49.0410 H   0  0  0  0  0  0  0  0  0  0  0  0
   62.6371   32.7600   51.3809 H   0  0  0  0  0  0  0  0  0  0  0  0
   60.4184   33.6630   50.6535 H   0  0  0  0  0  0  0  0  0  0  0  0
   59.0350   35.7505   44.1059 H   0  0  0  0  0  0  0  0  0  0  0  0
   57.9080   33.6380   43.6180 H   0  0  0  0  0  0  0  0  0  0  0  0
  1  2  1  0
  2  3  1  0
  3  4  1  0
  4  5  1  0
  5  6  2  0
  6  7  1  0
  7  8  2  0
  8  9  1  0
  9 10  2  0
 10 11  1  0
 11 12  2  0
 12 13  1  0
 13 14  2  0
 14 15  1  0
 15 16  1  0
 15 17  2  0
 14 18  1  0
 18 19  2  0
  9 20  1  0
 20 21  2  0
 21 22  1  0
  6 23  1  0
 23 24  1  0
 24  4  2  0
 22  7  1  0
 19 11  1  0
  1 25  1  0
  1 26  1  0
  1 27  1  0
  3 28  1  0
  3 29  1  0
  5 30  1  0
  8 31  1  0
 12 32  1  0
 13 33  1  0
 16 34  1  0
 16 35  1  0
 18 36  1  0
 19 37  1  0
 21 38  1  0
 22 39  1  0
M  END
>  <smiles>  (29) 
COCc1cc(-c2cc(=Nc3ccc(C(N)=O)cc3)nc[nH]2)on1

>  <score_type>  (29) 
oracle

>  <origin>  (29) 
adg

>  <m_score__min__energy>  (29) 
-7.9500000000000002

>  <m_primary>  (29) 
energy

$$$$
29:0
     RDKit          3D

 40 43  0  0  0  0  0  0  0  0999 V2000
   56.3640   29.6800   43.8540 C   0  0  0  0  0  0  0  0  0  0  0  0
   57.5400   30.1590   44.5730 N   0  0  0  0  0  0  0  0  0  0  0  0
   58.6730   29.4620   44.8290 C   0  0  0  0  0  0  0  0  0  0  0  0
   59.5470   30.2190   45.6060 C   0  0  0  0  0  0  0  0  0  0  0  0
   58.8900   31.4120   45.8370 C   0  0  0  0  0  0  0  0  0  0  0  0
   59.2560   32.5550   46.5490 C   0  0  0  0  0  0  0  0  0  0  0  0
   60.5130   32.6500   47.2260 N   0  0  0  0  0  0  0  0  0  0  0  0
   61.0110   31.4600   47.9450 C   0  0  0  0  0  0  0  0  0  0  0  0
   62.4880   31.6360   48.3730 C   0  0  1  0  0  0  0  0  0  0  0  0
   63.3880   31.6430   47.1260 C   0  0  0  0  0  0  0  0  0  0  0  0
   63.4860   33.1170   46.7450 C   0  0  0  0  0  0  0  0  0  0  0  0
   62.6340   33.8380   47.8030 C   0  0  1  0  0  0  0  0  0  0  0  0
   61.1780   33.9680   47.2970 C   0  0  0  0  0  0  0  0  0  0  0  0
   62.6350   32.9650   48.9850 N   0  0  2  0  0  0  0  0  0  0  0  0
   63.8730   33.0870   49.7790 C   0  0  0  0  0  0  0  0  0  0  0  0
   58.3380   33.6210   46.5760 C   0  0  0  0  0  0  0  0  0  0  0  0
   57.0980   33.4990   45.9080 C   0  0  0  0  0  0  0  0  0  0  0  0
   56.7860   32.3550   45.2280 N   0  0  0  0  0  0  0  0  0  0  0  0
   57.6840   31.3370   45.2010 C   0  0  0  0  0  0  0  0  0  0  0  0
   55.5953   29.3669   44.5758 H   0  0  0  0  0  0  0  0  0  0  0  0
   55.9663   30.4878   43.2221 H   0  0  0  0  0  0  0  0  0  0  0  0
   56.6439   28.8242   43.2221 H   0  0  0  0  0  0  0  0  0  0  0  0
   58.8747   28.4409   44.4731 H   0  0  0  0  0  0  0  0  0  0  0  0
   60.5471   29.9286   45.9601 H   0  0  0  0  0  0  0  0  0  0  0  0
   60.3950   31.3001   48.8422 H   0  0  0  0  0  0  0  0  0  0  0  0
   60.9473   30.5949   47.2686 H   0  0  0  0  0  0  0  0  0  0  0  0
   62.7635   30.8224   49.0602 H   0  0  0  0  0  0  0  0  0  0  0  0
   64.3818   31.2333   47.3596 H   0  0  0  0  0  0  0  0  0  0  0  0
   62.9853   31.0227   46.3117 H   0  0  0  0  0  0  0  0  0  0  0  0
   64.5300   33.4614   46.7840 H   0  0  0  0  0  0  0  0  0  0  0  0
   63.1375   33.3111   45.7199 H   0  0  0  0  0  0  0  0  0  0  0  0
   63.0302   34.8412   48.0189 H   0  0  0  0  0  0  0  0  0  0  0  0
   60.6161   34.6159   47.9858 H   0  0  0  0  0  0  0  0  0  0  0  0
   61.1998   34.4001   46.2857 H   0  0  0  0  0  0  0  0  0  0  0  0
   61.8320   33.1840   49.6250 H   0  0  0  0  0  0  0  0  0  0  0  0
   63.6253   33.0626   50.8505 H   0  0  0  0  0  0  0  0  0  0  0  0
   64.5463   32.2509   49.5392 H   0  0  0  0  0  0  0  0  0  0  0  0
   64.3701   34.0385   49.5392 H   0  0  0  0  0  0  0  0  0  0  0  0
   58.5846   34.5473   47.1157 H   0  0  0  0  0  0  0  0  0  0  0  0
   56.3789   34.3309   45.9357 H   0  0  0  0  0  0  0  0  0  0  0  0
  1  2  1  0
  2  3  1  0
  3  4  2  0
  4  5  1  0
  5  6  2  0
  6  7  1  0
  7  8  1  0
  8  9  1  0
  9 10  1  0
 10 11  1  0
 11 12  1  0
 12 13  1  0
 12 14  1  0
 14 15  1  0
  6 16  1  0
 16 17  2  0
 17 18  1  0
 18 19  2  0
 19  2  1  0
 19  5  1  0
 13  7  1  0
 14  9  1  0
  1 20  1  0
  1 21  1  0
  1 22  1  0
  3 23  1  0
  4 24  1  0
  8 25  1  0
  8 26  1  0
  9 27  1  1
 10 28  1  0
 10 29  1  0
 11 30  1  0
 11 31  1  0
 12 32  1  1
 13 33  1  0
 13 34  1  0
 14 35  1  1
 15 36  1  0
 15 37  1  0
 15 38  1  0
 16 39  1  0
 17 40  1  0
M  CHG  1  14   1
M  END
>  <UniqueID>  (30) 
23

>  <SMILES>  (30) 
Cn1ccc2c(N3C[C@H]4CC[C@@H](C3)[NH+]4C)ccnc21

>  <Energy>  (30) 
93.36315730350775

>  <Genealogy>  (30) 
Cn1ccc2c(N3CC4CCC(C3)[NH+]4C)ccnc21 (protonated)
Cn1ccc2c(N3C[C@H]4CC[C@@H](C3)[NH+]4C)ccnc21 (chirality)
Cn1ccc2c(N3C[C@H]4CC[C@@H](C3)[NH+]4C)ccnc21 (3D coordinates assigned)
Cn1ccc2c(N3C[C@H]4CC[C@@H](C3)[NH+]4C)ccnc21 (nonaromatic ring conformer: 93.36315730350775 kcal/mol)

>  <smiles>  (30) 
CN1C2CCC1CN(c1ccnc3c1ccn3C)C2

>  <score_type>  (30) 
oracle

>  <origin>  (30) 
adg

>  <m_score__min__energy>  (30) 
-5.3200000000000003

>  <m_primary>  (30) 
energy

$$$$
30:0
     RDKit          3D

 47 49  0  0  0  0  0  0  0  0999 V2000
   64.9860   32.3470   49.9570 C   0  0  0  0  0  0  0  0  0  0  0  0
   64.7460   33.2050   48.8460 O   0  0  0  0  0  0  0  0  0  0  0  0
   63.4720   33.5090   48.3430 C   0  0  0  0  0  0  0  0  0  0  0  0
   62.4680   33.8730   49.2470 C   0  0  0  0  0  0  0  0  0  0  0  0
   61.1830   34.1840   48.7960 C   0  0  0  0  0  0  0  0  0  0  0  0
   60.8830   34.1370   47.4260 C   0  0  0  0  0  0  0  0  0  0  0  0
   59.4920   34.4590   46.9510 C   0  0  0  0  0  0  0  0  0  0  0  0
   58.8410   33.2560   46.3840 N   0  0  0  0  0  0  0  0  0  0  0  0
   58.5100   32.2650   47.4270 C   0  0  0  0  0  0  0  0  0  0  0  0
   59.2720   30.9950   47.1980 C   0  0  0  0  0  0  0  0  0  0  0  0
   59.7990   30.1500   48.1580 C   0  0  0  0  0  0  0  0  0  0  0  0
   60.3730   29.1070   47.5320 N   0  0  0  0  0  0  0  0  0  0  0  0
   60.2340   29.2640   46.2250 N   0  0  0  0  0  0  0  0  0  0  0  0
   60.6610   28.2920   45.2270 C   0  0  0  0  0  0  0  0  0  0  0  0
   59.5510   30.3990   45.9820 C   0  0  0  0  0  0  0  0  0  0  0  0
   57.6780   33.5720   45.5180 C   0  0  0  0  0  0  0  0  0  0  0  0
   57.3590   32.4930   44.5090 C   0  0  0  0  0  0  0  0  0  0  0  0
   57.7740   32.6040   43.1740 C   0  0  0  0  0  0  0  0  0  0  0  0
   57.4650   31.5850   42.2710 C   0  0  0  0  0  0  0  0  0  0  0  0
   56.7420   30.4720   42.7020 C   0  0  0  0  0  0  0  0  0  0  0  0
   56.3360   30.3960   44.0350 C   0  0  0  0  0  0  0  0  0  0  0  0
   56.6480   31.3980   44.9000 N   0  0  0  0  0  0  0  0  0  0  0  0
   61.8860   33.7740   46.5150 C   0  0  0  0  0  0  0  0  0  0  0  0
   63.1720   33.4620   46.9680 C   0  0  0  0  0  0  0  0  0  0  0  0
   64.8298   32.9053   50.8919 H   0  0  0  0  0  0  0  0  0  0  0  0
   64.2918   31.4946   49.9186 H   0  0  0  0  0  0  0  0  0  0  0  0
   66.0217   31.9784   49.9186 H   0  0  0  0  0  0  0  0  0  0  0  0
   62.6927   33.9147   50.3230 H   0  0  0  0  0  0  0  0  0  0  0  0
   60.4028   34.4670   49.5180 H   0  0  0  0  0  0  0  0  0  0  0  0
   58.8963   34.8256   47.8000 H   0  0  0  0  0  0  0  0  0  0  0  0
   59.5550   35.2292   46.1681 H   0  0  0  0  0  0  0  0  0  0  0  0
   58.7744   32.6741   48.4133 H   0  0  0  0  0  0  0  0  0  0  0  0
   57.4324   32.0482   47.3857 H   0  0  0  0  0  0  0  0  0  0  0  0
   59.7561   30.3044   49.2463 H   0  0  0  0  0  0  0  0  0  0  0  0
   60.8410   28.2930   47.9910 H   0  0  0  0  0  0  0  0  0  0  0  0
   61.0541   27.3971   45.7315 H   0  0  0  0  0  0  0  0  0  0  0  0
   59.8033   28.0113   44.5980 H   0  0  0  0  0  0  0  0  0  0  0  0
   61.4479   28.7338   44.5980 H   0  0  0  0  0  0  0  0  0  0  0  0
   59.2657   30.7837   44.9917 H   0  0  0  0  0  0  0  0  0  0  0  0
   56.7969   33.7181   46.1600 H   0  0  0  0  0  0  0  0  0  0  0  0
   57.9383   34.4766   44.9488 H   0  0  0  0  0  0  0  0  0  0  0  0
   58.3387   33.4872   42.8408 H   0  0  0  0  0  0  0  0  0  0  0  0
   57.7905   31.6593   41.2229 H   0  0  0  0  0  0  0  0  0  0  0  0
   56.4948   29.6632   41.9986 H   0  0  0  0  0  0  0  0  0  0  0  0
   55.7632   29.5251   44.3863 H   0  0  0  0  0  0  0  0  0  0  0  0
   61.6601   33.7345   45.4392 H   0  0  0  0  0  0  0  0  0  0  0  0
   63.9527   33.1786   46.2467 H   0  0  0  0  0  0  0  0  0  0  0  0
  1  2  1  0
  2  3  1  0
  3  4  2  0
  4  5  1  0
  5  6  2  0
  6  7  1  0
  7  8  1  0
  8  9  1  0
  9 10  1  0
 10 11  1  0
 11 12  2  0
 12 13  1  0
 13 14  1  0
 13 15  1  0
  8 16  1  0
 16 17  1  0
 17 18  2  0
 18 19  1  0
 19 20  2  0
 20 21  1  0
 21 22  2  0
  6 23  1  0
 23 24  2  0
 24  3  1  0
 15 10  2  0
 22 17  1  0
  1 25  1  0
  1 26  1  0
  1 27  1  0
  4 28  1  0
  5 29  1  0
  7 30  1  0
  7 31  1  0
  9 32  1  0
  9 33  1  0
 11 34  1  0
 12 35  1  0
 14 36  1  0
 14 37  1  0
 14 38  1  0
 15 39  1  0
 16 40  1  0
 16 41  1  0
 18 42  1  0
 19 43  1  0
 20 44  1  0
 21 45  1  0
 23 46  1  0
 24 47  1  0
M  CHG  1  12   1
M  END
>  <UniqueID>  (31) 
24

>  <SMILES>  (31) 
COc1ccc(CN(Cc2c[nH+]n(C)c2)Cc2ccccn2)cc1

>  <Energy>  (31) 
80.26319216688401

>  <Genealogy>  (31) 
COc1ccc(CN(Cc2c[nH+]n(C)c2)Cc2ccccn2)cc1 (protonated)
COc1ccc(CN(Cc2c[nH+]n(C)c2)Cc2ccccn2)cc1 (3D coordinates assigned)
COc1ccc(CN(Cc2c[nH+]n(C)c2)Cc2ccccn2)cc1 (optimized conformer: 80.26319216688401 kcal/mol)

>  <smiles>  (31) 
COc1ccc(CN(Cc2cnn(C)c2)Cc2ccccn2)cc1

>  <score_type>  (31) 
oracle

>  <origin>  (31) 
adg

>  <m_score__min__energy>  (31) 
-6.3700000000000001

>  <m_primary>  (31) 
energy

$$$$
31:0
     RDKit          3D

 36 38  0  0  0  0  0  0  0  0999 V2000
   57.5510   28.1030   45.2980 C   0  0  0  0  0  0  0  0  0  0  0  0
   58.0440   29.0870   44.2450 C   0  0  0  0  0  0  0  0  0  0  0  0
   56.9270   30.4700   44.0910 S   0  0  0  0  0  0  0  0  0  0  0  0
   56.7860   30.8550   42.6440 O   0  0  0  0  0  0  0  0  0  0  0  0
   55.5720   30.0960   44.6250 O   0  0  0  0  0  0  0  0  0  0  0  0
   57.5660   31.8300   45.0060 C   0  0  0  0  0  0  0  0  0  0  0  0
   57.0230   33.1270   44.8210 C   0  0  0  0  0  0  0  0  0  0  0  0
   57.5140   34.2220   45.5590 C   0  0  0  0  0  0  0  0  0  0  0  0
   58.5380   33.9770   46.4680 C   0  0  0  0  0  0  0  0  0  0  0  0
   59.1510   34.8200   47.2630 O   0  0  0  0  0  0  0  0  0  0  0  0
   60.0420   34.0980   47.9260 C   0  0  0  0  0  0  0  0  0  0  0  0
   60.8430   34.5730   48.8340 N   0  0  0  0  0  0  0  0  0  0  0  0
   62.1750   34.1160   49.1170 C   0  0  0  0  0  0  0  0  0  0  0  0
   62.6380   34.1800   50.4380 C   0  0  0  0  0  0  0  0  0  0  0  0
   63.9190   33.7240   50.7650 C   0  0  0  0  0  0  0  0  0  0  0  0
   64.7440   33.1790   49.7760 C   0  0  0  0  0  0  0  0  0  0  0  0
   66.0610   32.7070   50.1120 C   0  0  0  0  0  0  0  0  0  0  0  0
   67.1200   32.3260   50.3840 N   0  0  0  0  0  0  0  0  0  0  0  0
   64.2790   33.0830   48.4580 C   0  0  0  0  0  0  0  0  0  0  0  0
   63.0000   33.5400   48.1300 C   0  0  0  0  0  0  0  0  0  0  0  0
   60.0220   32.7870   47.5860 N   0  0  0  0  0  0  0  0  0  0  0  0
   59.0600   32.7300   46.6520 C   0  0  0  0  0  0  0  0  0  0  0  0
   58.6010   31.6230   45.9440 C   0  0  0  0  0  0  0  0  0  0  0  0
   57.7535   28.5071   46.3008 H   0  0  0  0  0  0  0  0  0  0  0  0
   56.4687   27.9479   45.1768 H   0  0  0  0  0  0  0  0  0  0  0  0
   58.0747   27.1433   45.1768 H   0  0  0  0  0  0  0  0  0  0  0  0
   59.0378   29.4578   44.5362 H   0  0  0  0  0  0  0  0  0  0  0  0
   58.0954   28.5680   43.2765 H   0  0  0  0  0  0  0  0  0  0  0  0
   56.2111   33.2794   44.0947 H   0  0  0  0  0  0  0  0  0  0  0  0
   57.1029   35.2330   45.4215 H   0  0  0  0  0  0  0  0  0  0  0  0
   61.9885   34.5923   51.2243 H   0  0  0  0  0  0  0  0  0  0  0  0
   64.2784   33.7942   51.8023 H   0  0  0  0  0  0  0  0  0  0  0  0
   64.9223   32.6468   47.6796 H   0  0  0  0  0  0  0  0  0  0  0  0
   62.6351   33.4498   47.0962 H   0  0  0  0  0  0  0  0  0  0  0  0
   60.6110   32.0080   47.9580 H   0  0  0  0  0  0  0  0  0  0  0  0
   59.0290   30.6232   46.1092 H   0  0  0  0  0  0  0  0  0  0  0  0
  1  2  1  0
  2  3  1  0
  3  4  2  0
  3  5  2  0
  3  6  1  0
  6  7  2  0
  7  8  1  0
  8  9  2  0
  9 10  1  0
 10 11  1  0
 11 12  2  3
 12 13  1  0
 13 14  2  0
 14 15  1  0
 15 16  2  0
 16 17  1  0
 17 18  3  0
 16 19  1  0
 19 20  2  0
 11 21  1  0
 21 22  1  0
 22 23  2  0
 23  6  1  0
 22  9  1  0
 20 13  1  0
  1 24  1  0
  1 25  1  0
  1 26  1  0
  2 27  1  0
  2 28  1  0
  7 29  1  0
  8 30  1  0
 14 31  1  0
 15 32  1  0
 19 33  1  0
 20 34  1  0
 21 35  1  0
 23 36  1  0
M  END
>  <UniqueID>  (32) 
25

>  <SMILES>  (32) 
CCS(=O)(=O)c1ccc2oc(=Nc3ccc(C#N)cc3)[nH]c2c1

>  <Energy>  (32) 
76.87702252090706

>  <Genealogy>  (32) 
CCS(=O)(=O)c1ccc2oc(=Nc3ccc(C#N)cc3)[nH]c2c1 (3D coordinates assigned)
CCS(=O)(=O)c1ccc2oc(=Nc3ccc(C#N)cc3)[nH]c2c1 (optimized conformer: 76.87702252090706 kcal/mol)

>  <smiles>  (32) 
CCS(=O)(=O)c1ccc2oc(=Nc3ccc(C#N)cc3)[nH]c2c1

>  <score_type>  (32) 
oracle

>  <origin>  (32) 
adg

>  <m_score__min__energy>  (32) 
-7.9299999999999997

>  <m_primary>  (32) 
energy

$$$$
32:0
     RDKit          3D

 50 53  0  0  0  0  0  0  0  0999 V2000
   60.6970   30.1680   49.3450 C   0  0  0  0  0  0  0  0  0  0  0  0
   59.5540   30.9370   49.5850 C   0  0  0  0  0  0  0  0  0  0  0  0
   58.8440   31.4890   48.5160 C   0  0  0  0  0  0  0  0  0  0  0  0
   59.2670   31.2690   47.1950 C   0  0  0  0  0  0  0  0  0  0  0  0
   58.5410   31.8300   46.0890 N   0  0  0  0  0  0  0  0  0  0  0  0
   58.1490   31.1490   44.9930 C   0  0  0  0  0  0  0  0  0  0  0  0
   57.4440   31.9830   44.1480 C   0  0  0  0  0  0  0  0  0  0  0  0
   57.3930   33.2190   44.7600 C   0  0  0  0  0  0  0  0  0  0  0  0
   58.0730   33.0930   45.9570 C   0  0  0  0  0  0  0  0  0  0  0  0
   58.1840   34.1840   46.9890 C   0  0  0  0  0  0  0  0  0  0  0  0
   59.2810   35.1130   46.6770 N   0  0  0  0  0  0  0  0  0  0  0  0
   60.4140   34.4630   45.9940 C   0  0  0  0  0  0  0  0  0  0  0  0
   61.4530   33.9520   46.9640 C   0  0  0  0  0  0  0  0  0  0  0  0
   61.1880   33.9180   48.3360 C   0  0  0  0  0  0  0  0  0  0  0  0
   62.1470   33.4240   49.2210 C   0  0  0  0  0  0  0  0  0  0  0  0
   63.3800   32.9590   48.7290 C   0  0  0  0  0  0  0  0  0  0  0  0
   64.3840   32.4390   49.6320 N   0  0  0  0  0  0  0  0  0  0  0  0
   65.7140   33.0090   49.7760 C   0  0  0  0  0  0  0  0  0  0  0  0
   66.4810   32.0550   50.6820 C   0  0  0  0  0  0  0  0  0  0  0  0
   65.4230   31.2060   51.3780 C   0  0  0  0  0  0  0  0  0  0  0  0
   64.1840   31.2850   50.4980 C   0  0  0  0  0  0  0  0  0  0  0  0
   63.6150   33.0030   47.3820 N   0  0  0  0  0  0  0  0  0  0  0  0
   62.6900   33.4830   46.5060 C   0  0  0  0  0  0  0  0  0  0  0  0
   60.4240   30.5080   46.9620 C   0  0  0  0  0  0  0  0  0  0  0  0
   61.1340   29.9560   48.0340 C   0  0  0  0  0  0  0  0  0  0  0  0
   61.2522   29.7300   50.1875 H   0  0  0  0  0  0  0  0  0  0  0  0
   59.2135   31.1075   50.6170 H   0  0  0  0  0  0  0  0  0  0  0  0
   57.9493   32.0989   48.7099 H   0  0  0  0  0  0  0  0  0  0  0  0
   58.3597   30.0866   44.8007 H   0  0  0  0  0  0  0  0  0  0  0  0
   57.0073   31.7142   43.1749 H   0  0  0  0  0  0  0  0  0  0  0  0
   56.9068   34.1261   44.3716 H   0  0  0  0  0  0  0  0  0  0  0  0
   57.2383   34.7451   47.0188 H   0  0  0  0  0  0  0  0  0  0  0  0
   58.3940   33.7173   47.9627 H   0  0  0  0  0  0  0  0  0  0  0  0
   59.6200   35.5380   47.5720 H   0  0  0  0  0  0  0  0  0  0  0  0
   60.0329   33.6155   45.4053 H   0  0  0  0  0  0  0  0  0  0  0  0
   60.8953   35.2151   45.3516 H   0  0  0  0  0  0  0  0  0  0  0  0
   60.2226   34.2810   48.7184 H   0  0  0  0  0  0  0  0  0  0  0  0
   61.9393   33.3983   50.3009 H   0  0  0  0  0  0  0  0  0  0  0  0
   66.2063   33.0842   48.7952 H   0  0  0  0  0  0  0  0  0  0  0  0
   65.6749   34.0238   50.1987 H   0  0  0  0  0  0  0  0  0  0  0  0
   67.1531   31.4187   50.0875 H   0  0  0  0  0  0  0  0  0  0  0  0
   67.1066   32.5977   51.4060 H   0  0  0  0  0  0  0  0  0  0  0  0
   65.7647   30.1641   51.4659 H   0  0  0  0  0  0  0  0  0  0  0  0
   65.2198   31.5671   52.3970 H   0  0  0  0  0  0  0  0  0  0  0  0
   64.0817   30.3690   49.8977 H   0  0  0  0  0  0  0  0  0  0  0  0
   63.2674   31.3837   51.0981 H   0  0  0  0  0  0  0  0  0  0  0  0
   64.5230   32.6710   46.9900 H   0  0  0  0  0  0  0  0  0  0  0  0
   62.9164   33.5025   45.4297 H   0  0  0  0  0  0  0  0  0  0  0  0
   60.7738   30.3451   45.9319 H   0  0  0  0  0  0  0  0  0  0  0  0
   62.0359   29.3553   47.8452 H   0  0  0  0  0  0  0  0  0  0  0  0
  1  2  2  0
  2  3  1  0
  3  4  2  0
  4  5  1  0
  5  6  1  0
  6  7  2  0
  7  8  1  0
  8  9  2  0
  9 10  1  0
 10 11  1  0
 11 12  1  0
 12 13  1  0
 13 14  2  0
 14 15  1  0
 15 16  2  0
 16 17  1  0
 17 18  1  0
 18 19  1  0
 19 20  1  0
 20 21  1  0
 16 22  1  0
 22 23  2  0
  4 24  1  0
 24 25  2  0
 25  1  1  0
  9  5  1  0
 23 13  1  0
 21 17  1  0
  1 26  1  0
  2 27  1  0
  3 28  1  0
  6 29  1  0
  7 30  1  0
  8 31  1  0
 10 32  1  0
 10 33  1  0
 11 34  1  0
 12 35  1  0
 12 36  1  0
 14 37  1  0
 15 38  1  0
 18 39  1  0
 18 40  1  0
 19 41  1  0
 19 42  1  0
 20 43  1  0
 20 44  1  0
 21 45  1  0
 21 46  1  0
 22 47  1  0
 23 48  1  0
 24 49  1  0
 25 50  1  0
M  CHG  1  22   1
M  END
>  <UniqueID>  (33) 
26

>  <SMILES>  (33) 
c1ccc(-n2cccc2CNCc2ccc(N3CCCC3)[nH+]c2)cc1

>  <Energy>  (33) 
84.3247529538878

>  <Genealogy>  (33) 
c1ccc(-n2cccc2CNCc2ccc(N3CCCC3)[nH+]c2)cc1 (protonated)
c1ccc(-n2cccc2CNCc2ccc(N3CCCC3)[nH+]c2)cc1 (3D coordinates assigned)
c1ccc(-n2cccc2CNCc2ccc(N3CCCC3)[nH+]c2)cc1 (nonaromatic ring conformer: 84.3247529538878 kcal/mol)

>  <smiles>  (33) 
c1ccc(-n2cccc2CNCc2ccc(N3CCCC3)nc2)cc1

>  <score_type>  (33) 
oracle

>  <origin>  (33) 
adg

>  <m_score__min__energy>  (33) 
-6.5099999999999998

>  <m_primary>  (33) 
energy

$$$$
33:0
     RDKit          3D

 43 45  0  0  0  0  0  0  0  0999 V2000
   56.7500   26.4630   45.9830 C   0  0  0  0  0  0  0  0  0  0  0  0
   57.0120   27.7930   45.3520 C   0  0  0  0  0  0  0  0  0  0  0  0
   58.3050   28.1590   44.9640 C   0  0  0  0  0  0  0  0  0  0  0  0
   58.5110   29.3700   44.3850 N   0  0  0  0  0  0  0  0  0  0  0  0
   57.4880   30.2410   44.1720 C   0  0  0  0  0  0  0  0  0  0  0  0
   57.7600   31.5810   43.5310 C   0  0  0  0  0  0  0  0  0  0  0  0
   58.5180   32.5070   44.4020 N   0  0  0  0  0  0  0  0  0  0  0  0
   58.9300   31.9240   45.7020 C   0  0  0  0  0  0  0  0  0  0  0  0
   58.1410   32.5170   46.8830 C   0  0  0  0  0  0  0  0  0  0  0  0
   58.2500   33.9990   46.9560 N   0  0  0  0  0  0  0  0  0  0  0  0
   59.2270   34.4380   47.9730 C   0  0  0  0  0  0  0  0  0  0  0  0
   60.5300   33.7020   47.8040 C   0  0  0  0  0  0  0  0  0  0  0  0
   61.4750   34.1270   46.8550 C   0  0  0  0  0  0  0  0  0  0  0  0
   62.6780   33.4310   46.6990 C   0  0  0  0  0  0  0  0  0  0  0  0
   62.9460   32.3070   47.4880 C   0  0  0  0  0  0  0  0  0  0  0  0
   64.1130   31.6350   47.3320 F   0  0  0  0  0  0  0  0  0  0  0  0
   62.0090   31.8790   48.4350 C   0  0  0  0  0  0  0  0  0  0  0  0
   62.2670   30.7900   49.2000 F   0  0  0  0  0  0  0  0  0  0  0  0
   60.8060   32.5730   48.5930 C   0  0  0  0  0  0  0  0  0  0  0  0
   58.5280   34.6420   45.6500 C   0  0  0  0  0  0  0  0  0  0  0  0
   57.9060   33.8500   44.4970 C   0  0  0  0  0  0  0  0  0  0  0  0
   56.1900   29.8670   44.5480 C   0  0  0  0  0  0  0  0  0  0  0  0
   55.9840   28.6560   45.1280 N   0  0  0  0  0  0  0  0  0  0  0  0
   56.7703   26.5663   47.0780 H   0  0  0  0  0  0  0  0  0  0  0  0
   55.7622   26.0957   45.6676 H   0  0  0  0  0  0  0  0  0  0  0  0
   57.5247   25.7486   45.6676 H   0  0  0  0  0  0  0  0  0  0  0  0
   59.1482   27.4715   45.1265 H   0  0  0  0  0  0  0  0  0  0  0  0
   58.3390   31.4159   42.6104 H   0  0  0  0  0  0  0  0  0  0  0  0
   56.7848   32.0489   43.3310 H   0  0  0  0  0  0  0  0  0  0  0  0
   58.7599   30.8376   45.6725 H   0  0  0  0  0  0  0  0  0  0  0  0
   59.9935   32.1595   45.8551 H   0  0  0  0  0  0  0  0  0  0  0  0
   57.0808   32.2467   46.7698 H   0  0  0  0  0  0  0  0  0  0  0  0
   58.5675   32.1051   47.8095 H   0  0  0  0  0  0  0  0  0  0  0  0
   59.4042   35.5180   47.8625 H   0  0  0  0  0  0  0  0  0  0  0  0
   58.8224   34.2207   48.9726 H   0  0  0  0  0  0  0  0  0  0  0  0
   61.2679   35.0101   46.2327 H   0  0  0  0  0  0  0  0  0  0  0  0
   63.4147   33.7678   45.9548 H   0  0  0  0  0  0  0  0  0  0  0  0
   60.0720   32.2335   49.3386 H   0  0  0  0  0  0  0  0  0  0  0  0
   58.1077   35.6585   45.6543 H   0  0  0  0  0  0  0  0  0  0  0  0
   59.6177   34.6722   45.5026 H   0  0  0  0  0  0  0  0  0  0  0  0
   56.8253   33.7438   44.6723 H   0  0  0  0  0  0  0  0  0  0  0  0
   58.0861   34.3905   43.5560 H   0  0  0  0  0  0  0  0  0  0  0  0
   55.3447   30.5492   44.3746 H   0  0  0  0  0  0  0  0  0  0  0  0
  1  2  1  0
  2  3  2  0
  3  4  1  0
  4  5  2  0
  5  6  1  0
  6  7  1  0
  7  8  1  0
  8  9  1  0
  9 10  1  0
 10 11  1  0
 11 12  1  0
 12 13  2  0
 13 14  1  0
 14 15  2  0
 15 16  1  0
 15 17  1  0
 17 18  1  0
 17 19  2  0
 10 20  1  0
 20 21  1  0
  5 22  1  0
 22 23  2  0
 23  2  1  0
 21  7  1  0
 19 12  1  0
  1 24  1  0
  1 25  1  0
  1 26  1  0
  3 27  1  0
  6 28  1  0
  6 29  1  0
  8 30  1  0
  8 31  1  0
  9 32  1  0
  9 33  1  0
 11 34  1  0
 11 35  1  0
 13 36  1  0
 14 37  1  0
 19 38  1  0
 20 39  1  0
 20 40  1  0
 21 41  1  0
 21 42  1  0
 22 43  1  0
M  END
>  <UniqueID>  (34) 
27

>  <SMILES>  (34) 
Cc1cnc(CN2CCN(Cc3ccc(F)c(F)c3)CC2)cn1

>  <Energy>  (34) 
59.251076451229295

>  <Genealogy>  (34) 
Cc1cnc(CN2CCN(Cc3ccc(F)c(F)c3)CC2)cn1 (3D coordinates assigned)
Cc1cnc(CN2CCN(Cc3ccc(F)c(F)c3)CC2)cn1 (nonaromatic ring conformer: 59.251076451229295 kcal/mol)

>  <smiles>  (34) 
Cc1cnc(CN2CCN(Cc3ccc(F)c(F)c3)CC2)cn1

>  <score_type>  (34) 
oracle

>  <origin>  (34) 
adg

>  <m_score__min__energy>  (34) 
-7.2599999999999998

>  <m_primary>  (34) 
energy

$$$$
34:0
     RDKit          3D

 34 36  0  0  1  0  0  0  0  0999 V2000
   64.8460   33.2420   48.8330 F   0  0  0  0  0  0  0  0  0  0  0  0
   63.5070   33.4230   48.7510 C   0  0  0  0  0  0  0  0  0  0  0  0
   62.7170   33.6940   49.8600 C   0  0  0  0  0  0  0  0  0  0  0  0
   57.1410   29.2390   44.0890 C   0  0  0  0  0  0  0  0  0  0  0  0
   57.7750   30.1550   44.8960 C   0  0  0  0  0  0  0  0  0  0  0  0
   57.1090   31.3650   45.2300 N   0  0  0  0  0  0  0  0  0  0  0  0
   57.7240   32.4650   45.5050 C   0  0  0  0  0  0  0  0  0  0  0  0
   59.0290   34.7600   46.1380 N   0  0  0  0  0  0  0  0  0  0  0  0
   58.5300   34.5870   44.8850 C   0  0  0  0  0  0  0  0  0  0  0  0
   57.8640   33.4290   44.5420 C   0  0  0  0  0  0  0  0  0  0  0  0
   58.8850   33.8040   47.0770 C   0  0  0  0  0  0  0  0  0  0  0  0
   59.3560   33.9510   48.2840 N   0  0  0  0  0  0  0  0  0  0  0  0
   60.7650   33.7750   48.4670 C   0  0  0  0  0  0  0  0  0  0  0  0
   61.3570   33.8670   49.7090 C   0  0  0  0  0  0  0  0  0  0  0  0
   57.7730   28.0590   43.7540 C   0  0  0  0  0  0  0  0  0  0  0  0
   59.0320   27.8340   44.2440 C   0  0  0  0  0  0  0  0  0  0  0  0
   59.6820   28.7480   45.0570 C   0  0  0  0  0  0  0  0  0  0  0  0
   61.5820   33.5030   47.3790 C   0  0  0  0  0  0  0  0  0  0  0  0
   58.2300   32.6660   46.7370 N   0  0  0  0  0  0  0  0  0  0  0  0
   59.0590   29.9320   45.3980 C   0  0  0  0  0  0  0  0  0  0  0  0
   62.9430   33.3240   47.4960 C   0  0  0  0  0  0  0  0  0  0  0  0
   63.6400   33.0660   46.3760 F   0  0  0  0  0  0  0  0  0  0  0  0
   63.1748   33.7706   50.8572 H   0  0  0  0  0  0  0  0  0  0  0  0
   56.1294   29.4473   43.7104 H   0  0  0  0  0  0  0  0  0  0  0  0
   59.5210   35.6350   46.3630 H   0  0  0  0  0  0  0  0  0  0  0  0
   58.6592   35.3812   44.1350 H   0  0  0  0  0  0  0  0  0  0  0  0
   57.4590   33.2845   43.5295 H   0  0  0  0  0  0  0  0  0  0  0  0
   60.7361   34.0813   50.5914 H   0  0  0  0  0  0  0  0  0  0  0  0
   57.2780   27.3176   43.1095 H   0  0  0  0  0  0  0  0  0  0  0  0
   59.5442   26.8961   43.9832 H   0  0  0  0  0  0  0  0  0  0  0  0
   60.6935   28.5307   45.4306 H   0  0  0  0  0  0  0  0  0  0  0  0
   61.1241   33.4271   46.3817 H   0  0  0  0  0  0  0  0  0  0  0  0
   58.0900   31.8930   47.4250 H   0  0  0  0  0  0  0  0  0  0  0  0
   59.5559   30.6727   46.0417 H   0  0  0  0  0  0  0  0  0  0  0  0
  1  2  1  0
  2  3  2  0
  3  4  1  0
  4  5  2  0
  5  6  1  0
  6  7  2  0
  7  8  1  0
  8  9  1  0
  9 10  2  0
 10 11  1  0
 11 12  2  0
 12 13  1  0
 13 14  2  0
 14 15  1  0
 15 16  2  0
 16 17  1  0
 17 18  2  0
 11 19  1  0
  5 20  1  0
 20 21  2  0
 21 22  1  0
 21  2  1  0
 19  7  1  0
 18 13  1  0
  3 23  1  0
  4 24  1  0
  8 25  1  0
  9 26  1  0
 10 27  1  0
 14 28  1  0
 15 29  1  0
 16 30  1  0
 17 31  1  0
 18 32  1  0
 19 33  1  0
 20 34  1  0
M  END
>  <smiles>  (35) 
Fc1ccc(N=c2[nH]ccc(=Nc3ccccc3)[nH]2)cc1F

>  <score_type>  (35) 
oracle

>  <origin>  (35) 
adg

>  <m_score__min__energy>  (35) 
-7.6399999999999997

>  <m_primary>  (35) 
energy

$$$$
35:0
     RDKit          3D

 47 49  0  0  0  0  0  0  0  0999 V2000
   56.0904   25.5505   46.6397 H   0  0  0  0  0  0  0  0  0  0  0  0
   56.5760   26.4890   46.3340 C   0  0  0  0  0  0  0  0  0  0  0  0
   55.8810   27.4110   45.6320 N   0  0  0  0  0  0  0  0  0  0  0  0
   56.4440   28.5710   45.2110 C   0  0  0  0  0  0  0  0  0  0  0  0
   55.6560   29.4620   44.4780 C   0  0  0  0  0  0  0  0  0  0  0  0
   54.5992   29.2240   44.2868 H   0  0  0  0  0  0  0  0  0  0  0  0
   56.1940   30.6460   43.9880 C   0  0  0  0  0  0  0  0  0  0  0  0
   55.5591   31.3448   43.4236 H   0  0  0  0  0  0  0  0  0  0  0  0
   57.5430   30.9520   44.2110 C   0  0  0  0  0  0  0  0  0  0  0  0
   58.1400   32.1530   43.6820 N   0  0  0  0  0  0  0  0  0  0  0  0
   58.9290   32.0590   43.0030 H   0  0  0  0  0  0  0  0  0  0  0  0
   57.8240   33.5050   44.1450 C   0  0  0  0  0  0  0  0  0  0  0  0
   58.2301   34.2375   43.4319 H   0  0  0  0  0  0  0  0  0  0  0  0
   56.7317   33.6146   44.2145 H   0  0  0  0  0  0  0  0  0  0  0  0
   58.4290   33.7440   45.5020 C   0  0  0  0  0  0  0  0  0  0  0  0
   59.4570   34.6860   45.6770 C   0  0  0  0  0  0  0  0  0  0  0  0
   59.8461   35.2403   44.8102 H   0  0  0  0  0  0  0  0  0  0  0  0
   59.9870   34.9210   46.9500 C   0  0  0  0  0  0  0  0  0  0  0  0
   60.7907   35.6603   47.0823 H   0  0  0  0  0  0  0  0  0  0  0  0
   59.4970   34.2180   48.0540 C   0  0  0  0  0  0  0  0  0  0  0  0
   60.0110   34.4490   49.2880 F   0  0  0  0  0  0  0  0  0  0  0  0
   58.4770   33.2770   47.8870 C   0  0  0  0  0  0  0  0  0  0  0  0
   58.0925   32.7232   48.7562 H   0  0  0  0  0  0  0  0  0  0  0  0
   57.9450   33.0390   46.6160 C   0  0  0  0  0  0  0  0  0  0  0  0
   57.1438   32.2962   46.4881 H   0  0  0  0  0  0  0  0  0  0  0  0
   58.3390   30.0570   44.9430 C   0  0  0  0  0  0  0  0  0  0  0  0
   59.4044   30.2874   45.0908 H   0  0  0  0  0  0  0  0  0  0  0  0
   57.8090   28.8650   45.4970 C   0  0  0  0  0  0  0  0  0  0  0  0
   58.5430   27.9160   46.2980 C   0  0  0  0  0  0  0  0  0  0  0  0
   59.7590   28.0540   46.7700 N   0  0  0  0  0  0  0  0  0  0  0  0
   60.4190   29.0290   47.6370 C   0  0  0  0  0  0  0  0  0  0  0  0
   61.2355   28.5302   48.1797 H   0  0  0  0  0  0  0  0  0  0  0  0
   59.6721   29.4303   48.3378 H   0  0  0  0  0  0  0  0  0  0  0  0
   61.0000   30.2010   46.8250 C   0  0  0  0  0  0  0  0  0  0  0  0
   60.3213   30.4342   45.9913 H   0  0  0  0  0  0  0  0  0  0  0  0
   61.9892   29.9097   46.4420 H   0  0  0  0  0  0  0  0  0  0  0  0
   61.1540   31.4000   47.6750 N   0  0  0  0  0  0  0  0  0  0  0  0
   62.4810   32.0120   47.4880 C   0  0  0  0  0  0  0  0  0  0  0  0
   62.9308   32.2194   48.4702 H   0  0  0  0  0  0  0  0  0  0  0  0
   63.1276   31.3212   46.9271 H   0  0  0  0  0  0  0  0  0  0  0  0
   62.3754   32.9523   46.9271 H   0  0  0  0  0  0  0  0  0  0  0  0
   60.9710   31.0440   49.0910 C   0  0  0  0  0  0  0  0  0  0  0  0
   61.3817   31.8429   49.7259 H   0  0  0  0  0  0  0  0  0  0  0  0
   59.8985   30.9221   49.3028 H   0  0  0  0  0  0  0  0  0  0  0  0
   61.4961   30.1009   49.3028 H   0  0  0  0  0  0  0  0  0  0  0  0
   57.9030   26.7250   46.6700 C   0  0  0  0  0  0  0  0  0  0  0  0
   58.4609   25.9653   47.2371 H   0  0  0  0  0  0  0  0  0  0  0  0
  1  2  1  0
  2  3  1  0
  3  4  1  0
  4  5  2  0
  5  6  1  0
  5  7  1  0
  7  8  1  0
  7  9  2  0
  9 10  1  0
 10 11  1  0
 10 12  1  0
 12 13  1  0
 12 14  1  0
 12 15  1  0
 15 16  2  0
 16 17  1  0
 16 18  1  0
 18 19  1  0
 18 20  2  0
 20 21  1  0
 20 22  1  0
 22 23  1  0
 22 24  2  0
 24 25  1  0
  9 26  1  0
 26 27  1  0
 26 28  2  0
 28 29  1  0
 29 30  2  0
 30 31  1  0
 31 32  1  0
 31 33  1  0
 31 34  1  0
 34 35  1  0
 34 36  1  0
 34 37  1  0
 37 38  1  0
 38 39  1  0
 38 40  1  0
 38 41  1  0
 37 42  1  0
 42 43  1  0
 42 44  1  0
 42 45  1  0
 29 46  1  0
 46 47  1  0
 46  2  2  0
 28  4  1  0
 24 15  1  0
M  CHG  1   3  -1
M  END
>  <UniqueID>  (36) 
28

>  <SMILES>  (36) 
CN(C)CC/N=c1/cc[n-]c2ccc(NCc3ccc(F)cc3)cc12

>  <Energy>  (36) 
66.83254644047007

>  <Genealogy>  (36) 
CN(C)CCN=c1cc[n-]c2ccc(NCc3ccc(F)cc3)cc12 (protonated)
CN(C)CC/N=c1/cc[n-]c2ccc(NCc3ccc(F)cc3)cc12 (cis-trans isomerization)
CN(C)CC/N=c1/cc[n-]c2ccc(NCc3ccc(F)cc3)cc12 (3D coordinates assigned)
CN(C)CC/N=c1/cc[n-]c2ccc(NCc3ccc(F)cc3)cc12 (optimized conformer: 66.83254644047007 kcal/mol)

>  <smiles>  (36) 
CN(C)CCN=c1cc[nH]c2ccc(NCc3ccc(F)cc3)cc12

>  <score_type>  (36) 
oracle

>  <origin>  (36) 
adg

>  <m_score__min__energy>  (36) 
-8.9800000000000004

>  <m_primary>  (36) 
energy

$$$$
36:0
     RDKit          3D

 30 32  0  0  0  0  0  0  0  0999 V2000
   57.0790   34.2180   44.8710 C   0  0  0  0  0  0  0  0  0  0  0  0
   58.0870   33.4850   45.6550 N   0  0  0  0  0  0  0  0  0  0  0  0
   59.1460   34.1620   46.2150 C   0  0  0  0  0  0  0  0  0  0  0  0
   59.2660   35.4130   46.0940 O   0  0  0  0  0  0  0  0  0  0  0  0
   60.0960   33.4380   46.9160 C   0  0  0  0  0  0  0  0  0  0  0  0
   61.2460   33.8110   47.5740 C   0  0  0  0  0  0  0  0  0  0  0  0
   61.7680   32.6100   48.0620 C   0  0  0  0  0  0  0  0  0  0  0  0
   63.0100   32.4400   48.8510 C   0  0  0  0  0  0  0  0  0  0  0  0
   63.0740   31.4580   49.8520 C   0  0  0  0  0  0  0  0  0  0  0  0
   64.2410   31.2930   50.6010 C   0  0  0  0  0  0  0  0  0  0  0  0
   65.3400   32.1110   50.3420 C   0  0  0  0  0  0  0  0  0  0  0  0
   65.2700   33.0580   49.3720 N   0  0  0  0  0  0  0  0  0  0  0  0
   64.1450   33.2420   48.6280 C   0  0  0  0  0  0  0  0  0  0  0  0
   60.9860   31.6000   47.7170 O   0  0  0  0  0  0  0  0  0  0  0  0
   59.9830   32.0930   47.0320 C   0  0  0  0  0  0  0  0  0  0  0  0
   58.9500   31.4010   46.4820 N   0  0  0  0  0  0  0  0  0  0  0  0
   58.8890   29.9390   46.5890 C   0  0  0  0  0  0  0  0  0  0  0  0
   58.0080   32.1060   45.7640 C   0  0  0  0  0  0  0  0  0  0  0  0
   57.0680   31.4840   45.1950 O   0  0  0  0  0  0  0  0  0  0  0  0
   56.3814   34.7253   45.5536 H   0  0  0  0  0  0  0  0  0  0  0  0
   57.5795   34.9645   44.2368 H   0  0  0  0  0  0  0  0  0  0  0  0
   56.5231   33.5118   44.2368 H   0  0  0  0  0  0  0  0  0  0  0  0
   61.6598   34.8236   47.6894 H   0  0  0  0  0  0  0  0  0  0  0  0
   62.2021   30.8164   50.0471 H   0  0  0  0  0  0  0  0  0  0  0  0
   64.2927   30.5255   51.3873 H   0  0  0  0  0  0  0  0  0  0  0  0
   66.2651   31.9888   50.9245 H   0  0  0  0  0  0  0  0  0  0  0  0
   64.1229   34.0196   47.8503 H   0  0  0  0  0  0  0  0  0  0  0  0
   58.8769   29.6492   47.6501 H   0  0  0  0  0  0  0  0  0  0  0  0
   57.9748   29.5733   46.0986 H   0  0  0  0  0  0  0  0  0  0  0  0
   59.7695   29.4984   46.0986 H   0  0  0  0  0  0  0  0  0  0  0  0
  1  2  1  0
  2  3  1  0
  3  4  2  0
  3  5  1  0
  5  6  1  0
  6  7  2  0
  7  8  1  0
  8  9  2  0
  9 10  1  0
 10 11  2  0
 11 12  1  0
 12 13  2  0
  7 14  1  0
 14 15  1  0
 15 16  1  0
 16 17  1  0
 16 18  1  0
 18 19  2  0
 18  2  1  0
 15  5  2  0
 13  8  1  0
  1 20  1  0
  1 21  1  0
  1 22  1  0
  6 23  1  0
  9 24  1  0
 10 25  1  0
 11 26  1  0
 13 27  1  0
 17 28  1  0
 17 29  1  0
 17 30  1  0
M  END
>  <UniqueID>  (37) 
29

>  <SMILES>  (37) 
Cn1c(=O)c2cc(-c3cccnc3)oc2n(C)c1=O

>  <Energy>  (37) 
75.13586672373367

>  <Genealogy>  (37) 
Cn1c(=O)c2cc(-c3cccnc3)oc2n(C)c1=O (3D coordinates assigned)
Cn1c(=O)c2cc(-c3cccnc3)oc2n(C)c1=O (optimized conformer: 75.13586672373367 kcal/mol)

>  <smiles>  (37) 
Cn1c(=O)c2cc(-c3cccnc3)oc2n(C)c1=O

>  <score_type>  (37) 
oracle

>  <origin>  (37) 
adg

>  <m_score__min__energy>  (37) 
-5.7300000000000004

>  <m_primary>  (37) 
energy

$$$$
37:0
     RDKit          3D

 37 39  0  0  0  0  0  0  0  0999 V2000
   57.7520   31.9710   42.4930 C   0  0  0  0  0  0  0  0  0  0  0  0
   57.2080   31.9090   43.8070 O   0  0  0  0  0  0  0  0  0  0  0  0
   57.7540   32.5670   44.9200 C   0  0  0  0  0  0  0  0  0  0  0  0
   57.9780   33.9680   44.9390 C   0  0  0  0  0  0  0  0  0  0  0  0
   58.5240   34.5920   46.0730 C   0  0  0  0  0  0  0  0  0  0  0  0
   58.8460   33.8080   47.1820 C   0  0  0  0  0  0  0  0  0  0  0  0
   59.3790   34.2820   48.3390 N   0  0  0  0  0  0  0  0  0  0  0  0
   59.5910   33.2880   49.2400 C   0  0  0  0  0  0  0  0  0  0  0  0
   60.1610   33.4920   50.5520 N   0  0  0  0  0  0  0  0  0  0  0  0
   59.2740   33.8230   51.6730 C   0  0  0  0  0  0  0  0  0  0  0  0
   61.6080   33.3540   50.7790 C   0  0  0  0  0  0  0  0  0  0  0  0
   62.3320   33.1240   49.4770 C   0  0  0  0  0  0  0  0  0  0  0  0
   62.6420   31.8180   49.0630 C   0  0  0  0  0  0  0  0  0  0  0  0
   63.3200   31.6010   47.8600 C   0  0  0  0  0  0  0  0  0  0  0  0
   63.7030   32.6850   47.0660 C   0  0  0  0  0  0  0  0  0  0  0  0
   63.4120   33.9890   47.4770 C   0  0  0  0  0  0  0  0  0  0  0  0
   62.7330   34.2100   48.6810 C   0  0  0  0  0  0  0  0  0  0  0  0
   59.1120   31.7780   48.6220 S   0  0  0  0  0  0  0  0  0  0  0  0
   58.6270   32.4420   47.1580 C   0  0  0  0  0  0  0  0  0  0  0  0
   58.0850   31.7970   46.0490 C   0  0  0  0  0  0  0  0  0  0  0  0
   58.8433   32.0954   42.5534 H   0  0  0  0  0  0  0  0  0  0  0  0
   57.5183   31.0404   41.9551 H   0  0  0  0  0  0  0  0  0  0  0  0
   57.3148   32.8251   41.9551 H   0  0  0  0  0  0  0  0  0  0  0  0
   57.7213   34.5720   44.0562 H   0  0  0  0  0  0  0  0  0  0  0  0
   58.6946   35.6786   46.0867 H   0  0  0  0  0  0  0  0  0  0  0  0
   59.5850   35.2920   48.4980 H   0  0  0  0  0  0  0  0  0  0  0  0
   59.7947   33.6287   52.6223 H   0  0  0  0  0  0  0  0  0  0  0  0
   58.9952   34.8857   51.6185 H   0  0  0  0  0  0  0  0  0  0  0  0
   58.3672   33.2028   51.6185 H   0  0  0  0  0  0  0  0  0  0  0  0
   61.9895   34.2736   51.2467 H   0  0  0  0  0  0  0  0  0  0  0  0
   61.7819   32.4904   51.4377 H   0  0  0  0  0  0  0  0  0  0  0  0
   62.3497   30.9617   49.6886 H   0  0  0  0  0  0  0  0  0  0  0  0
   63.5524   30.5752   47.5379 H   0  0  0  0  0  0  0  0  0  0  0  0
   64.2333   32.5124   46.1179 H   0  0  0  0  0  0  0  0  0  0  0  0
   63.7169   34.8424   46.8536 H   0  0  0  0  0  0  0  0  0  0  0  0
   62.5126   35.2378   49.0051 H   0  0  0  0  0  0  0  0  0  0  0  0
   57.9196   30.7095   46.0562 H   0  0  0  0  0  0  0  0  0  0  0  0
  1  2  1  0
  2  3  1  0
  3  4  2  0
  4  5  1  0
  5  6  2  0
  6  7  1  0
  7  8  2  0
  8  9  1  0
  9 10  1  0
  9 11  1  0
 11 12  1  0
 12 13  2  0
 13 14  1  0
 14 15  2  0
 15 16  1  0
 16 17  2  0
  8 18  1  0
 18 19  1  0
 19 20  2  0
 20  3  1  0
 19  6  1  0
 17 12  1  0
  1 21  1  0
  1 22  1  0
  1 23  1  0
  4 24  1  0
  5 25  1  0
  7 26  1  0
 10 27  1  0
 10 28  1  0
 10 29  1  0
 11 30  1  0
 11 31  1  0
 13 32  1  0
 14 33  1  0
 15 34  1  0
 16 35  1  0
 17 36  1  0
 20 37  1  0
M  CHG  1   7   1
M  END
>  <UniqueID>  (38) 
30

>  <SMILES>  (38) 
COc1ccc2[nH+]c(N(C)Cc3ccccc3)sc2c1

>  <Energy>  (38) 
70.68293931487578

>  <Genealogy>  (38) 
COc1ccc2[nH+]c(N(C)Cc3ccccc3)sc2c1 (protonated)
COc1ccc2[nH+]c(N(C)Cc3ccccc3)sc2c1 (3D coordinates assigned)
COc1ccc2[nH+]c(N(C)Cc3ccccc3)sc2c1 (optimized conformer: 70.68293931487578 kcal/mol)

>  <smiles>  (38) 
COc1ccc2nc(N(C)Cc3ccccc3)sc2c1

>  <score_type>  (38) 
oracle

>  <origin>  (38) 
adg

>  <m_score__min__energy>  (38) 
-5

>  <m_primary>  (38) 
energy

$$$$
38:0
     RDKit          3D

 34 35  0  0  0  0  0  0  0  0999 V2000
   56.7130   29.9610   43.6430 C   0  0  0  0  0  0  0  0  0  0  0  0
   56.6390   30.5030   44.9570 O   0  0  0  0  0  0  0  0  0  0  0  0
   57.7740   30.8460   45.6950 C   0  0  0  0  0  0  0  0  0  0  0  0
   58.4210   29.9570   46.3170 O   0  0  0  0  0  0  0  0  0  0  0  0
   58.2680   32.2360   45.6870 C   0  0  0  0  0  0  0  0  0  0  0  0
   57.6140   33.1610   44.8520 C   0  0  0  0  0  0  0  0  0  0  0  0
   57.9650   34.5100   44.8700 C   0  0  0  0  0  0  0  0  0  0  0  0
   58.9670   34.9600   45.7260 C   0  0  0  0  0  0  0  0  0  0  0  0
   59.6440   34.0560   46.5440 C   0  0  0  0  0  0  0  0  0  0  0  0
   59.3410   32.6780   46.5120 C   0  0  0  0  0  0  0  0  0  0  0  0
   60.1330   31.7650   47.3140 N   0  0  0  0  0  0  0  0  0  0  0  0
   61.3550   32.3740   47.8120 C   0  0  0  0  0  0  0  0  0  0  0  0
   62.5670   32.1330   47.1330 C   0  0  0  0  0  0  0  0  0  0  0  0
   63.7600   32.7140   47.5620 C   0  0  0  0  0  0  0  0  0  0  0  0
   63.7740   33.5270   48.6910 C   0  0  0  0  0  0  0  0  0  0  0  0
   62.5990   33.7410   49.4120 C   0  0  0  0  0  0  0  0  0  0  0  0
   61.3880   33.1500   49.0070 C   0  0  0  0  0  0  0  0  0  0  0  0
   60.1640   33.3870   49.8500 C   0  0  0  0  0  0  0  0  0  0  0  0
   56.8616   28.8727   43.7031 H   0  0  0  0  0  0  0  0  0  0  0  0
   55.7774   30.1742   43.1052 H   0  0  0  0  0  0  0  0  0  0  0  0
   57.5572   30.4172   43.1052 H   0  0  0  0  0  0  0  0  0  0  0  0
   56.8167   32.8156   44.1774 H   0  0  0  0  0  0  0  0  0  0  0  0
   57.4495   35.2203   44.2068 H   0  0  0  0  0  0  0  0  0  0  0  0
   59.2246   36.0290   45.7569 H   0  0  0  0  0  0  0  0  0  0  0  0
   60.4264   34.4227   47.2248 H   0  0  0  0  0  0  0  0  0  0  0  0
   60.3380   30.9180   46.7370 H   0  0  0  0  0  0  0  0  0  0  0  0
   59.5910   31.4170   48.1380 H   0  0  0  0  0  0  0  0  0  0  0  0
   62.5716   31.4761   46.2507 H   0  0  0  0  0  0  0  0  0  0  0  0
   64.6915   32.5292   47.0069 H   0  0  0  0  0  0  0  0  0  0  0  0
   64.7120   34.0013   49.0153 H   0  0  0  0  0  0  0  0  0  0  0  0
   62.6195   34.3793   50.3076 H   0  0  0  0  0  0  0  0  0  0  0  0
   60.4361   33.3343   50.9145 H   0  0  0  0  0  0  0  0  0  0  0  0
   59.7514   34.3817   49.6258 H   0  0  0  0  0  0  0  0  0  0  0  0
   59.4099   32.6182   49.6258 H   0  0  0  0  0  0  0  0  0  0  0  0
  1  2  1  0
  2  3  1  0
  3  4  2  0
  3  5  1  0
  5  6  2  0
  6  7  1  0
  7  8  2  0
  8  9  1  0
  9 10  2  0
 10 11  1  0
 11 12  1  0
 12 13  2  0
 13 14  1  0
 14 15  2  0
 15 16  1  0
 16 17  2  0
 17 18  1  0
 10  5  1  0
 17 12  1  0
  1 19  1  0
  1 20  1  0
  1 21  1  0
  6 22  1  0
  7 23  1  0
  8 24  1  0
  9 25  1  0
 11 26  1  0
 11 27  1  0
 13 28  1  0
 14 29  1  0
 15 30  1  0
 16 31  1  0
 18 32  1  0
 18 33  1  0
 18 34  1  0
M  CHG  1  11   1
M  END
>  <UniqueID>  (39) 
31

>  <SMILES>  (39) 
COC(=O)c1ccccc1[NH2+]c1ccccc1C

>  <Energy>  (39) 
43.21881370244537

>  <Genealogy>  (39) 
COC(=O)c1ccccc1[NH2+]c1ccccc1C (protonated)
COC(=O)c1ccccc1[NH2+]c1ccccc1C (3D coordinates assigned)
COC(=O)c1ccccc1[NH2+]c1ccccc1C (optimized conformer: 43.21881370244537 kcal/mol)

>  <smiles>  (39) 
COC(=O)c1ccccc1Nc1ccccc1C

>  <score_type>  (39) 
oracle

>  <origin>  (39) 
adg

>  <m_score__min__energy>  (39) 
-5.4199999999999999

>  <m_primary>  (39) 
energy

$$$$
39:0
     RDKit          3D

 38 41  0  0  0  0  0  0  0  0999 V2000
   64.5090   32.6420   50.3350 C   0  0  0  0  0  0  0  0  0  0  0  0
   63.1210   32.5520   50.3500 C   0  0  0  0  0  0  0  0  0  0  0  0
   62.7270   32.8440   49.0620 C   0  0  0  0  0  0  0  0  0  0  0  0
   61.4570   32.9030   48.4940 C   0  0  0  0  0  0  0  0  0  0  0  0
   61.3530   33.2280   47.1200 C   0  0  0  0  0  0  0  0  0  0  0  0
   60.0220   33.3030   46.4660 C   0  0  0  0  0  0  0  0  0  0  0  0
   59.4250   34.5420   46.2020 C   0  0  0  0  0  0  0  0  0  0  0  0
   58.2080   34.6010   45.6080 N   0  0  0  0  0  0  0  0  0  0  0  0
   57.5250   33.4840   45.2470 C   0  0  0  0  0  0  0  0  0  0  0  0
   58.0660   32.1990   45.4760 C   0  0  0  0  0  0  0  0  0  0  0  0
   57.3420   30.9890   45.0920 N   0  0  0  0  0  0  0  0  0  0  0  0
   56.2410   31.0830   44.1090 C   0  0  0  0  0  0  0  0  0  0  0  0
   55.6270   29.7300   43.7420 C   0  0  0  0  0  0  0  0  0  0  0  0
   55.5520   28.8860   44.8660 O   0  0  0  0  0  0  0  0  0  0  0  0
   56.8600   28.5220   45.2350 C   0  0  0  0  0  0  0  0  0  0  0  0
   57.6240   29.7220   45.8000 C   0  0  0  0  0  0  0  0  0  0  0  0
   59.3310   32.1360   46.1020 C   0  0  0  0  0  0  0  0  0  0  0  0
   62.5360   33.4850   46.3740 C   0  0  0  0  0  0  0  0  0  0  0  0
   63.8020   33.4170   46.9820 C   0  0  0  0  0  0  0  0  0  0  0  0
   63.8590   33.0910   48.3350 C   0  0  0  0  0  0  0  0  0  0  0  0
   64.9550   32.9720   49.1010 N   0  0  0  0  0  0  0  0  0  0  0  0
   65.1559   32.4685   51.2076 H   0  0  0  0  0  0  0  0  0  0  0  0
   62.4766   32.3017   51.2056 H   0  0  0  0  0  0  0  0  0  0  0  0
   60.5588   32.7025   49.0966 H   0  0  0  0  0  0  0  0  0  0  0  0
   59.9457   35.4709   46.4777 H   0  0  0  0  0  0  0  0  0  0  0  0
   56.5384   33.5809   44.7704 H   0  0  0  0  0  0  0  0  0  0  0  0
   55.4504   31.7197   44.5328 H   0  0  0  0  0  0  0  0  0  0  0  0
   56.6685   31.5029   43.1866 H   0  0  0  0  0  0  0  0  0  0  0  0
   54.6137   29.8910   43.3454 H   0  0  0  0  0  0  0  0  0  0  0  0
   56.2661   29.2497   42.9864 H   0  0  0  0  0  0  0  0  0  0  0  0
   56.8117   27.7334   46.0004 H   0  0  0  0  0  0  0  0  0  0  0  0
   57.3884   28.1591   44.3411 H   0  0  0  0  0  0  0  0  0  0  0  0
   57.3461   29.8449   46.8572 H   0  0  0  0  0  0  0  0  0  0  0  0
   58.6961   29.5119   45.6713 H   0  0  0  0  0  0  0  0  0  0  0  0
   59.7830   31.1546   46.3081 H   0  0  0  0  0  0  0  0  0  0  0  0
   62.4597   33.7405   45.3068 H   0  0  0  0  0  0  0  0  0  0  0  0
   64.7187   33.6150   46.4072 H   0  0  0  0  0  0  0  0  0  0  0  0
   65.9490   33.1050   48.8090 H   0  0  0  0  0  0  0  0  0  0  0  0
  1  2  2  0
  2  3  1  0
  3  4  2  0
  4  5  1  0
  5  6  1  0
  6  7  2  0
  7  8  1  0
  8  9  2  0
  9 10  1  0
 10 11  1  0
 11 12  1  0
 12 13  1  0
 13 14  1  0
 14 15  1  0
 15 16  1  0
 10 17  2  0
  5 18  2  0
 18 19  1  0
 19 20  2  0
 20 21  1  0
 21  1  1  0
 20  3  1  0
 17  6  1  0
 16 11  1  0
  1 22  1  0
  2 23  1  0
  4 24  1  0
  7 25  1  0
  9 26  1  0
 12 27  1  0
 12 28  1  0
 13 29  1  0
 13 30  1  0
 15 31  1  0
 15 32  1  0
 16 33  1  0
 16 34  1  0
 17 35  1  0
 18 36  1  0
 19 37  1  0
 21 38  1  0
M  END
>  <UniqueID>  (40) 
32

>  <SMILES>  (40) 
c1cc2cc(-c3cncc(N4CCOCC4)c3)ccc2[nH]1

>  <Energy>  (40) 
87.69599584775294

>  <Genealogy>  (40) 
c1cc2cc(-c3cncc(N4CCOCC4)c3)ccc2[nH]1 (3D coordinates assigned)
c1cc2cc(-c3cncc(N4CCOCC4)c3)ccc2[nH]1 (nonaromatic ring conformer: 87.69599584775294 kcal/mol)

>  <smiles>  (40) 
c1cc2cc(-c3cncc(N4CCOCC4)c3)ccc2[nH]1

>  <score_type>  (40) 
oracle

>  <origin>  (40) 
adg

>  <m_score__min__energy>  (40) 
-7.9400000000000004

>  <m_primary>  (40) 
energy

$$$$
40:0
     RDKit          3D

 30 32  0  0  0  0  0  0  0  0999 V2000
   55.1810   29.3310   44.8700 O   0  0  0  0  0  0  0  0  0  0  0  0
   56.3460   29.8140   44.8460 C   0  0  0  0  0  0  0  0  0  0  0  0
   56.5450   31.1890   44.4850 N   0  0  0  0  0  0  0  0  0  0  0  0
   57.4100   32.1290   45.1410 C   0  0  0  0  0  0  0  0  0  0  0  0
   57.7430   33.3700   44.5680 C   0  0  0  0  0  0  0  0  0  0  0  0
   58.5480   34.2420   45.2340 N   0  0  0  0  0  0  0  0  0  0  0  0
   59.0410   33.9540   46.4710 C   0  0  0  0  0  0  0  0  0  0  0  0
   59.8430   34.8470   47.1130 N   0  0  0  0  0  0  0  0  0  0  0  0
   60.3470   34.5930   48.3520 C   0  0  0  0  0  0  0  0  0  0  0  0
   60.0440   33.3930   49.0000 C   0  0  0  0  0  0  0  0  0  0  0  0
   59.2210   32.4570   48.3680 C   0  0  0  0  0  0  0  0  0  0  0  0
   58.7130   32.7320   47.0920 C   0  0  0  0  0  0  0  0  0  0  0  0
   57.8850   31.8260   46.4200 C   0  0  0  0  0  0  0  0  0  0  0  0
   57.5120   28.9470   45.1370 C   0  0  0  0  0  0  0  0  0  0  0  0
   58.7620   29.2080   44.5440 C   0  0  0  0  0  0  0  0  0  0  0  0
   59.8610   28.3880   44.8180 C   0  0  0  0  0  0  0  0  0  0  0  0
   59.7260   27.3010   45.6850 C   0  0  0  0  0  0  0  0  0  0  0  0
   58.4920   27.0320   46.2790 C   0  0  0  0  0  0  0  0  0  0  0  0
   57.3890   27.8480   46.0090 C   0  0  0  0  0  0  0  0  0  0  0  0
   57.3504   33.6370   43.5758 H   0  0  0  0  0  0  0  0  0  0  0  0
   58.7820   35.1560   44.7850 H   0  0  0  0  0  0  0  0  0  0  0  0
   60.9941   35.3342   48.8438 H   0  0  0  0  0  0  0  0  0  0  0  0
   60.4505   33.1863   50.0010 H   0  0  0  0  0  0  0  0  0  0  0  0
   58.9736   31.5098   48.8697 H   0  0  0  0  0  0  0  0  0  0  0  0
   57.6079   30.8751   46.8985 H   0  0  0  0  0  0  0  0  0  0  0  0
   58.8748   30.0626   43.8607 H   0  0  0  0  0  0  0  0  0  0  0  0
   60.8338   28.5993   44.3499 H   0  0  0  0  0  0  0  0  0  0  0  0
   60.5919   26.6574   45.8995 H   0  0  0  0  0  0  0  0  0  0  0  0
   58.3868   26.1757   46.9614 H   0  0  0  0  0  0  0  0  0  0  0  0
   56.4194   27.6302   46.4806 H   0  0  0  0  0  0  0  0  0  0  0  0
  1  2  2  0
  2  3  1  0
  3  4  1  0
  4  5  2  0
  5  6  1  0
  6  7  2  0
  7  8  1  0
  8  9  2  0
  9 10  1  0
 10 11  2  0
 11 12  1  0
 12 13  2  0
  2 14  1  0
 14 15  2  0
 15 16  1  0
 16 17  2  0
 17 18  1  0
 18 19  2  0
 13  4  1  0
 19 14  1  0
 12  7  1  0
  5 20  1  0
  6 21  1  0
  9 22  1  0
 10 23  1  0
 11 24  1  0
 13 25  1  0
 15 26  1  0
 16 27  1  0
 17 28  1  0
 18 29  1  0
 19 30  1  0
M  CHG  2   3  -1   6   1
M  END
>  <UniqueID>  (41) 
33

>  <SMILES>  (41) 
O=C([N-]c1c[nH+]c2ncccc2c1)c1ccccc1

>  <Energy>  (41) 
40.73057461052794

>  <Genealogy>  (41) 
O=C([N-]c1c[nH+]c2ncccc2c1)c1ccccc1 (protonated)
O=C([N-]c1c[nH+]c2ncccc2c1)c1ccccc1 (3D coordinates assigned)
O=C([N-]c1c[nH+]c2ncccc2c1)c1ccccc1 (optimized conformer: 40.73057461052794 kcal/mol)

>  <smiles>  (41) 
O=C(Nc1cnc2ncccc2c1)c1ccccc1

>  <score_type>  (41) 
oracle

>  <origin>  (41) 
adg

>  <m_score__min__energy>  (41) 
-7.3600000000000003

>  <m_primary>  (41) 
energy

$$$$
41:0
     RDKit          3D

 38 40  0  0  1  0  0  0  0  0999 V2000
   54.7090   25.1790   45.6240 C   0  0  0  0  0  0  0  0  0  0  0  0
   55.2180   26.4410   45.9900 O   0  0  0  0  0  0  0  0  0  0  0  0
   56.5760   26.7340   45.9750 C   0  0  0  0  0  0  0  0  0  0  0  0
   57.4490   25.7270   46.3360 C   0  0  0  0  0  0  0  0  0  0  0  0
   58.8140   25.9490   46.3430 C   0  0  0  0  0  0  0  0  0  0  0  0
   59.6490   34.4780   47.7540 C   0  0  0  0  0  0  0  0  0  0  0  0
   58.8530   34.4610   46.6220 C   0  0  0  0  0  0  0  0  0  0  0  0
   58.7280   33.3220   45.8540 C   0  0  0  0  0  0  0  0  0  0  0  0
   57.9130   33.2720   44.6770 N   0  0  0  0  0  0  0  0  0  0  0  0
   57.4610   32.1440   44.2170 C   0  0  0  0  0  0  0  0  0  0  0  0
   56.5290   29.8050   43.1750 N   0  0  0  0  0  0  0  0  0  0  0  0
   56.9630   30.7530   42.3160 C   0  0  0  0  0  0  0  0  0  0  0  0
   57.4370   31.9420   42.8490 C   0  0  0  0  0  0  0  0  0  0  0  0
   56.5510   30.0010   44.5140 C   0  0  0  0  0  0  0  0  0  0  0  0
   56.1140   29.0280   45.2380 N   0  0  0  0  0  0  0  0  0  0  0  0
   57.0270   28.0010   45.6070 C   0  0  0  0  0  0  0  0  0  0  0  0
   59.4240   32.1860   46.2440 C   0  0  0  0  0  0  0  0  0  0  0  0
   60.2270   32.1730   47.3710 C   0  0  0  0  0  0  0  0  0  0  0  0
   60.3420   33.3250   48.1320 C   0  0  0  0  0  0  0  0  0  0  0  0
   59.2900   27.2120   45.9780 C   0  0  0  0  0  0  0  0  0  0  0  0
   58.4010   28.2050   45.6210 C   0  0  0  0  0  0  0  0  0  0  0  0
   57.0140   31.1580   45.0180 N   0  0  0  0  0  0  0  0  0  0  0  0
   54.4758   24.6008   46.5303 H   0  0  0  0  0  0  0  0  0  0  0  0
   53.7940   25.3115   45.0280 H   0  0  0  0  0  0  0  0  0  0  0  0
   55.4599   24.6396   45.0280 H   0  0  0  0  0  0  0  0  0  0  0  0
   57.0555   24.7400   46.6204 H   0  0  0  0  0  0  0  0  0  0  0  0
   59.5112   25.1480   46.6300 H   0  0  0  0  0  0  0  0  0  0  0  0
   59.7358   35.3959   48.3540 H   0  0  0  0  0  0  0  0  0  0  0  0
   58.3103   35.3720   46.3295 H   0  0  0  0  0  0  0  0  0  0  0  0
   56.1790   28.9240   42.7460 H   0  0  0  0  0  0  0  0  0  0  0  0
   56.9411   30.5870   41.2288 H   0  0  0  0  0  0  0  0  0  0  0  0
   57.7981   32.7337   42.1761 H   0  0  0  0  0  0  0  0  0  0  0  0
   59.3348   31.2707   45.6404 H   0  0  0  0  0  0  0  0  0  0  0  0
   60.7674   31.2592   47.6591 H   0  0  0  0  0  0  0  0  0  0  0  0
   60.9765   33.3320   49.0305 H   0  0  0  0  0  0  0  0  0  0  0  0
   60.3714   27.4136   45.9755 H   0  0  0  0  0  0  0  0  0  0  0  0
   58.7940   29.1926   45.3376 H   0  0  0  0  0  0  0  0  0  0  0  0
   57.0300   31.3060   46.0350 H   0  0  0  0  0  0  0  0  0  0  0  0
  1  2  1  0
  2  3  1  0
  3  4  2  0
  4  5  1  0
  5  6  2  0
  6  7  1  0
  7  8  2  0
  8  9  1  0
  9 10  2  0
 10 11  1  0
 11 12  1  0
 12 13  2  0
 13 14  1  0
 14 15  2  0
 15 16  1  0
 16 17  2  0
 17 18  1  0
 18 19  2  0
 19 20  1  0
 20 21  2  0
 14 22  1  0
  8  3  1  0
 22 10  1  0
 21 16  1  0
  1 23  1  0
  1 24  1  0
  1 25  1  0
  4 26  1  0
  5 27  1  0
  6 28  1  0
  7 29  1  0
 11 30  1  0
 12 31  1  0
 13 32  1  0
 17 33  1  0
 18 34  1  0
 19 35  1  0
 20 36  1  0
 21 37  1  0
 22 38  1  0
M  END
>  <smiles>  (42) 
COc1ccccc1N=c1[nH]ccc(=Nc2ccccc2)[nH]1

>  <score_type>  (42) 
oracle

>  <origin>  (42) 
adg

>  <m_score__min__energy>  (42) 
-7.7599999999999998

>  <m_primary>  (42) 
energy

$$$$
42:0
     RDKit          3D

 60 63  0  0  0  0  0  0  0  0999 V2000
   58.1470   26.7550   43.1980 C   0  0  0  0  0  0  0  0  0  0  0  0
   57.9850   26.8510   44.6100 O   0  0  0  0  0  0  0  0  0  0  0  0
   58.6640   27.7690   45.4260 C   0  0  0  0  0  0  0  0  0  0  0  0
   59.3090   27.3800   46.6160 C   0  0  0  0  0  0  0  0  0  0  0  0
   59.9630   28.3290   47.4070 C   0  0  0  0  0  0  0  0  0  0  0  0
   59.9830   29.6730   47.0200 C   0  0  0  0  0  0  0  0  0  0  0  0
   60.6510   30.6500   47.8380 C   0  0  0  0  0  0  0  0  0  0  0  0
   61.2090   31.4660   48.5280 C   0  0  0  0  0  0  0  0  0  0  0  0
   61.8890   32.4320   49.3610 C   0  0  0  0  0  0  0  0  0  0  0  0
   63.0470   33.0850   48.8960 C   0  0  0  0  0  0  0  0  0  0  0  0
   63.5880   32.8470   47.5150 C   0  0  0  0  0  0  0  0  0  0  0  0
   63.7110   33.9400   49.7180 N   0  0  0  0  0  0  0  0  0  0  0  0
   63.2790   34.1810   50.9810 C   0  0  0  0  0  0  0  0  0  0  0  0
   62.1630   33.5670   51.4460 N   0  0  0  0  0  0  0  0  0  0  0  0
   61.4490   32.7050   50.6730 C   0  0  0  0  0  0  0  0  0  0  0  0
   60.2610   32.0980   51.2190 N   0  0  0  0  0  0  0  0  0  0  0  0
   60.2810   31.5550   52.5800 C   0  0  0  0  0  0  0  0  0  0  0  0
   59.4630   32.4570   53.5230 C   0  0  0  0  0  0  0  0  0  0  0  0
   58.2990   33.1120   52.8680 N   0  0  0  0  0  0  0  0  0  0  0  0
   58.5410   34.5450   52.6220 C   0  0  0  0  0  0  0  0  0  0  0  0
   57.8430   32.4160   51.6470 C   0  0  0  0  0  0  0  0  0  0  0  0
   58.9560   32.3230   50.5870 C   0  0  0  0  0  0  0  0  0  0  0  0
   59.3500   30.0670   45.8360 C   0  0  0  0  0  0  0  0  0  0  0  0
   58.6970   29.1200   45.0380 C   0  0  0  0  0  0  0  0  0  0  0  0
   58.0780   29.5360   43.8220 N   0  0  0  0  0  0  0  0  0  0  0  0
   56.9600   30.8550   43.8080 S   0  0  0  0  0  0  0  0  0  0  0  0
   56.6270   31.2050   42.3850 O   0  0  0  0  0  0  0  0  0  0  0  0
   55.6930   30.4520   44.5100 O   0  0  0  0  0  0  0  0  0  0  0  0
   57.6760   32.2530   44.6060 C   0  0  0  0  0  0  0  0  0  0  0  0
   58.5210   33.1180   43.8970 C   0  0  0  0  0  0  0  0  0  0  0  0
   59.1270   34.1980   44.5480 C   0  0  0  0  0  0  0  0  0  0  0  0
   58.8940   34.4150   45.9100 C   0  0  0  0  0  0  0  0  0  0  0  0
   59.4860   35.4580   46.5410 F   0  0  0  0  0  0  0  0  0  0  0  0
   58.0560   33.5520   46.6220 C   0  0  0  0  0  0  0  0  0  0  0  0
   57.4480   32.4720   45.9730 C   0  0  0  0  0  0  0  0  0  0  0  0
   59.0731   26.2062   42.9717 H   0  0  0  0  0  0  0  0  0  0  0  0
   57.2886   26.2197   42.7660 H   0  0  0  0  0  0  0  0  0  0  0  0
   58.2044   27.7650   42.7660 H   0  0  0  0  0  0  0  0  0  0  0  0
   59.2981   26.3242   46.9245 H   0  0  0  0  0  0  0  0  0  0  0  0
   60.4631   28.0181   48.3361 H   0  0  0  0  0  0  0  0  0  0  0  0
   64.5928   32.4050   47.5860 H   0  0  0  0  0  0  0  0  0  0  0  0
   62.9220   32.1588   46.9739 H   0  0  0  0  0  0  0  0  0  0  0  0
   63.6454   33.8030   46.9739 H   0  0  0  0  0  0  0  0  0  0  0  0
   63.8345   34.8752   51.6287 H   0  0  0  0  0  0  0  0  0  0  0  0
   59.8457   30.5448   52.5749 H   0  0  0  0  0  0  0  0  0  0  0  0
   61.3212   31.5132   52.9352 H   0  0  0  0  0  0  0  0  0  0  0  0
   59.0913   31.8416   54.3555 H   0  0  0  0  0  0  0  0  0  0  0  0
   60.1346   33.2603   53.8601 H   0  0  0  0  0  0  0  0  0  0  0  0
   58.6300   35.0721   53.5834 H   0  0  0  0  0  0  0  0  0  0  0  0
   59.4724   34.6666   52.0495 H   0  0  0  0  0  0  0  0  0  0  0  0
   57.7012   34.9657   52.0495 H   0  0  0  0  0  0  0  0  0  0  0  0
   57.5232   31.3986   51.9165 H   0  0  0  0  0  0  0  0  0  0  0  0
   57.0113   32.9934   51.2170 H   0  0  0  0  0  0  0  0  0  0  0  0
   58.7364   31.4875   49.9060 H   0  0  0  0  0  0  0  0  0  0  0  0
   58.9928   33.2713   50.0308 H   0  0  0  0  0  0  0  0  0  0  0  0
   59.3655   31.1238   45.5313 H   0  0  0  0  0  0  0  0  0  0  0  0
   58.7080   32.9473   42.8265 H   0  0  0  0  0  0  0  0  0  0  0  0
   59.7871   34.8769   43.9883 H   0  0  0  0  0  0  0  0  0  0  0  0
   57.8744   33.7222   47.6935 H   0  0  0  0  0  0  0  0  0  0  0  0
   56.7900   31.7933   46.5355 H   0  0  0  0  0  0  0  0  0  0  0  0
  1  2  1  0
  2  3  1  0
  3  4  2  0
  4  5  1  0
  5  6  2  0
  6  7  1  0
  7  8  3  0
  8  9  1  0
  9 10  2  0
 10 11  1  0
 10 12  1  0
 12 13  2  0
 13 14  1  0
 14 15  2  0
 15 16  1  0
 16 17  1  0
 17 18  1  0
 18 19  1  0
 19 20  1  0
 19 21  1  0
 21 22  1  0
  6 23  1  0
 23 24  2  0
 24 25  1  0
 25 26  1  0
 26 27  2  0
 26 28  2  0
 26 29  1  0
 29 30  2  0
 30 31  1  0
 31 32  2  0
 32 33  1  0
 32 34  1  0
 34 35  2  0
 24  3  1  0
 35 29  1  0
 15  9  1  0
 22 16  1  0
  1 36  1  0
  1 37  1  0
  1 38  1  0
  4 39  1  0
  5 40  1  0
 11 41  1  0
 11 42  1  0
 11 43  1  0
 13 44  1  0
 17 45  1  0
 17 46  1  0
 18 47  1  0
 18 48  1  0
 20 49  1  0
 20 50  1  0
 20 51  1  0
 21 52  1  0
 21 53  1  0
 22 54  1  0
 22 55  1  0
 23 56  1  0
 30 57  1  0
 31 58  1  0
 34 59  1  0
 35 60  1  0
M  CHG  1  25  -1
M  END
>  <UniqueID>  (43) 
34

>  <SMILES>  (43) 
COc1ccc(C#Cc2c(C)ncnc2N2CCN(C)CC2)cc1[N-]S(=O)(=O)c1ccc(F)cc1

>  <Energy>  (43) 
80.14297895138999

>  <Genealogy>  (43) 
COc1ccc(C#Cc2c(C)ncnc2N2CCN(C)CC2)cc1[N-]S(=O)(=O)c1ccc(F)cc1 (protonated)
COc1ccc(C#Cc2c(C)ncnc2N2CCN(C)CC2)cc1[N-]S(=O)(=O)c1ccc(F)cc1 (3D coordinates assigned)
COc1ccc(C#Cc2c(C)ncnc2N2CCN(C)CC2)cc1[N-]S(=O)(=O)c1ccc(F)cc1 (nonaromatic ring conformer: 80.14297895138999 kcal/mol)

>  <smiles>  (43) 
COc1ccc(C#Cc2c(C)ncnc2N2CCN(C)CC2)cc1NS(=O)(=O)c1ccc(F)cc1

>  <score_type>  (43) 
oracle

>  <origin>  (43) 
adg

>  <m_score__min__energy>  (43) 
-10.66

>  <m_primary>  (43) 
energy

$$$$
43:0
     RDKit          3D

 50 54  0  0  0  0  0  0  0  0999 V2000
   60.3860   34.1930   50.4620 O   0  0  0  0  0  0  0  0  0  0  0  0
   61.2190   34.2010   49.5670 C   0  0  0  0  0  0  0  0  0  0  0  0
   62.6340   34.6410   49.8690 C   0  0  0  0  0  0  0  0  0  0  0  0
   63.7050   33.8050   49.1170 C   0  0  1  0  0  0  0  0  0  0  0  0
   64.0930   32.5290   49.8570 C   0  0  0  0  0  0  0  0  0  0  0  0
   65.4290   32.2460   50.2090 C   0  0  0  0  0  0  0  0  0  0  0  0
   65.7450   31.0870   50.9240 C   0  0  0  0  0  0  0  0  0  0  0  0
   64.7360   30.1980   51.3020 C   0  0  0  0  0  0  0  0  0  0  0  0
   65.0460   29.0750   51.9950 F   0  0  0  0  0  0  0  0  0  0  0  0
   63.4080   30.4710   50.9700 C   0  0  0  0  0  0  0  0  0  0  0  0
   63.0860   31.6300   50.2570 C   0  0  0  0  0  0  0  0  0  0  0  0
   63.3090   33.5110   47.6530 C   0  0  0  0  0  0  0  0  0  0  0  0
   61.9190   32.9450   47.6000 C   0  0  0  0  0  0  0  0  0  0  0  0
   61.7960   31.6820   47.2940 N   0  0  0  0  0  0  0  0  0  0  0  0
   60.7210   30.7260   47.3400 C   0  0  0  0  0  0  0  0  0  0  0  0
   60.9610   29.4910   46.7200 C   0  0  0  0  0  0  0  0  0  0  0  0
   60.0500   28.4390   46.8350 C   0  0  0  0  0  0  0  0  0  0  0  0
   58.8930   28.6010   47.5910 C   0  0  0  0  0  0  0  0  0  0  0  0
   58.6380   29.8200   48.2190 C   0  0  0  0  0  0  0  0  0  0  0  0
   59.5350   30.8930   48.0900 C   0  0  0  0  0  0  0  0  0  0  0  0
   59.1810   32.1450   48.6750 N   0  0  0  0  0  0  0  0  0  0  0  0
   59.3840   33.4030   47.9680 C   0  0  2  0  0  0  0  0  0  0  0  0
   58.8530   33.3160   46.5360 C   0  0  0  0  0  0  0  0  0  0  0  0
   59.4290   34.0080   45.4470 C   0  0  0  0  0  0  0  0  0  0  0  0
   58.8950   33.8770   44.1610 C   0  0  0  0  0  0  0  0  0  0  0  0
   57.7820   33.0640   43.9410 C   0  0  0  0  0  0  0  0  0  0  0  0
   57.1930   32.3850   45.0090 C   0  0  0  0  0  0  0  0  0  0  0  0
   57.7210   32.5130   46.2960 C   0  0  0  0  0  0  0  0  0  0  0  0
   60.8430   33.8650   48.1360 C   0  0  1  0  0  0  0  0  0  0  0  0
   62.7431   35.6954   49.5752 H   0  0  0  0  0  0  0  0  0  0  0  0
   62.8003   34.4946   50.9464 H   0  0  0  0  0  0  0  0  0  0  0  0
   64.6032   34.4394   49.0887 H   0  0  0  0  0  0  0  0  0  0  0  0
   66.2290   32.9429   49.9186 H   0  0  0  0  0  0  0  0  0  0  0  0
   66.7911   30.8745   51.1897 H   0  0  0  0  0  0  0  0  0  0  0  0
   62.6128   29.7727   51.2700 H   0  0  0  0  0  0  0  0  0  0  0  0
   62.0360   31.8413   50.0063 H   0  0  0  0  0  0  0  0  0  0  0  0
   63.3446   34.4442   47.0717 H   0  0  0  0  0  0  0  0  0  0  0  0
   64.0128   32.7797   47.2288 H   0  0  0  0  0  0  0  0  0  0  0  0
   61.8811   29.3490   46.1341 H   0  0  0  0  0  0  0  0  0  0  0  0
   60.2468   27.4827   46.3283 H   0  0  0  0  0  0  0  0  0  0  0  0
   58.1807   27.7690   47.6932 H   0  0  0  0  0  0  0  0  0  0  0  0
   57.7256   29.9422   48.8211 H   0  0  0  0  0  0  0  0  0  0  0  0
   58.5240   32.1470   49.4890 H   0  0  0  0  0  0  0  0  0  0  0  0
   58.7836   34.2102   48.4130 H   0  0  0  0  0  0  0  0  0  0  0  0
   60.3037   34.6544   45.6118 H   0  0  0  0  0  0  0  0  0  0  0  0
   59.3540   34.4168   43.3196 H   0  0  0  0  0  0  0  0  0  0  0  0
   57.3693   32.9584   42.9268 H   0  0  0  0  0  0  0  0  0  0  0  0
   56.3124   31.7486   44.8371 H   0  0  0  0  0  0  0  0  0  0  0  0
   57.2465   31.9797   47.1329 H   0  0  0  0  0  0  0  0  0  0  0  0
   60.8286   34.7664   47.5057 H   0  0  0  0  0  0  0  0  0  0  0  0
  1  2  2  0
  2  3  1  0
  3  4  1  0
  4  5  1  0
  5  6  2  0
  6  7  1  0
  7  8  2  0
  8  9  1  0
  8 10  1  0
 10 11  2  0
  4 12  1  0
 12 13  1  0
 13 14  2  0
 14 15  1  0
 15 16  2  0
 16 17  1  0
 17 18  2  0
 18 19  1  0
 19 20  2  0
 20 21  1  0
 21 22  1  0
 22 23  1  0
 23 24  2  0
 24 25  1  0
 25 26  2  0
 26 27  1  0
 27 28  2  0
 22 29  1  0
 29  2  1  0
 11  5  1  0
 29 13  1  0
 20 15  1  0
 28 23  1  0
  3 30  1  0
  3 31  1  0
  4 32  1  6
  6 33  1  0
  7 34  1  0
 10 35  1  0
 11 36  1  0
 12 37  1  0
 12 38  1  0
 16 39  1  0
 17 40  1  0
 18 41  1  0
 19 42  1  0
 21 43  1  0
 22 44  1  1
 24 45  1  0
 25 46  1  0
 26 47  1  0
 27 48  1  0
 28 49  1  0
 29 50  1  6
M  END
>  <UniqueID>  (44) 
35

>  <SMILES>  (44) 
O=C1C[C@@H](c2ccc(F)cc2)CC2=Nc3ccccc3N[C@H](c3ccccc3)C12

>  <Energy>  (44) 
81.0648007177333

>  <Genealogy>  (44) 
O=C1C[C@@H](c2ccc(F)cc2)CC2=Nc3ccccc3N[C@H](c3ccccc3)C12 (chirality)
O=C1C[C@@H](c2ccc(F)cc2)CC2=Nc3ccccc3N[C@H](c3ccccc3)C12 (3D coordinates assigned)
O=C1C[C@@H](c2ccc(F)cc2)CC2=Nc3ccccc3N[C@H](c3ccccc3)C12 (nonaromatic ring conformer: 81.0648007177333 kcal/mol)

>  <smiles>  (44) 
O=C1CC(c2ccc(F)cc2)CC2=Nc3ccccc3NC(c3ccccc3)C12

>  <score_type>  (44) 
oracle

>  <origin>  (44) 
adg

>  <m_score__min__energy>  (44) 
-6.8300000000000001

>  <m_primary>  (44) 
energy

$$$$
44:0
     RDKit          3D

 34 36  0  0  0  0  0  0  0  0999 V2000
   62.9620   33.8460   49.4260 C   0  0  0  0  0  0  0  0  0  0  0  0
   64.1390   33.4680   48.7790 C   0  0  0  0  0  0  0  0  0  0  0  0
   64.1120   33.0990   47.4700 N   0  0  0  0  0  0  0  0  0  0  0  0
   62.9500   33.0860   46.7590 C   0  0  0  0  0  0  0  0  0  0  0  0
   61.7380   33.4580   47.3670 C   0  0  0  0  0  0  0  0  0  0  0  0
   60.4670   33.4480   46.5980 C   0  0  0  0  0  0  0  0  0  0  0  0
   59.9890   34.6230   45.9940 C   0  0  0  0  0  0  0  0  0  0  0  0
   58.7920   34.6140   45.2760 C   0  0  0  0  0  0  0  0  0  0  0  0
   58.0590   33.4330   45.1480 C   0  0  0  0  0  0  0  0  0  0  0  0
   58.5180   32.2420   45.7380 C   0  0  0  0  0  0  0  0  0  0  0  0
   57.7240   30.9510   45.6090 C   0  0  2  0  0  0  0  0  0  0  0  0
   58.5430   29.8170   44.9730 C   0  0  0  0  0  0  0  0  0  0  0  0
   57.7640   29.4080   43.7440 C   0  0  0  0  0  0  0  0  0  0  0  0
   56.3680   29.9430   43.9850 C   0  0  0  0  0  0  0  0  0  0  0  0
   56.4980   31.1370   44.8160 N   0  0  0  0  0  0  0  0  0  0  0  0
   59.7220   32.2610   46.4650 C   0  0  0  0  0  0  0  0  0  0  0  0
   61.7600   33.8400   48.7180 C   0  0  0  0  0  0  0  0  0  0  0  0
   62.9817   34.1459   50.4842 H   0  0  0  0  0  0  0  0  0  0  0  0
   65.0916   33.4684   49.3291 H   0  0  0  0  0  0  0  0  0  0  0  0
   65.0000   32.8160   47.0020 H   0  0  0  0  0  0  0  0  0  0  0  0
   62.9600   32.7823   45.7018 H   0  0  0  0  0  0  0  0  0  0  0  0
   60.5624   35.5571   46.0876 H   0  0  0  0  0  0  0  0  0  0  0  0
   58.4253   35.5403   44.8097 H   0  0  0  0  0  0  0  0  0  0  0  0
   57.1159   33.4340   44.5818 H   0  0  0  0  0  0  0  0  0  0  0  0
   57.4604   30.6695   46.6392 H   0  0  0  0  0  0  0  0  0  0  0  0
   59.5450   30.1745   44.6935 H   0  0  0  0  0  0  0  0  0  0  0  0
   58.6889   28.9758   45.6666 H   0  0  0  0  0  0  0  0  0  0  0  0
   58.2013   29.8559   42.8395 H   0  0  0  0  0  0  0  0  0  0  0  0
   57.7734   28.3195   43.5857 H   0  0  0  0  0  0  0  0  0  0  0  0
   55.8931   30.2010   43.0269 H   0  0  0  0  0  0  0  0  0  0  0  0
   55.7422   29.1880   44.4833 H   0  0  0  0  0  0  0  0  0  0  0  0
   56.5940   31.9560   44.1710 H   0  0  0  0  0  0  0  0  0  0  0  0
   60.0863   31.3360   46.9359 H   0  0  0  0  0  0  0  0  0  0  0  0
   60.8267   34.1354   49.2196 H   0  0  0  0  0  0  0  0  0  0  0  0
  1  2  2  0
  2  3  1  0
  3  4  2  0
  4  5  1  0
  5  6  1  0
  6  7  2  0
  7  8  1  0
  8  9  2  0
  9 10  1  0
 10 11  1  0
 11 12  1  0
 12 13  1  0
 13 14  1  0
 14 15  1  0
 10 16  2  0
  5 17  2  0
 17  1  1  0
 16  6  1  0
 15 11  1  0
  1 18  1  0
  2 19  1  0
  3 20  1  0
  4 21  1  0
  7 22  1  0
  8 23  1  0
  9 24  1  0
 11 25  1  1
 12 26  1  0
 12 27  1  0
 13 28  1  0
 13 29  1  0
 14 30  1  0
 14 31  1  0
 15 32  1  0
 16 33  1  0
 17 34  1  0
M  CHG  1   3   1
M  END
>  <UniqueID>  (45) 
36

>  <SMILES>  (45) 
c1c[nH+]cc(-c2cccc([C@@H]3CCCN3)c2)c1

>  <Energy>  (45) 
43.13817062850467

>  <Genealogy>  (45) 
c1c[nH+]cc(-c2cccc(C3CCCN3)c2)c1 (protonated)
c1c[nH+]cc(-c2cccc([C@@H]3CCCN3)c2)c1 (chirality)
c1c[nH+]cc(-c2cccc([C@@H]3CCCN3)c2)c1 (3D coordinates assigned)
c1c[nH+]cc(-c2cccc([C@@H]3CCCN3)c2)c1 (nonaromatic ring conformer: 43.13817062850467 kcal/mol)

>  <smiles>  (45) 
c1cncc(-c2cccc(C3CCCN3)c2)c1

>  <score_type>  (45) 
oracle

>  <origin>  (45) 
adg

>  <m_score__min__energy>  (45) 
-6.5199999999999996

>  <m_primary>  (45) 
energy

$$$$
45:0
     RDKit          3D

 35 37  0  0  0  0  0  0  0  0999 V2000
   57.1500   34.2100   44.8670 C   0  0  0  0  0  0  0  0  0  0  0  0
   57.7790   32.8430   44.9150 C   0  0  0  0  0  0  0  0  0  0  0  0
   57.7310   32.0230   43.7800 C   0  0  0  0  0  0  0  0  0  0  0  0
   58.2810   30.7820   43.7960 N   0  0  0  0  0  0  0  0  0  0  0  0
   58.8940   30.2840   44.9060 C   0  0  0  0  0  0  0  0  0  0  0  0
   59.4450   28.9920   44.8840 C   0  0  0  0  0  0  0  0  0  0  0  0
   60.0740   28.4750   46.0170 C   0  0  0  0  0  0  0  0  0  0  0  0
   60.1590   29.2390   47.1810 C   0  0  0  0  0  0  0  0  0  0  0  0
   60.7710   28.7300   48.2790 F   0  0  0  0  0  0  0  0  0  0  0  0
   59.6160   30.5250   47.2190 C   0  0  0  0  0  0  0  0  0  0  0  0
   58.9770   31.0680   46.0840 C   0  0  0  0  0  0  0  0  0  0  0  0
   58.4200   32.3680   46.0790 C   0  0  0  0  0  0  0  0  0  0  0  0
   58.5080   33.4260   47.5450 S   0  0  0  0  0  0  0  0  0  0  0  0
   59.8790   34.4340   46.8890 C   0  0  0  0  0  0  0  0  0  0  0  0
   61.1790   33.9360   47.4550 C   0  0  0  0  0  0  0  0  0  0  0  0
   62.2010   33.5060   46.5940 C   0  0  0  0  0  0  0  0  0  0  0  0
   63.4000   33.0120   47.1150 C   0  0  0  0  0  0  0  0  0  0  0  0
   63.5850   32.9330   48.4980 C   0  0  0  0  0  0  0  0  0  0  0  0
   64.7470   32.4510   49.0020 F   0  0  0  0  0  0  0  0  0  0  0  0
   62.5650   33.3430   49.3630 C   0  0  0  0  0  0  0  0  0  0  0  0
   61.3630   33.8390   48.8480 C   0  0  0  0  0  0  0  0  0  0  0  0
   60.3800   34.2180   49.7030 F   0  0  0  0  0  0  0  0  0  0  0  0
   56.9830   34.5730   45.8919 H   0  0  0  0  0  0  0  0  0  0  0  0
   57.8196   34.9033   44.3370 H   0  0  0  0  0  0  0  0  0  0  0  0
   56.1878   34.1525   44.3370 H   0  0  0  0  0  0  0  0  0  0  0  0
   57.2419   32.3891   42.8652 H   0  0  0  0  0  0  0  0  0  0  0  0
   58.2210   30.2040   42.9270 H   0  0  0  0  0  0  0  0  0  0  0  0
   59.3802   28.3849   43.9690 H   0  0  0  0  0  0  0  0  0  0  0  0
   60.5038   27.4627   45.9923 H   0  0  0  0  0  0  0  0  0  0  0  0
   59.6870   31.1198   48.1416 H   0  0  0  0  0  0  0  0  0  0  0  0
   59.9015   34.3539   45.7922 H   0  0  0  0  0  0  0  0  0  0  0  0
   59.7320   35.4858   47.1756 H   0  0  0  0  0  0  0  0  0  0  0  0
   62.0575   33.5581   45.5047 H   0  0  0  0  0  0  0  0  0  0  0  0
   64.2001   32.6845   46.4349 H   0  0  0  0  0  0  0  0  0  0  0  0
   62.7087   33.2751   50.4515 H   0  0  0  0  0  0  0  0  0  0  0  0
  1  2  1  0
  2  3  2  0
  3  4  1  0
  4  5  2  0
  5  6  1  0
  6  7  2  0
  7  8  1  0
  8  9  1  0
  8 10  2  0
 10 11  1  0
 11 12  2  0
 12 13  1  0
 13 14  1  0
 14 15  1  0
 15 16  2  0
 16 17  1  0
 17 18  2  0
 18 19  1  0
 18 20  1  0
 20 21  2  0
 21 22  1  0
 12  2  1  0
 21 15  1  0
 11  5  1  0
  1 23  1  0
  1 24  1  0
  1 25  1  0
  3 26  1  0
  4 27  1  0
  6 28  1  0
  7 29  1  0
 10 30  1  0
 14 31  1  0
 14 32  1  0
 16 33  1  0
 17 34  1  0
 20 35  1  0
M  CHG  1   4   1
M  END
>  <UniqueID>  (46) 
37

>  <SMILES>  (46) 
Cc1c[nH+]c2ccc(F)cc2c1SCc1ccc(F)cc1F

>  <Energy>  (46) 
38.714318051612196

>  <Genealogy>  (46) 
Cc1c[nH+]c2ccc(F)cc2c1SCc1ccc(F)cc1F (protonated)
Cc1c[nH+]c2ccc(F)cc2c1SCc1ccc(F)cc1F (3D coordinates assigned)
Cc1c[nH+]c2ccc(F)cc2c1SCc1ccc(F)cc1F (optimized conformer: 38.714318051612196 kcal/mol)

>  <smiles>  (46) 
Cc1cnc2ccc(F)cc2c1SCc1ccc(F)cc1F

>  <score_type>  (46) 
oracle

>  <origin>  (46) 
adg

>  <m_score__min__energy>  (46) 
-6.0999999999999996

>  <m_primary>  (46) 
energy

$$$$
46:0
     RDKit          3D

 32 33  0  0  0  0  0  0  0  0999 V2000
   60.2620   28.1970   44.6470 C   0  0  0  0  0  0  0  0  0  0  0  0
   59.6880   29.1010   45.6420 N   0  0  0  0  0  0  0  0  0  0  0  0
   60.5910   29.7890   46.5680 C   0  0  0  0  0  0  0  0  0  0  0  0
   58.2690   29.0710   45.8980 C   0  0  0  0  0  0  0  0  0  0  0  0
   57.5670   30.1740   45.9510 N   0  0  0  0  0  0  0  0  0  0  0  0
   58.1270   31.5000   45.9510 C   0  0  0  0  0  0  0  0  0  0  0  0
   58.1710   32.2720   44.7780 C   0  0  0  0  0  0  0  0  0  0  0  0
   58.6960   33.5670   44.8070 C   0  0  0  0  0  0  0  0  0  0  0  0
   59.1640   34.1120   46.0070 C   0  0  0  0  0  0  0  0  0  0  0  0
   59.8190   35.7440   46.0030 Cl  0  0  0  0  0  0  0  0  0  0  0  0
   59.0960   33.3560   47.1900 C   0  0  0  0  0  0  0  0  0  0  0  0
   59.6600   34.0080   48.7220 Cl  0  0  0  0  0  0  0  0  0  0  0  0
   58.5700   32.0590   47.1580 C   0  0  0  0  0  0  0  0  0  0  0  0
   57.6050   27.7650   46.1440 C   0  0  0  0  0  0  0  0  0  0  0  0
   56.2640   27.5530   45.7750 C   0  0  0  0  0  0  0  0  0  0  0  0
   55.5290   28.5570   45.1550 O   0  0  0  0  0  0  0  0  0  0  0  0
   55.6800   26.3480   46.0020 N   0  0  0  0  0  0  0  0  0  0  0  0
   56.3670   25.3310   46.5800 C   0  0  0  0  0  0  0  0  0  0  0  0
   55.8040   24.2250   46.7800 O   0  0  0  0  0  0  0  0  0  0  0  0
   57.6630   25.5070   46.9410 N   0  0  0  0  0  0  0  0  0  0  0  0
   58.2960   26.6920   46.7380 C   0  0  0  0  0  0  0  0  0  0  0  0
   59.4950   26.8180   47.1010 O   0  0  0  0  0  0  0  0  0  0  0  0
   60.7844   27.3743   45.1572 H   0  0  0  0  0  0  0  0  0  0  0  0
   59.4586   27.7868   44.0175 H   0  0  0  0  0  0  0  0  0  0  0  0
   60.9750   28.7496   44.0175 H   0  0  0  0  0  0  0  0  0  0  0  0
   60.2956   29.5639   47.6034 H   0  0  0  0  0  0  0  0  0  0  0  0
   61.6220   29.4454   46.3979 H   0  0  0  0  0  0  0  0  0  0  0  0
   60.5334   30.8742   46.3979 H   0  0  0  0  0  0  0  0  0  0  0  0
   56.5260   30.1080   46.0230 H   0  0  0  0  0  0  0  0  0  0  0  0
   57.7909   31.8558   43.8334 H   0  0  0  0  0  0  0  0  0  0  0  0
   58.7413   34.1603   43.8818 H   0  0  0  0  0  0  0  0  0  0  0  0
   58.5038   31.4739   48.0871 H   0  0  0  0  0  0  0  0  0  0  0  0
  1  2  1  0
  2  3  1  0
  2  4  1  0
  4  5  2  3
  5  6  1  0
  6  7  2  0
  7  8  1  0
  8  9  2  0
  9 10  1  0
  9 11  1  0
 11 12  1  0
 11 13  2  0
  4 14  1  0
 14 15  2  0
 15 16  1  0
 15 17  1  0
 17 18  1  0
 18 19  2  0
 18 20  1  0
 20 21  1  0
 21 22  2  0
 13  6  1  0
 21 14  1  0
  1 23  1  0
  1 24  1  0
  1 25  1  0
  3 26  1  0
  3 27  1  0
  3 28  1  0
  5 29  1  0
  7 30  1  0
  8 31  1  0
 13 32  1  0
M  CHG  4   5   1  16  -1  17  -1  20  -1
M  END
>  <UniqueID>  (47) 
38

>  <SMILES>  (47) 
CN(C)C(=[NH+]c1ccc(Cl)c(Cl)c1)c1c([O-])[n-]c(=O)[n-]c1=O

>  <Energy>  (47) 
49.14562219786302

>  <Genealogy>  (47) 
CN(C)C(=[NH+]c1ccc(Cl)c(Cl)c1)c1c([O-])[n-]c(=O)[n-]c1=O (protonated)
CN(C)C(=[NH+]c1ccc(Cl)c(Cl)c1)c1c([O-])[n-]c(=O)[n-]c1=O (3D coordinates assigned)
CN(C)C(=[NH+]c1ccc(Cl)c(Cl)c1)c1c([O-])[n-]c(=O)[n-]c1=O (optimized conformer: 49.14562219786302 kcal/mol)

>  <smiles>  (47) 
CN(C)C(=Nc1ccc(Cl)c(Cl)c1)c1c(O)[nH]c(=O)[nH]c1=O

>  <score_type>  (47) 
oracle

>  <origin>  (47) 
adg

>  <m_score__min__energy>  (47) 
-12.9

>  <m_primary>  (47) 
energy

$$$$
47:0
     RDKit          3D

 30 31  0  0  1  0  0  0  0  0999 V2000
   59.5390   34.9970   45.8810 C   0  0  0  0  0  0  0  0  0  0  0  0
   58.8220   33.7610   45.5410 C   0  0  0  0  0  0  0  0  0  0  0  0
   58.4770   33.5520   44.2240 C   0  0  0  0  0  0  0  0  0  0  0  0
   57.7980   32.3920   43.8780 C   0  0  0  0  0  0  0  0  0  0  0  0
   57.4610   31.4380   44.8450 C   0  0  0  0  0  0  0  0  0  0  0  0
   56.7680   30.2850   44.3970 N   0  0  0  0  0  0  0  0  0  0  0  0
   57.0990   29.1410   44.8950 C   0  0  0  0  0  0  0  0  0  0  0  0
   56.1470   28.2920   45.3190 N   0  0  0  0  0  0  0  0  0  0  0  0
   56.4050   27.0850   45.8480 C   0  0  0  0  0  0  0  0  0  0  0  0
   55.4590   26.2880   46.2480 N   0  0  0  0  0  0  0  0  0  0  0  0
   57.6720   26.6520   45.9860 N   0  0  0  0  0  0  0  0  0  0  0  0
   58.6490   27.4720   45.5740 C   0  0  0  0  0  0  0  0  0  0  0  0
   60.0630   26.9780   45.7330 C   0  0  0  0  0  0  0  0  0  0  0  0
   58.4080   28.7190   45.0250 C   0  0  0  0  0  0  0  0  0  0  0  0
   59.4110   29.5120   44.6250 F   0  0  0  0  0  0  0  0  0  0  0  0
   57.8070   31.6500   46.1670 C   0  0  0  0  0  0  0  0  0  0  0  0
   58.4830   32.8140   46.4870 C   0  0  0  0  0  0  0  0  0  0  0  0
   59.5975   35.0979   46.9748 H   0  0  0  0  0  0  0  0  0  0  0  0
   60.5551   34.9587   45.4614 H   0  0  0  0  0  0  0  0  0  0  0  0
   59.0013   35.8601   45.4614 H   0  0  0  0  0  0  0  0  0  0  0  0
   58.7365   34.2954   43.4558 H   0  0  0  0  0  0  0  0  0  0  0  0
   57.5205   32.2198   42.8276 H   0  0  0  0  0  0  0  0  0  0  0  0
   55.1390   28.5630   45.2410 H   0  0  0  0  0  0  0  0  0  0  0  0
   55.5100   25.9000   47.2340 H   0  0  0  0  0  0  0  0  0  0  0  0
   57.8460   25.7030   46.4040 H   0  0  0  0  0  0  0  0  0  0  0  0
   60.3039   26.8939   46.8030 H   0  0  0  0  0  0  0  0  0  0  0  0
   60.1627   25.9918   45.2561 H   0  0  0  0  0  0  0  0  0  0  0  0
   60.7551   27.6876   45.2561 H   0  0  0  0  0  0  0  0  0  0  0  0
   57.5517   30.9133   46.9430 H   0  0  0  0  0  0  0  0  0  0  0  0
   58.7613   32.9920   47.5362 H   0  0  0  0  0  0  0  0  0  0  0  0
  1  2  1  0
  2  3  2  0
  3  4  1  0
  4  5  2  0
  5  6  1  0
  6  7  2  0
  7  8  1  0
  8  9  1  0
  9 10  2  3
  9 11  1  0
 11 12  1  0
 12 13  1  0
 12 14  2  0
 14 15  1  0
  5 16  1  0
 16 17  2  0
 17  2  1  0
 14  7  1  0
  1 18  1  0
  1 19  1  0
  1 20  1  0
  3 21  1  0
  4 22  1  0
  8 23  1  0
 10 24  1  0
 11 25  1  0
 13 26  1  0
 13 27  1  0
 13 28  1  0
 16 29  1  0
 17 30  1  0
M  END
>  <smiles>  (48) 
Cc1ccc(N=c2[nH]c(=N)[nH]c(C)c2F)cc1

>  <score_type>  (48) 
oracle

>  <origin>  (48) 
adg

>  <m_score__min__energy>  (48) 
-7.0999999999999996

>  <m_primary>  (48) 
energy

$$$$
48:0
     RDKit          3D

 20 21  0  0  0  0  0  0  0  0999 V2000
   56.2700   30.0140   43.3420 C   0  0  0  0  0  0  0  0  0  0  0  0
   57.6520   30.4760   43.5230 N   0  0  1  0  0  0  0  0  0  0  0  0
   57.7700   31.8790   43.2120 C   0  0  0  0  0  0  0  0  0  0  0  0
   57.5880   32.3490   42.0570 O   0  0  0  0  0  0  0  0  0  0  0  0
   58.1560   32.6720   44.3680 C   0  0  0  0  0  0  0  0  0  0  0  0
   58.3700   34.0430   44.5000 C   0  0  0  0  0  0  0  0  0  0  0  0
   58.7510   34.5330   45.7600 C   0  0  0  0  0  0  0  0  0  0  0  0
   58.9100   33.6510   46.8500 C   0  0  0  0  0  0  0  0  0  0  0  0
   58.6890   32.2710   46.6880 C   0  0  0  0  0  0  0  0  0  0  0  0
   58.8910   31.1770   48.0460 Cl  0  0  0  0  0  0  0  0  0  0  0  0
   58.3100   31.8120   45.4210 C   0  0  0  0  0  0  0  0  0  0  0  0
   58.0180   30.4740   44.9180 C   0  0  0  0  0  0  0  0  0  0  0  0
   58.1020   29.4190   45.6050 O   0  0  0  0  0  0  0  0  0  0  0  0
   55.8037   29.8581   44.3260 H   0  0  0  0  0  0  0  0  0  0  0  0
   55.7008   30.7707   42.7822 H   0  0  0  0  0  0  0  0  0  0  0  0
   56.2703   29.0671   42.7822 H   0  0  0  0  0  0  0  0  0  0  0  0
   58.3300   29.9130   42.9600 H   0  0  0  0  0  0  0  0  0  0  0  0
   58.2443   34.7210   43.6430 H   0  0  0  0  0  0  0  0  0  0  0  0
   58.9264   35.6101   45.8978 H   0  0  0  0  0  0  0  0  0  0  0  0
   59.2087   34.0449   47.8327 H   0  0  0  0  0  0  0  0  0  0  0  0
  1  2  1  0
  2  3  1  0
  3  4  2  0
  3  5  1  0
  5  6  2  0
  6  7  1  0
  7  8  2  0
  8  9  1  0
  9 10  1  0
  9 11  2  0
 11 12  1  0
 12 13  2  0
 12  2  1  0
 11  5  1  0
  1 14  1  0
  1 15  1  0
  1 16  1  0
  2 17  1  6
  6 18  1  0
  7 19  1  0
  8 20  1  0
M  CHG  1   2   1
M  END
>  <UniqueID>  (49) 
39

>  <SMILES>  (49) 
C[N@H+]1C(=O)c2cccc(Cl)c2C1=O

>  <Energy>  (49) 
45.27976496382624

>  <Genealogy>  (49) 
C[NH+]1C(=O)c2cccc(Cl)c2C1=O (protonated)
C[N@H+]1C(=O)c2cccc(Cl)c2C1=O (chirality)
C[N@H+]1C(=O)c2cccc(Cl)c2C1=O (3D coordinates assigned)
C[N@H+]1C(=O)c2cccc(Cl)c2C1=O (nonaromatic ring conformer: 45.27976496382624 kcal/mol)

>  <smiles>  (49) 
CN1C(=O)c2cccc(Cl)c2C1=O

>  <score_type>  (49) 
oracle

>  <origin>  (49) 
adg

>  <m_score__min__energy>  (49) 
-4.46

>  <m_primary>  (49) 
energy

$$$$
49:0
     RDKit          3D

 37 39  0  0  0  0  0  0  0  0999 V2000
   61.3680   33.6820   50.3740 F   0  0  0  0  0  0  0  0  0  0  0  0
   62.0220   33.5830   49.1890 C   0  0  0  0  0  0  0  0  0  0  0  0
   63.4200   33.5370   49.1870 C   0  0  0  0  0  0  0  0  0  0  0  0
   64.1200   33.4650   47.9810 C   0  0  0  0  0  0  0  0  0  0  0  0
   63.4240   33.4510   46.7700 C   0  0  0  0  0  0  0  0  0  0  0  0
   62.0270   33.4950   46.7650 C   0  0  0  0  0  0  0  0  0  0  0  0
   61.3090   33.5340   47.9740 C   0  0  0  0  0  0  0  0  0  0  0  0
   59.7930   33.6030   47.9590 C   0  0  0  0  0  0  0  0  0  0  0  0
   59.1770   33.5360   46.6130 N   0  0  0  0  0  0  0  0  0  0  0  0
   58.9580   34.8200   45.9480 C   0  0  0  0  0  0  0  0  0  0  0  0
   57.9330   34.5520   44.8680 C   0  0  0  0  0  0  0  0  0  0  0  0
   57.0540   33.4640   45.4550 C   0  0  0  0  0  0  0  0  0  0  0  0
   57.9310   32.7600   46.5050 C   0  0  1  0  0  0  0  0  0  0  0  0
   58.2430   31.3000   46.1260 C   0  0  0  0  0  0  0  0  0  0  0  0
   57.5460   30.8970   44.9050 N   0  0  0  0  0  0  0  0  0  0  0  0
   57.9370   31.1630   43.6450 C   0  0  0  0  0  0  0  0  0  0  0  0
   56.9920   30.6520   42.7820 C   0  0  0  0  0  0  0  0  0  0  0  0
   56.0380   30.0820   43.6030 C   0  0  0  0  0  0  0  0  0  0  0  0
   56.3940   30.2440   44.8920 N   0  0  0  0  0  0  0  0  0  0  0  0
   63.9701   33.5576   50.1393 H   0  0  0  0  0  0  0  0  0  0  0  0
   65.2190   33.4193   47.9846 H   0  0  0  0  0  0  0  0  0  0  0  0
   63.9758   33.4053   45.8195 H   0  0  0  0  0  0  0  0  0  0  0  0
   61.4847   33.4992   45.8080 H   0  0  0  0  0  0  0  0  0  0  0  0
   59.4071   32.7616   48.5533 H   0  0  0  0  0  0  0  0  0  0  0  0
   59.5257   34.5872   48.3711 H   0  0  0  0  0  0  0  0  0  0  0  0
   58.5756   35.5624   46.6639 H   0  0  0  0  0  0  0  0  0  0  0  0
   59.8914   35.2254   45.5303 H   0  0  0  0  0  0  0  0  0  0  0  0
   57.3448   35.4567   44.6546 H   0  0  0  0  0  0  0  0  0  0  0  0
   58.3925   34.2549   43.9138 H   0  0  0  0  0  0  0  0  0  0  0  0
   56.1624   33.9016   45.9278 H   0  0  0  0  0  0  0  0  0  0  0  0
   56.6941   32.7659   44.6849 H   0  0  0  0  0  0  0  0  0  0  0  0
   57.3937   32.7186   47.4640 H   0  0  0  0  0  0  0  0  0  0  0  0
   59.3267   31.1965   45.9685 H   0  0  0  0  0  0  0  0  0  0  0  0
   57.9000   30.6522   46.9462 H   0  0  0  0  0  0  0  0  0  0  0  0
   58.8537   31.6968   43.3540 H   0  0  0  0  0  0  0  0  0  0  0  0
   56.9962   30.6896   41.6827 H   0  0  0  0  0  0  0  0  0  0  0  0
   55.1263   29.5732   43.2566 H   0  0  0  0  0  0  0  0  0  0  0  0
  1  2  1  0
  2  3  2  0
  3  4  1  0
  4  5  2  0
  5  6  1  0
  6  7  2  0
  7  8  1  0
  8  9  1  0
  9 10  1  0
 10 11  1  0
 11 12  1  0
 12 13  1  0
 13 14  1  0
 14 15  1  0
 15 16  1  0
 16 17  2  0
 17 18  1  0
 18 19  2  0
  7  2  1  0
 13  9  1  0
 19 15  1  0
  3 20  1  0
  4 21  1  0
  5 22  1  0
  6 23  1  0
  8 24  1  0
  8 25  1  0
 10 26  1  0
 10 27  1  0
 11 28  1  0
 11 29  1  0
 12 30  1  0
 12 31  1  0
 13 32  1  1
 14 33  1  0
 14 34  1  0
 16 35  1  0
 17 36  1  0
 18 37  1  0
M  END
>  <UniqueID>  (50) 
40

>  <SMILES>  (50) 
Fc1ccccc1CN1CCC[C@H]1Cn1cccn1

>  <Energy>  (50) 
72.50643688299056

>  <Genealogy>  (50) 
Fc1ccccc1CN1CCC[C@H]1Cn1cccn1 (chirality)
Fc1ccccc1CN1CCC[C@H]1Cn1cccn1 (3D coordinates assigned)
Fc1ccccc1CN1CCC[C@H]1Cn1cccn1 (nonaromatic ring conformer: 72.50643688299056 kcal/mol)

>  <smiles>  (50) 
Fc1ccccc1CN1CCCC1Cn1cccn1

>  <score_type>  (50) 
oracle

>  <origin>  (50) 
adg

>  <m_score__min__energy>  (50) 
-7.3300000000000001

>  <m_primary>  (50) 
energy

$$$$
50:0
     RDKit          3D

 30 32  0  0  0  0  0  0  0  0999 V2000
   57.5260   31.9700   41.5910 C   0  0  0  0  0  0  0  0  0  0  0  0
   57.3570   32.1740   42.9900 O   0  0  0  0  0  0  0  0  0  0  0  0
   57.5070   31.1720   43.9600 C   0  0  0  0  0  0  0  0  0  0  0  0
   56.6440   30.0700   43.9170 C   0  0  0  0  0  0  0  0  0  0  0  0
   56.7530   29.0450   44.8600 C   0  0  0  0  0  0  0  0  0  0  0  0
   57.7370   29.1030   45.8580 C   0  0  0  0  0  0  0  0  0  0  0  0
   57.8310   28.0210   46.8990 C   0  0  0  0  0  0  0  0  0  0  0  0
   57.6350   26.6810   46.2630 C   0  0  0  0  0  0  0  0  0  0  0  0
   58.6580   25.8350   45.9510 N   0  0  0  0  0  0  0  0  0  0  0  0
   57.9930   24.7600   45.4830 C   0  0  0  0  0  0  0  0  0  0  0  0
   58.5160   23.2730   44.9080 S   0  0  0  0  0  0  0  0  0  0  0  0
   56.8930   22.7710   44.6650 C   0  0  0  0  0  0  0  0  0  0  0  0
   56.4200   21.2070   44.0360 Cl  0  0  0  0  0  0  0  0  0  0  0  0
   56.0070   23.7870   45.0480 C   0  0  0  0  0  0  0  0  0  0  0  0
   56.6790   24.8680   45.4930 N   0  0  0  0  0  0  0  0  0  0  0  0
   56.4110   26.0770   45.9900 C   0  0  0  0  0  0  0  0  0  0  0  0
   55.1400   26.6050   46.1990 O   0  0  0  0  0  0  0  0  0  0  0  0
   58.5950   30.2120   45.9130 C   0  0  0  0  0  0  0  0  0  0  0  0
   58.4860   31.2370   44.9690 C   0  0  0  0  0  0  0  0  0  0  0  0
   58.2196   31.1328   41.4237 H   0  0  0  0  0  0  0  0  0  0  0  0
   56.5529   31.7368   41.1343 H   0  0  0  0  0  0  0  0  0  0  0  0
   57.9361   32.8828   41.1343 H   0  0  0  0  0  0  0  0  0  0  0  0
   55.8737   30.0109   43.1340 H   0  0  0  0  0  0  0  0  0  0  0  0
   56.0640   28.1885   44.8197 H   0  0  0  0  0  0  0  0  0  0  0  0
   58.8226   28.0574   47.3738 H   0  0  0  0  0  0  0  0  0  0  0  0
   57.0489   28.1793   47.6562 H   0  0  0  0  0  0  0  0  0  0  0  0
   54.9109   23.7126   44.9930 H   0  0  0  0  0  0  0  0  0  0  0  0
   54.7700   26.7060   47.1360 H   0  0  0  0  0  0  0  0  0  0  0  0
   59.3575   30.2750   46.7033 H   0  0  0  0  0  0  0  0  0  0  0  0
   59.1685   32.0984   45.0149 H   0  0  0  0  0  0  0  0  0  0  0  0
  1  2  1  0
  2  3  1  0
  3  4  2  0
  4  5  1  0
  5  6  2  0
  6  7  1  0
  7  8  1  0
  8  9  1  0
  9 10  2  0
 10 11  1  0
 11 12  1  0
 12 13  1  0
 12 14  2  0
 14 15  1  0
 15 16  1  0
 16 17  1  0
  6 18  1  0
 18 19  2  0
 19  3  1  0
 16  8  2  0
 15 10  1  0
  1 20  1  0
  1 21  1  0
  1 22  1  0
  4 23  1  0
  5 24  1  0
  7 25  1  0
  7 26  1  0
 14 27  1  0
 17 28  1  0
 18 29  1  0
 19 30  1  0
M  END
>  <UniqueID>  (51) 
41

>  <SMILES>  (51) 
COc1ccc(Cc2nc3sc(Cl)cn3c2O)cc1

>  <Energy>  (51) 
109.44200594347255

>  <Genealogy>  (51) 
COc1ccc(Cc2nc3sc(Cl)cn3c2O)cc1 (3D coordinates assigned)
COc1ccc(Cc2nc3sc(Cl)cn3c2O)cc1 (optimized conformer: 109.44200594347255 kcal/mol)

>  <smiles>  (51) 
COc1ccc(Cc2nc3sc(Cl)cn3c2O)cc1

>  <score_type>  (51) 
oracle

>  <origin>  (51) 
adg

>  <m_score__min__energy>  (51) 
-7.5199999999999996

>  <m_primary>  (51) 
energy

$$$$
51:0
     RDKit          3D

 50 52  0  0  1  0  0  0  0  0999 V2000
   55.8960   25.6580   45.9110 C   0  0  0  0  0  0  0  0  0  0  0  0
   55.6320   27.0020   45.6580 O   0  0  0  0  0  0  0  0  0  0  0  0
   56.5800   27.9650   45.3430 C   0  0  0  0  0  0  0  0  0  0  0  0
   56.3220   29.2970   45.2340 C   0  0  0  0  0  0  0  0  0  0  0  0
   57.3300   30.2070   44.9150 C   0  0  0  0  0  0  0  0  0  0  0  0
   57.0230   31.5940   44.8090 N   0  0  0  0  0  0  0  0  0  0  0  0
   57.7880   32.5070   45.2720 C   0  0  0  0  0  0  0  0  0  0  0  0
   57.8930   33.7060   44.6330 N   0  0  0  0  0  0  0  0  0  0  0  0
   58.7150   34.6290   45.1700 C   0  0  0  0  0  0  0  0  0  0  0  0
   59.4380   34.3950   46.3260 C   0  0  0  0  0  0  0  0  0  0  0  0
   59.3080   33.1670   46.9500 C   0  0  0  0  0  0  0  0  0  0  0  0
   59.9410   32.8550   48.0320 N   0  0  0  0  0  0  0  0  0  0  0  0
   59.2600   32.0440   48.9850 C   0  0  0  0  0  0  0  0  0  0  0  0
   58.6070   32.6310   50.0640 C   0  0  0  0  0  0  0  0  0  0  0  0
   57.9390   31.8720   51.0060 C   0  0  0  0  0  0  0  0  0  0  0  0
   57.9090   30.4770   50.8860 C   0  0  0  0  0  0  0  0  0  0  0  0
   57.2220   29.7920   51.8650 O   0  0  0  0  0  0  0  0  0  0  0  0
   56.2730   30.3150   52.7410 C   0  0  0  0  0  0  0  0  0  0  0  0
   58.5500   29.9050   49.8280 C   0  0  0  0  0  0  0  0  0  0  0  0
   59.2190   30.6570   48.8850 C   0  0  0  0  0  0  0  0  0  0  0  0
   59.8810   30.1060   47.7970 O   0  0  0  0  0  0  0  0  0  0  0  0
   60.2100   28.7140   47.8530 C   0  0  0  0  0  0  0  0  0  0  0  0
   58.4860   32.2800   46.3890 N   0  0  0  0  0  0  0  0  0  0  0  0
   58.6190   29.7320   44.7060 C   0  0  0  0  0  0  0  0  0  0  0  0
   58.9060   28.3870   44.8120 C   0  0  0  0  0  0  0  0  0  0  0  0
   60.1600   27.8470   44.6170 O   0  0  0  0  0  0  0  0  0  0  0  0
   61.3100   28.6660   44.7160 C   0  0  0  0  0  0  0  0  0  0  0  0
   57.8760   27.4980   45.1320 C   0  0  0  0  0  0  0  0  0  0  0  0
   55.9292   25.4890   46.9974 H   0  0  0  0  0  0  0  0  0  0  0  0
   55.1023   25.0387   45.4677 H   0  0  0  0  0  0  0  0  0  0  0  0
   56.8650   25.3849   45.4677 H   0  0  0  0  0  0  0  0  0  0  0  0
   55.2982   29.6632   45.4008 H   0  0  0  0  0  0  0  0  0  0  0  0
   57.3420   33.8620   43.7660 H   0  0  0  0  0  0  0  0  0  0  0  0
   58.8147   35.6042   44.6709 H   0  0  0  0  0  0  0  0  0  0  0  0
   60.1017   35.1683   46.7400 H   0  0  0  0  0  0  0  0  0  0  0  0
   58.6228   33.7258   50.1699 H   0  0  0  0  0  0  0  0  0  0  0  0
   57.4313   32.3631   51.8493 H   0  0  0  0  0  0  0  0  0  0  0  0
   56.5943   30.1379   53.7780 H   0  0  0  0  0  0  0  0  0  0  0  0
   56.1713   31.3966   52.5683 H   0  0  0  0  0  0  0  0  0  0  0  0
   55.3043   29.8234   52.5683 H   0  0  0  0  0  0  0  0  0  0  0  0
   58.5333   28.8102   49.7229 H   0  0  0  0  0  0  0  0  0  0  0  0
   60.2849   28.3969   48.9036 H   0  0  0  0  0  0  0  0  0  0  0  0
   59.4249   28.1311   47.3492 H   0  0  0  0  0  0  0  0  0  0  0  0
   61.1730   28.5443   47.3492 H   0  0  0  0  0  0  0  0  0  0  0  0
   58.3780   31.3480   46.8510 H   0  0  0  0  0  0  0  0  0  0  0  0
   59.4225   30.4391   44.4522 H   0  0  0  0  0  0  0  0  0  0  0  0
   61.5488   28.8361   45.7762 H   0  0  0  0  0  0  0  0  0  0  0  0
   62.1585   28.1676   44.2244 H   0  0  0  0  0  0  0  0  0  0  0  0
   61.1165   29.6308   44.2244 H   0  0  0  0  0  0  0  0  0  0  0  0
   58.0898   26.4224   45.2179 H   0  0  0  0  0  0  0  0  0  0  0  0
  1  2  1  0
  2  3  1  0
  3  4  2  0
  4  5  1  0
  5  6  1  0
  6  7  2  0
  7  8  1  0
  8  9  1  0
  9 10  2  0
 10 11  1  0
 11 12  2  0
 12 13  1  0
 13 14  2  0
 14 15  1  0
 15 16  2  0
 16 17  1  0
 17 18  1  0
 16 19  1  0
 19 20  2  0
 20 21  1  0
 21 22  1  0
 11 23  1  0
  5 24  2  0
 24 25  1  0
 25 26  1  0
 26 27  1  0
 25 28  2  0
 28  3  1  0
 23  7  1  0
 20 13  1  0
  1 29  1  0
  1 30  1  0
  1 31  1  0
  4 32  1  0
  8 33  1  0
  9 34  1  0
 10 35  1  0
 14 36  1  0
 15 37  1  0
 18 38  1  0
 18 39  1  0
 18 40  1  0
 19 41  1  0
 22 42  1  0
 22 43  1  0
 22 44  1  0
 23 45  1  0
 24 46  1  0
 27 47  1  0
 27 48  1  0
 27 49  1  0
 28 50  1  0
M  END
>  <smiles>  (52) 
COc1cc(N=c2[nH]ccc(=Nc3ccc(OC)cc3OC)[nH]2)cc(OC)c1

>  <score_type>  (52) 
oracle

>  <origin>  (52) 
adg

>  <m_score__min__energy>  (52) 
-8.3000000000000007

>  <m_primary>  (52) 
energy

$$$$
52:0
     RDKit          3D

 22 23  0  0  0  0  0  0  0  0999 V2000
   59.2660   35.7250   47.1180 F   0  0  0  0  0  0  0  0  0  0  0  0
   58.9050   34.5780   46.4910 C   0  0  0  0  0  0  0  0  0  0  0  0
   58.5540   33.4520   47.2410 C   0  0  0  0  0  0  0  0  0  0  0  0
   58.1810   32.2680   46.5970 C   0  0  0  0  0  0  0  0  0  0  0  0
   58.1560   32.1980   45.1910 C   0  0  0  0  0  0  0  0  0  0  0  0
   57.7610   30.9420   44.5040 C   0  0  0  0  0  0  0  0  0  0  0  0
   56.6960   30.9290   43.5880 C   0  0  0  0  0  0  0  0  0  0  0  0
   56.3410   29.7380   42.9520 C   0  0  0  0  0  0  0  0  0  0  0  0
   57.0230   28.5910   43.2180 N   0  0  0  0  0  0  0  0  0  0  0  0
   58.0580   28.5710   44.1000 C   0  0  0  0  0  0  0  0  0  0  0  0
   58.4460   29.7410   44.7570 C   0  0  0  0  0  0  0  0  0  0  0  0
   58.5120   33.3390   44.4470 C   0  0  0  0  0  0  0  0  0  0  0  0
   58.8840   34.5210   45.0960 C   0  0  0  0  0  0  0  0  0  0  0  0
   58.5712   33.4972   48.3399 H   0  0  0  0  0  0  0  0  0  0  0  0
   57.9053   31.3855   47.1929 H   0  0  0  0  0  0  0  0  0  0  0  0
   56.1430   31.8551   43.3724 H   0  0  0  0  0  0  0  0  0  0  0  0
   55.5078   29.7268   42.2340 H   0  0  0  0  0  0  0  0  0  0  0  0
   56.7450   27.7070   42.7340 H   0  0  0  0  0  0  0  0  0  0  0  0
   58.5918   27.6296   44.2968 H   0  0  0  0  0  0  0  0  0  0  0  0
   59.2840   29.7226   45.4693 H   0  0  0  0  0  0  0  0  0  0  0  0
   58.4975   33.3007   43.3478 H   0  0  0  0  0  0  0  0  0  0  0  0
   59.1605   35.4074   44.5062 H   0  0  0  0  0  0  0  0  0  0  0  0
  1  2  1  0
  2  3  2  0
  3  4  1  0
  4  5  2  0
  5  6  1  0
  6  7  2  0
  7  8  1  0
  8  9  2  0
  9 10  1  0
 10 11  2  0
  5 12  1  0
 12 13  2  0
 13  2  1  0
 11  6  1  0
  3 14  1  0
  4 15  1  0
  7 16  1  0
  8 17  1  0
  9 18  1  0
 10 19  1  0
 11 20  1  0
 12 21  1  0
 13 22  1  0
M  CHG  1   9   1
M  END
>  <UniqueID>  (53) 
42

>  <SMILES>  (53) 
Fc1ccc(-c2cc[nH+]cc2)cc1

>  <Energy>  (53) 
28.08201700139588

>  <Genealogy>  (53) 
Fc1ccc(-c2cc[nH+]cc2)cc1 (protonated)
Fc1ccc(-c2cc[nH+]cc2)cc1 (3D coordinates assigned)
Fc1ccc(-c2cc[nH+]cc2)cc1 (optimized conformer: 28.08201700139588 kcal/mol)

>  <smiles>  (53) 
Fc1ccc(-c2ccncc2)cc1

>  <score_type>  (53) 
oracle

>  <origin>  (53) 
adg

>  <m_score__min__energy>  (53) 
-4.3200000000000003

>  <m_primary>  (53) 
energy

$$$$
53:0
     RDKit          3D

 60 62  0  0  0  0  0  0  0  0999 V2000
   68.2850   33.8740   50.5100 C   0  0  0  0  0  0  0  0  0  0  0  0
   67.9430   32.6780   51.3930 C   0  0  0  0  0  0  0  0  0  0  0  0
   66.6850   31.9570   50.8850 C   0  0  0  0  0  0  0  0  0  0  0  0
   65.9880   32.7250   49.7550 C   0  0  0  0  0  0  0  0  0  0  0  0
   64.5840   33.1300   50.1240 C   0  0  0  0  0  0  0  0  0  0  0  0
   64.2990   33.6070   51.4100 C   0  0  0  0  0  0  0  0  0  0  0  0
   62.9940   33.9580   51.7570 C   0  0  0  0  0  0  0  0  0  0  0  0
   61.9590   33.8270   50.8270 C   0  0  0  0  0  0  0  0  0  0  0  0
   62.2220   33.3430   49.5350 C   0  0  0  0  0  0  0  0  0  0  0  0
   61.1230   33.2010   48.5480 C   0  0  0  0  0  0  0  0  0  0  0  0
   59.8780   33.8130   48.7730 C   0  0  0  0  0  0  0  0  0  0  0  0
   58.8390   33.6690   47.8500 C   0  0  0  0  0  0  0  0  0  0  0  0
   59.0240   32.9100   46.6790 C   0  0  0  0  0  0  0  0  0  0  0  0
   57.8950   32.7310   45.6780 C   0  0  1  0  0  0  0  0  0  0  0  0
   57.7190   33.9770   44.7840 C   0  0  0  0  0  0  0  0  0  0  0  0
   58.9020   34.9400   44.8880 C   0  0  0  0  0  0  0  0  0  0  0  0
   58.1370   31.5450   44.8490 N   0  0  0  0  0  0  0  0  0  0  0  0
   57.0910   30.6200   44.5060 C   0  0  0  0  0  0  0  0  0  0  0  0
   55.8930   30.8730   44.8050 O   0  0  0  0  0  0  0  0  0  0  0  0
   57.4180   29.3280   43.8180 C   0  0  0  0  0  0  0  0  0  0  0  0
   58.3180   28.4930   44.6890 C   0  0  0  0  0  0  0  0  0  0  0  0
   57.7850   27.4540   45.4700 C   0  0  0  0  0  0  0  0  0  0  0  0
   58.6180   26.7050   46.3110 C   0  0  0  0  0  0  0  0  0  0  0  0
   59.9820   26.9960   46.3860 C   0  0  0  0  0  0  0  0  0  0  0  0
   60.5170   28.0360   45.6210 C   0  0  0  0  0  0  0  0  0  0  0  0
   59.6900   28.7860   44.7770 C   0  0  0  0  0  0  0  0  0  0  0  0
   60.2710   32.3030   46.4520 C   0  0  0  0  0  0  0  0  0  0  0  0
   61.3080   32.4450   47.3770 C   0  0  0  0  0  0  0  0  0  0  0  0
   63.5420   32.9920   49.1920 C   0  0  0  0  0  0  0  0  0  0  0  0
   68.5323   34.7386   51.1434 H   0  0  0  0  0  0  0  0  0  0  0  0
   69.1482   33.6260   49.8749 H   0  0  0  0  0  0  0  0  0  0  0  0
   67.4212   34.1198   49.8749 H   0  0  0  0  0  0  0  0  0  0  0  0
   68.7879   31.9737   51.3868 H   0  0  0  0  0  0  0  0  0  0  0  0
   67.7496   33.0410   52.4132 H   0  0  0  0  0  0  0  0  0  0  0  0
   66.9737   30.9635   50.5114 H   0  0  0  0  0  0  0  0  0  0  0  0
   65.9789   31.8817   51.7251 H   0  0  0  0  0  0  0  0  0  0  0  0
   66.5705   33.6306   49.5303 H   0  0  0  0  0  0  0  0  0  0  0  0
   65.9291   32.0600   48.8808 H   0  0  0  0  0  0  0  0  0  0  0  0
   65.1075   33.7052   52.1493 H   0  0  0  0  0  0  0  0  0  0  0  0
   62.7790   34.3392   52.7662 H   0  0  0  0  0  0  0  0  0  0  0  0
   60.9325   34.1046   51.1085 H   0  0  0  0  0  0  0  0  0  0  0  0
   59.7203   34.4102   49.6832 H   0  0  0  0  0  0  0  0  0  0  0  0
   57.8693   34.1523   48.0398 H   0  0  0  0  0  0  0  0  0  0  0  0
   56.9638   32.5942   46.2473 H   0  0  0  0  0  0  0  0  0  0  0  0
   57.6200   33.6505   43.7383 H   0  0  0  0  0  0  0  0  0  0  0  0
   56.8203   34.5112   45.1259 H   0  0  0  0  0  0  0  0  0  0  0  0
   59.1310   35.1264   45.9476 H   0  0  0  0  0  0  0  0  0  0  0  0
   59.7801   34.4967   44.3956 H   0  0  0  0  0  0  0  0  0  0  0  0
   58.6461   35.8898   44.3956 H   0  0  0  0  0  0  0  0  0  0  0  0
   59.1140   31.3070   44.5590 H   0  0  0  0  0  0  0  0  0  0  0  0
   56.4878   28.7753   43.6202 H   0  0  0  0  0  0  0  0  0  0  0  0
   57.9328   29.5444   42.8703 H   0  0  0  0  0  0  0  0  0  0  0  0
   56.7096   27.2278   45.4209 H   0  0  0  0  0  0  0  0  0  0  0  0
   58.1972   25.8863   46.9133 H   0  0  0  0  0  0  0  0  0  0  0  0
   60.6348   26.4069   47.0469 H   0  0  0  0  0  0  0  0  0  0  0  0
   61.5910   28.2657   45.6824 H   0  0  0  0  0  0  0  0  0  0  0  0
   60.1148   29.6070   44.1808 H   0  0  0  0  0  0  0  0  0  0  0  0
   60.4317   31.7114   45.5387 H   0  0  0  0  0  0  0  0  0  0  0  0
   62.2776   31.9613   47.1877 H   0  0  0  0  0  0  0  0  0  0  0  0
   63.7591   32.6062   48.1850 H   0  0  0  0  0  0  0  0  0  0  0  0
  1  2  1  0
  2  3  1  0
  3  4  1  0
  4  5  1  0
  5  6  2  0
  6  7  1  0
  7  8  2  0
  8  9  1  0
  9 10  1  0
 10 11  2  0
 11 12  1  0
 12 13  2  0
 13 14  1  0
 14 15  1  0
 15 16  1  0
 14 17  1  0
 17 18  1  0
 18 19  2  0
 18 20  1  0
 20 21  1  0
 21 22  2  0
 22 23  1  0
 23 24  2  0
 24 25  1  0
 25 26  2  0
 13 27  1  0
 27 28  2  0
  9 29  2  0
 29  5  1  0
 28 10  1  0
 26 21  1  0
  1 30  1  0
  1 31  1  0
  1 32  1  0
  2 33  1  0
  2 34  1  0
  3 35  1  0
  3 36  1  0
  4 37  1  0
  4 38  1  0
  6 39  1  0
  7 40  1  0
  8 41  1  0
 11 42  1  0
 12 43  1  0
 14 44  1  1
 15 45  1  0
 15 46  1  0
 16 47  1  0
 16 48  1  0
 16 49  1  0
 17 50  1  0
 20 51  1  0
 20 52  1  0
 22 53  1  0
 23 54  1  0
 24 55  1  0
 25 56  1  0
 26 57  1  0
 27 58  1  0
 28 59  1  0
 29 60  1  0
M  END
>  <UniqueID>  (54) 
43

>  <SMILES>  (54) 
CCCCc1cccc(-c2ccc([C@@H](CC)NC(=O)Cc3ccccc3)cc2)c1

>  <Energy>  (54) 
53.8204309360961

>  <Genealogy>  (54) 
CCCCc1cccc(-c2ccc([C@@H](CC)NC(=O)Cc3ccccc3)cc2)c1 (chirality)
CCCCc1cccc(-c2ccc([C@@H](CC)NC(=O)Cc3ccccc3)cc2)c1 (3D coordinates assigned)
CCCCc1cccc(-c2ccc([C@@H](CC)NC(=O)Cc3ccccc3)cc2)c1 (optimized conformer: 53.8204309360961 kcal/mol)

>  <smiles>  (54) 
CCCCc1cccc(-c2ccc(C(CC)NC(=O)Cc3ccccc3)cc2)c1

>  <score_type>  (54) 
oracle

>  <origin>  (54) 
adg

>  <m_score__min__energy>  (54) 
-9.3800000000000008

>  <m_primary>  (54) 
energy

$$$$
54:0
     RDKit          3D

 28 29  0  0  0  0  0  0  0  0999 V2000
   55.1610   26.7050   45.9870 N   0  0  0  0  0  0  0  0  0  0  0  0
   56.1450   25.7270   46.3140 C   0  0  0  0  0  0  0  0  0  0  0  0
   55.9310   24.9080   47.2470 O   0  0  0  0  0  0  0  0  0  0  0  0
   57.4480   25.7060   45.5840 C   0  0  0  0  0  0  0  0  0  0  0  0
   57.9130   27.1070   45.3240 C   0  0  0  0  0  0  0  0  0  0  0  0
   59.2000   27.5490   45.6270 C   0  0  0  0  0  0  0  0  0  0  0  0
   59.3190   29.1570   45.1390 S   0  0  0  0  0  0  0  0  0  0  0  0
   57.7480   29.2160   44.5420 C   0  0  0  0  0  0  0  0  0  0  0  0
   57.0920   30.4350   43.9750 C   0  0  0  0  0  0  0  0  0  0  0  0
   57.6460   31.6680   44.6310 C   0  0  0  0  0  0  0  0  0  0  0  0
   58.1150   32.7370   43.8490 C   0  0  0  0  0  0  0  0  0  0  0  0
   58.6640   33.8690   44.4600 C   0  0  0  0  0  0  0  0  0  0  0  0
   58.7590   33.9370   45.8530 C   0  0  0  0  0  0  0  0  0  0  0  0
   59.2940   35.0340   46.4430 F   0  0  0  0  0  0  0  0  0  0  0  0
   58.3080   32.8710   46.6370 C   0  0  0  0  0  0  0  0  0  0  0  0
   57.7580   31.7380   46.0300 C   0  0  0  0  0  0  0  0  0  0  0  0
   57.1190   28.0340   44.7220 N   0  0  0  0  0  0  0  0  0  0  0  0
   55.1400   27.1470   45.0400 H   0  0  0  0  0  0  0  0  0  0  0  0
   58.1982   25.1804   46.1930 H   0  0  0  0  0  0  0  0  0  0  0  0
   57.3155   25.1857   44.6239 H   0  0  0  0  0  0  0  0  0  0  0  0
   59.9954   26.9543   46.1000 H   0  0  0  0  0  0  0  0  0  0  0  0
   57.2825   30.4812   42.8926 H   0  0  0  0  0  0  0  0  0  0  0  0
   56.0091   30.3822   44.1610 H   0  0  0  0  0  0  0  0  0  0  0  0
   58.0502   32.6834   42.7522 H   0  0  0  0  0  0  0  0  0  0  0  0
   59.0215   34.7069   43.8435 H   0  0  0  0  0  0  0  0  0  0  0  0
   58.3860   32.9237   47.7330 H   0  0  0  0  0  0  0  0  0  0  0  0
   57.4116   30.8980   46.6500 H   0  0  0  0  0  0  0  0  0  0  0  0
   56.1310   27.8550   44.4350 H   0  0  0  0  0  0  0  0  0  0  0  0
  1  2  1  0
  2  3  2  0
  2  4  1  0
  4  5  1  0
  5  6  2  0
  6  7  1  0
  7  8  1  0
  8  9  1  0
  9 10  1  0
 10 11  2  0
 11 12  1  0
 12 13  2  0
 13 14  1  0
 13 15  1  0
 15 16  2  0
  8 17  2  0
 17  5  1  0
 16 10  1  0
  1 18  1  0
  4 19  1  0
  4 20  1  0
  6 21  1  0
  9 22  1  0
  9 23  1  0
 11 24  1  0
 12 25  1  0
 15 26  1  0
 16 27  1  0
 17 28  1  0
M  CHG  2   1  -1  17   1
M  END
>  <UniqueID>  (55) 
44

>  <SMILES>  (55) 
[NH-]C(=O)Cc1csc(Cc2ccc(F)cc2)[nH+]1

>  <Energy>  (55) 
51.75572623045706

>  <Genealogy>  (55) 
[NH-]C(=O)Cc1csc(Cc2ccc(F)cc2)[nH+]1 (protonated)
[NH-]C(=O)Cc1csc(Cc2ccc(F)cc2)[nH+]1 (3D coordinates assigned)
[NH-]C(=O)Cc1csc(Cc2ccc(F)cc2)[nH+]1 (optimized conformer: 51.75572623045706 kcal/mol)

>  <smiles>  (55) 
NC(=O)Cc1csc(Cc2ccc(F)cc2)n1

>  <score_type>  (55) 
oracle

>  <origin>  (55) 
adg

>  <m_score__min__energy>  (55) 
-8.4299999999999997

>  <m_primary>  (55) 
energy

$$$$
55:0
     RDKit          3D

 37 39  0  0  0  0  0  0  0  0999 V2000
   58.5480   33.0870   51.4430 C   0  0  0  0  0  0  0  0  0  0  0  0
   59.3700   33.0560   50.1940 C   0  0  0  0  0  0  0  0  0  0  0  0
   58.8050   32.6300   48.9870 C   0  0  0  0  0  0  0  0  0  0  0  0
   59.5810   32.6080   47.8240 C   0  0  0  0  0  0  0  0  0  0  0  0
   58.9800   32.1740   46.5970 N   0  0  0  0  0  0  0  0  0  0  0  0
   59.2500   30.8140   46.1180 C   0  0  0  0  0  0  0  0  0  0  0  0
   58.4010   30.4950   44.8890 C   0  0  0  0  0  0  0  0  0  0  0  0
   57.0410   31.0080   45.1120 N   0  0  0  0  0  0  0  0  0  0  0  0
   56.1130   30.4590   44.1120 C   0  0  0  0  0  0  0  0  0  0  0  0
   57.0170   32.4880   45.0790 C   0  0  0  0  0  0  0  0  0  0  0  0
   58.2360   33.1360   45.7760 C   0  0  0  0  0  0  0  0  0  0  0  0
   60.9310   33.0160   47.8800 C   0  0  0  0  0  0  0  0  0  0  0  0
   61.7640   33.0130   46.7460 C   0  0  0  0  0  0  0  0  0  0  0  0
   63.0950   33.4280   46.8510 C   0  0  0  0  0  0  0  0  0  0  0  0
   63.6080   33.8470   48.0810 C   0  0  0  0  0  0  0  0  0  0  0  0
   62.7930   33.8540   49.2150 C   0  0  0  0  0  0  0  0  0  0  0  0
   61.4590   33.4410   49.1230 C   0  0  0  0  0  0  0  0  0  0  0  0
   60.6710   33.4480   50.2320 N   0  0  0  0  0  0  0  0  0  0  0  0
   59.2120   33.0620   52.3196 H   0  0  0  0  0  0  0  0  0  0  0  0
   57.9476   34.0084   51.4640 H   0  0  0  0  0  0  0  0  0  0  0  0
   57.8799   32.2134   51.4640 H   0  0  0  0  0  0  0  0  0  0  0  0
   57.7522   32.3130   48.9530 H   0  0  0  0  0  0  0  0  0  0  0  0
   60.3143   30.7292   45.8533 H   0  0  0  0  0  0  0  0  0  0  0  0
   58.9970   30.1014   46.9168 H   0  0  0  0  0  0  0  0  0  0  0  0
   58.8378   30.9766   44.0017 H   0  0  0  0  0  0  0  0  0  0  0  0
   58.3703   29.4076   44.7255 H   0  0  0  0  0  0  0  0  0  0  0  0
   55.2746   29.9630   44.6231 H   0  0  0  0  0  0  0  0  0  0  0  0
   55.7278   31.2747   43.4825 H   0  0  0  0  0  0  0  0  0  0  0  0
   56.6424   29.7286   43.4825 H   0  0  0  0  0  0  0  0  0  0  0  0
   57.0020   32.8135   44.0284 H   0  0  0  0  0  0  0  0  0  0  0  0
   56.1193   32.8112   45.6264 H   0  0  0  0  0  0  0  0  0  0  0  0
   58.9099   33.5414   45.0069 H   0  0  0  0  0  0  0  0  0  0  0  0
   57.8633   33.9300   46.4398 H   0  0  0  0  0  0  0  0  0  0  0  0
   61.3671   32.6834   45.7745 H   0  0  0  0  0  0  0  0  0  0  0  0
   63.7413   33.4246   45.9609 H   0  0  0  0  0  0  0  0  0  0  0  0
   64.6562   34.1721   48.1564 H   0  0  0  0  0  0  0  0  0  0  0  0
   63.2001   34.1846   50.1819 H   0  0  0  0  0  0  0  0  0  0  0  0
  1  2  1  0
  2  3  2  0
  3  4  1  0
  4  5  1  0
  5  6  1  0
  6  7  1  0
  7  8  1  0
  8  9  1  0
  8 10  1  0
 10 11  1  0
  4 12  2  0
 12 13  1  0
 13 14  2  0
 14 15  1  0
 15 16  2  0
 16 17  1  0
 17 18  2  0
 18  2  1  0
 11  5  1  0
 17 12  1  0
  1 19  1  0
  1 20  1  0
  1 21  1  0
  3 22  1  0
  6 23  1  0
  6 24  1  0
  7 25  1  0
  7 26  1  0
  9 27  1  0
  9 28  1  0
  9 29  1  0
 10 30  1  0
 10 31  1  0
 11 32  1  0
 11 33  1  0
 13 34  1  0
 14 35  1  0
 15 36  1  0
 16 37  1  0
M  END
>  <UniqueID>  (56) 
45

>  <SMILES>  (56) 
Cc1cc(N2CCN(C)CC2)c2ccccc2n1

>  <Energy>  (56) 
50.95189682619406

>  <Genealogy>  (56) 
Cc1cc(N2CCN(C)CC2)c2ccccc2n1 (3D coordinates assigned)
Cc1cc(N2CCN(C)CC2)c2ccccc2n1 (nonaromatic ring conformer: 50.95189682619406 kcal/mol)

>  <smiles>  (56) 
Cc1cc(N2CCN(C)CC2)c2ccccc2n1

>  <score_type>  (56) 
oracle

>  <origin>  (56) 
adg

>  <m_score__min__energy>  (56) 
-6.54

>  <m_primary>  (56) 
energy

$$$$
56:0
     RDKit          3D

 37 39  0  0  0  0  0  0  0  0999 V2000
   58.9360   23.8160   45.3350 C   0  0  0  0  0  0  0  0  0  0  0  0
   58.5700   25.1600   45.8140 N   0  0  0  0  0  0  0  0  0  0  0  0
   59.7130   26.0410   46.1270 C   0  0  0  0  0  0  0  0  0  0  0  0
   59.3890   27.2940   46.9850 C   0  0  0  0  0  0  0  0  0  0  0  0
   58.5270   28.3860   46.3690 C   0  0  0  0  0  0  0  0  0  0  0  0
   59.0510   29.6910   46.3420 C   0  0  0  0  0  0  0  0  0  0  0  0
   58.3230   30.7600   45.7970 C   0  0  0  0  0  0  0  0  0  0  0  0
   58.9010   32.1280   45.7630 C   0  0  0  0  0  0  0  0  0  0  0  0
   60.0330   32.4450   46.5360 C   0  0  0  0  0  0  0  0  0  0  0  0
   60.5750   33.7350   46.5010 C   0  0  0  0  0  0  0  0  0  0  0  0
   59.9930   34.7180   45.7000 C   0  0  0  0  0  0  0  0  0  0  0  0
   58.8670   34.4170   44.9300 C   0  0  0  0  0  0  0  0  0  0  0  0
   58.3230   33.1290   44.9580 C   0  0  0  0  0  0  0  0  0  0  0  0
   57.0450   30.5160   45.2790 C   0  0  0  0  0  0  0  0  0  0  0  0
   56.4950   29.2340   45.3140 C   0  0  0  0  0  0  0  0  0  0  0  0
   55.2260   29.0380   44.7790 O   0  0  0  0  0  0  0  0  0  0  0  0
   57.2170   28.1600   45.8780 C   0  0  0  0  0  0  0  0  0  0  0  0
   56.6180   26.7790   45.8990 C   0  0  0  0  0  0  0  0  0  0  0  0
   57.4590   25.7960   45.0690 C   0  0  0  0  0  0  0  0  0  0  0  0
   59.1157   23.1561   46.1965 H   0  0  0  0  0  0  0  0  0  0  0  0
   58.1162   23.4082   44.7254 H   0  0  0  0  0  0  0  0  0  0  0  0
   59.8494   23.8801   44.7254 H   0  0  0  0  0  0  0  0  0  0  0  0
   60.4596   25.4439   46.6711 H   0  0  0  0  0  0  0  0  0  0  0  0
   60.0654   26.4264   45.1589 H   0  0  0  0  0  0  0  0  0  0  0  0
   58.8729   26.9438   47.8911 H   0  0  0  0  0  0  0  0  0  0  0  0
   60.3655   27.7752   47.1428 H   0  0  0  0  0  0  0  0  0  0  0  0
   60.0525   29.8777   46.7568 H   0  0  0  0  0  0  0  0  0  0  0  0
   60.4946   31.6748   47.1714 H   0  0  0  0  0  0  0  0  0  0  0  0
   61.4617   33.9743   47.1063 H   0  0  0  0  0  0  0  0  0  0  0  0
   60.4212   35.7309   45.6748 H   0  0  0  0  0  0  0  0  0  0  0  0
   58.4078   35.1939   44.3010 H   0  0  0  0  0  0  0  0  0  0  0  0
   57.4381   32.8961   44.3475 H   0  0  0  0  0  0  0  0  0  0  0  0
   56.4686   31.3436   44.8399 H   0  0  0  0  0  0  0  0  0  0  0  0
   56.5727   26.4233   46.9389 H   0  0  0  0  0  0  0  0  0  0  0  0
   55.6097   26.8299   45.4623 H   0  0  0  0  0  0  0  0  0  0  0  0
   56.7940   25.0018   44.6989 H   0  0  0  0  0  0  0  0  0  0  0  0
   57.9190   26.3822   44.2598 H   0  0  0  0  0  0  0  0  0  0  0  0
  1  2  1  0
  2  3  1  0
  3  4  1  0
  4  5  1  0
  5  6  2  0
  6  7  1  0
  7  8  1  0
  8  9  2  0
  9 10  1  0
 10 11  2  0
 11 12  1  0
 12 13  2  0
  7 14  2  0
 14 15  1  0
 15 16  1  0
 15 17  2  0
 17 18  1  0
 18 19  1  0
 19  2  1  0
 17  5  1  0
 13  8  1  0
  1 20  1  0
  1 21  1  0
  1 22  1  0
  3 23  1  0
  3 24  1  0
  4 25  1  0
  4 26  1  0
  6 27  1  0
  9 28  1  0
 10 29  1  0
 11 30  1  0
 12 31  1  0
 13 32  1  0
 14 33  1  0
 18 34  1  0
 18 35  1  0
 19 36  1  0
 19 37  1  0
M  CHG  1  16  -1
M  END
>  <UniqueID>  (57) 
46

>  <SMILES>  (57) 
CN1CCc2cc(-c3ccccc3)cc([O-])c2CC1

>  <Energy>  (57) 
62.26671851865479

>  <Genealogy>  (57) 
CN1CCc2cc(-c3ccccc3)cc([O-])c2CC1 (protonated)
CN1CCc2cc(-c3ccccc3)cc([O-])c2CC1 (3D coordinates assigned)
CN1CCc2cc(-c3ccccc3)cc([O-])c2CC1 (nonaromatic ring conformer: 62.26671851865479 kcal/mol)

>  <smiles>  (57) 
CN1CCc2cc(-c3ccccc3)cc(O)c2CC1

>  <score_type>  (57) 
oracle

>  <origin>  (57) 
adg

>  <m_score__min__energy>  (57) 
-8.3000000000000007

>  <m_primary>  (57) 
energy

$$$$
57:0
     RDKit          3D

 29 31  0  0  0  0  0  0  0  0999 V2000
   58.0020   22.0810   44.1360 Cl  0  0  0  0  0  0  0  0  0  0  0  0
   58.1400   23.7370   44.6870 C   0  0  0  0  0  0  0  0  0  0  0  0
   58.8760   24.1710   45.7770 C   0  0  0  0  0  0  0  0  0  0  0  0
   58.7990   25.5540   45.9800 C   0  0  0  0  0  0  0  0  0  0  0  0
   57.9990   26.2150   45.0440 C   0  0  0  0  0  0  0  0  0  0  0  0
   57.7120   27.6720   44.9810 C   0  0  0  0  0  0  0  0  0  0  0  0
   57.9480   28.5100   46.0860 C   0  0  0  0  0  0  0  0  0  0  0  0
   57.6780   29.8370   45.9930 N   0  0  0  0  0  0  0  0  0  0  0  0
   57.1880   30.3860   44.8500 C   0  0  0  0  0  0  0  0  0  0  0  0
   56.8880   31.7520   44.7650 O   0  0  0  0  0  0  0  0  0  0  0  0
   57.6780   32.7880   45.2860 C   0  0  0  0  0  0  0  0  0  0  0  0
   57.7540   33.0540   46.6660 C   0  0  0  0  0  0  0  0  0  0  0  0
   58.5650   34.0910   47.1390 C   0  0  0  0  0  0  0  0  0  0  0  0
   59.3150   34.8590   46.2440 C   0  0  0  0  0  0  0  0  0  0  0  0
   59.2610   34.5860   44.8750 C   0  0  0  0  0  0  0  0  0  0  0  0
   58.4510   33.5510   44.3990 C   0  0  0  0  0  0  0  0  0  0  0  0
   56.9430   29.5600   43.7540 C   0  0  0  0  0  0  0  0  0  0  0  0
   57.2120   28.2290   43.8370 N   0  0  0  0  0  0  0  0  0  0  0  0
   57.3940   25.0590   43.9730 S   0  0  0  0  0  0  0  0  0  0  0  0
   59.4622   23.4968   46.4187 H   0  0  0  0  0  0  0  0  0  0  0  0
   59.3193   26.0718   46.7993 H   0  0  0  0  0  0  0  0  0  0  0  0
   58.3494   28.0919   47.0209 H   0  0  0  0  0  0  0  0  0  0  0  0
   57.1740   32.4446   47.3747 H   0  0  0  0  0  0  0  0  0  0  0  0
   58.6125   34.3024   48.2174 H   0  0  0  0  0  0  0  0  0  0  0  0
   59.9474   35.6779   46.6173 H   0  0  0  0  0  0  0  0  0  0  0  0
   59.8564   35.1860   44.1711 H   0  0  0  0  0  0  0  0  0  0  0  0
   58.4197   33.3335   43.3212 H   0  0  0  0  0  0  0  0  0  0  0  0
   56.5334   29.9832   42.8249 H   0  0  0  0  0  0  0  0  0  0  0  0
   57.0170   27.6390   42.9980 H   0  0  0  0  0  0  0  0  0  0  0  0
  1  2  1  0
  2  3  2  0
  3  4  1  0
  4  5  2  0
  5  6  1  0
  6  7  2  0
  7  8  1  0
  8  9  2  0
  9 10  1  0
 10 11  1  0
 11 12  2  0
 12 13  1  0
 13 14  2  0
 14 15  1  0
 15 16  2  0
  9 17  1  0
 17 18  2  0
  5 19  1  0
 19  2  1  0
 18  6  1  0
 16 11  1  0
  3 20  1  0
  4 21  1  0
  7 22  1  0
 12 23  1  0
 13 24  1  0
 14 25  1  0
 15 26  1  0
 16 27  1  0
 17 28  1  0
 18 29  1  0
M  CHG  1  18   1
M  END
>  <UniqueID>  (58) 
47

>  <SMILES>  (58) 
Clc1ccc(-c2cnc(Oc3ccccc3)c[nH+]2)s1

>  <Energy>  (58) 
66.27535902945931

>  <Genealogy>  (58) 
Clc1ccc(-c2cnc(Oc3ccccc3)c[nH+]2)s1 (protonated)
Clc1ccc(-c2cnc(Oc3ccccc3)c[nH+]2)s1 (3D coordinates assigned)
Clc1ccc(-c2cnc(Oc3ccccc3)c[nH+]2)s1 (optimized conformer: 66.27535902945931 kcal/mol)

>  <smiles>  (58) 
Clc1ccc(-c2cnc(Oc3ccccc3)cn2)s1

>  <score_type>  (58) 
oracle

>  <origin>  (58) 
adg

>  <m_score__min__energy>  (58) 
-5.5599999999999996

>  <m_primary>  (58) 
energy

$$$$
58:0
     RDKit          3D

 25 26  0  0  0  0  0  0  0  0999 V2000
   57.8900   33.0130   46.4490 C   0  0  0  0  0  0  0  0  0  0  0  0
   57.4700   32.3050   45.2870 O   0  0  0  0  0  0  0  0  0  0  0  0
   57.5580   30.9140   45.1320 C   0  0  0  0  0  0  0  0  0  0  0  0
   58.1830   30.1700   46.1390 C   0  0  0  0  0  0  0  0  0  0  0  0
   58.2940   28.7810   46.0310 C   0  0  0  0  0  0  0  0  0  0  0  0
   57.7690   28.1120   44.9210 C   0  0  0  0  0  0  0  0  0  0  0  0
   57.9110   26.7200   44.8460 O   0  0  0  0  0  0  0  0  0  0  0  0
   57.4210   25.8100   45.7910 C   0  0  0  0  0  0  0  0  0  0  0  0
   58.0690   24.7210   46.3460 C   0  0  0  0  0  0  0  0  0  0  0  0
   57.1260   24.1420   47.1760 C   0  0  0  0  0  0  0  0  0  0  0  0
   57.3290   23.0050   47.9500 O   0  0  0  0  0  0  0  0  0  0  0  0
   55.9900   24.8030   47.1380 O   0  0  0  0  0  0  0  0  0  0  0  0
   56.1450   25.8060   46.3070 C   0  0  0  0  0  0  0  0  0  0  0  0
   55.1490   26.7250   46.0030 O   0  0  0  0  0  0  0  0  0  0  0  0
   57.1580   28.8560   43.8960 C   0  0  0  0  0  0  0  0  0  0  0  0
   57.0470   30.2460   44.0020 C   0  0  0  0  0  0  0  0  0  0  0  0
   57.5664   32.4675   47.3477 H   0  0  0  0  0  0  0  0  0  0  0  0
   58.9865   33.1010   46.4484 H   0  0  0  0  0  0  0  0  0  0  0  0
   57.4416   34.0174   46.4484 H   0  0  0  0  0  0  0  0  0  0  0  0
   58.5903   30.6826   47.0229 H   0  0  0  0  0  0  0  0  0  0  0  0
   58.7979   28.2100   46.8248 H   0  0  0  0  0  0  0  0  0  0  0  0
   59.1026   24.3897   46.1673 H   0  0  0  0  0  0  0  0  0  0  0  0
   57.7790   22.1850   47.5620 H   0  0  0  0  0  0  0  0  0  0  0  0
   56.7654   28.3420   43.0063 H   0  0  0  0  0  0  0  0  0  0  0  0
   56.5590   30.8196   43.2003 H   0  0  0  0  0  0  0  0  0  0  0  0
  1  2  1  0
  2  3  1  0
  3  4  2  0
  4  5  1  0
  5  6  2  0
  6  7  1  0
  7  8  1  0
  8  9  1  0
  9 10  2  0
 10 11  1  0
 10 12  1  0
 12 13  1  0
 13 14  1  0
  6 15  1  0
 15 16  2  0
 16  3  1  0
 13  8  2  0
  1 17  1  0
  1 18  1  0
  1 19  1  0
  4 20  1  0
  5 21  1  0
  9 22  1  0
 11 23  1  0
 15 24  1  0
 16 25  1  0
M  CHG  1  14  -1
M  END
>  <UniqueID>  (59) 
48

>  <SMILES>  (59) 
COc1ccc(Oc2cc(O)oc2[O-])cc1

>  <Energy>  (59) 
58.69356722588454

>  <Genealogy>  (59) 
COc1ccc(Oc2cc(O)oc2[O-])cc1 (protonated)
COc1ccc(Oc2cc(O)oc2[O-])cc1 (3D coordinates assigned)
COc1ccc(Oc2cc(O)oc2[O-])cc1 (optimized conformer: 58.69356722588454 kcal/mol)

>  <smiles>  (59) 
COc1ccc(Oc2cc(O)oc2O)cc1

>  <score_type>  (59) 
oracle

>  <origin>  (59) 
adg

>  <m_score__min__energy>  (59) 
-8.1999999999999993

>  <m_primary>  (59) 
energy

$$$$
59:0
     RDKit          3D

 44 47  0  0  0  0  0  0  0  0999 V2000
   64.0960   33.0840   48.1580 C   0  0  0  0  0  0  0  0  0  0  0  0
   62.9820   32.1630   48.6440 C   0  0  0  0  0  0  0  0  0  0  0  0
   61.7770   32.2730   47.7630 C   0  0  0  0  0  0  0  0  0  0  0  0
   61.1990   31.1450   47.2540 N   0  0  0  0  0  0  0  0  0  0  0  0
   60.1090   31.1930   46.4340 C   0  0  0  0  0  0  0  0  0  0  0  0
   59.4880   29.9620   46.0360 N   0  0  0  0  0  0  0  0  0  0  0  0
   59.9670   29.2980   44.8140 C   0  0  0  0  0  0  0  0  0  0  0  0
   59.2740   27.9470   44.6060 C   0  0  0  0  0  0  0  0  0  0  0  0
   59.4020   27.0510   45.8500 C   0  0  0  0  0  0  0  0  0  0  0  0
   59.2430   27.8100   47.1880 C   0  0  0  0  0  0  0  0  0  0  0  0
   58.6670   29.2160   47.0020 C   0  0  0  0  0  0  0  0  0  0  0  0
   59.5840   32.4570   46.0920 C   0  0  0  0  0  0  0  0  0  0  0  0
   58.5080   32.7990   45.2420 C   0  0  0  0  0  0  0  0  0  0  0  0
   57.7780   31.8800   44.3510 C   0  0  0  0  0  0  0  0  0  0  0  0
   57.0300   30.8200   44.8900 C   0  0  0  0  0  0  0  0  0  0  0  0
   56.3290   29.9540   44.0430 C   0  0  0  0  0  0  0  0  0  0  0  0
   56.3570   30.1510   42.6600 C   0  0  0  0  0  0  0  0  0  0  0  0
   57.0750   31.2210   42.1200 C   0  0  0  0  0  0  0  0  0  0  0  0
   57.7750   32.0900   42.9620 C   0  0  0  0  0  0  0  0  0  0  0  0
   58.2580   34.1760   45.2200 C   0  0  0  0  0  0  0  0  0  0  0  0
   59.3840   34.9710   46.1950 S   0  0  0  0  0  0  0  0  0  0  0  0
   60.1740   33.5720   46.6620 C   0  0  0  0  0  0  0  0  0  0  0  0
   61.2540   33.4970   47.4720 N   0  0  0  0  0  0  0  0  0  0  0  0
   64.6186   33.5161   49.0242 H   0  0  0  0  0  0  0  0  0  0  0  0
   64.8088   32.5079   47.5496 H   0  0  0  0  0  0  0  0  0  0  0  0
   63.6642   33.8924   47.5496 H   0  0  0  0  0  0  0  0  0  0  0  0
   63.3429   31.1239   48.6328 H   0  0  0  0  0  0  0  0  0  0  0  0
   62.6999   32.4602   49.6648 H   0  0  0  0  0  0  0  0  0  0  0  0
   59.7578   29.9449   43.9492 H   0  0  0  0  0  0  0  0  0  0  0  0
   61.0480   29.1216   44.9157 H   0  0  0  0  0  0  0  0  0  0  0  0
   58.2078   28.1203   44.3983 H   0  0  0  0  0  0  0  0  0  0  0  0
   59.7592   27.4364   43.7611 H   0  0  0  0  0  0  0  0  0  0  0  0
   58.6254   26.2737   45.7983 H   0  0  0  0  0  0  0  0  0  0  0  0
   60.4194   26.6329   45.8390 H   0  0  0  0  0  0  0  0  0  0  0  0
   58.5684   27.2363   47.8405 H   0  0  0  0  0  0  0  0  0  0  0  0
   60.2438   27.9159   47.6321 H   0  0  0  0  0  0  0  0  0  0  0  0
   57.6358   29.1424   46.6261 H   0  0  0  0  0  0  0  0  0  0  0  0
   58.6703   29.7427   47.9677 H   0  0  0  0  0  0  0  0  0  0  0  0
   56.9952   30.6705   45.9792 H   0  0  0  0  0  0  0  0  0  0  0  0
   55.7550   29.1168   44.4668 H   0  0  0  0  0  0  0  0  0  0  0  0
   55.8133   29.4631   41.9958 H   0  0  0  0  0  0  0  0  0  0  0  0
   57.0895   31.3797   41.0316 H   0  0  0  0  0  0  0  0  0  0  0  0
   58.3255   32.9414   42.5353 H   0  0  0  0  0  0  0  0  0  0  0  0
   57.4515   34.6652   44.6542 H   0  0  0  0  0  0  0  0  0  0  0  0
  1  2  1  0
  2  3  1  0
  3  4  2  0
  4  5  1  0
  5  6  1  0
  6  7  1  0
  7  8  1  0
  8  9  1  0
  9 10  1  0
 10 11  1  0
  5 12  2  0
 12 13  1  0
 13 14  1  0
 14 15  2  0
 15 16  1  0
 16 17  2  0
 17 18  1  0
 18 19  2  0
 13 20  2  0
 20 21  1  0
 21 22  1  0
 22 23  2  0
 23  3  1  0
 11  6  1  0
 22 12  1  0
 19 14  1  0
  1 24  1  0
  1 25  1  0
  1 26  1  0
  2 27  1  0
  2 28  1  0
  7 29  1  0
  7 30  1  0
  8 31  1  0
  8 32  1  0
  9 33  1  0
  9 34  1  0
 10 35  1  0
 10 36  1  0
 11 37  1  0
 11 38  1  0
 15 39  1  0
 16 40  1  0
 17 41  1  0
 18 42  1  0
 19 43  1  0
 20 44  1  0
M  END
>  <UniqueID>  (60) 
49

>  <SMILES>  (60) 
CCc1nc(N2CCCCC2)c2c(-c3ccccc3)csc2n1

>  <Energy>  (60) 
88.16203293640285

>  <Genealogy>  (60) 
CCc1nc(N2CCCCC2)c2c(-c3ccccc3)csc2n1 (3D coordinates assigned)
CCc1nc(N2CCCCC2)c2c(-c3ccccc3)csc2n1 (nonaromatic ring conformer: 88.16203293640285 kcal/mol)

>  <smiles>  (60) 
CCc1nc(N2CCCCC2)c2c(-c3ccccc3)csc2n1

>  <score_type>  (60) 
oracle

>  <origin>  (60) 
adg

>  <m_score__min__energy>  (60) 
-8.0899999999999999

>  <m_primary>  (60) 
energy

$$$$
60:0
     RDKit          3D

 39 41  0  0  0  0  0  0  0  0999 V2000
   54.3430   24.4570   54.6290 O   0  0  0  0  0  0  0  0  0  0  0  0
   54.4540   25.7920   54.2600 C   0  0  0  0  0  0  0  0  0  0  0  0
   53.3630   26.4510   53.6830 C   0  0  0  0  0  0  0  0  0  0  0  0
   53.4710   27.7940   53.3120 C   0  0  0  0  0  0  0  0  0  0  0  0
   54.6720   28.4920   53.5290 C   0  0  0  0  0  0  0  0  0  0  0  0
   54.8040   29.9070   53.1150 C   0  0  0  0  0  0  0  0  0  0  0  0
   56.0230   30.4940   52.9730 C   0  0  0  0  0  0  0  0  0  0  0  0
   56.6350   30.7960   51.6180 C   0  0  0  0  0  0  0  0  0  0  0  0
   58.0420   30.1880   51.5080 C   0  0  0  0  0  0  0  0  0  0  0  0
   58.8950   30.3430   52.7900 C   0  0  0  0  0  0  0  0  0  0  0  0
   58.2760   31.3080   53.8120 C   0  0  0  0  0  0  0  0  0  0  0  0
   56.8540   30.8670   54.1900 C   0  0  0  0  0  0  0  0  0  0  0  0
   53.5430   30.6230   52.8210 C   0  0  0  0  0  0  0  0  0  0  0  0
   52.5930   30.8370   53.8340 C   0  0  0  0  0  0  0  0  0  0  0  0
   51.4190   31.5460   53.5590 C   0  0  0  0  0  0  0  0  0  0  0  0
   51.1940   32.0590   52.2770 C   0  0  0  0  0  0  0  0  0  0  0  0
   50.0280   32.7620   52.0050 O   0  0  0  0  0  0  0  0  0  0  0  0
   52.1450   31.8640   51.2700 C   0  0  0  0  0  0  0  0  0  0  0  0
   53.3190   31.1550   51.5420 C   0  0  0  0  0  0  0  0  0  0  0  0
   55.7680   27.8210   54.0930 C   0  0  0  0  0  0  0  0  0  0  0  0
   55.6560   26.4760   54.4630 C   0  0  0  0  0  0  0  0  0  0  0  0
   52.4185   25.9110   53.5211 H   0  0  0  0  0  0  0  0  0  0  0  0
   52.6145   28.3061   52.8492 H   0  0  0  0  0  0  0  0  0  0  0  0
   55.9956   30.3707   50.8304 H   0  0  0  0  0  0  0  0  0  0  0  0
   56.7118   31.8870   51.5006 H   0  0  0  0  0  0  0  0  0  0  0  0
   57.9393   29.1151   51.2881 H   0  0  0  0  0  0  0  0  0  0  0  0
   58.5643   30.7351   50.7093 H   0  0  0  0  0  0  0  0  0  0  0  0
   59.0015   29.3548   53.2613 H   0  0  0  0  0  0  0  0  0  0  0  0
   59.8664   30.7624   52.4891 H   0  0  0  0  0  0  0  0  0  0  0  0
   58.9009   31.3236   54.7171 H   0  0  0  0  0  0  0  0  0  0  0  0
   58.2255   32.3109   53.3630 H   0  0  0  0  0  0  0  0  0  0  0  0
   56.9196   29.9931   54.8549 H   0  0  0  0  0  0  0  0  0  0  0  0
   56.3600   31.7144   54.6879 H   0  0  0  0  0  0  0  0  0  0  0  0
   52.7731   30.4458   54.8462 H   0  0  0  0  0  0  0  0  0  0  0  0
   50.6719   31.7004   54.3515 H   0  0  0  0  0  0  0  0  0  0  0  0
   51.9690   32.2691   50.2626 H   0  0  0  0  0  0  0  0  0  0  0  0
   54.0697   31.0137   50.7505 H   0  0  0  0  0  0  0  0  0  0  0  0
   56.7182   28.3540   54.2447 H   0  0  0  0  0  0  0  0  0  0  0  0
   56.5145   25.9567   54.9139 H   0  0  0  0  0  0  0  0  0  0  0  0
  1  2  1  0
  2  3  2  0
  3  4  1  0
  4  5  2  0
  5  6  1  0
  6  7  2  3
  7  8  1  0
  8  9  1  0
  9 10  1  0
 10 11  1  0
 11 12  1  0
  6 13  1  0
 13 14  2  0
 14 15  1  0
 15 16  2  0
 16 17  1  0
 16 18  1  0
 18 19  2  0
  5 20  1  0
 20 21  2  0
 21  2  1  0
 12  7  1  0
 19 13  1  0
  3 22  1  0
  4 23  1  0
  8 24  1  0
  8 25  1  0
  9 26  1  0
  9 27  1  0
 10 28  1  0
 10 29  1  0
 11 30  1  0
 11 31  1  0
 12 32  1  0
 12 33  1  0
 14 34  1  0
 15 35  1  0
 18 36  1  0
 19 37  1  0
 20 38  1  0
 21 39  1  0
M  CHG  2   1  -1  17  -1
M  END
>  <UniqueID>  (61) 
50

>  <SMILES>  (61) 
[O-]c1ccc(C(=C2CCCCC2)c2ccc([O-])cc2)cc1

>  <Energy>  (61) 
57.42783705678347

>  <Genealogy>  (61) 
[O-]c1ccc(C(=C2CCCCC2)c2ccc([O-])cc2)cc1 (protonated)
[O-]c1ccc(C(=C2CCCCC2)c2ccc([O-])cc2)cc1 (3D coordinates assigned)
[O-]c1ccc(C(=C2CCCCC2)c2ccc([O-])cc2)cc1 (nonaromatic ring conformer: 57.42783705678347 kcal/mol)

>  <smiles>  (61) 
Oc1ccc(C(=C2CCCCC2)c2ccc(O)cc2)cc1

>  <score_type>  (61) 
oracle

>  <origin>  (61) 
adg

>  <m_score__min__energy>  (61) 
-10.41

>  <m_primary>  (61) 
energy

$$$$
61:0
     RDKit          3D

 39 42  0  0  0  0  0  0  0  0999 V2000
   57.7800   27.2020   43.8840 O   0  0  0  0  0  0  0  0  0  0  0  0
   57.6010   28.4220   44.1530 C   0  0  0  0  0  0  0  0  0  0  0  0
   57.0630   29.3380   43.0920 C   0  0  0  0  0  0  0  0  0  0  0  0
   56.2650   30.4810   43.7320 C   0  0  0  0  0  0  0  0  0  0  0  0
   57.0820   31.1580   44.8030 C   0  0  0  0  0  0  0  0  0  0  0  0
   56.9950   32.5450   44.9950 C   0  0  0  0  0  0  0  0  0  0  0  0
   57.7660   33.1670   45.9790 C   0  0  0  0  0  0  0  0  0  0  0  0
   58.6360   32.4110   46.7660 C   0  0  0  0  0  0  0  0  0  0  0  0
   58.7180   31.0240   46.5970 C   0  0  0  0  0  0  0  0  0  0  0  0
   59.6400   30.3400   47.3180 F   0  0  0  0  0  0  0  0  0  0  0  0
   57.9060   30.3770   45.6410 C   0  0  0  0  0  0  0  0  0  0  0  0
   57.9290   28.9400   45.4600 N   0  0  0  0  0  0  0  0  0  0  0  0
   57.8060   28.0400   46.6170 C   0  0  0  0  0  0  0  0  0  0  0  0
   57.1140   26.7800   46.2030 C   0  0  0  0  0  0  0  0  0  0  0  0
   57.7310   25.5860   45.9000 C   0  0  0  0  0  0  0  0  0  0  0  0
   56.6790   24.7080   45.7040 C   0  0  0  0  0  0  0  0  0  0  0  0
   56.7710   23.2690   45.3640 C   0  0  0  0  0  0  0  0  0  0  0  0
   57.4610   22.8620   44.2100 C   0  0  0  0  0  0  0  0  0  0  0  0
   57.5440   21.5030   43.8950 C   0  0  0  0  0  0  0  0  0  0  0  0
   56.9640   20.5760   44.7020 N   0  0  0  0  0  0  0  0  0  0  0  0
   56.2900   20.9380   45.8270 C   0  0  0  0  0  0  0  0  0  0  0  0
   56.1810   22.2850   46.1790 C   0  0  0  0  0  0  0  0  0  0  0  0
   55.5120   25.3600   45.8970 N   0  0  0  0  0  0  0  0  0  0  0  0
   55.7770   26.6200   46.2080 N   0  0  0  0  0  0  0  0  0  0  0  0
   57.9007   29.7581   42.5160 H   0  0  0  0  0  0  0  0  0  0  0  0
   56.3991   28.7657   42.4274 H   0  0  0  0  0  0  0  0  0  0  0  0
   56.0016   31.2168   42.9579 H   0  0  0  0  0  0  0  0  0  0  0  0
   55.3529   30.0677   44.1872 H   0  0  0  0  0  0  0  0  0  0  0  0
   56.3176   33.1441   44.3687 H   0  0  0  0  0  0  0  0  0  0  0  0
   57.6877   34.2532   46.1340 H   0  0  0  0  0  0  0  0  0  0  0  0
   59.2605   32.9078   47.5231 H   0  0  0  0  0  0  0  0  0  0  0  0
   58.8082   27.7980   47.0004 H   0  0  0  0  0  0  0  0  0  0  0  0
   57.2198   28.5363   47.4044 H   0  0  0  0  0  0  0  0  0  0  0  0
   58.8090   25.3786   45.8301 H   0  0  0  0  0  0  0  0  0  0  0  0
   57.9341   23.6101   43.5569 H   0  0  0  0  0  0  0  0  0  0  0  0
   58.0810   21.1823   42.9901 H   0  0  0  0  0  0  0  0  0  0  0  0
   57.0360   19.5640   44.4540 H   0  0  0  0  0  0  0  0  0  0  0  0
   55.8292   20.1668   46.4617 H   0  0  0  0  0  0  0  0  0  0  0  0
   55.6363   22.5757   47.0894 H   0  0  0  0  0  0  0  0  0  0  0  0
  1  2  2  0
  2  3  1  0
  3  4  1  0
  4  5  1  0
  5  6  2  0
  6  7  1  0
  7  8  2  0
  8  9  1  0
  9 10  1  0
  9 11  2  0
 11 12  1  0
 12 13  1  0
 13 14  1  0
 14 15  2  0
 15 16  1  0
 16 17  1  0
 17 18  2  0
 18 19  1  0
 19 20  2  0
 20 21  1  0
 21 22  2  0
 16 23  2  0
 23 24  1  0
 12  2  1  0
 24 14  1  0
 11  5  1  0
 22 17  1  0
  3 25  1  0
  3 26  1  0
  4 27  1  0
  4 28  1  0
  6 29  1  0
  7 30  1  0
  8 31  1  0
 13 32  1  0
 13 33  1  0
 15 34  1  0
 18 35  1  0
 19 36  1  0
 20 37  1  0
 21 38  1  0
 22 39  1  0
M  CHG  2  20   1  24  -1
M  END
>  <UniqueID>  (62) 
51

>  <SMILES>  (62) 
O=C1CCc2cccc(F)c2N1Cc1cc(-c2cc[nH+]cc2)n[n-]1

>  <Energy>  (62) 
78.74012249049396

>  <Genealogy>  (62) 
O=C1CCc2cccc(F)c2N1Cc1cc(-c2cc[nH+]cc2)n[n-]1 (protonated)
O=C1CCc2cccc(F)c2N1Cc1cc(-c2cc[nH+]cc2)n[n-]1 (3D coordinates assigned)
O=C1CCc2cccc(F)c2N1Cc1cc(-c2cc[nH+]cc2)n[n-]1 (nonaromatic ring conformer: 78.74012249049396 kcal/mol)

>  <smiles>  (62) 
O=C1CCc2cccc(F)c2N1Cc1cc(-c2ccncc2)n[nH]1

>  <score_type>  (62) 
oracle

>  <origin>  (62) 
adg

>  <m_score__min__energy>  (62) 
-9.0800000000000001

>  <m_primary>  (62) 
energy

$$$$
62:0
     RDKit          3D

 33 35  0  0  0  0  0  0  0  0999 V2000
   55.1440   26.4320   46.0680 O   0  0  0  0  0  0  0  0  0  0  0  0
   56.3990   26.3730   45.9670 C   0  0  0  0  0  0  0  0  0  0  0  0
   57.0360   25.2080   46.2580 N   0  0  0  0  0  0  0  0  0  0  0  0
   58.3870   25.0990   46.1630 C   0  0  0  0  0  0  0  0  0  0  0  0
   59.1320   26.1650   45.7720 N   0  0  0  0  0  0  0  0  0  0  0  0
   58.5470   27.3530   45.4690 C   0  0  0  0  0  0  0  0  0  0  0  0
   59.3310   28.4360   45.0660 C   0  0  0  0  0  0  0  0  0  0  0  0
   58.7320   29.6610   44.7540 C   0  0  0  0  0  0  0  0  0  0  0  0
   57.3350   29.8140   44.8460 C   0  0  0  0  0  0  0  0  0  0  0  0
   56.6820   31.0210   44.5450 O   0  0  0  0  0  0  0  0  0  0  0  0
   57.1020   32.3240   44.9540 C   0  0  0  0  0  0  0  0  0  0  0  0
   58.0770   32.9290   43.9110 C   0  0  0  0  0  0  0  0  0  0  0  0
   59.1170   33.8910   44.5200 C   0  0  0  0  0  0  0  0  0  0  0  0
   58.5690   34.6010   45.7600 C   0  0  0  0  0  0  0  0  0  0  0  0
   58.1940   33.5980   46.8710 C   0  0  0  0  0  0  0  0  0  0  0  0
   57.7700   32.2180   46.3310 C   0  0  0  0  0  0  0  0  0  0  0  0
   56.5500   28.7250   45.2440 C   0  0  0  0  0  0  0  0  0  0  0  0
   57.1470   27.4910   45.5600 C   0  0  0  0  0  0  0  0  0  0  0  0
   58.8786   24.1448   46.4034 H   0  0  0  0  0  0  0  0  0  0  0  0
   60.4230   28.3255   44.9937 H   0  0  0  0  0  0  0  0  0  0  0  0
   59.3554   30.5093   44.4351 H   0  0  0  0  0  0  0  0  0  0  0  0
   56.2310   32.9922   45.0233 H   0  0  0  0  0  0  0  0  0  0  0  0
   58.6132   32.1048   43.4178 H   0  0  0  0  0  0  0  0  0  0  0  0
   57.4700   33.5160   43.2060 H   0  0  0  0  0  0  0  0  0  0  0  0
   60.0115   33.3169   44.8034 H   0  0  0  0  0  0  0  0  0  0  0  0
   59.3625   34.6541   43.7668 H   0  0  0  0  0  0  0  0  0  0  0  0
   59.3357   35.2895   46.1449 H   0  0  0  0  0  0  0  0  0  0  0  0
   57.6597   35.1475   45.4693 H   0  0  0  0  0  0  0  0  0  0  0  0
   59.0660   33.4627   47.5277 H   0  0  0  0  0  0  0  0  0  0  0  0
   57.3302   34.0162   47.4085 H   0  0  0  0  0  0  0  0  0  0  0  0
   58.6620   31.5800   46.2455 H   0  0  0  0  0  0  0  0  0  0  0  0
   57.0402   31.7868   47.0320 H   0  0  0  0  0  0  0  0  0  0  0  0
   55.4575   28.8353   45.3101 H   0  0  0  0  0  0  0  0  0  0  0  0
  1  2  2  0
  2  3  1  0
  3  4  2  0
  4  5  1  0
  5  6  1  0
  6  7  2  0
  7  8  1  0
  8  9  2  0
  9 10  1  0
 10 11  1  0
 11 12  1  0
 12 13  1  0
 13 14  1  0
 14 15  1  0
 15 16  1  0
  9 17  1  0
 17 18  2  0
 18  2  1  0
 18  6  1  0
 16 11  1  0
  4 19  1  0
  7 20  1  0
  8 21  1  0
 11 22  1  0
 12 23  1  0
 12 24  1  0
 13 25  1  0
 13 26  1  0
 14 27  1  0
 14 28  1  0
 15 29  1  0
 15 30  1  0
 16 31  1  0
 16 32  1  0
 17 33  1  0
M  CHG  1   5  -1
M  END
>  <UniqueID>  (63) 
52

>  <SMILES>  (63) 
O=c1nc[n-]c2ccc(OC3CCCCC3)cc12

>  <Energy>  (63) 
41.26192425468138

>  <Genealogy>  (63) 
O=c1nc[n-]c2ccc(OC3CCCCC3)cc12 (protonated)
O=c1nc[n-]c2ccc(OC3CCCCC3)cc12 (3D coordinates assigned)
O=c1nc[n-]c2ccc(OC3CCCCC3)cc12 (nonaromatic ring conformer: 41.26192425468138 kcal/mol)

>  <smiles>  (63) 
O=c1nc[nH]c2ccc(OC3CCCCC3)cc12

>  <score_type>  (63) 
oracle

>  <origin>  (63) 
adg

>  <m_score__min__energy>  (63) 
-8.8200000000000003

>  <m_primary>  (63) 
energy

$$$$
63:0
     RDKit          3D

 32 34  0  0  0  0  0  0  0  0999 V2000
   63.3000   33.1160   47.2040 C   0  0  0  0  0  0  0  0  0  0  0  0
   62.0660   32.3680   47.5580 C   0  0  0  0  0  0  0  0  0  0  0  0
   61.9940   31.5430   48.6660 C   0  0  0  0  0  0  0  0  0  0  0  0
   60.8260   30.8550   48.9720 C   0  0  0  0  0  0  0  0  0  0  0  0
   59.7000   30.9850   48.1660 C   0  0  0  0  0  0  0  0  0  0  0  0
   59.7800   31.8120   47.0590 C   0  0  0  0  0  0  0  0  0  0  0  0
   58.6410   31.8970   46.2310 N   0  0  0  0  0  0  0  0  0  0  0  0
   57.9740   30.9650   45.5770 C   0  0  0  0  0  0  0  0  0  0  0  0
   58.1230   29.5400   45.4360 C   0  0  0  0  0  0  0  0  0  0  0  0
   59.4350   29.0440   45.4290 C   0  0  0  0  0  0  0  0  0  0  0  0
   59.6840   27.6980   45.2740 C   0  0  0  0  0  0  0  0  0  0  0  0
   58.6830   26.7660   45.1170 C   0  0  0  0  0  0  0  0  0  0  0  0
   57.3910   27.2420   45.1220 C   0  0  0  0  0  0  0  0  0  0  0  0
   57.1390   28.6130   45.2800 C   0  0  0  0  0  0  0  0  0  0  0  0
   55.8440   28.9630   45.2340 F   0  0  0  0  0  0  0  0  0  0  0  0
   56.9900   31.6460   44.9120 N   0  0  0  0  0  0  0  0  0  0  0  0
   57.0490   32.9330   45.1480 N   0  0  0  0  0  0  0  0  0  0  0  0
   58.0750   33.1230   45.9730 C   0  0  0  0  0  0  0  0  0  0  0  0
   58.5400   34.5750   46.5510 S   0  0  0  0  0  0  0  0  0  0  0  0
   60.9670   32.5040   46.7550 C   0  0  0  0  0  0  0  0  0  0  0  0
   63.8158   33.4287   48.1239 H   0  0  0  0  0  0  0  0  0  0  0  0
   63.9644   32.4685   46.6130 H   0  0  0  0  0  0  0  0  0  0  0  0
   63.0333   34.0046   46.6130 H   0  0  0  0  0  0  0  0  0  0  0  0
   62.8749   31.4298   49.3149 H   0  0  0  0  0  0  0  0  0  0  0  0
   60.7918   30.2033   49.8575 H   0  0  0  0  0  0  0  0  0  0  0  0
   58.7710   30.4452   48.4019 H   0  0  0  0  0  0  0  0  0  0  0  0
   60.2780   29.7404   45.5491 H   0  0  0  0  0  0  0  0  0  0  0  0
   60.7284   27.3528   45.2757 H   0  0  0  0  0  0  0  0  0  0  0  0
   58.9041   25.6955   44.9938 H   0  0  0  0  0  0  0  0  0  0  0  0
   56.5507   26.5425   45.0013 H   0  0  0  0  0  0  0  0  0  0  0  0
   56.3690   33.6140   44.7200 H   0  0  0  0  0  0  0  0  0  0  0  0
   61.0112   33.1556   45.8699 H   0  0  0  0  0  0  0  0  0  0  0  0
  1  2  1  0
  2  3  2  0
  3  4  1  0
  4  5  2  0
  5  6  1  0
  6  7  1  0
  7  8  1  0
  8  9  1  0
  9 10  2  0
 10 11  1  0
 11 12  2  0
 12 13  1  0
 13 14  2  0
 14 15  1  0
  8 16  2  0
 16 17  1  0
 17 18  1  0
 18 19  2  0
  6 20  2  0
 20  2  1  0
 18  7  1  0
 14  9  1  0
  1 21  1  0
  1 22  1  0
  1 23  1  0
  3 24  1  0
  4 25  1  0
  5 26  1  0
 10 27  1  0
 11 28  1  0
 12 29  1  0
 13 30  1  0
 17 31  1  0
 20 32  1  0
M  END
>  <smiles>  (64) 
Cc1cccc(-n2c(-c3ccccc3F)n[nH]c2=S)c1

>  <score_type>  (64) 
oracle

>  <origin>  (64) 
adg

>  <m_score__min__energy>  (64) 
-6.9699999999999998

>  <m_primary>  (64) 
energy

$$$$
64:0
     RDKit          3D

 27 26  0  0  0  0  0  0  0  0999 V2000
   55.5310   29.7490   43.9990 C   0  0  0  0  0  0  0  0  0  0  0  0
   55.9330   28.7590   45.0030 N   0  0  0  0  0  0  0  0  0  0  0  0
   57.2830   29.0320   45.5190 C   0  0  0  0  0  0  0  0  0  0  0  0
   58.3440   28.4940   44.5470 C   0  0  0  0  0  0  0  0  0  0  0  0
   59.2790   27.4620   45.1980 C   0  0  0  0  0  0  0  0  0  0  0  0
   58.5840   26.6480   46.3040 C   0  0  0  0  0  0  0  0  0  0  0  0
   57.7390   25.4880   45.7510 C   0  0  0  0  0  0  0  0  0  0  0  0
   56.3540   25.3220   46.4060 C   0  0  0  0  0  0  0  0  0  0  0  0
   55.4090   26.3610   46.0000 N   0  0  0  0  0  0  0  0  0  0  0  0
   55.1633   30.6546   44.5037 H   0  0  0  0  0  0  0  0  0  0  0  0
   56.3962   30.0055   43.3700 H   0  0  0  0  0  0  0  0  0  0  0  0
   54.7319   29.3297   43.3700 H   0  0  0  0  0  0  0  0  0  0  0  0
   55.9510   27.8280   44.5250 H   0  0  0  0  0  0  0  0  0  0  0  0
   57.4145   30.1179   45.6350 H   0  0  0  0  0  0  0  0  0  0  0  0
   57.4023   28.5321   46.4915 H   0  0  0  0  0  0  0  0  0  0  0  0
   57.8330   28.0184   43.6969 H   0  0  0  0  0  0  0  0  0  0  0  0
   58.9622   29.3456   44.2267 H   0  0  0  0  0  0  0  0  0  0  0  0
   59.6343   26.7691   44.4211 H   0  0  0  0  0  0  0  0  0  0  0  0
   60.1107   28.0123   45.6622 H   0  0  0  0  0  0  0  0  0  0  0  0
   59.3539   26.2343   46.9720 H   0  0  0  0  0  0  0  0  0  0  0  0
   57.9031   27.3282   46.8366 H   0  0  0  0  0  0  0  0  0  0  0  0
   57.5894   25.6576   44.6745 H   0  0  0  0  0  0  0  0  0  0  0  0
   58.2973   24.5669   45.9742 H   0  0  0  0  0  0  0  0  0  0  0  0
   55.9443   24.3423   46.1191 H   0  0  0  0  0  0  0  0  0  0  0  0
   56.4897   25.4036   47.4945 H   0  0  0  0  0  0  0  0  0  0  0  0
   55.5960   27.2290   46.5500 H   0  0  0  0  0  0  0  0  0  0  0  0
   55.5440   26.5780   44.9860 H   0  0  0  0  0  0  0  0  0  0  0  0
  1  2  1  0
  2  3  1  0
  3  4  1  0
  4  5  1  0
  5  6  1  0
  6  7  1  0
  7  8  1  0
  8  9  1  0
  1 10  1  0
  1 11  1  0
  1 12  1  0
  2 13  1  0
  3 14  1  0
  3 15  1  0
  4 16  1  0
  4 17  1  0
  5 18  1  0
  5 19  1  0
  6 20  1  0
  6 21  1  0
  7 22  1  0
  7 23  1  0
  8 24  1  0
  8 25  1  0
  9 26  1  0
  9 27  1  0
M  END
>  <UniqueID>  (65) 
53

>  <SMILES>  (65) 
CNCCCCCCN

>  <Energy>  (65) 
13.749861399011683

>  <Genealogy>  (65) 
CNCCCCCCN (3D coordinates assigned)
CNCCCCCCN (optimized conformer: 13.749861399011683 kcal/mol)

>  <smiles>  (65) 
CNCCCCCCN

>  <score_type>  (65) 
oracle

>  <origin>  (65) 
adg

>  <m_score__min__energy>  (65) 
-4.2800000000000002

>  <m_primary>  (65) 
energy

$$$$
65:0
     RDKit          3D

 47 48  0  0  1  0  0  0  0  0999 V2000
   58.0740   32.9880   43.6350 C   0  0  0  0  0  0  0  0  0  0  0  0
   58.6710   33.3660   44.9010 N   0  0  0  0  0  0  0  0  0  0  0  0
   59.5500   34.4990   44.5830 C   0  0  0  0  0  0  0  0  0  0  0  0
   57.6750   33.7750   45.8690 C   0  0  0  0  0  0  0  0  0  0  0  0
   58.2380   33.9520   47.2440 C   0  0  0  0  0  0  0  0  0  0  0  0
   59.5860   33.4350   47.3740 N   0  0  0  0  0  0  0  0  0  0  0  0
   60.2570   33.7540   48.6150 C   0  0  0  0  0  0  0  0  0  0  0  0
   59.6140   34.4420   49.4510 O   0  0  0  0  0  0  0  0  0  0  0  0
   61.6180   33.2820   48.8470 C   0  0  0  0  0  0  0  0  0  0  0  0
   62.5540   34.1900   49.2450 C   0  0  0  0  0  0  0  0  0  0  0  0
   63.8510   33.7930   49.4730 C   0  0  0  0  0  0  0  0  0  0  0  0
   64.1760   32.4470   49.2880 C   0  0  0  0  0  0  0  0  0  0  0  0
   63.2710   31.5060   48.8900 C   0  0  0  0  0  0  0  0  0  0  0  0
   61.9630   31.9570   48.6700 C   0  0  0  0  0  0  0  0  0  0  0  0
   60.8870   31.0020   48.2330 C   0  0  0  0  0  0  0  0  0  0  0  0
   60.8150   30.8780   46.8250 N   0  0  0  0  0  0  0  0  0  0  0  0
   60.0630   30.1480   46.1150 C   0  0  0  0  0  0  0  0  0  0  0  0
   58.7410   30.4480   45.8650 C   0  0  0  0  0  0  0  0  0  0  0  0
   57.9340   29.6570   45.1010 C   0  0  0  0  0  0  0  0  0  0  0  0
   56.5510   30.0220   44.8760 C   0  0  0  0  0  0  0  0  0  0  0  0
   55.5950   28.9710   44.7830 N   0  0  0  0  0  0  0  0  0  0  0  0
   56.1290   31.1900   44.7570 O   0  0  0  0  0  0  0  0  0  0  0  0
   58.4950   28.5340   44.5820 N   0  0  0  0  0  0  0  0  0  0  0  0
   59.7830   28.2600   44.8380 C   0  0  0  0  0  0  0  0  0  0  0  0
   60.5840   29.0300   45.5850 N   0  0  0  0  0  0  0  0  0  0  0  0
   57.1579   32.4080   43.8203 H   0  0  0  0  0  0  0  0  0  0  0  0
   57.8251   33.8935   43.0621 H   0  0  0  0  0  0  0  0  0  0  0  0
   58.7860   32.3758   43.0621 H   0  0  0  0  0  0  0  0  0  0  0  0
   59.9071   34.9592   45.5161 H   0  0  0  0  0  0  0  0  0  0  0  0
   60.4102   34.1426   43.9974 H   0  0  0  0  0  0  0  0  0  0  0  0
   58.9910   35.2437   43.9974 H   0  0  0  0  0  0  0  0  0  0  0  0
   57.2396   34.7309   45.5422 H   0  0  0  0  0  0  0  0  0  0  0  0
   56.9189   32.9778   45.9218 H   0  0  0  0  0  0  0  0  0  0  0  0
   58.2497   35.0257   47.4827 H   0  0  0  0  0  0  0  0  0  0  0  0
   57.5993   33.3847   47.9370 H   0  0  0  0  0  0  0  0  0  0  0  0
   60.0570   32.8690   46.6330 H   0  0  0  0  0  0  0  0  0  0  0  0
   62.2709   35.2438   49.3842 H   0  0  0  0  0  0  0  0  0  0  0  0
   64.6139   34.5178   49.7933 H   0  0  0  0  0  0  0  0  0  0  0  0
   65.2130   32.1297   49.4723 H   0  0  0  0  0  0  0  0  0  0  0  0
   63.5530   30.4520   48.7498 H   0  0  0  0  0  0  0  0  0  0  0  0
   61.0966   30.0121   48.6645 H   0  0  0  0  0  0  0  0  0  0  0  0
   59.9232   31.3990   48.5845 H   0  0  0  0  0  0  0  0  0  0  0  0
   58.3184   31.3654   46.3007 H   0  0  0  0  0  0  0  0  0  0  0  0
   54.7660   28.9710   45.4090 H   0  0  0  0  0  0  0  0  0  0  0  0
   55.7690   28.2230   44.0750 H   0  0  0  0  0  0  0  0  0  0  0  0
   60.2090   27.3425   44.4058 H   0  0  0  0  0  0  0  0  0  0  0  0
   61.5520   28.7560   45.7340 H   0  0  0  0  0  0  0  0  0  0  0  0
  1  2  1  0
  2  3  1  0
  2  4  1  0
  4  5  1  0
  5  6  1  0
  6  7  1  0
  7  8  2  0
  7  9  1  0
  9 10  2  0
 10 11  1  0
 11 12  2  0
 12 13  1  0
 13 14  2  0
 14 15  1  0
 15 16  1  0
 16 17  2  0
 17 18  1  0
 18 19  2  0
 19 20  1  0
 20 21  1  0
 20 22  2  0
 19 23  1  0
 23 24  2  0
 24 25  1  0
 14  9  1  0
 25 17  1  0
  1 26  1  0
  1 27  1  0
  1 28  1  0
  3 29  1  0
  3 30  1  0
  3 31  1  0
  4 32  1  0
  4 33  1  0
  5 34  1  0
  5 35  1  0
  6 36  1  0
 10 37  1  0
 11 38  1  0
 12 39  1  0
 13 40  1  0
 15 41  1  0
 15 42  1  0
 18 43  1  0
 21 44  1  0
 21 45  1  0
 24 46  1  0
 25 47  1  0
M  END
>  <smiles>  (66) 
CN(C)CCNC(=O)c1ccccc1CN=c1cc(C(N)=O)nc[nH]1

>  <score_type>  (66) 
oracle

>  <origin>  (66) 
adg

>  <m_score__min__energy>  (66) 
-7.3399999999999999

>  <m_primary>  (66) 
energy

$$$$
66:0
     RDKit          3D

 37 39  0  0  0  0  0  0  0  0999 V2000
   55.9380   25.3040   45.9440 C   0  0  0  0  0  0  0  0  0  0  0  0
   56.4160   26.5920   46.3140 O   0  0  0  0  0  0  0  0  0  0  0  0
   57.7230   27.0550   46.0930 C   0  0  0  0  0  0  0  0  0  0  0  0
   58.8420   26.2090   46.2360 C   0  0  0  0  0  0  0  0  0  0  0  0
   60.1300   26.6960   46.0000 C   0  0  0  0  0  0  0  0  0  0  0  0
   60.3180   28.0220   45.6180 C   0  0  0  0  0  0  0  0  0  0  0  0
   59.2190   28.8710   45.4710 C   0  0  0  0  0  0  0  0  0  0  0  0
   57.9180   28.4010   45.7130 C   0  0  0  0  0  0  0  0  0  0  0  0
   56.7430   29.3410   45.5670 C   0  0  0  0  0  0  0  0  0  0  0  0
   57.0960   30.4940   44.7270 N   0  0  0  0  0  0  0  0  0  0  0  0
   56.8940   30.6120   43.3840 C   0  0  0  0  0  0  0  0  0  0  0  0
   56.2870   29.5480   42.5170 C   0  0  0  0  0  0  0  0  0  0  0  0
   57.4030   31.8230   42.9240 C   0  0  0  0  0  0  0  0  0  0  0  0
   57.4210   32.3040   41.5660 C   0  0  0  0  0  0  0  0  0  0  0  0
   57.4350   32.6890   40.4760 N   0  0  0  0  0  0  0  0  0  0  0  0
   57.9100   32.4680   44.0310 C   0  0  0  0  0  0  0  0  0  0  0  0
   58.5390   33.7070   44.1530 C   0  0  0  0  0  0  0  0  0  0  0  0
   58.9660   34.1050   45.4300 C   0  0  0  0  0  0  0  0  0  0  0  0
   58.7600   33.2660   46.5450 C   0  0  0  0  0  0  0  0  0  0  0  0
   58.1240   32.0210   46.3940 C   0  0  0  0  0  0  0  0  0  0  0  0
   57.7070   31.6410   45.1110 C   0  0  0  0  0  0  0  0  0  0  0  0
   55.7210   24.7192   46.8501 H   0  0  0  0  0  0  0  0  0  0  0  0
   55.0197   25.4110   45.3479 H   0  0  0  0  0  0  0  0  0  0  0  0
   56.7038   24.7860   45.3479 H   0  0  0  0  0  0  0  0  0  0  0  0
   58.7000   25.1600   46.5350 H   0  0  0  0  0  0  0  0  0  0  0  0
   60.9980   26.0303   46.1162 H   0  0  0  0  0  0  0  0  0  0  0  0
   61.3337   28.4012   45.4318 H   0  0  0  0  0  0  0  0  0  0  0  0
   59.3736   29.9157   45.1633 H   0  0  0  0  0  0  0  0  0  0  0  0
   55.9047   28.8005   45.1032 H   0  0  0  0  0  0  0  0  0  0  0  0
   56.4589   29.7066   46.5648 H   0  0  0  0  0  0  0  0  0  0  0  0
   55.8418   28.7676   43.1517 H   0  0  0  0  0  0  0  0  0  0  0  0
   55.5070   29.9933   41.8819 H   0  0  0  0  0  0  0  0  0  0  0  0
   57.0673   29.1032   41.8819 H   0  0  0  0  0  0  0  0  0  0  0  0
   58.6956   34.3522   43.2760 H   0  0  0  0  0  0  0  0  0  0  0  0
   59.4641   35.0769   45.5617 H   0  0  0  0  0  0  0  0  0  0  0  0
   59.0995   33.5881   47.5405 H   0  0  0  0  0  0  0  0  0  0  0  0
   57.9582   31.3629   47.2597 H   0  0  0  0  0  0  0  0  0  0  0  0
  1  2  1  0
  2  3  1  0
  3  4  2  0
  4  5  1  0
  5  6  2  0
  6  7  1  0
  7  8  2  0
  8  9  1  0
  9 10  1  0
 10 11  1  0
 11 12  1  0
 11 13  2  0
 13 14  1  0
 14 15  3  0
 13 16  1  0
 16 17  2  0
 17 18  1  0
 18 19  2  0
 19 20  1  0
 20 21  2  0
  8  3  1  0
 21 10  1  0
 21 16  1  0
  1 22  1  0
  1 23  1  0
  1 24  1  0
  4 25  1  0
  5 26  1  0
  6 27  1  0
  7 28  1  0
  9 29  1  0
  9 30  1  0
 12 31  1  0
 12 32  1  0
 12 33  1  0
 17 34  1  0
 18 35  1  0
 19 36  1  0
 20 37  1  0
M  END
>  <UniqueID>  (67) 
54

>  <SMILES>  (67) 
COc1ccccc1Cn1c(C)c(C#N)c2ccccc21

>  <Energy>  (67) 
71.526149373983

>  <Genealogy>  (67) 
COc1ccccc1Cn1c(C)c(C#N)c2ccccc21 (3D coordinates assigned)
COc1ccccc1Cn1c(C)c(C#N)c2ccccc21 (optimized conformer: 71.526149373983 kcal/mol)

>  <smiles>  (67) 
COc1ccccc1Cn1c(C)c(C#N)c2ccccc21

>  <score_type>  (67) 
oracle

>  <origin>  (67) 
adg

>  <m_score__min__energy>  (67) 
-7.1699999999999999

>  <m_primary>  (67) 
energy

$$$$
67:0
     RDKit          3D

 22 23  0  0  0  0  0  0  0  0999 V2000
   55.1855   24.6212   46.6973 H   0  0  0  0  0  0  0  0  0  0  0  0
   55.9280   25.3740   46.3940 C   0  0  0  0  0  0  0  0  0  0  0  0
   55.5200   26.6090   45.9970 N   0  0  0  0  0  0  0  0  0  0  0  0
   56.3950   27.5750   45.6030 C   0  0  0  0  0  0  0  0  0  0  0  0
   55.9200   28.7360   45.2490 N   0  0  0  0  0  0  0  0  0  0  0  0
   56.5690   29.7450   44.4600 C   0  0  0  0  0  0  0  0  0  0  0  0
   57.4240   30.6600   45.0910 C   0  0  0  0  0  0  0  0  0  0  0  0
   57.6226   30.5700   46.1692 H   0  0  0  0  0  0  0  0  0  0  0  0
   58.0250   31.6860   44.3560 C   0  0  0  0  0  0  0  0  0  0  0  0
   58.7103   32.3888   44.8525 H   0  0  0  0  0  0  0  0  0  0  0  0
   57.7560   31.8200   42.9900 C   0  0  0  0  0  0  0  0  0  0  0  0
   58.2352   32.6230   42.4107 H   0  0  0  0  0  0  0  0  0  0  0  0
   56.8780   30.9330   42.3620 C   0  0  0  0  0  0  0  0  0  0  0  0
   56.6608   31.0430   41.2893 H   0  0  0  0  0  0  0  0  0  0  0  0
   56.2750   29.9060   43.0940 C   0  0  0  0  0  0  0  0  0  0  0  0
   55.5688   29.2221   42.6005 H   0  0  0  0  0  0  0  0  0  0  0  0
   57.7790   27.2950   45.6330 C   0  0  0  0  0  0  0  0  0  0  0  0
   58.5076   28.0655   45.3408 H   0  0  0  0  0  0  0  0  0  0  0  0
   58.2140   26.0310   46.0370 C   0  0  0  0  0  0  0  0  0  0  0  0
   59.2893   25.7999   46.0556 H   0  0  0  0  0  0  0  0  0  0  0  0
   57.2860   25.0610   46.4170 C   0  0  0  0  0  0  0  0  0  0  0  0
   57.6219   24.0617   46.7308 H   0  0  0  0  0  0  0  0  0  0  0  0
  1  2  1  0
  2  3  1  0
  3  4  1  0
  4  5  2  0
  5  6  1  0
  6  7  2  0
  7  8  1  0
  7  9  1  0
  9 10  1  0
  9 11  2  0
 11 12  1  0
 11 13  1  0
 13 14  1  0
 13 15  2  0
 15 16  1  0
  4 17  1  0
 17 18  1  0
 17 19  2  0
 19 20  1  0
 19 21  1  0
 21 22  1  0
 21  2  2  0
 15  6  1  0
M  CHG  1   3  -1
M  END
>  <UniqueID>  (68) 
55

>  <SMILES>  (68) 
c1ccc(/N=c2\cccc[n-]2)cc1

>  <Energy>  (68) 
33.09562776232138

>  <Genealogy>  (68) 
c1ccc(N=c2cccc[n-]2)cc1 (protonated)
c1ccc(/N=c2\cccc[n-]2)cc1 (cis-trans isomerization)
c1ccc(/N=c2\cccc[n-]2)cc1 (3D coordinates assigned)
c1ccc(/N=c2\cccc[n-]2)cc1 (optimized conformer: 33.09562776232138 kcal/mol)

>  <smiles>  (68) 
c1ccc(N=c2cccc[nH]2)cc1

>  <score_type>  (68) 
oracle

>  <origin>  (68) 
adg

>  <m_score__min__energy>  (68) 
-7.6699999999999999

>  <m_primary>  (68) 
energy

$$$$
68:0
     RDKit          3D

 37 39  0  0  0  0  0  0  0  0999 V2000
   59.7870   29.4530   48.8480 C   0  0  0  0  0  0  0  0  0  0  0  0
   59.0160   30.6900   48.3970 C   0  0  0  0  0  0  0  0  0  0  0  0
   58.5590   30.5480   46.9760 C   0  0  0  0  0  0  0  0  0  0  0  0
   58.0000   29.1080   46.3050 S   0  0  0  0  0  0  0  0  0  0  0  0
   57.8290   29.7030   44.7440 C   0  0  0  0  0  0  0  0  0  0  0  0
   57.3630   28.9360   43.6330 N   0  0  0  0  0  0  0  0  0  0  0  0
   58.2230   31.0360   44.7100 C   0  0  0  0  0  0  0  0  0  0  0  0
   58.1920   31.8410   43.5150 C   0  0  0  0  0  0  0  0  0  0  0  0
   58.1670   32.4880   42.5550 N   0  0  0  0  0  0  0  0  0  0  0  0
   58.6370   31.5160   45.9670 C   0  0  0  0  0  0  0  0  0  0  0  0
   59.1410   32.8870   46.1850 C   0  0  0  0  0  0  0  0  0  0  0  0
   58.4470   34.0480   45.9230 C   0  0  0  0  0  0  0  0  0  0  0  0
   56.8390   34.2120   45.2420 Cl  0  0  0  0  0  0  0  0  0  0  0  0
   59.3060   35.0690   46.2700 C   0  0  0  0  0  0  0  0  0  0  0  0
   60.4580   34.5410   46.7290 N   0  0  0  0  0  0  0  0  0  0  0  0
   60.3600   33.2200   46.6690 N   0  0  0  0  0  0  0  0  0  0  0  0
   61.3860   32.3320   47.1490 C   0  0  0  0  0  0  0  0  0  0  0  0
   61.4690   31.1600   46.6930 O   0  0  0  0  0  0  0  0  0  0  0  0
   62.3100   32.7470   48.2260 C   0  0  0  0  0  0  0  0  0  0  0  0
   63.6940   32.6150   48.0180 C   0  0  0  0  0  0  0  0  0  0  0  0
   64.5990   32.9840   49.0160 C   0  0  0  0  0  0  0  0  0  0  0  0
   64.1350   33.4990   50.2260 C   0  0  0  0  0  0  0  0  0  0  0  0
   62.7640   33.6560   50.4390 C   0  0  0  0  0  0  0  0  0  0  0  0
   61.8460   33.2900   49.4470 C   0  0  0  0  0  0  0  0  0  0  0  0
   60.1390   33.6030   49.7460 Cl  0  0  0  0  0  0  0  0  0  0  0  0
   59.8101   29.4159   49.9471 H   0  0  0  0  0  0  0  0  0  0  0  0
   59.2911   28.5506   48.4610 H   0  0  0  0  0  0  0  0  0  0  0  0
   60.8156   29.5007   48.4610 H   0  0  0  0  0  0  0  0  0  0  0  0
   58.1379   30.8233   49.0459 H   0  0  0  0  0  0  0  0  0  0  0  0
   59.6815   31.5631   48.4662 H   0  0  0  0  0  0  0  0  0  0  0  0
   57.7610   29.0980   42.6820 H   0  0  0  0  0  0  0  0  0  0  0  0
   56.6240   28.2100   43.7540 H   0  0  0  0  0  0  0  0  0  0  0  0
   59.0862   36.1435   46.1857 H   0  0  0  0  0  0  0  0  0  0  0  0
   64.0671   32.2182   47.0623 H   0  0  0  0  0  0  0  0  0  0  0  0
   65.6798   32.8681   48.8471 H   0  0  0  0  0  0  0  0  0  0  0  0
   64.8495   33.7817   51.0131 H   0  0  0  0  0  0  0  0  0  0  0  0
   62.4028   34.0698   51.3921 H   0  0  0  0  0  0  0  0  0  0  0  0
  1  2  1  0
  2  3  1  0
  3  4  1  0
  4  5  1  0
  5  6  1  0
  5  7  2  0
  7  8  1  0
  8  9  3  0
  7 10  1  0
 10 11  1  0
 11 12  2  0
 12 13  1  0
 12 14  1  0
 14 15  2  0
 15 16  1  0
 16 17  1  0
 17 18  2  0
 17 19  1  0
 19 20  2  0
 20 21  1  0
 21 22  2  0
 22 23  1  0
 23 24  2  0
 24 25  1  0
 10  3  2  0
 16 11  1  0
 24 19  1  0
  1 26  1  0
  1 27  1  0
  1 28  1  0
  2 29  1  0
  2 30  1  0
  6 31  1  0
  6 32  1  0
 14 33  1  0
 20 34  1  0
 21 35  1  0
 22 36  1  0
 23 37  1  0
M  END
>  <UniqueID>  (69) 
56

>  <SMILES>  (69) 
CCc1sc(N)c(C#N)c1-c1c(Cl)cnn1C(=O)c1ccccc1Cl

>  <Energy>  (69) 
104.31204910575605

>  <Genealogy>  (69) 
CCc1sc(N)c(C#N)c1-c1c(Cl)cnn1C(=O)c1ccccc1Cl (3D coordinates assigned)
CCc1sc(N)c(C#N)c1-c1c(Cl)cnn1C(=O)c1ccccc1Cl (optimized conformer: 104.31204910575605 kcal/mol)

>  <smiles>  (69) 
CCc1sc(N)c(C#N)c1-c1c(Cl)cnn1C(=O)c1ccccc1Cl

>  <score_type>  (69) 
oracle

>  <origin>  (69) 
adg

>  <m_score__min__energy>  (69) 
-7.8899999999999997

>  <m_primary>  (69) 
energy

$$$$
69:0
     RDKit          3D

 40 41  0  0  0  0  0  0  0  0999 V2000
   61.1550   34.1950   48.5020 C   0  0  0  0  0  0  0  0  0  0  0  0
   60.4430   34.6840   47.3700 O   0  0  0  0  0  0  0  0  0  0  0  0
   59.4370   33.9730   46.6990 C   0  0  0  0  0  0  0  0  0  0  0  0
   58.7290   34.5130   45.6080 C   0  0  0  0  0  0  0  0  0  0  0  0
   57.7340   33.7640   44.9720 C   0  0  0  0  0  0  0  0  0  0  0  0
   57.4320   32.4620   45.4130 C   0  0  0  0  0  0  0  0  0  0  0  0
   56.4430   31.6630   44.8140 O   0  0  0  0  0  0  0  0  0  0  0  0
   56.6440   30.7820   43.7080 C   0  0  0  0  0  0  0  0  0  0  0  0
   55.5510   29.7160   43.6610 C   0  0  0  0  0  0  0  0  0  0  0  0
   55.5800   28.9720   44.8620 O   0  0  0  0  0  0  0  0  0  0  0  0
   56.9070   28.8520   45.3400 C   0  0  0  0  0  0  0  0  0  0  0  0
   57.5170   27.5290   44.8750 C   0  0  0  0  0  0  0  0  0  0  0  0
   57.1240   26.4450   45.7740 N   0  0  0  0  0  0  0  0  0  0  0  0
   55.9480   25.7860   45.7650 C   0  0  0  0  0  0  0  0  0  0  0  0
   55.8560   24.8750   46.7570 N   0  0  0  0  0  0  0  0  0  0  0  0
   57.0270   24.9770   47.4200 C   0  0  0  0  0  0  0  0  0  0  0  0
   57.8020   25.9490   46.8260 C   0  0  0  0  0  0  0  0  0  0  0  0
   59.1760   26.3640   47.2500 C   0  0  0  0  0  0  0  0  0  0  0  0
   58.1360   31.9330   46.5010 C   0  0  0  0  0  0  0  0  0  0  0  0
   59.1310   32.6810   47.1360 C   0  0  0  0  0  0  0  0  0  0  0  0
   60.6587   34.5359   49.4226 H   0  0  0  0  0  0  0  0  0  0  0  0
   61.1697   33.0953   48.4789 H   0  0  0  0  0  0  0  0  0  0  0  0
   62.1866   34.5760   48.4789 H   0  0  0  0  0  0  0  0  0  0  0  0
   58.9597   35.5288   45.2544 H   0  0  0  0  0  0  0  0  0  0  0  0
   57.1842   34.1949   44.1222 H   0  0  0  0  0  0  0  0  0  0  0  0
   56.6216   31.3635   42.7745 H   0  0  0  0  0  0  0  0  0  0  0  0
   57.6182   30.2846   43.8247 H   0  0  0  0  0  0  0  0  0  0  0  0
   54.5692   30.1995   43.5507 H   0  0  0  0  0  0  0  0  0  0  0  0
   55.7226   29.0462   42.8055 H   0  0  0  0  0  0  0  0  0  0  0  0
   57.5099   29.6864   44.9524 H   0  0  0  0  0  0  0  0  0  0  0  0
   56.8965   28.8761   46.4397 H   0  0  0  0  0  0  0  0  0  0  0  0
   57.1627   27.3036   43.8583 H   0  0  0  0  0  0  0  0  0  0  0  0
   58.6133   27.6189   44.8809 H   0  0  0  0  0  0  0  0  0  0  0  0
   55.1507   25.9704   45.0299 H   0  0  0  0  0  0  0  0  0  0  0  0
   57.3169   24.3786   48.2963 H   0  0  0  0  0  0  0  0  0  0  0  0
   59.2314   26.3807   48.3485 H   0  0  0  0  0  0  0  0  0  0  0  0
   59.9129   25.6484   46.8566 H   0  0  0  0  0  0  0  0  0  0  0  0
   59.3936   27.3679   46.8566 H   0  0  0  0  0  0  0  0  0  0  0  0
   57.9039   30.9193   46.8594 H   0  0  0  0  0  0  0  0  0  0  0  0
   59.6781   32.2494   47.9871 H   0  0  0  0  0  0  0  0  0  0  0  0
  1  2  1  0
  2  3  1  0
  3  4  2  0
  4  5  1  0
  5  6  2  0
  6  7  1  0
  7  8  1  0
  8  9  1  0
  9 10  1  0
 10 11  1  0
 11 12  1  0
 12 13  1  0
 13 14  1  0
 14 15  2  0
 15 16  1  0
 16 17  2  0
 17 18  1  0
  6 19  1  0
 19 20  2  0
 20  3  1  0
 17 13  1  0
  1 21  1  0
  1 22  1  0
  1 23  1  0
  4 24  1  0
  5 25  1  0
  8 26  1  0
  8 27  1  0
  9 28  1  0
  9 29  1  0
 11 30  1  0
 11 31  1  0
 12 32  1  0
 12 33  1  0
 14 34  1  0
 16 35  1  0
 18 36  1  0
 18 37  1  0
 18 38  1  0
 19 39  1  0
 20 40  1  0
M  END
>  <UniqueID>  (70) 
57

>  <SMILES>  (70) 
COc1ccc(OCCOCCn2cncc2C)cc1

>  <Energy>  (70) 
65.34618777456839

>  <Genealogy>  (70) 
COc1ccc(OCCOCCn2cncc2C)cc1 (3D coordinates assigned)
COc1ccc(OCCOCCn2cncc2C)cc1 (optimized conformer: 65.34618777456839 kcal/mol)

>  <smiles>  (70) 
COc1ccc(OCCOCCn2cncc2C)cc1

>  <score_type>  (70) 
oracle

>  <origin>  (70) 
adg

>  <m_score__min__energy>  (70) 
-6.21

>  <m_primary>  (70) 
energy

$$$$
70:0
     RDKit          3D

 36 39  0  0  0  0  0  0  0  0999 V2000
   58.5020   33.1270   45.9810 C   0  0  0  0  0  0  0  0  0  0  0  0
   57.7560   31.9040   45.5590 C   0  0  0  0  0  0  0  0  0  0  0  0
   56.6000   31.9240   44.8620 N   0  0  0  0  0  0  0  0  0  0  0  0
   56.2380   30.6610   44.6660 N   0  0  0  0  0  0  0  0  0  0  0  0
   57.1790   29.8990   45.2540 C   0  0  0  0  0  0  0  0  0  0  0  0
   58.1540   30.6430   45.7980 N   0  0  0  0  0  0  0  0  0  0  0  0
   59.2890   30.1250   46.5640 C   0  0  0  0  0  0  0  0  0  0  0  0
   59.4470   28.6110   46.2770 C   0  0  2  0  0  0  0  0  0  0  0  0
   60.0880   28.3880   44.8700 C   0  0  0  0  0  0  0  0  0  0  0  0
   59.2620   27.4800   43.9480 C   0  0  0  0  0  0  0  0  0  0  0  0
   57.7730   27.8700   43.9050 C   0  0  0  0  0  0  0  0  0  0  0  0
   57.2320   28.3960   45.2610 C   0  0  1  0  0  0  0  0  0  0  0  0
   58.1000   27.9940   46.3920 N   0  0  0  0  0  0  0  0  0  0  0  0
   58.1040   26.5480   46.6950 C   0  0  0  0  0  0  0  0  0  0  0  0
   56.8400   25.9440   46.1840 C   0  0  0  0  0  0  0  0  0  0  0  0
   56.7310   24.8050   45.4140 C   0  0  0  0  0  0  0  0  0  0  0  0
   55.3710   24.6560   45.2440 C   0  0  0  0  0  0  0  0  0  0  0  0
   54.7280   25.6510   45.8850 N   0  0  0  0  0  0  0  0  0  0  0  0
   55.6380   26.4010   46.4390 O   0  0  0  0  0  0  0  0  0  0  0  0
   58.5325   33.1771   47.0794 H   0  0  0  0  0  0  0  0  0  0  0  0
   59.5282   33.0847   45.5872 H   0  0  0  0  0  0  0  0  0  0  0  0
   57.9947   34.0201   45.5872 H   0  0  0  0  0  0  0  0  0  0  0  0
   60.2063   30.6539   46.2660 H   0  0  0  0  0  0  0  0  0  0  0  0
   59.1127   30.2816   47.6384 H   0  0  0  0  0  0  0  0  0  0  0  0
   60.1253   28.1353   47.0006 H   0  0  0  0  0  0  0  0  0  0  0  0
   60.2009   29.3671   44.3815 H   0  0  0  0  0  0  0  0  0  0  0  0
   61.0523   27.8847   45.0341 H   0  0  0  0  0  0  0  0  0  0  0  0
   59.6724   27.5465   42.9296 H   0  0  0  0  0  0  0  0  0  0  0  0
   59.3252   26.4569   44.3472 H   0  0  0  0  0  0  0  0  0  0  0  0
   57.6409   28.6574   43.1483 H   0  0  0  0  0  0  0  0  0  0  0  0
   57.2066   26.9589   43.6619 H   0  0  0  0  0  0  0  0  0  0  0  0
   56.2293   27.9623   45.3892 H   0  0  0  0  0  0  0  0  0  0  0  0
   58.9657   26.0705   46.2055 H   0  0  0  0  0  0  0  0  0  0  0  0
   58.1774   26.3951   47.7819 H   0  0  0  0  0  0  0  0  0  0  0  0
   57.5385   24.1662   45.0269 H   0  0  0  0  0  0  0  0  0  0  0  0
   54.8864   23.8499   44.6736 H   0  0  0  0  0  0  0  0  0  0  0  0
  1  2  1  0
  2  3  2  0
  3  4  1  0
  4  5  2  0
  5  6  1  0
  6  7  1  0
  7  8  1  0
  8  9  1  0
  9 10  1  0
 10 11  1  0
 11 12  1  0
 12 13  1  0
 13 14  1  0
 14 15  1  0
 15 16  2  0
 16 17  1  0
 17 18  2  0
 18 19  1  0
  6  2  1  0
 13  8  1  0
 19 15  1  0
 12  5  1  0
  1 20  1  0
  1 21  1  0
  1 22  1  0
  7 23  1  0
  7 24  1  0
  8 25  1  1
  9 26  1  0
  9 27  1  0
 10 28  1  0
 10 29  1  0
 11 30  1  0
 11 31  1  0
 12 32  1  1
 14 33  1  0
 14 34  1  0
 16 35  1  0
 17 36  1  0
M  END
>  <UniqueID>  (71) 
58

>  <SMILES>  (71) 
Cc1nnc2n1C[C@@H]1CCC[C@H]2N1Cc1ccno1

>  <Energy>  (71) 
118.15182429715621

>  <Genealogy>  (71) 
Cc1nnc2n1C[C@@H]1CCC[C@H]2N1Cc1ccno1 (chirality)
Cc1nnc2n1C[C@@H]1CCC[C@H]2N1Cc1ccno1 (3D coordinates assigned)
Cc1nnc2n1C[C@@H]1CCC[C@H]2N1Cc1ccno1 (nonaromatic ring conformer: 118.15182429715621 kcal/mol)

>  <smiles>  (71) 
Cc1nnc2n1CC1CCCC2N1Cc1ccno1

>  <score_type>  (71) 
oracle

>  <origin>  (71) 
adg

>  <m_score__min__energy>  (71) 
-8.0099999999999998

>  <m_primary>  (71) 
energy

$$$$
71:0
     RDKit          3D

 39 42  0  0  0  0  0  0  0  0999 V2000
   56.4160   29.1920   44.7460 C   0  0  0  0  0  0  0  0  0  0  0  0
   56.9300   30.4590   44.2180 N   0  0  0  0  0  0  0  0  0  0  0  0
   56.6260   30.8560   42.8450 C   0  0  0  0  0  0  0  0  0  0  0  0
   57.8090   31.6120   42.2660 C   0  0  0  0  0  0  0  0  0  0  0  0
   58.1210   32.8320   43.1350 C   0  0  0  0  0  0  0  0  0  0  0  0
   58.2360   32.5060   44.5740 N   0  0  0  0  0  0  0  0  0  0  0  0
   57.6790   31.3500   45.0720 C   0  0  0  0  0  0  0  0  0  0  0  0
   57.8410   31.0250   46.3800 N   0  0  0  0  0  0  0  0  0  0  0  0
   58.5180   31.8190   47.2380 C   0  0  0  0  0  0  0  0  0  0  0  0
   58.6650   31.4510   48.4340 O   0  0  0  0  0  0  0  0  0  0  0  0
   59.0390   33.0400   46.7940 C   0  0  0  0  0  0  0  0  0  0  0  0
   58.8550   33.3900   45.4360 C   0  0  0  0  0  0  0  0  0  0  0  0
   59.2810   34.6950   44.9890 N   0  0  0  0  0  0  0  0  0  0  0  0
   59.7680   35.6590   45.9210 C   0  0  0  0  0  0  0  0  0  0  0  0
   60.0170   36.8350   45.5470 O   0  0  0  0  0  0  0  0  0  0  0  0
   59.9420   35.2960   47.2860 N   0  0  0  0  0  0  0  0  0  0  0  0
   59.8550   33.9110   47.7390 C   0  0  2  0  0  0  0  0  0  0  0  0
   61.2480   33.3430   47.9090 C   0  0  0  0  0  0  0  0  0  0  0  0
   61.5570   32.5480   49.0270 C   0  0  0  0  0  0  0  0  0  0  0  0
   62.8400   32.0160   49.1830 C   0  0  0  0  0  0  0  0  0  0  0  0
   63.8260   32.2710   48.2280 C   0  0  0  0  0  0  0  0  0  0  0  0
   63.5310   33.0580   47.1130 C   0  0  0  0  0  0  0  0  0  0  0  0
   62.2490   33.5940   46.9510 C   0  0  0  0  0  0  0  0  0  0  0  0
   56.4279   29.2212   45.8455 H   0  0  0  0  0  0  0  0  0  0  0  0
   55.3849   29.0396   44.3944 H   0  0  0  0  0  0  0  0  0  0  0  0
   57.0495   28.3643   44.3944 H   0  0  0  0  0  0  0  0  0  0  0  0
   56.4306   29.9595   42.2383 H   0  0  0  0  0  0  0  0  0  0  0  0
   55.7365   31.5031   42.8375 H   0  0  0  0  0  0  0  0  0  0  0  0
   58.6869   30.9498   42.2377 H   0  0  0  0  0  0  0  0  0  0  0  0
   57.5629   31.9456   41.2471 H   0  0  0  0  0  0  0  0  0  0  0  0
   59.0730   33.2678   42.7977 H   0  0  0  0  0  0  0  0  0  0  0  0
   57.2833   33.5363   43.0243 H   0  0  0  0  0  0  0  0  0  0  0  0
   59.1280   35.0220   44.0110 H   0  0  0  0  0  0  0  0  0  0  0  0
   59.3309   33.9093   48.7061 H   0  0  0  0  0  0  0  0  0  0  0  0
   60.7846   32.3437   49.7831 H   0  0  0  0  0  0  0  0  0  0  0  0
   63.0735   31.3949   50.0603 H   0  0  0  0  0  0  0  0  0  0  0  0
   64.8352   31.8519   48.3540 H   0  0  0  0  0  0  0  0  0  0  0  0
   64.3082   33.2569   46.3604 H   0  0  0  0  0  0  0  0  0  0  0  0
   62.0219   34.2143   46.0714 H   0  0  0  0  0  0  0  0  0  0  0  0
  1  2  1  0
  2  3  1  0
  3  4  1  0
  4  5  1  0
  5  6  1  0
  6  7  1  0
  7  8  2  0
  8  9  1  0
  9 10  2  0
  9 11  1  0
 11 12  2  0
 12 13  1  0
 13 14  1  0
 14 15  2  0
 14 16  1  0
 16 17  1  0
 17 18  1  0
 18 19  2  0
 19 20  1  0
 20 21  2  0
 21 22  1  0
 22 23  2  0
  7  2  1  0
 17 11  1  0
 23 18  1  0
 12  6  1  0
  1 24  1  0
  1 25  1  0
  1 26  1  0
  3 27  1  0
  3 28  1  0
  4 29  1  0
  4 30  1  0
  5 31  1  0
  5 32  1  0
 13 33  1  0
 17 34  1  1
 19 35  1  0
 20 36  1  0
 21 37  1  0
 22 38  1  0
 23 39  1  0
M  CHG  1  16  -1
M  END
>  <UniqueID>  (72) 
59

>  <SMILES>  (72) 
CN1CCCn2c1nc(=O)c1c2NC(=O)[N-][C@@H]1c1ccccc1

>  <Energy>  (72) 
48.142496145323996

>  <Genealogy>  (72) 
CN1CCCn2c1nc(=O)c1c2NC(=O)[N-]C1c1ccccc1 (protonated)
CN1CCCn2c1nc(=O)c1c2NC(=O)[N-][C@@H]1c1ccccc1 (chirality)
CN1CCCn2c1nc(=O)c1c2NC(=O)[N-][C@@H]1c1ccccc1 (3D coordinates assigned)
CN1CCCn2c1nc(=O)c1c2NC(=O)[N-][C@@H]1c1ccccc1 (nonaromatic ring conformer: 48.142496145323996 kcal/mol)

>  <smiles>  (72) 
CN1CCCn2c1nc(=O)c1c2NC(=O)NC1c1ccccc1

>  <score_type>  (72) 
oracle

>  <origin>  (72) 
adg

>  <m_score__min__energy>  (72) 
-8.3699999999999992

>  <m_primary>  (72) 
energy

$$$$
72:0
     RDKit          3D

 47 49  0  0  0  0  0  0  0  0999 V2000
   62.9510   34.1820   50.1850 C   0  0  0  0  0  0  0  0  0  0  0  0
   61.8970   34.6380   49.3430 O   0  0  0  0  0  0  0  0  0  0  0  0
   61.0860   33.7990   48.5650 C   0  0  0  0  0  0  0  0  0  0  0  0
   59.7020   34.0150   48.4120 C   0  0  0  0  0  0  0  0  0  0  0  0
   58.9380   33.1500   47.6240 C   0  0  0  0  0  0  0  0  0  0  0  0
   59.5400   32.0600   46.9840 C   0  0  0  0  0  0  0  0  0  0  0  0
   58.5630   30.9890   45.9750 S   0  0  0  0  0  0  0  0  0  0  0  0
   59.4430   30.3330   44.9470 O   0  0  0  0  0  0  0  0  0  0  0  0
   58.0100   29.9260   46.8790 O   0  0  0  0  0  0  0  0  0  0  0  0
   57.2360   31.8540   45.2020 N   0  0  0  0  0  0  0  0  0  0  0  0
   57.7420   33.0460   44.5070 C   0  0  0  0  0  0  0  0  0  0  0  0
   58.1320   32.6290   43.0930 C   0  0  0  0  0  0  0  0  0  0  0  0
   57.4040   31.3190   42.8470 C   0  0  0  0  0  0  0  0  0  0  0  0
   56.5830   31.0930   44.1180 C   0  0  1  0  0  0  0  0  0  0  0  0
   56.2790   29.6430   44.4250 C   0  0  0  0  0  0  0  0  0  0  0  0
   55.1470   29.3200   44.8760 O   0  0  0  0  0  0  0  0  0  0  0  0
   57.3370   28.6790   44.3870 N   0  0  0  0  0  0  0  0  0  0  0  0
   57.4560   27.5290   45.2390 C   0  0  0  0  0  0  0  0  0  0  0  0
   56.2700   26.8920   45.6330 C   0  0  0  0  0  0  0  0  0  0  0  0
   56.3060   25.7580   46.4450 C   0  0  0  0  0  0  0  0  0  0  0  0
   57.5290   25.2520   46.8840 C   0  0  0  0  0  0  0  0  0  0  0  0
   58.7170   25.8930   46.5310 C   0  0  0  0  0  0  0  0  0  0  0  0
   58.7000   27.0490   45.7310 C   0  0  0  0  0  0  0  0  0  0  0  0
   60.0120   27.7270   45.4450 C   0  0  0  0  0  0  0  0  0  0  0  0
   60.9170   31.8450   47.1300 C   0  0  0  0  0  0  0  0  0  0  0  0
   61.6820   32.7100   47.9180 C   0  0  0  0  0  0  0  0  0  0  0  0
   62.6596   34.3081   51.2382 H   0  0  0  0  0  0  0  0  0  0  0  0
   63.1472   33.1185   49.9836 H   0  0  0  0  0  0  0  0  0  0  0  0
   63.8604   34.7671   49.9836 H   0  0  0  0  0  0  0  0  0  0  0  0
   59.2214   34.8673   48.9145 H   0  0  0  0  0  0  0  0  0  0  0  0
   57.8587   33.3263   47.5060 H   0  0  0  0  0  0  0  0  0  0  0  0
   56.9585   33.8171   44.4673 H   0  0  0  0  0  0  0  0  0  0  0  0
   58.6104   33.4619   45.0389 H   0  0  0  0  0  0  0  0  0  0  0  0
   57.8132   33.3896   42.3651 H   0  0  0  0  0  0  0  0  0  0  0  0
   59.2211   32.5202   42.9829 H   0  0  0  0  0  0  0  0  0  0  0  0
   56.7468   31.3983   41.9685 H   0  0  0  0  0  0  0  0  0  0  0  0
   58.0952   30.4882   42.6421 H   0  0  0  0  0  0  0  0  0  0  0  0
   55.5629   31.4802   43.9787 H   0  0  0  0  0  0  0  0  0  0  0  0
   55.3011   27.2908   45.2982 H   0  0  0  0  0  0  0  0  0  0  0  0
   55.3689   25.2627   46.7391 H   0  0  0  0  0  0  0  0  0  0  0  0
   57.5572   24.3471   47.5088 H   0  0  0  0  0  0  0  0  0  0  0  0
   59.6779   25.4893   46.8827 H   0  0  0  0  0  0  0  0  0  0  0  0
   60.5070   27.9828   46.3935 H   0  0  0  0  0  0  0  0  0  0  0  0
   60.6565   27.0491   44.8662 H   0  0  0  0  0  0  0  0  0  0  0  0
   59.8319   28.6449   44.8662 H   0  0  0  0  0  0  0  0  0  0  0  0
   61.3967   30.9943   46.6238 H   0  0  0  0  0  0  0  0  0  0  0  0
   62.7619   32.5333   48.0306 H   0  0  0  0  0  0  0  0  0  0  0  0
  1  2  1  0
  2  3  1  0
  3  4  2  0
  4  5  1  0
  5  6  2  0
  6  7  1  0
  7  8  2  0
  7  9  2  0
  7 10  1  0
 10 11  1  0
 11 12  1  0
 12 13  1  0
 13 14  1  0
 14 15  1  0
 15 16  2  0
 15 17  1  0
 17 18  1  0
 18 19  2  0
 19 20  1  0
 20 21  2  0
 21 22  1  0
 22 23  2  0
 23 24  1  0
  6 25  1  0
 25 26  2  0
 26  3  1  0
 14 10  1  0
 23 18  1  0
  1 27  1  0
  1 28  1  0
  1 29  1  0
  4 30  1  0
  5 31  1  0
 11 32  1  0
 11 33  1  0
 12 34  1  0
 12 35  1  0
 13 36  1  0
 13 37  1  0
 14 38  1  6
 19 39  1  0
 20 40  1  0
 21 41  1  0
 22 42  1  0
 24 43  1  0
 24 44  1  0
 24 45  1  0
 25 46  1  0
 26 47  1  0
M  CHG  1  17  -1
M  END
>  <UniqueID>  (73) 
60

>  <SMILES>  (73) 
COc1ccc(S(=O)(=O)N2CCC[C@H]2C(=O)[N-]c2ccccc2C)cc1

>  <Energy>  (73) 
63.46776699207638

>  <Genealogy>  (73) 
COc1ccc(S(=O)(=O)N2CCCC2C(=O)[N-]c2ccccc2C)cc1 (protonated)
COc1ccc(S(=O)(=O)N2CCC[C@H]2C(=O)[N-]c2ccccc2C)cc1 (chirality)
COc1ccc(S(=O)(=O)N2CCC[C@H]2C(=O)[N-]c2ccccc2C)cc1 (3D coordinates assigned)
COc1ccc(S(=O)(=O)N2CCC[C@H]2C(=O)[N-]c2ccccc2C)cc1 (nonaromatic ring conformer: 63.46776699207638 kcal/mol)

>  <smiles>  (73) 
COc1ccc(S(=O)(=O)N2CCCC2C(=O)Nc2ccccc2C)cc1

>  <score_type>  (73) 
oracle

>  <origin>  (73) 
adg

>  <m_score__min__energy>  (73) 
-9.6099999999999994

>  <m_primary>  (73) 
energy

$$$$
73:0
     RDKit          3D

 43 45  0  0  0  0  0  0  0  0999 V2000
   57.3970   32.3090   42.1010 C   0  0  0  0  0  0  0  0  0  0  0  0
   57.7850   31.2280   43.0190 N   0  0  0  0  0  0  0  0  0  0  0  0
   56.9480   30.0290   42.7830 C   0  0  0  0  0  0  0  0  0  0  0  0
   56.9920   29.0190   43.9530 C   0  0  0  0  0  0  0  0  0  0  0  0
   58.1120   29.2860   44.8630 N   0  0  0  0  0  0  0  0  0  0  0  0
   58.7330   28.1930   45.5570 C   0  0  0  0  0  0  0  0  0  0  0  0
   60.1300   28.1600   45.6940 C   0  0  0  0  0  0  0  0  0  0  0  0
   60.7480   27.1000   46.3580 C   0  0  0  0  0  0  0  0  0  0  0  0
   59.9780   26.0710   46.9020 C   0  0  0  0  0  0  0  0  0  0  0  0
   58.5860   26.0970   46.7790 C   0  0  0  0  0  0  0  0  0  0  0  0
   57.9530   27.1490   46.0910 C   0  0  0  0  0  0  0  0  0  0  0  0
   56.5210   27.2260   46.0050 N   0  0  0  0  0  0  0  0  0  0  0  0
   55.6120   26.1280   46.1210 C   0  0  0  0  0  0  0  0  0  0  0  0
   54.3820   26.3360   45.9510 O   0  0  0  0  0  0  0  0  0  0  0  0
   56.1050   24.7960   46.3170 N   0  0  0  0  0  0  0  0  0  0  0  0
   56.5070   23.8740   45.2950 C   0  0  0  0  0  0  0  0  0  0  0  0
   55.8530   23.8040   44.0500 C   0  0  0  0  0  0  0  0  0  0  0  0
   56.2620   22.8730   43.0910 C   0  0  0  0  0  0  0  0  0  0  0  0
   57.3150   21.9960   43.3680 C   0  0  0  0  0  0  0  0  0  0  0  0
   57.9530   22.0450   44.6100 C   0  0  0  0  0  0  0  0  0  0  0  0
   57.5450   22.9740   45.5720 C   0  0  0  0  0  0  0  0  0  0  0  0
   58.3880   30.6570   45.3120 C   0  0  0  0  0  0  0  0  0  0  0  0
   57.6840   31.6780   44.4170 C   0  0  0  0  0  0  0  0  0  0  0  0
   57.0815   33.1880   42.6822 H   0  0  0  0  0  0  0  0  0  0  0  0
   58.2550   32.5773   41.4670 H   0  0  0  0  0  0  0  0  0  0  0  0
   56.5643   31.9704   41.4670 H   0  0  0  0  0  0  0  0  0  0  0  0
   55.9065   30.3520   42.6383 H   0  0  0  0  0  0  0  0  0  0  0  0
   57.3483   29.5192   41.8942 H   0  0  0  0  0  0  0  0  0  0  0  0
   56.0505   29.0874   44.5178 H   0  0  0  0  0  0  0  0  0  0  0  0
   57.1279   28.0126   43.5304 H   0  0  0  0  0  0  0  0  0  0  0  0
   60.7403   28.9740   45.2757 H   0  0  0  0  0  0  0  0  0  0  0  0
   61.8436   27.0753   46.4529 H   0  0  0  0  0  0  0  0  0  0  0  0
   60.4674   25.2382   47.4284 H   0  0  0  0  0  0  0  0  0  0  0  0
   57.9823   25.2913   47.2221 H   0  0  0  0  0  0  0  0  0  0  0  0
   55.0170   24.4846   43.8313 H   0  0  0  0  0  0  0  0  0  0  0  0
   55.7542   22.8302   42.1161 H   0  0  0  0  0  0  0  0  0  0  0  0
   57.6405   21.2688   42.6096 H   0  0  0  0  0  0  0  0  0  0  0  0
   58.7777   21.3515   44.8314 H   0  0  0  0  0  0  0  0  0  0  0  0
   58.0421   22.9986   46.5530 H   0  0  0  0  0  0  0  0  0  0  0  0
   58.0296   30.7764   46.3451 H   0  0  0  0  0  0  0  0  0  0  0  0
   59.4726   30.8322   45.2582 H   0  0  0  0  0  0  0  0  0  0  0  0
   56.6253   31.7556   44.7055 H   0  0  0  0  0  0  0  0  0  0  0  0
   58.1577   32.6645   44.5287 H   0  0  0  0  0  0  0  0  0  0  0  0
  1  2  1  0
  2  3  1  0
  3  4  1  0
  4  5  1  0
  5  6  1  0
  6  7  2  0
  7  8  1  0
  8  9  2  0
  9 10  1  0
 10 11  2  0
 11 12  1  0
 12 13  1  0
 13 14  2  0
 13 15  1  0
 15 16  1  0
 16 17  2  0
 17 18  1  0
 18 19  2  0
 19 20  1  0
 20 21  2  0
  5 22  1  0
 22 23  1  0
 23  2  1  0
 11  6  1  0
 21 16  1  0
  1 24  1  0
  1 25  1  0
  1 26  1  0
  3 27  1  0
  3 28  1  0
  4 29  1  0
  4 30  1  0
  7 31  1  0
  8 32  1  0
  9 33  1  0
 10 34  1  0
 17 35  1  0
 18 36  1  0
 19 37  1  0
 20 38  1  0
 21 39  1  0
 22 40  1  0
 22 41  1  0
 23 42  1  0
 23 43  1  0
M  CHG  2  12  -1  15  -1
M  END
>  <UniqueID>  (74) 
61

>  <SMILES>  (74) 
CN1CCN(c2ccccc2[N-]C(=O)[N-]c2ccccc2)CC1

>  <Energy>  (74) 
60.711883933933564

>  <Genealogy>  (74) 
CN1CCN(c2ccccc2[N-]C(=O)[N-]c2ccccc2)CC1 (protonated)
CN1CCN(c2ccccc2[N-]C(=O)[N-]c2ccccc2)CC1 (3D coordinates assigned)
CN1CCN(c2ccccc2[N-]C(=O)[N-]c2ccccc2)CC1 (nonaromatic ring conformer: 60.711883933933564 kcal/mol)

>  <smiles>  (74) 
CN1CCN(c2ccccc2NC(=O)Nc2ccccc2)CC1

>  <score_type>  (74) 
oracle

>  <origin>  (74) 
adg

>  <m_score__min__energy>  (74) 
-10.710000000000001

>  <m_primary>  (74) 
energy

$$$$
74:0
     RDKit          3D

 31 34  0  0  0  0  0  0  0  0999 V2000
   57.8676   32.8791   44.7131 H   0  0  0  0  0  0  0  0  0  0  0  0
   57.8370   31.8510   45.1030 C   0  0  0  0  0  0  0  0  0  0  0  0
   56.8370   30.9830   44.7940 N   0  0  0  0  0  0  0  0  0  0  0  0
   57.0130   29.7800   45.3880 C   0  0  0  0  0  0  0  0  0  0  0  0
   56.1230   28.6660   45.2480 N   0  0  0  0  0  0  0  0  0  0  0  0
   56.4190   27.4210   45.4750 C   0  0  0  0  0  0  0  0  0  0  0  0
   55.5520   26.5150   45.9920 N   0  0  0  0  0  0  0  0  0  0  0  0
   56.1450   25.3010   46.1130 C   0  0  0  0  0  0  0  0  0  0  0  0
   55.5150   24.1610   46.6140 C   0  0  0  0  0  0  0  0  0  0  0  0
   54.4669   24.1998   46.9455 H   0  0  0  0  0  0  0  0  0  0  0  0
   56.2460   22.9610   46.6870 C   0  0  0  0  0  0  0  0  0  0  0  0
   55.4130   21.3830   47.3680 Br  0  0  0  0  0  0  0  0  0  0  0  0
   57.5900   22.9170   46.2600 C   0  0  0  0  0  0  0  0  0  0  0  0
   58.1526   21.9736   46.3200 H   0  0  0  0  0  0  0  0  0  0  0  0
   58.2130   24.0710   45.7590 C   0  0  0  0  0  0  0  0  0  0  0  0
   59.2607   24.0481   45.4248 H   0  0  0  0  0  0  0  0  0  0  0  0
   57.4670   25.2460   45.6970 C   0  0  0  0  0  0  0  0  0  0  0  0
   57.9420   26.7610   45.1500 S   0  0  0  0  0  0  0  0  0  0  0  0
   58.4080   29.7450   46.3180 S   0  0  0  0  0  0  0  0  0  0  0  0
   58.8240   31.3410   45.9530 C   0  0  0  0  0  0  0  0  0  0  0  0
   60.0250   32.0560   46.4580 C   0  0  0  0  0  0  0  0  0  0  0  0
   60.1160   33.4580   46.3490 C   0  0  0  0  0  0  0  0  0  0  0  0
   59.2928   34.0229   45.8871 H   0  0  0  0  0  0  0  0  0  0  0  0
   61.2420   34.1380   46.8220 C   0  0  0  0  0  0  0  0  0  0  0  0
   61.3015   35.2325   46.7299 H   0  0  0  0  0  0  0  0  0  0  0  0
   62.2910   33.4300   47.4110 C   0  0  0  0  0  0  0  0  0  0  0  0
   63.1772   33.9662   47.7812 H   0  0  0  0  0  0  0  0  0  0  0  0
   62.2150   32.0420   47.5300 C   0  0  0  0  0  0  0  0  0  0  0  0
   63.0416   31.4852   47.9956 H   0  0  0  0  0  0  0  0  0  0  0  0
   61.0910   31.3570   47.0590 C   0  0  0  0  0  0  0  0  0  0  0  0
   61.0382   30.2628   47.1584 H   0  0  0  0  0  0  0  0  0  0  0  0
  1  2  1  0
  2  3  1  0
  3  4  2  0
  4  5  1  0
  5  6  2  0
  6  7  1  0
  7  8  1  0
  8  9  2  0
  9 10  1  0
  9 11  1  0
 11 12  1  0
 11 13  2  0
 13 14  1  0
 13 15  1  0
 15 16  1  0
 15 17  2  0
 17 18  1  0
  4 19  1  0
 19 20  1  0
 20 21  1  0
 21 22  2  0
 22 23  1  0
 22 24  1  0
 24 25  1  0
 24 26  2  0
 26 27  1  0
 26 28  1  0
 28 29  1  0
 28 30  2  0
 30 31  1  0
 20  2  2  0
 30 21  1  0
 18  6  1  0
 17  8  1  0
M  CHG  1   7  -1
M  END
>  <UniqueID>  (75) 
62

>  <SMILES>  (75) 
Brc1ccc2s/c(=N/c3ncc(-c4ccccc4)s3)[n-]c2c1

>  <Energy>  (75) 
104.81305725719496

>  <Genealogy>  (75) 
Brc1ccc2sc(=Nc3ncc(-c4ccccc4)s3)[n-]c2c1 (protonated)
Brc1ccc2s/c(=N/c3ncc(-c4ccccc4)s3)[n-]c2c1 (cis-trans isomerization)
Brc1ccc2s/c(=N/c3ncc(-c4ccccc4)s3)[n-]c2c1 (3D coordinates assigned)
Brc1ccc2s/c(=N/c3ncc(-c4ccccc4)s3)[n-]c2c1 (optimized conformer: 104.81305725719496 kcal/mol)

>  <smiles>  (75) 
Brc1ccc2sc(=Nc3ncc(-c4ccccc4)s3)[nH]c2c1

>  <score_type>  (75) 
oracle

>  <origin>  (75) 
adg

>  <m_score__min__energy>  (75) 
-9.1999999999999993

>  <m_primary>  (75) 
energy

$$$$
75:0
     RDKit          3D

 14 15  0  0  0  0  0  0  0  0999 V2000
   52.4930   22.9470   45.1310 N   0  0  0  0  0  0  0  0  0  0  0  0
   53.6390   23.5470   45.1760 C   0  0  0  0  0  0  0  0  0  0  0  0
   53.7100   24.8500   45.5900 N   0  0  0  0  0  0  0  0  0  0  0  0
   54.9240   25.4480   45.6250 C   0  0  0  0  0  0  0  0  0  0  0  0
   55.1830   26.7070   46.0000 N   0  0  0  0  0  0  0  0  0  0  0  0
   56.5330   26.7680   45.8430 C   0  0  0  0  0  0  0  0  0  0  0  0
   57.3930   28.1170   46.1690 S   0  0  0  0  0  0  0  0  0  0  0  0
   57.1140   25.6220   45.3960 N   0  0  0  0  0  0  0  0  0  0  0  0
   56.0570   24.8060   45.2690 C   0  0  0  0  0  0  0  0  0  0  0  0
   56.0060   23.4820   44.8460 C   0  0  0  0  0  0  0  0  0  0  0  0
   57.3620   22.6740   44.4080 S   0  0  0  0  0  0  0  0  0  0  0  0
   54.7800   22.8730   44.8080 N   0  0  0  0  0  0  0  0  0  0  0  0
   51.6250   23.3970   45.5010 H   0  0  0  0  0  0  0  0  0  0  0  0
   54.7090   21.8780   44.4950 H   0  0  0  0  0  0  0  0  0  0  0  0
  1  2  2  3
  2  3  1  0
  3  4  1  0
  4  5  1  0
  5  6  1  0
  6  7  2  0
  6  8  1  0
  8  9  1  0
  9 10  1  0
 10 11  2  0
 10 12  1  0
 12  2  1  0
  9  4  2  0
  1 13  1  0
 12 14  1  0
M  CHG  3   3  -1   5  -1   8  -1
M  END
>  <UniqueID>  (76) 
63

>  <SMILES>  (76) 
N=c1[n-]c2[n-]c(=S)[n-]c2c(=S)[nH]1

>  <Energy>  (76) 
52.93729716660502

>  <Genealogy>  (76) 
N=c1[n-]c2[n-]c(=S)[n-]c2c(=S)[nH]1 (protonated)
N=c1[n-]c2[n-]c(=S)[n-]c2c(=S)[nH]1 (3D coordinates assigned)
N=c1[n-]c2[n-]c(=S)[n-]c2c(=S)[nH]1 (optimized conformer: 52.93729716660502 kcal/mol)

>  <smiles>  (76) 
N=c1[nH]c(=S)c2[nH]c(=S)[nH]c2[nH]1

>  <score_type>  (76) 
oracle

>  <origin>  (76) 
adg

>  <m_score__min__energy>  (76) 
-13.15

>  <m_primary>  (76) 
energy

$$$$
76:0
     RDKit          3D

 62 66  0  0  1  0  0  0  0  0999 V2000
   67.1800   29.9560   51.2790 C   0  0  0  0  0  0  0  0  0  0  0  0
   67.0470   31.0770   50.4360 O   0  0  0  0  0  0  0  0  0  0  0  0
   66.1930   32.1240   50.6970 C   0  0  0  0  0  0  0  0  0  0  0  0
   66.3230   33.0220   51.7190 C   0  0  0  0  0  0  0  0  0  0  0  0
   65.4440   34.0520   51.9390 C   0  0  0  0  0  0  0  0  0  0  0  0
   64.3640   34.1680   51.0590 C   0  0  0  0  0  0  0  0  0  0  0  0
   64.1800   33.3050   50.0260 C   0  0  0  0  0  0  0  0  0  0  0  0
   63.0740   33.3720   49.0750 C   0  0  0  0  0  0  0  0  0  0  0  0
   63.2700   33.4130   47.7100 C   0  0  0  0  0  0  0  0  0  0  0  0
   62.1950   33.4780   46.8440 C   0  0  0  0  0  0  0  0  0  0  0  0
   60.8840   33.5050   47.3010 C   0  0  0  0  0  0  0  0  0  0  0  0
   59.8400   33.5710   46.3720 N   0  0  0  0  0  0  0  0  0  0  0  0
   59.4640   34.8200   45.9510 C   0  0  0  0  0  0  0  0  0  0  0  0
   60.0590   35.8540   46.4030 O   0  0  0  0  0  0  0  0  0  0  0  0
   58.4230   34.9500   45.0210 C   0  0  0  0  0  0  0  0  0  0  0  0
   57.7750   33.8370   44.5270 C   0  0  0  0  0  0  0  0  0  0  0  0
   58.1990   32.6090   44.9890 C   0  0  0  0  0  0  0  0  0  0  0  0
   57.5860   31.4720   44.5280 C   0  0  0  0  0  0  0  0  0  0  0  0
   57.9910   30.2300   44.9740 C   0  0  0  0  0  0  0  0  0  0  0  0
   57.1450   28.8180   44.3270 S   0  0  0  0  0  0  0  0  0  0  0  0
   55.9360   28.5310   45.1860 O   0  0  0  0  0  0  0  0  0  0  0  0
   56.6320   29.1810   42.9560 O   0  0  0  0  0  0  0  0  0  0  0  0
   58.2170   27.4690   44.2980 N   0  0  0  0  0  0  0  0  0  0  0  0
   57.8460   26.3620   44.8170 C   0  0  0  0  0  0  0  0  0  0  0  0
   57.7990   26.1190   46.1630 C   0  0  0  0  0  0  0  0  0  0  0  0
   57.3740   24.8730   46.5720 C   0  0  0  0  0  0  0  0  0  0  0  0
   57.0090   23.9010   45.7070 N   0  0  0  0  0  0  0  0  0  0  0  0
   57.0680   24.1780   44.3770 C   0  0  0  0  0  0  0  0  0  0  0  0
   56.6870   23.1740   43.3510 C   0  0  0  0  0  0  0  0  0  0  0  0
   57.4760   25.3810   43.9430 N   0  0  0  0  0  0  0  0  0  0  0  0
   59.0240   30.0810   45.8980 C   0  0  0  0  0  0  0  0  0  0  0  0
   59.6270   31.2080   46.3520 C   0  0  0  0  0  0  0  0  0  0  0  0
   59.2240   32.4650   45.9050 C   0  0  0  0  0  0  0  0  0  0  0  0
   60.6840   33.4640   48.6750 C   0  0  0  0  0  0  0  0  0  0  0  0
   59.4030   33.4910   49.1340 O   0  0  0  0  0  0  0  0  0  0  0  0
   58.6440   32.3610   49.5060 C   0  0  0  0  0  0  0  0  0  0  0  0
   61.7560   33.4000   49.5440 C   0  0  0  0  0  0  0  0  0  0  0  0
   65.1010   32.2840   49.8520 C   0  0  0  0  0  0  0  0  0  0  0  0
   67.1415   30.2805   52.3293 H   0  0  0  0  0  0  0  0  0  0  0  0
   66.3593   29.2503   51.0829 H   0  0  0  0  0  0  0  0  0  0  0  0
   68.1431   29.4620   51.0829 H   0  0  0  0  0  0  0  0  0  0  0  0
   67.1784   32.9130   52.4019 H   0  0  0  0  0  0  0  0  0  0  0  0
   65.5831   34.7565   52.7723 H   0  0  0  0  0  0  0  0  0  0  0  0
   63.6407   34.9833   51.2076 H   0  0  0  0  0  0  0  0  0  0  0  0
   64.2932   33.3937   47.3065 H   0  0  0  0  0  0  0  0  0  0  0  0
   62.3834   33.5093   45.7607 H   0  0  0  0  0  0  0  0  0  0  0  0
   58.1194   35.9512   44.6813 H   0  0  0  0  0  0  0  0  0  0  0  0
   56.9567   33.9251   43.7972 H   0  0  0  0  0  0  0  0  0  0  0  0
   56.7666   31.5503   43.7984 H   0  0  0  0  0  0  0  0  0  0  0  0
   58.0897   26.8898   46.8919 H   0  0  0  0  0  0  0  0  0  0  0  0
   57.3300   24.6605   47.6504 H   0  0  0  0  0  0  0  0  0  0  0  0
   56.6890   22.9600   46.0360 H   0  0  0  0  0  0  0  0  0  0  0  0
   56.3388   22.2563   43.8476 H   0  0  0  0  0  0  0  0  0  0  0  0
   55.8803   23.5797   42.7228 H   0  0  0  0  0  0  0  0  0  0  0  0
   57.5597   22.9424   42.7228 H   0  0  0  0  0  0  0  0  0  0  0  0
   59.3386   29.0861   46.2462 H   0  0  0  0  0  0  0  0  0  0  0  0
   60.4452   31.1287   47.0829 H   0  0  0  0  0  0  0  0  0  0  0  0
   58.5992   32.2943   50.6031 H   0  0  0  0  0  0  0  0  0  0  0  0
   57.6250   32.4547   49.1025 H   0  0  0  0  0  0  0  0  0  0  0  0
   59.1161   31.4531   49.1025 H   0  0  0  0  0  0  0  0  0  0  0  0
   61.5695   33.3704   50.6277 H   0  0  0  0  0  0  0  0  0  0  0  0
   64.9635   31.5784   49.0194 H   0  0  0  0  0  0  0  0  0  0  0  0
  1  2  1  0
  2  3  1  0
  3  4  2  0
  4  5  1  0
  5  6  2  0
  6  7  1  0
  7  8  1  0
  8  9  2  0
  9 10  1  0
 10 11  2  0
 11 12  1  0
 12 13  1  0
 13 14  2  0
 13 15  1  0
 15 16  2  0
 16 17  1  0
 17 18  2  0
 18 19  1  0
 19 20  1  0
 20 21  2  0
 20 22  2  0
 20 23  1  0
 23 24  2  0
 24 25  1  0
 25 26  2  0
 26 27  1  0
 27 28  1  0
 28 29  1  0
 28 30  2  0
 19 31  2  0
 31 32  1  0
 32 33  2  0
 11 34  1  0
 34 35  1  0
 35 36  1  0
 34 37  2  0
  7 38  2  0
 38  3  1  0
 37  8  1  0
 33 12  1  0
 33 17  1  0
 30 24  1  0
  1 39  1  0
  1 40  1  0
  1 41  1  0
  4 42  1  0
  5 43  1  0
  6 44  1  0
  9 45  1  0
 10 46  1  0
 15 47  1  0
 16 48  1  0
 18 49  1  0
 25 50  1  0
 26 51  1  0
 27 52  1  0
 29 53  1  0
 29 54  1  0
 29 55  1  0
 31 56  1  0
 32 57  1  0
 36 58  1  0
 36 59  1  0
 36 60  1  0
 37 61  1  0
 38 62  1  0
M  END
>  <smiles>  (77) 
COc1cccc(-c2ccc(-n3c(=O)ccc4cc(S(=O)(=O)N=c5cc[nH]c(C)n5)ccc43)c(OC)c2)c1

>  <score_type>  (77) 
oracle

>  <origin>  (77) 
adg

>  <m_score__min__energy>  (77) 
-10.65

>  <m_primary>  (77) 
energy

$$$$
77:0
     RDKit          3D

 35 37  0  0  0  0  0  0  0  0999 V2000
   57.7890   32.3410   41.4310 C   0  0  0  0  0  0  0  0  0  0  0  0
   57.4410   32.3060   42.8110 O   0  0  0  0  0  0  0  0  0  0  0  0
   57.3800   31.1360   43.5830 C   0  0  0  0  0  0  0  0  0  0  0  0
   56.8010   29.9480   43.1080 C   0  0  0  0  0  0  0  0  0  0  0  0
   56.8070   28.8320   43.8800 N   0  0  0  0  0  0  0  0  0  0  0  0
   57.3660   28.8320   45.1200 C   0  0  0  0  0  0  0  0  0  0  0  0
   57.3680   27.5980   45.9420 C   0  0  0  0  0  0  0  0  0  0  0  0
   58.4680   27.2580   46.7450 C   0  0  0  0  0  0  0  0  0  0  0  0
   58.4460   26.1220   47.4900 N   0  0  0  0  0  0  0  0  0  0  0  0
   57.3680   25.2980   47.4750 C   0  0  0  0  0  0  0  0  0  0  0  0
   56.2910   25.6020   46.7090 N   0  0  0  0  0  0  0  0  0  0  0  0
   56.2670   26.7260   45.9480 C   0  0  0  0  0  0  0  0  0  0  0  0
   57.9220   29.9760   45.6000 N   0  0  0  0  0  0  0  0  0  0  0  0
   57.9320   31.1260   44.8740 C   0  0  0  0  0  0  0  0  0  0  0  0
   58.5350   32.3070   45.4270 N   0  0  0  0  0  0  0  0  0  0  0  0
   57.8540   33.5980   45.2950 C   0  0  0  0  0  0  0  0  0  0  0  0
   58.8790   34.7290   45.4180 C   0  0  0  0  0  0  0  0  0  0  0  0
   59.6380   34.5920   46.6040 O   0  0  0  0  0  0  0  0  0  0  0  0
   60.4130   33.4090   46.5440 C   0  0  0  0  0  0  0  0  0  0  0  0
   59.5150   32.1680   46.5060 C   0  0  0  0  0  0  0  0  0  0  0  0
   58.8789   32.4506   41.3304 H   0  0  0  0  0  0  0  0  0  0  0  0
   57.4684   31.4061   40.9482 H   0  0  0  0  0  0  0  0  0  0  0  0
   57.2886   33.1934   40.9482 H   0  0  0  0  0  0  0  0  0  0  0  0
   56.3419   29.9221   42.1087 H   0  0  0  0  0  0  0  0  0  0  0  0
   59.3509   27.9136   46.7712 H   0  0  0  0  0  0  0  0  0  0  0  0
   57.3677   24.3825   48.0848 H   0  0  0  0  0  0  0  0  0  0  0  0
   55.3830   26.9544   45.3345 H   0  0  0  0  0  0  0  0  0  0  0  0
   57.3615   33.6543   44.3130 H   0  0  0  0  0  0  0  0  0  0  0  0
   57.0995   33.6981   46.0891 H   0  0  0  0  0  0  0  0  0  0  0  0
   59.5556   34.6984   44.5512 H   0  0  0  0  0  0  0  0  0  0  0  0
   58.3428   35.6889   45.4513 H   0  0  0  0  0  0  0  0  0  0  0  0
   61.0348   33.4315   45.6369 H   0  0  0  0  0  0  0  0  0  0  0  0
   61.0456   33.3575   47.4424 H   0  0  0  0  0  0  0  0  0  0  0  0
   60.1316   31.2746   46.3283 H   0  0  0  0  0  0  0  0  0  0  0  0
   58.9898   32.0661   47.4672 H   0  0  0  0  0  0  0  0  0  0  0  0
  1  2  1  0
  2  3  1  0
  3  4  2  0
  4  5  1  0
  5  6  2  0
  6  7  1  0
  7  8  2  0
  8  9  1  0
  9 10  2  0
 10 11  1  0
 11 12  2  0
  6 13  1  0
 13 14  2  0
 14 15  1  0
 15 16  1  0
 16 17  1  0
 17 18  1  0
 18 19  1  0
 19 20  1  0
 14  3  1  0
 20 15  1  0
 12  7  1  0
  1 21  1  0
  1 22  1  0
  1 23  1  0
  4 24  1  0
  8 25  1  0
 10 26  1  0
 12 27  1  0
 16 28  1  0
 16 29  1  0
 17 30  1  0
 17 31  1  0
 19 32  1  0
 19 33  1  0
 20 34  1  0
 20 35  1  0
M  END
>  <UniqueID>  (78) 
64

>  <SMILES>  (78) 
COc1cnc(-c2cncnc2)nc1N1CCOCC1

>  <Energy>  (78) 
44.44486178993241

>  <Genealogy>  (78) 
COc1cnc(-c2cncnc2)nc1N1CCOCC1 (3D coordinates assigned)
COc1cnc(-c2cncnc2)nc1N1CCOCC1 (nonaromatic ring conformer: 44.44486178993241 kcal/mol)

>  <smiles>  (78) 
COc1cnc(-c2cncnc2)nc1N1CCOCC1

>  <score_type>  (78) 
oracle

>  <origin>  (78) 
adg

>  <m_score__min__energy>  (78) 
-5.5499999999999998

>  <m_primary>  (78) 
energy

$$$$
78:0
     RDKit          3D

 37 40  0  0  0  0  0  0  0  0999 V2000
   59.4610   23.8730   45.6230 C   0  0  0  0  0  0  0  0  0  0  0  0
   59.2490   24.9300   46.5540 O   0  0  0  0  0  0  0  0  0  0  0  0
   58.7240   26.1900   46.2230 C   0  0  0  0  0  0  0  0  0  0  0  0
   59.4200   27.3830   46.4930 C   0  0  0  0  0  0  0  0  0  0  0  0
   58.8670   28.6240   46.1500 C   0  0  0  0  0  0  0  0  0  0  0  0
   59.5680   29.8110   46.4220 C   0  0  0  0  0  0  0  0  0  0  0  0
   58.9780   31.0200   46.0630 C   0  0  0  0  0  0  0  0  0  0  0  0
   57.7660   31.0640   45.4680 N   0  0  0  0  0  0  0  0  0  0  0  0
   57.0500   29.9410   45.1850 C   0  0  0  0  0  0  0  0  0  0  0  0
   55.9230   30.0350   44.6280 O   0  0  0  0  0  0  0  0  0  0  0  0
   57.5930   28.6810   45.5240 C   0  0  0  0  0  0  0  0  0  0  0  0
   56.9040   27.4850   45.2580 C   0  0  0  0  0  0  0  0  0  0  0  0
   57.4650   26.2410   45.6050 C   0  0  0  0  0  0  0  0  0  0  0  0
   56.8010   25.0290   45.3520 O   0  0  0  0  0  0  0  0  0  0  0  0
   56.6250   24.4570   44.0600 C   0  0  0  0  0  0  0  0  0  0  0  0
   57.3750   32.4510   45.1950 C   0  0  0  0  0  0  0  0  0  0  0  0
   58.5480   33.2220   45.7230 C   0  0  0  0  0  0  0  0  0  0  0  0
   58.7510   34.6020   45.7410 C   0  0  0  0  0  0  0  0  0  0  0  0
   59.9460   35.0950   46.2940 C   0  0  0  0  0  0  0  0  0  0  0  0
   60.9100   34.2090   46.8180 C   0  0  0  0  0  0  0  0  0  0  0  0
   60.6870   32.8210   46.7910 C   0  0  0  0  0  0  0  0  0  0  0  0
   59.4950   32.3610   46.2360 C   0  0  0  0  0  0  0  0  0  0  0  0
   59.6489   22.9363   46.1683 H   0  0  0  0  0  0  0  0  0  0  0  0
   58.5683   23.7566   44.9909 H   0  0  0  0  0  0  0  0  0  0  0  0
   60.3295   24.1098   44.9909 H   0  0  0  0  0  0  0  0  0  0  0  0
   60.4067   27.3409   46.9775 H   0  0  0  0  0  0  0  0  0  0  0  0
   60.5558   29.7858   46.9053 H   0  0  0  0  0  0  0  0  0  0  0  0
   55.9169   27.5213   44.7740 H   0  0  0  0  0  0  0  0  0  0  0  0
   56.3029   23.4103   44.1632 H   0  0  0  0  0  0  0  0  0  0  0  0
   55.8596   25.0235   43.5093 H   0  0  0  0  0  0  0  0  0  0  0  0
   57.5765   24.4953   43.5093 H   0  0  0  0  0  0  0  0  0  0  0  0
   57.2384   32.6218   44.1170 H   0  0  0  0  0  0  0  0  0  0  0  0
   56.4167   32.7374   45.6530 H   0  0  0  0  0  0  0  0  0  0  0  0
   57.9944   35.2880   45.3324 H   0  0  0  0  0  0  0  0  0  0  0  0
   60.1303   36.1792   46.3181 H   0  0  0  0  0  0  0  0  0  0  0  0
   61.8407   34.6056   47.2498 H   0  0  0  0  0  0  0  0  0  0  0  0
   61.4313   32.1196   47.1959 H   0  0  0  0  0  0  0  0  0  0  0  0
  1  2  1  0
  2  3  1  0
  3  4  2  0
  4  5  1  0
  5  6  1  0
  6  7  2  0
  7  8  1  0
  8  9  1  0
  9 10  2  0
  9 11  1  0
 11 12  1  0
 12 13  2  0
 13 14  1  0
 14 15  1  0
  8 16  1  0
 16 17  1  0
 17 18  2  0
 18 19  1  0
 19 20  2  0
 20 21  1  0
 21 22  2  0
 13  3  1  0
 22 17  1  0
 11  5  2  0
 22  7  1  0
  1 23  1  0
  1 24  1  0
  1 25  1  0
  4 26  1  0
  6 27  1  0
 12 28  1  0
 15 29  1  0
 15 30  1  0
 15 31  1  0
 16 32  1  0
 16 33  1  0
 18 34  1  0
 19 35  1  0
 20 36  1  0
 21 37  1  0
M  END
>  <UniqueID>  (79) 
65

>  <SMILES>  (79) 
COc1cc2cc3n(c(=O)c2cc1OC)Cc1ccccc1-3

>  <Energy>  (79) 
69.61037164728252

>  <Genealogy>  (79) 
COc1cc2cc3n(c(=O)c2cc1OC)Cc1ccccc1-3 (3D coordinates assigned)
COc1cc2cc3n(c(=O)c2cc1OC)Cc1ccccc1-3 (nonaromatic ring conformer: 69.61037164728252 kcal/mol)

>  <smiles>  (79) 
COc1cc2cc3n(c(=O)c2cc1OC)Cc1ccccc1-3

>  <score_type>  (79) 
oracle

>  <origin>  (79) 
adg

>  <m_score__min__energy>  (79) 
-6.75

>  <m_primary>  (79) 
energy

$$$$
79:0
     RDKit          3D

 53 56  0  0  0  0  0  0  0  0999 V2000
   59.1140   29.7310   50.7330 C   0  0  0  0  0  0  0  0  0  0  0  0
   59.2930   30.1170   49.2980 C   0  0  0  0  0  0  0  0  0  0  0  0
   58.8830   31.2880   48.7800 N   0  0  0  0  0  0  0  0  0  0  0  0
   59.2070   31.3260   47.4960 N   0  0  0  0  0  0  0  0  0  0  0  0
   58.8950   32.4360   46.6370 C   0  0  0  0  0  0  0  0  0  0  0  0
   57.8230   32.3690   45.7320 C   0  0  0  0  0  0  0  0  0  0  0  0
   57.5370   33.4550   44.8980 C   0  0  0  0  0  0  0  0  0  0  0  0
   58.3240   34.6090   44.9550 C   0  0  0  0  0  0  0  0  0  0  0  0
   59.4040   34.6740   45.8390 C   0  0  0  0  0  0  0  0  0  0  0  0
   59.6940   33.5900   46.6710 C   0  0  0  0  0  0  0  0  0  0  0  0
   59.8110   30.1590   47.1590 C   0  0  0  0  0  0  0  0  0  0  0  0
   60.3560   29.8350   45.7960 C   0  0  0  0  0  0  0  0  0  0  0  0
   59.8730   29.3540   48.2940 C   0  0  0  0  0  0  0  0  0  0  0  0
   60.4460   27.9650   48.4360 C   0  0  0  0  0  0  0  0  0  0  0  0
   60.1180   27.1390   47.3170 O   0  0  0  0  0  0  0  0  0  0  0  0
   58.8210   26.7580   46.9380 C   0  0  0  0  0  0  0  0  0  0  0  0
   58.1590   25.6540   47.5050 C   0  0  0  0  0  0  0  0  0  0  0  0
   56.8330   25.3780   47.1660 C   0  0  0  0  0  0  0  0  0  0  0  0
   56.1530   26.1940   46.2470 C   0  0  0  0  0  0  0  0  0  0  0  0
   54.7720   25.9700   45.9310 N   0  0  0  0  0  0  0  0  0  0  0  0
   54.2420   24.7650   45.3590 C   0  0  0  0  0  0  0  0  0  0  0  0
   52.9940   24.6010   45.3460 O   0  0  0  0  0  0  0  0  0  0  0  0
   55.1270   23.6940   44.8370 C   0  0  0  0  0  0  0  0  0  0  0  0
   55.5290   23.7000   43.4870 C   0  0  0  0  0  0  0  0  0  0  0  0
   56.3570   22.6910   42.9900 C   0  0  0  0  0  0  0  0  0  0  0  0
   56.8010   21.6710   43.8330 C   0  0  0  0  0  0  0  0  0  0  0  0
   56.4200   21.6600   45.1770 C   0  0  0  0  0  0  0  0  0  0  0  0
   55.5900   22.6670   45.6820 C   0  0  0  0  0  0  0  0  0  0  0  0
   55.2190   22.6220   46.9880 F   0  0  0  0  0  0  0  0  0  0  0  0
   56.8360   27.2430   45.6230 C   0  0  0  0  0  0  0  0  0  0  0  0
   58.1600   27.5260   45.9720 C   0  0  0  0  0  0  0  0  0  0  0  0
   59.4885   30.5385   51.3794 H   0  0  0  0  0  0  0  0  0  0  0  0
   58.0462   29.5633   50.9371 H   0  0  0  0  0  0  0  0  0  0  0  0
   59.6758   28.8076   50.9371 H   0  0  0  0  0  0  0  0  0  0  0  0
   58.4050   32.0580   49.2980 H   0  0  0  0  0  0  0  0  0  0  0  0
   57.2064   31.4596   45.6789 H   0  0  0  0  0  0  0  0  0  0  0  0
   56.6916   33.4009   44.1963 H   0  0  0  0  0  0  0  0  0  0  0  0
   58.0931   35.4653   44.3043 H   0  0  0  0  0  0  0  0  0  0  0  0
   60.0267   35.5799   45.8799 H   0  0  0  0  0  0  0  0  0  0  0  0
   60.5529   33.6408   47.3564 H   0  0  0  0  0  0  0  0  0  0  0  0
   61.2972   29.2754   45.9010 H   0  0  0  0  0  0  0  0  0  0  0  0
   59.6258   29.2242   45.2448 H   0  0  0  0  0  0  0  0  0  0  0  0
   60.5438   30.7683   45.2448 H   0  0  0  0  0  0  0  0  0  0  0  0
   61.5407   28.0378   48.5161 H   0  0  0  0  0  0  0  0  0  0  0  0
   60.0133   27.5070   49.3377 H   0  0  0  0  0  0  0  0  0  0  0  0
   58.6882   25.0053   48.2185 H   0  0  0  0  0  0  0  0  0  0  0  0
   56.3189   24.5182   47.6204 H   0  0  0  0  0  0  0  0  0  0  0  0
   55.1884   24.5051   42.8194 H   0  0  0  0  0  0  0  0  0  0  0  0
   56.6597   22.7002   41.9325 H   0  0  0  0  0  0  0  0  0  0  0  0
   57.4509   20.8758   43.4391 H   0  0  0  0  0  0  0  0  0  0  0  0
   56.7737   20.8570   45.8405 H   0  0  0  0  0  0  0  0  0  0  0  0
   56.3301   27.8471   44.8555 H   0  0  0  0  0  0  0  0  0  0  0  0
   58.6867   28.3590   45.4835 H   0  0  0  0  0  0  0  0  0  0  0  0
  1  2  1  0
  2  3  2  0
  3  4  1  0
  4  5  1  0
  5  6  2  0
  6  7  1  0
  7  8  2  0
  8  9  1  0
  9 10  2  0
  4 11  1  0
 11 12  1  0
 11 13  2  0
 13 14  1  0
 14 15  1  0
 15 16  1  0
 16 17  2  0
 17 18  1  0
 18 19  2  0
 19 20  1  0
 20 21  1  0
 21 22  2  0
 21 23  1  0
 23 24  2  0
 24 25  1  0
 25 26  2  0
 26 27  1  0
 27 28  2  0
 28 29  1  0
 19 30  1  0
 30 31  2  0
 13  2  1  0
 31 16  1  0
 10  5  1  0
 28 23  1  0
  1 32  1  0
  1 33  1  0
  1 34  1  0
  3 35  1  0
  6 36  1  0
  7 37  1  0
  8 38  1  0
  9 39  1  0
 10 40  1  0
 12 41  1  0
 12 42  1  0
 12 43  1  0
 14 44  1  0
 14 45  1  0
 17 46  1  0
 18 47  1  0
 24 48  1  0
 25 49  1  0
 26 50  1  0
 27 51  1  0
 30 52  1  0
 31 53  1  0
M  CHG  2   3   1  20  -1
M  END
>  <UniqueID>  (80) 
66

>  <SMILES>  (80) 
Cc1[nH+]n(-c2ccccc2)c(C)c1COc1ccc([N-]C(=O)c2ccccc2F)cc1

>  <Energy>  (80) 
97.97176838121725

>  <Genealogy>  (80) 
Cc1[nH+]n(-c2ccccc2)c(C)c1COc1ccc([N-]C(=O)c2ccccc2F)cc1 (protonated)
Cc1[nH+]n(-c2ccccc2)c(C)c1COc1ccc([N-]C(=O)c2ccccc2F)cc1 (3D coordinates assigned)
Cc1[nH+]n(-c2ccccc2)c(C)c1COc1ccc([N-]C(=O)c2ccccc2F)cc1 (optimized conformer: 97.97176838121725 kcal/mol)

>  <smiles>  (80) 
Cc1nn(-c2ccccc2)c(C)c1COc1ccc(NC(=O)c2ccccc2F)cc1

>  <score_type>  (80) 
oracle

>  <origin>  (80) 
adg

>  <m_score__min__energy>  (80) 
-10.75

>  <m_primary>  (80) 
energy

$$$$
80:0
     RDKit          3D

 39 41  0  0  0  0  0  0  0  0999 V2000
   64.8419   33.9027   47.9448 H   0  0  0  0  0  0  0  0  0  0  0  0
   63.7480   33.8980   47.8290 C   0  0  0  0  0  0  0  0  0  0  0  0
   63.1810   33.8210   46.5540 C   0  0  0  0  0  0  0  0  0  0  0  0
   63.8289   33.7540   45.6676 H   0  0  0  0  0  0  0  0  0  0  0  0
   61.7910   33.8290   46.4040 C   0  0  0  0  0  0  0  0  0  0  0  0
   61.3482   33.7692   45.3988 H   0  0  0  0  0  0  0  0  0  0  0  0
   60.9580   33.9130   47.5310 C   0  0  0  0  0  0  0  0  0  0  0  0
   59.4640   33.9690   47.3640 C   0  0  0  0  0  0  0  0  0  0  0  0
   59.2236   34.5848   46.4848 H   0  0  0  0  0  0  0  0  0  0  0  0
   59.0269   34.4066   48.2736 H   0  0  0  0  0  0  0  0  0  0  0  0
   58.9040   32.6290   47.1770 N   0  0  0  0  0  0  0  0  0  0  0  0
   59.1490   31.5520   47.9500 C   0  0  0  0  0  0  0  0  0  0  0  0
   59.7320   31.5485   48.8828 H   0  0  0  0  0  0  0  0  0  0  0  0
   58.5440   30.4550   47.3720 C   0  0  0  0  0  0  0  0  0  0  0  0
   58.5623   29.4291   47.7684 H   0  0  0  0  0  0  0  0  0  0  0  0
   57.9280   30.8490   46.2430 N   0  0  0  0  0  0  0  0  0  0  0  0
   57.3880   30.2490   45.5790 H   0  0  0  0  0  0  0  0  0  0  0  0
   58.1490   32.1740   46.1540 C   0  0  0  0  0  0  0  0  0  0  0  0
   57.5230   33.1940   44.8100 S   0  0  0  0  0  0  0  0  0  0  0  0
   58.3550   32.2630   43.4750 C   0  0  0  0  0  0  0  0  0  0  0  0
   58.8173   31.3618   43.9040 H   0  0  0  0  0  0  0  0  0  0  0  0
   59.1132   32.9187   43.0220 H   0  0  0  0  0  0  0  0  0  0  0  0
   57.3960   31.8520   42.4040 C   0  0  0  0  0  0  0  0  0  0  0  0
   57.4430   32.4230   41.2810 O   0  0  0  0  0  0  0  0  0  0  0  0
   56.4120   30.8470   42.6950 N   0  0  0  0  0  0  0  0  0  0  0  0
   56.4740   29.8940   43.5780 C   0  0  0  0  0  0  0  0  0  0  0  0
   55.5560   29.7580   44.5530 N   0  0  0  0  0  0  0  0  0  0  0  0
   55.9100   28.7210   45.2560 O   0  0  0  0  0  0  0  0  0  0  0  0
   57.0150   28.1880   44.7890 C   0  0  0  0  0  0  0  0  0  0  0  0
   57.6630   26.9670   45.3490 C   0  0  0  0  0  0  0  0  0  0  0  0
   57.6398   27.0108   46.4479 H   0  0  0  0  0  0  0  0  0  0  0  0
   57.1202   26.0738   45.0061 H   0  0  0  0  0  0  0  0  0  0  0  0
   58.7069   26.9159   45.0061 H   0  0  0  0  0  0  0  0  0  0  0  0
   57.4390   28.9060   43.6900 C   0  0  0  0  0  0  0  0  0  0  0  0
   58.3239   28.7362   43.0590 H   0  0  0  0  0  0  0  0  0  0  0  0
   61.5350   33.9760   48.8100 C   0  0  0  0  0  0  0  0  0  0  0  0
   60.8904   34.0311   49.6996 H   0  0  0  0  0  0  0  0  0  0  0  0
   62.9260   33.9690   48.9570 C   0  0  0  0  0  0  0  0  0  0  0  0
   63.3731   34.0194   49.9608 H   0  0  0  0  0  0  0  0  0  0  0  0
  1  2  1  0
  2  3  2  0
  3  4  1  0
  3  5  1  0
  5  6  1  0
  5  7  2  0
  7  8  1  0
  8  9  1  0
  8 10  1  0
  8 11  1  0
 11 12  1  0
 12 13  1  0
 12 14  2  0
 14 15  1  0
 14 16  1  0
 16 17  1  0
 16 18  2  0
 18 19  1  0
 19 20  1  0
 20 21  1  0
 20 22  1  0
 20 23  1  0
 23 24  2  0
 23 25  1  0
 25 26  2  0
 26 27  1  0
 27 28  1  0
 28 29  1  0
 29 30  1  0
 30 31  1  0
 30 32  1  0
 30 33  1  0
 29 34  2  0
 34 35  1  0
  7 36  1  0
 36 37  1  0
 36 38  2  0
 38 39  1  0
 38  2  1  0
 18 11  1  0
 34 26  1  0
M  CHG  2  16   1  27  -1
M  END
>  <UniqueID>  (81) 
67

>  <SMILES>  (81) 
Cc1c/c(=N\C(=O)CSc2[nH+]ccn2Cc2ccccc2)[n-]o1

>  <Energy>  (81) 
95.37554735158066

>  <Genealogy>  (81) 
Cc1cc(=NC(=O)CSc2[nH+]ccn2Cc2ccccc2)[n-]o1 (protonated)
Cc1c/c(=N\C(=O)CSc2[nH+]ccn2Cc2ccccc2)[n-]o1 (cis-trans isomerization)
Cc1c/c(=N\C(=O)CSc2[nH+]ccn2Cc2ccccc2)[n-]o1 (3D coordinates assigned)
Cc1c/c(=N\C(=O)CSc2[nH+]ccn2Cc2ccccc2)[n-]o1 (optimized conformer: 95.37554735158066 kcal/mol)

>  <smiles>  (81) 
Cc1cc(=NC(=O)CSc2nccn2Cc2ccccc2)[nH]o1

>  <score_type>  (81) 
oracle

>  <origin>  (81) 
adg

>  <m_score__min__energy>  (81) 
-8.3599999999999994

>  <m_primary>  (81) 
energy

$$$$
81:0
     RDKit          3D

 48 52  0  0  0  0  0  0  0  0999 V2000
   57.6810   32.2000   43.3020 C   0  0  0  0  0  0  0  0  0  0  0  0
   57.5410   30.7630   43.6850 C   0  0  0  0  0  0  0  0  0  0  0  0
   57.0100   29.8480   42.9070 O   0  0  0  0  0  0  0  0  0  0  0  0
   57.0360   28.6840   43.4860 N   0  0  0  0  0  0  0  0  0  0  0  0
   57.5960   28.8260   44.7020 C   0  0  0  0  0  0  0  0  0  0  0  0
   57.7440   27.7170   45.6660 C   0  0  0  0  0  0  0  0  0  0  0  0
   56.7210   26.7690   45.8350 C   0  0  0  0  0  0  0  0  0  0  0  0
   56.8760   25.7160   46.7420 C   0  0  0  0  0  0  0  0  0  0  0  0
   58.0610   25.5920   47.4730 C   0  0  0  0  0  0  0  0  0  0  0  0
   59.0940   26.5170   47.2930 C   0  0  0  0  0  0  0  0  0  0  0  0
   58.9400   27.5720   46.3890 C   0  0  0  0  0  0  0  0  0  0  0  0
   57.9480   30.1620   44.8690 C   0  0  0  0  0  0  0  0  0  0  0  0
   58.6890   30.7860   45.9840 C   0  0  0  0  0  0  0  0  0  0  0  0
   59.9650   31.2100   45.8780 N   0  0  0  0  0  0  0  0  0  0  0  0
   60.2510   31.7200   47.0890 C   0  0  0  0  0  0  0  0  0  0  0  0
   61.5970   32.2110   47.4470 C   0  0  0  0  0  0  0  0  0  0  0  0
   62.1350   33.3620   46.8440 C   0  0  0  0  0  0  0  0  0  0  0  0
   63.4000   33.8270   47.2150 C   0  0  0  0  0  0  0  0  0  0  0  0
   64.1320   33.1580   48.2000 C   0  0  0  0  0  0  0  0  0  0  0  0
   63.5950   32.0270   48.8200 C   0  0  0  0  0  0  0  0  0  0  0  0
   62.3300   31.5580   48.4510 C   0  0  0  0  0  0  0  0  0  0  0  0
   59.1270   31.6100   47.8960 C   0  0  0  0  0  0  0  0  0  0  0  0
   58.9310   32.1210   49.2700 C   0  0  0  0  0  0  0  0  0  0  0  0
   58.2130   31.3810   50.2250 C   0  0  0  0  0  0  0  0  0  0  0  0
   58.0560   31.8690   51.5250 C   0  0  0  0  0  0  0  0  0  0  0  0
   58.6280   33.0920   51.8880 C   0  0  0  0  0  0  0  0  0  0  0  0
   59.3640   33.8230   50.9530 C   0  0  0  0  0  0  0  0  0  0  0  0
   59.5230   33.3380   49.6500 C   0  0  0  0  0  0  0  0  0  0  0  0
   58.1430   31.0170   47.1960 N   0  0  0  0  0  0  0  0  0  0  0  0
   57.7411   32.8174   44.2104 H   0  0  0  0  0  0  0  0  0  0  0  0
   58.5964   32.3333   42.7068 H   0  0  0  0  0  0  0  0  0  0  0  0
   56.8086   32.5075   42.7068 H   0  0  0  0  0  0  0  0  0  0  0  0
   56.6550   27.8060   43.0690 H   0  0  0  0  0  0  0  0  0  0  0  0
   55.7931   26.8555   45.2507 H   0  0  0  0  0  0  0  0  0  0  0  0
   56.0655   24.9853   46.8802 H   0  0  0  0  0  0  0  0  0  0  0  0
   58.1809   24.7665   48.1901 H   0  0  0  0  0  0  0  0  0  0  0  0
   60.0289   26.4144   47.8634 H   0  0  0  0  0  0  0  0  0  0  0  0
   59.7588   28.2919   46.2430 H   0  0  0  0  0  0  0  0  0  0  0  0
   61.5577   33.8989   46.0769 H   0  0  0  0  0  0  0  0  0  0  0  0
   63.8201   34.7210   46.7309 H   0  0  0  0  0  0  0  0  0  0  0  0
   65.1298   33.5216   48.4867 H   0  0  0  0  0  0  0  0  0  0  0  0
   64.1682   31.5043   49.5999 H   0  0  0  0  0  0  0  0  0  0  0  0
   61.9073   30.6733   48.9497 H   0  0  0  0  0  0  0  0  0  0  0  0
   57.7721   30.4122   49.9476 H   0  0  0  0  0  0  0  0  0  0  0  0
   57.4818   31.2903   52.2635 H   0  0  0  0  0  0  0  0  0  0  0  0
   58.4984   33.4783   52.9097 H   0  0  0  0  0  0  0  0  0  0  0  0
   59.8196   34.7818   51.2413 H   0  0  0  0  0  0  0  0  0  0  0  0
   60.1136   33.9114   48.9203 H   0  0  0  0  0  0  0  0  0  0  0  0
  1  2  1  0
  2  3  1  0
  3  4  1  0
  4  5  2  0
  5  6  1  0
  6  7  2  0
  7  8  1  0
  8  9  2  0
  9 10  1  0
 10 11  2  0
  5 12  1  0
 12 13  1  0
 13 14  2  0
 14 15  1  0
 15 16  1  0
 16 17  2  0
 17 18  1  0
 18 19  2  0
 19 20  1  0
 20 21  2  0
 15 22  2  0
 22 23  1  0
 23 24  2  0
 24 25  1  0
 25 26  2  0
 26 27  1  0
 27 28  2  0
 22 29  1  0
 12  2  2  0
 29 13  1  0
 11  6  1  0
 21 16  1  0
 28 23  1  0
  1 30  1  0
  1 31  1  0
  1 32  1  0
  4 33  1  0
  7 34  1  0
  8 35  1  0
  9 36  1  0
 10 37  1  0
 11 38  1  0
 17 39  1  0
 18 40  1  0
 19 41  1  0
 20 42  1  0
 21 43  1  0
 24 44  1  0
 25 45  1  0
 26 46  1  0
 27 47  1  0
 28 48  1  0
M  CHG  2   4   1  29  -1
M  END
>  <UniqueID>  (82) 
68

>  <SMILES>  (82) 
Cc1o[nH+]c(-c2ccccc2)c1-c1nc(-c2ccccc2)c(-c2ccccc2)[n-]1

>  <Energy>  (82) 
125.59776526217033

>  <Genealogy>  (82) 
Cc1o[nH+]c(-c2ccccc2)c1-c1nc(-c2ccccc2)c(-c2ccccc2)[n-]1 (protonated)
Cc1o[nH+]c(-c2ccccc2)c1-c1nc(-c2ccccc2)c(-c2ccccc2)[n-]1 (3D coordinates assigned)
Cc1o[nH+]c(-c2ccccc2)c1-c1nc(-c2ccccc2)c(-c2ccccc2)[n-]1 (optimized conformer: 125.59776526217033 kcal/mol)

>  <smiles>  (82) 
Cc1onc(-c2ccccc2)c1-c1nc(-c2ccccc2)c(-c2ccccc2)[nH]1

>  <score_type>  (82) 
oracle

>  <origin>  (82) 
adg

>  <m_score__min__energy>  (82) 
-8.6899999999999995

>  <m_primary>  (82) 
energy

$$$$
82:0
     RDKit          3D

 36 38  0  0  0  0  0  0  0  0999 V2000
   56.4510   22.6520   41.7260 H   0  0  0  0  0  0  0  0  0  0  0  0
   56.2330   22.1490   42.6160 N   0  0  0  0  0  0  0  0  0  0  0  0
   57.0020   22.2370   43.6560 C   0  0  0  0  0  0  0  0  0  0  0  0
   57.0690   23.5130   44.4120 C   0  0  0  0  0  0  0  0  0  0  0  0
   56.8210   23.5270   45.8140 C   0  0  0  0  0  0  0  0  0  0  0  0
   56.5768   22.5873   46.3311 H   0  0  0  0  0  0  0  0  0  0  0  0
   56.8840   24.7260   46.5470 C   0  0  0  0  0  0  0  0  0  0  0  0
   56.6877   24.7426   47.6292 H   0  0  0  0  0  0  0  0  0  0  0  0
   57.2030   25.8890   45.8560 C   0  0  0  0  0  0  0  0  0  0  0  0
   57.3250   27.1290   46.3500 N   0  0  0  0  0  0  0  0  0  0  0  0
   57.6540   27.8580   45.2490 C   0  0  0  0  0  0  0  0  0  0  0  0
   57.8970   29.3180   45.2940 C   0  0  0  0  0  0  0  0  0  0  0  0
   58.2610   29.9420   46.4990 C   0  0  0  0  0  0  0  0  0  0  0  0
   58.3591   29.3434   47.4166 H   0  0  0  0  0  0  0  0  0  0  0  0
   58.4990   31.3170   46.5390 C   0  0  0  0  0  0  0  0  0  0  0  0
   58.7876   31.7939   47.4873 H   0  0  0  0  0  0  0  0  0  0  0  0
   58.3730   32.0930   45.3810 C   0  0  0  0  0  0  0  0  0  0  0  0
   58.6270   33.4640   45.4300 O   0  0  0  0  0  0  0  0  0  0  0  0
   59.1550   33.8800   46.1890 H   0  0  0  0  0  0  0  0  0  0  0  0
   57.9930   31.4860   44.1690 C   0  0  0  0  0  0  0  0  0  0  0  0
   57.8810   32.2930   42.9000 C   0  0  0  0  0  0  0  0  0  0  0  0
   57.4020   33.2570   43.1265 H   0  0  0  0  0  0  0  0  0  0  0  0
   58.8905   32.4538   42.4936 H   0  0  0  0  0  0  0  0  0  0  0  0
   57.0470   31.5520   41.8600 C   0  0  0  0  0  0  0  0  0  0  0  0
   56.3179   30.9042   42.3686 H   0  0  0  0  0  0  0  0  0  0  0  0
   56.5143   32.2801   41.2307 H   0  0  0  0  0  0  0  0  0  0  0  0
   57.7074   30.9373   41.2307 H   0  0  0  0  0  0  0  0  0  0  0  0
   57.7700   30.0990   44.1330 C   0  0  0  0  0  0  0  0  0  0  0  0
   57.4923   29.6184   43.1833 H   0  0  0  0  0  0  0  0  0  0  0  0
   57.7420   27.1290   44.1050 N   0  0  0  0  0  0  0  0  0  0  0  0
   57.4500   25.8890   44.5210 C   0  0  0  0  0  0  0  0  0  0  0  0
   57.3970   24.7250   43.7580 C   0  0  0  0  0  0  0  0  0  0  0  0
   57.6041   24.7468   42.6779 H   0  0  0  0  0  0  0  0  0  0  0  0
   57.7880   21.1050   44.0510 N   0  0  0  0  0  0  0  0  0  0  0  0
   57.6880   20.1920   43.5540 H   0  0  0  0  0  0  0  0  0  0  0  0
   58.5280   21.1830   44.7810 H   0  0  0  0  0  0  0  0  0  0  0  0
  1  2  1  0
  2  3  2  0
  3  4  1  0
  4  5  2  0
  5  6  1  0
  5  7  1  0
  7  8  1  0
  7  9  2  0
  9 10  1  0
 10 11  1  0
 11 12  1  0
 12 13  2  0
 13 14  1  0
 13 15  1  0
 15 16  1  0
 15 17  2  0
 17 18  1  0
 18 19  1  0
 17 20  1  0
 20 21  1  0
 21 22  1  0
 21 23  1  0
 21 24  1  0
 24 25  1  0
 24 26  1  0
 24 27  1  0
 20 28  2  0
 28 29  1  0
 11 30  2  0
 30 31  1  0
 31 32  2  0
 32 33  1  0
  3 34  1  0
 34 35  1  0
 34 36  1  0
 32  4  1  0
 31  9  1  0
 28 12  1  0
M  CHG  1  10  -1
M  END
>  <UniqueID>  (83) 
69

>  <SMILES>  (83) 
[H]/N=C(\N)c1ccc2[n-]c(-c3ccc(O)c(CC)c3)nc2c1

>  <Energy>  (83) 
72.0180222581867

>  <Genealogy>  (83) 
CCc1cc(-c2nc3cc(C(=N)N)ccc3[n-]2)ccc1O (protonated)
[H]/N=C(\N)c1ccc2[n-]c(-c3ccc(O)c(CC)c3)nc2c1 (cis-trans isomerization)
[H]/N=C(\N)c1ccc2[n-]c(-c3ccc(O)c(CC)c3)nc2c1 (3D coordinates assigned)
[H]/N=C(\N)c1ccc2[n-]c(-c3ccc(O)c(CC)c3)nc2c1 (optimized conformer: 72.0180222581867 kcal/mol)

>  <smiles>  (83) 
CCc1cc(-c2nc3cc(C(=N)N)ccc3[nH]2)ccc1O

>  <score_type>  (83) 
oracle

>  <origin>  (83) 
adg

>  <m_score__min__energy>  (83) 
-8.0299999999999994

>  <m_primary>  (83) 
energy

$$$$
83:0
     RDKit          3D

 39 41  0  0  0  0  0  0  0  0999 V2000
   57.0230   31.7230   42.0940 O   0  0  0  0  0  0  0  0  0  0  0  0
   57.4030   31.5730   43.2870 C   0  0  0  0  0  0  0  0  0  0  0  0
   58.0760   32.6490   43.9550 N   0  0  0  0  0  0  0  0  0  0  0  0
   57.4060   33.6070   44.8290 C   0  0  0  0  0  0  0  0  0  0  0  0
   58.3170   34.0230   45.9910 C   0  0  0  0  0  0  0  0  0  0  0  0
   58.7080   32.8470   46.8460 C   0  0  0  0  0  0  0  0  0  0  0  0
   58.5990   32.9230   48.2400 C   0  0  0  0  0  0  0  0  0  0  0  0
   58.8900   31.8020   49.0160 C   0  0  0  0  0  0  0  0  0  0  0  0
   59.2640   30.5980   48.4010 C   0  0  0  0  0  0  0  0  0  0  0  0
   59.6130   29.3840   49.2260 C   0  0  0  0  0  0  0  0  0  0  0  0
   60.9800   29.3120   49.4290 F   0  0  0  0  0  0  0  0  0  0  0  0
   58.9780   29.4690   50.4510 F   0  0  0  0  0  0  0  0  0  0  0  0
   59.2080   28.2240   48.5880 F   0  0  0  0  0  0  0  0  0  0  0  0
   59.3860   30.5710   47.0040 C   0  0  0  0  0  0  0  0  0  0  0  0
   59.1020   31.6770   46.2640 N   0  0  0  0  0  0  0  0  0  0  0  0
   57.1450   30.2970   44.0040 C   0  0  0  0  0  0  0  0  0  0  0  0
   55.8240   29.9160   44.2890 C   0  0  0  0  0  0  0  0  0  0  0  0
   55.5630   28.7500   44.9350 N   0  0  0  0  0  0  0  0  0  0  0  0
   56.5510   27.9080   45.3290 C   0  0  0  0  0  0  0  0  0  0  0  0
   56.2280   26.7170   45.9900 C   0  0  0  0  0  0  0  0  0  0  0  0
   57.2410   25.8430   46.3940 C   0  0  0  0  0  0  0  0  0  0  0  0
   58.5790   26.1540   46.1380 C   0  0  0  0  0  0  0  0  0  0  0  0
   58.9120   27.3410   45.4780 C   0  0  0  0  0  0  0  0  0  0  0  0
   57.9010   28.2310   45.0670 C   0  0  0  0  0  0  0  0  0  0  0  0
   58.1960   29.4350   44.3970 C   0  0  0  0  0  0  0  0  0  0  0  0
   59.3950   29.7320   44.1380 O   0  0  0  0  0  0  0  0  0  0  0  0
   57.1376   34.4998   44.2451 H   0  0  0  0  0  0  0  0  0  0  0  0
   56.5047   33.1318   45.2436 H   0  0  0  0  0  0  0  0  0  0  0  0
   59.2281   34.4836   45.5814 H   0  0  0  0  0  0  0  0  0  0  0  0
   57.7627   34.7338   46.6215 H   0  0  0  0  0  0  0  0  0  0  0  0
   58.2856   33.8618   48.7200 H   0  0  0  0  0  0  0  0  0  0  0  0
   58.8262   31.8617   50.1125 H   0  0  0  0  0  0  0  0  0  0  0  0
   59.7139   29.6484   46.5026 H   0  0  0  0  0  0  0  0  0  0  0  0
   59.1760   31.6110   45.2240 H   0  0  0  0  0  0  0  0  0  0  0  0
   54.9919   30.5685   43.9860 H   0  0  0  0  0  0  0  0  0  0  0  0
   55.1755   26.4687   46.1917 H   0  0  0  0  0  0  0  0  0  0  0  0
   56.9845   24.9085   46.9145 H   0  0  0  0  0  0  0  0  0  0  0  0
   59.3731   25.4627   46.4567 H   0  0  0  0  0  0  0  0  0  0  0  0
   59.9671   27.5803   45.2792 H   0  0  0  0  0  0  0  0  0  0  0  0
  1  2  2  0
  2  3  1  0
  3  4  1  0
  4  5  1  0
  5  6  1  0
  6  7  2  0
  7  8  1  0
  8  9  2  0
  9 10  1  0
 10 11  1  0
 10 12  1  0
 10 13  1  0
  9 14  1  0
 14 15  2  0
  2 16  1  0
 16 17  2  0
 17 18  1  0
 18 19  1  0
 19 20  2  0
 20 21  1  0
 21 22  2  0
 22 23  1  0
 23 24  2  0
 24 25  1  0
 25 26  2  0
 15  6  1  0
 25 16  1  0
 24 19  1  0
  4 27  1  0
  4 28  1  0
  5 29  1  0
  5 30  1  0
  7 31  1  0
  8 32  1  0
 14 33  1  0
 15 34  1  0
 17 35  1  0
 20 36  1  0
 21 37  1  0
 22 38  1  0
 23 39  1  0
M  CHG  3   3  -1  15   1  18  -1
M  END
>  <UniqueID>  (84) 
70

>  <SMILES>  (84) 
O=C([N-]CCc1ccc(C(F)(F)F)c[nH+]1)c1c[n-]c2ccccc2c1=O

>  <Energy>  (84) 
44.73624250859059

>  <Genealogy>  (84) 
O=C([N-]CCc1ccc(C(F)(F)F)c[nH+]1)c1c[n-]c2ccccc2c1=O (protonated)
O=C([N-]CCc1ccc(C(F)(F)F)c[nH+]1)c1c[n-]c2ccccc2c1=O (3D coordinates assigned)
O=C([N-]CCc1ccc(C(F)(F)F)c[nH+]1)c1c[n-]c2ccccc2c1=O (optimized conformer: 44.73624250859059 kcal/mol)

>  <smiles>  (84) 
O=C(NCCc1ccc(C(F)(F)F)cn1)c1c[nH]c2ccccc2c1=O

>  <score_type>  (84) 
oracle

>  <origin>  (84) 
adg

>  <m_score__min__energy>  (84) 
-9.3599999999999994

>  <m_primary>  (84) 
energy

$$$$
84:0
     RDKit          3D

 33 34  0  0  0  0  0  0  0  0999 V2000
   57.0190   33.8600   45.3950 C   0  0  0  0  0  0  0  0  0  0  0  0
   57.1670   32.4100   45.2280 N   0  0  0  0  0  0  0  0  0  0  0  0
   58.5690   31.9840   45.4050 C   0  0  1  0  0  0  0  0  0  0  0  0
   59.2590   32.7720   46.5050 C   0  0  0  0  0  0  0  0  0  0  0  0
   58.8330   32.7210   47.8450 C   0  0  0  0  0  0  0  0  0  0  0  0
   59.5250   33.4280   48.8290 C   0  0  0  0  0  0  0  0  0  0  0  0
   60.6470   34.1770   48.4730 C   0  0  0  0  0  0  0  0  0  0  0  0
   61.0590   34.2090   47.1790 N   0  0  0  0  0  0  0  0  0  0  0  0
   60.4030   33.5310   46.2010 C   0  0  0  0  0  0  0  0  0  0  0  0
   58.6710   30.4970   45.7150 C   0  0  0  0  0  0  0  0  0  0  0  0
   59.8470   30.0060   46.3110 C   0  0  0  0  0  0  0  0  0  0  0  0
   59.9720   28.6550   46.6350 C   0  0  0  0  0  0  0  0  0  0  0  0
   58.9230   27.7750   46.3760 C   0  0  0  0  0  0  0  0  0  0  0  0
   57.7440   28.2430   45.7940 C   0  0  0  0  0  0  0  0  0  0  0  0
   57.6010   29.6050   45.4600 C   0  0  0  0  0  0  0  0  0  0  0  0
   56.4210   30.0970   44.8790 O   0  0  0  0  0  0  0  0  0  0  0  0
   56.1020   30.0100   43.4940 C   0  0  0  0  0  0  0  0  0  0  0  0
   56.9940   34.1050   46.4671 H   0  0  0  0  0  0  0  0  0  0  0  0
   57.8695   34.3723   44.9216 H   0  0  0  0  0  0  0  0  0  0  0  0
   56.0825   34.1899   44.9216 H   0  0  0  0  0  0  0  0  0  0  0  0
   56.5920   31.9640   45.9820 H   0  0  0  0  0  0  0  0  0  0  0  0
   59.0759   32.1843   44.4495 H   0  0  0  0  0  0  0  0  0  0  0  0
   57.9517   32.1219   48.1177 H   0  0  0  0  0  0  0  0  0  0  0  0
   59.1890   33.3951   49.8759 H   0  0  0  0  0  0  0  0  0  0  0  0
   61.1978   34.7414   49.2399 H   0  0  0  0  0  0  0  0  0  0  0  0
   60.7693   33.5762   45.1648 H   0  0  0  0  0  0  0  0  0  0  0  0
   60.6774   30.6953   46.5239 H   0  0  0  0  0  0  0  0  0  0  0  0
   60.8995   28.2839   47.0954 H   0  0  0  0  0  0  0  0  0  0  0  0
   59.0244   26.7097   46.6307 H   0  0  0  0  0  0  0  0  0  0  0  0
   56.9193   27.5431   45.5942 H   0  0  0  0  0  0  0  0  0  0  0  0
   55.0467   29.7222   43.3782 H   0  0  0  0  0  0  0  0  0  0  0  0
   56.2701   30.9868   43.0169 H   0  0  0  0  0  0  0  0  0  0  0  0
   56.7428   29.2538   43.0169 H   0  0  0  0  0  0  0  0  0  0  0  0
  1  2  1  0
  2  3  1  0
  3  4  1  0
  4  5  2  0
  5  6  1  0
  6  7  2  0
  7  8  1  0
  8  9  2  0
  3 10  1  0
 10 11  2  0
 11 12  1  0
 12 13  2  0
 13 14  1  0
 14 15  2  0
 15 16  1  0
 16 17  1  0
  9  4  1  0
 15 10  1  0
  1 18  1  0
  1 19  1  0
  1 20  1  0
  2 21  1  0
  3 22  1  6
  5 23  1  0
  6 24  1  0
  7 25  1  0
  9 26  1  0
 11 27  1  0
 12 28  1  0
 13 29  1  0
 14 30  1  0
 17 31  1  0
 17 32  1  0
 17 33  1  0
M  END
>  <UniqueID>  (85) 
71

>  <SMILES>  (85) 
CN[C@@H](c1cccnc1)c1ccccc1OC

>  <Energy>  (85) 
35.153218632367896

>  <Genealogy>  (85) 
CN[C@@H](c1cccnc1)c1ccccc1OC (chirality)
CN[C@@H](c1cccnc1)c1ccccc1OC (3D coordinates assigned)
CN[C@@H](c1cccnc1)c1ccccc1OC (optimized conformer: 35.153218632367896 kcal/mol)

>  <smiles>  (85) 
CNC(c1cccnc1)c1ccccc1OC

>  <score_type>  (85) 
oracle

>  <origin>  (85) 
adg

>  <m_score__min__energy>  (85) 
-5.8200000000000003

>  <m_primary>  (85) 
energy

$$$$
85:0
     RDKit          3D

 66 70  0  0  0  0  0  0  0  0999 V2000
   57.3356   25.5925   42.0487 H   0  0  0  0  0  0  0  0  0  0  0  0
   57.7550   25.9940   42.9830 C   0  0  0  0  0  0  0  0  0  0  0  0
   57.7320   25.2220   44.1470 C   0  0  0  0  0  0  0  0  0  0  0  0
   57.3049   24.2085   44.1259 H   0  0  0  0  0  0  0  0  0  0  0  0
   58.2510   25.7360   45.3380 C   0  0  0  0  0  0  0  0  0  0  0  0
   58.2481   25.1198   46.2492 H   0  0  0  0  0  0  0  0  0  0  0  0
   58.7760   27.0370   45.3740 C   0  0  0  0  0  0  0  0  0  0  0  0
   59.3180   27.5570   46.5990 N   0  0  0  0  0  0  0  0  0  0  0  0
   60.2980   26.8050   47.1860 C   0  0  0  0  0  0  0  0  0  0  0  0
   60.7215   25.9485   46.6410 H   0  0  0  0  0  0  0  0  0  0  0  0
   60.7690   27.1050   48.4620 C   0  0  0  0  0  0  0  0  0  0  0  0
   61.5660   26.4967   48.9146 H   0  0  0  0  0  0  0  0  0  0  0  0
   60.2250   28.1800   49.1620 C   0  0  0  0  0  0  0  0  0  0  0  0
   60.6850   28.5010   50.5260 C   0  0  0  0  0  0  0  0  0  0  0  0
   61.4380   27.6890   51.1260 O   0  0  0  0  0  0  0  0  0  0  0  0
   60.3220   29.7230   51.1810 N   0  0  0  0  0  0  0  0  0  0  0  0
   59.0610   29.9690   51.8880 C   0  0  0  0  0  0  0  0  0  0  0  0
   58.6791   29.0143   52.2787 H   0  0  0  0  0  0  0  0  0  0  0  0
   59.3150   30.9370   53.0510 C   0  0  0  0  0  0  0  0  0  0  0  0
   60.1148   30.5266   53.6849 H   0  0  0  0  0  0  0  0  0  0  0  0
   58.3745   31.0448   53.6113 H   0  0  0  0  0  0  0  0  0  0  0  0
   59.7390   32.3420   52.5620 C   0  0  0  0  0  0  0  0  0  0  0  0
   60.8260   32.4478   52.6929 H   0  0  0  0  0  0  0  0  0  0  0  0
   59.1856   33.0836   53.1567 H   0  0  0  0  0  0  0  0  0  0  0  0
   59.4080   32.5710   51.1370 N   0  0  0  0  0  0  0  0  0  0  0  0
   59.5300   34.0000   50.8110 C   0  0  0  0  0  0  0  0  0  0  0  0
   59.5800   34.5853   51.7410 H   0  0  0  0  0  0  0  0  0  0  0  0
   60.4455   34.1653   50.2241 H   0  0  0  0  0  0  0  0  0  0  0  0
   58.6557   34.3181   50.2241 H   0  0  0  0  0  0  0  0  0  0  0  0
   58.0500   32.0850   50.8290 C   0  0  0  0  0  0  0  0  0  0  0  0
   57.7785   32.3907   49.8078 H   0  0  0  0  0  0  0  0  0  0  0  0
   57.3434   32.5169   51.5530 H   0  0  0  0  0  0  0  0  0  0  0  0
   57.9940   30.5490   50.9310 C   0  0  0  0  0  0  0  0  0  0  0  0
   58.1541   30.1248   49.9288 H   0  0  0  0  0  0  0  0  0  0  0  0
   57.0072   30.2814   51.3366 H   0  0  0  0  0  0  0  0  0  0  0  0
   59.2600   28.9760   48.5440 C   0  0  0  0  0  0  0  0  0  0  0  0
   58.8458   29.8451   49.0761 H   0  0  0  0  0  0  0  0  0  0  0  0
   58.8150   28.6750   47.2490 C   0  0  0  0  0  0  0  0  0  0  0  0
   57.9310   29.4880   46.7290 N   0  0  0  0  0  0  0  0  0  0  0  0
   58.1390   30.6650   45.9420 C   0  0  0  0  0  0  0  0  0  0  0  0
   57.6980   30.6830   44.7630 O   0  0  0  0  0  0  0  0  0  0  0  0
   58.8950   31.8220   46.5030 C   0  0  0  0  0  0  0  0  0  0  0  0
   60.0550   31.5640   47.2630 C   0  0  0  0  0  0  0  0  0  0  0  0
   60.4070   30.5277   47.3733 H   0  0  0  0  0  0  0  0  0  0  0  0
   60.7690   32.6010   47.8810 C   0  0  0  0  0  0  0  0  0  0  0  0
   61.9570   32.2790   48.7070 C   0  0  0  0  0  0  0  0  0  0  0  0
   63.2330   32.7230   48.3200 C   0  0  0  0  0  0  0  0  0  0  0  0
   63.3625   33.2890   47.3857 H   0  0  0  0  0  0  0  0  0  0  0  0
   64.3350   32.4410   49.1290 C   0  0  0  0  0  0  0  0  0  0  0  0
   65.3382   32.7815   48.8331 H   0  0  0  0  0  0  0  0  0  0  0  0
   64.1600   31.7260   50.3140 C   0  0  0  0  0  0  0  0  0  0  0  0
   65.0223   31.4988   50.9581 H   0  0  0  0  0  0  0  0  0  0  0  0
   62.8810   31.3020   50.6740 C   0  0  0  0  0  0  0  0  0  0  0  0
   62.7333   30.7368   51.6061 H   0  0  0  0  0  0  0  0  0  0  0  0
   61.8140   31.5850   49.8760 N   0  0  0  0  0  0  0  0  0  0  0  0
   60.8720   31.2420   50.1700 H   0  0  0  0  0  0  0  0  0  0  0  0
   60.3330   33.9250   47.7170 C   0  0  0  0  0  0  0  0  0  0  0  0
   61.0240   34.9570   48.2640 F   0  0  0  0  0  0  0  0  0  0  0  0
   59.1930   34.1980   46.9640 C   0  0  0  0  0  0  0  0  0  0  0  0
   58.8599   35.2393   46.8428 H   0  0  0  0  0  0  0  0  0  0  0  0
   58.4660   33.1670   46.3600 C   0  0  0  0  0  0  0  0  0  0  0  0
   57.0230   33.6350   45.4630 Cl  0  0  0  0  0  0  0  0  0  0  0  0
   58.8310   27.7950   44.1950 C   0  0  0  0  0  0  0  0  0  0  0  0
   59.2835   28.7975   44.2067 H   0  0  0  0  0  0  0  0  0  0  0  0
   58.3110   27.2770   43.0050 C   0  0  0  0  0  0  0  0  0  0  0  0
   58.3393   27.8793   42.0850 H   0  0  0  0  0  0  0  0  0  0  0  0
  1  2  1  0
  2  3  2  0
  3  4  1  0
  3  5  1  0
  5  6  1  0
  5  7  2  0
  7  8  1  0
  8  9  1  0
  9 10  1  0
  9 11  2  0
 11 12  1  0
 11 13  1  0
 13 14  1  0
 14 15  2  0
 14 16  1  0
 16 17  1  0
 17 18  1  0
 17 19  1  0
 19 20  1  0
 19 21  1  0
 19 22  1  0
 22 23  1  0
 22 24  1  0
 22 25  1  0
 25 26  1  0
 26 27  1  0
 26 28  1  0
 26 29  1  0
 25 30  1  0
 30 31  1  0
 30 32  1  0
 30 33  1  0
 33 34  1  0
 33 35  1  0
 13 36  2  0
 36 37  1  0
 36 38  1  0
 38 39  2  0
 39 40  1  0
 40 41  2  0
 40 42  1  0
 42 43  2  0
 43 44  1  0
 43 45  1  0
 45 46  1  0
 46 47  2  0
 47 48  1  0
 47 49  1  0
 49 50  1  0
 49 51  2  0
 51 52  1  0
 51 53  1  0
 53 54  1  0
 53 55  2  0
 55 56  1  0
 45 57  2  0
 57 58  1  0
 57 59  1  0
 59 60  1  0
 59 61  2  0
 61 62  1  0
  7 63  1  0
 63 64  1  0
 63 65  2  0
 65 66  1  0
 65  2  1  0
 38  8  1  0
 61 42  1  0
 33 17  1  0
 55 46  1  0
M  CHG  2  16  -1  55   1
M  END
>  <UniqueID>  (86) 
72

>  <SMILES>  (86) 
CN1CCC([N-]C(=O)c2ccn(-c3ccccc3)/c(=N\C(=O)c3cc(-c4cccc[nH+]4)c(F)cc3Cl)c2)CC1

>  <Energy>  (86) 
113.40138948046403

>  <Genealogy>  (86) 
CN1CCC([N-]C(=O)c2ccn(-c3ccccc3)c(=NC(=O)c3cc(-c4cccc[nH+]4)c(F)cc3Cl)c2)CC1 (protonated)
CN1CCC([N-]C(=O)c2ccn(-c3ccccc3)/c(=N\C(=O)c3cc(-c4cccc[nH+]4)c(F)cc3Cl)c2)CC1 (cis-trans isomerization)
CN1CCC([N-]C(=O)c2ccn(-c3ccccc3)/c(=N\C(=O)c3cc(-c4cccc[nH+]4)c(F)cc3Cl)c2)CC1 (3D coordinates assigned)
CN1CCC([N-]C(=O)c2ccn(-c3ccccc3)/c(=N\C(=O)c3cc(-c4cccc[nH+]4)c(F)cc3Cl)c2)CC1 (nonaromatic ring conformer: 113.40138948046403 kcal/mol)

>  <smiles>  (86) 
CN1CCC(NC(=O)c2ccn(-c3ccccc3)c(=NC(=O)c3cc(-c4ccccn4)c(F)cc3Cl)c2)CC1

>  <score_type>  (86) 
oracle

>  <origin>  (86) 
adg

>  <m_score__min__energy>  (86) 
-10.5

>  <m_primary>  (86) 
energy

$$$$
86:0
     RDKit          3D

 23 24  0  0  0  0  0  0  0  0999 V2000
   54.2050   24.8160   46.7410 H   0  0  0  0  0  0  0  0  0  0  0  0
   54.7650   25.1490   45.9250 N   0  0  0  0  0  0  0  0  0  0  0  0
   55.8920   25.7800   46.0670 C   0  0  0  0  0  0  0  0  0  0  0  0
   57.0060   25.1190   46.6120 C   0  0  0  0  0  0  0  0  0  0  0  0
   56.9340   23.7400   47.0310 C   0  0  0  0  0  0  0  0  0  0  0  0
   56.8760   22.6330   47.3680 N   0  0  0  0  0  0  0  0  0  0  0  0
   58.2110   25.8130   46.7430 C   0  0  0  0  0  0  0  0  0  0  0  0
   59.0933   25.3080   47.1631 H   0  0  0  0  0  0  0  0  0  0  0  0
   58.2960   27.1440   46.3420 C   0  0  0  0  0  0  0  0  0  0  0  0
   59.2468   27.6888   46.4380 H   0  0  0  0  0  0  0  0  0  0  0  0
   57.1660   27.7890   45.8150 C   0  0  0  0  0  0  0  0  0  0  0  0
   57.2600   29.2080   45.3910 C   0  0  0  0  0  0  0  0  0  0  0  0
   56.1950   29.7930   44.7690 N   0  0  0  0  0  0  0  0  0  0  0  0
   56.2220   31.0880   44.3540 C   0  0  0  0  0  0  0  0  0  0  0  0
   55.3416   31.5247   43.8598 H   0  0  0  0  0  0  0  0  0  0  0  0
   57.3640   31.8630   44.5540 C   0  0  0  0  0  0  0  0  0  0  0  0
   57.3893   32.9122   44.2244 H   0  0  0  0  0  0  0  0  0  0  0  0
   58.4740   31.2920   45.1770 C   0  0  0  0  0  0  0  0  0  0  0  0
   59.3832   31.8899   45.3375 H   0  0  0  0  0  0  0  0  0  0  0  0
   58.4300   29.9600   45.5970 C   0  0  0  0  0  0  0  0  0  0  0  0
   59.3038   29.5034   46.0849 H   0  0  0  0  0  0  0  0  0  0  0  0
   55.9980   27.0880   45.6810 N   0  0  0  0  0  0  0  0  0  0  0  0
   55.1670   27.5500   45.2470 H   0  0  0  0  0  0  0  0  0  0  0  0
  1  2  1  0
  2  3  2  0
  3  4  1  0
  4  5  1  0
  5  6  3  0
  4  7  2  0
  7  8  1  0
  7  9  1  0
  9 10  1  0
  9 11  2  0
 11 12  1  0
 12 13  2  0
 13 14  1  0
 14 15  1  0
 14 16  2  0
 16 17  1  0
 16 18  1  0
 18 19  1  0
 18 20  2  0
 20 21  1  0
 11 22  1  0
 22 23  1  0
 22  3  1  0
 20 12  1  0
M  END
>  <UniqueID>  (87) 
73

>  <SMILES>  (87) 
[H]/N=c1\[nH]c(-c2ccccn2)ccc1C#N

>  <Energy>  (87) 
29.275660782847012

>  <Genealogy>  (87) 
[H]/N=c1\[nH]c(-c2ccccn2)ccc1C#N (cis-trans isomerization)
[H]/N=c1\[nH]c(-c2ccccn2)ccc1C#N (3D coordinates assigned)
[H]/N=c1\[nH]c(-c2ccccn2)ccc1C#N (optimized conformer: 29.275660782847012 kcal/mol)

>  <smiles>  (87) 
N#Cc1ccc(-c2ccccn2)[nH]c1=N

>  <score_type>  (87) 
oracle

>  <origin>  (87) 
adg

>  <m_score__min__energy>  (87) 
-6.5300000000000002

>  <m_primary>  (87) 
energy

$$$$
87:0
     RDKit          3D

 59 61  0  0  0  0  0  0  0  0999 V2000
   56.6818   22.0537   43.2263 H   0  0  0  0  0  0  0  0  0  0  0  0
   56.6020   22.9500   43.8590 C   0  0  0  0  0  0  0  0  0  0  0  0
   57.7460   23.6840   44.1750 C   0  0  0  0  0  0  0  0  0  0  0  0
   58.7262   23.3653   43.7907 H   0  0  0  0  0  0  0  0  0  0  0  0
   57.6490   24.8220   44.9780 C   0  0  0  0  0  0  0  0  0  0  0  0
   58.5541   25.3974   45.2226 H   0  0  0  0  0  0  0  0  0  0  0  0
   56.4010   25.2370   45.4760 C   0  0  0  0  0  0  0  0  0  0  0  0
   56.3180   26.4440   46.3790 C   0  0  0  0  0  0  0  0  0  0  0  0
   57.2977   26.6102   46.8509 H   0  0  0  0  0  0  0  0  0  0  0  0
   55.5516   26.2600   47.1463 H   0  0  0  0  0  0  0  0  0  0  0  0
   55.9440   27.6350   45.6160 N   0  0  0  0  0  0  0  0  0  0  0  0
   56.7860   28.5430   45.2240 C   0  0  0  0  0  0  0  0  0  0  0  0
   56.4420   29.7940   44.8640 N   0  0  0  0  0  0  0  0  0  0  0  0
   57.5670   30.4220   44.5590 N   0  0  0  0  0  0  0  0  0  0  0  0
   57.6330   31.8040   44.0820 C   0  0  0  0  0  0  0  0  0  0  0  0
   56.9065   31.9344   43.2664 H   0  0  0  0  0  0  0  0  0  0  0  0
   58.6580   31.9968   43.7325 H   0  0  0  0  0  0  0  0  0  0  0  0
   57.3120   32.8090   45.2000 C   0  0  0  0  0  0  0  0  0  0  0  0
   56.2229   32.9596   45.2331 H   0  0  0  0  0  0  0  0  0  0  0  0
   57.8499   33.7401   44.9682 H   0  0  0  0  0  0  0  0  0  0  0  0
   57.7820   32.3420   46.5820 C   0  0  0  0  0  0  0  0  0  0  0  0
   57.1935   31.4639   46.8862 H   0  0  0  0  0  0  0  0  0  0  0  0
   57.6404   33.1628   47.3005 H   0  0  0  0  0  0  0  0  0  0  0  0
   59.2070   31.9810   46.5500 N   0  0  0  0  0  0  0  0  0  0  0  0
   59.6810   32.6220   45.8710 H   0  0  0  0  0  0  0  0  0  0  0  0
   59.8350   32.1620   47.8660 C   0  0  0  0  0  0  0  0  0  0  0  0
   59.8024   31.2114   48.4186 H   0  0  0  0  0  0  0  0  0  0  0  0
   59.2879   32.9373   48.4225 H   0  0  0  0  0  0  0  0  0  0  0  0
   61.2720   32.5940   47.7000 C   0  0  0  0  0  0  0  0  0  0  0  0
   62.2430   32.0640   48.5660 C   0  0  0  0  0  0  0  0  0  0  0  0
   61.9465   31.3230   49.3230 H   0  0  0  0  0  0  0  0  0  0  0  0
   63.5790   32.4630   48.4810 C   0  0  0  0  0  0  0  0  0  0  0  0
   64.4990   31.9050   49.3800 O   0  0  0  0  0  0  0  0  0  0  0  0
   65.4920   32.6490   50.0780 C   0  0  0  0  0  0  0  0  0  0  0  0
   65.3408   32.5357   51.1617 H   0  0  0  0  0  0  0  0  0  0  0  0
   66.4898   32.2743   49.8058 H   0  0  0  0  0  0  0  0  0  0  0  0
   65.4127   33.7118   49.8058 H   0  0  0  0  0  0  0  0  0  0  0  0
   63.9510   33.4080   47.5110 C   0  0  0  0  0  0  0  0  0  0  0  0
   65.0021   33.7216   47.4275 H   0  0  0  0  0  0  0  0  0  0  0  0
   62.9950   33.9510   46.6530 C   0  0  0  0  0  0  0  0  0  0  0  0
   63.2979   34.6949   45.9014 H   0  0  0  0  0  0  0  0  0  0  0  0
   61.6470   33.5570   46.7390 C   0  0  0  0  0  0  0  0  0  0  0  0
   60.6640   34.1000   45.8930 O   0  0  0  0  0  0  0  0  0  0  0  0
   59.7780   35.1560   46.2540 C   0  0  0  0  0  0  0  0  0  0  0  0
   59.7189   35.2264   47.3502 H   0  0  0  0  0  0  0  0  0  0  0  0
   60.1536   36.1057   45.8453 H   0  0  0  0  0  0  0  0  0  0  0  0
   58.7775   34.9511   45.8453 H   0  0  0  0  0  0  0  0  0  0  0  0
   58.6160   29.5840   44.6930 C   0  0  0  0  0  0  0  0  0  0  0  0
   59.6677   29.8351   44.4907 H   0  0  0  0  0  0  0  0  0  0  0  0
   58.1500   28.3600   45.1260 C   0  0  0  0  0  0  0  0  0  0  0  0
   58.7301   27.4508   45.3425 H   0  0  0  0  0  0  0  0  0  0  0  0
   55.2420   24.4980   45.1590 C   0  0  0  0  0  0  0  0  0  0  0  0
   54.0050   24.9260   45.6680 O   0  0  0  0  0  0  0  0  0  0  0  0
   52.7400   24.4240   45.2470 C   0  0  0  0  0  0  0  0  0  0  0  0
   52.1295   24.1817   46.1294 H   0  0  0  0  0  0  0  0  0  0  0  0
   52.2256   25.1861   44.6433 H   0  0  0  0  0  0  0  0  0  0  0  0
   52.8881   23.5165   44.6433 H   0  0  0  0  0  0  0  0  0  0  0  0
   55.3560   23.3520   44.3450 C   0  0  0  0  0  0  0  0  0  0  0  0
   54.4573   22.7708   44.0911 H   0  0  0  0  0  0  0  0  0  0  0  0
  1  2  1  0
  2  3  2  0
  3  4  1  0
  3  5  1  0
  5  6  1  0
  5  7  2  0
  7  8  1  0
  8  9  1  0
  8 10  1  0
  8 11  1  0
 11 12  2  0
 12 13  1  0
 13 14  1  0
 14 15  1  0
 15 16  1  0
 15 17  1  0
 15 18  1  0
 18 19  1  0
 18 20  1  0
 18 21  1  0
 21 22  1  0
 21 23  1  0
 21 24  1  0
 24 25  1  0
 24 26  1  0
 26 27  1  0
 26 28  1  0
 26 29  1  0
 29 30  2  0
 30 31  1  0
 30 32  1  0
 32 33  1  0
 33 34  1  0
 34 35  1  0
 34 36  1  0
 34 37  1  0
 32 38  2  0
 38 39  1  0
 38 40  1  0
 40 41  1  0
 40 42  2  0
 42 43  1  0
 43 44  1  0
 44 45  1  0
 44 46  1  0
 44 47  1  0
 14 48  1  0
 48 49  1  0
 48 50  2  0
 50 51  1  0
  7 52  1  0
 52 53  1  0
 53 54  1  0
 54 55  1  0
 54 56  1  0
 54 57  1  0
 52 58  2  0
 58 59  1  0
 58  2  1  0
 50 12  1  0
 42 29  1  0
M  CHG  1  13  -1
M  END
>  <UniqueID>  (88) 
74

>  <SMILES>  (88) 
COc1ccc(OC)c(CNCCCn2cc/c(=N/Cc3ccccc3OC)[n-]2)c1

>  <Energy>  (88) 
78.50014795883119

>  <Genealogy>  (88) 
COc1ccc(OC)c(CNCCCn2ccc(=NCc3ccccc3OC)[n-]2)c1 (protonated)
COc1ccc(OC)c(CNCCCn2cc/c(=N/Cc3ccccc3OC)[n-]2)c1 (cis-trans isomerization)
COc1ccc(OC)c(CNCCCn2cc/c(=N/Cc3ccccc3OC)[n-]2)c1 (3D coordinates assigned)
COc1ccc(OC)c(CNCCCn2cc/c(=N/Cc3ccccc3OC)[n-]2)c1 (optimized conformer: 78.50014795883119 kcal/mol)

>  <smiles>  (88) 
COc1ccc(OC)c(CNCCCn2ccc(=NCc3ccccc3OC)[nH]2)c1

>  <score_type>  (88) 
oracle

>  <origin>  (88) 
adg

>  <m_score__min__energy>  (88) 
-9.2699999999999996

>  <m_primary>  (88) 
energy

$$$$
88:0
     RDKit          3D

 36 39  0  0  0  0  0  0  0  0999 V2000
   59.1465   34.5073   49.5674 H   0  0  0  0  0  0  0  0  0  0  0  0
   60.1930   34.2210   49.3860 C   0  0  0  0  0  0  0  0  0  0  0  0
   60.9980   33.8850   50.4420 N   0  0  0  0  0  0  0  0  0  0  0  0
   62.2990   33.5060   50.2710 C   0  0  0  0  0  0  0  0  0  0  0  0
   62.9304   33.2455   51.1332 H   0  0  0  0  0  0  0  0  0  0  0  0
   62.8020   33.4590   48.9770 C   0  0  0  0  0  0  0  0  0  0  0  0
   64.0340   33.0710   48.5000 C   0  0  0  0  0  0  0  0  0  0  0  0
   64.9069   32.7468   49.0856 H   0  0  0  0  0  0  0  0  0  0  0  0
   63.9350   33.1780   47.1180 C   0  0  0  0  0  0  0  0  0  0  0  0
   64.7467   32.9435   46.4137 H   0  0  0  0  0  0  0  0  0  0  0  0
   62.7040   33.6100   46.7560 N   0  0  0  0  0  0  0  0  0  0  0  0
   62.3620   33.7450   45.7790 H   0  0  0  0  0  0  0  0  0  0  0  0
   62.0240   33.7900   47.9020 C   0  0  0  0  0  0  0  0  0  0  0  0
   60.6940   34.2030   48.0700 C   0  0  0  0  0  0  0  0  0  0  0  0
   59.8610   34.5530   47.0000 O   0  0  0  0  0  0  0  0  0  0  0  0
   58.9790   33.6770   46.3510 C   0  0  0  0  0  0  0  0  0  0  0  0
   57.9420   34.2160   45.5820 C   0  0  0  0  0  0  0  0  0  0  0  0
   57.8306   35.3076   45.5046 H   0  0  0  0  0  0  0  0  0  0  0  0
   57.0460   33.3780   44.9110 C   0  0  0  0  0  0  0  0  0  0  0  0
   56.2238   33.8130   44.3238 H   0  0  0  0  0  0  0  0  0  0  0  0
   57.1920   31.9810   44.9840 C   0  0  0  0  0  0  0  0  0  0  0  0
   56.2810   31.0840   44.3310 N   0  0  0  0  0  0  0  0  0  0  0  0
   56.4290   29.6660   44.1940 C   0  0  0  0  0  0  0  0  0  0  0  0
   57.0370   29.1840   43.2000 O   0  0  0  0  0  0  0  0  0  0  0  0
   55.9230   28.8200   45.2380 N   0  0  0  0  0  0  0  0  0  0  0  0
   56.3720   27.6540   45.6030 C   0  0  0  0  0  0  0  0  0  0  0  0
   55.5460   26.6670   46.0090 N   0  0  0  0  0  0  0  0  0  0  0  0
   56.2290   25.5370   46.3370 C   0  0  0  0  0  0  0  0  0  0  0  0
   55.7251   24.6254   46.6908 H   0  0  0  0  0  0  0  0  0  0  0  0
   57.6090   25.6170   46.1930 C   0  0  0  0  0  0  0  0  0  0  0  0
   58.3288   24.8134   46.4076 H   0  0  0  0  0  0  0  0  0  0  0  0
   57.9860   27.1580   45.6330 S   0  0  0  0  0  0  0  0  0  0  0  0
   58.2250   31.4420   45.7610 C   0  0  0  0  0  0  0  0  0  0  0  0
   58.3313   30.3504   45.8457 H   0  0  0  0  0  0  0  0  0  0  0  0
   59.1210   32.2790   46.4290 C   0  0  0  0  0  0  0  0  0  0  0  0
   59.9413   31.8439   47.0187 H   0  0  0  0  0  0  0  0  0  0  0  0
  1  2  1  0
  2  3  2  0
  3  4  1  0
  4  5  1  0
  4  6  2  0
  6  7  1  0
  7  8  1  0
  7  9  2  0
  9 10  1  0
  9 11  1  0
 11 12  1  0
 11 13  1  0
 13 14  2  0
 14 15  1  0
 15 16  1  0
 16 17  2  0
 17 18  1  0
 17 19  1  0
 19 20  1  0
 19 21  2  0
 21 22  1  0
 22 23  1  0
 23 24  2  0
 23 25  1  0
 25 26  2  0
 26 27  1  0
 27 28  1  0
 28 29  1  0
 28 30  2  0
 30 31  1  0
 30 32  1  0
 21 33  1  0
 33 34  1  0
 33 35  2  0
 35 36  1  0
 14  2  1  0
 35 16  1  0
 13  6  1  0
 32 26  1  0
M  CHG  2  22  -1  27  -1
M  END
>  <UniqueID>  (89) 
75

>  <SMILES>  (89) 
O=C(/N=c1/[n-]ccs1)[N-]c1ccc(Oc2cncc3cc[nH]c23)cc1

>  <Energy>  (89) 
119.03951604612182

>  <Genealogy>  (89) 
O=C(N=c1[n-]ccs1)[N-]c1ccc(Oc2cncc3cc[nH]c23)cc1 (protonated)
O=C(/N=c1/[n-]ccs1)[N-]c1ccc(Oc2cncc3cc[nH]c23)cc1 (cis-trans isomerization)
O=C(/N=c1/[n-]ccs1)[N-]c1ccc(Oc2cncc3cc[nH]c23)cc1 (3D coordinates assigned)
O=C(/N=c1/[n-]ccs1)[N-]c1ccc(Oc2cncc3cc[nH]c23)cc1 (optimized conformer: 119.03951604612182 kcal/mol)

>  <smiles>  (89) 
O=C(N=c1[nH]ccs1)Nc1ccc(Oc2cncc3cc[nH]c23)cc1

>  <score_type>  (89) 
oracle

>  <origin>  (89) 
adg

>  <m_score__min__energy>  (89) 
-10.710000000000001

>  <m_primary>  (89) 
energy

$$$$
89:0
     RDKit          3D

 44 47  0  0  0  0  0  0  0  0999 V2000
   60.0420   29.7990   46.3450 C   0  0  0  0  0  0  0  0  0  0  0  0
   59.0930   29.2660   45.3060 C   0  0  0  0  0  0  0  0  0  0  0  0
   59.3510   28.0120   44.7260 C   0  0  0  0  0  0  0  0  0  0  0  0
   58.5080   27.5020   43.7360 C   0  0  0  0  0  0  0  0  0  0  0  0
   57.3980   28.2350   43.3150 C   0  0  0  0  0  0  0  0  0  0  0  0
   57.1180   29.4730   43.8960 C   0  0  0  0  0  0  0  0  0  0  0  0
   57.9420   29.9860   44.9090 C   0  0  0  0  0  0  0  0  0  0  0  0
   57.6090   31.2540   45.4890 N   0  0  0  0  0  0  0  0  0  0  0  0
   57.4500   32.4390   44.6950 C   0  0  0  0  0  0  0  0  0  0  0  0
   57.4340   32.3670   43.4360 O   0  0  0  0  0  0  0  0  0  0  0  0
   57.3860   33.7850   45.3520 C   0  0  0  0  0  0  0  0  0  0  0  0
   58.5430   33.9620   46.2440 N   0  0  0  0  0  0  0  0  0  0  0  0
   59.6580   34.6140   45.7730 C   0  0  0  0  0  0  0  0  0  0  0  0
   60.7580   34.7720   46.5600 N   0  0  0  0  0  0  0  0  0  0  0  0
   60.7540   34.2510   47.8060 C   0  0  0  0  0  0  0  0  0  0  0  0
   61.9900   34.3400   48.9310 S   0  0  0  0  0  0  0  0  0  0  0  0
   61.1650   33.4600   50.1150 C   0  0  0  0  0  0  0  0  0  0  0  0
   59.9130   33.0790   49.6240 C   0  0  0  0  0  0  0  0  0  0  0  0
   59.0030   32.2100   50.3990 C   0  0  0  0  0  0  0  0  0  0  0  0
   58.2070   32.7530   51.4200 C   0  0  0  0  0  0  0  0  0  0  0  0
   57.3650   31.9270   52.1720 C   0  0  0  0  0  0  0  0  0  0  0  0
   57.3240   30.5530   51.9190 C   0  0  0  0  0  0  0  0  0  0  0  0
   58.1290   30.0020   50.9190 C   0  0  0  0  0  0  0  0  0  0  0  0
   58.9720   30.8240   50.1660 C   0  0  0  0  0  0  0  0  0  0  0  0
   59.6790   33.5540   48.3140 C   0  0  0  0  0  0  0  0  0  0  0  0
   58.5300   33.4400   47.5180 C   0  0  0  0  0  0  0  0  0  0  0  0
   57.4930   32.8850   47.9700 O   0  0  0  0  0  0  0  0  0  0  0  0
   59.6489   29.5782   47.3483 H   0  0  0  0  0  0  0  0  0  0  0  0
   61.0252   29.3211   46.2231 H   0  0  0  0  0  0  0  0  0  0  0  0
   60.1456   30.8873   46.2231 H   0  0  0  0  0  0  0  0  0  0  0  0
   60.2234   27.4278   45.0542 H   0  0  0  0  0  0  0  0  0  0  0  0
   58.7197   26.5203   43.2872 H   0  0  0  0  0  0  0  0  0  0  0  0
   56.7436   27.8374   42.5253 H   0  0  0  0  0  0  0  0  0  0  0  0
   56.2452   30.0504   43.5572 H   0  0  0  0  0  0  0  0  0  0  0  0
   57.7310   31.3590   46.5210 H   0  0  0  0  0  0  0  0  0  0  0  0
   57.3972   34.5686   44.5801 H   0  0  0  0  0  0  0  0  0  0  0  0
   56.4599   33.8569   45.9412 H   0  0  0  0  0  0  0  0  0  0  0  0
   59.6616   35.0129   44.7479 H   0  0  0  0  0  0  0  0  0  0  0  0
   61.5532   33.2237   51.1167 H   0  0  0  0  0  0  0  0  0  0  0  0
   58.2456   33.8322   51.6295 H   0  0  0  0  0  0  0  0  0  0  0  0
   56.7346   32.3592   52.9631 H   0  0  0  0  0  0  0  0  0  0  0  0
   56.6576   29.9053   52.5075 H   0  0  0  0  0  0  0  0  0  0  0  0
   58.0993   28.9198   50.7240 H   0  0  0  0  0  0  0  0  0  0  0  0
   59.6137   30.3847   49.3880 H   0  0  0  0  0  0  0  0  0  0  0  0
  1  2  1  0
  2  3  2  0
  3  4  1  0
  4  5  2  0
  5  6  1  0
  6  7  2  0
  7  8  1  0
  8  9  1  0
  9 10  2  0
  9 11  1  0
 11 12  1  0
 12 13  1  0
 13 14  2  0
 14 15  1  0
 15 16  1  0
 16 17  1  0
 17 18  2  0
 18 19  1  0
 19 20  2  0
 20 21  1  0
 21 22  2  0
 22 23  1  0
 23 24  2  0
 18 25  1  0
 25 26  1  0
 26 27  2  0
  7  2  1  0
 26 12  1  0
 25 15  2  0
 24 19  1  0
  1 28  1  0
  1 29  1  0
  1 30  1  0
  3 31  1  0
  4 32  1  0
  5 33  1  0
  6 34  1  0
  8 35  1  0
 11 36  1  0
 11 37  1  0
 13 38  1  0
 17 39  1  0
 20 40  1  0
 21 41  1  0
 22 42  1  0
 23 43  1  0
 24 44  1  0
M  END
>  <UniqueID>  (90) 
76

>  <SMILES>  (90) 
Cc1ccccc1NC(=O)Cn1cnc2scc(-c3ccccc3)c2c1=O

>  <Energy>  (90) 
95.04610309942869

>  <Genealogy>  (90) 
Cc1ccccc1NC(=O)Cn1cnc2scc(-c3ccccc3)c2c1=O (3D coordinates assigned)
Cc1ccccc1NC(=O)Cn1cnc2scc(-c3ccccc3)c2c1=O (optimized conformer: 95.04610309942869 kcal/mol)

>  <smiles>  (90) 
Cc1ccccc1NC(=O)Cn1cnc2scc(-c3ccccc3)c2c1=O

>  <score_type>  (90) 
oracle

>  <origin>  (90) 
adg

>  <m_score__min__energy>  (90) 
-7.7699999999999996

>  <m_primary>  (90) 
energy

$$$$
90:0
     RDKit          3D

 86 89  0  0  0  0  0  0  0  0999 V2000
   63.3290   34.3370   51.1730 H   0  0  0  0  0  0  0  0  0  0  0  0
   63.2600   33.7490   51.9690 O   0  0  0  0  0  0  0  0  0  0  0  0
   61.8900   33.6010   52.2290 C   0  0  0  0  0  0  0  0  0  0  0  0
   61.3223   33.9151   51.3407 H   0  0  0  0  0  0  0  0  0  0  0  0
   61.6359   34.2245   53.0989 H   0  0  0  0  0  0  0  0  0  0  0  0
   61.5240   32.1180   52.5670 C   0  0  2  0  0  0  0  0  0  0  0  0
   60.5360   32.1930   53.7670 C   0  0  0  0  0  0  0  0  0  0  0  0
   61.1006   32.1501   54.7101 H   0  0  0  0  0  0  0  0  0  0  0  0
   59.9725   33.1365   53.7196 H   0  0  0  0  0  0  0  0  0  0  0  0
   59.8365   31.3454   53.7196 H   0  0  0  0  0  0  0  0  0  0  0  0
   62.8480   31.3620   53.0010 C   0  0  1  0  0  0  0  0  0  0  0  0
   63.5555   32.1551   53.2847 H   0  0  0  0  0  0  0  0  0  0  0  0
   62.6350   30.5180   54.1060 O   0  0  0  0  0  0  0  0  0  0  0  0
   63.5250   30.3140   54.5020 H   0  0  0  0  0  0  0  0  0  0  0  0
   63.4710   30.5440   51.8510 C   0  0  0  0  0  0  0  0  0  0  0  0
   64.3763   30.0467   52.2294 H   0  0  0  0  0  0  0  0  0  0  0  0
   63.6892   31.2499   51.0361 H   0  0  0  0  0  0  0  0  0  0  0  0
   62.5270   29.4650   51.2730 C   0  0  0  0  0  0  0  0  0  0  0  0
   62.6228   28.5609   51.8923 H   0  0  0  0  0  0  0  0  0  0  0  0
   62.8364   29.3142   50.2282 H   0  0  0  0  0  0  0  0  0  0  0  0
   61.0060   29.8660   51.2270 C   0  0  2  0  0  0  0  0  0  0  0  0
   60.3020   29.1370   52.4140 C   0  0  0  0  0  0  0  0  0  0  0  0
   60.6845   29.5331   53.3663 H   0  0  0  0  0  0  0  0  0  0  0  0
   59.2166   29.3060   52.3562 H   0  0  0  0  0  0  0  0  0  0  0  0
   60.5087   28.0581   52.3562 H   0  0  0  0  0  0  0  0  0  0  0  0
   60.3360   29.3510   49.8980 C   0  0  2  0  0  0  0  0  0  0  0  0
   60.4458   28.2580   49.9557 H   0  0  0  0  0  0  0  0  0  0  0  0
   61.0370   29.8240   48.6250 C   0  0  0  0  0  0  0  0  0  0  0  0
   60.8057   29.2940   47.6892 H   0  0  0  0  0  0  0  0  0  0  0  0
   61.9190   30.8440   48.5640 C   0  0  0  0  0  0  0  0  0  0  0  0
   62.8028   30.7918   49.2169 H   0  0  0  0  0  0  0  0  0  0  0  0
   61.7830   32.0610   47.6600 C   0  0  2  0  0  0  0  0  0  0  0  0
   61.0674   31.7797   46.8734 H   0  0  0  0  0  0  0  0  0  0  0  0
   63.1520   32.4660   47.0830 C   0  0  0  0  0  0  0  0  0  0  0  0
   63.0250   32.9342   46.0957 H   0  0  0  0  0  0  0  0  0  0  0  0
   63.8041   31.5898   46.9528 H   0  0  0  0  0  0  0  0  0  0  0  0
   63.7570   33.4630   48.0650 C   0  0  0  0  0  0  0  0  0  0  0  0
   64.2733   34.2751   47.5321 H   0  0  0  0  0  0  0  0  0  0  0  0
   64.5120   33.0094   48.7240 H   0  0  0  0  0  0  0  0  0  0  0  0
   62.5830   33.9790   48.8050 C   0  0  0  0  0  0  0  0  0  0  0  0
   62.6680   34.8580   49.6440 O   0  0  0  0  0  0  0  0  0  0  0  0
   61.3020   33.2980   48.4570 C   0  0  1  0  0  0  0  0  0  0  0  0
   60.6899   33.0401   49.3338 H   0  0  0  0  0  0  0  0  0  0  0  0
   60.4010   34.2110   47.5910 C   0  0  0  0  0  0  0  0  0  0  0  0
   60.7079   34.1131   46.5392 H   0  0  0  0  0  0  0  0  0  0  0  0
   60.5233   35.2415   47.9557 H   0  0  0  0  0  0  0  0  0  0  0  0
   58.9120   33.8520   47.7040 C   0  0  0  0  0  0  0  0  0  0  0  0
   58.3077   34.7553   47.5341 H   0  0  0  0  0  0  0  0  0  0  0  0
   58.7177   33.4501   48.7093 H   0  0  0  0  0  0  0  0  0  0  0  0
   58.5410   32.8030   46.6760 C   0  0  0  0  0  0  0  0  0  0  0  0
   58.6540   31.4520   47.0380 C   0  0  0  0  0  0  0  0  0  0  0  0
   59.0223   31.1939   48.0419 H   0  0  0  0  0  0  0  0  0  0  0  0
   58.3080   30.4220   46.1490 C   0  0  0  0  0  0  0  0  0  0  0  0
   58.4630   28.9920   46.5980 C   0  0  0  0  0  0  0  0  0  0  0  0
   58.4674   28.9513   47.6972 H   0  0  0  0  0  0  0  0  0  0  0  0
   57.6245   28.3936   46.2123 H   0  0  0  0  0  0  0  0  0  0  0  0
   59.4103   28.5872   46.2123 H   0  0  0  0  0  0  0  0  0  0  0  0
   57.8170   30.7520   44.8640 C   0  0  0  0  0  0  0  0  0  0  0  0
   57.4910   29.6990   43.8280 C   0  0  0  0  0  0  0  0  0  0  0  0
   57.6622   28.7017   44.2594 H   0  0  0  0  0  0  0  0  0  0  0  0
   58.1387   29.8498   42.9518 H   0  0  0  0  0  0  0  0  0  0  0  0
   56.0320   29.8130   43.3890 C   0  0  0  0  0  0  0  0  0  0  0  0
   55.3848   29.8636   44.2770 H   0  0  0  0  0  0  0  0  0  0  0  0
   55.9004   30.7242   42.7870 H   0  0  0  0  0  0  0  0  0  0  0  0
   55.7604   28.9333   42.7870 H   0  0  0  0  0  0  0  0  0  0  0  0
   57.7000   32.1030   44.4970 C   0  0  0  0  0  0  0  0  0  0  0  0
   57.3377   32.3581   43.4902 H   0  0  0  0  0  0  0  0  0  0  0  0
   58.0360   33.1350   45.3890 C   0  0  0  0  0  0  0  0  0  0  0  0
   57.8990   34.5630   44.9110 C   0  0  0  0  0  0  0  0  0  0  0  0
   57.4520   34.5651   43.9059 H   0  0  0  0  0  0  0  0  0  0  0  0
   57.2579   35.1102   45.6177 H   0  0  0  0  0  0  0  0  0  0  0  0
   59.2580   35.2500   44.8540 C   0  0  0  0  0  0  0  0  0  0  0  0
   59.6196   35.4328   45.8767 H   0  0  0  0  0  0  0  0  0  0  0  0
   59.9729   34.6050   44.3221 H   0  0  0  0  0  0  0  0  0  0  0  0
   59.1625   36.2081   44.3221 H   0  0  0  0  0  0  0  0  0  0  0  0
   58.8280   29.7100   49.8100 C   0  0  0  0  0  0  0  0  0  0  0  0
   58.5733   29.8373   48.7475 H   0  0  0  0  0  0  0  0  0  0  0  0
   58.2958   28.8831   50.3030 H   0  0  0  0  0  0  0  0  0  0  0  0
   58.3950   30.9900   50.5570 C   0  0  0  0  0  0  0  0  0  0  0  0
   57.6116   31.4815   49.9614 H   0  0  0  0  0  0  0  0  0  0  0  0
   58.0554   30.6602   51.5499 H   0  0  0  0  0  0  0  0  0  0  0  0
   59.5080   32.0140   50.8110 C   0  0  0  0  0  0  0  0  0  0  0  0
   59.6836   32.5597   49.8722 H   0  0  0  0  0  0  0  0  0  0  0  0
   59.1478   32.6437   51.6379 H   0  0  0  0  0  0  0  0  0  0  0  0
   60.8780   31.4340   51.2900 C   0  0  1  0  0  0  0  0  0  0  0  0
   61.5542   31.7714   50.4907 H   0  0  0  0  0  0  0  0  0  0  0  0
  1  2  1  0
  2  3  1  0
  3  4  1  0
  3  5  1  0
  6  3  1  6
  6  7  1  0
  7  8  1  0
  7  9  1  0
  7 10  1  0
  6 11  1  0
 11 12  1  1
 11 13  1  0
 13 14  1  0
 11 15  1  0
 15 16  1  0
 15 17  1  0
 15 18  1  0
 18 19  1  0
 18 20  1  0
 18 21  1  0
 21 22  1  1
 22 23  1  0
 22 24  1  0
 22 25  1  0
 21 26  1  0
 26 27  1  1
 26 28  1  0
 28 29  1  0
 28 30  2  0
 30 31  1  0
 30 32  1  0
 32 33  1  6
 32 34  1  0
 34 35  1  0
 34 36  1  0
 34 37  1  0
 37 38  1  0
 37 39  1  0
 37 40  1  0
 40 41  2  0
 40 42  1  0
 42 43  1  1
 42 44  1  0
 44 45  1  0
 44 46  1  0
 44 47  1  0
 47 48  1  0
 47 49  1  0
 47 50  1  0
 50 51  2  0
 51 52  1  0
 51 53  1  0
 53 54  1  0
 54 55  1  0
 54 56  1  0
 54 57  1  0
 53 58  2  0
 58 59  1  0
 59 60  1  0
 59 61  1  0
 59 62  1  0
 62 63  1  0
 62 64  1  0
 62 65  1  0
 58 66  1  0
 66 67  1  0
 66 68  2  0
 68 69  1  0
 69 70  1  0
 69 71  1  0
 69 72  1  0
 72 73  1  0
 72 74  1  0
 72 75  1  0
 26 76  1  0
 76 77  1  0
 76 78  1  0
 76 79  1  0
 79 80  1  0
 79 81  1  0
 79 82  1  0
 82 83  1  0
 82 84  1  0
 82 85  1  0
 85 86  1  6
 85  6  1  0
 85 21  1  0
 42 32  1  0
 68 50  1  0
M  END
>  <UniqueID>  (91) 
77

>  <SMILES>  (91) 
CCc1cc(CC)c(CC[C@@H]2C(=O)CC[C@H]2/C=C\C2CCCC3C(C)(CO)C(O)CCC23C)cc1C

>  <Energy>  (91) 
117.73846221202263

>  <Genealogy>  (91) 
CCc1cc(CC)c(CC[C@@H]2C(=O)CC[C@H]2C=CC2CCCC3C(C)(CO)C(O)CCC23C)cc1C (chirality)
CCc1cc(CC)c(CC[C@@H]2C(=O)CC[C@H]2/C=C\C2CCCC3C(C)(CO)C(O)CCC23C)cc1C (cis-trans isomerization)
CCc1cc(CC)c(CC[C@@H]2C(=O)CC[C@H]2/C=C\C2CCCC3C(C)(CO)C(O)CCC23C)cc1C (3D coordinates assigned)
CCc1cc(CC)c(CC[C@@H]2C(=O)CC[C@H]2/C=C\C2CCCC3C(C)(CO)C(O)CCC23C)cc1C (nonaromatic ring conformer: 117.73846221202263 kcal/mol)

>  <smiles>  (91) 
CCc1cc(CC)c(CCC2C(=O)CCC2C=CC2CCCC3C(C)(CO)C(O)CCC23C)cc1C

>  <score_type>  (91) 
oracle

>  <origin>  (91) 
adg

>  <m_score__min__energy>  (91) 
-11.300000000000001

>  <m_primary>  (91) 
energy

$$$$
91:0
     RDKit          3D

 33 34  0  0  1  0  0  0  0  0999 V2000
   59.6690   33.6120   49.5170 N   0  0  0  0  0  0  0  0  0  0  0  0
   59.2710   33.5670   48.4250 C   0  0  0  0  0  0  0  0  0  0  0  0
   58.7670   33.4870   47.0630 C   0  0  0  0  0  0  0  0  0  0  0  0
   58.0530   32.4360   46.6280 N   0  0  0  0  0  0  0  0  0  0  0  0
   57.6470   32.4850   45.3490 C   0  0  0  0  0  0  0  0  0  0  0  0
   56.9650   31.5090   44.8910 N   0  0  0  0  0  0  0  0  0  0  0  0
   57.1270   30.8490   43.6490 C   0  0  0  0  0  0  0  0  0  0  0  0
   56.9710   29.3740   43.6260 C   0  0  0  0  0  0  0  0  0  0  0  0
   56.2620   28.9940   44.9270 C   0  0  0  0  0  0  0  0  0  0  0  0
   56.9080   27.9070   45.5910 N   0  0  0  0  0  0  0  0  0  0  0  0
   58.3020   27.9280   46.0450 C   0  0  0  0  0  0  0  0  0  0  0  0
   58.5030   26.6190   46.7820 C   0  0  0  0  0  0  0  0  0  0  0  0
   57.4650   25.6620   46.1820 C   0  0  0  0  0  0  0  0  0  0  0  0
   56.3510   26.6300   45.9340 C   0  0  0  0  0  0  0  0  0  0  0  0
   55.1350   26.3770   46.0100 O   0  0  0  0  0  0  0  0  0  0  0  0
   57.9250   33.5310   44.5000 C   0  0  0  0  0  0  0  0  0  0  0  0
   58.6620   34.5940   44.9810 C   0  0  0  0  0  0  0  0  0  0  0  0
   59.0680   34.5440   46.2640 N   0  0  0  0  0  0  0  0  0  0  0  0
   56.3842   31.2687   42.9547 H   0  0  0  0  0  0  0  0  0  0  0  0
   58.1791   31.0214   43.3779 H   0  0  0  0  0  0  0  0  0  0  0  0
   56.3655   29.0690   42.7598 H   0  0  0  0  0  0  0  0  0  0  0  0
   57.9458   28.8713   43.5417 H   0  0  0  0  0  0  0  0  0  0  0  0
   56.2571   29.8667   45.5967 H   0  0  0  0  0  0  0  0  0  0  0  0
   55.2384   28.6788   44.6764 H   0  0  0  0  0  0  0  0  0  0  0  0
   58.9859   27.9954   45.1861 H   0  0  0  0  0  0  0  0  0  0  0  0
   58.5108   28.7962   46.6873 H   0  0  0  0  0  0  0  0  0  0  0  0
   59.5213   26.2362   46.6194 H   0  0  0  0  0  0  0  0  0  0  0  0
   58.3795   26.7337   47.8690 H   0  0  0  0  0  0  0  0  0  0  0  0
   57.8228   25.2006   45.2498 H   0  0  0  0  0  0  0  0  0  0  0  0
   57.2040   24.7993   46.8125 H   0  0  0  0  0  0  0  0  0  0  0  0
   57.5675   33.5204   43.4598 H   0  0  0  0  0  0  0  0  0  0  0  0
   58.9092   35.4522   44.3388 H   0  0  0  0  0  0  0  0  0  0  0  0
   59.6300   35.3620   46.6180 H   0  0  0  0  0  0  0  0  0  0  0  0
  1  2  3  0
  2  3  1  0
  3  4  2  0
  4  5  1  0
  5  6  2  0
  6  7  1  0
  7  8  1  0
  8  9  1  0
  9 10  1  0
 10 11  1  0
 11 12  1  0
 12 13  1  0
 13 14  1  0
 14 15  2  0
  5 16  1  0
 16 17  2  0
 17 18  1  0
 18  3  1  0
 14 10  1  0
  7 19  1  0
  7 20  1  0
  8 21  1  0
  8 22  1  0
  9 23  1  0
  9 24  1  0
 11 25  1  0
 11 26  1  0
 12 27  1  0
 12 28  1  0
 13 29  1  0
 13 30  1  0
 16 31  1  0
 17 32  1  0
 18 33  1  0
M  END
>  <smiles>  (92) 
N#Cc1nc(=NCCCN2CCCC2=O)cc[nH]1

>  <score_type>  (92) 
oracle

>  <origin>  (92) 
adg

>  <m_score__min__energy>  (92) 
-6.2400000000000002

>  <m_primary>  (92) 
energy

$$$$
92:0
     RDKit          3D

 55 58  0  0  0  0  0  0  0  0999 V2000
   57.4290   28.1000   44.2560 C   0  0  0  0  0  0  0  0  0  0  0  0
   56.6020   29.4040   44.3280 C   0  0  0  0  0  0  0  0  0  0  0  0
   56.1790   29.8180   42.9120 C   0  0  0  0  0  0  0  0  0  0  0  0
   55.4270   29.1470   45.0640 O   0  0  0  0  0  0  0  0  0  0  0  0
   57.4040   30.5470   44.9620 C   0  0  0  0  0  0  0  0  0  0  0  0
   57.9430   30.4160   46.2590 C   0  0  0  0  0  0  0  0  0  0  0  0
   58.6950   31.4470   46.8280 C   0  0  0  0  0  0  0  0  0  0  0  0
   58.9400   32.6240   46.1120 C   0  0  0  0  0  0  0  0  0  0  0  0
   59.8400   33.9490   46.8540 S   0  0  0  0  0  0  0  0  0  0  0  0
   59.2010   34.3040   48.1680 O   0  0  0  0  0  0  0  0  0  0  0  0
   59.7650   35.1560   45.9610 O   0  0  0  0  0  0  0  0  0  0  0  0
   61.5160   33.5220   47.1210 N   0  0  1  0  0  0  0  0  0  0  0  0
   62.0850   34.2550   48.2860 C   0  0  0  0  0  0  0  0  0  0  0  0
   62.1110   33.4180   49.5790 C   0  0  0  0  0  0  0  0  0  0  0  0
   62.8810   32.0720   49.4100 C   0  0  2  0  0  0  0  0  0  0  0  0
   62.2280   30.9500   50.2780 C   0  0  0  0  0  0  0  0  0  0  0  0
   63.3690   30.1730   50.9530 C   0  0  0  0  0  0  0  0  0  0  0  0
   64.5300   31.0780   50.8190 C   0  0  0  0  0  0  0  0  0  0  0  0
   65.7800   30.9150   51.4190 C   0  0  0  0  0  0  0  0  0  0  0  0
   66.7850   31.8570   51.1550 C   0  0  0  0  0  0  0  0  0  0  0  0
   66.5310   32.9350   50.2920 C   0  0  0  0  0  0  0  0  0  0  0  0
   65.2720   33.0760   49.6900 C   0  0  0  0  0  0  0  0  0  0  0  0
   64.2710   32.1350   49.9760 C   0  0  0  0  0  0  0  0  0  0  0  0
   62.9490   31.6410   47.9190 C   0  0  0  0  0  0  0  0  0  0  0  0
   61.6650   32.0470   47.1910 C   0  0  0  0  0  0  0  0  0  0  0  0
   58.4520   32.7460   44.8050 C   0  0  0  0  0  0  0  0  0  0  0  0
   57.7010   31.7170   44.2320 C   0  0  0  0  0  0  0  0  0  0  0  0
   57.6510   27.7499   45.2749 H   0  0  0  0  0  0  0  0  0  0  0  0
   56.8538   27.3301   43.7209 H   0  0  0  0  0  0  0  0  0  0  0  0
   58.3707   28.2921   43.7209 H   0  0  0  0  0  0  0  0  0  0  0  0
   55.3941   30.5862   42.9737 H   0  0  0  0  0  0  0  0  0  0  0  0
   57.0481   30.2241   42.3737 H   0  0  0  0  0  0  0  0  0  0  0  0
   55.7916   28.9404   42.3737 H   0  0  0  0  0  0  0  0  0  0  0  0
   55.1460   28.2120   44.8740 H   0  0  0  0  0  0  0  0  0  0  0  0
   57.7693   29.4914   46.8291 H   0  0  0  0  0  0  0  0  0  0  0  0
   59.0971   31.3327   47.8455 H   0  0  0  0  0  0  0  0  0  0  0  0
   62.0320   33.8470   46.2700 H   0  0  0  0  0  0  0  0  0  0  0  0
   61.4764   35.1538   48.4641 H   0  0  0  0  0  0  0  0  0  0  0  0
   63.1275   34.5029   48.0374 H   0  0  0  0  0  0  0  0  0  0  0  0
   61.0752   33.1960   49.8753 H   0  0  0  0  0  0  0  0  0  0  0  0
   62.6362   34.0070   50.3453 H   0  0  0  0  0  0  0  0  0  0  0  0
   61.5739   31.3970   51.0411 H   0  0  0  0  0  0  0  0  0  0  0  0
   61.6166   30.2811   49.6545 H   0  0  0  0  0  0  0  0  0  0  0  0
   63.1409   29.9804   52.0117 H   0  0  0  0  0  0  0  0  0  0  0  0
   63.5413   29.1855   50.5000 H   0  0  0  0  0  0  0  0  0  0  0  0
   65.9733   30.0627   52.0871 H   0  0  0  0  0  0  0  0  0  0  0  0
   67.7739   31.7511   51.6249 H   0  0  0  0  0  0  0  0  0  0  0  0
   67.3220   33.6715   50.0873 H   0  0  0  0  0  0  0  0  0  0  0  0
   65.0722   33.9121   49.0037 H   0  0  0  0  0  0  0  0  0  0  0  0
   63.0691   30.5491   47.8618 H   0  0  0  0  0  0  0  0  0  0  0  0
   63.8051   32.1392   47.4406 H   0  0  0  0  0  0  0  0  0  0  0  0
   60.8023   31.6268   47.7288 H   0  0  0  0  0  0  0  0  0  0  0  0
   61.7164   31.6586   46.1631 H   0  0  0  0  0  0  0  0  0  0  0  0
   58.6614   33.6576   44.2261 H   0  0  0  0  0  0  0  0  0  0  0  0
   57.3368   31.8202   43.1992 H   0  0  0  0  0  0  0  0  0  0  0  0
  1  2  1  0
  2  3  1  0
  2  4  1  0
  2  5  1  0
  5  6  2  0
  6  7  1  0
  7  8  2  0
  8  9  1  0
  9 10  2  0
  9 11  2  0
  9 12  1  0
 12 13  1  0
 13 14  1  0
 15 14  1  6
 15 16  1  0
 16 17  1  0
 17 18  1  0
 18 19  2  0
 19 20  1  0
 20 21  2  0
 21 22  1  0
 22 23  2  0
 15 24  1  0
 24 25  1  0
  8 26  1  0
 26 27  2  0
 27  5  1  0
 25 12  1  0
 23 15  1  0
 23 18  1  0
  1 28  1  0
  1 29  1  0
  1 30  1  0
  3 31  1  0
  3 32  1  0
  3 33  1  0
  4 34  1  0
  6 35  1  0
  7 36  1  0
 12 37  1  6
 13 38  1  0
 13 39  1  0
 14 40  1  0
 14 41  1  0
 16 42  1  0
 16 43  1  0
 17 44  1  0
 17 45  1  0
 19 46  1  0
 20 47  1  0
 21 48  1  0
 22 49  1  0
 24 50  1  0
 24 51  1  0
 25 52  1  0
 25 53  1  0
 26 54  1  0
 27 55  1  0
M  CHG  1  12   1
M  END
>  <UniqueID>  (93) 
78

>  <SMILES>  (93) 
CC(C)(O)c1ccc(S(=O)(=O)[NH+]2CCC3(CCc4ccccc43)CC2)cc1

>  <Energy>  (93) 
74.31303790452989

>  <Genealogy>  (93) 
CC(C)(O)c1ccc(S(=O)(=O)[NH+]2CCC3(CCc4ccccc43)CC2)cc1 (protonated)
CC(C)(O)c1ccc(S(=O)(=O)[NH+]2CCC3(CCc4ccccc43)CC2)cc1 (3D coordinates assigned)
CC(C)(O)c1ccc(S(=O)(=O)[NH+]2CCC3(CCc4ccccc43)CC2)cc1 (nonaromatic ring conformer: 74.31303790452989 kcal/mol)

>  <smiles>  (93) 
CC(C)(O)c1ccc(S(=O)(=O)N2CCC3(CCc4ccccc43)CC2)cc1

>  <score_type>  (93) 
oracle

>  <origin>  (93) 
adg

>  <m_score__min__energy>  (93) 
-9.0299999999999994

>  <m_primary>  (93) 
energy

$$$$
93:0
     RDKit          3D

 27 29  0  0  0  0  0  0  0  0999 V2000
   59.7573   35.9568   45.7013 H   0  0  0  0  0  0  0  0  0  0  0  0
   59.3130   34.9800   45.9430 C   0  0  0  0  0  0  0  0  0  0  0  0
   59.4080   34.4730   47.2410 C   0  0  0  0  0  0  0  0  0  0  0  0
   59.9299   35.0489   48.0194 H   0  0  0  0  0  0  0  0  0  0  0  0
   58.8400   33.2340   47.5510 C   0  0  0  0  0  0  0  0  0  0  0  0
   58.9640   32.5450   49.3280 Br  0  0  0  0  0  0  0  0  0  0  0  0
   58.1770   32.5000   46.5620 C   0  0  0  0  0  0  0  0  0  0  0  0
   57.7211   31.5310   46.8133 H   0  0  0  0  0  0  0  0  0  0  0  0
   58.0900   32.9940   45.2480 C   0  0  0  0  0  0  0  0  0  0  0  0
   57.3870   32.2230   44.1930 C   0  0  0  0  0  0  0  0  0  0  0  0
   57.4500   32.6120   42.9960 O   0  0  0  0  0  0  0  0  0  0  0  0
   56.5750   31.0810   44.5010 N   0  0  0  0  0  0  0  0  0  0  0  0
   57.0150   29.9140   44.8660 C   0  0  0  0  0  0  0  0  0  0  0  0
   56.1750   28.9220   45.2510 N   0  0  0  0  0  0  0  0  0  0  0  0
   56.8670   27.7940   45.5520 C   0  0  0  0  0  0  0  0  0  0  0  0
   56.2810   26.6030   45.9850 C   0  0  0  0  0  0  0  0  0  0  0  0
   55.1904   26.5265   46.1064 H   0  0  0  0  0  0  0  0  0  0  0  0
   57.1120   25.5030   46.2630 C   0  0  0  0  0  0  0  0  0  0  0  0
   56.6691   24.5569   46.6075 H   0  0  0  0  0  0  0  0  0  0  0  0
   58.5090   25.6050   46.1030 C   0  0  0  0  0  0  0  0  0  0  0  0
   59.2970   24.5360   46.3740 F   0  0  0  0  0  0  0  0  0  0  0  0
   59.0860   26.8070   45.6650 C   0  0  0  0  0  0  0  0  0  0  0  0
   60.1746   26.8973   45.5355 H   0  0  0  0  0  0  0  0  0  0  0  0
   58.2420   27.8820   45.3990 C   0  0  0  0  0  0  0  0  0  0  0  0
   58.6440   29.4210   44.8640 S   0  0  0  0  0  0  0  0  0  0  0  0
   58.6540   34.2480   44.9500 C   0  0  0  0  0  0  0  0  0  0  0  0
   58.5763   34.6548   43.9309 H   0  0  0  0  0  0  0  0  0  0  0  0
  1  2  1  0
  2  3  2  0
  3  4  1  0
  3  5  1  0
  5  6  1  0
  5  7  2  0
  7  8  1  0
  7  9  1  0
  9 10  1  0
 10 11  2  0
 10 12  1  0
 12 13  2  0
 13 14  1  0
 14 15  1  0
 15 16  2  0
 16 17  1  0
 16 18  1  0
 18 19  1  0
 18 20  2  0
 20 21  1  0
 20 22  1  0
 22 23  1  0
 22 24  2  0
 24 25  1  0
  9 26  2  0
 26 27  1  0
 26  2  1  0
 25 13  1  0
 24 15  1  0
M  CHG  1  14  -1
M  END
>  <UniqueID>  (94) 
79

>  <SMILES>  (94) 
O=C(/N=c1/[n-]c2ccc(F)cc2s1)c1cccc(Br)c1

>  <Energy>  (94) 
73.00484646275957

>  <Genealogy>  (94) 
O=C(N=c1[n-]c2ccc(F)cc2s1)c1cccc(Br)c1 (protonated)
O=C(/N=c1/[n-]c2ccc(F)cc2s1)c1cccc(Br)c1 (cis-trans isomerization)
O=C(/N=c1/[n-]c2ccc(F)cc2s1)c1cccc(Br)c1 (3D coordinates assigned)
O=C(/N=c1/[n-]c2ccc(F)cc2s1)c1cccc(Br)c1 (optimized conformer: 73.00484646275957 kcal/mol)

>  <smiles>  (94) 
O=C(N=c1[nH]c2ccc(F)cc2s1)c1cccc(Br)c1

>  <score_type>  (94) 
oracle

>  <origin>  (94) 
adg

>  <m_score__min__energy>  (94) 
-9.5299999999999994

>  <m_primary>  (94) 
energy

$$$$
94:0
     RDKit          3D

 41 43  0  0  0  0  0  0  0  0999 V2000
   54.2460   25.1180   45.6200 C   0  0  0  0  0  0  0  0  0  0  0  0
   54.9420   26.3410   45.9950 N   0  0  0  0  0  0  0  0  0  0  0  0
   56.3050   26.3550   46.4260 C   0  0  0  0  0  0  0  0  0  0  0  0
   56.7280   25.4620   47.2110 O   0  0  0  0  0  0  0  0  0  0  0  0
   57.2110   27.4130   45.9440 C   0  0  0  0  0  0  0  0  0  0  0  0
   56.7290   28.6920   45.6170 C   0  0  0  0  0  0  0  0  0  0  0  0
   57.6260   29.6830   45.1810 C   0  0  0  0  0  0  0  0  0  0  0  0
   57.1990   30.9760   44.8410 O   0  0  0  0  0  0  0  0  0  0  0  0
   57.7920   32.1690   45.2810 C   0  0  0  0  0  0  0  0  0  0  0  0
   58.1850   33.1150   44.3280 C   0  0  0  0  0  0  0  0  0  0  0  0
   58.8000   34.3050   44.7250 C   0  0  0  0  0  0  0  0  0  0  0  0
   59.0230   34.5590   46.0810 C   0  0  0  0  0  0  0  0  0  0  0  0
   58.6300   33.6290   47.0500 C   0  0  0  0  0  0  0  0  0  0  0  0
   58.8940   33.9170   48.4310 N   0  0  0  0  0  0  0  0  0  0  0  0
   60.0500   33.5090   49.1770 C   0  0  0  0  0  0  0  0  0  0  0  0
   60.0100   33.4800   50.4370 O   0  0  0  0  0  0  0  0  0  0  0  0
   61.3080   33.1740   48.4700 C   0  0  0  0  0  0  0  0  0  0  0  0
   61.4780   31.9100   47.8730 C   0  0  0  0  0  0  0  0  0  0  0  0
   62.6650   31.5940   47.2060 C   0  0  0  0  0  0  0  0  0  0  0  0
   63.6940   32.5350   47.1230 C   0  0  0  0  0  0  0  0  0  0  0  0
   63.5380   33.7930   47.7090 C   0  0  0  0  0  0  0  0  0  0  0  0
   62.3530   34.1140   48.3790 C   0  0  0  0  0  0  0  0  0  0  0  0
   58.0440   32.4170   46.6420 C   0  0  0  0  0  0  0  0  0  0  0  0
   58.9780   29.3620   45.0390 C   0  0  0  0  0  0  0  0  0  0  0  0
   59.4210   28.0800   45.3650 C   0  0  0  0  0  0  0  0  0  0  0  0
   58.5390   27.1450   45.8090 N   0  0  0  0  0  0  0  0  0  0  0  0
   53.9387   24.5780   46.5277 H   0  0  0  0  0  0  0  0  0  0  0  0
   53.3562   25.3704   45.0245 H   0  0  0  0  0  0  0  0  0  0  0  0
   54.9174   24.4819   45.0245 H   0  0  0  0  0  0  0  0  0  0  0  0
   55.6555   28.9166   45.7017 H   0  0  0  0  0  0  0  0  0  0  0  0
   58.0087   32.9206   43.2598 H   0  0  0  0  0  0  0  0  0  0  0  0
   59.1089   35.0426   43.9696 H   0  0  0  0  0  0  0  0  0  0  0  0
   59.5105   35.4959   46.3886 H   0  0  0  0  0  0  0  0  0  0  0  0
   60.6704   31.1655   47.9320 H   0  0  0  0  0  0  0  0  0  0  0  0
   62.7890   30.6027   46.7457 H   0  0  0  0  0  0  0  0  0  0  0  0
   64.6268   32.2852   46.5963 H   0  0  0  0  0  0  0  0  0  0  0  0
   64.3491   34.5332   47.6435 H   0  0  0  0  0  0  0  0  0  0  0  0
   62.2364   35.1069   48.8378 H   0  0  0  0  0  0  0  0  0  0  0  0
   57.7810   31.6577   47.3931 H   0  0  0  0  0  0  0  0  0  0  0  0
   59.6897   30.1162   44.6720 H   0  0  0  0  0  0  0  0  0  0  0  0
   60.4861   27.8249   45.2627 H   0  0  0  0  0  0  0  0  0  0  0  0
  1  2  1  0
  2  3  1  0
  3  4  2  0
  3  5  1  0
  5  6  2  0
  6  7  1  0
  7  8  1  0
  8  9  1  0
  9 10  2  0
 10 11  1  0
 11 12  2  0
 12 13  1  0
 13 14  1  0
 14 15  1  0
 15 16  2  0
 15 17  1  0
 17 18  2  0
 18 19  1  0
 19 20  2  0
 20 21  1  0
 21 22  2  0
 13 23  2  0
  7 24  2  0
 24 25  1  0
 25 26  2  0
 26  5  1  0
 23  9  1  0
 22 17  1  0
  1 27  1  0
  1 28  1  0
  1 29  1  0
  6 30  1  0
 10 31  1  0
 11 32  1  0
 12 33  1  0
 18 34  1  0
 19 35  1  0
 20 36  1  0
 21 37  1  0
 22 38  1  0
 23 39  1  0
 24 40  1  0
 25 41  1  0
M  CHG  2   2  -1  14  -1
M  END
>  <UniqueID>  (95) 
80

>  <SMILES>  (95) 
C[N-]C(=O)c1cc(Oc2cccc([N-]C(=O)c3ccccc3)c2)ccn1

>  <Energy>  (95) 
51.77003557022745

>  <Genealogy>  (95) 
C[N-]C(=O)c1cc(Oc2cccc([N-]C(=O)c3ccccc3)c2)ccn1 (protonated)
C[N-]C(=O)c1cc(Oc2cccc([N-]C(=O)c3ccccc3)c2)ccn1 (3D coordinates assigned)
C[N-]C(=O)c1cc(Oc2cccc([N-]C(=O)c3ccccc3)c2)ccn1 (optimized conformer: 51.77003557022745 kcal/mol)

>  <smiles>  (95) 
CNC(=O)c1cc(Oc2cccc(NC(=O)c3ccccc3)c2)ccn1

>  <score_type>  (95) 
oracle

>  <origin>  (95) 
adg

>  <m_score__min__energy>  (95) 
-12.06

>  <m_primary>  (95) 
energy

$$$$
