0:0
     RDKit          3D

 61 64  0  0  0  0  0  0  0  0999 V2000
   63.8770   33.7590   49.8780 C   0  0  0  0  0  0  0  0  0  0  0  0
   63.0020   32.5700   49.5520 C   0  0  0  0  0  0  0  0  0  0  0  0
   62.4840   31.8500   50.5900 N   0  0  0  0  0  0  0  0  0  0  0  0
   61.6710   30.7830   50.3800 C   0  0  0  0  0  0  0  0  0  0  0  0
   61.1610   30.0510   51.4660 C   0  0  0  0  0  0  0  0  0  0  0  0
   60.3270   28.9530   51.2440 C   0  0  0  0  0  0  0  0  0  0  0  0
   59.9940   28.5780   49.9420 C   0  0  0  0  0  0  0  0  0  0  0  0
   60.4920   29.3010   48.8540 C   0  0  0  0  0  0  0  0  0  0  0  0
   61.3350   30.4080   49.0670 C   0  0  0  0  0  0  0  0  0  0  0  0
   61.8570   31.1640   48.0050 C   0  0  0  0  0  0  0  0  0  0  0  0
   61.5610   30.8460   46.8170 O   0  0  0  0  0  0  0  0  0  0  0  0
   62.6810   32.2380   48.2500 N   0  0  0  0  0  0  0  0  0  0  0  0
   63.2310   33.0020   47.1070 C   0  0  0  0  0  0  0  0  0  0  0  0
   62.1460   33.8350   46.4150 C   0  0  0  0  0  0  0  0  0  0  0  0
   61.2480   34.4230   47.4050 N   0  0  0  0  0  0  0  0  0  0  0  0
   59.8180   34.3790   47.3390 C   0  0  0  0  0  0  0  0  0  0  0  0
   59.1590   35.2850   47.9140 O   0  0  0  0  0  0  0  0  0  0  0  0
   59.1010   33.3330   46.5780 C   0  0  0  0  0  0  0  0  0  0  0  0
   58.8130   32.0910   47.1670 C   0  0  0  0  0  0  0  0  0  0  0  0
   58.1540   31.0980   46.4380 C   0  0  0  0  0  0  0  0  0  0  0  0
   57.7820   31.3290   45.1070 C   0  0  0  0  0  0  0  0  0  0  0  0
   56.9280   30.0820   44.1960 S   0  0  0  0  0  0  0  0  0  0  0  0
   55.4810   30.0690   44.6070 O   0  0  0  0  0  0  0  0  0  0  0  0
   56.9890   30.4120   42.7300 O   0  0  0  0  0  0  0  0  0  0  0  0
   57.6250   28.5000   44.4600 N   0  0  0  0  0  0  0  0  0  0  0  0
   57.1210   27.9190   45.7240 C   0  0  0  0  0  0  0  0  0  0  0  0
   58.0090   26.7660   46.1980 C   0  0  0  0  0  0  0  0  0  0  0  0
   59.4300   27.2740   46.5370 C   0  0  0  0  0  0  0  0  0  0  0  0
   60.4560   26.1450   46.3820 C   0  0  0  0  0  0  0  0  0  0  0  0
   59.8230   28.5140   45.6940 C   0  0  0  0  0  0  0  0  0  0  0  0
   59.1040   28.5250   44.3350 C   0  0  0  0  0  0  0  0  0  0  0  0
   58.0940   32.5560   44.5060 C   0  0  0  0  0  0  0  0  0  0  0  0
   58.7530   33.5510   45.2350 C   0  0  0  0  0  0  0  0  0  0  0  0
   63.9567   33.8673   50.9698 H   0  0  0  0  0  0  0  0  0  0  0  0
   64.8789   33.6051   49.4507 H   0  0  0  0  0  0  0  0  0  0  0  0
   63.4321   34.6698   49.4507 H   0  0  0  0  0  0  0  0  0  0  0  0
   62.7190   32.1220   51.5720 H   0  0  0  0  0  0  0  0  0  0  0  0
   61.4196   30.3439   52.4943 H   0  0  0  0  0  0  0  0  0  0  0  0
   59.9318   28.3826   52.0975 H   0  0  0  0  0  0  0  0  0  0  0  0
   59.3382   27.7116   49.7712 H   0  0  0  0  0  0  0  0  0  0  0  0
   60.2245   29.0041   47.8292 H   0  0  0  0  0  0  0  0  0  0  0  0
   64.0197   33.6756   47.4735 H   0  0  0  0  0  0  0  0  0  0  0  0
   63.6360   32.2866   46.3761 H   0  0  0  0  0  0  0  0  0  0  0  0
   62.6215   34.6389   45.8340 H   0  0  0  0  0  0  0  0  0  0  0  0
   61.5642   33.1810   45.7488 H   0  0  0  0  0  0  0  0  0  0  0  0
   59.1082   31.8988   48.2091 H   0  0  0  0  0  0  0  0  0  0  0  0
   57.9263   30.1312   46.9107 H   0  0  0  0  0  0  0  0  0  0  0  0
   57.1060   28.7012   46.4972 H   0  0  0  0  0  0  0  0  0  0  0  0
   56.1082   27.5277   45.5472 H   0  0  0  0  0  0  0  0  0  0  0  0
   57.5637   26.3129   47.0960 H   0  0  0  0  0  0  0  0  0  0  0  0
   58.0826   26.0217   45.3914 H   0  0  0  0  0  0  0  0  0  0  0  0
   59.4253   27.5962   47.5887 H   0  0  0  0  0  0  0  0  0  0  0  0
   60.7718   25.7975   47.3767 H   0  0  0  0  0  0  0  0  0  0  0  0
   60.0014   25.3098   45.8290 H   0  0  0  0  0  0  0  0  0  0  0  0
   61.3308   26.5179   45.8290 H   0  0  0  0  0  0  0  0  0  0  0  0
   59.5511   29.4239   46.2491 H   0  0  0  0  0  0  0  0  0  0  0  0
   60.9068   28.4755   45.5097 H   0  0  0  0  0  0  0  0  0  0  0  0
   59.3944   29.4367   43.7924 H   0  0  0  0  0  0  0  0  0  0  0  0
   59.4038   27.6134   43.7972 H   0  0  0  0  0  0  0  0  0  0  0  0
   57.8194   32.7372   43.4564 H   0  0  0  0  0  0  0  0  0  0  0  0
   59.0000   34.5090   44.7542 H   0  0  0  0  0  0  0  0  0  0  0  0
  1  2  1  0
  2  3  2  0
  3  4  1  0
  4  5  2  0
  5  6  1  0
  6  7  2  0
  7  8  1  0
  8  9  2  0
  9 10  1  0
 10 11  2  0
 10 12  1  0
 12 13  1  0
 13 14  1  0
 14 15  1  0
 15 16  1  0
 16 17  2  0
 16 18  1  0
 18 19  2  0
 19 20  1  0
 20 21  2  0
 21 22  1  0
 22 23  2  0
 22 24  2  0
 22 25  1  0
 25 26  1  0
 26 27  1  0
 27 28  1  0
 28 29  1  0
 28 30  1  0
 30 31  1  0
 21 32  1  0
 32 33  2  0
 12  2  1  0
 33 18  1  0
  9  4  1  0
 31 25  1  0
  1 34  1  0
  1 35  1  0
  1 36  1  0
  3 37  1  0
  5 38  1  0
  6 39  1  0
  7 40  1  0
  8 41  1  0
 13 42  1  0
 13 43  1  0
 14 44  1  0
 14 45  1  0
 19 46  1  0
 20 47  1  0
 26 48  1  0
 26 49  1  0
 27 50  1  0
 27 51  1  0
 28 52  1  0
 29 53  1  0
 29 54  1  0
 29 55  1  0
 30 56  1  0
 30 57  1  0
 31 58  1  0
 31 59  1  0
 32 60  1  0
 33 61  1  0
M  CHG  2   3   1  15  -1
M  END
>  <UniqueID>  (1) 
1

>  <SMILES>  (1) 
Cc1[nH+]c2ccccc2c(=O)n1CC[N-]C(=O)c1ccc(S(=O)(=O)N2CCC(C)CC2)cc1

>  <Energy>  (1) 
80.4527947908389

>  <Genealogy>  (1) 
Cc1[nH+]c2ccccc2c(=O)n1CC[N-]C(=O)c1ccc(S(=O)(=O)N2CCC(C)CC2)cc1 (protonated)
Cc1[nH+]c2ccccc2c(=O)n1CC[N-]C(=O)c1ccc(S(=O)(=O)N2CCC(C)CC2)cc1 (3D coordinates assigned)
Cc1[nH+]c2ccccc2c(=O)n1CC[N-]C(=O)c1ccc(S(=O)(=O)N2CCC(C)CC2)cc1 (nonaromatic ring conformer: 80.4527947908389 kcal/mol)

>  <smiles>  (1) 
Cc1nc2ccccc2c(=O)n1CCNC(=O)c1ccc(S(=O)(=O)N2CCC(C)CC2)cc1

>  <score_type>  (1) 
oracle

>  <origin>  (1) 
adg

>  <m_score__min__energy>  (1) 
-10.24

>  <m_primary>  (1) 
energy

$$$$
1:0
     RDKit          3D

 42 44  0  0  0  0  0  0  0  0999 V2000
   66.8370   32.8040   50.4960 C   0  0  0  0  0  0  0  0  0  0  0  0
   65.6210   33.5540   50.8570 C   0  0  0  0  0  0  0  0  0  0  0  0
   65.6650   34.2790   51.8860 O   0  0  0  0  0  0  0  0  0  0  0  0
   64.3880   33.4930   50.0820 C   0  0  0  0  0  0  0  0  0  0  0  0
   64.3120   32.8640   48.8480 C   0  0  0  0  0  0  0  0  0  0  0  0
   63.0870   32.8530   48.1710 C   0  0  0  0  0  0  0  0  0  0  0  0
   61.9730   33.4370   48.6840 C   0  0  0  0  0  0  0  0  0  0  0  0
   60.7070   33.4520   48.0380 N   0  0  0  0  0  0  0  0  0  0  0  0
   59.7500   32.3680   48.1260 C   0  0  0  0  0  0  0  0  0  0  0  0
   59.6710   31.8130   46.7010 C   0  0  0  0  0  0  0  0  0  0  0  0
   59.1410   32.8760   45.8930 N   0  0  0  0  0  0  0  0  0  0  0  0
   58.2420   32.5330   44.8510 C   0  0  0  0  0  0  0  0  0  0  0  0
   57.7190   33.4060   44.0810 O   0  0  0  0  0  0  0  0  0  0  0  0
   57.8460   31.1500   44.5780 C   0  0  0  0  0  0  0  0  0  0  0  0
   58.8070   30.1590   44.5360 C   0  0  0  0  0  0  0  0  0  0  0  0
   58.3890   28.8660   44.2750 C   0  0  0  0  0  0  0  0  0  0  0  0
   59.2170   27.9240   44.2240 O   0  0  0  0  0  0  0  0  0  0  0  0
   57.0720   28.6800   44.0820 N   0  0  0  0  0  0  0  0  0  0  0  0
   56.1460   29.6510   44.1250 C   0  0  0  0  0  0  0  0  0  0  0  0
   54.8030   29.4170   43.9210 O   0  0  0  0  0  0  0  0  0  0  0  0
   56.5370   30.9130   44.3790 N   0  0  0  0  0  0  0  0  0  0  0  0
   59.4550   34.2780   46.0620 C   0  0  0  0  0  0  0  0  0  0  0  0
   60.3110   34.5990   47.2320 C   0  0  0  0  0  0  0  0  0  0  0  0
   62.0870   34.0400   49.8910 N   0  0  0  0  0  0  0  0  0  0  0  0
   63.2320   34.0700   50.5580 C   0  0  0  0  0  0  0  0  0  0  0  0
   67.3558   32.4840   51.4117 H   0  0  0  0  0  0  0  0  0  0  0  0
   66.5600   31.9196   49.9034 H   0  0  0  0  0  0  0  0  0  0  0  0
   67.5029   33.4485   49.9034 H   0  0  0  0  0  0  0  0  0  0  0  0
   65.1985   32.3825   48.4094 H   0  0  0  0  0  0  0  0  0  0  0  0
   63.0244   32.3554   47.1920 H   0  0  0  0  0  0  0  0  0  0  0  0
   60.1006   31.5951   48.8258 H   0  0  0  0  0  0  0  0  0  0  0  0
   58.7712   32.7022   48.5006 H   0  0  0  0  0  0  0  0  0  0  0  0
   60.6718   31.5254   46.3464 H   0  0  0  0  0  0  0  0  0  0  0  0
   59.0381   30.9146   46.6521 H   0  0  0  0  0  0  0  0  0  0  0  0
   59.8692   30.3899   44.7044 H   0  0  0  0  0  0  0  0  0  0  0  0
   54.2560   28.9680   44.6460 H   0  0  0  0  0  0  0  0  0  0  0  0
   55.8330   31.6830   44.4160 H   0  0  0  0  0  0  0  0  0  0  0  0
   59.9751   34.6216   45.1557 H   0  0  0  0  0  0  0  0  0  0  0  0
   58.4954   34.7860   46.2381 H   0  0  0  0  0  0  0  0  0  0  0  0
   61.2244   35.0882   46.8626 H   0  0  0  0  0  0  0  0  0  0  0  0
   59.7062   35.2420   47.8884 H   0  0  0  0  0  0  0  0  0  0  0  0
   63.2599   34.5775   51.5335 H   0  0  0  0  0  0  0  0  0  0  0  0
  1  2  1  0
  2  3  2  0
  2  4  1  0
  4  5  2  0
  5  6  1  0
  6  7  2  0
  7  8  1  0
  8  9  1  0
  9 10  1  0
 10 11  1  0
 11 12  1  0
 12 13  2  0
 12 14  1  0
 14 15  2  0
 15 16  1  0
 16 17  2  0
 16 18  1  0
 18 19  2  0
 19 20  1  0
 19 21  1  0
 11 22  1  0
 22 23  1  0
  7 24  1  0
 24 25  2  0
 25  4  1  0
 23  8  1  0
 21 14  1  0
  1 26  1  0
  1 27  1  0
  1 28  1  0
  5 29  1  0
  6 30  1  0
  9 31  1  0
  9 32  1  0
 10 33  1  0
 10 34  1  0
 15 35  1  0
 20 36  1  0
 21 37  1  0
 22 38  1  0
 22 39  1  0
 23 40  1  0
 23 41  1  0
 25 42  1  0
M  END
>  <smiles>  (2) 
CC(=O)c1ccc(N2CCN(C(=O)c3cc(=O)nc(O)[nH]3)CC2)nc1

>  <score_type>  (2) 
oracle

>  <origin>  (2) 
adg

>  <m_score__min__energy>  (2) 
-7.8200000000000003

>  <m_primary>  (2) 
energy

$$$$
2:0
     RDKit          3D

 40 41  0  0  0  0  0  0  0  0999 V2000
   59.5900   30.7900   46.8490 C   0  0  0  0  0  0  0  0  0  0  0  0
   59.8090   29.5750   46.3400 C   0  0  0  0  0  0  0  0  0  0  0  0
   59.2800   29.2310   44.9860 C   0  0  0  0  0  0  0  0  0  0  0  0
   57.8660   29.4940   44.9160 N   0  0  0  0  0  0  0  0  0  0  0  0
   57.3130   30.5710   44.3590 C   0  0  0  0  0  0  0  0  0  0  0  0
   58.0730   31.9680   43.5550 S   0  0  0  0  0  0  0  0  0  0  0  0
   57.4490   33.5340   44.2400 C   0  0  0  0  0  0  0  0  0  0  0  0
   57.8180   33.6600   45.6820 C   0  0  0  0  0  0  0  0  0  0  0  0
   57.1140   32.9550   46.4810 O   0  0  0  0  0  0  0  0  0  0  0  0
   58.8680   34.4930   46.1430 N   0  0  0  0  0  0  0  0  0  0  0  0
   59.2590   34.6460   47.5090 C   0  0  0  0  0  0  0  0  0  0  0  0
   60.5890   34.1220   47.8370 C   0  0  0  0  0  0  0  0  0  0  0  0
   61.5610   33.8000   46.9170 C   0  0  0  0  0  0  0  0  0  0  0  0
   62.8000   33.3050   47.3240 C   0  0  0  0  0  0  0  0  0  0  0  0
   63.0940   33.1190   48.6750 C   0  0  0  0  0  0  0  0  0  0  0  0
   64.4240   32.5900   49.0860 C   0  0  0  0  0  0  0  0  0  0  0  0
   62.1170   33.4420   49.5990 C   0  0  0  0  0  0  0  0  0  0  0  0
   60.8900   33.9340   49.1800 C   0  0  0  0  0  0  0  0  0  0  0  0
   55.9770   30.4410   44.5020 N   0  0  0  0  0  0  0  0  0  0  0  0
   55.7310   29.2930   45.1410 N   0  0  0  0  0  0  0  0  0  0  0  0
   56.9140   28.6770   45.4120 C   0  0  0  0  0  0  0  0  0  0  0  0
   57.0350   27.5730   46.0060 O   0  0  0  0  0  0  0  0  0  0  0  0
   59.9780   31.0469   47.8457 H   0  0  0  0  0  0  0  0  0  0  0  0
   59.0216   31.5340   46.2716 H   0  0  0  0  0  0  0  0  0  0  0  0
   60.3772   28.8298   46.9160 H   0  0  0  0  0  0  0  0  0  0  0  0
   59.7991   29.8378   44.2295 H   0  0  0  0  0  0  0  0  0  0  0  0
   59.4530   28.1612   44.7974 H   0  0  0  0  0  0  0  0  0  0  0  0
   57.8866   34.3736   43.6800 H   0  0  0  0  0  0  0  0  0  0  0  0
   56.3527   33.5484   44.1515 H   0  0  0  0  0  0  0  0  0  0  0  0
   59.3950   35.0390   45.4170 H   0  0  0  0  0  0  0  0  0  0  0  0
   59.2468   35.7194   47.7489 H   0  0  0  0  0  0  0  0  0  0  0  0
   58.5428   34.0571   48.1008 H   0  0  0  0  0  0  0  0  0  0  0  0
   61.3576   33.9351   45.8445 H   0  0  0  0  0  0  0  0  0  0  0  0
   63.5583   33.0570   46.5667 H   0  0  0  0  0  0  0  0  0  0  0  0
   64.4855   32.5655   50.1840 H   0  0  0  0  0  0  0  0  0  0  0  0
   64.5525   31.5723   48.6888 H   0  0  0  0  0  0  0  0  0  0  0  0
   65.2164   33.2414   48.6888 H   0  0  0  0  0  0  0  0  0  0  0  0
   62.3144   33.3078   50.6728 H   0  0  0  0  0  0  0  0  0  0  0  0
   60.1305   34.1835   49.9356 H   0  0  0  0  0  0  0  0  0  0  0  0
   54.7650   28.9600   45.3720 H   0  0  0  0  0  0  0  0  0  0  0  0
  1  2  2  0
  2  3  1  0
  3  4  1  0
  4  5  1  0
  5  6  1  0
  6  7  1  0
  7  8  1  0
  8  9  2  0
  8 10  1  0
 10 11  1  0
 11 12  1  0
 12 13  2  0
 13 14  1  0
 14 15  2  0
 15 16  1  0
 15 17  1  0
 17 18  2  0
  5 19  2  0
 19 20  1  0
 20 21  1  0
 21 22  2  0
 21  4  1  0
 18 12  1  0
  1 23  1  0
  1 24  1  0
  2 25  1  0
  3 26  1  0
  3 27  1  0
  7 28  1  0
  7 29  1  0
 10 30  1  0
 11 31  1  0
 11 32  1  0
 13 33  1  0
 14 34  1  0
 16 35  1  0
 16 36  1  0
 16 37  1  0
 17 38  1  0
 18 39  1  0
 20 40  1  0
M  END
>  <smiles>  (3) 
C=CCn1c(SCC(=O)NCc2ccc(C)cc2)n[nH]c1=O

>  <score_type>  (3) 
oracle

>  <origin>  (3) 
adg

>  <m_score__min__energy>  (3) 
-8.0700000000000003

>  <m_primary>  (3) 
energy

$$$$
3:0
     RDKit          3D

 39 41  0  0  0  0  0  0  0  0999 V2000
   57.0160   27.4780   45.6440 C   0  0  0  0  0  0  0  0  0  0  0  0
   56.2250   28.5900   45.2370 O   0  0  0  0  0  0  0  0  0  0  0  0
   56.7230   29.7120   44.5590 C   0  0  0  0  0  0  0  0  0  0  0  0
   56.5570   29.7770   43.1710 C   0  0  0  0  0  0  0  0  0  0  0  0
   57.0410   30.8700   42.4500 C   0  0  0  0  0  0  0  0  0  0  0  0
   57.6930   31.9130   43.1100 C   0  0  0  0  0  0  0  0  0  0  0  0
   57.8630   31.8740   44.5030 C   0  0  0  0  0  0  0  0  0  0  0  0
   58.5640   32.9810   45.2030 C   0  0  0  0  0  0  0  0  0  0  0  0
   58.6050   34.2540   44.6190 C   0  0  0  0  0  0  0  0  0  0  0  0
   59.2730   35.2940   45.2540 C   0  0  0  0  0  0  0  0  0  0  0  0
   59.9020   35.0620   46.4750 C   0  0  0  0  0  0  0  0  0  0  0  0
   59.8610   33.8250   47.0610 N   0  0  0  0  0  0  0  0  0  0  0  0
   60.5570   33.6180   48.3410 C   0  0  0  0  0  0  0  0  0  0  0  0
   61.8530   32.8930   48.1210 C   0  0  0  0  0  0  0  0  0  0  0  0
   62.0270   31.9020   47.2300 N   0  0  0  0  0  0  0  0  0  0  0  0
   63.3350   31.5870   47.3120 C   0  0  0  0  0  0  0  0  0  0  0  0
   63.9620   32.3340   48.1950 O   0  0  0  0  0  0  0  0  0  0  0  0
   63.0750   33.1530   48.7140 C   0  0  0  0  0  0  0  0  0  0  0  0
   63.3890   34.1940   49.7360 C   0  0  0  0  0  0  0  0  0  0  0  0
   59.1970   32.7880   46.4500 C   0  0  0  0  0  0  0  0  0  0  0  0
   59.1370   31.6590   47.0130 O   0  0  0  0  0  0  0  0  0  0  0  0
   57.3820   30.7650   45.2230 C   0  0  0  0  0  0  0  0  0  0  0  0
   57.0479   27.4332   46.7426 H   0  0  0  0  0  0  0  0  0  0  0  0
   56.5737   26.5503   45.2519 H   0  0  0  0  0  0  0  0  0  0  0  0
   58.0374   27.5915   45.2519 H   0  0  0  0  0  0  0  0  0  0  0  0
   56.0412   28.9607   42.6441 H   0  0  0  0  0  0  0  0  0  0  0  0
   56.9082   30.9095   41.3588 H   0  0  0  0  0  0  0  0  0  0  0  0
   58.0755   32.7697   42.5358 H   0  0  0  0  0  0  0  0  0  0  0  0
   58.1066   34.4308   43.6544 H   0  0  0  0  0  0  0  0  0  0  0  0
   59.3048   36.2935   44.7957 H   0  0  0  0  0  0  0  0  0  0  0  0
   60.4381   35.8824   46.9745 H   0  0  0  0  0  0  0  0  0  0  0  0
   60.7621   34.5945   48.8041 H   0  0  0  0  0  0  0  0  0  0  0  0
   59.9176   33.0134   49.0010 H   0  0  0  0  0  0  0  0  0  0  0  0
   61.3120   31.4730   46.6030 H   0  0  0  0  0  0  0  0  0  0  0  0
   63.8192   30.8012   46.7136 H   0  0  0  0  0  0  0  0  0  0  0  0
   63.2610   33.7698   50.7428 H   0  0  0  0  0  0  0  0  0  0  0  0
   64.4286   34.5304   49.6093 H   0  0  0  0  0  0  0  0  0  0  0  0
   62.7088   35.0492   49.6093 H   0  0  0  0  0  0  0  0  0  0  0  0
   57.5217   30.7200   46.3132 H   0  0  0  0  0  0  0  0  0  0  0  0
  1  2  1  0
  2  3  1  0
  3  4  2  0
  4  5  1  0
  5  6  2  0
  6  7  1  0
  7  8  1  0
  8  9  2  0
  9 10  1  0
 10 11  2  0
 11 12  1  0
 12 13  1  0
 13 14  1  0
 14 15  1  0
 15 16  2  0
 16 17  1  0
 17 18  1  0
 18 19  1  0
 12 20  1  0
 20 21  2  0
  7 22  2  0
 22  3  1  0
 20  8  1  0
 18 14  2  0
  1 23  1  0
  1 24  1  0
  1 25  1  0
  4 26  1  0
  5 27  1  0
  6 28  1  0
  9 29  1  0
 10 30  1  0
 11 31  1  0
 13 32  1  0
 13 33  1  0
 15 34  1  0
 16 35  1  0
 19 36  1  0
 19 37  1  0
 19 38  1  0
 22 39  1  0
M  CHG  1  15   1
M  END
>  <UniqueID>  (4) 
2

>  <SMILES>  (4) 
COc1cccc(-c2cccn(Cc3[nH+]coc3C)c2=O)c1

>  <Energy>  (4) 
77.87476050604022

>  <Genealogy>  (4) 
COc1cccc(-c2cccn(Cc3[nH+]coc3C)c2=O)c1 (protonated)
COc1cccc(-c2cccn(Cc3[nH+]coc3C)c2=O)c1 (3D coordinates assigned)
COc1cccc(-c2cccn(Cc3[nH+]coc3C)c2=O)c1 (optimized conformer: 77.87476050604022 kcal/mol)

>  <smiles>  (4) 
COc1cccc(-c2cccn(Cc3ncoc3C)c2=O)c1

>  <score_type>  (4) 
oracle

>  <origin>  (4) 
adg

>  <m_score__min__energy>  (4) 
-5.79

>  <m_primary>  (4) 
energy

$$$$
4:0
     RDKit          3D

 65 66  0  0  0  0  0  0  0  0999 V2000
   54.6720   30.9040   53.4230 O   0  0  0  0  0  0  0  0  0  0  0  0
   54.2070   29.8820   53.9980 C   0  0  0  0  0  0  0  0  0  0  0  0
   52.8240   29.3990   53.6780 C   0  0  0  0  0  0  0  0  0  0  0  0
   52.2190   30.2010   52.5550 C   0  0  0  0  0  0  0  0  0  0  0  0
   51.7000   31.4840   52.8010 C   0  0  0  0  0  0  0  0  0  0  0  0
   51.1730   32.2440   51.7510 C   0  0  0  0  0  0  0  0  0  0  0  0
   50.6560   33.5080   52.0060 O   0  0  0  0  0  0  0  0  0  0  0  0
   51.1710   31.7340   50.4460 C   0  0  0  0  0  0  0  0  0  0  0  0
   50.6480   32.4910   49.4030 O   0  0  0  0  0  0  0  0  0  0  0  0
   51.6990   30.4620   50.1930 C   0  0  0  0  0  0  0  0  0  0  0  0
   51.7050   29.9540   48.8990 O   0  0  0  0  0  0  0  0  0  0  0  0
   52.2240   29.6990   51.2430 C   0  0  0  0  0  0  0  0  0  0  0  0
   55.0120   29.1460   54.9220 N   0  0  0  0  0  0  0  0  0  0  0  0
   56.4690   29.1950   54.9080 C   0  0  0  0  0  0  0  0  0  0  0  0
   57.0070   28.7340   53.5520 C   0  0  0  0  0  0  0  0  0  0  0  0
   57.9900   27.5620   53.6870 C   0  0  0  0  0  0  0  0  0  0  0  0
   59.1880   27.9810   54.4320 N   0  0  0  0  0  0  0  0  0  0  0  0
   60.4380   27.4930   53.8240 C   0  0  0  0  0  0  0  0  0  0  0  0
   60.1860   26.7160   52.5210 C   0  0  0  0  0  0  0  0  0  0  0  0
   61.3840   26.8390   51.5690 C   0  0  0  0  0  0  0  0  0  0  0  0
   61.0910   27.7920   50.4070 C   0  0  0  0  0  0  0  0  0  0  0  0
   60.7620   29.1300   50.9190 N   0  0  0  0  0  0  0  0  0  0  0  0
   60.1660   30.0010   49.8950 C   0  0  0  0  0  0  0  0  0  0  0  0
   60.1350   29.3840   48.4820 C   0  0  0  0  0  0  0  0  0  0  0  0
   58.7680   29.4920   47.7930 C   0  0  0  0  0  0  0  0  0  0  0  0
   58.9360   29.6710   46.3560 N   0  0  0  0  0  0  0  0  0  0  0  0
   58.4250   28.7680   45.3680 C   0  0  0  0  0  0  0  0  0  0  0  0
   58.6480   29.0050   44.1520 O   0  0  0  0  0  0  0  0  0  0  0  0
   57.6890   27.5470   45.7400 C   0  0  0  0  0  0  0  0  0  0  0  0
   58.4040   26.4160   46.1600 C   0  0  0  0  0  0  0  0  0  0  0  0
   57.7250   25.2480   46.5200 C   0  0  0  0  0  0  0  0  0  0  0  0
   56.3280   25.2000   46.4530 C   0  0  0  0  0  0  0  0  0  0  0  0
   55.6600   24.0320   46.8040 O   0  0  0  0  0  0  0  0  0  0  0  0
   55.6080   26.3200   46.0220 C   0  0  0  0  0  0  0  0  0  0  0  0
   54.2210   26.2660   45.9460 O   0  0  0  0  0  0  0  0  0  0  0  0
   56.2850   27.4910   45.6570 C   0  0  0  0  0  0  0  0  0  0  0  0
   55.5620   28.5860   45.1940 O   0  0  0  0  0  0  0  0  0  0  0  0
   52.8723   28.3414   53.3795 H   0  0  0  0  0  0  0  0  0  0  0  0
   52.1951   29.5183   54.5726 H   0  0  0  0  0  0  0  0  0  0  0  0
   51.7082   31.8919   53.8225 H   0  0  0  0  0  0  0  0  0  0  0  0
   52.6422   28.7021   51.0397 H   0  0  0  0  0  0  0  0  0  0  0  0
   56.7984   30.2275   55.0962 H   0  0  0  0  0  0  0  0  0  0  0  0
   56.8553   28.5254   55.6906 H   0  0  0  0  0  0  0  0  0  0  0  0
   56.1612   28.4166   52.9244 H   0  0  0  0  0  0  0  0  0  0  0  0
   57.5473   29.5778   53.0980 H   0  0  0  0  0  0  0  0  0  0  0  0
   57.4991   26.7371   54.2242 H   0  0  0  0  0  0  0  0  0  0  0  0
   58.2919   27.2317   52.6821 H   0  0  0  0  0  0  0  0  0  0  0  0
   59.1160   27.6320   55.4160 H   0  0  0  0  0  0  0  0  0  0  0  0
   61.0844   28.3551   53.6029 H   0  0  0  0  0  0  0  0  0  0  0  0
   60.9158   26.8071   54.5390 H   0  0  0  0  0  0  0  0  0  0  0  0
   60.0237   25.6547   52.7603 H   0  0  0  0  0  0  0  0  0  0  0  0
   59.2991   27.1384   52.0260 H   0  0  0  0  0  0  0  0  0  0  0  0
   62.2488   27.2195   52.1322 H   0  0  0  0  0  0  0  0  0  0  0  0
   61.5920   25.8432   51.1505 H   0  0  0  0  0  0  0  0  0  0  0  0
   61.9775   27.8586   49.7592 H   0  0  0  0  0  0  0  0  0  0  0  0
   60.2352   27.4065   49.8335 H   0  0  0  0  0  0  0  0  0  0  0  0
   60.1210   29.0480   51.7400 H   0  0  0  0  0  0  0  0  0  0  0  0
   59.1325   30.2291   50.1948 H   0  0  0  0  0  0  0  0  0  0  0  0
   60.7995   30.8982   49.8348 H   0  0  0  0  0  0  0  0  0  0  0  0
   60.8796   29.9024   47.8600 H   0  0  0  0  0  0  0  0  0  0  0  0
   60.3555   28.3121   48.5937 H   0  0  0  0  0  0  0  0  0  0  0  0
   58.1946   28.5719   47.9791 H   0  0  0  0  0  0  0  0  0  0  0  0
   58.2307   30.3611   48.2005 H   0  0  0  0  0  0  0  0  0  0  0  0
   59.5026   26.4479   46.2063 H   0  0  0  0  0  0  0  0  0  0  0  0
   58.2895   24.3658   46.8563 H   0  0  0  0  0  0  0  0  0  0  0  0
  1  2  2  0
  2  3  1  0
  3  4  1  0
  4  5  2  0
  5  6  1  0
  6  7  1  0
  6  8  2  0
  8  9  1  0
  8 10  1  0
 10 11  1  0
 10 12  2  0
  2 13  1  0
 13 14  1  0
 14 15  1  0
 15 16  1  0
 16 17  1  0
 17 18  1  0
 18 19  1  0
 19 20  1  0
 20 21  1  0
 21 22  1  0
 22 23  1  0
 23 24  1  0
 24 25  1  0
 25 26  1  0
 26 27  1  0
 27 28  2  0
 27 29  1  0
 29 30  2  0
 30 31  1  0
 31 32  2  0
 32 33  1  0
 32 34  1  0
 34 35  1  0
 34 36  2  0
 36 37  1  0
 12  4  1  0
 36 29  1  0
  3 38  1  0
  3 39  1  0
  5 40  1  0
 12 41  1  0
 14 42  1  0
 14 43  1  0
 15 44  1  0
 15 45  1  0
 16 46  1  0
 16 47  1  0
 17 48  1  0
 18 49  1  0
 18 50  1  0
 19 51  1  0
 19 52  1  0
 20 53  1  0
 20 54  1  0
 21 55  1  0
 21 56  1  0
 22 57  1  0
 23 58  1  0
 23 59  1  0
 24 60  1  0
 24 61  1  0
 25 62  1  0
 25 63  1  0
 30 64  1  0
 31 65  1  0
M  CHG  8   7  -1   9  -1  11  -1  13  -1  26  -1  33  -1  35  -1  37  -1
M  END
>  <UniqueID>  (5) 
3

>  <SMILES>  (5) 
O=C(Cc1cc([O-])c([O-])c([O-])c1)[N-]CCCNCCCCNCCC[N-]C(=O)c1ccc([O-])c([O-])c1[O-]

>  <Energy>  (5) 
58.057531565749294

>  <Genealogy>  (5) 
O=C(Cc1cc([O-])c([O-])c([O-])c1)[N-]CCCNCCCCNCCC[N-]C(=O)c1ccc([O-])c([O-])c1[O-] (protonated)
O=C(Cc1cc([O-])c([O-])c([O-])c1)[N-]CCCNCCCCNCCC[N-]C(=O)c1ccc([O-])c([O-])c1[O-] (3D coordinates assigned)
O=C(Cc1cc([O-])c([O-])c([O-])c1)[N-]CCCNCCCCNCCC[N-]C(=O)c1ccc([O-])c([O-])c1[O-] (optimized conformer: 58.057531565749294 kcal/mol)

>  <smiles>  (5) 
O=C(Cc1cc(O)c(O)c(O)c1)NCCCNCCCCNCCCNC(=O)c1ccc(O)c(O)c1O

>  <score_type>  (5) 
oracle

>  <origin>  (5) 
adg

>  <m_score__min__energy>  (5) 
-29.91

>  <m_primary>  (5) 
energy

$$$$
5:0
     RDKit          3D

 72 76  0  0  0  0  0  0  0  0999 V2000
   56.7240   28.5700   44.9630 N   0  0  0  0  0  0  0  0  0  0  0  0
   57.1520   29.7190   45.3870 C   0  0  0  0  0  0  0  0  0  0  0  0
   56.6250   30.8510   44.8490 N   0  0  0  0  0  0  0  0  0  0  0  0
   57.0230   32.0950   45.2330 C   0  0  0  0  0  0  0  0  0  0  0  0
   58.0200   32.2440   46.2070 C   0  0  0  0  0  0  0  0  0  0  0  0
   58.4560   33.5890   46.6310 C   0  0  0  0  0  0  0  0  0  0  0  0
   57.7340   34.5830   46.3460 O   0  0  0  0  0  0  0  0  0  0  0  0
   59.6780   33.7840   47.3760 N   0  0  0  0  0  0  0  0  0  0  0  0
   60.9730   33.8620   46.6820 C   0  0  0  0  0  0  0  0  0  0  0  0
   62.0780   33.3810   47.5830 C   0  0  0  0  0  0  0  0  0  0  0  0
   62.5810   34.2200   48.5920 C   0  0  0  0  0  0  0  0  0  0  0  0
   63.6340   33.7900   49.4080 C   0  0  0  0  0  0  0  0  0  0  0  0
   64.1880   32.5180   49.2270 C   0  0  0  0  0  0  0  0  0  0  0  0
   65.2210   32.0890   50.0490 O   0  0  0  0  0  0  0  0  0  0  0  0
   63.6980   31.6780   48.2180 C   0  0  0  0  0  0  0  0  0  0  0  0
   62.6500   32.1090   47.3950 C   0  0  0  0  0  0  0  0  0  0  0  0
   59.6060   33.9700   48.8300 C   0  0  0  0  0  0  0  0  0  0  0  0
   59.3330   32.6490   49.4940 C   0  0  0  0  0  0  0  0  0  0  0  0
   58.1330   32.4490   50.1870 C   0  0  0  0  0  0  0  0  0  0  0  0
   57.9020   31.2450   50.8580 C   0  0  0  0  0  0  0  0  0  0  0  0
   58.8680   30.2320   50.8520 C   0  0  0  0  0  0  0  0  0  0  0  0
   58.6380   29.0460   51.5490 O   0  0  0  0  0  0  0  0  0  0  0  0
   60.0820   30.4280   50.1660 C   0  0  0  0  0  0  0  0  0  0  0  0
   61.1340   29.3920   50.1920 C   0  0  0  0  0  0  0  0  0  0  0  0
   61.1390   28.4790   49.3220 O   0  0  0  0  0  0  0  0  0  0  0  0
   62.0880   29.3500   51.2620 N   0  0  0  0  0  0  0  0  0  0  0  0
   61.8740   28.4000   52.3550 C   0  0  0  0  0  0  0  0  0  0  0  0
   62.9510   28.5650   53.4370 C   0  0  0  0  0  0  0  0  0  0  0  0
   64.3230   28.5420   52.8730 N   0  0  0  0  0  0  0  0  0  0  0  0
   64.8560   27.1730   52.7060 C   0  0  0  0  0  0  0  0  0  0  0  0
   66.1770   27.1890   51.9760 C   0  0  0  0  0  0  0  0  0  0  0  0
   67.2110   28.0360   52.4060 C   0  0  0  0  0  0  0  0  0  0  0  0
   68.4330   28.0560   51.7220 C   0  0  0  0  0  0  0  0  0  0  0  0
   68.6300   27.2250   50.6090 C   0  0  0  0  0  0  0  0  0  0  0  0
   67.6100   26.3710   50.1830 C   0  0  0  0  0  0  0  0  0  0  0  0
   66.3840   26.3540   50.8580 C   0  0  0  0  0  0  0  0  0  0  0  0
   64.5050   29.3510   51.6310 C   0  0  0  0  0  0  0  0  0  0  0  0
   63.2820   30.1970   51.2530 C   0  0  0  0  0  0  0  0  0  0  0  0
   60.3080   31.6430   49.4980 C   0  0  0  0  0  0  0  0  0  0  0  0
   58.5690   31.0940   46.7910 C   0  0  0  0  0  0  0  0  0  0  0  0
   58.1420   29.8230   46.3880 C   0  0  0  0  0  0  0  0  0  0  0  0
   58.8650   28.4110   47.1510 Cl  0  0  0  0  0  0  0  0  0  0  0  0
   55.8100   28.4300   44.4820 H   0  0  0  0  0  0  0  0  0  0  0  0
   56.5617   32.9842   44.7785 H   0  0  0  0  0  0  0  0  0  0  0  0
   60.9400   33.2327   45.7804 H   0  0  0  0  0  0  0  0  0  0  0  0
   61.1677   34.9084   46.4042 H   0  0  0  0  0  0  0  0  0  0  0  0
   62.1454   35.2190   48.7412 H   0  0  0  0  0  0  0  0  0  0  0  0
   64.0266   34.4533   50.1928 H   0  0  0  0  0  0  0  0  0  0  0  0
   64.1366   30.6798   48.0723 H   0  0  0  0  0  0  0  0  0  0  0  0
   62.2725   31.4508   46.5986 H   0  0  0  0  0  0  0  0  0  0  0  0
   60.5621   34.3729   49.1954 H   0  0  0  0  0  0  0  0  0  0  0  0
   58.7949   34.6737   49.0688 H   0  0  0  0  0  0  0  0  0  0  0  0
   57.3702   33.2414   50.2034 H   0  0  0  0  0  0  0  0  0  0  0  0
   56.9541   31.0923   51.3948 H   0  0  0  0  0  0  0  0  0  0  0  0
   59.2640   28.2520   51.4760 H   0  0  0  0  0  0  0  0  0  0  0  0
   60.8843   28.5792   52.8005 H   0  0  0  0  0  0  0  0  0  0  0  0
   61.9319   27.3783   51.9516 H   0  0  0  0  0  0  0  0  0  0  0  0
   62.7946   29.5264   53.9482 H   0  0  0  0  0  0  0  0  0  0  0  0
   62.8595   27.7197   54.1349 H   0  0  0  0  0  0  0  0  0  0  0  0
   64.9993   26.7199   53.6980 H   0  0  0  0  0  0  0  0  0  0  0  0
   64.1368   26.5881   52.1138 H   0  0  0  0  0  0  0  0  0  0  0  0
   67.0611   28.6849   53.2815 H   0  0  0  0  0  0  0  0  0  0  0  0
   69.2395   28.7243   52.0580 H   0  0  0  0  0  0  0  0  0  0  0  0
   69.5892   27.2460   50.0709 H   0  0  0  0  0  0  0  0  0  0  0  0
   67.7703   25.7119   49.3171 H   0  0  0  0  0  0  0  0  0  0  0  0
   65.5790   25.6872   50.5155 H   0  0  0  0  0  0  0  0  0  0  0  0
   65.3602   30.0265   51.7803 H   0  0  0  0  0  0  0  0  0  0  0  0
   64.6665   28.6391   50.8081 H   0  0  0  0  0  0  0  0  0  0  0  0
   63.1598   31.0125   51.9810 H   0  0  0  0  0  0  0  0  0  0  0  0
   63.4243   30.6236   50.2491 H   0  0  0  0  0  0  0  0  0  0  0  0
   61.2605   31.8062   48.9726 H   0  0  0  0  0  0  0  0  0  0  0  0
   59.3395   31.1907   47.5701 H   0  0  0  0  0  0  0  0  0  0  0  0
  1  2  2  3
  2  3  1  0
  3  4  1  0
  4  5  2  0
  5  6  1  0
  6  7  2  0
  6  8  1  0
  8  9  1  0
  9 10  1  0
 10 11  2  0
 11 12  1  0
 12 13  2  0
 13 14  1  0
 13 15  1  0
 15 16  2  0
  8 17  1  0
 17 18  1  0
 18 19  2  0
 19 20  1  0
 20 21  2  0
 21 22  1  0
 21 23  1  0
 23 24  1  0
 24 25  2  0
 24 26  1  0
 26 27  1  0
 27 28  1  0
 28 29  1  0
 29 30  1  0
 30 31  1  0
 31 32  2  0
 32 33  1  0
 33 34  2  0
 34 35  1  0
 35 36  2  0
 29 37  1  0
 37 38  1  0
 23 39  2  0
  5 40  1  0
 40 41  2  0
 41 42  1  0
 41  2  1  0
 16 10  1  0
 39 18  1  0
 38 26  1  0
 36 31  1  0
  1 43  1  0
  4 44  1  0
  9 45  1  0
  9 46  1  0
 11 47  1  0
 12 48  1  0
 15 49  1  0
 16 50  1  0
 17 51  1  0
 17 52  1  0
 19 53  1  0
 20 54  1  0
 22 55  1  0
 27 56  1  0
 27 57  1  0
 28 58  1  0
 28 59  1  0
 30 60  1  0
 30 61  1  0
 32 62  1  0
 33 63  1  0
 34 64  1  0
 35 65  1  0
 36 66  1  0
 37 67  1  0
 37 68  1  0
 38 69  1  0
 38 70  1  0
 39 71  1  0
 40 72  1  0
M  CHG  2   3  -1  14  -1
M  END
>  <UniqueID>  (6) 
4

>  <SMILES>  (6) 
N=c1[n-]cc(C(=O)N(Cc2ccc([O-])cc2)Cc2ccc(O)c(C(=O)N3CCN(Cc4ccccc4)CC3)c2)cc1Cl

>  <Energy>  (6) 
99.32732631614995

>  <Genealogy>  (6) 
N=c1[n-]cc(C(=O)N(Cc2ccc([O-])cc2)Cc2ccc(O)c(C(=O)N3CCN(Cc4ccccc4)CC3)c2)cc1Cl (protonated)
N=c1[n-]cc(C(=O)N(Cc2ccc([O-])cc2)Cc2ccc(O)c(C(=O)N3CCN(Cc4ccccc4)CC3)c2)cc1Cl (3D coordinates assigned)
N=c1[n-]cc(C(=O)N(Cc2ccc([O-])cc2)Cc2ccc(O)c(C(=O)N3CCN(Cc4ccccc4)CC3)c2)cc1Cl (nonaromatic ring conformer: 99.32732631614995 kcal/mol)

>  <smiles>  (6) 
N=c1[nH]cc(C(=O)N(Cc2ccc(O)cc2)Cc2ccc(O)c(C(=O)N3CCN(Cc4ccccc4)CC3)c2)cc1Cl

>  <score_type>  (6) 
oracle

>  <origin>  (6) 
adg

>  <m_score__min__energy>  (6) 
-12.779999999999999

>  <m_primary>  (6) 
energy

$$$$
6:0
     RDKit          3D

 61 64  0  0  0  0  0  0  0  0999 V2000
   56.3760   29.4480   44.3230 C   0  0  0  0  0  0  0  0  0  0  0  0
   57.6350   29.0550   44.5830 C   0  0  0  0  0  0  0  0  0  0  0  0
   58.0920   27.7380   44.7530 C   0  0  0  0  0  0  0  0  0  0  0  0
   57.4950   26.5580   44.4920 C   0  0  0  0  0  0  0  0  0  0  0  0
   56.9850   25.6150   45.5030 C   0  0  0  0  0  0  0  0  0  0  0  0
   57.6910   24.5920   46.0180 N   0  0  0  0  0  0  0  0  0  0  0  0
   56.8860   24.1130   46.9900 C   0  0  0  0  0  0  0  0  0  0  0  0
   57.1970   23.1240   47.7030 O   0  0  0  0  0  0  0  0  0  0  0  0
   55.7240   24.7830   47.1450 N   0  0  0  0  0  0  0  0  0  0  0  0
   55.8100   25.7390   46.2050 C   0  0  0  0  0  0  0  0  0  0  0  0
   54.8370   26.7090   45.9980 O   0  0  0  0  0  0  0  0  0  0  0  0
   59.3710   27.8380   45.2820 C   0  0  0  0  0  0  0  0  0  0  0  0
   59.6730   29.1840   45.3440 C   0  0  0  0  0  0  0  0  0  0  0  0
   60.9320   29.7520   45.9260 C   0  0  0  0  0  0  0  0  0  0  0  0
   58.6270   29.9200   44.9090 N   0  0  0  0  0  0  0  0  0  0  0  0
   58.5210   31.3500   45.0040 C   0  0  0  0  0  0  0  0  0  0  0  0
   57.9230   32.0920   43.9790 C   0  0  0  0  0  0  0  0  0  0  0  0
   57.7910   33.4780   44.1090 C   0  0  0  0  0  0  0  0  0  0  0  0
   58.2320   34.1240   45.2700 C   0  0  0  0  0  0  0  0  0  0  0  0
   58.8040   33.3810   46.3170 C   0  0  0  0  0  0  0  0  0  0  0  0
   59.1990   34.0280   47.5870 C   0  0  0  0  0  0  0  0  0  0  0  0
   59.2800   35.2860   47.6610 O   0  0  0  0  0  0  0  0  0  0  0  0
   59.5100   33.2280   48.7390 N   0  0  0  0  0  0  0  0  0  0  0  0
   60.9220   33.1860   49.1560 C   0  0  0  0  0  0  0  0  0  0  0  0
   61.1890   32.3000   50.3800 C   0  0  0  0  0  0  0  0  0  0  0  0
   60.3080   31.0450   50.4070 C   0  0  0  0  0  0  0  0  0  0  0  0
   60.5900   30.0690   49.2230 C   0  0  0  0  0  0  0  0  0  0  0  0
   59.7080   28.8800   49.2630 N   0  0  0  0  0  0  0  0  0  0  0  0
   60.4770   27.6780   48.9010 C   0  0  0  0  0  0  0  0  0  0  0  0
   58.5700   29.0240   48.3380 C   0  0  0  0  0  0  0  0  0  0  0  0
   58.8460   31.5040   50.4720 C   0  0  0  0  0  0  0  0  0  0  0  0
   58.4350   32.3680   49.2710 C   0  0  0  0  0  0  0  0  0  0  0  0
   58.9740   31.9960   46.1600 C   0  0  0  0  0  0  0  0  0  0  0  0
   56.1458   30.5178   44.2112 H   0  0  0  0  0  0  0  0  0  0  0  0
   55.5760   28.6998   44.2221 H   0  0  0  0  0  0  0  0  0  0  0  0
   57.3787   26.2752   43.4354 H   0  0  0  0  0  0  0  0  0  0  0  0
   60.0194   27.0053   45.5922 H   0  0  0  0  0  0  0  0  0  0  0  0
   60.8729   29.7253   47.0241 H   0  0  0  0  0  0  0  0  0  0  0  0
   61.7929   29.1551   45.5905 H   0  0  0  0  0  0  0  0  0  0  0  0
   61.0542   30.7924   45.5905 H   0  0  0  0  0  0  0  0  0  0  0  0
   57.5577   31.5860   43.0732 H   0  0  0  0  0  0  0  0  0  0  0  0
   57.3385   34.0635   43.2951 H   0  0  0  0  0  0  0  0  0  0  0  0
   58.1306   35.2154   45.3631 H   0  0  0  0  0  0  0  0  0  0  0  0
   61.5189   32.8025   48.3154 H   0  0  0  0  0  0  0  0  0  0  0  0
   61.1986   34.2117   49.4412 H   0  0  0  0  0  0  0  0  0  0  0  0
   62.2440   31.9889   50.3656 H   0  0  0  0  0  0  0  0  0  0  0  0
   60.9510   32.8918   51.2762 H   0  0  0  0  0  0  0  0  0  0  0  0
   60.5485   30.4474   51.2987 H   0  0  0  0  0  0  0  0  0  0  0  0
   60.4242   30.6026   48.2755 H   0  0  0  0  0  0  0  0  0  0  0  0
   61.6308   29.7234   49.3077 H   0  0  0  0  0  0  0  0  0  0  0  0
   60.8060   27.1638   49.8161 H   0  0  0  0  0  0  0  0  0  0  0  0
   59.8433   27.0020   48.3082 H   0  0  0  0  0  0  0  0  0  0  0  0
   61.3564   27.9700   48.3082 H   0  0  0  0  0  0  0  0  0  0  0  0
   57.6410   29.1416   48.9151 H   0  0  0  0  0  0  0  0  0  0  0  0
   58.7225   29.9100   47.7042 H   0  0  0  0  0  0  0  0  0  0  0  0
   58.4970   28.1279   47.7042 H   0  0  0  0  0  0  0  0  0  0  0  0
   58.2001   30.6141   50.5011 H   0  0  0  0  0  0  0  0  0  0  0  0
   58.7347   32.1216   51.3754 H   0  0  0  0  0  0  0  0  0  0  0  0
   58.0999   31.6987   48.4649 H   0  0  0  0  0  0  0  0  0  0  0  0
   57.6425   33.0424   49.6276 H   0  0  0  0  0  0  0  0  0  0  0  0
   59.4674   31.4138   46.9523 H   0  0  0  0  0  0  0  0  0  0  0  0
  1  2  2  0
  2  3  1  0
  3  4  2  3
  4  5  1  0
  5  6  1  0
  6  7  1  0
  7  8  2  0
  7  9  1  0
  9 10  1  0
 10 11  1  0
  3 12  1  0
 12 13  2  0
 13 14  1  0
 13 15  1  0
 15 16  1  0
 16 17  2  0
 17 18  1  0
 18 19  2  0
 19 20  1  0
 20 21  1  0
 21 22  2  0
 21 23  1  0
 23 24  1  0
 24 25  1  0
 25 26  1  0
 26 27  1  0
 27 28  1  0
 28 29  1  0
 28 30  1  0
 26 31  1  0
 31 32  1  0
 20 33  2  0
 15  2  1  0
 33 16  1  0
 10  5  2  0
 32 23  1  0
  1 34  1  0
  1 35  1  0
  4 36  1  0
 12 37  1  0
 14 38  1  0
 14 39  1  0
 14 40  1  0
 17 41  1  0
 18 42  1  0
 19 43  1  0
 24 44  1  0
 24 45  1  0
 25 46  1  0
 25 47  1  0
 26 48  1  0
 27 49  1  0
 27 50  1  0
 29 51  1  0
 29 52  1  0
 29 53  1  0
 30 54  1  0
 30 55  1  0
 30 56  1  0
 31 57  1  0
 31 58  1  0
 32 59  1  0
 32 60  1  0
 33 61  1  0
M  CHG  3   6  -1   9  -1  11  -1
M  END
>  <UniqueID>  (7) 
5

>  <SMILES>  (7) 
C=c1c(=Cc2[n-]c(=O)[n-]c2[O-])cc(C)n1-c1cccc(C(=O)N2CCC(CN(C)C)CC2)c1

>  <Energy>  (7) 
146.7273311341004

>  <Genealogy>  (7) 
C=c1c(=Cc2[n-]c(=O)[n-]c2[O-])cc(C)n1-c1cccc(C(=O)N2CCC(CN(C)C)CC2)c1 (protonated)
C=c1c(=Cc2[n-]c(=O)[n-]c2[O-])cc(C)n1-c1cccc(C(=O)N2CCC(CN(C)C)CC2)c1 (3D coordinates assigned)
C=c1c(=Cc2[n-]c(=O)[n-]c2[O-])cc(C)n1-c1cccc(C(=O)N2CCC(CN(C)C)CC2)c1 (nonaromatic ring conformer: 146.7273311341004 kcal/mol)

>  <smiles>  (7) 
C=c1c(=Cc2[nH]c(=O)[nH]c2O)cc(C)n1-c1cccc(C(=O)N2CCC(CN(C)C)CC2)c1

>  <score_type>  (7) 
oracle

>  <origin>  (7) 
adg

>  <m_score__min__energy>  (7) 
-17.109999999999999

>  <m_primary>  (7) 
energy

$$$$
7:0
     RDKit          3D

 52 55  0  0  0  0  0  0  0  0999 V2000
   58.6700   31.9620   46.0120 O   0  0  0  0  0  0  0  0  0  0  0  0
   59.5420   32.0620   46.9150 C   0  0  0  0  0  0  0  0  0  0  0  0
   60.5320   33.0980   46.8260 N   0  0  0  0  0  0  0  0  0  0  0  0
   61.6740   33.2040   47.6910 C   0  0  0  0  0  0  0  0  0  0  0  0
   61.5450   33.8420   48.9330 C   0  0  0  0  0  0  0  0  0  0  0  0
   62.6480   33.9540   49.7910 C   0  0  0  0  0  0  0  0  0  0  0  0
   63.9050   33.4560   49.4020 C   0  0  0  0  0  0  0  0  0  0  0  0
   65.0340   33.5640   50.2870 N   0  0  0  0  0  0  0  0  0  0  0  0
   64.8400   34.2360   51.5820 C   0  0  0  0  0  0  0  0  0  0  0  0
   66.1780   34.5260   52.2820 C   0  0  0  0  0  0  0  0  0  0  0  0
   67.0400   33.4100   52.2200 O   0  0  0  0  0  0  0  0  0  0  0  0
   67.4110   33.2000   50.8710 C   0  0  0  0  0  0  0  0  0  0  0  0
   66.2080   32.7080   50.0580 C   0  0  0  0  0  0  0  0  0  0  0  0
   64.0380   32.8430   48.1440 C   0  0  0  0  0  0  0  0  0  0  0  0
   62.9340   32.7210   47.2950 C   0  0  0  0  0  0  0  0  0  0  0  0
   59.5180   31.1230   48.0600 C   0  0  0  0  0  0  0  0  0  0  0  0
   58.8860   31.5130   49.2520 C   0  0  0  0  0  0  0  0  0  0  0  0
   58.7780   30.6170   50.3190 C   0  0  0  0  0  0  0  0  0  0  0  0
   59.3220   29.3360   50.2130 C   0  0  0  0  0  0  0  0  0  0  0  0
   59.9880   28.9520   49.0460 C   0  0  0  0  0  0  0  0  0  0  0  0
   60.1090   29.8460   47.9650 C   0  0  0  0  0  0  0  0  0  0  0  0
   60.8570   29.5080   46.7850 N   0  0  0  0  0  0  0  0  0  0  0  0
   60.5280   28.2080   45.6860 S   0  0  0  0  0  0  0  0  0  0  0  0
   61.4050   27.0240   45.9920 O   0  0  0  0  0  0  0  0  0  0  0  0
   60.8450   28.6700   44.2910 O   0  0  0  0  0  0  0  0  0  0  0  0
   58.8230   27.7730   45.7670 C   0  0  0  0  0  0  0  0  0  0  0  0
   57.8400   28.5830   45.1670 C   0  0  0  0  0  0  0  0  0  0  0  0
   56.4900   28.2190   45.2380 C   0  0  0  0  0  0  0  0  0  0  0  0
   56.1150   27.0520   45.9160 C   0  0  0  0  0  0  0  0  0  0  0  0
   54.7720   26.6890   45.9900 O   0  0  0  0  0  0  0  0  0  0  0  0
   57.0910   26.2480   46.5210 C   0  0  0  0  0  0  0  0  0  0  0  0
   58.4410   26.6010   46.4390 C   0  0  0  0  0  0  0  0  0  0  0  0
   60.5724   34.2571   49.2359 H   0  0  0  0  0  0  0  0  0  0  0  0
   62.5300   34.4339   50.7738 H   0  0  0  0  0  0  0  0  0  0  0  0
   64.3128   35.1867   51.4142 H   0  0  0  0  0  0  0  0  0  0  0  0
   64.2538   33.5672   52.2294 H   0  0  0  0  0  0  0  0  0  0  0  0
   66.6628   35.3814   51.7888 H   0  0  0  0  0  0  0  0  0  0  0  0
   65.9757   34.7510   53.3396 H   0  0  0  0  0  0  0  0  0  0  0  0
   67.7753   34.1458   50.4435 H   0  0  0  0  0  0  0  0  0  0  0  0
   68.2039   32.4386   50.8327 H   0  0  0  0  0  0  0  0  0  0  0  0
   66.4642   32.7268   48.9884 H   0  0  0  0  0  0  0  0  0  0  0  0
   65.9637   31.6839   50.3767 H   0  0  0  0  0  0  0  0  0  0  0  0
   65.0174   32.4567   47.8254 H   0  0  0  0  0  0  0  0  0  0  0  0
   63.0517   32.2441   46.3108 H   0  0  0  0  0  0  0  0  0  0  0  0
   58.4740   32.5286   49.3462 H   0  0  0  0  0  0  0  0  0  0  0  0
   58.2641   30.9214   51.2427 H   0  0  0  0  0  0  0  0  0  0  0  0
   59.2264   28.6277   51.0492 H   0  0  0  0  0  0  0  0  0  0  0  0
   60.4210   27.9436   48.9714 H   0  0  0  0  0  0  0  0  0  0  0  0
   58.1333   29.5037   44.6414 H   0  0  0  0  0  0  0  0  0  0  0  0
   55.7243   28.8490   44.7617 H   0  0  0  0  0  0  0  0  0  0  0  0
   56.7938   25.3372   47.0615 H   0  0  0  0  0  0  0  0  0  0  0  0
   59.2054   25.9595   46.9018 H   0  0  0  0  0  0  0  0  0  0  0  0
  1  2  2  0
  2  3  1  0
  3  4  1  0
  4  5  2  0
  5  6  1  0
  6  7  2  0
  7  8  1  0
  8  9  1  0
  9 10  1  0
 10 11  1  0
 11 12  1  0
 12 13  1  0
  7 14  1  0
 14 15  2  0
  2 16  1  0
 16 17  2  0
 17 18  1  0
 18 19  2  0
 19 20  1  0
 20 21  2  0
 21 22  1  0
 22 23  1  0
 23 24  2  0
 23 25  2  0
 23 26  1  0
 26 27  2  0
 27 28  1  0
 28 29  2  0
 29 30  1  0
 29 31  1  0
 31 32  2  0
 15  4  1  0
 21 16  1  0
 32 26  1  0
 13  8  1  0
  5 33  1  0
  6 34  1  0
  9 35  1  0
  9 36  1  0
 10 37  1  0
 10 38  1  0
 12 39  1  0
 12 40  1  0
 13 41  1  0
 13 42  1  0
 14 43  1  0
 15 44  1  0
 17 45  1  0
 18 46  1  0
 19 47  1  0
 20 48  1  0
 27 49  1  0
 28 50  1  0
 31 51  1  0
 32 52  1  0
M  CHG  3   3  -1  22  -1  30  -1
M  END
>  <UniqueID>  (8) 
6

>  <SMILES>  (8) 
O=C([N-]c1ccc(N2CCOCC2)cc1)c1ccccc1[N-]S(=O)(=O)c1ccc([O-])cc1

>  <Energy>  (8) 
71.92887419112321

>  <Genealogy>  (8) 
O=C([N-]c1ccc(N2CCOCC2)cc1)c1ccccc1[N-]S(=O)(=O)c1ccc([O-])cc1 (protonated)
O=C([N-]c1ccc(N2CCOCC2)cc1)c1ccccc1[N-]S(=O)(=O)c1ccc([O-])cc1 (3D coordinates assigned)
O=C([N-]c1ccc(N2CCOCC2)cc1)c1ccccc1[N-]S(=O)(=O)c1ccc([O-])cc1 (nonaromatic ring conformer: 71.92887419112321 kcal/mol)

>  <smiles>  (8) 
O=C(Nc1ccc(N2CCOCC2)cc1)c1ccccc1NS(=O)(=O)c1ccc(O)cc1

>  <score_type>  (8) 
oracle

>  <origin>  (8) 
adg

>  <m_score__min__energy>  (8) 
-14.539999999999999

>  <m_primary>  (8) 
energy

$$$$
8:0
     RDKit          3D

 57 60  0  0  0  0  0  0  0  0999 V2000
   59.9490   24.7150   45.9390 O   0  0  0  0  0  0  0  0  0  0  0  0
   58.7410   25.0220   46.1360 C   0  0  0  0  0  0  0  0  0  0  0  0
   57.9330   24.1480   46.9440 N   0  0  0  0  0  0  0  0  0  0  0  0
   56.5680   23.7060   46.6500 C   0  0  0  0  0  0  0  0  0  0  0  0
   56.4880   23.0550   45.2920 C   0  0  0  0  0  0  0  0  0  0  0  0
   55.8480   23.7060   44.2250 C   0  0  0  0  0  0  0  0  0  0  0  0
   55.7540   23.0680   42.9860 C   0  0  0  0  0  0  0  0  0  0  0  0
   56.2860   21.8310   42.8120 N   0  0  0  0  0  0  0  0  0  0  0  0
   56.9220   21.1820   43.8230 C   0  0  0  0  0  0  0  0  0  0  0  0
   57.0440   21.7840   45.0780 C   0  0  0  0  0  0  0  0  0  0  0  0
   58.2340   26.3050   45.6080 C   0  0  0  0  0  0  0  0  0  0  0  0
   57.5440   27.1840   46.4590 C   0  0  0  0  0  0  0  0  0  0  0  0
   57.0270   28.3850   45.9660 C   0  0  0  0  0  0  0  0  0  0  0  0
   57.1890   28.7230   44.6120 C   0  0  0  0  0  0  0  0  0  0  0  0
   56.6290   30.0200   44.0910 C   0  0  0  0  0  0  0  0  0  0  0  0
   57.2710   31.1580   44.7840 N   0  0  0  0  0  0  0  0  0  0  0  0
   57.4250   32.3170   43.8760 C   0  0  0  0  0  0  0  0  0  0  0  0
   58.2810   33.4330   44.5090 C   0  0  0  0  0  0  0  0  0  0  0  0
   58.4590   33.1850   45.9510 N   0  0  0  0  0  0  0  0  0  0  0  0
   59.0480   34.3300   46.6840 C   0  0  0  0  0  0  0  0  0  0  0  0
   60.3840   34.0280   47.3360 C   0  0  0  0  0  0  0  0  0  0  0  0
   60.4980   33.9510   48.7360 C   0  0  0  0  0  0  0  0  0  0  0  0
   61.7300   33.6570   49.3300 C   0  0  0  0  0  0  0  0  0  0  0  0
   62.8630   33.4560   48.5340 C   0  0  0  0  0  0  0  0  0  0  0  0
   64.5480   33.0620   49.3460 Br  0  0  0  0  0  0  0  0  0  0  0  0
   62.7620   33.5530   47.1410 C   0  0  0  0  0  0  0  0  0  0  0  0
   61.5310   33.8380   46.5440 C   0  0  0  0  0  0  0  0  0  0  0  0
   59.1740   31.9160   46.1920 C   0  0  0  0  0  0  0  0  0  0  0  0
   58.5800   30.7690   45.3500 C   0  0  0  0  0  0  0  0  0  0  0  0
   57.9110   27.8630   43.7700 C   0  0  0  0  0  0  0  0  0  0  0  0
   58.4420   26.6680   44.2670 C   0  0  0  0  0  0  0  0  0  0  0  0
   56.2527   22.9811   47.4149 H   0  0  0  0  0  0  0  0  0  0  0  0
   55.9076   24.5857   46.6549 H   0  0  0  0  0  0  0  0  0  0  0  0
   55.4237   24.7113   44.3639 H   0  0  0  0  0  0  0  0  0  0  0  0
   55.2472   23.5695   42.1483 H   0  0  0  0  0  0  0  0  0  0  0  0
   57.3420   20.1797   43.6526 H   0  0  0  0  0  0  0  0  0  0  0  0
   57.5718   21.2658   45.8922 H   0  0  0  0  0  0  0  0  0  0  0  0
   57.4098   26.9255   47.5197 H   0  0  0  0  0  0  0  0  0  0  0  0
   56.4910   29.0686   46.6408 H   0  0  0  0  0  0  0  0  0  0  0  0
   56.8233   30.0938   43.0108 H   0  0  0  0  0  0  0  0  0  0  0  0
   55.5450   30.0474   44.2757 H   0  0  0  0  0  0  0  0  0  0  0  0
   57.9098   31.9799   42.9479 H   0  0  0  0  0  0  0  0  0  0  0  0
   56.4246   32.7274   43.6740 H   0  0  0  0  0  0  0  0  0  0  0  0
   59.2662   33.4561   44.0204 H   0  0  0  0  0  0  0  0  0  0  0  0
   57.7700   34.3974   44.3720 H   0  0  0  0  0  0  0  0  0  0  0  0
   59.1896   35.1583   45.9742 H   0  0  0  0  0  0  0  0  0  0  0  0
   58.3488   34.5801   47.4955 H   0  0  0  0  0  0  0  0  0  0  0  0
   59.6136   34.1229   49.3671 H   0  0  0  0  0  0  0  0  0  0  0  0
   61.8081   33.5837   50.4248 H   0  0  0  0  0  0  0  0  0  0  0  0
   63.6540   33.4045   46.5147 H   0  0  0  0  0  0  0  0  0  0  0  0
   61.4586   33.9142   45.4490 H   0  0  0  0  0  0  0  0  0  0  0  0
   60.2332   32.0453   45.9247 H   0  0  0  0  0  0  0  0  0  0  0  0
   59.0697   31.6556   47.2556 H   0  0  0  0  0  0  0  0  0  0  0  0
   59.2712   30.5289   44.5287 H   0  0  0  0  0  0  0  0  0  0  0  0
   58.4376   29.8921   45.9986 H   0  0  0  0  0  0  0  0  0  0  0  0
   58.0602   28.1301   42.7134 H   0  0  0  0  0  0  0  0  0  0  0  0
   59.0246   26.0102   43.6053 H   0  0  0  0  0  0  0  0  0  0  0  0
  1  2  2  0
  2  3  1  0
  3  4  1  0
  4  5  1  0
  5  6  2  0
  6  7  1  0
  7  8  2  0
  8  9  1  0
  9 10  2  0
  2 11  1  0
 11 12  2  0
 12 13  1  0
 13 14  2  0
 14 15  1  0
 15 16  1  0
 16 17  1  0
 17 18  1  0
 18 19  1  0
 19 20  1  0
 20 21  1  0
 21 22  2  0
 22 23  1  0
 23 24  2  0
 24 25  1  0
 24 26  1  0
 26 27  2  0
 19 28  1  0
 28 29  1  0
 14 30  1  0
 30 31  2  0
 10  5  1  0
 31 11  1  0
 29 16  1  0
 27 21  1  0
  4 32  1  0
  4 33  1  0
  6 34  1  0
  7 35  1  0
  9 36  1  0
 10 37  1  0
 12 38  1  0
 13 39  1  0
 15 40  1  0
 15 41  1  0
 17 42  1  0
 17 43  1  0
 18 44  1  0
 18 45  1  0
 20 46  1  0
 20 47  1  0
 22 48  1  0
 23 49  1  0
 26 50  1  0
 27 51  1  0
 28 52  1  0
 28 53  1  0
 29 54  1  0
 29 55  1  0
 30 56  1  0
 31 57  1  0
M  CHG  1   3  -1
M  END
>  <UniqueID>  (9) 
7

>  <SMILES>  (9) 
O=C([N-]Cc1ccncc1)c1ccc(CN2CCN(Cc3ccc(Br)cc3)CC2)cc1

>  <Energy>  (9) 
75.2543219273746

>  <Genealogy>  (9) 
O=C([N-]Cc1ccncc1)c1ccc(CN2CCN(Cc3ccc(Br)cc3)CC2)cc1 (protonated)
O=C([N-]Cc1ccncc1)c1ccc(CN2CCN(Cc3ccc(Br)cc3)CC2)cc1 (3D coordinates assigned)
O=C([N-]Cc1ccncc1)c1ccc(CN2CCN(Cc3ccc(Br)cc3)CC2)cc1 (nonaromatic ring conformer: 75.2543219273746 kcal/mol)

>  <smiles>  (9) 
O=C(NCc1ccncc1)c1ccc(CN2CCN(Cc3ccc(Br)cc3)CC2)cc1

>  <score_type>  (9) 
oracle

>  <origin>  (9) 
adg

>  <m_score__min__energy>  (9) 
-12.050000000000001

>  <m_primary>  (9) 
energy

$$$$
9:0
     RDKit          3D

 52 55  0  0  0  0  0  0  0  0999 V2000
   53.6230   29.1000   51.9500 O   0  0  0  0  0  0  0  0  0  0  0  0
   54.2320   30.1690   52.2250 C   0  0  0  0  0  0  0  0  0  0  0  0
   53.5340   31.4810   52.0510 C   0  0  0  0  0  0  0  0  0  0  0  0
   52.4970   31.3930   50.9730 C   0  0  0  0  0  0  0  0  0  0  0  0
   52.5020   30.4660   49.9980 N   0  0  0  0  0  0  0  0  0  0  0  0
   51.3890   30.7590   49.2870 C   0  0  0  0  0  0  0  0  0  0  0  0
   51.0420   30.1000   48.2730 O   0  0  0  0  0  0  0  0  0  0  0  0
   50.6790   31.8100   49.7490 N   0  0  0  0  0  0  0  0  0  0  0  0
   51.3930   32.1980   50.8180 C   0  0  0  0  0  0  0  0  0  0  0  0
   51.0400   33.2640   51.6350 O   0  0  0  0  0  0  0  0  0  0  0  0
   55.6070   30.1510   52.6310 N   0  0  0  0  0  0  0  0  0  0  0  0
   56.6600   30.9800   52.1200 C   0  0  0  0  0  0  0  0  0  0  0  0
   57.0230   32.1190   52.8420 C   0  0  0  0  0  0  0  0  0  0  0  0
   58.0540   32.9450   52.3910 C   0  0  0  0  0  0  0  0  0  0  0  0
   58.7350   32.6460   51.2020 C   0  0  0  0  0  0  0  0  0  0  0  0
   59.8110   33.4860   50.7600 N   0  0  0  0  0  0  0  0  0  0  0  0
   61.1910   33.3050   51.0990 C   0  0  0  0  0  0  0  0  0  0  0  0
   61.6530   33.8910   52.1130 O   0  0  0  0  0  0  0  0  0  0  0  0
   62.0660   32.3410   50.3460 C   0  0  0  0  0  0  0  0  0  0  0  0
   62.3250   32.8550   48.9560 C   0  0  0  0  0  0  0  0  0  0  0  0
   63.5480   32.5980   48.3120 C   0  0  0  0  0  0  0  0  0  0  0  0
   63.7860   33.1010   47.0290 C   0  0  0  0  0  0  0  0  0  0  0  0
   62.8160   33.8740   46.3860 C   0  0  0  0  0  0  0  0  0  0  0  0
   61.6030   34.1460   47.0250 C   0  0  0  0  0  0  0  0  0  0  0  0
   61.3560   33.6420   48.3050 C   0  0  0  0  0  0  0  0  0  0  0  0
   58.3980   31.4840   50.4770 C   0  0  0  0  0  0  0  0  0  0  0  0
   59.1110   31.1320   49.2230 C   0  0  0  0  0  0  0  0  0  0  0  0
   60.0380   30.2800   49.2770 O   0  0  0  0  0  0  0  0  0  0  0  0
   58.7730   31.7520   47.9150 C   0  0  0  0  0  0  0  0  0  0  0  0
   59.0920   31.0840   46.7160 C   0  0  0  0  0  0  0  0  0  0  0  0
   58.7990   31.6660   45.4790 C   0  0  0  0  0  0  0  0  0  0  0  0
   58.1870   32.9190   45.4210 C   0  0  0  0  0  0  0  0  0  0  0  0
   57.8740   33.5980   46.6000 C   0  0  0  0  0  0  0  0  0  0  0  0
   58.1690   33.0240   47.8390 C   0  0  0  0  0  0  0  0  0  0  0  0
   57.3730   30.6480   50.9550 C   0  0  0  0  0  0  0  0  0  0  0  0
   53.0475   31.7590   52.9976 H   0  0  0  0  0  0  0  0  0  0  0  0
   54.2766   32.2403   51.7648 H   0  0  0  0  0  0  0  0  0  0  0  0
   56.4925   32.3671   53.7731 H   0  0  0  0  0  0  0  0  0  0  0  0
   58.3341   33.8361   52.9719 H   0  0  0  0  0  0  0  0  0  0  0  0
   63.0231   32.2280   50.8763 H   0  0  0  0  0  0  0  0  0  0  0  0
   61.5569   31.3681   50.2810 H   0  0  0  0  0  0  0  0  0  0  0  0
   64.3197   31.9997   48.8186 H   0  0  0  0  0  0  0  0  0  0  0  0
   64.7399   32.8874   46.5245 H   0  0  0  0  0  0  0  0  0  0  0  0
   63.0068   34.2685   45.3771 H   0  0  0  0  0  0  0  0  0  0  0  0
   60.8414   34.7579   46.5195 H   0  0  0  0  0  0  0  0  0  0  0  0
   60.4012   33.8610   48.8055 H   0  0  0  0  0  0  0  0  0  0  0  0
   59.5755   30.0966   46.7536 H   0  0  0  0  0  0  0  0  0  0  0  0
   59.0514   31.1351   44.5493 H   0  0  0  0  0  0  0  0  0  0  0  0
   57.9513   33.3715   44.4465 H   0  0  0  0  0  0  0  0  0  0  0  0
   57.3942   34.5868   46.5533 H   0  0  0  0  0  0  0  0  0  0  0  0
   57.9280   33.5691   48.7635 H   0  0  0  0  0  0  0  0  0  0  0  0
   57.1266   29.7241   50.4112 H   0  0  0  0  0  0  0  0  0  0  0  0
  1  2  2  0
  2  3  1  0
  3  4  1  0
  4  5  1  0
  5  6  1  0
  6  7  2  0
  6  8  1  0
  8  9  1  0
  9 10  1  0
  2 11  1  0
 11 12  1  0
 12 13  2  0
 13 14  1  0
 14 15  2  0
 15 16  1  0
 16 17  1  0
 17 18  2  0
 17 19  1  0
 19 20  1  0
 20 21  2  0
 21 22  1  0
 22 23  2  0
 23 24  1  0
 24 25  2  0
 15 26  1  0
 26 27  1  0
 27 28  2  0
 27 29  1  0
 29 30  2  0
 30 31  1  0
 31 32  2  0
 32 33  1  0
 33 34  2  0
 26 35  2  0
  9  4  2  0
 35 12  1  0
 25 20  1  0
 34 29  1  0
  3 36  1  0
  3 37  1  0
 13 38  1  0
 14 39  1  0
 19 40  1  0
 19 41  1  0
 21 42  1  0
 22 43  1  0
 23 44  1  0
 24 45  1  0
 25 46  1  0
 30 47  1  0
 31 48  1  0
 32 49  1  0
 33 50  1  0
 34 51  1  0
 35 52  1  0
M  CHG  5   5  -1   8  -1  10  -1  11  -1  16  -1
M  END
>  <UniqueID>  (10) 
8

>  <SMILES>  (10) 
O=C(Cc1[n-]c(=O)[n-]c1[O-])[N-]c1ccc([N-]C(=O)Cc2ccccc2)c(C(=O)c2ccccc2)c1

>  <Energy>  (10) 
96.07418238689291

>  <Genealogy>  (10) 
O=C(Cc1[n-]c(=O)[n-]c1[O-])[N-]c1ccc([N-]C(=O)Cc2ccccc2)c(C(=O)c2ccccc2)c1 (protonated)
O=C(Cc1[n-]c(=O)[n-]c1[O-])[N-]c1ccc([N-]C(=O)Cc2ccccc2)c(C(=O)c2ccccc2)c1 (3D coordinates assigned)
O=C(Cc1[n-]c(=O)[n-]c1[O-])[N-]c1ccc([N-]C(=O)Cc2ccccc2)c(C(=O)c2ccccc2)c1 (optimized conformer: 96.07418238689291 kcal/mol)

>  <smiles>  (10) 
O=C(Cc1[nH]c(=O)[nH]c1O)Nc1ccc(NC(=O)Cc2ccccc2)c(C(=O)c2ccccc2)c1

>  <score_type>  (10) 
oracle

>  <origin>  (10) 
adg

>  <m_score__min__energy>  (10) 
-20.670000000000002

>  <m_primary>  (10) 
energy

$$$$
10:0
     RDKit          3D

 47 50  0  0  0  0  0  0  0  0999 V2000
   56.9920   32.1200   51.2150 O   0  0  0  0  0  0  0  0  0  0  0  0
   57.0220   30.9660   51.7210 C   0  0  0  0  0  0  0  0  0  0  0  0
   58.3160   30.4460   52.2730 C   0  0  0  0  0  0  0  0  0  0  0  0
   59.7330   31.3770   51.5870 S   0  0  0  0  0  0  0  0  0  0  0  0
   59.7650   30.5130   50.0090 C   0  0  0  0  0  0  0  0  0  0  0  0
   59.2800   29.2680   49.8420 N   0  0  0  0  0  0  0  0  0  0  0  0
   59.3510   28.9950   48.5490 N   0  0  0  0  0  0  0  0  0  0  0  0
   59.8790   30.0790   47.9430 C   0  0  0  0  0  0  0  0  0  0  0  0
   60.0240   30.2140   46.4510 C   0  0  0  0  0  0  0  0  0  0  0  0
   59.6240   28.9720   45.6650 C   0  0  0  0  0  0  0  0  0  0  0  0
   58.7270   30.1970   45.6510 C   0  0  0  0  0  0  0  0  0  0  0  0
   60.1500   31.0560   48.8370 N   0  0  0  0  0  0  0  0  0  0  0  0
   60.5370   32.4490   48.5760 C   0  0  0  0  0  0  0  0  0  0  0  0
   59.6170   33.0970   47.5790 C   0  0  0  0  0  0  0  0  0  0  0  0
   60.1500   33.8270   46.5000 C   0  0  0  0  0  0  0  0  0  0  0  0
   59.3020   34.3870   45.5400 C   0  0  0  0  0  0  0  0  0  0  0  0
   57.9200   34.2010   45.6340 C   0  0  0  0  0  0  0  0  0  0  0  0
   57.3800   33.4650   46.6940 C   0  0  0  0  0  0  0  0  0  0  0  0
   58.2240   32.9220   47.6710 C   0  0  0  0  0  0  0  0  0  0  0  0
   55.8550   30.1340   51.6260 N   0  0  0  0  0  0  0  0  0  0  0  0
   54.5650   30.4240   52.1780 C   0  0  0  0  0  0  0  0  0  0  0  0
   54.1910   29.8170   53.3800 C   0  0  0  0  0  0  0  0  0  0  0  0
   52.9260   30.0470   53.9240 C   0  0  0  0  0  0  0  0  0  0  0  0
   52.0160   30.8730   53.2580 C   0  0  0  0  0  0  0  0  0  0  0  0
   52.3640   31.4770   52.0350 C   0  0  0  0  0  0  0  0  0  0  0  0
   51.3910   32.3390   51.3240 C   0  0  0  0  0  0  0  0  0  0  0  0
   51.2110   32.2190   50.0830 O   0  0  0  0  0  0  0  0  0  0  0  0
   50.6580   33.2900   52.0230 O   0  0  0  0  0  0  0  0  0  0  0  0
   53.6410   31.2350   51.4940 C   0  0  0  0  0  0  0  0  0  0  0  0
   58.3101   30.5525   53.3678 H   0  0  0  0  0  0  0  0  0  0  0  0
   58.4197   29.3874   51.9927 H   0  0  0  0  0  0  0  0  0  0  0  0
   60.9005   30.8777   46.4870 H   0  0  0  0  0  0  0  0  0  0  0  0
   60.1833   28.6900   44.7608 H   0  0  0  0  0  0  0  0  0  0  0  0
   59.4836   27.9089   45.9104 H   0  0  0  0  0  0  0  0  0  0  0  0
   58.6370   30.8021   44.7368 H   0  0  0  0  0  0  0  0  0  0  0  0
   57.6687   30.3881   45.8821 H   0  0  0  0  0  0  0  0  0  0  0  0
   60.4976   33.0140   49.5190 H   0  0  0  0  0  0  0  0  0  0  0  0
   61.5555   32.4530   48.1604 H   0  0  0  0  0  0  0  0  0  0  0  0
   61.2387   33.9574   46.4118 H   0  0  0  0  0  0  0  0  0  0  0  0
   59.7226   34.9742   44.7104 H   0  0  0  0  0  0  0  0  0  0  0  0
   57.2551   34.6345   44.8724 H   0  0  0  0  0  0  0  0  0  0  0  0
   56.2926   33.3127   46.7602 H   0  0  0  0  0  0  0  0  0  0  0  0
   57.7966   32.3572   48.5126 H   0  0  0  0  0  0  0  0  0  0  0  0
   54.8976   29.1540   53.9006 H   0  0  0  0  0  0  0  0  0  0  0  0
   52.6449   29.5775   54.8782 H   0  0  0  0  0  0  0  0  0  0  0  0
   51.0214   31.0522   53.6924 H   0  0  0  0  0  0  0  0  0  0  0  0
   53.9186   31.6836   50.5287 H   0  0  0  0  0  0  0  0  0  0  0  0
  1  2  2  0
  2  3  1  0
  3  4  1  0
  4  5  1  0
  5  6  2  0
  6  7  1  0
  7  8  2  0
  8  9  1  0
  9 10  1  0
 10 11  1  0
  8 12  1  0
 12 13  1  0
 13 14  1  0
 14 15  2  0
 15 16  1  0
 16 17  2  0
 17 18  1  0
 18 19  2  0
  2 20  1  0
 20 21  1  0
 21 22  2  0
 22 23  1  0
 23 24  2  0
 24 25  1  0
 25 26  1  0
 26 27  2  0
 26 28  1  0
 25 29  2  0
 12  5  1  0
 19 14  1  0
 29 21  1  0
 11  9  1  0
  3 30  1  0
  3 31  1  0
  9 32  1  0
 10 33  1  0
 10 34  1  0
 11 35  1  0
 11 36  1  0
 13 37  1  0
 13 38  1  0
 15 39  1  0
 16 40  1  0
 17 41  1  0
 18 42  1  0
 19 43  1  0
 22 44  1  0
 23 45  1  0
 24 46  1  0
 29 47  1  0
M  CHG  2  20  -1  28  -1
M  END
>  <UniqueID>  (11) 
9

>  <SMILES>  (11) 
O=C(CSc1nnc(C2CC2)n1Cc1ccccc1)[N-]c1cccc(C(=O)[O-])c1

>  <Energy>  (11) 
349.31250331938395

>  <Genealogy>  (11) 
O=C(CSc1nnc(C2CC2)n1Cc1ccccc1)[N-]c1cccc(C(=O)[O-])c1 (protonated)
O=C(CSc1nnc(C2CC2)n1Cc1ccccc1)[N-]c1cccc(C(=O)[O-])c1 (3D coordinates assigned)
O=C(CSc1nnc(C2CC2)n1Cc1ccccc1)[N-]c1cccc(C(=O)[O-])c1 (nonaromatic ring conformer: 349.31250331938395 kcal/mol)

>  <smiles>  (11) 
O=C(CSc1nnc(C2CC2)n1Cc1ccccc1)Nc1cccc(C(=O)O)c1

>  <score_type>  (11) 
oracle

>  <origin>  (11) 
adg

>  <m_score__min__energy>  (11) 
-14.619999999999999

>  <m_primary>  (11) 
energy

$$$$
11:0
     RDKit          3D

 58 60  0  0  0  0  0  0  0  0999 V2000
   57.3900   33.2210   45.7470 C   0  0  0  0  0  0  0  0  0  0  0  0
   58.2190   33.2310   46.8000 C   0  0  0  0  0  0  0  0  0  0  0  0
   58.9280   34.5130   47.1720 C   0  0  0  0  0  0  0  0  0  0  0  0
   60.3870   34.2650   47.4740 C   0  0  0  0  0  0  0  0  0  0  0  0
   61.3000   34.0420   46.4260 C   0  0  0  0  0  0  0  0  0  0  0  0
   62.6470   33.7910   46.7060 C   0  0  0  0  0  0  0  0  0  0  0  0
   63.0950   33.7580   48.0320 C   0  0  0  0  0  0  0  0  0  0  0  0
   62.1910   33.9720   49.0810 C   0  0  0  0  0  0  0  0  0  0  0  0
   60.8420   34.2280   48.8060 C   0  0  0  0  0  0  0  0  0  0  0  0
   58.4250   31.9980   47.5970 C   0  0  0  0  0  0  0  0  0  0  0  0
   58.2060   32.0070   48.8390 O   0  0  0  0  0  0  0  0  0  0  0  0
   58.8670   30.8260   46.9720 O   0  0  0  0  0  0  0  0  0  0  0  0
   60.1570   30.6910   46.3750 C   0  0  2  0  0  0  0  0  0  0  0  0
   60.2320   29.3580   45.6230 C   0  0  0  0  0  0  0  0  0  0  0  0
   58.9050   28.6430   45.6730 C   0  0  0  0  0  0  0  0  0  0  0  0
   57.8020   29.1480   44.9550 C   0  0  0  0  0  0  0  0  0  0  0  0
   56.5520   28.5250   45.0550 C   0  0  0  0  0  0  0  0  0  0  0  0
   56.3910   27.4020   45.8810 C   0  0  0  0  0  0  0  0  0  0  0  0
   55.1450   26.7910   45.9860 O   0  0  0  0  0  0  0  0  0  0  0  0
   57.4820   26.8970   46.6000 C   0  0  0  0  0  0  0  0  0  0  0  0
   58.7350   27.5170   46.5010 C   0  0  0  0  0  0  0  0  0  0  0  0
   61.2160   30.7420   47.4420 C   0  0  0  0  0  0  0  0  0  0  0  0
   62.4290   30.8270   47.1070 O   0  0  0  0  0  0  0  0  0  0  0  0
   60.8510   30.7030   48.8280 N   0  0  0  0  0  0  0  0  0  0  0  0
   61.8460   30.6470   49.8950 C   0  0  0  0  0  0  0  0  0  0  0  0
   61.1930   30.2580   51.2240 C   0  0  0  0  0  0  0  0  0  0  0  0
   59.9730   31.1030   51.4790 C   0  0  0  0  0  0  0  0  0  0  0  0
   58.7040   30.5050   51.5620 C   0  0  0  0  0  0  0  0  0  0  0  0
   57.5650   31.2940   51.7590 C   0  0  0  0  0  0  0  0  0  0  0  0
   57.6850   32.6840   51.8630 C   0  0  0  0  0  0  0  0  0  0  0  0
   58.9420   33.2860   51.7700 C   0  0  0  0  0  0  0  0  0  0  0  0
   60.0850   32.5000   51.5750 C   0  0  0  0  0  0  0  0  0  0  0  0
   56.8683   32.2941   45.4665 H   0  0  0  0  0  0  0  0  0  0  0  0
   57.2313   34.1397   45.1632 H   0  0  0  0  0  0  0  0  0  0  0  0
   58.8508   35.2214   46.3340 H   0  0  0  0  0  0  0  0  0  0  0  0
   58.4516   34.9243   48.0741 H   0  0  0  0  0  0  0  0  0  0  0  0
   60.9525   34.0653   45.3826 H   0  0  0  0  0  0  0  0  0  0  0  0
   63.3560   33.6191   45.8827 H   0  0  0  0  0  0  0  0  0  0  0  0
   64.1556   33.5643   48.2501 H   0  0  0  0  0  0  0  0  0  0  0  0
   62.5418   33.9388   50.1230 H   0  0  0  0  0  0  0  0  0  0  0  0
   60.1365   34.4005   49.6321 H   0  0  0  0  0  0  0  0  0  0  0  0
   60.3244   31.5158   45.6667 H   0  0  0  0  0  0  0  0  0  0  0  0
   60.4995   29.5499   44.5734 H   0  0  0  0  0  0  0  0  0  0  0  0
   60.9936   28.7244   46.1010 H   0  0  0  0  0  0  0  0  0  0  0  0
   57.9236   30.0339   44.3144 H   0  0  0  0  0  0  0  0  0  0  0  0
   55.6958   28.9160   44.4858 H   0  0  0  0  0  0  0  0  0  0  0  0
   57.3552   26.0133   47.2427 H   0  0  0  0  0  0  0  0  0  0  0  0
   59.5884   27.1226   47.0721 H   0  0  0  0  0  0  0  0  0  0  0  0
   59.8410   30.6310   49.0870 H   0  0  0  0  0  0  0  0  0  0  0  0
   62.6111   29.9002   49.6364 H   0  0  0  0  0  0  0  0  0  0  0  0
   62.3043   31.6411   50.0037 H   0  0  0  0  0  0  0  0  0  0  0  0
   60.8984   29.1988   51.1863 H   0  0  0  0  0  0  0  0  0  0  0  0
   61.9156   30.4217   52.0370 H   0  0  0  0  0  0  0  0  0  0  0  0
   58.6056   29.4131   51.4718 H   0  0  0  0  0  0  0  0  0  0  0  0
   56.5746   30.8209   51.8321 H   0  0  0  0  0  0  0  0  0  0  0  0
   56.7891   33.3031   52.0181 H   0  0  0  0  0  0  0  0  0  0  0  0
   59.0345   34.3792   51.8500 H   0  0  0  0  0  0  0  0  0  0  0  0
   61.0727   32.9779   51.4969 H   0  0  0  0  0  0  0  0  0  0  0  0
  1  2  2  0
  2  3  1  0
  3  4  1  0
  4  5  2  0
  5  6  1  0
  6  7  2  0
  7  8  1  0
  8  9  2  0
  2 10  1  0
 10 11  2  0
 10 12  1  0
 12 13  1  0
 13 14  1  0
 14 15  1  0
 15 16  2  0
 16 17  1  0
 17 18  2  0
 18 19  1  0
 18 20  1  0
 20 21  2  0
 13 22  1  0
 22 23  2  0
 22 24  1  0
 24 25  1  0
 25 26  1  0
 26 27  1  0
 27 28  2  0
 28 29  1  0
 29 30  2  0
 30 31  1  0
 31 32  2  0
  9  4  1  0
 21 15  1  0
 32 27  1  0
  1 33  1  0
  1 34  1  0
  3 35  1  0
  3 36  1  0
  5 37  1  0
  6 38  1  0
  7 39  1  0
  8 40  1  0
  9 41  1  0
 13 42  1  6
 14 43  1  0
 14 44  1  0
 16 45  1  0
 17 46  1  0
 20 47  1  0
 21 48  1  0
 24 49  1  0
 25 50  1  0
 25 51  1  0
 26 52  1  0
 26 53  1  0
 28 54  1  0
 29 55  1  0
 30 56  1  0
 31 57  1  0
 32 58  1  0
M  CHG  1  19  -1
M  END
>  <UniqueID>  (12) 
10

>  <SMILES>  (12) 
C=C(Cc1ccccc1)C(=O)O[C@H](Cc1ccc([O-])cc1)C(=O)NCCc1ccccc1

>  <Energy>  (12) 
48.927072657343224

>  <Genealogy>  (12) 
C=C(Cc1ccccc1)C(=O)OC(Cc1ccc([O-])cc1)C(=O)NCCc1ccccc1 (protonated)
C=C(Cc1ccccc1)C(=O)O[C@H](Cc1ccc([O-])cc1)C(=O)NCCc1ccccc1 (chirality)
C=C(Cc1ccccc1)C(=O)O[C@H](Cc1ccc([O-])cc1)C(=O)NCCc1ccccc1 (3D coordinates assigned)
C=C(Cc1ccccc1)C(=O)O[C@H](Cc1ccc([O-])cc1)C(=O)NCCc1ccccc1 (optimized conformer: 48.927072657343224 kcal/mol)

>  <smiles>  (12) 
C=C(Cc1ccccc1)C(=O)OC(Cc1ccc(O)cc1)C(=O)NCCc1ccccc1

>  <score_type>  (12) 
oracle

>  <origin>  (12) 
adg

>  <m_score__min__energy>  (12) 
-11.5

>  <m_primary>  (12) 
energy

$$$$
12:0
     RDKit          3D

 61 64  0  0  0  0  0  0  0  0999 V2000
   59.8129   25.1344   46.6790 H   0  0  0  0  0  0  0  0  0  0  0  0
   59.0330   25.8590   46.4020 C   0  0  0  0  0  0  0  0  0  0  0  0
   57.7380   25.4660   46.3190 N   0  0  0  0  0  0  0  0  0  0  0  0
   56.7290   26.3250   46.0180 C   0  0  0  0  0  0  0  0  0  0  0  0
   55.5070   25.8550   46.0080 N   0  0  0  0  0  0  0  0  0  0  0  0
   55.0480   24.5330   45.6860 C   0  0  0  0  0  0  0  0  0  0  0  0
   53.8170   24.3710   45.4670 O   0  0  0  0  0  0  0  0  0  0  0  0
   55.9340   23.3490   45.7920 C   0  0  0  0  0  0  0  0  0  0  0  0
   56.2000   22.8410   47.0750 C   0  0  0  0  0  0  0  0  0  0  0  0
   55.8033   23.3675   47.9556 H   0  0  0  0  0  0  0  0  0  0  0  0
   56.9560   21.6840   47.2550 C   0  0  0  0  0  0  0  0  0  0  0  0
   57.2310   21.2670   48.5690 O   0  0  0  0  0  0  0  0  0  0  0  0
   56.4090   21.5660   49.6970 C   0  0  0  0  0  0  0  0  0  0  0  0
   56.9680   21.3627   50.6223 H   0  0  0  0  0  0  0  0  0  0  0  0
   56.1198   22.6269   49.6690 H   0  0  0  0  0  0  0  0  0  0  0  0
   55.5057   20.9388   49.6690 H   0  0  0  0  0  0  0  0  0  0  0  0
   57.4280   20.9860   46.1310 C   0  0  0  0  0  0  0  0  0  0  0  0
   57.9911   20.0501   46.2615 H   0  0  0  0  0  0  0  0  0  0  0  0
   57.1830   21.4790   44.8500 C   0  0  0  0  0  0  0  0  0  0  0  0
   57.5648   20.9284   43.9776 H   0  0  0  0  0  0  0  0  0  0  0  0
   56.4550   22.6700   44.6520 C   0  0  0  0  0  0  0  0  0  0  0  0
   56.3190   23.1770   43.3050 N   0  0  0  0  0  0  0  0  0  0  0  0
   55.5850   22.6040   42.4710 O   0  0  0  0  0  0  0  0  0  0  0  0
   56.8450   24.4070   42.9760 O   0  0  0  0  0  0  0  0  0  0  0  0
   57.0320   27.6840   45.7830 C   0  0  0  0  0  0  0  0  0  0  0  0
   56.2268   28.4047   45.5776 H   0  0  0  0  0  0  0  0  0  0  0  0
   58.3740   28.1080   45.8140 C   0  0  0  0  0  0  0  0  0  0  0  0
   58.7540   29.4440   45.6160 O   0  0  0  0  0  0  0  0  0  0  0  0
   59.5020   30.2410   46.4940 C   0  0  0  0  0  0  0  0  0  0  0  0
   60.0040   29.7590   47.7210 C   0  0  0  0  0  0  0  0  0  0  0  0
   59.7814   28.7297   48.0388 H   0  0  0  0  0  0  0  0  0  0  0  0
   60.7840   30.5870   48.5340 C   0  0  0  0  0  0  0  0  0  0  0  0
   61.2091   30.1930   49.4689 H   0  0  0  0  0  0  0  0  0  0  0  0
   61.0270   31.9180   48.1630 C   0  0  0  0  0  0  0  0  0  0  0  0
   61.8920   32.7420   48.9540 N   0  0  0  0  0  0  0  0  0  0  0  0
   61.4450   34.0050   49.4560 C   0  0  0  0  0  0  0  0  0  0  0  0
   62.2840   34.9210   49.6620 O   0  0  0  0  0  0  0  0  0  0  0  0
   60.0640   34.2290   49.7680 N   0  0  0  0  0  0  0  0  0  0  0  0
   59.4110   33.5590   50.8540 C   0  0  0  0  0  0  0  0  0  0  0  0
   59.2550   34.2100   52.0870 C   0  0  0  0  0  0  0  0  0  0  0  0
   59.7007   35.2035   52.2426 H   0  0  0  0  0  0  0  0  0  0  0  0
   58.5360   33.6010   53.1170 C   0  0  0  0  0  0  0  0  0  0  0  0
   58.4040   34.1195   54.0781 H   0  0  0  0  0  0  0  0  0  0  0  0
   57.9840   32.3310   52.9250 C   0  0  0  0  0  0  0  0  0  0  0  0
   57.4316   31.8462   53.7434 H   0  0  0  0  0  0  0  0  0  0  0  0
   58.1300   31.6690   51.6930 C   0  0  0  0  0  0  0  0  0  0  0  0
   57.5380   30.3300   51.4880 C   0  0  0  0  0  0  0  0  0  0  0  0
   58.1650   29.4780   50.8020 O   0  0  0  0  0  0  0  0  0  0  0  0
   56.2810   29.9660   52.0640 N   0  0  0  0  0  0  0  0  0  0  0  0
   55.1000   30.8200   51.9860 C   0  0  0  0  0  0  0  0  0  0  0  0
   54.7584   31.0670   53.0020 H   0  0  0  0  0  0  0  0  0  0  0  0
   55.3520   31.7461   51.4486 H   0  0  0  0  0  0  0  0  0  0  0  0
   54.2995   30.2905   51.4486 H   0  0  0  0  0  0  0  0  0  0  0  0
   58.8530   32.2890   50.6580 C   0  0  0  0  0  0  0  0  0  0  0  0
   58.9805   31.7760   49.6933 H   0  0  0  0  0  0  0  0  0  0  0  0
   60.4640   32.4210   46.9840 C   0  0  0  0  0  0  0  0  0  0  0  0
   60.6078   33.4776   46.7139 H   0  0  0  0  0  0  0  0  0  0  0  0
   59.7180   31.5810   46.1480 C   0  0  0  0  0  0  0  0  0  0  0  0
   59.2980   31.9769   45.2116 H   0  0  0  0  0  0  0  0  0  0  0  0
   59.3730   27.1850   46.1350 C   0  0  0  0  0  0  0  0  0  0  0  0
   60.4250   27.5036   46.1770 H   0  0  0  0  0  0  0  0  0  0  0  0
  1  2  1  0
  2  3  1  0
  3  4  1  0
  4  5  2  0
  5  6  1  0
  6  7  2  0
  6  8  1  0
  8  9  2  0
  9 10  1  0
  9 11  1  0
 11 12  1  0
 12 13  1  0
 13 14  1  0
 13 15  1  0
 13 16  1  0
 11 17  2  0
 17 18  1  0
 17 19  1  0
 19 20  1  0
 19 21  2  0
 21 22  1  0
 22 23  2  0
 22 24  1  0
  4 25  1  0
 25 26  1  0
 25 27  2  0
 27 28  1  0
 28 29  1  0
 29 30  2  0
 30 31  1  0
 30 32  1  0
 32 33  1  0
 32 34  2  0
 34 35  1  0
 35 36  1  0
 36 37  2  0
 36 38  1  0
 38 39  1  0
 39 40  2  0
 40 41  1  0
 40 42  1  0
 42 43  1  0
 42 44  2  0
 44 45  1  0
 44 46  1  0
 46 47  1  0
 47 48  2  0
 47 49  1  0
 49 50  1  0
 50 51  1  0
 50 52  1  0
 50 53  1  0
 46 54  2  0
 54 55  1  0
 34 56  1  0
 56 57  1  0
 56 58  2  0
 58 59  1  0
 27 60  1  0
 60 61  1  0
 60  2  2  0
 21  8  1  0
 58 29  1  0
 54 39  1  0
M  CHG  6   3  -1  22   1  24  -1  35  -1  38  -1  49  -1
M  END
>  <UniqueID>  (13) 
11

>  <SMILES>  (13) 
C[N-]C(=O)c1cccc([N-]C(=O)[N-]c2ccc(Oc3cc[n-]/c(=N/C(=O)c4cc(OC)ccc4[N+](=O)[O-])c3)cc2)c1

>  <Energy>  (13) 
103.97321610532879

>  <Genealogy>  (13) 
C[N-]C(=O)c1cccc([N-]C(=O)[N-]c2ccc(Oc3cc[n-]c(=NC(=O)c4cc(OC)ccc4[N+](=O)[O-])c3)cc2)c1 (protonated)
C[N-]C(=O)c1cccc([N-]C(=O)[N-]c2ccc(Oc3cc[n-]/c(=N/C(=O)c4cc(OC)ccc4[N+](=O)[O-])c3)cc2)c1 (cis-trans isomerization)
C[N-]C(=O)c1cccc([N-]C(=O)[N-]c2ccc(Oc3cc[n-]/c(=N/C(=O)c4cc(OC)ccc4[N+](=O)[O-])c3)cc2)c1 (3D coordinates assigned)
C[N-]C(=O)c1cccc([N-]C(=O)[N-]c2ccc(Oc3cc[n-]/c(=N/C(=O)c4cc(OC)ccc4[N+](=O)[O-])c3)cc2)c1 (optimized conformer: 103.97321610532879 kcal/mol)

>  <smiles>  (13) 
CNC(=O)c1cccc(NC(=O)Nc2ccc(Oc3cc[nH]c(=NC(=O)c4cc(OC)ccc4[N+](=O)[O-])c3)cc2)c1

>  <score_type>  (13) 
oracle

>  <origin>  (13) 
adg

>  <m_score__min__energy>  (13) 
-15.49

>  <m_primary>  (13) 
energy

$$$$
13:0
     RDKit          3D

 87 92  0  0  0  0  0  0  0  0999 V2000
   58.7731   27.1644   47.6830 H   0  0  0  0  0  0  0  0  0  0  0  0
   58.5240   26.1800   47.2600 C   0  0  0  0  0  0  0  0  0  0  0  0
   58.4815   25.2957   47.9128 H   0  0  0  0  0  0  0  0  0  0  0  0
   58.2720   26.0580   45.9480 C   0  0  0  0  0  0  0  0  0  0  0  0
   57.9430   24.8760   45.2700 C   0  0  0  0  0  0  0  0  0  0  0  0
   57.8800   23.6330   45.7940 C   0  0  0  0  0  0  0  0  0  0  0  0
   58.5097   22.8601   45.3291 H   0  0  0  0  0  0  0  0  0  0  0  0
   57.0380   23.2190   46.9390 C   0  0  0  0  0  0  0  0  0  0  0  0
   57.3090   22.2190   47.7960 N   0  0  0  0  0  0  0  0  0  0  0  0
   56.2400   22.2030   48.6180 C   0  0  0  0  0  0  0  0  0  0  0  0
   56.1270   21.3880   49.5700 O   0  0  0  0  0  0  0  0  0  0  0  0
   55.2970   23.1260   48.3360 N   0  0  0  0  0  0  0  0  0  0  0  0
   55.8160   23.7560   47.2690 C   0  0  0  0  0  0  0  0  0  0  0  0
   55.1800   24.8010   46.6040 O   0  0  0  0  0  0  0  0  0  0  0  0
   57.7120   25.2450   43.9490 C   0  0  0  0  0  0  0  0  0  0  0  0
   57.4207   24.5786   43.1238 H   0  0  0  0  0  0  0  0  0  0  0  0
   57.9180   26.6060   43.8720 C   0  0  0  0  0  0  0  0  0  0  0  0
   57.7690   27.4160   42.6180 C   0  0  0  0  0  0  0  0  0  0  0  0
   57.5758   28.4665   42.8808 H   0  0  0  0  0  0  0  0  0  0  0  0
   58.6943   27.3502   42.0269 H   0  0  0  0  0  0  0  0  0  0  0  0
   56.9277   27.0252   42.0269 H   0  0  0  0  0  0  0  0  0  0  0  0
   58.2570   27.1030   45.0820 N   0  0  0  0  0  0  0  0  0  0  0  0
   58.5990   28.4750   45.3530 C   0  0  0  0  0  0  0  0  0  0  0  0
   59.9180   28.8230   45.6640 C   0  0  0  0  0  0  0  0  0  0  0  0
   60.7007   28.0501   45.6614 H   0  0  0  0  0  0  0  0  0  0  0  0
   60.2500   30.1440   45.9780 C   0  0  0  0  0  0  0  0  0  0  0  0
   61.2892   30.4026   46.2293 H   0  0  0  0  0  0  0  0  0  0  0  0
   59.2630   31.1420   45.9740 C   0  0  0  0  0  0  0  0  0  0  0  0
   59.5890   32.5470   46.3260 C   0  0  0  0  0  0  0  0  0  0  0  0
   58.7270   33.4400   46.0950 O   0  0  0  0  0  0  0  0  0  0  0  0
   60.8560   32.9030   46.9450 N   0  0  0  0  0  0  0  0  0  0  0  0
   61.5700   32.9800   46.1830 H   0  0  0  0  0  0  0  0  0  0  0  0
   60.7860   34.2330   47.5940 C   0  0  0  0  0  0  0  0  0  0  0  0
   61.7940   34.5164   47.9310 H   0  0  0  0  0  0  0  0  0  0  0  0
   60.3950   34.9491   46.8562 H   0  0  0  0  0  0  0  0  0  0  0  0
   59.8400   34.2380   48.8040 C   0  0  0  0  0  0  0  0  0  0  0  0
   60.1028   35.0784   49.4633 H   0  0  0  0  0  0  0  0  0  0  0  0
   58.8066   34.3426   48.4420 H   0  0  0  0  0  0  0  0  0  0  0  0
   59.9480   32.9870   49.5560 N   0  0  0  0  0  0  0  0  0  0  0  0
   58.8920   32.6170   50.4550 C   0  0  0  0  0  0  0  0  0  0  0  0
   57.7610   32.3210   49.9920 O   0  0  0  0  0  0  0  0  0  0  0  0
   59.1200   32.5770   51.9380 C   0  0  0  0  0  0  0  0  0  0  0  0
   60.1202   32.9750   52.1645 H   0  0  0  0  0  0  0  0  0  0  0  0
   58.3553   33.1884   52.4395 H   0  0  0  0  0  0  0  0  0  0  0  0
   59.0250   31.1810   52.4230 N   0  0  0  0  0  0  0  0  0  0  0  0
   58.5650   30.2280   51.3820 C   0  0  0  0  0  0  0  0  0  0  0  0
   57.8457   29.5283   51.8325 H   0  0  0  0  0  0  0  0  0  0  0  0
   58.0984   30.8061   50.5708 H   0  0  0  0  0  0  0  0  0  0  0  0
   59.7340   29.4260   50.7870 C   0  0  0  0  0  0  0  0  0  0  0  0
   59.3460   28.7571   50.0047 H   0  0  0  0  0  0  0  0  0  0  0  0
   60.4621   30.1379   50.3709 H   0  0  0  0  0  0  0  0  0  0  0  0
   60.4230   28.6090   51.8220 N   0  0  0  0  0  0  0  0  0  0  0  0
   61.8250   28.3180   51.4410 C   0  0  0  0  0  0  0  0  0  0  0  0
   62.1882   27.4733   52.0449 H   0  0  0  0  0  0  0  0  0  0  0  0
   61.8404   28.0786   50.3675 H   0  0  0  0  0  0  0  0  0  0  0  0
   62.7350   29.5030   51.6650 C   0  0  0  0  0  0  0  0  0  0  0  0
   62.3620   30.6480   51.2830 O   0  0  0  0  0  0  0  0  0  0  0  0
   64.0330   29.3400   52.2700 N   0  0  0  0  0  0  0  0  0  0  0  0
   64.8140   28.1160   52.0360 C   0  0  0  0  0  0  0  0  0  0  0  0
   64.1362   27.2497   52.0247 H   0  0  0  0  0  0  0  0  0  0  0  0
   65.3323   28.2016   51.0695 H   0  0  0  0  0  0  0  0  0  0  0  0
   65.8550   27.9290   53.1450 C   0  0  0  0  0  0  0  0  0  0  0  0
   65.3386   27.6920   54.0869 H   0  0  0  0  0  0  0  0  0  0  0  0
   66.5292   27.1085   52.8581 H   0  0  0  0  0  0  0  0  0  0  0  0
   66.6250   29.1050   53.3220 O   0  0  0  0  0  0  0  0  0  0  0  0
   65.7930   30.1490   53.7880 C   0  0  0  0  0  0  0  0  0  0  0  0
   65.2712   29.8165   54.6975 H   0  0  0  0  0  0  0  0  0  0  0  0
   66.4168   31.0283   54.0065 H   0  0  0  0  0  0  0  0  0  0  0  0
   64.7590   30.5300   52.7260 C   0  0  0  0  0  0  0  0  0  0  0  0
   64.0449   31.2476   53.1562 H   0  0  0  0  0  0  0  0  0  0  0  0
   65.2782   30.9821   51.8681 H   0  0  0  0  0  0  0  0  0  0  0  0
   60.3470   29.2120   53.1780 C   0  0  0  0  0  0  0  0  0  0  0  0
   59.4551   28.8225   53.6906 H   0  0  0  0  0  0  0  0  0  0  0  0
   61.2657   28.9452   53.7210 H   0  0  0  0  0  0  0  0  0  0  0  0
   60.2570   30.7430   53.1210 C   0  0  0  0  0  0  0  0  0  0  0  0
   60.2491   31.1406   54.1466 H   0  0  0  0  0  0  0  0  0  0  0  0
   61.1267   31.1230   52.5649 H   0  0  0  0  0  0  0  0  0  0  0  0
   61.1070   32.1180   49.3590 C   0  0  0  0  0  0  0  0  0  0  0  0
   61.9995   32.6107   49.7723 H   0  0  0  0  0  0  0  0  0  0  0  0
   60.9186   31.1636   49.8725 H   0  0  0  0  0  0  0  0  0  0  0  0
   61.3390   31.8300   47.8610 C   0  0  0  0  0  0  0  0  0  0  0  0
   62.4192   31.6999   47.6990 H   0  0  0  0  0  0  0  0  0  0  0  0
   60.7575   30.9276   47.6213 H   0  0  0  0  0  0  0  0  0  0  0  0
   57.9410   30.7950   45.6500 C   0  0  0  0  0  0  0  0  0  0  0  0
   57.1630   31.5722   45.6264 H   0  0  0  0  0  0  0  0  0  0  0  0
   57.6060   29.4680   45.3570 C   0  0  0  0  0  0  0  0  0  0  0  0
   56.3130   29.1440   45.1050 F   0  0  0  0  0  0  0  0  0  0  0  0
  1  2  1  0
  2  3  1  0
  2  4  2  0
  4  5  1  0
  5  6  2  0
  6  7  1  0
  6  8  1  0
  8  9  1  0
  9 10  1  0
 10 11  2  0
 10 12  1  0
 12 13  1  0
 13 14  1  0
  5 15  1  0
 15 16  1  0
 15 17  2  0
 17 18  1  0
 18 19  1  0
 18 20  1  0
 18 21  1  0
 17 22  1  0
 22 23  1  0
 23 24  2  0
 24 25  1  0
 24 26  1  0
 26 27  1  0
 26 28  2  0
 28 29  1  0
 29 30  2  0
 29 31  1  0
 31 32  1  0
 31 33  1  0
 33 34  1  0
 33 35  1  0
 33 36  1  0
 36 37  1  0
 36 38  1  0
 36 39  1  0
 39 40  1  0
 40 41  2  0
 40 42  1  0
 42 43  1  0
 42 44  1  0
 42 45  1  0
 45 46  1  0
 46 47  1  0
 46 48  1  0
 46 49  1  0
 49 50  1  0
 49 51  1  0
 49 52  1  0
 52 53  1  0
 53 54  1  0
 53 55  1  0
 53 56  1  0
 56 57  2  0
 56 58  1  0
 58 59  1  0
 59 60  1  0
 59 61  1  0
 59 62  1  0
 62 63  1  0
 62 64  1  0
 62 65  1  0
 65 66  1  0
 66 67  1  0
 66 68  1  0
 66 69  1  0
 69 70  1  0
 69 71  1  0
 52 72  1  0
 72 73  1  0
 72 74  1  0
 72 75  1  0
 75 76  1  0
 75 77  1  0
 39 78  1  0
 78 79  1  0
 78 80  1  0
 78 81  1  0
 81 82  1  0
 81 83  1  0
 28 84  1  0
 84 85  1  0
 84 86  2  0
 86 87  1  0
 22  4  1  0
 86 23  1  0
 13  8  2  0
 81 31  1  0
 75 45  1  0
 69 58  1  0
M  CHG  4   9  -1  12  -1  14  -1  31   1
M  END
>  <UniqueID>  (14) 
12

>  <SMILES>  (14) 
C=c1/c(=C/c2[n-]c(=O)[n-]c2[O-])cc(C)n1-c1ccc(C(=O)[NH+]2CCN(C(=O)CN3CCN(CC(=O)N4CCOCC4)CC3)CC2)cc1F

>  <Energy>  (14) 
198.09677703888028

>  <Genealogy>  (14) 
C=c1c(=Cc2[n-]c(=O)[n-]c2[O-])cc(C)n1-c1ccc(C(=O)[NH+]2CCN(C(=O)CN3CCN(CC(=O)N4CCOCC4)CC3)CC2)cc1F (protonated)
C=c1/c(=C/c2[n-]c(=O)[n-]c2[O-])cc(C)n1-c1ccc(C(=O)[NH+]2CCN(C(=O)CN3CCN(CC(=O)N4CCOCC4)CC3)CC2)cc1F (cis-trans isomerization)
C=c1/c(=C/c2[n-]c(=O)[n-]c2[O-])cc(C)n1-c1ccc(C(=O)[NH+]2CCN(C(=O)CN3CCN(CC(=O)N4CCOCC4)CC3)CC2)cc1F (3D coordinates assigned)
C=c1/c(=C/c2[n-]c(=O)[n-]c2[O-])cc(C)n1-c1ccc(C(=O)[NH+]2CCN(C(=O)CN3CCN(CC(=O)N4CCOCC4)CC3)CC2)cc1F (nonaromatic ring conformer: 198.09677703888028 kcal/mol)

>  <smiles>  (14) 
C=c1c(=Cc2[nH]c(=O)[nH]c2O)cc(C)n1-c1ccc(C(=O)N2CCN(C(=O)CN3CCN(CC(=O)N4CCOCC4)CC3)CC2)cc1F

>  <score_type>  (14) 
oracle

>  <origin>  (14) 
adg

>  <m_score__min__energy>  (14) 
-17.890000000000001

>  <m_primary>  (14) 
energy

$$$$
14:0
     RDKit          3D

 76 81  0  0  0  0  0  0  0  0999 V2000
   63.1710   34.7840   50.7600 O   0  0  0  0  0  0  0  0  0  0  0  0
   62.2380   34.2760   50.0800 C   0  0  0  0  0  0  0  0  0  0  0  0
   61.0880   33.7580   50.7580 N   0  0  0  0  0  0  0  0  0  0  0  0
   60.7600   32.3340   50.8520 C   0  0  2  0  0  0  0  0  0  0  0  0
   61.6900   31.5090   49.9320 C   0  0  0  0  0  0  0  0  0  0  0  0
   62.8430   30.8290   50.6350 C   0  0  0  0  0  0  0  0  0  0  0  0
   62.8430   29.6200   51.3380 C   0  0  0  0  0  0  0  0  0  0  0  0
   64.0970   29.3040   51.7360 N   0  0  0  0  0  0  0  0  0  0  0  0
   64.8940   30.2850   51.2740 C   0  0  0  0  0  0  0  0  0  0  0  0
   66.2790   30.3840   51.4120 C   0  0  0  0  0  0  0  0  0  0  0  0
   66.9220   31.4920   50.8300 C   0  0  0  0  0  0  0  0  0  0  0  0
   66.1750   32.4630   50.1250 C   0  0  0  0  0  0  0  0  0  0  0  0
   64.7800   32.3340   49.9960 C   0  0  0  0  0  0  0  0  0  0  0  0
   64.1680   31.2290   50.5930 C   0  0  0  0  0  0  0  0  0  0  0  0
   59.3020   32.0990   50.5440 C   0  0  0  0  0  0  0  0  0  0  0  0
   58.4680   31.9800   51.4810 O   0  0  0  0  0  0  0  0  0  0  0  0
   58.8520   31.9750   49.1910 N   0  0  0  0  0  0  0  0  0  0  0  0
   58.9760   30.7610   48.3810 C   0  0  1  0  0  0  0  0  0  0  0  0
   60.0030   30.9600   47.2530 C   0  0  0  0  0  0  0  0  0  0  0  0
   59.7220   30.0600   46.0830 C   0  0  0  0  0  0  0  0  0  0  0  0
   60.5500   29.0550   45.5920 C   0  0  0  0  0  0  0  0  0  0  0  0
   59.9570   28.4190   44.5550 N   0  0  0  0  0  0  0  0  0  0  0  0
   58.7580   29.0080   44.3940 C   0  0  0  0  0  0  0  0  0  0  0  0
   57.7780   28.6870   43.4580 C   0  0  0  0  0  0  0  0  0  0  0  0
   56.5850   29.4340   43.4750 C   0  0  0  0  0  0  0  0  0  0  0  0
   56.3950   30.4630   44.4240 C   0  0  0  0  0  0  0  0  0  0  0  0
   57.4010   30.7590   45.3620 C   0  0  0  0  0  0  0  0  0  0  0  0
   58.5770   30.0110   45.3120 C   0  0  0  0  0  0  0  0  0  0  0  0
   59.3130   29.5740   49.2450 C   0  0  0  0  0  0  0  0  0  0  0  0
   58.6730   29.3800   50.3110 O   0  0  0  0  0  0  0  0  0  0  0  0
   60.3770   28.6900   48.8650 N   0  0  0  0  0  0  0  0  0  0  0  0
   60.2490   27.2380   48.8320 C   0  0  0  0  0  0  0  0  0  0  0  0
   59.3980   26.8080   47.6650 C   0  0  0  0  0  0  0  0  0  0  0  0
   58.0900   27.3000   47.5260 C   0  0  0  0  0  0  0  0  0  0  0  0
   57.3000   26.8940   46.4460 C   0  0  0  0  0  0  0  0  0  0  0  0
   57.8080   25.9950   45.5000 C   0  0  0  0  0  0  0  0  0  0  0  0
   59.1120   25.5100   45.6260 C   0  0  0  0  0  0  0  0  0  0  0  0
   59.9070   25.9150   46.7030 C   0  0  0  0  0  0  0  0  0  0  0  0
   62.3600   34.2140   48.6100 C   0  0  0  0  0  0  0  0  0  0  0  0
   63.5130   34.1950   48.1000 O   0  0  0  0  0  0  0  0  0  0  0  0
   61.1700   34.1950   47.7250 C   0  0  0  0  0  0  0  0  0  0  0  0
   61.2790   33.8360   46.3630 C   0  0  0  0  0  0  0  0  0  0  0  0
   60.1460   33.8410   45.5400 C   0  0  0  0  0  0  0  0  0  0  0  0
   58.9010   34.2130   46.0570 C   0  0  0  0  0  0  0  0  0  0  0  0
   57.3620   34.2210   44.9240 Br  0  0  0  0  0  0  0  0  0  0  0  0
   58.7830   34.5820   47.4020 C   0  0  0  0  0  0  0  0  0  0  0  0
   59.9100   34.5760   48.2320 C   0  0  0  0  0  0  0  0  0  0  0  0
   60.9289   31.9951   51.8848 H   0  0  0  0  0  0  0  0  0  0  0  0
   61.0840   30.7332   49.4411 H   0  0  0  0  0  0  0  0  0  0  0  0
   62.1381   32.2239   49.2263 H   0  0  0  0  0  0  0  0  0  0  0  0
   61.9490   29.0114   51.5391 H   0  0  0  0  0  0  0  0  0  0  0  0
   64.3910   28.4580   52.2750 H   0  0  0  0  0  0  0  0  0  0  0  0
   66.8504   29.6195   51.9588 H   0  0  0  0  0  0  0  0  0  0  0  0
   68.0123   31.6032   50.9242 H   0  0  0  0  0  0  0  0  0  0  0  0
   66.6879   33.3254   49.6741 H   0  0  0  0  0  0  0  0  0  0  0  0
   64.1899   33.0794   49.4427 H   0  0  0  0  0  0  0  0  0  0  0  0
   58.0046   30.5560   47.9073 H   0  0  0  0  0  0  0  0  0  0  0  0
   59.9643   32.0063   46.9157 H   0  0  0  0  0  0  0  0  0  0  0  0
   60.9992   30.7105   47.6472 H   0  0  0  0  0  0  0  0  0  0  0  0
   61.5460   28.8119   45.9906 H   0  0  0  0  0  0  0  0  0  0  0  0
   60.3530   27.6300   43.9990 H   0  0  0  0  0  0  0  0  0  0  0  0
   57.9311   27.8769   42.7298 H   0  0  0  0  0  0  0  0  0  0  0  0
   55.7938   29.2146   42.7429 H   0  0  0  0  0  0  0  0  0  0  0  0
   55.4559   31.0357   44.4296 H   0  0  0  0  0  0  0  0  0  0  0  0
   57.2645   31.5540   46.1099 H   0  0  0  0  0  0  0  0  0  0  0  0
   61.2485   26.7889   48.7357 H   0  0  0  0  0  0  0  0  0  0  0  0
   59.7698   26.9025   49.7636 H   0  0  0  0  0  0  0  0  0  0  0  0
   57.6866   28.0054   48.2674 H   0  0  0  0  0  0  0  0  0  0  0  0
   56.2763   27.2820   46.3391 H   0  0  0  0  0  0  0  0  0  0  0  0
   57.1799   25.6706   44.6573 H   0  0  0  0  0  0  0  0  0  0  0  0
   59.5133   24.8099   44.8785 H   0  0  0  0  0  0  0  0  0  0  0  0
   60.9345   25.5341   46.7988 H   0  0  0  0  0  0  0  0  0  0  0  0
   62.2570   33.5516   45.9476 H   0  0  0  0  0  0  0  0  0  0  0  0
   60.2357   33.5512   44.4827 H   0  0  0  0  0  0  0  0  0  0  0  0
   57.8038   34.8770   47.8071 H   0  0  0  0  0  0  0  0  0  0  0  0
   59.8124   34.8705   49.2873 H   0  0  0  0  0  0  0  0  0  0  0  0
  1  2  2  0
  2  3  1  0
  3  4  1  0
  4  5  1  0
  5  6  1  0
  6  7  2  0
  7  8  1  0
  8  9  1  0
  9 10  2  0
 10 11  1  0
 11 12  2  0
 12 13  1  0
 13 14  2  0
  4 15  1  0
 15 16  2  0
 15 17  1  0
 17 18  1  0
 18 19  1  0
 19 20  1  0
 20 21  2  0
 21 22  1  0
 22 23  1  0
 23 24  2  0
 24 25  1  0
 25 26  2  0
 26 27  1  0
 27 28  2  0
 18 29  1  0
 29 30  2  0
 29 31  1  0
 31 32  1  0
 32 33  1  0
 33 34  2  0
 34 35  1  0
 35 36  2  0
 36 37  1  0
 37 38  2  0
  2 39  1  0
 39 40  2  0
 39 41  1  0
 41 42  2  0
 42 43  1  0
 43 44  2  0
 44 45  1  0
 44 46  1  0
 46 47  2  0
 14  6  1  0
 28 20  1  0
 38 33  1  0
 47 41  1  0
 14  9  1  0
 28 23  1  0
  4 48  1  1
  5 49  1  0
  5 50  1  0
  7 51  1  0
  8 52  1  0
 10 53  1  0
 11 54  1  0
 12 55  1  0
 13 56  1  0
 18 57  1  6
 19 58  1  0
 19 59  1  0
 21 60  1  0
 22 61  1  0
 24 62  1  0
 25 63  1  0
 26 64  1  0
 27 65  1  0
 32 66  1  0
 32 67  1  0
 34 68  1  0
 35 69  1  0
 36 70  1  0
 37 71  1  0
 38 72  1  0
 42 73  1  0
 43 74  1  0
 46 75  1  0
 47 76  1  0
M  CHG  3   3  -1  17  -1  31  -1
M  END
>  <UniqueID>  (15) 
13

>  <SMILES>  (15) 
O=C([N-][C@H](Cc1c[nH]c2ccccc12)C(=O)[N-][C@@H](Cc1c[nH]c2ccccc12)C(=O)[N-]Cc1ccccc1)C(=O)c1ccc(Br)cc1

>  <Energy>  (15) 
156.48854272076937

>  <Genealogy>  (15) 
O=C([N-]C(Cc1c[nH]c2ccccc12)C(=O)[N-]C(Cc1c[nH]c2ccccc12)C(=O)[N-]Cc1ccccc1)C(=O)c1ccc(Br)cc1 (protonated)
O=C([N-][C@H](Cc1c[nH]c2ccccc12)C(=O)[N-][C@@H](Cc1c[nH]c2ccccc12)C(=O)[N-]Cc1ccccc1)C(=O)c1ccc(Br)cc1 (chirality)
O=C([N-][C@H](Cc1c[nH]c2ccccc12)C(=O)[N-][C@@H](Cc1c[nH]c2ccccc12)C(=O)[N-]Cc1ccccc1)C(=O)c1ccc(Br)cc1 (3D coordinates assigned)
O=C([N-][C@H](Cc1c[nH]c2ccccc12)C(=O)[N-][C@@H](Cc1c[nH]c2ccccc12)C(=O)[N-]Cc1ccccc1)C(=O)c1ccc(Br)cc1 (optimized conformer: 156.48854272076937 kcal/mol)

>  <smiles>  (15) 
O=C(NC(Cc1c[nH]c2ccccc12)C(=O)NC(Cc1c[nH]c2ccccc12)C(=O)NCc1ccccc1)C(=O)c1ccc(Br)cc1

>  <score_type>  (15) 
oracle

>  <origin>  (15) 
adg

>  <m_score__min__energy>  (15) 
-14.359999999999999

>  <m_primary>  (15) 
energy

$$$$
15:0
     RDKit          3D

 27 29  0  0  0  0  0  0  0  0999 V2000
   55.1050   30.0720   43.4180 O   0  0  0  0  0  0  0  0  0  0  0  0
   56.1120   30.3730   44.1100 C   0  0  0  0  0  0  0  0  0  0  0  0
   56.2360   31.5760   44.8620 N   0  0  0  0  0  0  0  0  0  0  0  0
   57.4080   31.4690   45.4090 C   0  0  0  0  0  0  0  0  0  0  0  0
   57.9830   32.4130   46.2590 C   0  0  0  0  0  0  0  0  0  0  0  0
   59.2570   32.1500   46.7870 C   0  0  0  0  0  0  0  0  0  0  0  0
   59.9360   30.9570   46.4610 C   0  0  0  0  0  0  0  0  0  0  0  0
   61.5280   30.6480   47.1290 Cl  0  0  0  0  0  0  0  0  0  0  0  0
   59.3460   30.0150   45.6020 C   0  0  0  0  0  0  0  0  0  0  0  0
   58.0770   30.2940   45.0860 C   0  0  0  0  0  0  0  0  0  0  0  0
   57.3160   29.5740   44.2710 C   0  0  0  0  0  0  0  0  0  0  0  0
   57.5690   28.2530   43.7570 N   0  0  0  0  0  0  0  0  0  0  0  0
   57.8500   27.3370   44.8400 C   0  0  0  0  0  0  0  0  0  0  0  0
   59.1640   26.8870   45.0570 C   0  0  0  0  0  0  0  0  0  0  0  0
   59.4320   25.9980   46.0990 C   0  0  0  0  0  0  0  0  0  0  0  0
   58.4280   25.5780   46.9120 N   0  0  0  0  0  0  0  0  0  0  0  0
   57.1490   26.0040   46.7460 C   0  0  0  0  0  0  0  0  0  0  0  0
   56.2500   25.5930   47.5270 O   0  0  0  0  0  0  0  0  0  0  0  0
   56.8320   26.8980   45.7140 C   0  0  0  0  0  0  0  0  0  0  0  0
   55.5230   27.3470   45.5720 O   0  0  0  0  0  0  0  0  0  0  0  0
   57.4507   33.3423   46.5101 H   0  0  0  0  0  0  0  0  0  0  0  0
   59.7297   32.8801   47.4604 H   0  0  0  0  0  0  0  0  0  0  0  0
   59.8686   29.0826   45.3423 H   0  0  0  0  0  0  0  0  0  0  0  0
   58.3520   28.2980   43.0670 H   0  0  0  0  0  0  0  0  0  0  0  0
   56.7210   27.9190   43.2440 H   0  0  0  0  0  0  0  0  0  0  0  0
   59.9799   27.2351   44.4064 H   0  0  0  0  0  0  0  0  0  0  0  0
   60.4581   25.6368   46.2622 H   0  0  0  0  0  0  0  0  0  0  0  0
  1  2  2  0
  2  3  1  0
  3  4  2  0
  4  5  1  0
  5  6  2  0
  6  7  1  0
  7  8  1  0
  7  9  2  0
  9 10  1  0
 10 11  2  0
 11 12  1  0
 12 13  1  0
 13 14  1  0
 14 15  2  0
 15 16  1  0
 16 17  1  0
 17 18  2  0
 17 19  1  0
 19 20  1  0
 11  2  1  0
 19 13  2  0
 10  4  1  0
  5 21  1  0
  6 22  1  0
  9 23  1  0
 12 24  1  0
 12 25  1  0
 14 26  1  0
 15 27  1  0
M  CHG  3  12   1  16  -1  20  -1
M  END
>  <UniqueID>  (16) 
14

>  <SMILES>  (16) 
O=C1N=c2ccc(Cl)cc2=C1[NH2+]c1cc[n-]c(=O)c1[O-]

>  <Energy>  (16) 
67.51472815588083

>  <Genealogy>  (16) 
O=C1N=c2ccc(Cl)cc2=C1[NH2+]c1cc[n-]c(=O)c1[O-] (protonated)
O=C1N=c2ccc(Cl)cc2=C1[NH2+]c1cc[n-]c(=O)c1[O-] (3D coordinates assigned)
O=C1N=c2ccc(Cl)cc2=C1[NH2+]c1cc[n-]c(=O)c1[O-] (nonaromatic ring conformer: 67.51472815588083 kcal/mol)

>  <smiles>  (16) 
O=C1N=c2ccc(Cl)cc2=C1Nc1cc[nH]c(=O)c1O

>  <score_type>  (16) 
oracle

>  <origin>  (16) 
adg

>  <m_score__min__energy>  (16) 
-11.529999999999999

>  <m_primary>  (16) 
energy

$$$$
16:0
     RDKit          3D

 40 42  0  0  0  0  0  0  0  0999 V2000
   60.3398   35.4637   46.1497 H   0  0  0  0  0  0  0  0  0  0  0  0
   59.3190   35.0540   46.1580 C   0  0  0  0  0  0  0  0  0  0  0  0
   58.7437   35.0297   47.0953 H   0  0  0  0  0  0  0  0  0  0  0  0
   58.7780   34.5860   45.0300 C   0  0  0  0  0  0  0  0  0  0  0  0
   59.3643   34.6163   44.0997 H   0  0  0  0  0  0  0  0  0  0  0  0
   57.3890   34.0200   45.0030 C   0  0  0  0  0  0  0  0  0  0  0  0
   56.9791   34.0085   46.0237 H   0  0  0  0  0  0  0  0  0  0  0  0
   56.7542   34.6439   44.3567 H   0  0  0  0  0  0  0  0  0  0  0  0
   59.6620   30.5310   47.9330 N   0  0  0  0  0  0  0  0  0  0  0  0
   58.7820   30.5350   46.9730 C   0  0  0  0  0  0  0  0  0  0  0  0
   58.0680   29.4050   46.7430 N   0  0  0  0  0  0  0  0  0  0  0  0
   57.1430   29.3560   45.7480 C   0  0  0  0  0  0  0  0  0  0  0  0
   56.4340   28.2870   45.5330 N   0  0  0  0  0  0  0  0  0  0  0  0
   56.8210   26.9270   45.7990 C   0  0  0  0  0  0  0  0  0  0  0  0
   58.1690   26.5200   45.7750 C   0  0  0  0  0  0  0  0  0  0  0  0
   58.9600   27.2580   45.5760 H   0  0  0  0  0  0  0  0  0  0  0  0
   58.5070   25.1820   46.0030 C   0  0  0  0  0  0  0  0  0  0  0  0
   59.5628   24.8733   45.9981 H   0  0  0  0  0  0  0  0  0  0  0  0
   57.5040   24.2370   46.2370 C   0  0  0  0  0  0  0  0  0  0  0  0
   57.7708   23.1865   46.4250 H   0  0  0  0  0  0  0  0  0  0  0  0
   56.1630   24.6270   46.2320 C   0  0  0  0  0  0  0  0  0  0  0  0
   55.3744   23.8803   46.4072 H   0  0  0  0  0  0  0  0  0  0  0  0
   55.8190   25.9640   46.0050 C   0  0  0  0  0  0  0  0  0  0  0  0
   54.4800   26.3350   45.9930 O   0  0  0  0  0  0  0  0  0  0  0  0
   56.9230   30.4590   44.9910 N   0  0  0  0  0  0  0  0  0  0  0  0
   57.6290   31.6010   45.2080 C   0  0  0  0  0  0  0  0  0  0  0  0
   57.4220   32.6580   44.4780 N   0  0  0  0  0  0  0  0  0  0  0  0
   61.0920   30.2820   47.7840 C   0  0  0  0  0  0  0  0  0  0  0  0
   61.4951   29.8789   48.7248 H   0  0  0  0  0  0  0  0  0  0  0  0
   61.2579   29.5544   46.9759 H   0  0  0  0  0  0  0  0  0  0  0  0
   61.7820   31.5630   47.4540 C   0  0  0  0  0  0  0  0  0  0  0  0
   61.1770   32.6210   46.9650 O   0  0  0  0  0  0  0  0  0  0  0  0
   62.0730   33.5580   46.7630 C   0  0  0  0  0  0  0  0  0  0  0  0
   61.8617   34.5596   46.3604 H   0  0  0  0  0  0  0  0  0  0  0  0
   63.3210   33.0970   47.1320 C   0  0  0  0  0  0  0  0  0  0  0  0
   64.2711   33.6492   47.0823 H   0  0  0  0  0  0  0  0  0  0  0  0
   63.1360   31.8060   47.5750 C   0  0  0  0  0  0  0  0  0  0  0  0
   63.9055   31.1137   47.9472 H   0  0  0  0  0  0  0  0  0  0  0  0
   58.5620   31.6380   46.1980 N   0  0  0  0  0  0  0  0  0  0  0  0
   59.0960   32.5240   46.3480 H   0  0  0  0  0  0  0  0  0  0  0  0
  1  2  1  0
  2  3  1  0
  2  4  2  0
  4  5  1  0
  4  6  1  0
  6  7  1  0
  6  8  1  0
  6  9  1  0
  9 10  2  0
 10 11  1  0
 11 12  1  0
 12 13  2  3
 13 14  1  0
 14 15  2  0
 15 16  1  0
 15 17  1  0
 17 18  1  0
 17 19  2  0
 19 20  1  0
 19 21  1  0
 21 22  1  0
 21 23  2  0
 23 24  1  0
 12 25  1  0
 25 26  1  0
 26 27  2  0
 27 28  1  0
 28 29  1  0
 28 30  1  0
 28 31  1  0
 31 32  1  0
 32 33  1  0
 33 34  1  0
 33 35  2  0
 35 36  1  0
 35 37  1  0
 37 38  1  0
 26 39  1  0
 39 40  1  0
 39 10  1  0
 23 14  1  0
 37 31  2  0
M  CHG  3  11  -1  24  -1  25  -1
M  END
>  <UniqueID>  (17) 
15

>  <SMILES>  (17) 
C=CC/N=c1\[n-]c(=Nc2ccccc2[O-])[n-]/c(=N/Cc2ccco2)[nH]1

>  <Energy>  (17) 
70.76693916915724

>  <Genealogy>  (17) 
C=CCN=c1[n-]c(=Nc2ccccc2[O-])[n-]c(=NCc2ccco2)[nH]1 (protonated)
C=CC/N=c1\[n-]c(=Nc2ccccc2[O-])[n-]/c(=N/Cc2ccco2)[nH]1 (cis-trans isomerization)
C=CC/N=c1\[n-]c(=Nc2ccccc2[O-])[n-]/c(=N/Cc2ccco2)[nH]1 (3D coordinates assigned)
C=CC/N=c1\[n-]c(=Nc2ccccc2[O-])[n-]/c(=N/Cc2ccco2)[nH]1 (optimized conformer: 70.76693916915724 kcal/mol)

>  <smiles>  (17) 
C=CCN=c1[nH]c(=NCc2ccco2)[nH]c(=Nc2ccccc2O)[nH]1

>  <score_type>  (17) 
oracle

>  <origin>  (17) 
adg

>  <m_score__min__energy>  (17) 
-13.779999999999999

>  <m_primary>  (17) 
energy

$$$$
17:0
     RDKit          3D

 44 46  0  0  0  0  0  0  0  0999 V2000
   59.9960   34.9180   46.3900 C   0  0  0  0  0  0  0  0  0  0  0  0
   59.4490   34.9490   47.8130 C   0  0  0  0  0  0  0  0  0  0  0  0
   60.0070   33.8940   48.5970 O   0  0  0  0  0  0  0  0  0  0  0  0
   61.3560   33.4950   48.6060 C   0  0  0  0  0  0  0  0  0  0  0  0
   62.3380   34.2360   49.3040 C   0  0  0  0  0  0  0  0  0  0  0  0
   63.6800   33.8560   49.2620 C   0  0  0  0  0  0  0  0  0  0  0  0
   64.0670   32.7370   48.5300 C   0  0  0  0  0  0  0  0  0  0  0  0
   63.1120   31.9810   47.8500 C   0  0  0  0  0  0  0  0  0  0  0  0
   61.7490   32.3350   47.8890 C   0  0  0  0  0  0  0  0  0  0  0  0
   60.7610   31.4820   47.1700 C   0  0  0  0  0  0  0  0  0  0  0  0
   61.0630   30.2870   46.8970 O   0  0  0  0  0  0  0  0  0  0  0  0
   59.4400   31.9670   46.8700 N   0  0  0  0  0  0  0  0  0  0  0  0
   58.5930   31.4770   45.8110 C   0  0  0  0  0  0  0  0  0  0  0  0
   58.1760   32.2980   44.7460 C   0  0  0  0  0  0  0  0  0  0  0  0
   57.3240   31.7950   43.7580 C   0  0  0  0  0  0  0  0  0  0  0  0
   56.8580   30.4820   43.8350 C   0  0  0  0  0  0  0  0  0  0  0  0
   57.2450   29.6540   44.8930 C   0  0  0  0  0  0  0  0  0  0  0  0
   56.6870   28.3330   44.9830 N   0  0  0  0  0  0  0  0  0  0  0  0
   57.3880   27.1070   44.7470 C   0  0  0  0  0  0  0  0  0  0  0  0
   58.1950   27.0480   43.7800 O   0  0  0  0  0  0  0  0  0  0  0  0
   57.2160   25.9310   45.6340 C   0  0  0  0  0  0  0  0  0  0  0  0
   58.3030   25.0880   45.9090 C   0  0  0  0  0  0  0  0  0  0  0  0
   58.1430   24.0050   46.7100 N   0  0  0  0  0  0  0  0  0  0  0  0
   56.9350   23.7080   47.2490 C   0  0  0  0  0  0  0  0  0  0  0  0
   56.8080   22.7010   47.9910 O   0  0  0  0  0  0  0  0  0  0  0  0
   55.8640   24.5090   47.0050 N   0  0  0  0  0  0  0  0  0  0  0  0
   55.9750   25.6040   46.2090 C   0  0  0  0  0  0  0  0  0  0  0  0
   54.9630   26.3320   46.0200 O   0  0  0  0  0  0  0  0  0  0  0  0
   58.1040   30.1610   45.8850 C   0  0  0  0  0  0  0  0  0  0  0  0
   61.0938   34.8558   46.4205 H   0  0  0  0  0  0  0  0  0  0  0  0
   59.5936   34.0412   45.8615 H   0  0  0  0  0  0  0  0  0  0  0  0
   59.6952   35.8346   45.8615 H   0  0  0  0  0  0  0  0  0  0  0  0
   59.7029   35.9143   48.2754 H   0  0  0  0  0  0  0  0  0  0  0  0
   58.3577   34.8172   47.7727 H   0  0  0  0  0  0  0  0  0  0  0  0
   62.0408   35.1209   49.8859 H   0  0  0  0  0  0  0  0  0  0  0  0
   64.4337   34.4419   49.8085 H   0  0  0  0  0  0  0  0  0  0  0  0
   65.1276   32.4484   48.4877 H   0  0  0  0  0  0  0  0  0  0  0  0
   63.4272   31.0972   47.2760 H   0  0  0  0  0  0  0  0  0  0  0  0
   59.0370   32.6820   47.5170 H   0  0  0  0  0  0  0  0  0  0  0  0
   58.5223   33.3406   44.6909 H   0  0  0  0  0  0  0  0  0  0  0  0
   57.0202   32.4363   42.9175 H   0  0  0  0  0  0  0  0  0  0  0  0
   56.1817   30.0958   43.0582 H   0  0  0  0  0  0  0  0  0  0  0  0
   59.2892   25.3061   45.4733 H   0  0  0  0  0  0  0  0  0  0  0  0
   58.3968   29.5196   46.7293 H   0  0  0  0  0  0  0  0  0  0  0  0
  1  2  1  0
  2  3  1  0
  3  4  1  0
  4  5  2  0
  5  6  1  0
  6  7  2  0
  7  8  1  0
  8  9  2  0
  9 10  1  0
 10 11  2  0
 10 12  1  0
 12 13  1  0
 13 14  2  0
 14 15  1  0
 15 16  2  0
 16 17  1  0
 17 18  1  0
 18 19  1  0
 19 20  2  0
 19 21  1  0
 21 22  2  0
 22 23  1  0
 23 24  1  0
 24 25  2  0
 24 26  1  0
 26 27  1  0
 27 28  2  0
 17 29  2  0
  9  4  1  0
 29 13  1  0
 27 21  1  0
  1 30  1  0
  1 31  1  0
  1 32  1  0
  2 33  1  0
  2 34  1  0
  5 35  1  0
  6 36  1  0
  7 37  1  0
  8 38  1  0
 12 39  1  0
 14 40  1  0
 15 41  1  0
 16 42  1  0
 22 43  1  0
 29 44  1  0
M  CHG  3  18  -1  23  -1  26  -1
M  END
>  <UniqueID>  (18) 
16

>  <SMILES>  (18) 
CCOc1ccccc1C(=O)Nc1cccc([N-]C(=O)c2c[n-]c(=O)[n-]c2=O)c1

>  <Energy>  (18) 
62.241539368406784

>  <Genealogy>  (18) 
CCOc1ccccc1C(=O)Nc1cccc([N-]C(=O)c2c[n-]c(=O)[n-]c2=O)c1 (protonated)
CCOc1ccccc1C(=O)Nc1cccc([N-]C(=O)c2c[n-]c(=O)[n-]c2=O)c1 (3D coordinates assigned)
CCOc1ccccc1C(=O)Nc1cccc([N-]C(=O)c2c[n-]c(=O)[n-]c2=O)c1 (optimized conformer: 62.241539368406784 kcal/mol)

>  <smiles>  (18) 
CCOc1ccccc1C(=O)Nc1cccc(NC(=O)c2c[nH]c(=O)[nH]c2=O)c1

>  <score_type>  (18) 
oracle

>  <origin>  (18) 
adg

>  <m_score__min__energy>  (18) 
-14.029999999999999

>  <m_primary>  (18) 
energy

$$$$
18:0
     RDKit          3D

 26 27  0  0  0  0  0  0  0  0999 V2000
   59.3436   27.9183   44.8314 H   0  0  0  0  0  0  0  0  0  0  0  0
   58.4710   28.5880   44.8260 C   0  0  0  0  0  0  0  0  0  0  0  0
   57.2440   28.1140   45.5060 C   0  0  0  0  0  0  0  0  0  0  0  0
   56.2390   28.8720   45.5910 O   0  0  0  0  0  0  0  0  0  0  0  0
   57.2070   26.7820   46.1620 C   0  0  0  0  0  0  0  0  0  0  0  0
   55.9840   26.1190   46.3810 C   0  0  0  0  0  0  0  0  0  0  0  0
   54.7780   26.7030   46.0070 O   0  0  0  0  0  0  0  0  0  0  0  0
   55.9670   24.9000   46.9780 N   0  0  0  0  0  0  0  0  0  0  0  0
   57.1150   24.2950   47.3720 C   0  0  0  0  0  0  0  0  0  0  0  0
   57.0710   23.1660   47.9250 O   0  0  0  0  0  0  0  0  0  0  0  0
   58.3090   24.9040   47.1680 N   0  0  0  0  0  0  0  0  0  0  0  0
   58.3840   26.1220   46.5730 C   0  0  0  0  0  0  0  0  0  0  0  0
   59.5180   26.6370   46.3770 O   0  0  0  0  0  0  0  0  0  0  0  0
   58.6030   29.7690   44.2040 C   0  0  0  0  0  0  0  0  0  0  0  0
   58.9270   29.7560   43.1529 H   0  0  0  0  0  0  0  0  0  0  0  0
   58.3460   31.0890   44.8240 C   0  0  0  0  0  0  0  0  0  0  0  0
   58.4370   31.2460   46.2190 C   0  0  0  0  0  0  0  0  0  0  0  0
   58.7348   30.3929   46.8463 H   0  0  0  0  0  0  0  0  0  0  0  0
   58.1520   32.4770   46.8130 C   0  0  0  0  0  0  0  0  0  0  0  0
   58.2403   32.5951   47.9031 H   0  0  0  0  0  0  0  0  0  0  0  0
   57.7550   33.5580   46.0240 C   0  0  0  0  0  0  0  0  0  0  0  0
   57.5363   34.5288   46.4927 H   0  0  0  0  0  0  0  0  0  0  0  0
   57.6350   33.4090   44.6410 C   0  0  0  0  0  0  0  0  0  0  0  0
   57.3154   34.2617   44.0239 H   0  0  0  0  0  0  0  0  0  0  0  0
   57.9200   32.1780   44.0360 C   0  0  0  0  0  0  0  0  0  0  0  0
   57.7610   32.0430   42.2880 Cl  0  0  0  0  0  0  0  0  0  0  0  0
  1  2  1  0
  2  3  1  0
  3  4  2  0
  3  5  1  0
  5  6  2  0
  6  7  1  0
  6  8  1  0
  8  9  1  0
  9 10  2  0
  9 11  1  0
 11 12  1  0
 12 13  2  0
  2 14  2  0
 14 15  1  0
 14 16  1  0
 16 17  2  0
 17 18  1  0
 17 19  1  0
 19 20  1  0
 19 21  2  0
 21 22  1  0
 21 23  1  0
 23 24  1  0
 23 25  2  0
 25 26  1  0
 12  5  1  0
 25 16  1  0
M  CHG  3   7  -1   8  -1  11  -1
M  END
>  <UniqueID>  (19) 
17

>  <SMILES>  (19) 
O=C(/C=C\c1ccccc1Cl)c1c([O-])[n-]c(=O)[n-]c1=O

>  <Energy>  (19) 
42.820245059039394

>  <Genealogy>  (19) 
O=C(C=Cc1ccccc1Cl)c1c([O-])[n-]c(=O)[n-]c1=O (protonated)
O=C(/C=C\c1ccccc1Cl)c1c([O-])[n-]c(=O)[n-]c1=O (cis-trans isomerization)
O=C(/C=C\c1ccccc1Cl)c1c([O-])[n-]c(=O)[n-]c1=O (3D coordinates assigned)
O=C(/C=C\c1ccccc1Cl)c1c([O-])[n-]c(=O)[n-]c1=O (optimized conformer: 42.820245059039394 kcal/mol)

>  <smiles>  (19) 
O=C(C=Cc1ccccc1Cl)c1c(O)[nH]c(=O)[nH]c1=O

>  <score_type>  (19) 
oracle

>  <origin>  (19) 
adg

>  <m_score__min__energy>  (19) 
-15.289999999999999

>  <m_primary>  (19) 
energy

$$$$
19:0
     RDKit          3D

 60 63  0  0  0  0  0  0  0  0999 V2000
   61.3450   31.2940   51.8620 O   0  0  0  0  0  0  0  0  0  0  0  0
   60.3390   31.8640   51.3630 C   0  0  0  0  0  0  0  0  0  0  0  0
   59.4240   32.6490   52.2660 C   0  0  0  0  0  0  0  0  0  0  0  0
   58.1380   31.8960   52.5150 C   0  0  0  0  0  0  0  0  0  0  0  0
   57.9030   31.2990   53.7630 C   0  0  0  0  0  0  0  0  0  0  0  0
   56.7430   30.5540   53.9840 C   0  0  0  0  0  0  0  0  0  0  0  0
   55.8040   30.4030   52.9640 C   0  0  0  0  0  0  0  0  0  0  0  0
   56.0250   30.9910   51.7170 C   0  0  0  0  0  0  0  0  0  0  0  0
   57.1880   31.7370   51.4840 C   0  0  0  0  0  0  0  0  0  0  0  0
   57.4060   32.3140   50.2340 O   0  0  0  0  0  0  0  0  0  0  0  0
   60.1760   31.8590   49.9370 N   0  0  0  0  0  0  0  0  0  0  0  0
   59.9650   30.8230   49.1840 C   0  0  0  0  0  0  0  0  0  0  0  0
   58.9220   29.9910   49.3850 N   0  0  0  0  0  0  0  0  0  0  0  0
   58.8620   29.0010   48.4960 N   0  0  0  0  0  0  0  0  0  0  0  0
   59.8360   29.0540   47.5620 C   0  0  0  0  0  0  0  0  0  0  0  0
   60.0450   28.0090   46.5070 C   0  0  0  0  0  0  0  0  0  0  0  0
   59.2000   26.7600   46.7590 C   0  0  0  0  0  0  0  0  0  0  0  0
   57.4810   27.0050   46.1790 S   0  0  0  0  0  0  0  0  0  0  0  0
   57.7700   26.4560   44.4530 C   0  0  0  0  0  0  0  0  0  0  0  0
   58.0630   27.6260   43.5090 C   0  0  0  0  0  0  0  0  0  0  0  0
   57.5180   28.9150   44.0410 C   0  0  0  0  0  0  0  0  0  0  0  0
   56.2050   29.1340   44.2740 N   0  0  0  0  0  0  0  0  0  0  0  0
   55.9490   30.3600   44.7310 N   0  0  0  0  0  0  0  0  0  0  0  0
   57.0540   31.1230   44.8510 C   0  0  0  0  0  0  0  0  0  0  0  0
   57.0130   32.3330   45.3260 N   0  0  0  0  0  0  0  0  0  0  0  0
   57.8690   32.8530   46.3520 C   0  0  0  0  0  0  0  0  0  0  0  0
   57.8830   32.2810   47.4720 O   0  0  0  0  0  0  0  0  0  0  0  0
   58.6660   34.0810   46.1450 C   0  0  0  0  0  0  0  0  0  0  0  0
   58.7850   34.5610   44.9830 O   0  0  0  0  0  0  0  0  0  0  0  0
   59.2860   34.8110   47.3030 C   0  0  0  0  0  0  0  0  0  0  0  0
   60.6790   34.3050   47.5640 C   0  0  0  0  0  0  0  0  0  0  0  0
   61.4640   33.8210   46.5050 C   0  0  0  0  0  0  0  0  0  0  0  0
   62.7650   33.3650   46.7420 C   0  0  0  0  0  0  0  0  0  0  0  0
   63.2950   33.3970   48.0350 C   0  0  0  0  0  0  0  0  0  0  0  0
   62.5240   33.8850   49.0930 C   0  0  0  0  0  0  0  0  0  0  0  0
   63.2510   33.9300   50.8560 Br  0  0  0  0  0  0  0  0  0  0  0  0
   61.2200   34.3390   48.8600 C   0  0  0  0  0  0  0  0  0  0  0  0
   58.4440   30.2780   44.3940 S   0  0  0  0  0  0  0  0  0  0  0  0
   60.8650   30.3600   47.8330 S   0  0  0  0  0  0  0  0  0  0  0  0
   59.9301   32.8254   53.2266 H   0  0  0  0  0  0  0  0  0  0  0  0
   59.1832   33.6050   51.7780 H   0  0  0  0  0  0  0  0  0  0  0  0
   58.6378   31.4188   54.5728 H   0  0  0  0  0  0  0  0  0  0  0  0
   56.5695   30.0855   54.9640 H   0  0  0  0  0  0  0  0  0  0  0  0
   54.8883   29.8201   53.1421 H   0  0  0  0  0  0  0  0  0  0  0  0
   55.2831   30.8681   50.9142 H   0  0  0  0  0  0  0  0  0  0  0  0
   58.0510   31.9090   49.5650 H   0  0  0  0  0  0  0  0  0  0  0  0
   59.7700   28.4319   45.5295 H   0  0  0  0  0  0  0  0  0  0  0  0
   61.1038   27.7118   46.5298 H   0  0  0  0  0  0  0  0  0  0  0  0
   59.6441   25.9101   46.2200 H   0  0  0  0  0  0  0  0  0  0  0  0
   59.1806   26.5616   47.8408 H   0  0  0  0  0  0  0  0  0  0  0  0
   58.6285   25.7683   44.4402 H   0  0  0  0  0  0  0  0  0  0  0  0
   56.8525   25.9623   44.1002 H   0  0  0  0  0  0  0  0  0  0  0  0
   59.1520   27.7222   43.3875 H   0  0  0  0  0  0  0  0  0  0  0  0
   57.5762   27.4193   42.5445 H   0  0  0  0  0  0  0  0  0  0  0  0
   59.3292   35.8855   47.0715 H   0  0  0  0  0  0  0  0  0  0  0  0
   58.6726   34.6391   48.1998 H   0  0  0  0  0  0  0  0  0  0  0  0
   61.0540   33.8004   45.4845 H   0  0  0  0  0  0  0  0  0  0  0  0
   63.3722   32.9805   45.9092 H   0  0  0  0  0  0  0  0  0  0  0  0
   64.3184   33.0382   48.2194 H   0  0  0  0  0  0  0  0  0  0  0  0
   60.6167   34.7239   49.6954 H   0  0  0  0  0  0  0  0  0  0  0  0
  1  2  2  0
  2  3  1  0
  3  4  1  0
  4  5  2  0
  5  6  1  0
  6  7  2  0
  7  8  1  0
  8  9  2  0
  9 10  1  0
  2 11  1  0
 11 12  2  3
 12 13  1  0
 13 14  1  0
 14 15  2  0
 15 16  1  0
 16 17  1  0
 17 18  1  0
 18 19  1  0
 19 20  1  0
 20 21  1  0
 21 22  2  0
 22 23  1  0
 23 24  1  0
 24 25  2  3
 25 26  1  0
 26 27  2  0
 26 28  1  0
 28 29  2  0
 28 30  1  0
 30 31  1  0
 31 32  2  0
 32 33  1  0
 33 34  2  0
 34 35  1  0
 35 36  1  0
 35 37  2  0
 24 38  1  0
 15 39  1  0
  9  4  1  0
 39 12  1  0
 38 21  1  0
 37 31  1  0
  3 40  1  0
  3 41  1  0
  5 42  1  0
  6 43  1  0
  7 44  1  0
  8 45  1  0
 10 46  1  0
 16 47  1  0
 16 48  1  0
 17 49  1  0
 17 50  1  0
 19 51  1  0
 19 52  1  0
 20 53  1  0
 20 54  1  0
 30 55  1  0
 30 56  1  0
 32 57  1  0
 33 58  1  0
 34 59  1  0
 37 60  1  0
M  CHG  2  13  -1  23  -1
M  END
>  <UniqueID>  (20) 
18

>  <SMILES>  (20) 
O=C(Cc1ccccc1O)N=c1[n-]nc(CCSCCc2n[n-]c(=NC(=O)C(=O)Cc3cccc(Br)c3)s2)s1

>  <Energy>  (20) 
135.5533389661273

>  <Genealogy>  (20) 
O=C(Cc1ccccc1O)N=c1[n-]nc(CCSCCc2n[n-]c(=NC(=O)C(=O)Cc3cccc(Br)c3)s2)s1 (protonated)
O=C(Cc1ccccc1O)N=c1[n-]nc(CCSCCc2n[n-]c(=NC(=O)C(=O)Cc3cccc(Br)c3)s2)s1 (3D coordinates assigned)
O=C(Cc1ccccc1O)N=c1[n-]nc(CCSCCc2n[n-]c(=NC(=O)C(=O)Cc3cccc(Br)c3)s2)s1 (optimized conformer: 135.5533389661273 kcal/mol)

>  <smiles>  (20) 
O=C(Cc1ccccc1O)N=c1[nH]nc(CCSCCc2n[nH]c(=NC(=O)C(=O)Cc3cccc(Br)c3)s2)s1

>  <score_type>  (20) 
oracle

>  <origin>  (20) 
adg

>  <m_score__min__energy>  (20) 
-13.460000000000001

>  <m_primary>  (20) 
energy

$$$$
20:0
     RDKit          3D

 49 52  0  0  0  0  0  0  0  0999 V2000
   56.5790   29.4790   43.9450 C   0  0  0  0  0  0  0  0  0  0  0  0
   57.6730   29.1190   44.6340 C   0  0  0  0  0  0  0  0  0  0  0  0
   58.1300   27.8130   44.8850 C   0  0  0  0  0  0  0  0  0  0  0  0
   57.5460   26.6160   44.6830 C   0  0  0  0  0  0  0  0  0  0  0  0
   57.0410   25.7180   45.7340 C   0  0  0  0  0  0  0  0  0  0  0  0
   57.6850   24.6240   46.1840 N   0  0  0  0  0  0  0  0  0  0  0  0
   56.7870   24.0550   47.0170 C   0  0  0  0  0  0  0  0  0  0  0  0
   57.0300   22.9980   47.6550 O   0  0  0  0  0  0  0  0  0  0  0  0
   55.6030   24.6990   47.1010 N   0  0  0  0  0  0  0  0  0  0  0  0
   55.7780   25.7420   46.2720 C   0  0  0  0  0  0  0  0  0  0  0  0
   54.7990   26.6910   46.0060 O   0  0  0  0  0  0  0  0  0  0  0  0
   59.3850   27.9460   45.4560 C   0  0  0  0  0  0  0  0  0  0  0  0
   59.6260   29.2970   45.5880 C   0  0  0  0  0  0  0  0  0  0  0  0
   60.8610   29.8920   46.1930 C   0  0  0  0  0  0  0  0  0  0  0  0
   58.5850   30.0090   45.1020 N   0  0  0  0  0  0  0  0  0  0  0  0
   58.5250   31.4440   45.0290 C   0  0  0  0  0  0  0  0  0  0  0  0
   58.1380   32.0750   43.8390 C   0  0  0  0  0  0  0  0  0  0  0  0
   58.0960   33.4680   43.7660 C   0  0  0  0  0  0  0  0  0  0  0  0
   58.4450   34.2410   44.8760 C   0  0  0  0  0  0  0  0  0  0  0  0
   58.8450   33.6240   46.0760 C   0  0  0  0  0  0  0  0  0  0  0  0
   59.2200   34.4420   47.2550 C   0  0  0  0  0  0  0  0  0  0  0  0
   59.5700   35.6440   47.1040 O   0  0  0  0  0  0  0  0  0  0  0  0
   59.1870   33.8720   48.5660 N   0  0  0  0  0  0  0  0  0  0  0  0
   59.9470   32.6840   48.9330 C   0  0  0  0  0  0  0  0  0  0  0  0
   61.4050   32.9260   48.6700 C   0  0  0  0  0  0  0  0  0  0  0  0
   61.9220   32.7890   47.3720 C   0  0  0  0  0  0  0  0  0  0  0  0
   63.2740   33.0480   47.1230 C   0  0  0  0  0  0  0  0  0  0  0  0
   64.1130   33.4560   48.1630 C   0  0  0  0  0  0  0  0  0  0  0  0
   63.6010   33.6110   49.4540 C   0  0  0  0  0  0  0  0  0  0  0  0
   64.4150   34.0140   50.4610 F   0  0  0  0  0  0  0  0  0  0  0  0
   62.2500   33.3520   49.7080 C   0  0  0  0  0  0  0  0  0  0  0  0
   58.8830   32.2200   46.1400 C   0  0  0  0  0  0  0  0  0  0  0  0
   56.3327   30.5439   43.8212 H   0  0  0  0  0  0  0  0  0  0  0  0
   55.9287   28.7092   43.5041 H   0  0  0  0  0  0  0  0  0  0  0  0
   57.4370   26.2803   43.6412 H   0  0  0  0  0  0  0  0  0  0  0  0
   60.0609   27.1289   45.7485 H   0  0  0  0  0  0  0  0  0  0  0  0
   60.7860   29.8559   47.2898 H   0  0  0  0  0  0  0  0  0  0  0  0
   61.7417   29.3193   45.8666 H   0  0  0  0  0  0  0  0  0  0  0  0
   60.9620   30.9376   45.8666 H   0  0  0  0  0  0  0  0  0  0  0  0
   57.8668   31.4710   42.9606 H   0  0  0  0  0  0  0  0  0  0  0  0
   57.7871   33.9589   42.8313 H   0  0  0  0  0  0  0  0  0  0  0  0
   58.4069   35.3385   44.8118 H   0  0  0  0  0  0  0  0  0  0  0  0
   59.7974   32.4677   50.0011 H   0  0  0  0  0  0  0  0  0  0  0  0
   59.6023   31.8273   48.3353 H   0  0  0  0  0  0  0  0  0  0  0  0
   61.2624   32.4772   46.5488 H   0  0  0  0  0  0  0  0  0  0  0  0
   63.6773   32.9302   46.1064 H   0  0  0  0  0  0  0  0  0  0  0  0
   65.1766   33.6552   47.9656 H   0  0  0  0  0  0  0  0  0  0  0  0
   61.8482   33.4823   50.7237 H   0  0  0  0  0  0  0  0  0  0  0  0
   59.1968   31.7256   47.0712 H   0  0  0  0  0  0  0  0  0  0  0  0
  1  2  2  0
  2  3  1  0
  3  4  2  3
  4  5  1  0
  5  6  1  0
  6  7  1  0
  7  8  2  0
  7  9  1  0
  9 10  1  0
 10 11  1  0
  3 12  1  0
 12 13  2  0
 13 14  1  0
 13 15  1  0
 15 16  1  0
 16 17  2  0
 17 18  1  0
 18 19  2  0
 19 20  1  0
 20 21  1  0
 21 22  2  0
 21 23  1  0
 23 24  1  0
 24 25  1  0
 25 26  2  0
 26 27  1  0
 27 28  2  0
 28 29  1  0
 29 30  1  0
 29 31  2  0
 20 32  2  0
 15  2  1  0
 32 16  1  0
 10  5  2  0
 31 25  1  0
  1 33  1  0
  1 34  1  0
  4 35  1  0
 12 36  1  0
 14 37  1  0
 14 38  1  0
 14 39  1  0
 17 40  1  0
 18 41  1  0
 19 42  1  0
 24 43  1  0
 24 44  1  0
 26 45  1  0
 27 46  1  0
 28 47  1  0
 31 48  1  0
 32 49  1  0
M  CHG  4   6  -1   9  -1  11  -1  23  -1
M  END
>  <UniqueID>  (21) 
19

>  <SMILES>  (21) 
C=c1c(=Cc2[n-]c(=O)[n-]c2[O-])cc(C)n1-c1cccc(C(=O)[N-]Cc2cccc(F)c2)c1

>  <Energy>  (21) 
126.52452766777061

>  <Genealogy>  (21) 
C=c1c(=Cc2[n-]c(=O)[n-]c2[O-])cc(C)n1-c1cccc(C(=O)[N-]Cc2cccc(F)c2)c1 (protonated)
C=c1c(=Cc2[n-]c(=O)[n-]c2[O-])cc(C)n1-c1cccc(C(=O)[N-]Cc2cccc(F)c2)c1 (3D coordinates assigned)
C=c1c(=Cc2[n-]c(=O)[n-]c2[O-])cc(C)n1-c1cccc(C(=O)[N-]Cc2cccc(F)c2)c1 (optimized conformer: 126.52452766777061 kcal/mol)

>  <smiles>  (21) 
C=c1c(=Cc2[nH]c(=O)[nH]c2O)cc(C)n1-c1cccc(C(=O)NCc2cccc(F)c2)c1

>  <score_type>  (21) 
oracle

>  <origin>  (21) 
adg

>  <m_score__min__energy>  (21) 
-17.960000000000001

>  <m_primary>  (21) 
energy

$$$$
21:0
     RDKit          3D

 53 56  0  0  0  0  0  0  0  0999 V2000
   56.5630   27.7950   52.8940 O   0  0  0  0  0  0  0  0  0  0  0  0
   56.4610   28.9460   53.4020 C   0  0  0  0  0  0  0  0  0  0  0  0
   57.6720   29.5670   54.0560 C   0  0  0  0  0  0  0  0  0  0  0  0
   58.1290   30.7930   53.3100 C   0  0  0  0  0  0  0  0  0  0  0  0
   58.8730   31.7810   53.9690 C   0  0  0  0  0  0  0  0  0  0  0  0
   59.2620   32.9390   53.2930 C   0  0  0  0  0  0  0  0  0  0  0  0
   58.9070   33.1300   51.9510 C   0  0  0  0  0  0  0  0  0  0  0  0
   59.2930   34.2960   51.2900 O   0  0  0  0  0  0  0  0  0  0  0  0
   58.1550   32.1450   51.2790 C   0  0  0  0  0  0  0  0  0  0  0  0
   57.7170   32.3290   49.8440 C   0  0  0  0  0  0  0  0  0  0  0  0
   58.8860   32.4840   48.9520 N   0  0  0  0  0  0  0  0  0  0  0  0
   58.9560   31.3910   47.9540 C   0  0  0  0  0  0  0  0  0  0  0  0
   59.7900   31.8130   46.7340 C   0  0  0  0  0  0  0  0  0  0  0  0
   59.2660   32.9390   46.0410 O   0  0  0  0  0  0  0  0  0  0  0  0
   58.4690   33.7890   46.8520 C   0  0  0  0  0  0  0  0  0  0  0  0
   58.9180   33.8280   48.3240 C   0  0  0  0  0  0  0  0  0  0  0  0
   57.7640   30.9860   51.9690 C   0  0  0  0  0  0  0  0  0  0  0  0
   55.1820   29.6160   53.3880 N   0  0  0  0  0  0  0  0  0  0  0  0
   54.6480   30.2250   54.6190 C   0  0  0  0  0  0  0  0  0  0  0  0
   53.1210   30.2640   54.6110 C   0  0  0  0  0  0  0  0  0  0  0  0
   52.6310   30.9180   53.3550 C   0  0  0  0  0  0  0  0  0  0  0  0
   51.4960   31.7440   53.3710 C   0  0  0  0  0  0  0  0  0  0  0  0
   51.0270   32.3190   52.1860 C   0  0  0  0  0  0  0  0  0  0  0  0
   49.9090   33.1420   52.2120 O   0  0  0  0  0  0  0  0  0  0  0  0
   51.6830   32.0590   50.9760 C   0  0  0  0  0  0  0  0  0  0  0  0
   51.2170   32.6230   49.7950 O   0  0  0  0  0  0  0  0  0  0  0  0
   52.8040   31.2240   50.9530 C   0  0  0  0  0  0  0  0  0  0  0  0
   53.2900   30.6560   52.1420 C   0  0  0  0  0  0  0  0  0  0  0  0
   54.4670   29.7110   52.1010 C   0  0  0  0  0  0  0  0  0  0  0  0
   57.4163   29.8500   55.0878 H   0  0  0  0  0  0  0  0  0  0  0  0
   58.4884   28.8299   54.0454 H   0  0  0  0  0  0  0  0  0  0  0  0
   59.1519   31.6435   55.0241 H   0  0  0  0  0  0  0  0  0  0  0  0
   59.8508   33.7062   53.8171 H   0  0  0  0  0  0  0  0  0  0  0  0
   59.4390   34.3140   50.2870 H   0  0  0  0  0  0  0  0  0  0  0  0
   57.1373   31.4489   49.5286 H   0  0  0  0  0  0  0  0  0  0  0  0
   57.1012   33.2381   49.7780 H   0  0  0  0  0  0  0  0  0  0  0  0
   59.4194   30.5083   48.4189 H   0  0  0  0  0  0  0  0  0  0  0  0
   57.9352   31.1574   47.6173 H   0  0  0  0  0  0  0  0  0  0  0  0
   60.8058   32.0590   47.0769 H   0  0  0  0  0  0  0  0  0  0  0  0
   59.7759   30.9686   46.0292 H   0  0  0  0  0  0  0  0  0  0  0  0
   58.5216   34.8093   46.4444 H   0  0  0  0  0  0  0  0  0  0  0  0
   57.4454   33.3866   46.8357 H   0  0  0  0  0  0  0  0  0  0  0  0
   59.9456   34.2175   48.3714 H   0  0  0  0  0  0  0  0  0  0  0  0
   58.2203   34.4763   48.8744 H   0  0  0  0  0  0  0  0  0  0  0  0
   57.1652   30.2213   51.4526 H   0  0  0  0  0  0  0  0  0  0  0  0
   54.9854   29.6355   55.4842 H   0  0  0  0  0  0  0  0  0  0  0  0
   55.0181   31.2591   54.6795 H   0  0  0  0  0  0  0  0  0  0  0  0
   52.7302   29.2371   54.6632 H   0  0  0  0  0  0  0  0  0  0  0  0
   52.7703   30.8415   55.4790 H   0  0  0  0  0  0  0  0  0  0  0  0
   50.9738   31.9395   54.3192 H   0  0  0  0  0  0  0  0  0  0  0  0
   53.3080   31.0108   49.9988 H   0  0  0  0  0  0  0  0  0  0  0  0
   54.1018   28.7096   51.8293 H   0  0  0  0  0  0  0  0  0  0  0  0
   55.1780   30.1068   51.3608 H   0  0  0  0  0  0  0  0  0  0  0  0
  1  2  2  0
  2  3  1  0
  3  4  1  0
  4  5  2  0
  5  6  1  0
  6  7  2  0
  7  8  1  0
  7  9  1  0
  9 10  1  0
 10 11  1  0
 11 12  1  0
 12 13  1  0
 13 14  1  0
 14 15  1  0
 15 16  1  0
  9 17  2  0
  2 18  1  0
 18 19  1  0
 19 20  1  0
 20 21  1  0
 21 22  2  0
 22 23  1  0
 23 24  1  0
 23 25  2  0
 25 26  1  0
 25 27  1  0
 27 28  2  0
 28 29  1  0
 17  4  1  0
 29 18  1  0
 16 11  1  0
 28 21  1  0
  3 30  1  0
  3 31  1  0
  5 32  1  0
  6 33  1  0
  8 34  1  0
 10 35  1  0
 10 36  1  0
 12 37  1  0
 12 38  1  0
 13 39  1  0
 13 40  1  0
 15 41  1  0
 15 42  1  0
 16 43  1  0
 16 44  1  0
 17 45  1  0
 19 46  1  0
 19 47  1  0
 20 48  1  0
 20 49  1  0
 22 50  1  0
 27 51  1  0
 29 52  1  0
 29 53  1  0
M  CHG  2  24  -1  26  -1
M  END
>  <UniqueID>  (22) 
20

>  <SMILES>  (22) 
O=C(Cc1ccc(O)c(CN2CCOCC2)c1)N1CCc2cc([O-])c([O-])cc2C1

>  <Energy>  (22) 
72.82713332620123

>  <Genealogy>  (22) 
O=C(Cc1ccc(O)c(CN2CCOCC2)c1)N1CCc2cc([O-])c([O-])cc2C1 (protonated)
O=C(Cc1ccc(O)c(CN2CCOCC2)c1)N1CCc2cc([O-])c([O-])cc2C1 (3D coordinates assigned)
O=C(Cc1ccc(O)c(CN2CCOCC2)c1)N1CCc2cc([O-])c([O-])cc2C1 (nonaromatic ring conformer: 72.82713332620123 kcal/mol)

>  <smiles>  (22) 
O=C(Cc1ccc(O)c(CN2CCOCC2)c1)N1CCc2cc(O)c(O)cc2C1

>  <score_type>  (22) 
oracle

>  <origin>  (22) 
adg

>  <m_score__min__energy>  (22) 
-15.17

>  <m_primary>  (22) 
energy

$$$$
22:0
     RDKit          3D

 34 35  0  0  0  0  0  0  0  0999 V2000
   59.2210   32.0340   49.0280 H   0  0  0  0  0  0  0  0  0  0  0  0
   58.9150   32.9680   48.7820 O   0  0  0  0  0  0  0  0  0  0  0  0
   58.7010   33.3430   47.4560 C   0  0  0  0  0  0  0  0  0  0  0  0
   57.4030   33.2980   46.9240 C   0  0  0  0  0  0  0  0  0  0  0  0
   56.5725   32.9223   47.5396 H   0  0  0  0  0  0  0  0  0  0  0  0
   57.1600   33.7270   45.6190 C   0  0  0  0  0  0  0  0  0  0  0  0
   56.1407   33.6844   45.2076 H   0  0  0  0  0  0  0  0  0  0  0  0
   58.2080   34.2100   44.8350 C   0  0  0  0  0  0  0  0  0  0  0  0
   58.0121   34.5575   43.8099 H   0  0  0  0  0  0  0  0  0  0  0  0
   59.5060   34.2530   45.3500 C   0  0  0  0  0  0  0  0  0  0  0  0
   60.3259   34.6455   44.7305 H   0  0  0  0  0  0  0  0  0  0  0  0
   59.7730   33.7990   46.6530 C   0  0  0  0  0  0  0  0  0  0  0  0
   61.1640   33.8730   47.1500 C   0  0  0  0  0  0  0  0  0  0  0  0
   61.5610   34.8528   47.4540 H   0  0  0  0  0  0  0  0  0  0  0  0
   61.9620   32.8030   47.2470 C   0  0  0  0  0  0  0  0  0  0  0  0
   63.0208   32.9022   46.9656 H   0  0  0  0  0  0  0  0  0  0  0  0
   61.4690   31.4940   47.7190 C   0  0  0  0  0  0  0  0  0  0  0  0
   61.2570   31.3330   48.9490 O   0  0  0  0  0  0  0  0  0  0  0  0
   61.1730   30.4170   46.8170 N   0  0  0  0  0  0  0  0  0  0  0  0
   60.3300   29.4410   47.0120 C   0  0  0  0  0  0  0  0  0  0  0  0
   60.6748   28.4172   46.8049 H   0  0  0  0  0  0  0  0  0  0  0  0
   58.9380   29.6170   47.4940 C   0  0  0  0  0  0  0  0  0  0  0  0
   58.7040   30.3230   48.5100 O   0  0  0  0  0  0  0  0  0  0  0  0
   57.8240   29.1420   46.7240 N   0  0  0  0  0  0  0  0  0  0  0  0
   57.3690   29.5970   45.5900 C   0  0  0  0  0  0  0  0  0  0  0  0
   56.0850   29.3010   45.2460 N   0  0  0  0  0  0  0  0  0  0  0  0
   55.5290   29.7180   44.0770 C   0  0  0  0  0  0  0  0  0  0  0  0
   54.4851   29.4622   43.8426 H   0  0  0  0  0  0  0  0  0  0  0  0
   56.2820   30.4700   43.1750 C   0  0  0  0  0  0  0  0  0  0  0  0
   55.8361   30.8159   42.2308 H   0  0  0  0  0  0  0  0  0  0  0  0
   57.6060   30.7780   43.4840 C   0  0  0  0  0  0  0  0  0  0  0  0
   58.2133   31.3649   42.7792 H   0  0  0  0  0  0  0  0  0  0  0  0
   58.1610   30.3410   44.6890 C   0  0  0  0  0  0  0  0  0  0  0  0
   59.2075   30.5749   44.9340 H   0  0  0  0  0  0  0  0  0  0  0  0
  1  2  1  0
  2  3  1  0
  3  4  2  0
  4  5  1  0
  4  6  1  0
  6  7  1  0
  6  8  2  0
  8  9  1  0
  8 10  1  0
 10 11  1  0
 10 12  2  0
 12 13  1  0
 13 14  1  0
 13 15  2  0
 15 16  1  0
 15 17  1  0
 17 18  2  0
 17 19  1  0
 19 20  2  3
 20 21  1  0
 20 22  1  0
 22 23  2  0
 22 24  1  0
 24 25  2  0
 25 26  1  0
 26 27  1  0
 27 28  1  0
 27 29  2  0
 29 30  1  0
 29 31  1  0
 31 32  1  0
 31 33  2  0
 33 34  1  0
 12  3  1  0
 33 25  1  0
M  CHG  1  26  -1
M  END
>  <UniqueID>  (23) 
21

>  <SMILES>  (23) 
O=C(/C=C/c1ccccc1O)N=CC(=O)/N=c1\cccc[n-]1

>  <Energy>  (23) 
56.24569278115088

>  <Genealogy>  (23) 
O=C(C=Cc1ccccc1O)N=CC(=O)N=c1cccc[n-]1 (protonated)
O=C(/C=C/c1ccccc1O)N=CC(=O)/N=c1\cccc[n-]1 (cis-trans isomerization)
O=C(/C=C/c1ccccc1O)N=CC(=O)/N=c1\cccc[n-]1 (3D coordinates assigned)
O=C(/C=C/c1ccccc1O)N=CC(=O)/N=c1\cccc[n-]1 (optimized conformer: 56.24569278115088 kcal/mol)

>  <smiles>  (23) 
O=C(C=Cc1ccccc1O)N=CC(=O)N=c1cccc[nH]1

>  <score_type>  (23) 
oracle

>  <origin>  (23) 
adg

>  <m_score__min__energy>  (23) 
-10.050000000000001

>  <m_primary>  (23) 
energy

$$$$
23:0
     RDKit          3D

 46 49  0  0  0  0  0  0  0  0999 V2000
   57.9470   29.3050   44.1110 C   0  0  0  0  0  0  0  0  0  0  0  0
   58.0860   28.8960   45.3820 C   0  0  0  0  0  0  0  0  0  0  0  0
   57.9190   27.5930   45.8600 C   0  0  0  0  0  0  0  0  0  0  0  0
   57.5560   26.5050   45.1550 C   0  0  0  0  0  0  0  0  0  0  0  0
   56.8170   25.3630   45.7220 C   0  0  0  0  0  0  0  0  0  0  0  0
   57.4090   24.2210   46.1130 N   0  0  0  0  0  0  0  0  0  0  0  0
   56.3930   23.5020   46.6370 C   0  0  0  0  0  0  0  0  0  0  0  0
   56.5520   22.3460   47.1070 O   0  0  0  0  0  0  0  0  0  0  0  0
   55.1950   24.1250   46.6290 N   0  0  0  0  0  0  0  0  0  0  0  0
   55.4810   25.3060   46.0580 C   0  0  0  0  0  0  0  0  0  0  0  0
   54.5510   26.3250   45.8940 O   0  0  0  0  0  0  0  0  0  0  0  0
   58.1430   27.6500   47.2310 C   0  0  0  0  0  0  0  0  0  0  0  0
   58.4530   28.9620   47.5270 C   0  0  0  0  0  0  0  0  0  0  0  0
   58.7420   29.4800   48.9030 C   0  0  0  0  0  0  0  0  0  0  0  0
   58.4080   29.7210   46.4090 N   0  0  0  0  0  0  0  0  0  0  0  0
   58.6760   31.1310   46.3390 C   0  0  0  0  0  0  0  0  0  0  0  0
   59.8360   31.6490   46.9310 C   0  0  0  0  0  0  0  0  0  0  0  0
   60.1290   33.0340   46.8860 C   0  0  0  0  0  0  0  0  0  0  0  0
   61.3400   33.5720   47.5000 N   0  0  0  0  0  0  0  0  0  0  0  0
   61.3030   34.0100   48.9130 C   0  0  0  0  0  0  0  0  0  0  0  0
   62.6190   34.6230   49.4000 C   0  0  0  0  0  0  0  0  0  0  0  0
   63.7260   33.9430   48.8600 O   0  0  0  0  0  0  0  0  0  0  0  0
   63.7770   34.2070   47.4780 C   0  0  0  0  0  0  0  0  0  0  0  0
   62.6120   33.5340   46.7480 C   0  0  0  0  0  0  0  0  0  0  0  0
   59.2000   33.8780   46.2310 C   0  0  0  0  0  0  0  0  0  0  0  0
   58.0450   33.3580   45.6400 C   0  0  0  0  0  0  0  0  0  0  0  0
   57.7830   31.9900   45.6870 C   0  0  0  0  0  0  0  0  0  0  0  0
   56.6390   31.4890   45.0780 O   0  0  0  0  0  0  0  0  0  0  0  0
   58.1048   30.3627   43.8532 H   0  0  0  0  0  0  0  0  0  0  0  0
   57.6753   28.5825   43.3273 H   0  0  0  0  0  0  0  0  0  0  0  0
   57.8278   26.4661   44.0898 H   0  0  0  0  0  0  0  0  0  0  0  0
   58.0845   26.8124   47.9416 H   0  0  0  0  0  0  0  0  0  0  0  0
   58.3487   28.7751   49.6503 H   0  0  0  0  0  0  0  0  0  0  0  0
   59.8291   29.5850   49.0344 H   0  0  0  0  0  0  0  0  0  0  0  0
   58.2604   30.4602   49.0344 H   0  0  0  0  0  0  0  0  0  0  0  0
   60.5324   30.9667   47.4404 H   0  0  0  0  0  0  0  0  0  0  0  0
   60.5075   34.7617   49.0232 H   0  0  0  0  0  0  0  0  0  0  0  0
   61.1195   33.1136   49.5236 H   0  0  0  0  0  0  0  0  0  0  0  0
   62.6598   35.6779   49.0909 H   0  0  0  0  0  0  0  0  0  0  0  0
   62.6586   34.5390   50.4961 H   0  0  0  0  0  0  0  0  0  0  0  0
   63.7227   35.2938   47.3171 H   0  0  0  0  0  0  0  0  0  0  0  0
   64.7200   33.8051   47.0788 H   0  0  0  0  0  0  0  0  0  0  0  0
   62.4624   34.0460   45.7860 H   0  0  0  0  0  0  0  0  0  0  0  0
   62.8799   32.4746   46.6216 H   0  0  0  0  0  0  0  0  0  0  0  0
   59.3902   34.9605   46.1865 H   0  0  0  0  0  0  0  0  0  0  0  0
   57.3384   34.0328   45.1346 H   0  0  0  0  0  0  0  0  0  0  0  0
  1  2  2  0
  2  3  1  0
  3  4  2  3
  4  5  1  0
  5  6  1  0
  6  7  1  0
  7  8  2  0
  7  9  1  0
  9 10  1  0
 10 11  1  0
  3 12  1  0
 12 13  2  0
 13 14  1  0
 13 15  1  0
 15 16  1  0
 16 17  2  0
 17 18  1  0
 18 19  1  0
 19 20  1  0
 20 21  1  0
 21 22  1  0
 22 23  1  0
 23 24  1  0
 18 25  2  0
 25 26  1  0
 26 27  2  0
 27 28  1  0
 15  2  1  0
 27 16  1  0
 10  5  2  0
 24 19  1  0
  1 29  1  0
  1 30  1  0
  4 31  1  0
 12 32  1  0
 14 33  1  0
 14 34  1  0
 14 35  1  0
 17 36  1  0
 20 37  1  0
 20 38  1  0
 21 39  1  0
 21 40  1  0
 23 41  1  0
 23 42  1  0
 24 43  1  0
 24 44  1  0
 25 45  1  0
 26 46  1  0
M  CHG  4   6  -1   9  -1  11  -1  28  -1
M  END
>  <UniqueID>  (24) 
22

>  <SMILES>  (24) 
C=c1c(=Cc2[n-]c(=O)[n-]c2[O-])cc(C)n1-c1cc(N2CCOCC2)ccc1[O-]

>  <Energy>  (24) 
128.5546102670638

>  <Genealogy>  (24) 
C=c1c(=Cc2[n-]c(=O)[n-]c2[O-])cc(C)n1-c1cc(N2CCOCC2)ccc1[O-] (protonated)
C=c1c(=Cc2[n-]c(=O)[n-]c2[O-])cc(C)n1-c1cc(N2CCOCC2)ccc1[O-] (3D coordinates assigned)
C=c1c(=Cc2[n-]c(=O)[n-]c2[O-])cc(C)n1-c1cc(N2CCOCC2)ccc1[O-] (nonaromatic ring conformer: 128.5546102670638 kcal/mol)

>  <smiles>  (24) 
C=c1c(=Cc2[nH]c(=O)[nH]c2O)cc(C)n1-c1cc(N2CCOCC2)ccc1O

>  <score_type>  (24) 
oracle

>  <origin>  (24) 
adg

>  <m_score__min__energy>  (24) 
-16.949999999999999

>  <m_primary>  (24) 
energy

$$$$
24:0
     RDKit          3D

 42 45  0  0  0  0  0  0  0  0999 V2000
   52.6444   22.7071   45.2854 H   0  0  0  0  0  0  0  0  0  0  0  0
   53.6460   23.0770   45.5500 C   0  0  0  0  0  0  0  0  0  0  0  0
   53.8870   24.4510   45.6090 C   0  0  0  0  0  0  0  0  0  0  0  0
   53.0786   25.1582   45.3715 H   0  0  0  0  0  0  0  0  0  0  0  0
   55.1490   24.9340   45.9680 C   0  0  0  0  0  0  0  0  0  0  0  0
   55.3590   26.3560   45.9930 N   0  0  0  0  0  0  0  0  0  0  0  0
   56.5020   26.9700   46.0820 C   0  0  0  0  0  0  0  0  0  0  0  0
   57.3570   26.8410   47.1150 N   0  0  0  0  0  0  0  0  0  0  0  0
   58.3690   27.6520   46.8600 N   0  0  0  0  0  0  0  0  0  0  0  0
   58.1000   28.2450   45.6820 C   0  0  0  0  0  0  0  0  0  0  0  0
   58.9700   29.2930   45.0660 C   0  0  0  0  0  0  0  0  0  0  0  0
   59.1008   29.0754   43.9957 H   0  0  0  0  0  0  0  0  0  0  0  0
   59.9486   29.2920   45.5683 H   0  0  0  0  0  0  0  0  0  0  0  0
   58.3350   30.6430   45.2250 C   0  0  0  0  0  0  0  0  0  0  0  0
   57.2410   31.1550   44.5260 C   0  0  0  0  0  0  0  0  0  0  0  0
   56.4320   30.4150   43.5080 C   0  0  0  0  0  0  0  0  0  0  0  0
   55.7130   29.7574   44.0185 H   0  0  0  0  0  0  0  0  0  0  0  0
   55.8879   31.1345   42.8785 H   0  0  0  0  0  0  0  0  0  0  0  0
   57.1003   29.8091   42.8785 H   0  0  0  0  0  0  0  0  0  0  0  0
   57.0030   32.4400   44.8810 N   0  0  0  0  0  0  0  0  0  0  0  0
   56.2530   33.0660   44.5150 H   0  0  0  0  0  0  0  0  0  0  0  0
   57.9460   32.7500   45.7870 C   0  0  0  0  0  0  0  0  0  0  0  0
   58.1290   33.9750   46.4290 C   0  0  0  0  0  0  0  0  0  0  0  0
   57.4550   34.8227   46.2363 H   0  0  0  0  0  0  0  0  0  0  0  0
   59.2020   34.0920   47.3300 C   0  0  0  0  0  0  0  0  0  0  0  0
   59.3727   35.0432   47.8555 H   0  0  0  0  0  0  0  0  0  0  0  0
   60.0620   32.9970   47.5650 C   0  0  0  0  0  0  0  0  0  0  0  0
   60.8985   33.1017   48.2717 H   0  0  0  0  0  0  0  0  0  0  0  0
   59.8570   31.7730   46.9020 C   0  0  0  0  0  0  0  0  0  0  0  0
   60.5234   30.9149   47.0739 H   0  0  0  0  0  0  0  0  0  0  0  0
   58.7800   31.6840   46.0190 C   0  0  0  0  0  0  0  0  0  0  0  0
   56.9190   27.8570   45.1600 N   0  0  0  0  0  0  0  0  0  0  0  0
   56.1920   24.0200   46.2140 C   0  0  0  0  0  0  0  0  0  0  0  0
   57.1962   24.3938   46.4625 H   0  0  0  0  0  0  0  0  0  0  0  0
   55.9620   22.6320   46.1450 C   0  0  0  0  0  0  0  0  0  0  0  0
   57.0690   21.6840   46.4230 C   0  0  0  0  0  0  0  0  0  0  0  0
   57.3780   21.4180   47.6160 O   0  0  0  0  0  0  0  0  0  0  0  0
   57.8100   21.0700   45.3650 N   0  0  0  0  0  0  0  0  0  0  0  0
   58.5450   20.3630   45.5880 H   0  0  0  0  0  0  0  0  0  0  0  0
   57.7030   21.3720   44.3720 H   0  0  0  0  0  0  0  0  0  0  0  0
   54.6730   22.1700   45.8260 C   0  0  0  0  0  0  0  0  0  0  0  0
   54.4717   21.0891   45.7935 H   0  0  0  0  0  0  0  0  0  0  0  0
  1  2  1  0
  2  3  2  0
  3  4  1  0
  3  5  1  0
  5  6  1  0
  6  7  2  0
  7  8  1  0
  8  9  1  0
  9 10  2  0
 10 11  1  0
 11 12  1  0
 11 13  1  0
 11 14  1  0
 14 15  2  0
 15 16  1  0
 16 17  1  0
 16 18  1  0
 16 19  1  0
 15 20  1  0
 20 21  1  0
 20 22  1  0
 22 23  2  0
 23 24  1  0
 23 25  1  0
 25 26  1  0
 25 27  2  0
 27 28  1  0
 27 29  1  0
 29 30  1  0
 29 31  2  0
 10 32  1  0
  5 33  2  0
 33 34  1  0
 33 35  1  0
 35 36  1  0
 36 37  2  0
 36 38  1  0
 38 39  1  0
 38 40  1  0
 35 41  2  0
 41 42  1  0
 41  2  1  0
 32  7  1  0
 31 14  1  0
 31 22  1  0
M  CHG  2   8  -1  32  -1
M  END
>  <UniqueID>  (25) 
23

>  <SMILES>  (25) 
Cc1[nH]c2ccccc2c1Cc1n[n-]/c(=N\c2cccc(C(N)=O)c2)[n-]1

>  <Energy>  (25) 
114.93580630595211

>  <Genealogy>  (25) 
Cc1[nH]c2ccccc2c1Cc1n[n-]c(=Nc2cccc(C(N)=O)c2)[n-]1 (protonated)
Cc1[nH]c2ccccc2c1Cc1n[n-]/c(=N\c2cccc(C(N)=O)c2)[n-]1 (cis-trans isomerization)
Cc1[nH]c2ccccc2c1Cc1n[n-]/c(=N\c2cccc(C(N)=O)c2)[n-]1 (3D coordinates assigned)
Cc1[nH]c2ccccc2c1Cc1n[n-]/c(=N\c2cccc(C(N)=O)c2)[n-]1 (optimized conformer: 114.93580630595211 kcal/mol)

>  <smiles>  (25) 
Cc1[nH]c2ccccc2c1Cc1n[nH]c(=Nc2cccc(C(N)=O)c2)[nH]1

>  <score_type>  (25) 
oracle

>  <origin>  (25) 
adg

>  <m_score__min__energy>  (25) 
-12.83

>  <m_primary>  (25) 
energy

$$$$
25:0
     RDKit          3D

 44 47  0  0  0  0  0  0  0  0999 V2000
   60.1172   34.2285   52.5483 H   0  0  0  0  0  0  0  0  0  0  0  0
   59.3380   33.4640   52.4130 C   0  0  0  0  0  0  0  0  0  0  0  0
   59.6870   32.1810   52.1370 N   0  0  0  0  0  0  0  0  0  0  0  0
   58.7620   31.1980   51.9650 C   0  0  0  0  0  0  0  0  0  0  0  0
   59.3560   29.5450   51.5630 S   0  0  0  0  0  0  0  0  0  0  0  0
   59.2320   29.8280   49.8010 C   0  0  0  0  0  0  0  0  0  0  0  0
   59.6120   31.2750   49.0410 S   0  0  0  0  0  0  0  0  0  0  0  0
   59.4650   30.6000   47.5010 C   0  0  0  0  0  0  0  0  0  0  0  0
   59.8010   31.1750   46.3840 N   0  0  0  0  0  0  0  0  0  0  0  0
   58.9560   32.0140   45.5800 C   0  0  0  0  0  0  0  0  0  0  0  0
   59.0770   33.2690   45.6270 O   0  0  0  0  0  0  0  0  0  0  0  0
   57.9450   31.4030   44.6870 C   0  0  0  0  0  0  0  0  0  0  0  0
   57.9410   31.6930   43.3090 C   0  0  0  0  0  0  0  0  0  0  0  0
   58.6696   32.4079   42.8991 H   0  0  0  0  0  0  0  0  0  0  0  0
   57.0180   31.0790   42.4590 C   0  0  0  0  0  0  0  0  0  0  0  0
   57.0239   31.3106   41.3837 H   0  0  0  0  0  0  0  0  0  0  0  0
   56.0880   30.1720   42.9710 C   0  0  0  0  0  0  0  0  0  0  0  0
   55.3618   29.6907   42.2995 H   0  0  0  0  0  0  0  0  0  0  0  0
   56.0800   29.8760   44.3360 C   0  0  0  0  0  0  0  0  0  0  0  0
   55.1570   28.9700   44.8440 O   0  0  0  0  0  0  0  0  0  0  0  0
   57.0020   30.4870   45.1920 C   0  0  0  0  0  0  0  0  0  0  0  0
   56.9905   30.2506   46.2662 H   0  0  0  0  0  0  0  0  0  0  0  0
   59.1070   29.2990   47.5540 N   0  0  0  0  0  0  0  0  0  0  0  0
   58.9660   28.8660   48.8360 C   0  0  0  0  0  0  0  0  0  0  0  0
   58.6659   27.8380   49.0873 H   0  0  0  0  0  0  0  0  0  0  0  0
   57.3840   31.5100   52.0620 C   0  0  0  0  0  0  0  0  0  0  0  0
   56.3320   30.4920   51.8630 C   0  0  0  0  0  0  0  0  0  0  0  0
   56.5320   29.3180   52.2710 O   0  0  0  0  0  0  0  0  0  0  0  0
   55.0530   30.8040   51.2850 N   0  0  0  0  0  0  0  0  0  0  0  0
   53.7460   30.7710   51.8850 C   0  0  0  0  0  0  0  0  0  0  0  0
   53.4110   29.9010   52.9420 C   0  0  0  0  0  0  0  0  0  0  0  0
   54.1484   29.1688   53.3027 H   0  0  0  0  0  0  0  0  0  0  0  0
   52.1450   29.9640   53.5350 C   0  0  0  0  0  0  0  0  0  0  0  0
   51.8877   29.2754   54.3533 H   0  0  0  0  0  0  0  0  0  0  0  0
   51.2080   30.8980   53.0910 C   0  0  0  0  0  0  0  0  0  0  0  0
   50.2125   30.9437   53.5568 H   0  0  0  0  0  0  0  0  0  0  0  0
   51.5360   31.7750   52.0540 C   0  0  0  0  0  0  0  0  0  0  0  0
   50.6080   32.7160   51.6220 O   0  0  0  0  0  0  0  0  0  0  0  0
   52.7980   31.7110   51.4550 C   0  0  0  0  0  0  0  0  0  0  0  0
   53.0496   32.4044   50.6389 H   0  0  0  0  0  0  0  0  0  0  0  0
   57.0160   32.8340   52.3500 C   0  0  0  0  0  0  0  0  0  0  0  0
   55.9523   33.1000   52.4379 H   0  0  0  0  0  0  0  0  0  0  0  0
   57.9930   33.8130   52.5250 C   0  0  0  0  0  0  0  0  0  0  0  0
   57.7054   34.8508   52.7493 H   0  0  0  0  0  0  0  0  0  0  0  0
  1  2  1  0
  2  3  2  0
  3  4  1  0
  4  5  1  0
  5  6  1  0
  6  7  1  0
  7  8  1  0
  8  9  2  0
  9 10  1  0
 10 11  2  0
 10 12  1  0
 12 13  2  0
 13 14  1  0
 13 15  1  0
 15 16  1  0
 15 17  2  0
 17 18  1  0
 17 19  1  0
 19 20  1  0
 19 21  2  0
 21 22  1  0
  8 23  1  0
 23 24  1  0
 24 25  1  0
  4 26  2  0
 26 27  1  0
 27 28  2  0
 27 29  1  0
 29 30  1  0
 30 31  2  0
 31 32  1  0
 31 33  1  0
 33 34  1  0
 33 35  2  0
 35 36  1  0
 35 37  1  0
 37 38  1  0
 37 39  2  0
 39 40  1  0
 26 41  1  0
 41 42  1  0
 41 43  2  0
 43 44  1  0
 43  2  1  0
 24  6  2  0
 39 30  1  0
 21 12  1  0
M  CHG  4  20  -1  23  -1  29  -1  38  -1
M  END
>  <UniqueID>  (26) 
24

>  <SMILES>  (26) 
O=C(/N=c1/[n-]cc(Sc2ncccc2C(=O)[N-]c2cccc([O-])c2)s1)c1cccc([O-])c1

>  <Energy>  (26) 
87.15773672388978

>  <Genealogy>  (26) 
O=C(N=c1[n-]cc(Sc2ncccc2C(=O)[N-]c2cccc([O-])c2)s1)c1cccc([O-])c1 (protonated)
O=C(/N=c1/[n-]cc(Sc2ncccc2C(=O)[N-]c2cccc([O-])c2)s1)c1cccc([O-])c1 (cis-trans isomerization)
O=C(/N=c1/[n-]cc(Sc2ncccc2C(=O)[N-]c2cccc([O-])c2)s1)c1cccc([O-])c1 (3D coordinates assigned)
O=C(/N=c1/[n-]cc(Sc2ncccc2C(=O)[N-]c2cccc([O-])c2)s1)c1cccc([O-])c1 (optimized conformer: 87.15773672388978 kcal/mol)

>  <smiles>  (26) 
O=C(N=c1[nH]cc(Sc2ncccc2C(=O)Nc2cccc(O)c2)s1)c1cccc(O)c1

>  <score_type>  (26) 
oracle

>  <origin>  (26) 
adg

>  <m_score__min__energy>  (26) 
-19.760000000000002

>  <m_primary>  (26) 
energy

$$$$
26:0
     RDKit          3D

 52 55  0  0  0  0  0  0  0  0999 V2000
   58.0152   34.1261   46.5505 H   0  0  0  0  0  0  0  0  0  0  0  0
   57.8750   33.5190   45.6440 C   0  0  0  0  0  0  0  0  0  0  0  0
   56.9360   32.5370   45.6220 N   0  0  0  0  0  0  0  0  0  0  0  0
   56.7260   31.7620   44.5200 C   0  0  0  0  0  0  0  0  0  0  0  0
   55.8150   30.8320   44.5170 N   0  0  0  0  0  0  0  0  0  0  0  0
   56.0670   29.4150   44.2580 C   0  0  0  0  0  0  0  0  0  0  0  0
   56.5543   29.3065   43.2778 H   0  0  0  0  0  0  0  0  0  0  0  0
   55.1090   28.8745   44.2649 H   0  0  0  0  0  0  0  0  0  0  0  0
   56.9600   28.8400   45.3220 C   0  0  0  0  0  0  0  0  0  0  0  0
   58.0500   29.5490   45.7200 N   0  0  0  0  0  0  0  0  0  0  0  0
   58.8740   29.1350   46.7230 C   0  0  0  0  0  0  0  0  0  0  0  0
   60.0160   29.9960   47.1170 C   0  0  0  0  0  0  0  0  0  0  0  0
   60.7740   29.7260   48.2720 C   0  0  0  0  0  0  0  0  0  0  0  0
   60.5573   28.8281   48.8693 H   0  0  0  0  0  0  0  0  0  0  0  0
   61.8000   30.5900   48.6660 C   0  0  0  0  0  0  0  0  0  0  0  0
   62.3862   30.3670   49.5697 H   0  0  0  0  0  0  0  0  0  0  0  0
   62.0860   31.7400   47.9150 C   0  0  0  0  0  0  0  0  0  0  0  0
   63.1350   32.7180   48.3760 C   0  0  0  0  0  0  0  0  0  0  0  0
   63.7228   32.2646   49.1878 H   0  0  0  0  0  0  0  0  0  0  0  0
   63.7923   32.9651   47.5293 H   0  0  0  0  0  0  0  0  0  0  0  0
   62.5010   33.9480   48.8650 N   0  0  0  0  0  0  0  0  0  0  0  0
   63.2010   34.7230   48.7980 H   0  0  0  0  0  0  0  0  0  0  0  0
   62.0950   33.8260   50.2720 C   0  0  0  0  0  0  0  0  0  0  0  0
   62.7656   33.1240   50.7891 H   0  0  0  0  0  0  0  0  0  0  0  0
   62.1531   34.8098   50.7606 H   0  0  0  0  0  0  0  0  0  0  0  0
   60.6850   33.3130   50.3350 C   0  0  0  0  0  0  0  0  0  0  0  0
   60.1590   32.8700   51.5580 C   0  0  0  0  0  0  0  0  0  0  0  0
   60.7639   32.9263   52.4750 H   0  0  0  0  0  0  0  0  0  0  0  0
   58.8610   32.3570   51.6010 C   0  0  0  0  0  0  0  0  0  0  0  0
   58.4348   32.0126   52.5548 H   0  0  0  0  0  0  0  0  0  0  0  0
   58.1070   32.2830   50.4300 C   0  0  0  0  0  0  0  0  0  0  0  0
   57.0819   31.8847   50.4542 H   0  0  0  0  0  0  0  0  0  0  0  0
   58.6650   32.7190   49.2270 C   0  0  0  0  0  0  0  0  0  0  0  0
   58.0781   32.6624   48.2984 H   0  0  0  0  0  0  0  0  0  0  0  0
   59.9330   33.2140   49.1990 N   0  0  0  0  0  0  0  0  0  0  0  0
   60.3290   33.5230   48.2830 H   0  0  0  0  0  0  0  0  0  0  0  0
   61.3420   32.0060   46.7570 C   0  0  0  0  0  0  0  0  0  0  0  0
   61.5693   32.8973   46.1537 H   0  0  0  0  0  0  0  0  0  0  0  0
   60.3140   31.1460   46.3650 C   0  0  0  0  0  0  0  0  0  0  0  0
   59.7317   31.3705   45.4591 H   0  0  0  0  0  0  0  0  0  0  0  0
   58.6010   27.9160   47.3670 C   0  0  0  0  0  0  0  0  0  0  0  0
   59.2638   27.5515   48.1657 H   0  0  0  0  0  0  0  0  0  0  0  0
   57.4840   27.1710   46.9870 C   0  0  0  0  0  0  0  0  0  0  0  0
   57.2626   26.2178   47.4893 H   0  0  0  0  0  0  0  0  0  0  0  0
   56.6470   27.6340   45.9700 C   0  0  0  0  0  0  0  0  0  0  0  0
   55.5200   26.9000   45.6150 O   0  0  0  0  0  0  0  0  0  0  0  0
   57.5010   31.9700   43.3720 C   0  0  0  0  0  0  0  0  0  0  0  0
   57.3468   31.3480   42.4779 H   0  0  0  0  0  0  0  0  0  0  0  0
   58.4720   32.9750   43.3730 C   0  0  0  0  0  0  0  0  0  0  0  0
   59.0853   33.1499   42.4767 H   0  0  0  0  0  0  0  0  0  0  0  0
   58.6620   33.7570   44.5150 C   0  0  0  0  0  0  0  0  0  0  0  0
   59.6000   34.7360   44.5260 F   0  0  0  0  0  0  0  0  0  0  0  0
  1  2  1  0
  2  3  1  0
  3  4  1  0
  4  5  2  0
  5  6  1  0
  6  7  1  0
  6  8  1  0
  6  9  1  0
  9 10  2  0
 10 11  1  0
 11 12  1  0
 12 13  2  0
 13 14  1  0
 13 15  1  0
 15 16  1  0
 15 17  2  0
 17 18  1  0
 18 19  1  0
 18 20  1  0
 18 21  1  0
 21 22  1  0
 21 23  1  0
 23 24  1  0
 23 25  1  0
 23 26  1  0
 26 27  2  0
 27 28  1  0
 27 29  1  0
 29 30  1  0
 29 31  2  0
 31 32  1  0
 31 33  1  0
 33 34  1  0
 33 35  2  0
 35 36  1  0
 17 37  1  0
 37 38  1  0
 37 39  2  0
 39 40  1  0
 11 41  2  0
 41 42  1  0
 41 43  1  0
 43 44  1  0
 43 45  2  0
 45 46  1  0
  4 47  1  0
 47 48  1  0
 47 49  2  0
 49 50  1  0
 49 51  1  0
 51 52  1  0
 51  2  2  0
 45  9  1  0
 39 12  1  0
 35 26  1  0
M  CHG  3   3  -1  35   1  46  -1
M  END
>  <UniqueID>  (27) 
25

>  <SMILES>  (27) 
[O-]c1ccc(-c2ccc(CNCc3cccc[nH+]3)cc2)nc1C/N=c1/ccc(F)c[n-]1

>  <Energy>  (27) 
58.225867807129944

>  <Genealogy>  (27) 
[O-]c1ccc(-c2ccc(CNCc3cccc[nH+]3)cc2)nc1CN=c1ccc(F)c[n-]1 (protonated)
[O-]c1ccc(-c2ccc(CNCc3cccc[nH+]3)cc2)nc1C/N=c1/ccc(F)c[n-]1 (cis-trans isomerization)
[O-]c1ccc(-c2ccc(CNCc3cccc[nH+]3)cc2)nc1C/N=c1/ccc(F)c[n-]1 (3D coordinates assigned)
[O-]c1ccc(-c2ccc(CNCc3cccc[nH+]3)cc2)nc1C/N=c1/ccc(F)c[n-]1 (optimized conformer: 58.225867807129944 kcal/mol)

>  <smiles>  (27) 
Oc1ccc(-c2ccc(CNCc3ccccn3)cc2)nc1CN=c1ccc(F)c[nH]1

>  <score_type>  (27) 
oracle

>  <origin>  (27) 
adg

>  <m_score__min__energy>  (27) 
-11.199999999999999

>  <m_primary>  (27) 
energy

$$$$
27:0
     RDKit          3D

 67 72  0  0  0  0  0  0  0  0999 V2000
   59.1336   29.1156   51.5841 H   0  0  0  0  0  0  0  0  0  0  0  0
   58.3170   29.8010   51.8550 C   0  0  0  0  0  0  0  0  0  0  0  0
   57.0420   29.3400   51.9540 N   0  0  0  0  0  0  0  0  0  0  0  0
   56.0150   30.1660   52.3090 C   0  0  0  0  0  0  0  0  0  0  0  0
   54.7870   29.7380   52.3480 N   0  0  0  0  0  0  0  0  0  0  0  0
   53.5960   30.5330   52.2320 C   0  0  0  0  0  0  0  0  0  0  0  0
   52.7650   30.6670   53.3520 C   0  0  0  0  0  0  0  0  0  0  0  0
   53.0455   30.1869   54.3011 H   0  0  0  0  0  0  0  0  0  0  0  0
   51.5800   31.4080   53.2710 C   0  0  0  0  0  0  0  0  0  0  0  0
   50.9420   31.5258   54.1593 H   0  0  0  0  0  0  0  0  0  0  0  0
   51.2090   31.9980   52.0590 C   0  0  0  0  0  0  0  0  0  0  0  0
   50.2810   32.5852   51.9956 H   0  0  0  0  0  0  0  0  0  0  0  0
   52.0150   31.8430   50.9280 C   0  0  0  0  0  0  0  0  0  0  0  0
   51.7159   32.3007   49.9735 H   0  0  0  0  0  0  0  0  0  0  0  0
   53.2010   31.1070   51.0080 C   0  0  0  0  0  0  0  0  0  0  0  0
   53.8270   30.9759   50.1130 H   0  0  0  0  0  0  0  0  0  0  0  0
   56.2670   31.4790   52.5620 N   0  0  0  0  0  0  0  0  0  0  0  0
   57.5260   31.9850   52.4600 C   0  0  0  0  0  0  0  0  0  0  0  0
   58.5840   31.1490   52.0990 C   0  0  0  0  0  0  0  0  0  0  0  0
   59.9450   31.7520   51.9180 C   0  0  0  0  0  0  0  0  0  0  0  0
   60.4225   31.8891   52.8994 H   0  0  0  0  0  0  0  0  0  0  0  0
   60.5711   31.0866   51.3055 H   0  0  0  0  0  0  0  0  0  0  0  0
   59.7990   33.0560   51.2520 N   0  0  0  0  0  0  0  0  0  0  0  0
   60.5680   33.3420   50.0740 C   0  0  0  0  0  0  0  0  0  0  0  0
   61.7870   34.0240   50.2000 C   0  0  0  0  0  0  0  0  0  0  0  0
   62.1269   34.3588   51.1912 H   0  0  0  0  0  0  0  0  0  0  0  0
   62.5710   34.2800   49.0740 C   0  0  0  0  0  0  0  0  0  0  0  0
   63.5194   34.8270   49.1800 H   0  0  0  0  0  0  0  0  0  0  0  0
   62.1570   33.8450   47.8140 C   0  0  0  0  0  0  0  0  0  0  0  0
   62.7879   34.0354   46.9333 H   0  0  0  0  0  0  0  0  0  0  0  0
   60.9390   33.1660   47.6680 C   0  0  0  0  0  0  0  0  0  0  0  0
   60.5570   32.6590   46.3820 N   0  0  0  0  0  0  0  0  0  0  0  0
   60.8130   31.6710   46.1710 H   0  0  0  0  0  0  0  0  0  0  0  0
   59.5530   33.3080   45.5870 C   0  0  0  0  0  0  0  0  0  0  0  0
   59.4000   34.5580   45.6740 O   0  0  0  0  0  0  0  0  0  0  0  0
   58.6650   32.5240   44.6920 C   0  0  0  0  0  0  0  0  0  0  0  0
   58.4030   32.9710   43.3820 C   0  0  0  0  0  0  0  0  0  0  0  0
   58.8891   33.8845   43.0088 H   0  0  0  0  0  0  0  0  0  0  0  0
   57.5290   32.2610   42.5530 C   0  0  0  0  0  0  0  0  0  0  0  0
   57.3487   32.6065   41.5243 H   0  0  0  0  0  0  0  0  0  0  0  0
   56.8840   31.1160   43.0240 C   0  0  0  0  0  0  0  0  0  0  0  0
   56.1871   30.5715   42.3700 H   0  0  0  0  0  0  0  0  0  0  0  0
   57.1220   30.6560   44.3320 C   0  0  0  0  0  0  0  0  0  0  0  0
   56.4170   29.4620   44.8560 C   0  0  0  0  0  0  0  0  0  0  0  0
   55.1540   29.4200   44.8590 O   0  0  0  0  0  0  0  0  0  0  0  0
   57.1670   28.3510   45.3670 N   0  0  0  0  0  0  0  0  0  0  0  0
   58.1060   28.4680   46.4770 C   0  0  0  0  0  0  0  0  0  0  0  0
   57.4738   29.0663   47.1496 H   0  0  0  0  0  0  0  0  0  0  0  0
   59.5510   28.5190   46.0090 C   0  0  0  0  0  0  0  0  0  0  0  0
   59.7812   28.5332   44.9335 H   0  0  0  0  0  0  0  0  0  0  0  0
   60.4091   29.1800   46.2006 H   0  0  0  0  0  0  0  0  0  0  0  0
   58.9980   27.2540   46.6540 C   0  0  0  0  0  0  0  0  0  0  0  0
   58.8296   26.3541   46.0442 H   0  0  0  0  0  0  0  0  0  0  0  0
   59.2922   26.6222   47.5050 H   0  0  0  0  0  0  0  0  0  0  0  0
   58.0220   31.3600   45.1530 C   0  0  0  0  0  0  0  0  0  0  0  0
   58.2261   30.9952   46.1705 H   0  0  0  0  0  0  0  0  0  0  0  0
   60.1140   32.9490   48.7920 C   0  0  0  0  0  0  0  0  0  0  0  0
   58.7450   32.3370   48.6120 C   0  0  0  0  0  0  0  0  0  0  0  0
   58.2998   32.1380   49.5980 H   0  0  0  0  0  0  0  0  0  0  0  0
   58.1025   33.0336   48.0535 H   0  0  0  0  0  0  0  0  0  0  0  0
   58.8356   31.3937   48.0535 H   0  0  0  0  0  0  0  0  0  0  0  0
   58.7650   34.0210   51.6800 C   0  0  0  0  0  0  0  0  0  0  0  0
   59.2629   34.9034   52.1084 H   0  0  0  0  0  0  0  0  0  0  0  0
   58.1667   34.2814   50.7945 H   0  0  0  0  0  0  0  0  0  0  0  0
   57.8040   33.4350   52.7360 C   0  0  0  0  0  0  0  0  0  0  0  0
   58.2610   33.5311   53.7319 H   0  0  0  0  0  0  0  0  0  0  0  0
   56.8549   33.9895   52.6944 H   0  0  0  0  0  0  0  0  0  0  0  0
  1  2  1  0
  2  3  2  0
  3  4  1  0
  4  5  2  0
  5  6  1  0
  6  7  2  0
  7  8  1  0
  7  9  1  0
  9 10  1  0
  9 11  2  0
 11 12  1  0
 11 13  1  0
 13 14  1  0
 13 15  2  0
 15 16  1  0
  4 17  1  0
 17 18  1  0
 18 19  2  0
 19 20  1  0
 20 21  1  0
 20 22  1  0
 20 23  1  0
 23 24  1  0
 24 25  2  0
 25 26  1  0
 25 27  1  0
 27 28  1  0
 27 29  2  0
 29 30  1  0
 29 31  1  0
 31 32  1  0
 32 33  1  0
 32 34  1  0
 34 35  2  0
 34 36  1  0
 36 37  2  0
 37 38  1  0
 37 39  1  0
 39 40  1  0
 39 41  2  0
 41 42  1  0
 41 43  1  0
 43 44  1  0
 44 45  2  0
 44 46  1  0
 46 47  1  0
 47 48  1  0
 47 49  1  0
 49 50  1  0
 49 51  1  0
 49 52  1  0
 52 53  1  0
 52 54  1  0
 43 55  2  0
 55 56  1  0
 31 57  2  0
 57 58  1  0
 58 59  1  0
 58 60  1  0
 58 61  1  0
 23 62  1  0
 62 63  1  0
 62 64  1  0
 62 65  1  0
 65 66  1  0
 65 67  1  0
 19  2  1  0
 57 24  1  0
 15  6  1  0
 65 18  1  0
 55 36  1  0
 52 47  1  0
M  CHG  2  17  -1  46  -1
M  END
>  <UniqueID>  (28) 
26

>  <SMILES>  (28) 
Cc1c(NC(=O)c2cccc(C(=O)[N-]C3CC3)c2)cccc1N1CCc2[n-]/c(=N/c3ccccc3)ncc2C1

>  <Energy>  (28) 
362.6299964729592

>  <Genealogy>  (28) 
Cc1c(NC(=O)c2cccc(C(=O)[N-]C3CC3)c2)cccc1N1CCc2[n-]c(=Nc3ccccc3)ncc2C1 (protonated)
Cc1c(NC(=O)c2cccc(C(=O)[N-]C3CC3)c2)cccc1N1CCc2[n-]/c(=N/c3ccccc3)ncc2C1 (cis-trans isomerization)
Cc1c(NC(=O)c2cccc(C(=O)[N-]C3CC3)c2)cccc1N1CCc2[n-]/c(=N/c3ccccc3)ncc2C1 (3D coordinates assigned)
Cc1c(NC(=O)c2cccc(C(=O)[N-]C3CC3)c2)cccc1N1CCc2[n-]/c(=N/c3ccccc3)ncc2C1 (nonaromatic ring conformer: 362.6299964729592 kcal/mol)

>  <smiles>  (28) 
Cc1c(NC(=O)c2cccc(C(=O)NC3CC3)c2)cccc1N1CCc2[nH]c(=Nc3ccccc3)ncc2C1

>  <score_type>  (28) 
oracle

>  <origin>  (28) 
adg

>  <m_score__min__energy>  (28) 
-14.15

>  <m_primary>  (28) 
energy

$$$$
28:0
     RDKit          3D

 43 46  0  0  0  0  0  0  0  0999 V2000
   56.7830   31.7299   42.2054 H   0  0  0  0  0  0  0  0  0  0  0  0
   57.0150   31.2650   43.1750 C   0  0  0  0  0  0  0  0  0  0  0  0
   56.2950   30.1980   43.6050 N   0  0  0  0  0  0  0  0  0  0  0  0
   56.5620   29.6050   44.7980 C   0  0  0  0  0  0  0  0  0  0  0  0
   55.8470   28.5860   45.1730 N   0  0  0  0  0  0  0  0  0  0  0  0
   56.3250   27.3560   45.7520 C   0  0  0  0  0  0  0  0  0  0  0  0
   55.5320   26.4010   45.9650 O   0  0  0  0  0  0  0  0  0  0  0  0
   57.7590   27.2350   46.1250 C   0  0  0  0  0  0  0  0  0  0  0  0
   58.1000   27.1550   47.4900 C   0  0  0  0  0  0  0  0  0  0  0  0
   57.3073   27.1946   48.2516 H   0  0  0  0  0  0  0  0  0  0  0  0
   59.4330   27.0260   47.8870 C   0  0  0  0  0  0  0  0  0  0  0  0
   59.6837   26.9622   48.9562 H   0  0  0  0  0  0  0  0  0  0  0  0
   60.4460   26.9780   46.9310 C   0  0  0  0  0  0  0  0  0  0  0  0
   61.4945   26.8700   47.2455 H   0  0  0  0  0  0  0  0  0  0  0  0
   60.1300   27.0670   45.5750 C   0  0  0  0  0  0  0  0  0  0  0  0
   60.9337   27.0347   44.8246 H   0  0  0  0  0  0  0  0  0  0  0  0
   58.7990   27.1970   45.1610 C   0  0  0  0  0  0  0  0  0  0  0  0
   58.5060   27.3640   43.4310 Cl  0  0  0  0  0  0  0  0  0  0  0  0
   57.5690   30.0910   45.5760 N   0  0  0  0  0  0  0  0  0  0  0  0
   58.3200   31.1580   45.1910 C   0  0  0  0  0  0  0  0  0  0  0  0
   59.3730   31.6320   46.0510 N   0  0  0  0  0  0  0  0  0  0  0  0
   59.5460   33.0450   46.3960 C   0  0  0  0  0  0  0  0  0  0  0  0
   59.7307   33.6515   45.4971 H   0  0  0  0  0  0  0  0  0  0  0  0
   58.6576   33.4867   46.8709 H   0  0  0  0  0  0  0  0  0  0  0  0
   60.7350   33.0300   47.2820 C   0  0  0  0  0  0  0  0  0  0  0  0
   61.3500   34.1130   47.9070 C   0  0  0  0  0  0  0  0  0  0  0  0
   60.9622   35.1334   47.7718 H   0  0  0  0  0  0  0  0  0  0  0  0
   62.4750   33.8750   48.7130 C   0  0  0  0  0  0  0  0  0  0  0  0
   62.9741   34.7160   49.2166 H   0  0  0  0  0  0  0  0  0  0  0  0
   62.9720   32.5570   48.8820 C   0  0  0  0  0  0  0  0  0  0  0  0
   64.0920   32.2740   49.6770 O   0  0  0  0  0  0  0  0  0  0  0  0
   65.2520   33.0970   49.7520 C   0  0  0  0  0  0  0  0  0  0  0  0
   65.5061   33.2773   50.8070 H   0  0  0  0  0  0  0  0  0  0  0  0
   66.0926   32.5922   49.2535 H   0  0  0  0  0  0  0  0  0  0  0  0
   65.0532   34.0572   49.2535 H   0  0  0  0  0  0  0  0  0  0  0  0
   62.3260   31.4870   48.2370 C   0  0  0  0  0  0  0  0  0  0  0  0
   62.6955   30.4579   48.3570 H   0  0  0  0  0  0  0  0  0  0  0  0
   61.2100   31.7500   47.4430 C   0  0  0  0  0  0  0  0  0  0  0  0
   60.3870   30.7810   46.6800 C   0  0  0  0  0  0  0  0  0  0  0  0
   60.9908   30.2599   45.9225 H   0  0  0  0  0  0  0  0  0  0  0  0
   59.9571   29.9878   47.3093 H   0  0  0  0  0  0  0  0  0  0  0  0
   58.0480   31.7720   43.9610 C   0  0  0  0  0  0  0  0  0  0  0  0
   58.6380   32.6366   43.6228 H   0  0  0  0  0  0  0  0  0  0  0  0
  1  2  1  0
  2  3  1  0
  3  4  1  0
  4  5  2  0
  5  6  1  0
  6  7  2  0
  6  8  1  0
  8  9  2  0
  9 10  1  0
  9 11  1  0
 11 12  1  0
 11 13  2  0
 13 14  1  0
 13 15  1  0
 15 16  1  0
 15 17  2  0
 17 18  1  0
  4 19  1  0
 19 20  2  0
 20 21  1  0
 21 22  1  0
 22 23  1  0
 22 24  1  0
 22 25  1  0
 25 26  2  0
 26 27  1  0
 26 28  1  0
 28 29  1  0
 28 30  2  0
 30 31  1  0
 31 32  1  0
 32 33  1  0
 32 34  1  0
 32 35  1  0
 30 36  1  0
 36 37  1  0
 36 38  2  0
 38 39  1  0
 39 40  1  0
 39 41  1  0
 20 42  1  0
 42 43  1  0
 42  2  2  0
 17  8  1  0
 39 21  1  0
 38 25  1  0
M  CHG  1   3  -1
M  END
>  <UniqueID>  (29) 
27

>  <SMILES>  (29) 
COc1ccc2c(c1)CN(c1cc[n-]/c(=N/C(=O)c3ccccc3Cl)n1)C2

>  <Energy>  (29) 
64.66684757521867

>  <Genealogy>  (29) 
COc1ccc2c(c1)CN(c1cc[n-]c(=NC(=O)c3ccccc3Cl)n1)C2 (protonated)
COc1ccc2c(c1)CN(c1cc[n-]/c(=N/C(=O)c3ccccc3Cl)n1)C2 (cis-trans isomerization)
COc1ccc2c(c1)CN(c1cc[n-]/c(=N/C(=O)c3ccccc3Cl)n1)C2 (3D coordinates assigned)
COc1ccc2c(c1)CN(c1cc[n-]/c(=N/C(=O)c3ccccc3Cl)n1)C2 (nonaromatic ring conformer: 64.66684757521867 kcal/mol)

>  <smiles>  (29) 
COc1ccc2c(c1)CN(c1cc[nH]c(=NC(=O)c3ccccc3Cl)n1)C2

>  <score_type>  (29) 
oracle

>  <origin>  (29) 
adg

>  <m_score__min__energy>  (29) 
-10.23

>  <m_primary>  (29) 
energy

$$$$
29:0
     RDKit          3D

 64 66  0  0  0  0  0  0  0  0999 V2000
   59.6370   33.6690   50.4510 C   0  0  0  0  0  0  0  0  0  0  0  0
   58.5430   33.1030   51.3680 C   0  0  0  0  0  0  0  0  0  0  0  0
   58.1760   34.1460   52.4340 C   0  0  0  0  0  0  0  0  0  0  0  0
   58.9600   31.7810   52.0660 C   0  0  0  0  0  0  0  0  0  0  0  0
   58.1660   30.4950   51.7120 C   0  0  2  0  0  0  0  0  0  0  0  0
   58.1420   30.2400   50.2770 N   0  0  0  0  0  0  0  0  0  0  0  0
   59.2820   29.8910   49.4850 C   0  0  0  0  0  0  0  0  0  0  0  0
   59.7290   28.7120   49.5070 O   0  0  0  0  0  0  0  0  0  0  0  0
   59.9880   30.9560   48.6830 C   0  0  1  0  0  0  0  0  0  0  0  0
   61.5090   30.9020   48.9060 C   0  0  0  0  0  0  0  0  0  0  0  0
   62.2080   31.9930   48.1520 C   0  0  0  0  0  0  0  0  0  0  0  0
   61.6210   33.1210   47.6320 C   0  0  0  0  0  0  0  0  0  0  0  0
   62.5470   33.8200   46.9550 N   0  0  0  0  0  0  0  0  0  0  0  0
   63.6720   33.0850   47.0830 C   0  0  0  0  0  0  0  0  0  0  0  0
   63.5040   31.9550   47.8010 N   0  0  0  0  0  0  0  0  0  0  0  0
   59.7030   30.7730   47.2590 N   0  0  0  0  0  0  0  0  0  0  0  0
   58.5070   31.2330   46.6200 C   0  0  0  0  0  0  0  0  0  0  0  0
   57.9960   32.3210   46.9970 O   0  0  0  0  0  0  0  0  0  0  0  0
   57.8560   30.4470   45.6060 N   0  0  0  0  0  0  0  0  0  0  0  0
   57.7860   28.9880   45.7600 C   0  0  0  0  0  0  0  0  0  0  0  0
   56.6840   28.4040   44.8780 C   0  0  0  0  0  0  0  0  0  0  0  0
   55.5720   29.2720   44.8850 O   0  0  0  0  0  0  0  0  0  0  0  0
   55.8580   30.4160   44.0980 C   0  0  0  0  0  0  0  0  0  0  0  0
   57.1900   31.1090   44.4740 C   0  0  0  0  0  0  0  0  0  0  0  0
   56.7560   30.4910   52.2270 C   0  0  0  0  0  0  0  0  0  0  0  0
   56.2460   31.5410   52.7020 O   0  0  0  0  0  0  0  0  0  0  0  0
   55.9500   29.3220   52.0520 N   0  0  0  0  0  0  0  0  0  0  0  0
   54.7910   29.0200   52.8850 C   0  0  0  0  0  0  0  0  0  0  0  0
   53.6570   29.9500   52.5440 C   0  0  0  0  0  0  0  0  0  0  0  0
   53.5440   30.4740   51.2460 C   0  0  0  0  0  0  0  0  0  0  0  0
   52.5330   31.3900   50.9400 C   0  0  0  0  0  0  0  0  0  0  0  0
   51.6290   31.7910   51.9290 C   0  0  0  0  0  0  0  0  0  0  0  0
   50.6320   32.7090   51.6230 O   0  0  0  0  0  0  0  0  0  0  0  0
   51.7340   31.2730   53.2220 C   0  0  0  0  0  0  0  0  0  0  0  0
   52.7440   30.3570   53.5320 C   0  0  0  0  0  0  0  0  0  0  0  0
   60.4483   34.0887   51.0639 H   0  0  0  0  0  0  0  0  0  0  0  0
   60.0359   32.8641   49.8161 H   0  0  0  0  0  0  0  0  0  0  0  0
   59.2105   34.4596   49.8161 H   0  0  0  0  0  0  0  0  0  0  0  0
   57.6767   32.8743   50.7299 H   0  0  0  0  0  0  0  0  0  0  0  0
   58.3273   33.7160   53.4351 H   0  0  0  0  0  0  0  0  0  0  0  0
   58.8161   35.0326   52.3152 H   0  0  0  0  0  0  0  0  0  0  0  0
   57.1217   34.4364   52.3152 H   0  0  0  0  0  0  0  0  0  0  0  0
   60.0146   31.5954   51.8143 H   0  0  0  0  0  0  0  0  0  0  0  0
   58.7500   31.9520   53.1322 H   0  0  0  0  0  0  0  0  0  0  0  0
   58.7152   29.6904   52.2229 H   0  0  0  0  0  0  0  0  0  0  0  0
   59.6188   31.9364   49.0184 H   0  0  0  0  0  0  0  0  0  0  0  0
   61.7183   31.0173   49.9797 H   0  0  0  0  0  0  0  0  0  0  0  0
   61.8799   29.9334   48.5396 H   0  0  0  0  0  0  0  0  0  0  0  0
   60.5650   33.4054   47.7507 H   0  0  0  0  0  0  0  0  0  0  0  0
   64.6360   33.3799   46.6429 H   0  0  0  0  0  0  0  0  0  0  0  0
   58.7515   28.5477   45.4705 H   0  0  0  0  0  0  0  0  0  0  0  0
   57.5593   28.7538   46.8106 H   0  0  0  0  0  0  0  0  0  0  0  0
   57.0570   28.2930   43.8491 H   0  0  0  0  0  0  0  0  0  0  0  0
   56.3850   27.4190   45.2657 H   0  0  0  0  0  0  0  0  0  0  0  0
   55.9117   30.1081   43.0433 H   0  0  0  0  0  0  0  0  0  0  0  0
   55.0530   31.1430   44.2809 H   0  0  0  0  0  0  0  0  0  0  0  0
   57.8614   31.0839   43.6031 H   0  0  0  0  0  0  0  0  0  0  0  0
   56.9623   32.1432   44.7717 H   0  0  0  0  0  0  0  0  0  0  0  0
   54.4760   27.9810   52.7084 H   0  0  0  0  0  0  0  0  0  0  0  0
   55.0616   29.1524   53.9429 H   0  0  0  0  0  0  0  0  0  0  0  0
   54.2544   30.1622   50.4662 H   0  0  0  0  0  0  0  0  0  0  0  0
   52.4485   31.7955   49.9209 H   0  0  0  0  0  0  0  0  0  0  0  0
   51.0204   31.5864   53.9982 H   0  0  0  0  0  0  0  0  0  0  0  0
   52.8242   29.9537   54.5523 H   0  0  0  0  0  0  0  0  0  0  0  0
  1  2  1  0
  2  3  1  0
  2  4  1  0
  4  5  1  0
  5  6  1  0
  6  7  1  0
  7  8  2  0
  7  9  1  0
  9 10  1  0
 10 11  1  0
 11 12  2  0
 12 13  1  0
 13 14  1  0
 14 15  2  0
  9 16  1  0
 16 17  1  0
 17 18  2  0
 17 19  1  0
 19 20  1  0
 20 21  1  0
 21 22  1  0
 22 23  1  0
 23 24  1  0
  5 25  1  0
 25 26  2  0
 25 27  1  0
 27 28  1  0
 28 29  1  0
 29 30  2  0
 30 31  1  0
 31 32  2  0
 32 33  1  0
 32 34  1  0
 34 35  2  0
 15 11  1  0
 24 19  1  0
 35 29  1  0
  1 36  1  0
  1 37  1  0
  1 38  1  0
  2 39  1  0
  3 40  1  0
  3 41  1  0
  3 42  1  0
  4 43  1  0
  4 44  1  0
  5 45  1  1
  9 46  1  1
 10 47  1  0
 10 48  1  0
 12 49  1  0
 14 50  1  0
 20 51  1  0
 20 52  1  0
 21 53  1  0
 21 54  1  0
 23 55  1  0
 23 56  1  0
 24 57  1  0
 24 58  1  0
 28 59  1  0
 28 60  1  0
 30 61  1  0
 31 62  1  0
 34 63  1  0
 35 64  1  0
M  CHG  5   6  -1  13  -1  16  -1  27  -1  33  -1
M  END
>  <UniqueID>  (30) 
28

>  <SMILES>  (30) 
CC(C)C[C@H]([N-]C(=O)[C@@H](Cc1c[n-]cn1)[N-]C(=O)N1CCOCC1)C(=O)[N-]Cc1ccc([O-])cc1

>  <Energy>  (30) 
91.18707643299093

>  <Genealogy>  (30) 
CC(C)CC([N-]C(=O)C(Cc1c[n-]cn1)[N-]C(=O)N1CCOCC1)C(=O)[N-]Cc1ccc([O-])cc1 (protonated)
CC(C)C[C@H]([N-]C(=O)[C@@H](Cc1c[n-]cn1)[N-]C(=O)N1CCOCC1)C(=O)[N-]Cc1ccc([O-])cc1 (chirality)
CC(C)C[C@H]([N-]C(=O)[C@@H](Cc1c[n-]cn1)[N-]C(=O)N1CCOCC1)C(=O)[N-]Cc1ccc([O-])cc1 (3D coordinates assigned)
CC(C)C[C@H]([N-]C(=O)[C@@H](Cc1c[n-]cn1)[N-]C(=O)N1CCOCC1)C(=O)[N-]Cc1ccc([O-])cc1 (nonaromatic ring conformer: 91.18707643299093 kcal/mol)

>  <smiles>  (30) 
CC(C)CC(NC(=O)C(Cc1c[nH]cn1)NC(=O)N1CCOCC1)C(=O)NCc1ccc(O)cc1

>  <score_type>  (30) 
oracle

>  <origin>  (30) 
adg

>  <m_score__min__energy>  (30) 
-17.050000000000001

>  <m_primary>  (30) 
energy

$$$$
30:0
     RDKit          3D

 57 60  0  0  0  0  0  0  0  0999 V2000
   61.8800   33.7790   51.0530 C   0  0  0  0  0  0  0  0  0  0  0  0
   62.2200   33.6830   49.5930 C   0  0  0  0  0  0  0  0  0  0  0  0
   61.2690   33.6640   48.6210 C   0  0  0  0  0  0  0  0  0  0  0  0
   59.8120   33.6510   48.9000 C   0  0  0  0  0  0  0  0  0  0  0  0
   59.3750   34.2960   49.8900 O   0  0  0  0  0  0  0  0  0  0  0  0
   58.9200   32.8360   48.1280 N   0  0  0  0  0  0  0  0  0  0  0  0
   58.4830   33.0760   46.7830 C   0  0  0  0  0  0  0  0  0  0  0  0
   58.5050   34.3600   46.2090 C   0  0  0  0  0  0  0  0  0  0  0  0
   58.1000   34.5440   44.8840 C   0  0  0  0  0  0  0  0  0  0  0  0
   57.6840   33.4530   44.1170 C   0  0  0  0  0  0  0  0  0  0  0  0
   57.6810   32.1630   44.6690 C   0  0  0  0  0  0  0  0  0  0  0  0
   57.2800   30.9720   43.8330 C   0  0  0  0  0  0  0  0  0  0  0  0
   56.8270   29.8180   44.6930 C   0  0  0  0  0  0  0  0  0  0  0  0
   55.5940   29.6260   44.8680 O   0  0  0  0  0  0  0  0  0  0  0  0
   57.7480   28.8290   45.1720 N   0  0  0  0  0  0  0  0  0  0  0  0
   58.6180   28.9580   46.3040 C   0  0  0  0  0  0  0  0  0  0  0  0
   59.8800   29.5270   46.1300 C   0  0  0  0  0  0  0  0  0  0  0  0
   60.7640   29.6380   47.2070 C   0  0  0  0  0  0  0  0  0  0  0  0
   60.4100   29.1660   48.4930 C   0  0  0  0  0  0  0  0  0  0  0  0
   61.3250   29.2940   49.6270 N   0  0  0  0  0  0  0  0  0  0  0  0
   62.1800   30.4960   49.7340 C   0  0  0  0  0  0  0  0  0  0  0  0
   63.1520   30.4540   50.9160 C   0  0  0  0  0  0  0  0  0  0  0  0
   62.5450   29.8720   52.0460 O   0  0  0  0  0  0  0  0  0  0  0  0
   62.3480   28.5030   51.7880 C   0  0  0  0  0  0  0  0  0  0  0  0
   61.2750   28.2950   50.7150 C   0  0  0  0  0  0  0  0  0  0  0  0
   59.1420   28.5520   48.6390 C   0  0  0  0  0  0  0  0  0  0  0  0
   58.2660   28.4440   47.5560 C   0  0  0  0  0  0  0  0  0  0  0  0
   58.0880   31.9830   46.0010 C   0  0  0  0  0  0  0  0  0  0  0  0
   61.7320   33.6390   46.8760 S   0  0  0  0  0  0  0  0  0  0  0  0
   63.1580   32.5510   47.1150 C   0  0  0  0  0  0  0  0  0  0  0  0
   64.1420   33.2940   48.0020 C   0  0  0  0  0  0  0  0  0  0  0  0
   63.5880   33.5370   49.2950 O   0  0  0  0  0  0  0  0  0  0  0  0
   62.7671   33.5285   51.6533 H   0  0  0  0  0  0  0  0  0  0  0  0
   61.5560   34.8037   51.2874 H   0  0  0  0  0  0  0  0  0  0  0  0
   61.0679   33.0750   51.2874 H   0  0  0  0  0  0  0  0  0  0  0  0
   58.8418   35.2214   46.8044 H   0  0  0  0  0  0  0  0  0  0  0  0
   58.1088   35.5519   44.4434 H   0  0  0  0  0  0  0  0  0  0  0  0
   57.3579   33.6057   43.0776 H   0  0  0  0  0  0  0  0  0  0  0  0
   56.4560   31.2652   43.1658 H   0  0  0  0  0  0  0  0  0  0  0  0
   58.1569   30.6466   43.2541 H   0  0  0  0  0  0  0  0  0  0  0  0
   60.1818   29.8913   45.1369 H   0  0  0  0  0  0  0  0  0  0  0  0
   61.7504   30.0996   47.0523 H   0  0  0  0  0  0  0  0  0  0  0  0
   62.7641   30.5908   48.8067 H   0  0  0  0  0  0  0  0  0  0  0  0
   61.5111   31.3539   49.8970 H   0  0  0  0  0  0  0  0  0  0  0  0
   64.0346   29.8604   50.6355 H   0  0  0  0  0  0  0  0  0  0  0  0
   63.4454   31.4842   51.1663 H   0  0  0  0  0  0  0  0  0  0  0  0
   63.2942   28.0627   51.4404 H   0  0  0  0  0  0  0  0  0  0  0  0
   62.0141   28.0162   52.7162 H   0  0  0  0  0  0  0  0  0  0  0  0
   61.4112   27.2956   50.2761 H   0  0  0  0  0  0  0  0  0  0  0  0
   60.2986   28.4051   51.2095 H   0  0  0  0  0  0  0  0  0  0  0  0
   58.8424   28.1542   49.6198 H   0  0  0  0  0  0  0  0  0  0  0  0
   57.2918   27.9508   47.6892 H   0  0  0  0  0  0  0  0  0  0  0  0
   58.0967   30.9723   46.4351 H   0  0  0  0  0  0  0  0  0  0  0  0
   62.8423   31.6164   47.6017 H   0  0  0  0  0  0  0  0  0  0  0  0
   63.6187   32.2913   46.1505 H   0  0  0  0  0  0  0  0  0  0  0  0
   65.0548   32.6898   48.1103 H   0  0  0  0  0  0  0  0  0  0  0  0
   64.3718   34.2623   47.5333 H   0  0  0  0  0  0  0  0  0  0  0  0
  1  2  1  0
  2  3  2  0
  3  4  1  0
  4  5  2  0
  4  6  1  0
  6  7  1  0
  7  8  2  0
  8  9  1  0
  9 10  2  0
 10 11  1  0
 11 12  1  0
 12 13  1  0
 13 14  2  0
 13 15  1  0
 15 16  1  0
 16 17  2  0
 17 18  1  0
 18 19  2  0
 19 20  1  0
 20 21  1  0
 21 22  1  0
 22 23  1  0
 23 24  1  0
 24 25  1  0
 19 26  1  0
 26 27  2  0
 11 28  2  0
  3 29  1  0
 29 30  1  0
 30 31  1  0
 31 32  1  0
 32  2  1  0
 28  7  1  0
 27 16  1  0
 25 20  1  0
  1 33  1  0
  1 34  1  0
  1 35  1  0
  8 36  1  0
  9 37  1  0
 10 38  1  0
 12 39  1  0
 12 40  1  0
 17 41  1  0
 18 42  1  0
 21 43  1  0
 21 44  1  0
 22 45  1  0
 22 46  1  0
 24 47  1  0
 24 48  1  0
 25 49  1  0
 25 50  1  0
 26 51  1  0
 27 52  1  0
 28 53  1  0
 30 54  1  0
 30 55  1  0
 31 56  1  0
 31 57  1  0
M  CHG  2   6  -1  15  -1
M  END
>  <UniqueID>  (31) 
29

>  <SMILES>  (31) 
CC1=C(C(=O)[N-]c2cccc(CC(=O)[N-]c3ccc(N4CCOCC4)cc3)c2)SCCO1

>  <Energy>  (31) 
84.74403898556233

>  <Genealogy>  (31) 
CC1=C(C(=O)[N-]c2cccc(CC(=O)[N-]c3ccc(N4CCOCC4)cc3)c2)SCCO1 (protonated)
CC1=C(C(=O)[N-]c2cccc(CC(=O)[N-]c3ccc(N4CCOCC4)cc3)c2)SCCO1 (3D coordinates assigned)
CC1=C(C(=O)[N-]c2cccc(CC(=O)[N-]c3ccc(N4CCOCC4)cc3)c2)SCCO1 (nonaromatic ring conformer: 84.74403898556233 kcal/mol)

>  <smiles>  (31) 
CC1=C(C(=O)Nc2cccc(CC(=O)Nc3ccc(N4CCOCC4)cc3)c2)SCCO1

>  <score_type>  (31) 
oracle

>  <origin>  (31) 
adg

>  <m_score__min__energy>  (31) 
-13.68

>  <m_primary>  (31) 
energy

$$$$
31:0
     RDKit          3D

 43 45  0  0  0  0  0  0  0  0999 V2000
   55.7260   26.7260   45.9540 O   0  0  0  0  0  0  0  0  0  0  0  0
   56.7990   27.0310   45.3630 C   0  0  0  0  0  0  0  0  0  0  0  0
   57.6860   25.9910   44.9210 N   0  0  0  0  0  0  0  0  0  0  0  0
   57.2560   24.6530   44.6190 C   0  0  0  0  0  0  0  0  0  0  0  0
   57.3640   23.6150   45.5650 C   0  0  0  0  0  0  0  0  0  0  0  0
   56.9160   22.3270   45.2550 C   0  0  0  0  0  0  0  0  0  0  0  0
   56.3440   22.0650   44.0070 C   0  0  0  0  0  0  0  0  0  0  0  0
   55.9000   20.7850   43.7000 O   0  0  0  0  0  0  0  0  0  0  0  0
   56.2150   23.0940   43.0680 C   0  0  0  0  0  0  0  0  0  0  0  0
   56.6620   24.3820   43.3750 C   0  0  0  0  0  0  0  0  0  0  0  0
   57.1430   28.4600   45.1660 C   0  0  0  0  0  0  0  0  0  0  0  0
   56.2830   29.3210   44.4620 C   0  0  0  0  0  0  0  0  0  0  0  0
   56.5870   30.6780   44.3320 C   0  0  0  0  0  0  0  0  0  0  0  0
   57.7500   31.2030   44.9130 C   0  0  0  0  0  0  0  0  0  0  0  0
   58.0190   32.6830   44.8610 C   0  0  0  0  0  0  0  0  0  0  0  0
   57.9730   33.2770   46.2000 N   0  0  0  0  0  0  0  0  0  0  0  0
   59.2940   34.3840   46.4600 S   0  0  0  0  0  0  0  0  0  0  0  0
   58.9050   35.3690   47.5250 O   0  0  0  0  0  0  0  0  0  0  0  0
   59.5880   35.1380   45.1920 O   0  0  0  0  0  0  0  0  0  0  0  0
   60.7240   33.5060   46.9990 C   0  0  0  0  0  0  0  0  0  0  0  0
   61.9810   33.8380   46.4720 C   0  0  0  0  0  0  0  0  0  0  0  0
   63.1310   33.1900   46.9330 C   0  0  0  0  0  0  0  0  0  0  0  0
   63.0310   32.2030   47.9160 C   0  0  0  0  0  0  0  0  0  0  0  0
   64.1480   31.5810   48.3700 F   0  0  0  0  0  0  0  0  0  0  0  0
   61.7800   31.8560   48.4340 C   0  0  0  0  0  0  0  0  0  0  0  0
   60.6280   32.5030   47.9760 C   0  0  0  0  0  0  0  0  0  0  0  0
   58.6250   30.3440   45.5950 C   0  0  0  0  0  0  0  0  0  0  0  0
   58.3220   28.9870   45.7250 C   0  0  0  0  0  0  0  0  0  0  0  0
   58.7110   26.1900   44.9120 H   0  0  0  0  0  0  0  0  0  0  0  0
   57.8030   23.8186   46.5528 H   0  0  0  0  0  0  0  0  0  0  0  0
   57.0140   21.5187   45.9947 H   0  0  0  0  0  0  0  0  0  0  0  0
   55.7613   22.8891   42.0871 H   0  0  0  0  0  0  0  0  0  0  0  0
   56.5479   25.1897   42.6371 H   0  0  0  0  0  0  0  0  0  0  0  0
   55.3629   28.9225   44.0097 H   0  0  0  0  0  0  0  0  0  0  0  0
   55.9101   31.3387   43.7705 H   0  0  0  0  0  0  0  0  0  0  0  0
   59.0159   32.8516   44.4277 H   0  0  0  0  0  0  0  0  0  0  0  0
   57.2424   33.1568   44.2427 H   0  0  0  0  0  0  0  0  0  0  0  0
   62.0622   34.6108   45.6934 H   0  0  0  0  0  0  0  0  0  0  0  0
   64.1152   33.4578   46.5211 H   0  0  0  0  0  0  0  0  0  0  0  0
   61.7016   31.0731   49.2027 H   0  0  0  0  0  0  0  0  0  0  0  0
   59.6443   32.2252   48.3824 H   0  0  0  0  0  0  0  0  0  0  0  0
   59.5542   30.7414   46.0294 H   0  0  0  0  0  0  0  0  0  0  0  0
   59.0110   28.3242   46.2691 H   0  0  0  0  0  0  0  0  0  0  0  0
  1  2  2  0
  2  3  1  0
  3  4  1  0
  4  5  2  0
  5  6  1  0
  6  7  2  0
  7  8  1  0
  7  9  1  0
  9 10  2  0
  2 11  1  0
 11 12  2  0
 12 13  1  0
 13 14  2  0
 14 15  1  0
 15 16  1  0
 16 17  1  0
 17 18  2  0
 17 19  2  0
 17 20  1  0
 20 21  2  0
 21 22  1  0
 22 23  2  0
 23 24  1  0
 23 25  1  0
 25 26  2  0
 14 27  1  0
 27 28  2  0
 10  4  1  0
 28 11  1  0
 26 20  1  0
  3 29  1  0
  5 30  1  0
  6 31  1  0
  9 32  1  0
 10 33  1  0
 12 34  1  0
 13 35  1  0
 15 36  1  0
 15 37  1  0
 21 38  1  0
 22 39  1  0
 25 40  1  0
 26 41  1  0
 27 42  1  0
 28 43  1  0
M  CHG  2   8  -1  16  -1
M  END
>  <UniqueID>  (32) 
30

>  <SMILES>  (32) 
O=C(Nc1ccc([O-])cc1)c1ccc(C[N-]S(=O)(=O)c2ccc(F)cc2)cc1

>  <Energy>  (32) 
46.41933606438021

>  <Genealogy>  (32) 
O=C(Nc1ccc([O-])cc1)c1ccc(C[N-]S(=O)(=O)c2ccc(F)cc2)cc1 (protonated)
O=C(Nc1ccc([O-])cc1)c1ccc(C[N-]S(=O)(=O)c2ccc(F)cc2)cc1 (3D coordinates assigned)
O=C(Nc1ccc([O-])cc1)c1ccc(C[N-]S(=O)(=O)c2ccc(F)cc2)cc1 (optimized conformer: 46.41933606438021 kcal/mol)

>  <smiles>  (32) 
O=C(Nc1ccc(O)cc1)c1ccc(CNS(=O)(=O)c2ccc(F)cc2)cc1

>  <score_type>  (32) 
oracle

>  <origin>  (32) 
adg

>  <m_score__min__energy>  (32) 
-11.35

>  <m_primary>  (32) 
energy

$$$$
32:0
     RDKit          3D

 54 56  0  0  0  0  0  0  0  0999 V2000
   64.2340   32.8320   48.8030 C   0  0  0  0  0  0  0  0  0  0  0  0
   63.0800   32.9140   47.8900 N   0  0  0  0  0  0  0  0  0  0  0  0
   63.3810   33.7900   46.7420 C   0  0  0  0  0  0  0  0  0  0  0  0
   62.5720   31.5810   47.4760 C   0  0  0  0  0  0  0  0  0  0  0  0
   61.3420   31.0730   48.2600 C   0  0  0  0  0  0  0  0  0  0  0  0
   61.0730   31.9350   49.4080 N   0  0  0  0  0  0  0  0  0  0  0  0
   60.3480   33.1700   49.3610 C   0  0  0  0  0  0  0  0  0  0  0  0
   60.8930   34.2070   49.8210 O   0  0  0  0  0  0  0  0  0  0  0  0
   58.9630   33.2730   48.7790 C   0  0  0  0  0  0  0  0  0  0  0  0
   59.0310   33.6760   47.3310 C   0  0  0  0  0  0  0  0  0  0  0  0
   59.5750   34.9140   46.9670 C   0  0  0  0  0  0  0  0  0  0  0  0
   59.6380   35.2880   45.6220 C   0  0  0  0  0  0  0  0  0  0  0  0
   59.1430   34.4340   44.6330 C   0  0  0  0  0  0  0  0  0  0  0  0
   58.5710   33.1990   44.9820 C   0  0  0  0  0  0  0  0  0  0  0  0
   58.0690   32.2860   43.9310 C   0  0  0  0  0  0  0  0  0  0  0  0
   57.9010   32.7250   42.7610 O   0  0  0  0  0  0  0  0  0  0  0  0
   57.7850   30.9040   44.2130 N   0  0  0  0  0  0  0  0  0  0  0  0
   56.5490   30.3000   43.7040 C   0  0  0  0  0  0  0  0  0  0  0  0
   55.9910   29.3230   44.7350 C   0  0  0  0  0  0  0  0  0  0  0  0
   57.0500   28.3640   45.2060 C   0  0  0  0  0  0  0  0  0  0  0  0
   56.6630   27.1290   45.7500 C   0  0  0  0  0  0  0  0  0  0  0  0
   57.6260   26.2360   46.2330 C   0  0  0  0  0  0  0  0  0  0  0  0
   58.9780   26.5780   46.1950 C   0  0  0  0  0  0  0  0  0  0  0  0
   59.3760   27.8100   45.6690 C   0  0  0  0  0  0  0  0  0  0  0  0
   58.4210   28.7150   45.1790 C   0  0  0  0  0  0  0  0  0  0  0  0
   58.8970   30.0190   44.5810 C   0  0  0  0  0  0  0  0  0  0  0  0
   58.5210   32.8260   46.3370 C   0  0  0  0  0  0  0  0  0  0  0  0
   63.8802   32.8571   49.8443 H   0  0  0  0  0  0  0  0  0  0  0  0
   64.7779   31.8929   48.6231 H   0  0  0  0  0  0  0  0  0  0  0  0
   64.9052   33.6847   48.6231 H   0  0  0  0  0  0  0  0  0  0  0  0
   62.3040   33.3750   48.4230 H   0  0  0  0  0  0  0  0  0  0  0  0
   63.7181   34.7711   47.1079 H   0  0  0  0  0  0  0  0  0  0  0  0
   64.1741   33.3342   46.1310 H   0  0  0  0  0  0  0  0  0  0  0  0
   62.4753   33.9180   46.1310 H   0  0  0  0  0  0  0  0  0  0  0  0
   62.2981   31.6367   46.4121 H   0  0  0  0  0  0  0  0  0  0  0  0
   63.3827   30.8674   47.6845 H   0  0  0  0  0  0  0  0  0  0  0  0
   60.4652   31.0713   47.5957 H   0  0  0  0  0  0  0  0  0  0  0  0
   61.5473   30.0545   48.6213 H   0  0  0  0  0  0  0  0  0  0  0  0
   58.4622   32.2970   48.8604 H   0  0  0  0  0  0  0  0  0  0  0  0
   58.3981   34.0354   49.3353 H   0  0  0  0  0  0  0  0  0  0  0  0
   59.9544   35.5950   47.7431 H   0  0  0  0  0  0  0  0  0  0  0  0
   60.0780   36.2563   45.3414 H   0  0  0  0  0  0  0  0  0  0  0  0
   59.2015   34.7302   43.5753 H   0  0  0  0  0  0  0  0  0  0  0  0
   55.8085   31.0902   43.5109 H   0  0  0  0  0  0  0  0  0  0  0  0
   56.7652   29.7600   42.7704 H   0  0  0  0  0  0  0  0  0  0  0  0
   55.6114   29.8901   45.5977 H   0  0  0  0  0  0  0  0  0  0  0  0
   55.1824   28.7446   44.2642 H   0  0  0  0  0  0  0  0  0  0  0  0
   55.5970   26.8619   45.7968 H   0  0  0  0  0  0  0  0  0  0  0  0
   57.3167   25.2633   46.6431 H   0  0  0  0  0  0  0  0  0  0  0  0
   59.7325   25.8762   46.5800 H   0  0  0  0  0  0  0  0  0  0  0  0
   60.4438   28.0723   45.6387 H   0  0  0  0  0  0  0  0  0  0  0  0
   59.5306   30.5351   45.3174 H   0  0  0  0  0  0  0  0  0  0  0  0
   59.4562   29.7833   43.6636 H   0  0  0  0  0  0  0  0  0  0  0  0
   58.0784   31.8597   46.6205 H   0  0  0  0  0  0  0  0  0  0  0  0
  1  2  1  0
  2  3  1  0
  2  4  1  0
  4  5  1  0
  5  6  1  0
  6  7  1  0
  7  8  2  0
  7  9  1  0
  9 10  1  0
 10 11  2  0
 11 12  1  0
 12 13  2  0
 13 14  1  0
 14 15  1  0
 15 16  2  0
 15 17  1  0
 17 18  1  0
 18 19  1  0
 19 20  1  0
 20 21  2  0
 21 22  1  0
 22 23  2  0
 23 24  1  0
 24 25  2  0
 25 26  1  0
 14 27  2  0
 27 10  1  0
 26 17  1  0
 25 20  1  0
  1 28  1  0
  1 29  1  0
  1 30  1  0
  2 31  1  0
  3 32  1  0
  3 33  1  0
  3 34  1  0
  4 35  1  0
  4 36  1  0
  5 37  1  0
  5 38  1  0
  9 39  1  0
  9 40  1  0
 11 41  1  0
 12 42  1  0
 13 43  1  0
 18 44  1  0
 18 45  1  0
 19 46  1  0
 19 47  1  0
 21 48  1  0
 22 49  1  0
 23 50  1  0
 24 51  1  0
 26 52  1  0
 26 53  1  0
 27 54  1  0
M  CHG  2   2   1   6  -1
M  END
>  <UniqueID>  (33) 
31

>  <SMILES>  (33) 
C[NH+](C)CC[N-]C(=O)Cc1cccc(C(=O)N2CCc3ccccc3C2)c1

>  <Energy>  (33) 
60.677107460106235

>  <Genealogy>  (33) 
C[NH+](C)CC[N-]C(=O)Cc1cccc(C(=O)N2CCc3ccccc3C2)c1 (protonated)
C[NH+](C)CC[N-]C(=O)Cc1cccc(C(=O)N2CCc3ccccc3C2)c1 (3D coordinates assigned)
C[NH+](C)CC[N-]C(=O)Cc1cccc(C(=O)N2CCc3ccccc3C2)c1 (nonaromatic ring conformer: 60.677107460106235 kcal/mol)

>  <smiles>  (33) 
CN(C)CCNC(=O)Cc1cccc(C(=O)N2CCc3ccccc3C2)c1

>  <score_type>  (33) 
oracle

>  <origin>  (33) 
adg

>  <m_score__min__energy>  (33) 
-8.9199999999999999

>  <m_primary>  (33) 
energy

$$$$
33:0
     RDKit          3D

 49 51  0  0  0  0  0  0  0  0999 V2000
   50.9531   30.4895   48.6719 H   0  0  0  0  0  0  0  0  0  0  0  0
   51.3940   30.8420   49.6160 C   0  0  0  0  0  0  0  0  0  0  0  0
   50.8490   31.9040   50.2620 N   0  0  0  0  0  0  0  0  0  0  0  0
   51.3680   32.3760   51.4300 C   0  0  0  0  0  0  0  0  0  0  0  0
   50.7950   33.4750   52.0760 O   0  0  0  0  0  0  0  0  0  0  0  0
   50.2920   33.4110   53.4050 C   0  0  0  0  0  0  0  0  0  0  0  0
   51.1236   33.5168   54.1173 H   0  0  0  0  0  0  0  0  0  0  0  0
   49.5684   34.2243   53.5627 H   0  0  0  0  0  0  0  0  0  0  0  0
   49.7951   32.4424   53.5627 H   0  0  0  0  0  0  0  0  0  0  0  0
   52.4890   31.7570   51.9910 C   0  0  0  0  0  0  0  0  0  0  0  0
   52.9178   32.1423   52.9279 H   0  0  0  0  0  0  0  0  0  0  0  0
   53.0670   30.6470   51.3620 C   0  0  0  0  0  0  0  0  0  0  0  0
   54.1170   30.1030   51.9150 N   0  0  0  0  0  0  0  0  0  0  0  0
   55.2490   30.7500   52.5180 C   0  0  0  0  0  0  0  0  0  0  0  0
   55.4610   31.9810   52.3500 O   0  0  0  0  0  0  0  0  0  0  0  0
   56.2560   29.9240   53.2570 C   0  0  0  0  0  0  0  0  0  0  0  0
   56.4879   30.4100   54.2162 H   0  0  0  0  0  0  0  0  0  0  0  0
   55.8347   28.9226   53.4290 H   0  0  0  0  0  0  0  0  0  0  0  0
   57.5000   29.7880   52.4680 N   0  0  0  0  0  0  0  0  0  0  0  0
   58.7020   30.2220   53.2090 C   0  0  0  0  0  0  0  0  0  0  0  0
   58.6775   29.7733   54.2130 H   0  0  0  0  0  0  0  0  0  0  0  0
   59.5819   29.8920   52.6373 H   0  0  0  0  0  0  0  0  0  0  0  0
   58.7900   31.7590   53.3560 C   0  0  0  0  0  0  0  0  0  0  0  0
   58.2965   32.0484   54.2955 H   0  0  0  0  0  0  0  0  0  0  0  0
   59.8572   32.0257   53.3480 H   0  0  0  0  0  0  0  0  0  0  0  0
   58.1440   32.4970   52.2370 N   0  0  0  0  0  0  0  0  0  0  0  0
   57.1320   32.6500   52.4650 H   0  0  0  0  0  0  0  0  0  0  0  0
   58.7650   33.8290   52.0370 C   0  0  0  0  0  0  0  0  0  0  0  0
   57.9833   34.5467   51.7474 H   0  0  0  0  0  0  0  0  0  0  0  0
   59.2454   34.1280   52.9803 H   0  0  0  0  0  0  0  0  0  0  0  0
   59.8240   33.7970   50.9590 C   0  0  0  0  0  0  0  0  0  0  0  0
   61.1560   33.4800   51.2750 C   0  0  0  0  0  0  0  0  0  0  0  0
   61.4293   33.2310   52.3110 H   0  0  0  0  0  0  0  0  0  0  0  0
   62.1350   33.4800   50.2770 C   0  0  0  0  0  0  0  0  0  0  0  0
   63.1758   33.2284   50.5290 H   0  0  0  0  0  0  0  0  0  0  0  0
   61.7940   33.7990   48.9600 C   0  0  0  0  0  0  0  0  0  0  0  0
   62.5663   33.7974   48.1767 H   0  0  0  0  0  0  0  0  0  0  0  0
   60.4730   34.1200   48.6370 C   0  0  0  0  0  0  0  0  0  0  0  0
   60.0480   34.5270   46.9850 Cl  0  0  0  0  0  0  0  0  0  0  0  0
   59.4900   34.1210   49.6330 C   0  0  0  0  0  0  0  0  0  0  0  0
   58.4512   34.3765   49.3768 H   0  0  0  0  0  0  0  0  0  0  0  0
   58.2050   31.7190   50.9850 C   0  0  0  0  0  0  0  0  0  0  0  0
   57.7778   32.3175   50.1669 H   0  0  0  0  0  0  0  0  0  0  0  0
   59.2561   31.4752   50.7712 H   0  0  0  0  0  0  0  0  0  0  0  0
   57.4090   30.4050   51.1200 C   0  0  0  0  0  0  0  0  0  0  0  0
   56.3510   30.6162   50.9054 H   0  0  0  0  0  0  0  0  0  0  0  0
   57.8467   29.6893   50.4085 H   0  0  0  0  0  0  0  0  0  0  0  0
   52.5130   30.1950   50.1460 C   0  0  0  0  0  0  0  0  0  0  0  0
   52.9591   29.3389   49.6187 H   0  0  0  0  0  0  0  0  0  0  0  0
  1  2  1  0
  2  3  1  0
  3  4  1  0
  4  5  1  0
  5  6  1  0
  6  7  1  0
  6  8  1  0
  6  9  1  0
  4 10  2  0
 10 11  1  0
 10 12  1  0
 12 13  2  0
 13 14  1  0
 14 15  2  0
 14 16  1  0
 16 17  1  0
 16 18  1  0
 16 19  1  0
 19 20  1  0
 20 21  1  0
 20 22  1  0
 20 23  1  0
 23 24  1  0
 23 25  1  0
 23 26  1  0
 26 27  1  0
 26 28  1  0
 28 29  1  0
 28 30  1  0
 28 31  1  0
 31 32  2  0
 32 33  1  0
 32 34  1  0
 34 35  1  0
 34 36  2  0
 36 37  1  0
 36 38  1  0
 38 39  1  0
 38 40  2  0
 40 41  1  0
 26 42  1  0
 42 43  1  0
 42 44  1  0
 42 45  1  0
 45 46  1  0
 45 47  1  0
 12 48  1  0
 48 49  1  0
 48  2  2  0
 45 19  1  0
 40 31  1  0
M  CHG  2   3  -1  26   1
M  END
>  <UniqueID>  (34) 
32

>  <SMILES>  (34) 
COc1c/c(=N/C(=O)CN2CC[NH+](Cc3cccc(Cl)c3)CC2)cc[n-]1

>  <Energy>  (34) 
68.71820399930029

>  <Genealogy>  (34) 
COc1cc(=NC(=O)CN2CC[NH+](Cc3cccc(Cl)c3)CC2)cc[n-]1 (protonated)
COc1c/c(=N/C(=O)CN2CC[NH+](Cc3cccc(Cl)c3)CC2)cc[n-]1 (cis-trans isomerization)
COc1c/c(=N/C(=O)CN2CC[NH+](Cc3cccc(Cl)c3)CC2)cc[n-]1 (3D coordinates assigned)
COc1c/c(=N/C(=O)CN2CC[NH+](Cc3cccc(Cl)c3)CC2)cc[n-]1 (nonaromatic ring conformer: 68.71820399930029 kcal/mol)

>  <smiles>  (34) 
COc1cc(=NC(=O)CN2CCN(Cc3cccc(Cl)c3)CC2)cc[nH]1

>  <score_type>  (34) 
oracle

>  <origin>  (34) 
adg

>  <m_score__min__energy>  (34) 
-9.9800000000000004

>  <m_primary>  (34) 
energy

$$$$
34:0
     RDKit          3D

 44 47  0  0  0  0  0  0  0  0999 V2000
   56.9403   23.1867   43.5626 H   0  0  0  0  0  0  0  0  0  0  0  0
   57.3940   22.2460   43.9080 C   0  0  0  0  0  0  0  0  0  0  0  0
   58.0115   21.6485   43.2212 H   0  0  0  0  0  0  0  0  0  0  0  0
   57.1930   21.8250   45.1740 C   0  0  0  0  0  0  0  0  0  0  0  0
   56.4380   22.5720   46.1420 C   0  0  0  0  0  0  0  0  0  0  0  0
   55.7610   23.7100   45.8250 C   0  0  0  0  0  0  0  0  0  0  0  0
   54.6641   23.6426   45.7766 H   0  0  0  0  0  0  0  0  0  0  0  0
   56.3670   25.0280   45.5400 C   0  0  0  0  0  0  0  0  0  0  0  0
   55.9710   26.1850   46.1400 N   0  0  0  0  0  0  0  0  0  0  0  0
   56.8490   27.0680   45.6530 C   0  0  0  0  0  0  0  0  0  0  0  0
   56.9020   28.3940   45.9320 N   0  0  0  0  0  0  0  0  0  0  0  0
   57.8840   29.1600   45.3610 C   0  0  0  0  0  0  0  0  0  0  0  0
   57.9400   30.5710   45.6410 N   0  0  0  0  0  0  0  0  0  0  0  0
   58.7430   31.0460   46.7720 C   0  0  0  0  0  0  0  0  0  0  0  0
   58.7476   30.2805   47.5619 H   0  0  0  0  0  0  0  0  0  0  0  0
   59.7708   31.2362   46.4293 H   0  0  0  0  0  0  0  0  0  0  0  0
   58.1510   32.3460   47.3290 C   0  0  0  0  0  0  0  0  0  0  0  0
   57.1810   32.1256   47.7987 H   0  0  0  0  0  0  0  0  0  0  0  0
   58.8550   32.7604   48.0657 H   0  0  0  0  0  0  0  0  0  0  0  0
   57.9530   33.3410   46.2660 N   0  0  0  0  0  0  0  0  0  0  0  0
   58.8800   33.5630   45.8290 H   0  0  0  0  0  0  0  0  0  0  0  0
   57.0490   32.8240   45.2300 C   0  0  0  0  0  0  0  0  0  0  0  0
   56.0717   32.6044   45.6845 H   0  0  0  0  0  0  0  0  0  0  0  0
   56.9502   33.5868   44.4436 H   0  0  0  0  0  0  0  0  0  0  0  0
   57.6030   31.5440   44.5950 C   0  0  0  0  0  0  0  0  0  0  0  0
   56.8448   31.1116   43.9256 H   0  0  0  0  0  0  0  0  0  0  0  0
   58.5100   31.7879   44.0224 H   0  0  0  0  0  0  0  0  0  0  0  0
   58.8230   28.5590   44.4760 C   0  0  0  0  0  0  0  0  0  0  0  0
   59.6052   29.1716   44.0039 H   0  0  0  0  0  0  0  0  0  0  0  0
   58.7490   27.1800   44.2060 C   0  0  0  0  0  0  0  0  0  0  0  0
   59.4662   26.6889   43.5318 H   0  0  0  0  0  0  0  0  0  0  0  0
   57.7330   26.4650   44.8260 C   0  0  0  0  0  0  0  0  0  0  0  0
   57.4610   25.1550   44.7400 N   0  0  0  0  0  0  0  0  0  0  0  0
   56.3670   22.0470   47.4520 C   0  0  0  0  0  0  0  0  0  0  0  0
   55.8031   22.5932   48.2225 H   0  0  0  0  0  0  0  0  0  0  0  0
   56.9960   20.8540   47.7850 C   0  0  0  0  0  0  0  0  0  0  0  0
   56.9438   20.4709   48.8148 H   0  0  0  0  0  0  0  0  0  0  0  0
   57.6920   20.1460   46.8110 C   0  0  0  0  0  0  0  0  0  0  0  0
   58.3940   18.8690   47.1730 C   0  0  0  0  0  0  0  0  0  0  0  0
   58.4450   18.7763   48.2679 H   0  0  0  0  0  0  0  0  0  0  0  0
   57.8386   18.0149   46.7581 H   0  0  0  0  0  0  0  0  0  0  0  0
   59.4127   18.8803   46.7581 H   0  0  0  0  0  0  0  0  0  0  0  0
   57.7830   20.6460   45.5480 N   0  0  0  0  0  0  0  0  0  0  0  0
   58.3410   20.1000   44.8500 H   0  0  0  0  0  0  0  0  0  0  0  0
  1  2  1  0
  2  3  1  0
  2  4  2  0
  4  5  1  0
  5  6  2  0
  6  7  1  0
  6  8  1  0
  8  9  2  0
  9 10  1  0
 10 11  2  0
 11 12  1  0
 12 13  1  0
 13 14  1  0
 14 15  1  0
 14 16  1  0
 14 17  1  0
 17 18  1  0
 17 19  1  0
 17 20  1  0
 20 21  1  0
 20 22  1  0
 22 23  1  0
 22 24  1  0
 22 25  1  0
 25 26  1  0
 25 27  1  0
 12 28  2  0
 28 29  1  0
 28 30  1  0
 30 31  1  0
 30 32  2  0
 32 33  1  0
  5 34  1  0
 34 35  1  0
 34 36  2  0
 36 37  1  0
 36 38  1  0
 38 39  1  0
 39 40  1  0
 39 41  1  0
 39 42  1  0
 38 43  2  0
 43 44  1  0
 43  4  1  0
 33  8  1  0
 32 10  1  0
 25 13  1  0
M  CHG  2  33  -1  43   1
M  END
>  <UniqueID>  (35) 
33

>  <SMILES>  (35) 
C=c1[nH+]c(C)cc/c1=C\c1nc2nc(N3CCNCC3)ccc2[n-]1

>  <Energy>  (35) 
100.76954216584596

>  <Genealogy>  (35) 
C=c1[nH+]c(C)ccc1=Cc1nc2nc(N3CCNCC3)ccc2[n-]1 (protonated)
C=c1[nH+]c(C)cc/c1=C\c1nc2nc(N3CCNCC3)ccc2[n-]1 (cis-trans isomerization)
C=c1[nH+]c(C)cc/c1=C\c1nc2nc(N3CCNCC3)ccc2[n-]1 (3D coordinates assigned)
C=c1[nH+]c(C)cc/c1=C\c1nc2nc(N3CCNCC3)ccc2[n-]1 (nonaromatic ring conformer: 100.76954216584596 kcal/mol)

>  <smiles>  (35) 
C=c1nc(C)ccc1=Cc1nc2nc(N3CCNCC3)ccc2[nH]1

>  <score_type>  (35) 
oracle

>  <origin>  (35) 
adg

>  <m_score__min__energy>  (35) 
-7.6299999999999999

>  <m_primary>  (35) 
energy

$$$$
35:0
     RDKit          3D

 51 53  0  0  0  0  0  0  0  0999 V2000
   58.9909   34.3203   45.4362 H   0  0  0  0  0  0  0  0  0  0  0  0
   58.9980   33.2320   45.5960 C   0  0  0  0  0  0  0  0  0  0  0  0
   59.7250   32.7560   46.6250 C   0  0  0  0  0  0  0  0  0  0  0  0
   59.0620   31.9570   47.6290 C   0  0  0  0  0  0  0  0  0  0  0  0
   58.5340   31.3180   48.4370 N   0  0  0  0  0  0  0  0  0  0  0  0
   61.1680   33.0350   46.8080 C   0  0  0  0  0  0  0  0  0  0  0  0
   61.7590   33.7800   45.9740 O   0  0  0  0  0  0  0  0  0  0  0  0
   61.9100   32.4230   47.8790 N   0  0  0  0  0  0  0  0  0  0  0  0
   61.4780   31.6360   48.4180 H   0  0  0  0  0  0  0  0  0  0  0  0
   63.2980   32.7750   48.1780 C   0  0  0  0  0  0  0  0  0  0  0  0
   63.7790   33.1581   47.2659 H   0  0  0  0  0  0  0  0  0  0  0  0
   63.8240   31.8774   48.5352 H   0  0  0  0  0  0  0  0  0  0  0  0
   63.3550   33.8480   49.2660 C   0  0  0  0  0  0  0  0  0  0  0  0
   63.5652   34.8219   48.7998 H   0  0  0  0  0  0  0  0  0  0  0  0
   64.1494   33.5818   49.9788 H   0  0  0  0  0  0  0  0  0  0  0  0
   61.7690   33.9490   50.1730 S   0  0  0  0  0  0  0  0  0  0  0  0
   62.1210   32.6780   51.4340 C   0  0  0  0  0  0  0  0  0  0  0  0
   61.5307   32.8955   52.3363 H   0  0  0  0  0  0  0  0  0  0  0  0
   63.1977   32.7005   51.6582 H   0  0  0  0  0  0  0  0  0  0  0  0
   61.7700   31.3090   50.9400 C   0  0  0  0  0  0  0  0  0  0  0  0
   60.6180   31.0180   50.3110 N   0  0  0  0  0  0  0  0  0  0  0  0
   60.7040   29.6950   50.0750 C   0  0  0  0  0  0  0  0  0  0  0  0
   59.9145   29.1225   49.5661 H   0  0  0  0  0  0  0  0  0  0  0  0
   61.8490   29.1370   50.5210 N   0  0  0  0  0  0  0  0  0  0  0  0
   62.5170   30.1620   51.0720 C   0  0  0  0  0  0  0  0  0  0  0  0
   63.8860   30.0360   51.6550 C   0  0  0  0  0  0  0  0  0  0  0  0
   63.8190   30.0422   52.7529 H   0  0  0  0  0  0  0  0  0  0  0  0
   64.3414   29.0921   51.3208 H   0  0  0  0  0  0  0  0  0  0  0  0
   64.5061   30.8809   51.3208 H   0  0  0  0  0  0  0  0  0  0  0  0
   58.2090   32.3970   44.6660 C   0  0  0  0  0  0  0  0  0  0  0  0
   58.1480   32.7480   43.3100 C   0  0  0  0  0  0  0  0  0  0  0  0
   58.6775   33.6427   42.9507 H   0  0  0  0  0  0  0  0  0  0  0  0
   57.4160   31.9640   42.4130 C   0  0  0  0  0  0  0  0  0  0  0  0
   57.3762   32.2400   41.3489 H   0  0  0  0  0  0  0  0  0  0  0  0
   56.7350   30.8310   42.8650 C   0  0  0  0  0  0  0  0  0  0  0  0
   56.1662   30.2128   42.1548 H   0  0  0  0  0  0  0  0  0  0  0  0
   56.7750   30.4790   44.2260 C   0  0  0  0  0  0  0  0  0  0  0  0
   56.0810   29.3270   44.7260 N   0  0  0  0  0  0  0  0  0  0  0  0
   56.6820   28.2590   45.4630 C   0  0  0  0  0  0  0  0  0  0  0  0
   55.9980   27.2570   45.8130 O   0  0  0  0  0  0  0  0  0  0  0  0
   58.1190   28.3040   45.7630 C   0  0  0  0  0  0  0  0  0  0  0  0
   59.1200   27.7930   44.9630 C   0  0  0  0  0  0  0  0  0  0  0  0
   58.9952   27.2783   43.9989 H   0  0  0  0  0  0  0  0  0  0  0  0
   60.3100   28.0560   45.6130 C   0  0  0  0  0  0  0  0  0  0  0  0
   61.3208   27.7918   45.2687 H   0  0  0  0  0  0  0  0  0  0  0  0
   59.9800   28.7170   46.7820 C   0  0  0  0  0  0  0  0  0  0  0  0
   60.7034   29.0712   47.5311 H   0  0  0  0  0  0  0  0  0  0  0  0
   58.6440   28.8640   46.8700 N   0  0  0  0  0  0  0  0  0  0  0  0
   58.1260   29.3270   47.6510 H   0  0  0  0  0  0  0  0  0  0  0  0
   57.4870   31.2830   45.1250 C   0  0  0  0  0  0  0  0  0  0  0  0
   57.4807   31.0404   46.1979 H   0  0  0  0  0  0  0  0  0  0  0  0
  1  2  1  0
  2  3  2  0
  3  4  1  0
  4  5  3  0
  3  6  1  0
  6  7  2  0
  6  8  1  0
  8  9  1  0
  8 10  1  0
 10 11  1  0
 10 12  1  0
 10 13  1  0
 13 14  1  0
 13 15  1  0
 13 16  1  0
 16 17  1  0
 17 18  1  0
 17 19  1  0
 17 20  1  0
 20 21  1  0
 21 22  2  0
 22 23  1  0
 22 24  1  0
 24 25  1  0
 25 26  1  0
 26 27  1  0
 26 28  1  0
 26 29  1  0
  2 30  1  0
 30 31  2  0
 31 32  1  0
 31 33  1  0
 33 34  1  0
 33 35  2  0
 35 36  1  0
 35 37  1  0
 37 38  1  0
 38 39  1  0
 39 40  2  0
 39 41  1  0
 41 42  2  0
 42 43  1  0
 42 44  1  0
 44 45  1  0
 44 46  2  0
 46 47  1  0
 46 48  1  0
 48 49  1  0
 37 50  2  0
 50 51  1  0
 25 20  2  0
 50 30  1  0
 48 41  1  0
M  CHG  2  24  -1  38  -1
M  END
>  <UniqueID>  (36) 
34

>  <SMILES>  (36) 
Cc1[n-]cnc1CSCCNC(=O)/C(C#N)=C\c1cccc([N-]C(=O)c2ccc[nH]2)c1

>  <Energy>  (36) 
105.54812499806516

>  <Genealogy>  (36) 
Cc1[n-]cnc1CSCCNC(=O)C(C#N)=Cc1cccc([N-]C(=O)c2ccc[nH]2)c1 (protonated)
Cc1[n-]cnc1CSCCNC(=O)/C(C#N)=C\c1cccc([N-]C(=O)c2ccc[nH]2)c1 (cis-trans isomerization)
Cc1[n-]cnc1CSCCNC(=O)/C(C#N)=C\c1cccc([N-]C(=O)c2ccc[nH]2)c1 (3D coordinates assigned)
Cc1[n-]cnc1CSCCNC(=O)/C(C#N)=C\c1cccc([N-]C(=O)c2ccc[nH]2)c1 (optimized conformer: 105.54812499806516 kcal/mol)

>  <smiles>  (36) 
Cc1[nH]cnc1CSCCNC(=O)C(C#N)=Cc1cccc(NC(=O)c2ccc[nH]2)c1

>  <score_type>  (36) 
oracle

>  <origin>  (36) 
adg

>  <m_score__min__energy>  (36) 
-11.69

>  <m_primary>  (36) 
energy

$$$$
36:0
     RDKit          3D

 49 52  0  0  0  0  0  0  0  0999 V2000
   59.0689   31.2720   44.6665 H   0  0  0  0  0  0  0  0  0  0  0  0
   58.6800   30.2610   44.8580 C   0  0  0  0  0  0  0  0  0  0  0  0
   58.2419   29.6755   44.0363 H   0  0  0  0  0  0  0  0  0  0  0  0
   58.7400   29.7420   46.0940 C   0  0  0  0  0  0  0  0  0  0  0  0
   58.2890   28.4780   46.4880 C   0  0  0  0  0  0  0  0  0  0  0  0
   57.7700   27.5150   45.7010 C   0  0  0  0  0  0  0  0  0  0  0  0
   57.7686   27.6814   44.6137 H   0  0  0  0  0  0  0  0  0  0  0  0
   57.2040   26.2520   46.2090 C   0  0  0  0  0  0  0  0  0  0  0  0
   57.9550   25.1840   46.5280 N   0  0  0  0  0  0  0  0  0  0  0  0
   57.0410   24.2440   46.8550 C   0  0  0  0  0  0  0  0  0  0  0  0
   57.3630   23.0870   47.2300 O   0  0  0  0  0  0  0  0  0  0  0  0
   55.7550   24.6390   46.7390 N   0  0  0  0  0  0  0  0  0  0  0  0
   55.8740   25.9080   46.3170 C   0  0  0  0  0  0  0  0  0  0  0  0
   54.7900   26.7140   45.9930 O   0  0  0  0  0  0  0  0  0  0  0  0
   58.5320   28.3860   47.8530 C   0  0  0  0  0  0  0  0  0  0  0  0
   58.3062   27.5287   48.5042 H   0  0  0  0  0  0  0  0  0  0  0  0
   59.1120   29.5800   48.2330 C   0  0  0  0  0  0  0  0  0  0  0  0
   59.5430   29.9130   49.6290 C   0  0  0  0  0  0  0  0  0  0  0  0
   58.8839   29.4038   50.3475 H   0  0  0  0  0  0  0  0  0  0  0  0
   60.5799   29.5791   49.7821 H   0  0  0  0  0  0  0  0  0  0  0  0
   59.4816   31.0006   49.7821 H   0  0  0  0  0  0  0  0  0  0  0  0
   59.2280   30.4060   47.1700 N   0  0  0  0  0  0  0  0  0  0  0  0
   59.7980   31.7270   47.1920 C   0  0  0  0  0  0  0  0  0  0  0  0
   58.9650   32.8440   47.3160 C   0  0  0  0  0  0  0  0  0  0  0  0
   57.8770   32.7094   47.4067 H   0  0  0  0  0  0  0  0  0  0  0  0
   59.5100   34.1280   47.3250 C   0  0  0  0  0  0  0  0  0  0  0  0
   58.8499   35.0028   47.4199 H   0  0  0  0  0  0  0  0  0  0  0  0
   60.8900   34.3070   47.2140 C   0  0  0  0  0  0  0  0  0  0  0  0
   61.3112   35.3231   47.2188 H   0  0  0  0  0  0  0  0  0  0  0  0
   61.7460   33.1960   47.0960 C   0  0  0  0  0  0  0  0  0  0  0  0
   63.2130   33.3880   46.9680 C   0  0  0  0  0  0  0  0  0  0  0  0
   63.6770   33.8590   45.8910 O   0  0  0  0  0  0  0  0  0  0  0  0
   64.0940   33.1120   48.0870 N   0  0  1  0  0  0  0  0  0  0  0  0
   65.1130   33.1950   47.8570 H   0  0  0  0  0  0  0  0  0  0  0  0
   63.7700   33.8380   49.3240 C   0  0  0  0  0  0  0  0  0  0  0  0
   62.9265   34.5355   49.2147 H   0  0  0  0  0  0  0  0  0  0  0  0
   64.5238   34.5103   49.7596 H   0  0  0  0  0  0  0  0  0  0  0  0
   63.4070   32.5580   50.0660 C   0  0  1  0  0  0  0  0  0  0  0  0
   63.8373   32.2965   51.0440 H   0  0  0  0  0  0  0  0  0  0  0  0
   62.0240   32.4610   50.3370 O   0  0  0  0  0  0  0  0  0  0  0  0
   61.5160   33.7470   50.6070 C   0  0  0  0  0  0  0  0  0  0  0  0
   61.4568   33.8968   51.6951 H   0  0  0  0  0  0  0  0  0  0  0  0
   62.1826   34.5041   50.1683 H   0  0  0  0  0  0  0  0  0  0  0  0
   60.5119   33.8442   50.1683 H   0  0  0  0  0  0  0  0  0  0  0  0
   63.7650   31.8510   48.7660 C   0  0  0  0  0  0  0  0  0  0  0  0
   62.9184   31.3163   48.3107 H   0  0  0  0  0  0  0  0  0  0  0  0
   64.5156   31.0471   48.7873 H   0  0  0  0  0  0  0  0  0  0  0  0
   61.1880   31.9010   47.0810 C   0  0  0  0  0  0  0  0  0  0  0  0
   61.9880   30.8070   47.0030 F   0  0  0  0  0  0  0  0  0  0  0  0
  1  2  1  0
  2  3  1  0
  2  4  2  0
  4  5  1  0
  5  6  2  0
  6  7  1  0
  6  8  1  0
  8  9  1  0
  9 10  1  0
 10 11  2  0
 10 12  1  0
 12 13  1  0
 13 14  1  0
  5 15  1  0
 15 16  1  0
 15 17  2  0
 17 18  1  0
 18 19  1  0
 18 20  1  0
 18 21  1  0
 17 22  1  0
 22 23  1  0
 23 24  2  0
 24 25  1  0
 24 26  1  0
 26 27  1  0
 26 28  2  0
 28 29  1  0
 28 30  1  0
 30 31  1  0
 31 32  2  0
 31 33  1  0
 33 34  1  1
 33 35  1  0
 35 36  1  0
 35 37  1  0
 35 38  1  0
 38 39  1  6
 38 40  1  0
 40 41  1  0
 41 42  1  0
 41 43  1  0
 41 44  1  0
 38 45  1  0
 45 46  1  0
 45 47  1  0
 30 48  2  0
 48 49  1  0
 22  4  1  0
 48 23  1  0
 13  8  2  0
 45 33  1  0
M  CHG  4   9  -1  12  -1  14  -1  33   1
M  END
>  <UniqueID>  (37) 
35

>  <SMILES>  (37) 
C=c1/c(=C/c2[n-]c(=O)[n-]c2[O-])cc(C)n1-c1cccc(C(=O)[NH+]2CC(OC)C2)c1F

>  <Energy>  (37) 
202.43961311556532

>  <Genealogy>  (37) 
C=c1c(=Cc2[n-]c(=O)[n-]c2[O-])cc(C)n1-c1cccc(C(=O)[NH+]2CC(OC)C2)c1F (protonated)
C=c1/c(=C/c2[n-]c(=O)[n-]c2[O-])cc(C)n1-c1cccc(C(=O)[NH+]2CC(OC)C2)c1F (cis-trans isomerization)
C=c1/c(=C/c2[n-]c(=O)[n-]c2[O-])cc(C)n1-c1cccc(C(=O)[NH+]2CC(OC)C2)c1F (3D coordinates assigned)
C=c1/c(=C/c2[n-]c(=O)[n-]c2[O-])cc(C)n1-c1cccc(C(=O)[NH+]2CC(OC)C2)c1F (nonaromatic ring conformer: 202.43961311556532 kcal/mol)

>  <smiles>  (37) 
C=c1c(=Cc2[nH]c(=O)[nH]c2O)cc(C)n1-c1cccc(C(=O)N2CC(OC)C2)c1F

>  <score_type>  (37) 
oracle

>  <origin>  (37) 
adg

>  <m_score__min__energy>  (37) 
-14.83

>  <m_primary>  (37) 
energy

$$$$
37:0
     RDKit          3D

 44 45  0  0  0  0  0  0  0  0999 V2000
   55.1970   24.7280   45.6610 C   0  0  0  0  0  0  0  0  0  0  0  0
   56.4520   24.8900   46.5170 C   0  0  0  0  0  0  0  0  0  0  0  0
   56.8020   26.3640   46.7490 C   0  0  0  0  0  0  0  0  0  0  0  0
   56.6490   27.1290   45.5120 N   0  0  0  0  0  0  0  0  0  0  0  0
   57.7590   27.4840   44.6720 C   0  0  0  0  0  0  0  0  0  0  0  0
   58.8600   26.8830   44.7930 O   0  0  0  0  0  0  0  0  0  0  0  0
   57.6430   28.5110   43.6820 N   0  0  0  0  0  0  0  0  0  0  0  0
   56.5910   29.8810   43.8140 S   0  0  0  0  0  0  0  0  0  0  0  0
   56.2870   30.4050   42.4380 O   0  0  0  0  0  0  0  0  0  0  0  0
   55.3010   29.4670   44.4660 O   0  0  0  0  0  0  0  0  0  0  0  0
   57.3900   31.1490   44.7390 C   0  0  0  0  0  0  0  0  0  0  0  0
   57.9770   30.8410   45.9730 C   0  0  0  0  0  0  0  0  0  0  0  0
   58.5750   31.8450   46.7400 C   0  0  0  0  0  0  0  0  0  0  0  0
   58.5720   33.1720   46.2920 C   0  0  0  0  0  0  0  0  0  0  0  0
   59.2010   34.1800   47.0940 N   0  0  0  0  0  0  0  0  0  0  0  0
   60.3130   33.9700   47.9720 C   0  0  0  0  0  0  0  0  0  0  0  0
   60.3520   34.6020   49.0600 O   0  0  0  0  0  0  0  0  0  0  0  0
   61.3800   33.0750   47.6060 N   0  0  0  0  0  0  0  0  0  0  0  0
   62.5300   32.8040   48.4240 C   0  0  0  0  0  0  0  0  0  0  0  0
   62.4360   31.8370   49.4360 C   0  0  0  0  0  0  0  0  0  0  0  0
   63.5450   31.5310   50.2300 C   0  0  0  0  0  0  0  0  0  0  0  0
   64.7650   32.1770   50.0090 C   0  0  0  0  0  0  0  0  0  0  0  0
   66.1570   31.7900   51.0020 Cl  0  0  0  0  0  0  0  0  0  0  0  0
   64.8760   33.1220   48.9840 C   0  0  0  0  0  0  0  0  0  0  0  0
   63.7680   33.4300   48.1890 C   0  0  0  0  0  0  0  0  0  0  0  0
   58.0130   33.4750   45.0390 C   0  0  0  0  0  0  0  0  0  0  0  0
   57.4210   32.4700   44.2690 C   0  0  0  0  0  0  0  0  0  0  0  0
   54.3195   24.6147   46.3146 H   0  0  0  0  0  0  0  0  0  0  0  0
   55.0690   25.6171   45.0260 H   0  0  0  0  0  0  0  0  0  0  0  0
   55.2989   23.8356   45.0260 H   0  0  0  0  0  0  0  0  0  0  0  0
   56.2824   24.4077   47.4909 H   0  0  0  0  0  0  0  0  0  0  0  0
   57.2912   24.4215   45.9820 H   0  0  0  0  0  0  0  0  0  0  0  0
   56.1314   26.7786   47.5160 H   0  0  0  0  0  0  0  0  0  0  0  0
   57.8482   26.4325   47.0818 H   0  0  0  0  0  0  0  0  0  0  0  0
   55.6960   27.4850   45.2860 H   0  0  0  0  0  0  0  0  0  0  0  0
   57.9673   29.8041   46.3402 H   0  0  0  0  0  0  0  0  0  0  0  0
   59.0499   31.5918   47.6994 H   0  0  0  0  0  0  0  0  0  0  0  0
   61.2900   32.5330   46.7200 H   0  0  0  0  0  0  0  0  0  0  0  0
   61.4824   31.3157   49.6060 H   0  0  0  0  0  0  0  0  0  0  0  0
   63.4577   30.7809   51.0298 H   0  0  0  0  0  0  0  0  0  0  0  0
   65.8377   33.6243   48.8028 H   0  0  0  0  0  0  0  0  0  0  0  0
   63.8645   34.1649   47.3762 H   0  0  0  0  0  0  0  0  0  0  0  0
   58.0414   34.5081   44.6623 H   0  0  0  0  0  0  0  0  0  0  0  0
   56.9785   32.7156   43.2924 H   0  0  0  0  0  0  0  0  0  0  0  0
  1  2  1  0
  2  3  1  0
  3  4  1  0
  4  5  1  0
  5  6  2  0
  5  7  1  0
  7  8  1  0
  8  9  2  0
  8 10  2  0
  8 11  1  0
 11 12  2  0
 12 13  1  0
 13 14  2  0
 14 15  1  0
 15 16  1  0
 16 17  2  0
 16 18  1  0
 18 19  1  0
 19 20  2  0
 20 21  1  0
 21 22  2  0
 22 23  1  0
 22 24  1  0
 24 25  2  0
 14 26  1  0
 26 27  2  0
 27 11  1  0
 25 19  1  0
  1 28  1  0
  1 29  1  0
  1 30  1  0
  2 31  1  0
  2 32  1  0
  3 33  1  0
  3 34  1  0
  4 35  1  0
 12 36  1  0
 13 37  1  0
 18 38  1  0
 20 39  1  0
 21 40  1  0
 24 41  1  0
 25 42  1  0
 26 43  1  0
 27 44  1  0
M  CHG  2   7  -1  15  -1
M  END
>  <UniqueID>  (38) 
36

>  <SMILES>  (38) 
CCCNC(=O)[N-]S(=O)(=O)c1ccc([N-]C(=O)Nc2ccc(Cl)cc2)cc1

>  <Energy>  (38) 
45.39266571234649

>  <Genealogy>  (38) 
CCCNC(=O)[N-]S(=O)(=O)c1ccc([N-]C(=O)Nc2ccc(Cl)cc2)cc1 (protonated)
CCCNC(=O)[N-]S(=O)(=O)c1ccc([N-]C(=O)Nc2ccc(Cl)cc2)cc1 (3D coordinates assigned)
CCCNC(=O)[N-]S(=O)(=O)c1ccc([N-]C(=O)Nc2ccc(Cl)cc2)cc1 (optimized conformer: 45.39266571234649 kcal/mol)

>  <smiles>  (38) 
CCCNC(=O)NS(=O)(=O)c1ccc(NC(=O)Nc2ccc(Cl)cc2)cc1

>  <score_type>  (38) 
oracle

>  <origin>  (38) 
adg

>  <m_score__min__energy>  (38) 
-10.66

>  <m_primary>  (38) 
energy

$$$$
38:0
     RDKit          3D

 39 41  0  0  0  0  0  0  0  0999 V2000
   58.2000   28.7540   48.1220 O   0  0  0  0  0  0  0  0  0  0  0  0
   59.1670   28.6170   47.3240 C   0  0  0  0  0  0  0  0  0  0  0  0
   60.3240   29.4620   47.4320 N   0  0  0  0  0  0  0  0  0  0  0  0
   60.4990   30.4610   48.4540 C   0  0  0  0  0  0  0  0  0  0  0  0
   59.6310   30.6020   49.3590 O   0  0  0  0  0  0  0  0  0  0  0  0
   61.6900   31.3330   48.4700 C   0  0  0  0  0  0  0  0  0  0  0  0
   62.3220   31.9180   47.3840 C   0  0  0  0  0  0  0  0  0  0  0  0
   63.3750   32.6400   47.9090 C   0  0  0  0  0  0  0  0  0  0  0  0
   64.2540   33.4180   47.1610 O   0  0  0  0  0  0  0  0  0  0  0  0
   63.4220   32.5190   49.2530 N   0  0  0  0  0  0  0  0  0  0  0  0
   64.3710   33.1210   50.1540 C   0  0  0  0  0  0  0  0  0  0  0  0
   65.7370   32.8040   50.0600 C   0  0  0  0  0  0  0  0  0  0  0  0
   66.6620   33.3900   50.9310 C   0  0  0  0  0  0  0  0  0  0  0  0
   66.2330   34.3030   51.8980 C   0  0  0  0  0  0  0  0  0  0  0  0
   67.1520   34.8850   52.7610 O   0  0  0  0  0  0  0  0  0  0  0  0
   64.8780   34.6320   51.9940 C   0  0  0  0  0  0  0  0  0  0  0  0
   63.9500   34.0460   51.1270 C   0  0  0  0  0  0  0  0  0  0  0  0
   62.3880   31.7250   49.6010 C   0  0  0  0  0  0  0  0  0  0  0  0
   59.1010   27.6440   46.2700 N   0  0  0  0  0  0  0  0  0  0  0  0
   58.1060   26.6080   46.1880 C   0  0  0  0  0  0  0  0  0  0  0  0
   58.4640   25.2490   46.1050 C   0  0  0  0  0  0  0  0  0  0  0  0
   57.4770   24.2650   46.0020 C   0  0  0  0  0  0  0  0  0  0  0  0
   56.1280   24.6250   45.9680 C   0  0  0  0  0  0  0  0  0  0  0  0
   55.7630   25.9740   46.0270 C   0  0  0  0  0  0  0  0  0  0  0  0
   54.4210   26.3330   45.9830 O   0  0  0  0  0  0  0  0  0  0  0  0
   56.7480   26.9610   46.1290 C   0  0  0  0  0  0  0  0  0  0  0  0
   61.0810   29.3240   46.7260 H   0  0  0  0  0  0  0  0  0  0  0  0
   62.0426   31.8261   46.3241 H   0  0  0  0  0  0  0  0  0  0  0  0
   65.0820   33.0130   46.7430 H   0  0  0  0  0  0  0  0  0  0  0  0
   66.0811   32.0906   49.2967 H   0  0  0  0  0  0  0  0  0  0  0  0
   67.7285   33.1316   50.8544 H   0  0  0  0  0  0  0  0  0  0  0  0
   64.5407   35.3533   52.7530 H   0  0  0  0  0  0  0  0  0  0  0  0
   62.8850   34.3098   51.2063 H   0  0  0  0  0  0  0  0  0  0  0  0
   62.1362   31.4320   50.6309 H   0  0  0  0  0  0  0  0  0  0  0  0
   59.7660   27.7490   45.4710 H   0  0  0  0  0  0  0  0  0  0  0  0
   59.5253   24.9604   46.1213 H   0  0  0  0  0  0  0  0  0  0  0  0
   57.7633   23.2043   45.9476 H   0  0  0  0  0  0  0  0  0  0  0  0
   55.3528   23.8480   45.8948 H   0  0  0  0  0  0  0  0  0  0  0  0
   56.4573   28.0213   46.1633 H   0  0  0  0  0  0  0  0  0  0  0  0
  1  2  2  0
  2  3  1  0
  3  4  1  0
  4  5  2  0
  4  6  1  0
  6  7  1  0
  7  8  2  0
  8  9  1  0
  8 10  1  0
 10 11  1  0
 11 12  2  0
 12 13  1  0
 13 14  2  0
 14 15  1  0
 14 16  1  0
 16 17  2  0
 10 18  1  0
  2 19  1  0
 19 20  1  0
 20 21  2  0
 21 22  1  0
 22 23  2  0
 23 24  1  0
 24 25  1  0
 24 26  2  0
 18  6  2  0
 26 20  1  0
 17 11  1  0
  3 27  1  0
  7 28  1  0
  9 29  1  0
 12 30  1  0
 13 31  1  0
 16 32  1  0
 17 33  1  0
 18 34  1  0
 19 35  1  0
 21 36  1  0
 22 37  1  0
 23 38  1  0
 26 39  1  0
M  CHG  2  15  -1  25  -1
M  END
>  <UniqueID>  (39) 
37

>  <SMILES>  (39) 
O=C(NC(=O)c1cc(O)n(-c2ccc([O-])cc2)c1)Nc1cccc([O-])c1

>  <Energy>  (39) 
76.32361369325518

>  <Genealogy>  (39) 
O=C(NC(=O)c1cc(O)n(-c2ccc([O-])cc2)c1)Nc1cccc([O-])c1 (protonated)
O=C(NC(=O)c1cc(O)n(-c2ccc([O-])cc2)c1)Nc1cccc([O-])c1 (3D coordinates assigned)
O=C(NC(=O)c1cc(O)n(-c2ccc([O-])cc2)c1)Nc1cccc([O-])c1 (optimized conformer: 76.32361369325518 kcal/mol)

>  <smiles>  (39) 
O=C(NC(=O)c1cc(O)n(-c2ccc(O)cc2)c1)Nc1cccc(O)c1

>  <score_type>  (39) 
oracle

>  <origin>  (39) 
adg

>  <m_score__min__energy>  (39) 
-10.880000000000001

>  <m_primary>  (39) 
energy

$$$$
39:0
     RDKit          3D

 44 46  0  0  0  0  0  0  0  0999 V2000
   59.6590   35.6980   46.6770 O   0  0  0  0  0  0  0  0  0  0  0  0
   59.6160   34.5350   46.1920 C   0  0  0  0  0  0  0  0  0  0  0  0
   58.8160   34.3130   44.9380 C   0  0  0  0  0  0  0  0  0  0  0  0
   57.0930   33.8430   45.3290 S   0  0  0  0  0  0  0  0  0  0  0  0
   57.2580   32.1610   44.7380 C   0  0  0  0  0  0  0  0  0  0  0  0
   56.2230   31.2920   44.8640 N   0  0  0  0  0  0  0  0  0  0  0  0
   56.3430   30.0080   44.4410 C   0  0  0  0  0  0  0  0  0  0  0  0
   55.3710   29.2180   44.5670 O   0  0  0  0  0  0  0  0  0  0  0  0
   57.5530   29.5840   43.8730 C   0  0  0  0  0  0  0  0  0  0  0  0
   57.7520   28.1780   43.3720 C   0  0  0  0  0  0  0  0  0  0  0  0
   57.3980   27.2010   44.4100 N   0  0  0  0  0  0  0  0  0  0  0  0
   58.2610   27.3660   45.5540 C   0  0  0  0  0  0  0  0  0  0  0  0
   59.6320   27.0660   45.4600 C   0  0  0  0  0  0  0  0  0  0  0  0
   60.4770   27.2700   46.5550 C   0  0  0  0  0  0  0  0  0  0  0  0
   59.9630   27.7840   47.7490 C   0  0  0  0  0  0  0  0  0  0  0  0
   60.7860   27.9860   48.8080 F   0  0  0  0  0  0  0  0  0  0  0  0
   58.6050   28.0980   47.8490 C   0  0  0  0  0  0  0  0  0  0  0  0
   57.7570   27.8940   46.7570 C   0  0  0  0  0  0  0  0  0  0  0  0
   58.5590   30.4880   43.7470 N   0  0  0  0  0  0  0  0  0  0  0  0
   58.4190   31.7450   44.1710 N   0  0  0  0  0  0  0  0  0  0  0  0
   60.3670   33.4710   46.8170 N   0  0  0  0  0  0  0  0  0  0  0  0
   61.3810   33.8110   47.8230 C   0  0  0  0  0  0  0  0  0  0  0  0
   62.4370   32.7080   47.9030 C   0  0  0  0  0  0  0  0  0  0  0  0
   61.8280   31.4460   48.0910 O   0  0  0  0  0  0  0  0  0  0  0  0
   61.0650   31.1140   46.9460 C   0  0  0  0  0  0  0  0  0  0  0  0
   59.8910   32.0820   46.7690 C   0  0  0  0  0  0  0  0  0  0  0  0
   58.8098   35.2408   44.3472 H   0  0  0  0  0  0  0  0  0  0  0  0
   59.2802   33.4943   44.3685 H   0  0  0  0  0  0  0  0  0  0  0  0
   57.1142   28.0153   42.4906 H   0  0  0  0  0  0  0  0  0  0  0  0
   58.8112   28.0440   43.1072 H   0  0  0  0  0  0  0  0  0  0  0  0
   57.4990   26.2290   44.0300 H   0  0  0  0  0  0  0  0  0  0  0  0
   56.4000   27.3350   44.6990 H   0  0  0  0  0  0  0  0  0  0  0  0
   60.0417   26.6686   44.5196 H   0  0  0  0  0  0  0  0  0  0  0  0
   61.5467   27.0259   46.4769 H   0  0  0  0  0  0  0  0  0  0  0  0
   58.2031   28.5061   48.7881 H   0  0  0  0  0  0  0  0  0  0  0  0
   56.6897   28.1476   46.8384 H   0  0  0  0  0  0  0  0  0  0  0  0
   61.8657   34.7584   47.5445 H   0  0  0  0  0  0  0  0  0  0  0  0
   60.8933   33.9125   48.8038 H   0  0  0  0  0  0  0  0  0  0  0  0
   63.0160   32.6939   46.9678 H   0  0  0  0  0  0  0  0  0  0  0  0
   63.0981   32.9126   48.7580 H   0  0  0  0  0  0  0  0  0  0  0  0
   61.7103   31.1647   46.0566 H   0  0  0  0  0  0  0  0  0  0  0  0
   60.6648   30.0975   47.0742 H   0  0  0  0  0  0  0  0  0  0  0  0
   59.4101   31.8961   45.7973 H   0  0  0  0  0  0  0  0  0  0  0  0
   59.1681   31.9220   47.5825 H   0  0  0  0  0  0  0  0  0  0  0  0
  1  2  2  0
  2  3  1  0
  3  4  1  0
  4  5  1  0
  5  6  2  0
  6  7  1  0
  7  8  2  0
  7  9  1  0
  9 10  1  0
 10 11  1  0
 11 12  1  0
 12 13  2  0
 13 14  1  0
 14 15  2  0
 15 16  1  0
 15 17  1  0
 17 18  2  0
  9 19  2  0
 19 20  1  0
  2 21  1  0
 21 22  1  0
 22 23  1  0
 23 24  1  0
 24 25  1  0
 25 26  1  0
 20  5  1  0
 26 21  1  0
 18 12  1  0
  3 27  1  0
  3 28  1  0
 10 29  1  0
 10 30  1  0
 11 31  1  0
 11 32  1  0
 13 33  1  0
 14 34  1  0
 17 35  1  0
 18 36  1  0
 22 37  1  0
 22 38  1  0
 23 39  1  0
 23 40  1  0
 25 41  1  0
 25 42  1  0
 26 43  1  0
 26 44  1  0
M  CHG  2  11   1  20  -1
M  END
>  <UniqueID>  (40) 
38

>  <SMILES>  (40) 
O=C(CSc1nc(=O)c(C[NH2+]c2ccc(F)cc2)n[n-]1)N1CCOCC1

>  <Energy>  (40) 
45.65679036172868

>  <Genealogy>  (40) 
O=C(CSc1nc(=O)c(C[NH2+]c2ccc(F)cc2)n[n-]1)N1CCOCC1 (protonated)
O=C(CSc1nc(=O)c(C[NH2+]c2ccc(F)cc2)n[n-]1)N1CCOCC1 (3D coordinates assigned)
O=C(CSc1nc(=O)c(C[NH2+]c2ccc(F)cc2)n[n-]1)N1CCOCC1 (nonaromatic ring conformer: 45.65679036172868 kcal/mol)

>  <smiles>  (40) 
O=C(CSc1nc(=O)c(CNc2ccc(F)cc2)n[nH]1)N1CCOCC1

>  <score_type>  (40) 
oracle

>  <origin>  (40) 
adg

>  <m_score__min__energy>  (40) 
-8.4399999999999995

>  <m_primary>  (40) 
energy

$$$$
40:0
     RDKit          3D

 61 63  0  0  0  0  0  0  0  0999 V2000
   57.6890   33.6440   44.9080 C   0  0  0  0  0  0  0  0  0  0  0  0
   57.9810   32.3140   45.5980 C   0  0  0  0  0  0  0  0  0  0  0  0
   57.1130   31.2170   45.0450 C   0  0  0  0  0  0  0  0  0  0  0  0
   56.0240   31.5360   44.4930 O   0  0  0  0  0  0  0  0  0  0  0  0
   57.5170   29.7860   45.0670 C   0  0  0  0  0  0  0  0  0  0  0  0
   58.8840   29.4720   45.1350 C   0  0  0  0  0  0  0  0  0  0  0  0
   59.3220   28.1390   45.1700 C   0  0  0  0  0  0  0  0  0  0  0  0
   60.8010   27.8450   45.2270 C   0  0  0  0  0  0  0  0  0  0  0  0
   61.5960   28.9200   44.4920 C   0  0  0  0  0  0  0  0  0  0  0  0
   58.3830   27.0920   45.0960 C   0  0  0  0  0  0  0  0  0  0  0  0
   58.8440   25.7640   45.0960 O   0  0  0  0  0  0  0  0  0  0  0  0
   59.0470   24.9570   46.2570 C   0  0  0  0  0  0  0  0  0  0  0  0
   58.6220   25.6770   47.5110 C   0  0  0  0  0  0  0  0  0  0  0  0
   57.3980   25.7920   47.7810 O   0  0  0  0  0  0  0  0  0  0  0  0
   59.5750   26.3540   48.3400 N   0  0  0  0  0  0  0  0  0  0  0  0
   59.6210   27.7670   48.5700 C   0  0  0  0  0  0  0  0  0  0  0  0
   58.5660   28.6030   48.1680 C   0  0  0  0  0  0  0  0  0  0  0  0
   58.6390   29.9810   48.3850 C   0  0  0  0  0  0  0  0  0  0  0  0
   59.7720   30.5420   48.9920 C   0  0  0  0  0  0  0  0  0  0  0  0
   59.8420   32.2740   49.3200 S   0  0  0  0  0  0  0  0  0  0  0  0
   58.4680   32.8650   49.1630 O   0  0  0  0  0  0  0  0  0  0  0  0
   60.2820   32.4920   50.7410 O   0  0  0  0  0  0  0  0  0  0  0  0
   60.9430   33.0870   48.2300 N   0  0  0  0  0  0  0  0  0  0  0  0
   62.1310   33.5740   48.9660 C   0  0  0  0  0  0  0  0  0  0  0  0
   63.2910   33.8850   48.0150 C   0  0  0  0  0  0  0  0  0  0  0  0
   63.7490   32.6170   47.2710 C   0  0  0  0  0  0  0  0  0  0  0  0
   62.6240   31.5780   47.1200 C   0  0  0  0  0  0  0  0  0  0  0  0
   61.2470   32.2550   47.0400 C   0  0  0  0  0  0  0  0  0  0  0  0
   60.8440   29.7110   49.3500 C   0  0  0  0  0  0  0  0  0  0  0  0
   60.7720   28.3330   49.1290 C   0  0  0  0  0  0  0  0  0  0  0  0
   57.0140   27.4060   45.0160 C   0  0  0  0  0  0  0  0  0  0  0  0
   56.5810   28.7350   44.9950 C   0  0  0  0  0  0  0  0  0  0  0  0
   55.2200   28.9870   44.8730 O   0  0  0  0  0  0  0  0  0  0  0  0
   57.5183   34.4213   45.6674 H   0  0  0  0  0  0  0  0  0  0  0  0
   58.5464   33.9271   44.2797 H   0  0  0  0  0  0  0  0  0  0  0  0
   56.7919   33.5419   44.2797 H   0  0  0  0  0  0  0  0  0  0  0  0
   59.0373   32.0511   45.4397 H   0  0  0  0  0  0  0  0  0  0  0  0
   57.7671   32.4221   46.6716 H   0  0  0  0  0  0  0  0  0  0  0  0
   59.6245   30.2850   45.1613 H   0  0  0  0  0  0  0  0  0  0  0  0
   61.1223   27.8146   46.2786 H   0  0  0  0  0  0  0  0  0  0  0  0
   60.9866   26.8755   44.7416 H   0  0  0  0  0  0  0  0  0  0  0  0
   62.0841   29.5800   45.2242 H   0  0  0  0  0  0  0  0  0  0  0  0
   62.3607   28.4435   43.8610 H   0  0  0  0  0  0  0  0  0  0  0  0
   60.9164   29.5115   43.8610 H   0  0  0  0  0  0  0  0  0  0  0  0
   58.4577   24.0334   46.1579 H   0  0  0  0  0  0  0  0  0  0  0  0
   60.1204   24.7299   46.3362 H   0  0  0  0  0  0  0  0  0  0  0  0
   57.6795   28.1710   47.6807 H   0  0  0  0  0  0  0  0  0  0  0  0
   57.8044   30.6287   48.0785 H   0  0  0  0  0  0  0  0  0  0  0  0
   61.8621   34.4895   49.5134 H   0  0  0  0  0  0  0  0  0  0  0  0
   62.4552   32.7844   49.6598 H   0  0  0  0  0  0  0  0  0  0  0  0
   62.9626   34.6346   47.2800 H   0  0  0  0  0  0  0  0  0  0  0  0
   64.1355   34.2692   48.6059 H   0  0  0  0  0  0  0  0  0  0  0  0
   64.0995   32.9044   46.2687 H   0  0  0  0  0  0  0  0  0  0  0  0
   64.5508   32.1545   47.8653 H   0  0  0  0  0  0  0  0  0  0  0  0
   62.7924   30.9983   46.2004 H   0  0  0  0  0  0  0  0  0  0  0  0
   62.6374   30.9206   48.0019 H   0  0  0  0  0  0  0  0  0  0  0  0
   61.2229   32.8972   46.1472 H   0  0  0  0  0  0  0  0  0  0  0  0
   60.4898   31.4586   46.9918 H   0  0  0  0  0  0  0  0  0  0  0  0
   61.7452   30.1460   49.8067 H   0  0  0  0  0  0  0  0  0  0  0  0
   61.6240   27.6904   49.3957 H   0  0  0  0  0  0  0  0  0  0  0  0
   56.2735   26.5939   44.9693 H   0  0  0  0  0  0  0  0  0  0  0  0
  1  2  1  0
  2  3  1  0
  3  4  2  0
  3  5  1  0
  5  6  2  0
  6  7  1  0
  7  8  1  0
  8  9  1  0
  7 10  2  0
 10 11  1  0
 11 12  1  0
 12 13  1  0
 13 14  2  0
 13 15  1  0
 15 16  1  0
 16 17  2  0
 17 18  1  0
 18 19  2  0
 19 20  1  0
 20 21  2  0
 20 22  2  0
 20 23  1  0
 23 24  1  0
 24 25  1  0
 25 26  1  0
 26 27  1  0
 27 28  1  0
 19 29  1  0
 29 30  2  0
 10 31  1  0
 31 32  2  0
 32 33  1  0
 32  5  1  0
 30 16  1  0
 28 23  1  0
  1 34  1  0
  1 35  1  0
  1 36  1  0
  2 37  1  0
  2 38  1  0
  6 39  1  0
  8 40  1  0
  8 41  1  0
  9 42  1  0
  9 43  1  0
  9 44  1  0
 12 45  1  0
 12 46  1  0
 17 47  1  0
 18 48  1  0
 24 49  1  0
 24 50  1  0
 25 51  1  0
 25 52  1  0
 26 53  1  0
 26 54  1  0
 27 55  1  0
 27 56  1  0
 28 57  1  0
 28 58  1  0
 29 59  1  0
 30 60  1  0
 31 61  1  0
M  CHG  2  15  -1  33  -1
M  END
>  <UniqueID>  (41) 
39

>  <SMILES>  (41) 
CCC(=O)c1cc(CC)c(OCC(=O)[N-]c2ccc(S(=O)(=O)N3CCCCC3)cc2)cc1[O-]

>  <Energy>  (41) 
70.91992388036122

>  <Genealogy>  (41) 
CCC(=O)c1cc(CC)c(OCC(=O)[N-]c2ccc(S(=O)(=O)N3CCCCC3)cc2)cc1[O-] (protonated)
CCC(=O)c1cc(CC)c(OCC(=O)[N-]c2ccc(S(=O)(=O)N3CCCCC3)cc2)cc1[O-] (3D coordinates assigned)
CCC(=O)c1cc(CC)c(OCC(=O)[N-]c2ccc(S(=O)(=O)N3CCCCC3)cc2)cc1[O-] (nonaromatic ring conformer: 70.91992388036122 kcal/mol)

>  <smiles>  (41) 
CCC(=O)c1cc(CC)c(OCC(=O)Nc2ccc(S(=O)(=O)N3CCCCC3)cc2)cc1O

>  <score_type>  (41) 
oracle

>  <origin>  (41) 
adg

>  <m_score__min__energy>  (41) 
-13.84

>  <m_primary>  (41) 
energy

$$$$
41:0
     RDKit          3D

 42 44  0  0  1  0  0  0  0  0999 V2000
   56.5920   26.8260   45.5050 O   0  0  0  0  0  0  0  0  0  0  0  0
   57.0510   27.9990   45.5220 C   0  0  0  0  0  0  0  0  0  0  0  0
   58.4850   28.1870   45.8660 C   0  0  0  0  0  0  0  0  0  0  0  0
   58.6600   29.4400   46.5700 N   0  0  0  0  0  0  0  0  0  0  0  0
   59.9420   30.0070   46.7390 C   0  0  0  0  0  0  0  0  0  0  0  0
   60.9750   29.4660   46.2970 O   0  0  0  0  0  0  0  0  0  0  0  0
   60.0550   31.2490   47.4440 N   0  0  0  0  0  0  0  0  0  0  0  0
   61.3380   31.8500   47.6320 C   0  0  0  0  0  0  0  0  0  0  0  0
   61.6460   32.8920   46.7570 C   0  0  0  0  0  0  0  0  0  0  0  0
   62.8740   33.5290   46.8720 C   0  0  0  0  0  0  0  0  0  0  0  0
   63.7630   33.1200   47.8440 C   0  0  0  0  0  0  0  0  0  0  0  0
   63.4510   32.0750   48.7210 C   0  0  0  0  0  0  0  0  0  0  0  0
   62.2210   31.4340   48.6070 C   0  0  0  0  0  0  0  0  0  0  0  0
   56.2470   29.1350   45.2230 N   0  0  0  0  0  0  0  0  0  0  0  0
   56.7370   30.1670   44.6230 C   0  0  0  0  0  0  0  0  0  0  0  0
   56.6580   30.1810   43.2470 C   0  0  0  0  0  0  0  0  0  0  0  0
   57.1830   31.2880   42.5730 C   0  0  0  0  0  0  0  0  0  0  0  0
   57.7290   32.2690   43.3150 N   0  0  0  0  0  0  0  0  0  0  0  0
   57.7800   32.2040   44.6660 C   0  0  0  0  0  0  0  0  0  0  0  0
   58.3960   33.3230   45.3740 C   0  0  0  0  0  0  0  0  0  0  0  0
   59.0470   34.3060   44.6570 C   0  0  0  0  0  0  0  0  0  0  0  0
   59.6150   35.3450   45.3610 C   0  0  0  0  0  0  0  0  0  0  0  0
   59.5330   35.3970   46.7510 C   0  0  0  0  0  0  0  0  0  0  0  0
   58.8680   34.3800   47.4010 C   0  0  0  0  0  0  0  0  0  0  0  0
   58.3150   33.3690   46.7150 N   0  0  0  0  0  0  0  0  0  0  0  0
   57.2880   31.1560   45.3460 N   0  0  0  0  0  0  0  0  0  0  0  0
   58.8184   27.3580   46.5075 H   0  0  0  0  0  0  0  0  0  0  0  0
   59.0812   28.2032   44.9418 H   0  0  0  0  0  0  0  0  0  0  0  0
   57.8330   29.9550   46.9720 H   0  0  0  0  0  0  0  0  0  0  0  0
   59.1890   31.7260   47.8290 H   0  0  0  0  0  0  0  0  0  0  0  0
   60.9257   33.2045   45.9866 H   0  0  0  0  0  0  0  0  0  0  0  0
   63.1361   34.3538   46.1930 H   0  0  0  0  0  0  0  0  0  0  0  0
   64.7363   33.6251   47.9316 H   0  0  0  0  0  0  0  0  0  0  0  0
   64.1706   31.7635   49.4925 H   0  0  0  0  0  0  0  0  0  0  0  0
   61.9568   30.6082   49.2840 H   0  0  0  0  0  0  0  0  0  0  0  0
   56.1966   29.3478   42.6966 H   0  0  0  0  0  0  0  0  0  0  0  0
   57.1508   31.3546   41.4755 H   0  0  0  0  0  0  0  0  0  0  0  0
   58.1170   33.0890   42.7930 H   0  0  0  0  0  0  0  0  0  0  0  0
   59.1103   34.2614   43.5597 H   0  0  0  0  0  0  0  0  0  0  0  0
   60.1405   36.1446   44.8183 H   0  0  0  0  0  0  0  0  0  0  0  0
   59.9863   36.2265   47.3136 H   0  0  0  0  0  0  0  0  0  0  0  0
   58.7897   34.3977   48.4981 H   0  0  0  0  0  0  0  0  0  0  0  0
  1  2  2  0
  2  3  1  0
  3  4  1  0
  4  5  1  0
  5  6  2  0
  5  7  1  0
  7  8  1  0
  8  9  2  0
  9 10  1  0
 10 11  2  0
 11 12  1  0
 12 13  2  0
  2 14  1  0
 14 15  2  0
 15 16  1  0
 16 17  2  0
 17 18  1  0
 18 19  1  0
 19 20  1  0
 20 21  2  0
 21 22  1  0
 22 23  2  0
 23 24  1  0
 24 25  2  0
 19 26  2  0
 13  8  1  0
 26 15  1  0
 25 20  1  0
  3 27  1  0
  3 28  1  0
  4 29  1  0
  7 30  1  0
  9 31  1  0
 10 32  1  0
 11 33  1  0
 12 34  1  0
 13 35  1  0
 16 36  1  0
 17 37  1  0
 18 38  1  0
 21 39  1  0
 22 40  1  0
 23 41  1  0
 24 42  1  0
M  END
>  <smiles>  (42) 
O=C(CNC(=O)Nc1ccccc1)N=c1cc[nH]c(-c2ccccn2)n1

>  <score_type>  (42) 
oracle

>  <origin>  (42) 
adg

>  <m_score__min__energy>  (42) 
-8.0600000000000005

>  <m_primary>  (42) 
energy

$$$$
42:0
     RDKit          3D

 43 47  0  0  0  0  0  0  0  0999 V2000
   56.2720   30.4650   43.1040 C   0  0  0  0  0  0  0  0  0  0  0  0
   56.3400   30.4280   44.5260 O   0  0  0  0  0  0  0  0  0  0  0  0
   57.2500   29.6520   45.2620 C   0  0  0  0  0  0  0  0  0  0  0  0
   57.0720   28.2640   45.4280 C   0  0  0  0  0  0  0  0  0  0  0  0
   58.0210   27.5010   46.1130 C   0  0  0  0  0  0  0  0  0  0  0  0
   59.1630   28.1040   46.6420 C   0  0  0  0  0  0  0  0  0  0  0  0
   59.3520   29.4840   46.5100 C   0  0  0  0  0  0  0  0  0  0  0  0
   58.3790   30.2710   45.8420 C   0  0  0  0  0  0  0  0  0  0  0  0
   58.7420   31.7260   45.6370 C   0  0  1  0  0  0  0  0  0  0  0  0
   57.6910   32.7790   45.4240 C   0  0  0  0  0  0  0  0  0  0  0  0
   58.4130   34.0300   45.9490 C   0  0  0  0  0  0  0  0  0  0  0  0
   59.5650   33.6330   46.6760 O   0  0  0  0  0  0  0  0  0  0  0  0
   59.3870   32.2590   46.8950 C   0  0  2  0  0  0  0  0  0  0  0  0
   60.6440   31.4750   47.1930 C   0  0  0  0  0  0  0  0  0  0  0  0
   61.8580   32.1160   47.7430 C   0  0  0  0  0  0  0  0  0  0  0  0
   63.0930   32.2070   47.1060 C   0  0  0  0  0  0  0  0  0  0  0  0
   63.9820   32.8640   47.8830 N   0  0  0  0  0  0  0  0  0  0  0  0
   63.3260   33.1830   49.0110 C   0  0  0  0  0  0  0  0  0  0  0  0
   63.8430   33.8440   50.1240 C   0  0  0  0  0  0  0  0  0  0  0  0
   62.9920   34.0440   51.2260 C   0  0  0  0  0  0  0  0  0  0  0  0
   61.6620   33.5700   51.1950 C   0  0  0  0  0  0  0  0  0  0  0  0
   61.1680   32.9030   50.0610 C   0  0  0  0  0  0  0  0  0  0  0  0
   62.0270   32.7390   48.9700 C   0  0  0  0  0  0  0  0  0  0  0  0
   60.5800   30.1330   47.0580 C   0  0  0  0  0  0  0  0  0  0  0  0
   55.3449   30.9695   42.7943 H   0  0  0  0  0  0  0  0  0  0  0  0
   57.1386   31.0160   42.7097 H   0  0  0  0  0  0  0  0  0  0  0  0
   56.2800   29.4381   42.7097 H   0  0  0  0  0  0  0  0  0  0  0  0
   56.1770   27.7764   45.0142 H   0  0  0  0  0  0  0  0  0  0  0  0
   57.8672   26.4188   46.2361 H   0  0  0  0  0  0  0  0  0  0  0  0
   59.9153   27.4937   47.1632 H   0  0  0  0  0  0  0  0  0  0  0  0
   59.3190   31.6223   44.7062 H   0  0  0  0  0  0  0  0  0  0  0  0
   57.4311   32.8800   44.3599 H   0  0  0  0  0  0  0  0  0  0  0  0
   56.7327   32.5682   45.9212 H   0  0  0  0  0  0  0  0  0  0  0  0
   58.7130   34.6644   45.1019 H   0  0  0  0  0  0  0  0  0  0  0  0
   57.7382   34.5975   46.6067 H   0  0  0  0  0  0  0  0  0  0  0  0
   58.7775   32.1353   47.8023 H   0  0  0  0  0  0  0  0  0  0  0  0
   63.3142   31.8002   46.1082 H   0  0  0  0  0  0  0  0  0  0  0  0
   64.9780   33.0740   47.6520 H   0  0  0  0  0  0  0  0  0  0  0  0
   64.8843   34.1983   50.1400 H   0  0  0  0  0  0  0  0  0  0  0  0
   63.3642   34.5721   52.1162 H   0  0  0  0  0  0  0  0  0  0  0  0
   61.0075   33.7242   52.0655 H   0  0  0  0  0  0  0  0  0  0  0  0
   60.1367   32.5215   50.0325 H   0  0  0  0  0  0  0  0  0  0  0  0
   61.4391   29.5131   47.3540 H   0  0  0  0  0  0  0  0  0  0  0  0
  1  2  1  0
  2  3  1  0
  3  4  2  0
  4  5  1  0
  5  6  2  0
  6  7  1  0
  7  8  2  0
  8  9  1  0
  9 10  1  0
 10 11  1  0
 11 12  1  0
 12 13  1  0
 13 14  1  0
 14 15  1  0
 15 16  2  0
 16 17  1  0
 17 18  1  0
 18 19  2  0
 19 20  1  0
 20 21  2  0
 21 22  1  0
 22 23  2  0
 14 24  2  0
  8  3  1  0
 13  9  1  0
 23 15  1  0
 24  7  1  0
 23 18  1  0
  1 25  1  0
  1 26  1  0
  1 27  1  0
  4 28  1  0
  5 29  1  0
  6 30  1  0
  9 31  1  6
 10 32  1  0
 10 33  1  0
 11 34  1  0
 11 35  1  0
 13 36  1  1
 16 37  1  0
 17 38  1  0
 19 39  1  0
 20 40  1  0
 21 41  1  0
 22 42  1  0
 24 43  1  0
M  END
>  <UniqueID>  (43) 
40

>  <SMILES>  (43) 
COc1cccc2c1[C@H]1CCO[C@@H]1C(c1c[nH]c3ccccc13)=C2

>  <Energy>  (43) 
101.19078420409951

>  <Genealogy>  (43) 
COc1cccc2c1[C@H]1CCO[C@@H]1C(c1c[nH]c3ccccc13)=C2 (chirality)
COc1cccc2c1[C@H]1CCO[C@@H]1C(c1c[nH]c3ccccc13)=C2 (3D coordinates assigned)
COc1cccc2c1[C@H]1CCO[C@@H]1C(c1c[nH]c3ccccc13)=C2 (nonaromatic ring conformer: 101.19078420409951 kcal/mol)

>  <smiles>  (43) 
COc1cccc2c1C1CCOC1C(c1c[nH]c3ccccc13)=C2

>  <score_type>  (43) 
oracle

>  <origin>  (43) 
adg

>  <m_score__min__energy>  (43) 
-8.3599999999999994

>  <m_primary>  (43) 
energy

$$$$
43:0
     RDKit          3D

 46 48  0  0  0  0  0  0  0  0999 V2000
   59.0073   27.9107   42.9009 H   0  0  0  0  0  0  0  0  0  0  0  0
   58.3770   27.0750   43.2390 C   0  0  0  0  0  0  0  0  0  0  0  0
   57.7254   26.5528   42.5229 H   0  0  0  0  0  0  0  0  0  0  0  0
   58.4030   26.6920   44.5270 C   0  0  0  0  0  0  0  0  0  0  0  0
   57.6590   25.6520   45.0930 C   0  0  0  0  0  0  0  0  0  0  0  0
   56.8050   24.8200   44.4640 C   0  0  0  0  0  0  0  0  0  0  0  0
   57.1313   24.3638   43.5177 H   0  0  0  0  0  0  0  0  0  0  0  0
   55.4600   24.4840   44.9670 C   0  0  0  0  0  0  0  0  0  0  0  0
   54.8560   23.3070   44.7260 N   0  0  0  0  0  0  0  0  0  0  0  0
   53.6360   23.4620   45.2840 C   0  0  0  0  0  0  0  0  0  0  0  0
   52.7670   22.5500   45.2760 O   0  0  0  0  0  0  0  0  0  0  0  0
   53.4150   24.6710   45.8400 N   0  0  0  0  0  0  0  0  0  0  0  0
   54.5740   25.3130   45.6200 C   0  0  0  0  0  0  0  0  0  0  0  0
   54.7950   26.6390   45.9680 O   0  0  0  0  0  0  0  0  0  0  0  0
   58.0210   25.5980   46.4310 C   0  0  0  0  0  0  0  0  0  0  0  0
   57.6396   24.8956   47.1868 H   0  0  0  0  0  0  0  0  0  0  0  0
   58.9530   26.5970   46.6300 C   0  0  0  0  0  0  0  0  0  0  0  0
   59.6240   26.8810   47.9400 C   0  0  0  0  0  0  0  0  0  0  0  0
   58.9535   26.5972   48.7645 H   0  0  0  0  0  0  0  0  0  0  0  0
   60.5555   26.3000   48.0084 H   0  0  0  0  0  0  0  0  0  0  0  0
   59.8554   27.9542   48.0084 H   0  0  0  0  0  0  0  0  0  0  0  0
   59.1760   27.2750   45.4800 N   0  0  0  0  0  0  0  0  0  0  0  0
   60.1360   28.3750   45.3050 C   0  0  0  0  0  0  0  0  0  0  0  0
   60.9181   28.3004   46.0749 H   0  0  0  0  0  0  0  0  0  0  0  0
   60.5857   28.3023   44.3037 H   0  0  0  0  0  0  0  0  0  0  0  0
   59.4240   29.7270   45.4360 C   0  0  0  0  0  0  0  0  0  0  0  0
   58.6314   29.6398   46.1938 H   0  0  0  0  0  0  0  0  0  0  0  0
   60.1711   30.4793   45.7291 H   0  0  0  0  0  0  0  0  0  0  0  0
   58.7970   30.1710   44.1130 C   0  0  0  0  0  0  0  0  0  0  0  0
   59.5590   30.1352   43.3205 H   0  0  0  0  0  0  0  0  0  0  0  0
   57.9649   29.4949   43.8672 H   0  0  0  0  0  0  0  0  0  0  0  0
   58.2850   31.5300   44.2260 N   0  0  0  0  0  0  0  0  0  0  0  0
   57.0280   31.8230   44.8350 C   0  0  0  0  0  0  0  0  0  0  0  0
   56.0160   31.1460   44.5130 O   0  0  0  0  0  0  0  0  0  0  0  0
   56.9220   32.8920   45.7380 O   0  0  0  0  0  0  0  0  0  0  0  0
   57.9870   33.4580   46.4550 C   0  0  0  0  0  0  0  0  0  0  0  0
   58.2660   32.9620   47.7350 C   0  0  0  0  0  0  0  0  0  0  0  0
   57.6591   32.1424   48.1473 H   0  0  0  0  0  0  0  0  0  0  0  0
   59.3100   33.5010   48.4920 C   0  0  0  0  0  0  0  0  0  0  0  0
   59.5282   33.0986   49.4922 H   0  0  0  0  0  0  0  0  0  0  0  0
   60.0770   34.5510   47.9790 C   0  0  0  0  0  0  0  0  0  0  0  0
   60.9030   34.9701   48.5724 H   0  0  0  0  0  0  0  0  0  0  0  0
   59.7940   35.0680   46.7120 C   0  0  0  0  0  0  0  0  0  0  0  0
   60.3925   35.8996   46.3117 H   0  0  0  0  0  0  0  0  0  0  0  0
   58.7500   34.5290   45.9520 C   0  0  0  0  0  0  0  0  0  0  0  0
   58.5247   34.9434   44.9583 H   0  0  0  0  0  0  0  0  0  0  0  0
  1  2  1  0
  2  3  1  0
  2  4  2  0
  4  5  1  0
  5  6  2  0
  6  7  1  0
  6  8  1  0
  8  9  1  0
  9 10  1  0
 10 11  2  0
 10 12  1  0
 12 13  1  0
 13 14  1  0
  5 15  1  0
 15 16  1  0
 15 17  2  0
 17 18  1  0
 18 19  1  0
 18 20  1  0
 18 21  1  0
 17 22  1  0
 22 23  1  0
 23 24  1  0
 23 25  1  0
 23 26  1  0
 26 27  1  0
 26 28  1  0
 26 29  1  0
 29 30  1  0
 29 31  1  0
 29 32  1  0
 32 33  1  0
 33 34  2  0
 33 35  1  0
 35 36  1  0
 36 37  2  0
 37 38  1  0
 37 39  1  0
 39 40  1  0
 39 41  2  0
 41 42  1  0
 41 43  1  0
 43 44  1  0
 43 45  2  0
 45 46  1  0
 22  4  1  0
 45 36  1  0
 13  8  2  0
M  CHG  4   9  -1  12  -1  14  -1  32  -1
M  END
>  <UniqueID>  (44) 
41

>  <SMILES>  (44) 
C=c1/c(=C/c2[n-]c(=O)[n-]c2[O-])cc(C)n1CCC[N-]C(=O)Oc1ccccc1

>  <Energy>  (44) 
109.88675181195798

>  <Genealogy>  (44) 
C=c1c(=Cc2[n-]c(=O)[n-]c2[O-])cc(C)n1CCC[N-]C(=O)Oc1ccccc1 (protonated)
C=c1/c(=C/c2[n-]c(=O)[n-]c2[O-])cc(C)n1CCC[N-]C(=O)Oc1ccccc1 (cis-trans isomerization)
C=c1/c(=C/c2[n-]c(=O)[n-]c2[O-])cc(C)n1CCC[N-]C(=O)Oc1ccccc1 (3D coordinates assigned)
C=c1/c(=C/c2[n-]c(=O)[n-]c2[O-])cc(C)n1CCC[N-]C(=O)Oc1ccccc1 (optimized conformer: 109.88675181195798 kcal/mol)

>  <smiles>  (44) 
C=c1c(=Cc2[nH]c(=O)[nH]c2O)cc(C)n1CCCNC(=O)Oc1ccccc1

>  <score_type>  (44) 
oracle

>  <origin>  (44) 
adg

>  <m_score__min__energy>  (44) 
-17.02

>  <m_primary>  (44) 
energy

$$$$
44:0
     RDKit          3D

 63 66  0  0  0  0  0  0  0  0999 V2000
   58.5860   28.8080   48.4990 C   0  0  0  0  0  0  0  0  0  0  0  0
   59.4120   28.7040   47.2370 C   0  0  0  0  0  0  0  0  0  0  0  0
   60.5430   29.5380   47.0380 C   0  0  0  0  0  0  0  0  0  0  0  0
   61.0440   30.3760   48.0430 O   0  0  0  0  0  0  0  0  0  0  0  0
   60.4490   31.6280   48.3880 C   0  0  0  0  0  0  0  0  0  0  0  0
   61.4920   32.7120   48.4930 C   0  0  0  0  0  0  0  0  0  0  0  0
   62.6760   32.6800   49.2220 C   0  0  0  0  0  0  0  0  0  0  0  0
   63.1500   31.6160   50.1240 C   0  0  0  0  0  0  0  0  0  0  0  0
   62.2070   30.7120   50.6410 C   0  0  0  0  0  0  0  0  0  0  0  0
   62.6040   29.6230   51.4400 C   0  0  0  0  0  0  0  0  0  0  0  0
   61.5770   28.6140   51.9340 C   0  0  0  0  0  0  0  0  0  0  0  0
   60.3520   29.3040   52.5450 C   0  0  0  0  0  0  0  0  0  0  0  0
   61.1630   27.6670   50.8030 C   0  0  0  0  0  0  0  0  0  0  0  0
   63.9750   29.4540   51.7170 C   0  0  0  0  0  0  0  0  0  0  0  0
   64.4240   28.3720   52.4680 O   0  0  0  0  0  0  0  0  0  0  0  0
   64.9120   30.3770   51.2400 C   0  0  0  0  0  0  0  0  0  0  0  0
   64.5100   31.4680   50.4640 C   0  0  0  0  0  0  0  0  0  0  0  0
   65.4740   32.4000   50.0760 O   0  0  0  0  0  0  0  0  0  0  0  0
   63.3270   33.8490   49.0720 N   0  0  0  0  0  0  0  0  0  0  0  0
   62.6190   34.5810   48.2630 O   0  0  0  0  0  0  0  0  0  0  0  0
   61.5250   33.9630   47.8770 C   0  0  0  0  0  0  0  0  0  0  0  0
   60.5310   34.6110   46.9430 C   0  0  0  0  0  0  0  0  0  0  0  0
   59.2090   34.9240   47.6520 C   0  0  0  0  0  0  0  0  0  0  0  0
   60.3250   33.8010   45.6560 C   0  0  0  0  0  0  0  0  0  0  0  0
   61.1700   29.5720   45.7860 C   0  0  0  0  0  0  0  0  0  0  0  0
   60.7540   28.7300   44.7590 C   0  0  0  0  0  0  0  0  0  0  0  0
   59.7010   27.8400   44.9690 C   0  0  0  0  0  0  0  0  0  0  0  0
   59.0210   27.8200   46.1990 C   0  0  0  0  0  0  0  0  0  0  0  0
   57.9130   26.8560   46.3810 C   0  0  0  0  0  0  0  0  0  0  0  0
   58.1660   25.6830   47.0210 N   0  0  0  0  0  0  0  0  0  0  0  0
   57.1960   24.7530   47.2040 C   0  0  0  0  0  0  0  0  0  0  0  0
   57.4630   23.6730   47.7920 O   0  0  0  0  0  0  0  0  0  0  0  0
   55.9390   24.9830   46.7450 N   0  0  0  0  0  0  0  0  0  0  0  0
   55.6310   26.1370   46.0990 C   0  0  0  0  0  0  0  0  0  0  0  0
   54.3310   26.3410   45.6500 O   0  0  0  0  0  0  0  0  0  0  0  0
   56.6160   27.1120   45.8960 C   0  0  0  0  0  0  0  0  0  0  0  0
   56.2770   28.3630   45.2560 C   0  0  0  0  0  0  0  0  0  0  0  0
   56.0030   29.3640   44.7440 N   0  0  0  0  0  0  0  0  0  0  0  0
   59.2446   28.7251   49.3761 H   0  0  0  0  0  0  0  0  0  0  0  0
   58.0684   29.7784   48.5195 H   0  0  0  0  0  0  0  0  0  0  0  0
   57.8440   27.9962   48.5195 H   0  0  0  0  0  0  0  0  0  0  0  0
   59.7192   31.9050   47.6130 H   0  0  0  0  0  0  0  0  0  0  0  0
   59.9535   31.5230   49.3645 H   0  0  0  0  0  0  0  0  0  0  0  0
   61.1398   30.8576   50.4176 H   0  0  0  0  0  0  0  0  0  0  0  0
   62.0501   28.0206   52.7303 H   0  0  0  0  0  0  0  0  0  0  0  0
   60.4192   29.2662   53.6423 H   0  0  0  0  0  0  0  0  0  0  0  0
   60.3197   30.3530   52.2156 H   0  0  0  0  0  0  0  0  0  0  0  0
   59.4381   28.7879   52.2156 H   0  0  0  0  0  0  0  0  0  0  0  0
   60.7573   26.7389   51.2319 H   0  0  0  0  0  0  0  0  0  0  0  0
   60.3943   28.1509   50.1825 H   0  0  0  0  0  0  0  0  0  0  0  0
   62.0402   27.4313   50.1825 H   0  0  0  0  0  0  0  0  0  0  0  0
   65.9774   30.2426   51.4784 H   0  0  0  0  0  0  0  0  0  0  0  0
   65.3250   33.0610   49.3230 H   0  0  0  0  0  0  0  0  0  0  0  0
   60.9640   35.5735   46.6329 H   0  0  0  0  0  0  0  0  0  0  0  0
   59.3596   34.8883   48.7411 H   0  0  0  0  0  0  0  0  0  0  0  0
   58.8661   35.9281   47.3619 H   0  0  0  0  0  0  0  0  0  0  0  0
   58.4523   34.1802   47.3619 H   0  0  0  0  0  0  0  0  0  0  0  0
   60.0614   32.7645   45.9133 H   0  0  0  0  0  0  0  0  0  0  0  0
   59.5125   34.2503   45.0661 H   0  0  0  0  0  0  0  0  0  0  0  0
   61.2534   33.8076   45.0661 H   0  0  0  0  0  0  0  0  0  0  0  0
   62.0005   30.2721   45.6125 H   0  0  0  0  0  0  0  0  0  0  0  0
   61.2561   28.7665   43.7809 H   0  0  0  0  0  0  0  0  0  0  0  0
   59.4008   27.1494   44.1671 H   0  0  0  0  0  0  0  0  0  0  0  0
  1  2  1  0
  2  3  2  0
  3  4  1  0
  4  5  1  0
  5  6  1  0
  6  7  1  0
  7  8  1  0
  8  9  2  0
  9 10  1  0
 10 11  1  0
 11 12  1  0
 11 13  1  0
 10 14  2  0
 14 15  1  0
 14 16  1  0
 16 17  2  0
 17 18  1  0
  7 19  2  0
 19 20  1  0
 20 21  1  0
 21 22  1  0
 22 23  1  0
 22 24  1  0
  3 25  1  0
 25 26  2  0
 26 27  1  0
 27 28  2  0
 28 29  1  0
 29 30  2  0
 30 31  1  0
 31 32  2  0
 31 33  1  0
 33 34  1  0
 34 35  1  0
 34 36  2  0
 36 37  1  0
 37 38  3  0
 28  2  1  0
 36 29  1  0
 21  6  2  0
 17  8  1  0
  1 39  1  0
  1 40  1  0
  1 41  1  0
  5 42  1  0
  5 43  1  0
  9 44  1  0
 11 45  1  0
 12 46  1  0
 12 47  1  0
 12 48  1  0
 13 49  1  0
 13 50  1  0
 13 51  1  0
 16 52  1  0
 18 53  1  0
 22 54  1  0
 23 55  1  0
 23 56  1  0
 23 57  1  0
 24 58  1  0
 24 59  1  0
 24 60  1  0
 25 61  1  0
 26 62  1  0
 27 63  1  0
M  CHG  3  15  -1  33  -1  35  -1
M  END
>  <UniqueID>  (45) 
42

>  <SMILES>  (45) 
Cc1c(OCc2c(-c3cc(C(C)C)c([O-])cc3O)noc2C(C)C)cccc1-c1nc(=O)[n-]c([O-])c1C#N

>  <Energy>  (45) 
113.21282541491591

>  <Genealogy>  (45) 
Cc1c(OCc2c(-c3cc(C(C)C)c([O-])cc3O)noc2C(C)C)cccc1-c1nc(=O)[n-]c([O-])c1C#N (protonated)
Cc1c(OCc2c(-c3cc(C(C)C)c([O-])cc3O)noc2C(C)C)cccc1-c1nc(=O)[n-]c([O-])c1C#N (3D coordinates assigned)
Cc1c(OCc2c(-c3cc(C(C)C)c([O-])cc3O)noc2C(C)C)cccc1-c1nc(=O)[n-]c([O-])c1C#N (optimized conformer: 113.21282541491591 kcal/mol)

>  <smiles>  (45) 
Cc1c(OCc2c(-c3cc(C(C)C)c(O)cc3O)noc2C(C)C)cccc1-c1nc(=O)[nH]c(O)c1C#N

>  <score_type>  (45) 
oracle

>  <origin>  (45) 
adg

>  <m_score__min__energy>  (45) 
-14.77

>  <m_primary>  (45) 
energy

$$$$
45:0
     RDKit          3D

 65 68  0  0  0  0  0  0  0  0999 V2000
   60.2450   33.6000   50.2510 C   0  0  0  0  0  0  0  0  0  0  0  0
   60.4840   34.2240   48.9190 C   0  0  0  0  0  0  0  0  0  0  0  0
   61.6520   34.5780   48.5970 O   0  0  0  0  0  0  0  0  0  0  0  0
   59.3910   34.5040   48.0900 O   0  0  0  0  0  0  0  0  0  0  0  0
   58.9720   33.7090   47.0130 C   0  0  0  0  0  0  0  0  0  0  0  0
   59.2690   32.3380   46.9270 C   0  0  0  0  0  0  0  0  0  0  0  0
   58.8100   31.5890   45.8430 C   0  0  0  0  0  0  0  0  0  0  0  0
   58.0500   32.2150   44.8440 C   0  0  0  0  0  0  0  0  0  0  0  0
   57.5230   31.4360   43.6710 C   0  0  0  0  0  0  0  0  0  0  0  0
   56.4590   30.4510   44.0860 C   0  0  0  0  0  0  0  0  0  0  0  0
   55.2970   30.8610   44.3460 O   0  0  0  0  0  0  0  0  0  0  0  0
   56.7290   29.0450   44.2040 N   0  0  0  0  0  0  0  0  0  0  0  0
   57.6750   28.4970   44.9070 C   0  0  0  0  0  0  0  0  0  0  0  0
   58.9780   28.4730   44.5510 N   0  0  0  0  0  0  0  0  0  0  0  0
   59.7570   27.9050   45.4700 N   0  0  0  0  0  0  0  0  0  0  0  0
   59.0800   27.4680   46.5540 C   0  0  0  0  0  0  0  0  0  0  0  0
   59.7480   26.8760   47.7580 C   0  0  0  0  0  0  0  0  0  0  0  0
   60.7070   27.8720   48.4170 C   0  0  0  0  0  0  0  0  0  0  0  0
   60.1050   29.2850   48.4290 C   0  0  0  0  0  0  0  0  0  0  0  0
   60.3530   30.0160   49.7550 C   0  0  0  0  0  0  0  0  0  0  0  0
   59.1060   30.1040   50.5920 C   0  0  0  0  0  0  0  0  0  0  0  0
   58.1420   31.0890   50.3480 C   0  0  0  0  0  0  0  0  0  0  0  0
   56.9930   31.1260   51.1320 C   0  0  0  0  0  0  0  0  0  0  0  0
   56.8160   30.1700   52.1350 C   0  0  0  0  0  0  0  0  0  0  0  0
   55.7510   30.2190   52.8810 N   0  0  0  0  0  0  0  0  0  0  0  0
   54.9060   29.1280   53.2780 C   0  0  0  0  0  0  0  0  0  0  0  0
   55.4230   27.9830   53.3910 O   0  0  0  0  0  0  0  0  0  0  0  0
   53.4380   29.3130   53.5760 C   0  0  0  0  0  0  0  0  0  0  0  0
   52.7610   30.1640   52.5310 C   0  0  0  0  0  0  0  0  0  0  0  0
   52.7140   29.7410   51.1920 C   0  0  0  0  0  0  0  0  0  0  0  0
   52.0370   30.5040   50.2370 C   0  0  0  0  0  0  0  0  0  0  0  0
   51.3890   31.6870   50.6110 C   0  0  0  0  0  0  0  0  0  0  0  0
   50.7050   32.4310   49.6550 O   0  0  0  0  0  0  0  0  0  0  0  0
   51.4250   32.1150   51.9440 C   0  0  0  0  0  0  0  0  0  0  0  0
   50.7740   33.2920   52.3100 O   0  0  0  0  0  0  0  0  0  0  0  0
   52.1110   31.3540   52.9020 C   0  0  0  0  0  0  0  0  0  0  0  0
   57.7820   29.2310   52.3290 N   0  0  0  0  0  0  0  0  0  0  0  0
   58.8870   29.1970   51.5820 N   0  0  0  0  0  0  0  0  0  0  0  0
   57.4330   27.8180   46.4250 S   0  0  0  0  0  0  0  0  0  0  0  0
   57.7610   33.5420   44.9550 N   0  0  0  0  0  0  0  0  0  0  0  0
   58.1930   34.2890   46.0060 C   0  0  0  0  0  0  0  0  0  0  0  0
   60.5178   34.3121   51.0438 H   0  0  0  0  0  0  0  0  0  0  0  0
   59.1817   33.3349   50.3462 H   0  0  0  0  0  0  0  0  0  0  0  0
   60.8591   32.6924   50.3462 H   0  0  0  0  0  0  0  0  0  0  0  0
   59.8643   31.8546   47.7156 H   0  0  0  0  0  0  0  0  0  0  0  0
   59.0423   30.5161   45.7724 H   0  0  0  0  0  0  0  0  0  0  0  0
   57.0933   32.1381   42.9413 H   0  0  0  0  0  0  0  0  0  0  0  0
   58.3588   30.8719   43.2316 H   0  0  0  0  0  0  0  0  0  0  0  0
   58.9774   26.5862   48.4875 H   0  0  0  0  0  0  0  0  0  0  0  0
   60.3301   26.0010   47.4333 H   0  0  0  0  0  0  0  0  0  0  0  0
   60.9012   27.5543   49.4521 H   0  0  0  0  0  0  0  0  0  0  0  0
   61.6433   27.8933   47.8401 H   0  0  0  0  0  0  0  0  0  0  0  0
   60.5578   29.8687   47.6140 H   0  0  0  0  0  0  0  0  0  0  0  0
   59.0171   29.1868   48.2989 H   0  0  0  0  0  0  0  0  0  0  0  0
   61.1233   29.4723   50.3216 H   0  0  0  0  0  0  0  0  0  0  0  0
   60.6790   31.0405   49.5223 H   0  0  0  0  0  0  0  0  0  0  0  0
   58.2911   31.8260   49.5451 H   0  0  0  0  0  0  0  0  0  0  0  0
   56.2309   31.9011   50.9635 H   0  0  0  0  0  0  0  0  0  0  0  0
   52.9522   28.3264   53.6022 H   0  0  0  0  0  0  0  0  0  0  0  0
   53.3461   29.8227   54.5464 H   0  0  0  0  0  0  0  0  0  0  0  0
   53.2117   28.8062   50.8945 H   0  0  0  0  0  0  0  0  0  0  0  0
   52.0132   30.1739   49.1880 H   0  0  0  0  0  0  0  0  0  0  0  0
   50.3230   33.8840   51.6220 H   0  0  0  0  0  0  0  0  0  0  0  0
   52.1405   31.6901   53.9490 H   0  0  0  0  0  0  0  0  0  0  0  0
   57.9285   35.3551   46.0647 H   0  0  0  0  0  0  0  0  0  0  0  0
  1  2  1  0
  2  3  2  0
  2  4  1  0
  4  5  1  0
  5  6  2  0
  6  7  1  0
  7  8  2  0
  8  9  1  0
  9 10  1  0
 10 11  2  0
 10 12  1  0
 12 13  2  3
 13 14  1  0
 14 15  1  0
 15 16  2  0
 16 17  1  0
 17 18  1  0
 18 19  1  0
 19 20  1  0
 20 21  1  0
 21 22  1  0
 22 23  2  0
 23 24  1  0
 24 25  2  3
 25 26  1  0
 26 27  2  0
 26 28  1  0
 28 29  1  0
 29 30  2  0
 30 31  1  0
 31 32  2  0
 32 33  1  0
 32 34  1  0
 34 35  1  0
 34 36  2  0
 24 37  1  0
 37 38  1  0
 16 39  1  0
  8 40  1  0
 40 41  2  0
 41  5  1  0
 39 13  1  0
 38 21  2  0
 36 29  1  0
  1 42  1  0
  1 43  1  0
  1 44  1  0
  6 45  1  0
  7 46  1  0
  9 47  1  0
  9 48  1  0
 17 49  1  0
 17 50  1  0
 18 51  1  0
 18 52  1  0
 19 53  1  0
 19 54  1  0
 20 55  1  0
 20 56  1  0
 22 57  1  0
 23 58  1  0
 28 59  1  0
 28 60  1  0
 30 61  1  0
 31 62  1  0
 35 63  1  0
 36 64  1  0
 41 65  1  0
M  CHG  3  14  -1  33  -1  37  -1
M  END
>  <UniqueID>  (46) 
43

>  <SMILES>  (46) 
CC(=O)Oc1ccc(CC(=O)N=c2[n-]nc(CCCCc3ccc(=NC(=O)Cc4ccc([O-])c(O)c4)[n-]n3)s2)nc1

>  <Energy>  (46) 
109.15993546597991

>  <Genealogy>  (46) 
CC(=O)Oc1ccc(CC(=O)N=c2[n-]nc(CCCCc3ccc(=NC(=O)Cc4ccc([O-])c(O)c4)[n-]n3)s2)nc1 (protonated)
CC(=O)Oc1ccc(CC(=O)N=c2[n-]nc(CCCCc3ccc(=NC(=O)Cc4ccc([O-])c(O)c4)[n-]n3)s2)nc1 (3D coordinates assigned)
CC(=O)Oc1ccc(CC(=O)N=c2[n-]nc(CCCCc3ccc(=NC(=O)Cc4ccc([O-])c(O)c4)[n-]n3)s2)nc1 (optimized conformer: 109.15993546597991 kcal/mol)

>  <smiles>  (46) 
CC(=O)Oc1ccc(CC(=O)N=c2[nH]nc(CCCCc3ccc(=NC(=O)Cc4ccc(O)c(O)c4)[nH]n3)s2)nc1

>  <score_type>  (46) 
oracle

>  <origin>  (46) 
adg

>  <m_score__min__energy>  (46) 
-17.789999999999999

>  <m_primary>  (46) 
energy

$$$$
46:0
     RDKit          3D

 39 41  0  0  0  0  0  0  0  0999 V2000
   58.8150   28.9300   47.2350 C   0  0  0  0  0  0  0  0  0  0  0  0
   58.1690   29.5170   46.2160 C   0  0  0  0  0  0  0  0  0  0  0  0
   57.4470   28.9020   45.1840 C   0  0  0  0  0  0  0  0  0  0  0  0
   57.3600   27.6080   44.8130 C   0  0  0  0  0  0  0  0  0  0  0  0
   57.3420   26.4560   45.7360 C   0  0  0  0  0  0  0  0  0  0  0  0
   56.1310   26.0090   46.2850 C   0  0  0  0  0  0  0  0  0  0  0  0
   54.9430   26.6780   46.0050 O   0  0  0  0  0  0  0  0  0  0  0  0
   56.1180   24.9240   47.1030 N   0  0  0  0  0  0  0  0  0  0  0  0
   57.2590   24.2460   47.3890 C   0  0  0  0  0  0  0  0  0  0  0  0
   57.2210   23.2470   48.1520 O   0  0  0  0  0  0  0  0  0  0  0  0
   58.4390   24.6430   46.8480 N   0  0  0  0  0  0  0  0  0  0  0  0
   58.5070   25.7200   46.0250 C   0  0  0  0  0  0  0  0  0  0  0  0
   59.6150   26.0450   45.5210 O   0  0  0  0  0  0  0  0  0  0  0  0
   56.7910   29.9560   44.5570 C   0  0  0  0  0  0  0  0  0  0  0  0
   55.8700   29.8700   43.3800 C   0  0  0  0  0  0  0  0  0  0  0  0
   57.1350   31.1230   45.1340 N   0  0  0  0  0  0  0  0  0  0  0  0
   57.9790   30.8570   46.1170 N   0  0  0  0  0  0  0  0  0  0  0  0
   58.5190   31.8810   46.9620 C   0  0  0  0  0  0  0  0  0  0  0  0
   58.5640   31.6910   48.2070 O   0  0  0  0  0  0  0  0  0  0  0  0
   58.9690   33.1310   46.4110 N   0  0  0  0  0  0  0  0  0  0  0  0
   59.7510   34.0920   47.1680 C   0  0  0  0  0  0  0  0  0  0  0  0
   59.7340   35.3750   46.3470 C   0  0  0  0  0  0  0  0  0  0  0  0
   59.2480   34.9790   44.9550 C   0  0  0  0  0  0  0  0  0  0  0  0
   58.5340   33.6450   45.1240 C   0  0  0  0  0  0  0  0  0  0  0  0
   59.3443   29.5449   47.9778 H   0  0  0  0  0  0  0  0  0  0  0  0
   58.8153   27.8339   47.3276 H   0  0  0  0  0  0  0  0  0  0  0  0
   57.2974   27.3939   43.7358 H   0  0  0  0  0  0  0  0  0  0  0  0
   54.0580   26.3380   46.3630 H   0  0  0  0  0  0  0  0  0  0  0  0
   54.8325   29.7731   43.7325 H   0  0  0  0  0  0  0  0  0  0  0  0
   55.9668   30.7811   42.7713 H   0  0  0  0  0  0  0  0  0  0  0  0
   56.1339   28.9926   42.7713 H   0  0  0  0  0  0  0  0  0  0  0  0
   59.2976   34.2625   48.1556 H   0  0  0  0  0  0  0  0  0  0  0  0
   60.7767   33.7344   47.3413 H   0  0  0  0  0  0  0  0  0  0  0  0
   59.0478   36.1075   46.7971 H   0  0  0  0  0  0  0  0  0  0  0  0
   60.7296   35.8410   46.3081 H   0  0  0  0  0  0  0  0  0  0  0  0
   58.5542   35.7369   44.5624 H   0  0  0  0  0  0  0  0  0  0  0  0
   60.0832   34.9018   44.2433 H   0  0  0  0  0  0  0  0  0  0  0  0
   57.4435   33.7892   45.1165 H   0  0  0  0  0  0  0  0  0  0  0  0
   58.7714   32.9491   44.3058 H   0  0  0  0  0  0  0  0  0  0  0  0
  1  2  2  0
  2  3  1  0
  3  4  2  3
  4  5  1  0
  5  6  2  0
  6  7  1  0
  6  8  1  0
  8  9  1  0
  9 10  2  0
  9 11  1  0
 11 12  1  0
 12 13  2  0
  3 14  1  0
 14 15  1  0
 14 16  2  0
 16 17  1  0
 17 18  1  0
 18 19  2  0
 18 20  1  0
 20 21  1  0
 21 22  1  0
 22 23  1  0
 23 24  1  0
 17  2  1  0
 24 20  1  0
 12  5  1  0
  1 25  1  0
  1 26  1  0
  4 27  1  0
  7 28  1  0
 15 29  1  0
 15 30  1  0
 15 31  1  0
 21 32  1  0
 21 33  1  0
 22 34  1  0
 22 35  1  0
 23 36  1  0
 23 37  1  0
 24 38  1  0
 24 39  1  0
M  CHG  2   8  -1  11  -1
M  END
>  <UniqueID>  (47) 
44

>  <SMILES>  (47) 
C=c1c(=Cc2c(O)[n-]c(=O)[n-]c2=O)c(C)nn1C(=O)N1CCCC1

>  <Energy>  (47) 
90.13035978060077

>  <Genealogy>  (47) 
C=c1c(=Cc2c(O)[n-]c(=O)[n-]c2=O)c(C)nn1C(=O)N1CCCC1 (protonated)
C=c1c(=Cc2c(O)[n-]c(=O)[n-]c2=O)c(C)nn1C(=O)N1CCCC1 (3D coordinates assigned)
C=c1c(=Cc2c(O)[n-]c(=O)[n-]c2=O)c(C)nn1C(=O)N1CCCC1 (nonaromatic ring conformer: 90.13035978060077 kcal/mol)

>  <smiles>  (47) 
C=c1c(=Cc2c(O)[nH]c(=O)[nH]c2=O)c(C)nn1C(=O)N1CCCC1

>  <score_type>  (47) 
oracle

>  <origin>  (47) 
adg

>  <m_score__min__energy>  (47) 
-13.42

>  <m_primary>  (47) 
energy

$$$$
47:0
     RDKit          3D

 53 56  0  0  0  0  0  0  0  0999 V2000
   57.8400   28.0480   43.5270 C   0  0  0  0  0  0  0  0  0  0  0  0
   57.9190   27.8850   44.8590 C   0  0  0  0  0  0  0  0  0  0  0  0
   57.9120   26.6750   45.5740 C   0  0  0  0  0  0  0  0  0  0  0  0
   57.6770   25.4100   45.1720 C   0  0  0  0  0  0  0  0  0  0  0  0
   56.3750   24.7170   45.2330 C   0  0  0  0  0  0  0  0  0  0  0  0
   55.2050   25.4020   45.6100 C   0  0  0  0  0  0  0  0  0  0  0  0
   55.2310   26.7430   45.9970 O   0  0  0  0  0  0  0  0  0  0  0  0
   54.0150   24.7480   45.6120 N   0  0  0  0  0  0  0  0  0  0  0  0
   53.9250   23.4440   45.2450 C   0  0  0  0  0  0  0  0  0  0  0  0
   52.8100   22.8620   45.2600 O   0  0  0  0  0  0  0  0  0  0  0  0
   55.0360   22.7680   44.8580 N   0  0  0  0  0  0  0  0  0  0  0  0
   56.2520   23.3730   44.8340 C   0  0  0  0  0  0  0  0  0  0  0  0
   57.2590   22.7200   44.4510 O   0  0  0  0  0  0  0  0  0  0  0  0
   58.2000   27.0000   46.8890 C   0  0  0  0  0  0  0  0  0  0  0  0
   58.3140   28.3720   46.9480 C   0  0  0  0  0  0  0  0  0  0  0  0
   58.6090   29.1480   48.1960 C   0  0  0  0  0  0  0  0  0  0  0  0
   58.1470   28.9120   45.7200 N   0  0  0  0  0  0  0  0  0  0  0  0
   58.2150   30.3140   45.4040 C   0  0  0  0  0  0  0  0  0  0  0  0
   57.4020   30.8540   44.3980 C   0  0  0  0  0  0  0  0  0  0  0  0
   57.4720   32.2140   44.0940 C   0  0  0  0  0  0  0  0  0  0  0  0
   58.3600   33.0440   44.7850 C   0  0  0  0  0  0  0  0  0  0  0  0
   59.1950   32.5150   45.7830 C   0  0  0  0  0  0  0  0  0  0  0  0
   60.1290   33.3880   46.5290 C   0  0  0  0  0  0  0  0  0  0  0  0
   59.7800   34.5710   46.7950 O   0  0  0  0  0  0  0  0  0  0  0  0
   61.4250   32.9240   46.9540 N   0  0  0  0  0  0  0  0  0  0  0  0
   61.6220   31.5350   47.3990 C   0  0  0  0  0  0  0  0  0  0  0  0
   62.4700   31.5140   48.6740 C   0  0  0  0  0  0  0  0  0  0  0  0
   63.8160   32.2520   48.5090 C   0  0  0  0  0  0  0  0  0  0  0  0
   63.8710   33.1780   47.2810 C   0  0  0  0  0  0  0  0  0  0  0  0
   62.5330   33.8870   47.0420 C   0  0  0  0  0  0  0  0  0  0  0  0
   59.1060   31.1480   46.0960 C   0  0  0  0  0  0  0  0  0  0  0  0
   57.8565   29.0594   43.0947 H   0  0  0  0  0  0  0  0  0  0  0  0
   57.7588   27.1700   42.8693 H   0  0  0  0  0  0  0  0  0  0  0  0
   58.5283   24.8458   44.7635 H   0  0  0  0  0  0  0  0  0  0  0  0
   55.1350   27.5060   45.3370 H   0  0  0  0  0  0  0  0  0  0  0  0
   58.3157   26.2968   47.7269 H   0  0  0  0  0  0  0  0  0  0  0  0
   58.3743   28.5307   49.0757 H   0  0  0  0  0  0  0  0  0  0  0  0
   59.6741   29.4222   48.2141 H   0  0  0  0  0  0  0  0  0  0  0  0
   57.9951   30.0605   48.2141 H   0  0  0  0  0  0  0  0  0  0  0  0
   56.7068   30.2038   43.8466 H   0  0  0  0  0  0  0  0  0  0  0  0
   56.8268   32.6343   43.3085 H   0  0  0  0  0  0  0  0  0  0  0  0
   58.4050   34.1167   44.5459 H   0  0  0  0  0  0  0  0  0  0  0  0
   60.6440   31.0748   47.6033 H   0  0  0  0  0  0  0  0  0  0  0  0
   62.1395   30.9706   46.6093 H   0  0  0  0  0  0  0  0  0  0  0  0
   61.9013   31.9967   49.4824 H   0  0  0  0  0  0  0  0  0  0  0  0
   62.6949   30.4623   48.9051 H   0  0  0  0  0  0  0  0  0  0  0  0
   63.9910   32.8593   49.4093 H   0  0  0  0  0  0  0  0  0  0  0  0
   64.5877   31.4817   48.3638 H   0  0  0  0  0  0  0  0  0  0  0  0
   64.6519   33.9360   47.4413 H   0  0  0  0  0  0  0  0  0  0  0  0
   64.0937   32.5615   46.3977 H   0  0  0  0  0  0  0  0  0  0  0  0
   62.3406   34.5791   47.8751 H   0  0  0  0  0  0  0  0  0  0  0  0
   62.5950   34.4323   46.0887 H   0  0  0  0  0  0  0  0  0  0  0  0
   59.7404   30.7282   46.8905 H   0  0  0  0  0  0  0  0  0  0  0  0
  1  2  2  0
  2  3  1  0
  3  4  2  3
  4  5  1  0
  5  6  2  0
  6  7  1  0
  6  8  1  0
  8  9  1  0
  9 10  2  0
  9 11  1  0
 11 12  1  0
 12 13  2  0
  3 14  1  0
 14 15  2  0
 15 16  1  0
 15 17  1  0
 17 18  1  0
 18 19  2  0
 19 20  1  0
 20 21  2  0
 21 22  1  0
 22 23  1  0
 23 24  2  0
 23 25  1  0
 25 26  1  0
 26 27  1  0
 27 28  1  0
 28 29  1  0
 29 30  1  0
 22 31  2  0
 17  2  1  0
 31 18  1  0
 12  5  1  0
 30 25  1  0
  1 32  1  0
  1 33  1  0
  4 34  1  0
  7 35  1  0
 14 36  1  0
 16 37  1  0
 16 38  1  0
 16 39  1  0
 19 40  1  0
 20 41  1  0
 21 42  1  0
 26 43  1  0
 26 44  1  0
 27 45  1  0
 27 46  1  0
 28 47  1  0
 28 48  1  0
 29 49  1  0
 29 50  1  0
 30 51  1  0
 30 52  1  0
 31 53  1  0
M  CHG  2   8  -1  11  -1
M  END
>  <UniqueID>  (48) 
45

>  <SMILES>  (48) 
C=c1c(=Cc2c(O)[n-]c(=O)[n-]c2=O)cc(C)n1-c1cccc(C(=O)N2CCCCC2)c1

>  <Energy>  (48) 
110.63696126053163

>  <Genealogy>  (48) 
C=c1c(=Cc2c(O)[n-]c(=O)[n-]c2=O)cc(C)n1-c1cccc(C(=O)N2CCCCC2)c1 (protonated)
C=c1c(=Cc2c(O)[n-]c(=O)[n-]c2=O)cc(C)n1-c1cccc(C(=O)N2CCCCC2)c1 (3D coordinates assigned)
C=c1c(=Cc2c(O)[n-]c(=O)[n-]c2=O)cc(C)n1-c1cccc(C(=O)N2CCCCC2)c1 (nonaromatic ring conformer: 110.63696126053163 kcal/mol)

>  <smiles>  (48) 
C=c1c(=Cc2c(O)[nH]c(=O)[nH]c2=O)cc(C)n1-c1cccc(C(=O)N2CCCCC2)c1

>  <score_type>  (48) 
oracle

>  <origin>  (48) 
adg

>  <m_score__min__energy>  (48) 
-14.92

>  <m_primary>  (48) 
energy

$$$$
48:0
     RDKit          3D

 45 47  0  0  0  0  0  0  0  0999 V2000
   59.9770   35.9410   46.4000 N   0  0  0  0  0  0  0  0  0  0  0  0
   59.7510   34.6450   46.9490 C   0  0  0  0  0  0  0  0  0  0  0  0
   60.2100   34.3740   48.0920 O   0  0  0  0  0  0  0  0  0  0  0  0
   58.9870   33.6260   46.1900 C   0  0  0  0  0  0  0  0  0  0  0  0
   58.0750   34.0120   45.1910 C   0  0  0  0  0  0  0  0  0  0  0  0
   57.3580   33.0490   44.4750 C   0  0  0  0  0  0  0  0  0  0  0  0
   57.5410   31.6840   44.7410 C   0  0  0  0  0  0  0  0  0  0  0  0
   56.7730   30.6590   43.9580 C   0  0  0  0  0  0  0  0  0  0  0  0
   55.9510   29.9080   44.8370 O   0  0  0  0  0  0  0  0  0  0  0  0
   56.1860   28.5660   45.0370 N   0  0  0  0  0  0  0  0  0  0  0  0
   57.0170   28.1370   45.9370 C   0  0  0  0  0  0  0  0  0  0  0  0
   57.0390   26.7310   46.4000 C   0  0  0  0  0  0  0  0  0  0  0  0
   58.1860   26.2030   47.0270 C   0  0  0  0  0  0  0  0  0  0  0  0
   59.3710   26.9410   47.1370 O   0  0  0  0  0  0  0  0  0  0  0  0
   59.7090   27.7290   48.2480 C   0  0  0  0  0  0  0  0  0  0  0  0
   60.6600   27.2430   49.1510 C   0  0  0  0  0  0  0  0  0  0  0  0
   61.0220   27.9980   50.2660 C   0  0  0  0  0  0  0  0  0  0  0  0
   60.4420   29.2500   50.4860 C   0  0  0  0  0  0  0  0  0  0  0  0
   59.4900   29.7640   49.5880 C   0  0  0  0  0  0  0  0  0  0  0  0
   58.9020   31.1090   49.8220 C   0  0  0  0  0  0  0  0  0  0  0  0
   59.5360   32.3000   49.3470 N   0  0  0  0  0  0  0  0  0  0  0  0
   57.8130   31.2110   50.4470 O   0  0  0  0  0  0  0  0  0  0  0  0
   59.1380   28.9980   48.4600 C   0  0  0  0  0  0  0  0  0  0  0  0
   58.1500   24.9480   47.5490 N   0  0  0  0  0  0  0  0  0  0  0  0
   57.0370   24.1800   47.4610 C   0  0  0  0  0  0  0  0  0  0  0  0
   57.0370   23.0160   47.9410 O   0  0  0  0  0  0  0  0  0  0  0  0
   55.9210   24.6630   46.8610 N   0  0  0  0  0  0  0  0  0  0  0  0
   55.8910   25.9180   46.3410 C   0  0  0  0  0  0  0  0  0  0  0  0
   54.8180   26.3480   45.8400 O   0  0  0  0  0  0  0  0  0  0  0  0
   58.4440   31.2950   45.7420 C   0  0  0  0  0  0  0  0  0  0  0  0
   59.1620   32.2570   46.4580 C   0  0  0  0  0  0  0  0  0  0  0  0
   59.4830   36.7790   46.7800 H   0  0  0  0  0  0  0  0  0  0  0  0
   57.9249   35.0794   44.9716 H   0  0  0  0  0  0  0  0  0  0  0  0
   56.6458   33.3637   43.6980 H   0  0  0  0  0  0  0  0  0  0  0  0
   56.1439   31.1648   43.2107 H   0  0  0  0  0  0  0  0  0  0  0  0
   57.4772   29.9840   43.4496 H   0  0  0  0  0  0  0  0  0  0  0  0
   57.7344   28.8473   46.3737 H   0  0  0  0  0  0  0  0  0  0  0  0
   61.1246   26.2605   48.9808 H   0  0  0  0  0  0  0  0  0  0  0  0
   61.7667   27.6067   50.9748 H   0  0  0  0  0  0  0  0  0  0  0  0
   60.7325   29.8383   51.3689 H   0  0  0  0  0  0  0  0  0  0  0  0
   60.3490   32.2730   48.6950 H   0  0  0  0  0  0  0  0  0  0  0  0
   59.1320   33.2320   49.5840 H   0  0  0  0  0  0  0  0  0  0  0  0
   58.4098   29.3952   47.7376 H   0  0  0  0  0  0  0  0  0  0  0  0
   58.5876   30.2273   45.9644 H   0  0  0  0  0  0  0  0  0  0  0  0
   59.8701   31.9402   47.2379 H   0  0  0  0  0  0  0  0  0  0  0  0
  1  2  1  0
  2  3  2  0
  2  4  1  0
  4  5  2  0
  5  6  1  0
  6  7  2  0
  7  8  1  0
  8  9  1  0
  9 10  1  0
 10 11  2  3
 11 12  1  0
 12 13  2  0
 13 14  1  0
 14 15  1  0
 15 16  2  0
 16 17  1  0
 17 18  2  0
 18 19  1  0
 19 20  1  0
 20 21  1  0
 20 22  2  0
 19 23  2  0
 13 24  1  0
 24 25  1  0
 25 26  2  0
 25 27  1  0
 27 28  1  0
 28 29  2  0
  7 30  1  0
 30 31  2  0
 31  4  1  0
 28 12  1  0
 23 15  1  0
  1 32  1  0
  5 33  1  0
  6 34  1  0
  8 35  1  0
  8 36  1  0
 11 37  1  0
 16 38  1  0
 17 39  1  0
 18 40  1  0
 21 41  1  0
 21 42  1  0
 23 43  1  0
 30 44  1  0
 31 45  1  0
M  CHG  3   1  -1  24  -1  27  -1
M  END
>  <UniqueID>  (49) 
46

>  <SMILES>  (49) 
[NH-]C(=O)c1ccc(CON=Cc2c(Oc3cccc(C(N)=O)c3)[n-]c(=O)[n-]c2=O)cc1

>  <Energy>  (49) 
58.836811747499695

>  <Genealogy>  (49) 
[NH-]C(=O)c1ccc(CON=Cc2c(Oc3cccc(C(N)=O)c3)[n-]c(=O)[n-]c2=O)cc1 (protonated)
[NH-]C(=O)c1ccc(CON=Cc2c(Oc3cccc(C(N)=O)c3)[n-]c(=O)[n-]c2=O)cc1 (3D coordinates assigned)
[NH-]C(=O)c1ccc(CON=Cc2c(Oc3cccc(C(N)=O)c3)[n-]c(=O)[n-]c2=O)cc1 (optimized conformer: 58.836811747499695 kcal/mol)

>  <smiles>  (49) 
NC(=O)c1ccc(CON=Cc2c(Oc3cccc(C(N)=O)c3)[nH]c(=O)[nH]c2=O)cc1

>  <score_type>  (49) 
oracle

>  <origin>  (49) 
adg

>  <m_score__min__energy>  (49) 
-14.199999999999999

>  <m_primary>  (49) 
energy

$$$$
49:0
     RDKit          3D

 26 28  0  0  0  0  0  0  0  0999 V2000
   59.7480   28.6290   47.7180 C   0  0  0  0  0  0  0  0  0  0  0  0
   59.2390   29.3280   46.6970 C   0  0  0  0  0  0  0  0  0  0  0  0
   59.2950   30.6800   46.6510 N   0  0  0  0  0  0  0  0  0  0  0  0
   58.6990   31.0320   45.5030 C   0  0  0  0  0  0  0  0  0  0  0  0
   58.4760   32.3070   45.0900 N   0  0  0  0  0  0  0  0  0  0  0  0
   57.7690   32.5230   43.9420 C   0  0  0  0  0  0  0  0  0  0  0  0
   57.2490   31.4370   43.2090 C   0  0  0  0  0  0  0  0  0  0  0  0
   57.4750   30.1240   43.6500 C   0  0  0  0  0  0  0  0  0  0  0  0
   58.2540   29.9410   44.7990 C   0  0  0  0  0  0  0  0  0  0  0  0
   58.6160   28.8120   45.5420 C   0  0  0  0  0  0  0  0  0  0  0  0
   58.4150   27.5080   45.2590 C   0  0  0  0  0  0  0  0  0  0  0  0
   57.1970   26.7520   45.5900 C   0  0  0  0  0  0  0  0  0  0  0  0
   57.1860   25.5050   46.0940 N   0  0  0  0  0  0  0  0  0  0  0  0
   55.8800   25.2930   46.3700 C   0  0  0  0  0  0  0  0  0  0  0  0
   55.4570   24.2090   46.8510 O   0  0  0  0  0  0  0  0  0  0  0  0
   55.0670   26.3360   46.1010 N   0  0  0  0  0  0  0  0  0  0  0  0
   55.9200   27.2560   45.6220 C   0  0  0  0  0  0  0  0  0  0  0  0
   55.5390   28.5330   45.2290 O   0  0  0  0  0  0  0  0  0  0  0  0
   59.6831   27.5309   47.7193 H   0  0  0  0  0  0  0  0  0  0  0  0
   60.2314   29.1524   48.5561 H   0  0  0  0  0  0  0  0  0  0  0  0
   59.6970   31.3240   47.3690 H   0  0  0  0  0  0  0  0  0  0  0  0
   58.8260   33.1150   45.6500 H   0  0  0  0  0  0  0  0  0  0  0  0
   57.6042   33.5510   43.5869 H   0  0  0  0  0  0  0  0  0  0  0  0
   56.6673   31.6183   42.2932 H   0  0  0  0  0  0  0  0  0  0  0  0
   57.0527   29.2643   43.1091 H   0  0  0  0  0  0  0  0  0  0  0  0
   59.2228   26.9696   44.7418 H   0  0  0  0  0  0  0  0  0  0  0  0
  1  2  2  0
  2  3  1  0
  3  4  1  0
  4  5  2  0
  5  6  1  0
  6  7  2  0
  7  8  1  0
  8  9  2  0
  9 10  1  0
 10 11  2  3
 11 12  1  0
 12 13  1  0
 13 14  1  0
 14 15  2  0
 14 16  1  0
 16 17  1  0
 17 18  1  0
 10  2  1  0
 17 12  2  0
  9  4  1  0
  1 19  1  0
  1 20  1  0
  3 21  1  0
  5 22  1  0
  6 23  1  0
  7 24  1  0
  8 25  1  0
 11 26  1  0
M  CHG  4   5   1  13  -1  16  -1  18  -1
M  END
>  <UniqueID>  (50) 
47

>  <SMILES>  (50) 
C=c1[nH]c2[nH+]cccc2c1=Cc1[n-]c(=O)[n-]c1[O-]

>  <Energy>  (50) 
103.76146159531739

>  <Genealogy>  (50) 
C=c1[nH]c2[nH+]cccc2c1=Cc1[n-]c(=O)[n-]c1[O-] (protonated)
C=c1[nH]c2[nH+]cccc2c1=Cc1[n-]c(=O)[n-]c1[O-] (3D coordinates assigned)
C=c1[nH]c2[nH+]cccc2c1=Cc1[n-]c(=O)[n-]c1[O-] (optimized conformer: 103.76146159531739 kcal/mol)

>  <smiles>  (50) 
C=c1[nH]c2ncccc2c1=Cc1[nH]c(=O)[nH]c1O

>  <score_type>  (50) 
oracle

>  <origin>  (50) 
adg

>  <m_score__min__energy>  (50) 
-14.27

>  <m_primary>  (50) 
energy

$$$$
50:0
     RDKit          3D

 49 52  0  0  0  0  0  0  0  0999 V2000
   56.0950   27.8250   45.6160 O   0  0  0  0  0  0  0  0  0  0  0  0
   57.2140   27.3030   45.8730 C   0  0  0  0  0  0  0  0  0  0  0  0
   58.3740   28.1870   46.1150 C   0  0  0  0  0  0  0  0  0  0  0  0
   59.3130   28.4310   45.0990 C   0  0  0  0  0  0  0  0  0  0  0  0
   60.4070   29.2660   45.3380 C   0  0  0  0  0  0  0  0  0  0  0  0
   60.5850   29.8480   46.5950 C   0  0  0  0  0  0  0  0  0  0  0  0
   59.6770   29.5840   47.6310 C   0  0  0  0  0  0  0  0  0  0  0  0
   59.8530   30.2360   48.9730 C   0  0  0  0  0  0  0  0  0  0  0  0
   60.7100   31.4160   48.8310 N   0  0  0  0  0  0  0  0  0  0  0  0
   59.7330   32.8530   48.7960 S   0  0  0  0  0  0  0  0  0  0  0  0
   58.5070   32.6390   49.6390 O   0  0  0  0  0  0  0  0  0  0  0  0
   60.5190   34.0060   49.3550 O   0  0  0  0  0  0  0  0  0  0  0  0
   59.2350   33.2020   47.1430 C   0  0  0  0  0  0  0  0  0  0  0  0
   59.5990   34.4160   46.5470 C   0  0  0  0  0  0  0  0  0  0  0  0
   59.2050   34.7010   45.2390 C   0  0  0  0  0  0  0  0  0  0  0  0
   58.4500   33.7750   44.5150 C   0  0  0  0  0  0  0  0  0  0  0  0
   58.0820   32.5480   45.0960 C   0  0  0  0  0  0  0  0  0  0  0  0
   57.2860   31.5650   44.3300 C   0  0  0  0  0  0  0  0  0  0  0  0
   56.2290   30.8920   44.8410 N   0  0  0  0  0  0  0  0  0  0  0  0
   55.8660   30.1510   43.7800 C   0  0  0  0  0  0  0  0  0  0  0  0
   54.8980   29.3460   43.7920 O   0  0  0  0  0  0  0  0  0  0  0  0
   56.6270   30.3580   42.7400 O   0  0  0  0  0  0  0  0  0  0  0  0
   57.5310   31.2390   43.0420 N   0  0  0  0  0  0  0  0  0  0  0  0
   58.4830   32.2690   46.4150 C   0  0  0  0  0  0  0  0  0  0  0  0
   58.5690   28.7570   47.3830 C   0  0  0  0  0  0  0  0  0  0  0  0
   57.3370   25.8690   45.9070 N   0  0  0  0  0  0  0  0  0  0  0  0
   58.5780   25.1540   45.6540 C   0  0  0  0  0  0  0  0  0  0  0  0
   58.1670   23.7220   45.3370 C   0  0  0  0  0  0  0  0  0  0  0  0
   56.7430   23.5760   45.8630 C   0  0  0  0  0  0  0  0  0  0  0  0
   56.1810   24.9880   45.9250 C   0  0  0  0  0  0  0  0  0  0  0  0
   59.1863   27.9628   44.1117 H   0  0  0  0  0  0  0  0  0  0  0  0
   61.1304   29.4657   44.5338 H   0  0  0  0  0  0  0  0  0  0  0  0
   61.4406   30.5160   46.7733 H   0  0  0  0  0  0  0  0  0  0  0  0
   58.8713   30.5402   49.3650 H   0  0  0  0  0  0  0  0  0  0  0  0
   60.3198   29.5240   49.6695 H   0  0  0  0  0  0  0  0  0  0  0  0
   61.1970   31.3550   47.9080 H   0  0  0  0  0  0  0  0  0  0  0  0
   60.1970   35.1467   47.1114 H   0  0  0  0  0  0  0  0  0  0  0  0
   59.4898   35.6576   44.7766 H   0  0  0  0  0  0  0  0  0  0  0  0
   58.1416   34.0067   43.4849 H   0  0  0  0  0  0  0  0  0  0  0  0
   58.2045   31.3114   46.8790 H   0  0  0  0  0  0  0  0  0  0  0  0
   57.8483   28.5544   48.1889 H   0  0  0  0  0  0  0  0  0  0  0  0
   59.1105   25.5988   44.8004 H   0  0  0  0  0  0  0  0  0  0  0  0
   59.2586   25.2011   46.5169 H   0  0  0  0  0  0  0  0  0  0  0  0
   58.1949   23.5462   44.2515 H   0  0  0  0  0  0  0  0  0  0  0  0
   58.8477   22.9921   45.7995 H   0  0  0  0  0  0  0  0  0  0  0  0
   56.1441   22.9543   45.1813 H   0  0  0  0  0  0  0  0  0  0  0  0
   56.7219   23.0868   46.8480 H   0  0  0  0  0  0  0  0  0  0  0  0
   55.5357   25.1831   45.0558 H   0  0  0  0  0  0  0  0  0  0  0  0
   55.5651   25.1423   46.8233 H   0  0  0  0  0  0  0  0  0  0  0  0
  1  2  2  0
  2  3  1  0
  3  4  2  0
  4  5  1  0
  5  6  2  0
  6  7  1  0
  7  8  1  0
  8  9  1  0
  9 10  1  0
 10 11  2  0
 10 12  2  0
 10 13  1  0
 13 14  2  0
 14 15  1  0
 15 16  2  0
 16 17  1  0
 17 18  1  0
 18 19  2  0
 19 20  1  0
 20 21  2  0
 20 22  1  0
 22 23  1  0
 17 24  2  0
  7 25  2  0
  2 26  1  0
 26 27  1  0
 27 28  1  0
 28 29  1  0
 29 30  1  0
 25  3  1  0
 30 26  1  0
 24 13  1  0
 23 18  1  0
  4 31  1  0
  5 32  1  0
  6 33  1  0
  8 34  1  0
  8 35  1  0
  9 36  1  0
 14 37  1  0
 15 38  1  0
 16 39  1  0
 24 40  1  0
 25 41  1  0
 27 42  1  0
 27 43  1  0
 28 44  1  0
 28 45  1  0
 29 46  1  0
 29 47  1  0
 30 48  1  0
 30 49  1  0
M  CHG  1  23  -1
M  END
>  <UniqueID>  (51) 
48

>  <SMILES>  (51) 
O=C(c1cccc(CNS(=O)(=O)c2cccc(-c3nc(=O)o[n-]3)c2)c1)N1CCCC1

>  <Energy>  (51) 
87.57222701972898

>  <Genealogy>  (51) 
O=C(c1cccc(CNS(=O)(=O)c2cccc(-c3nc(=O)o[n-]3)c2)c1)N1CCCC1 (protonated)
O=C(c1cccc(CNS(=O)(=O)c2cccc(-c3nc(=O)o[n-]3)c2)c1)N1CCCC1 (3D coordinates assigned)
O=C(c1cccc(CNS(=O)(=O)c2cccc(-c3nc(=O)o[n-]3)c2)c1)N1CCCC1 (nonaromatic ring conformer: 87.57222701972898 kcal/mol)

>  <smiles>  (51) 
O=C(c1cccc(CNS(=O)(=O)c2cccc(-c3nc(=O)o[nH]3)c2)c1)N1CCCC1

>  <score_type>  (51) 
oracle

>  <origin>  (51) 
adg

>  <m_score__min__energy>  (51) 
-12.83

>  <m_primary>  (51) 
energy

$$$$
51:0
     RDKit          3D

 61 64  0  0  0  0  0  0  0  0999 V2000
   56.5850   29.8690   44.0280 C   0  0  0  0  0  0  0  0  0  0  0  0
   57.3090   29.5540   45.1150 C   0  0  0  0  0  0  0  0  0  0  0  0
   57.6460   28.2620   45.5360 C   0  0  0  0  0  0  0  0  0  0  0  0
   57.2610   27.0970   44.9810 C   0  0  0  0  0  0  0  0  0  0  0  0
   56.8200   25.9190   45.7520 C   0  0  0  0  0  0  0  0  0  0  0  0
   57.6720   25.0290   46.2890 N   0  0  0  0  0  0  0  0  0  0  0  0
   56.8620   24.1900   46.9710 C   0  0  0  0  0  0  0  0  0  0  0  0
   57.2980   23.1980   47.6100 O   0  0  0  0  0  0  0  0  0  0  0  0
   55.5510   24.5040   46.9230 N   0  0  0  0  0  0  0  0  0  0  0  0
   55.5400   25.6090   46.1580 C   0  0  0  0  0  0  0  0  0  0  0  0
   54.3920   26.3410   45.8830 O   0  0  0  0  0  0  0  0  0  0  0  0
   58.4170   28.4140   46.6790 C   0  0  0  0  0  0  0  0  0  0  0  0
   58.5330   29.7730   46.9020 C   0  0  0  0  0  0  0  0  0  0  0  0
   59.2810   30.3820   48.0490 C   0  0  0  0  0  0  0  0  0  0  0  0
   57.8490   30.4680   45.9640 N   0  0  0  0  0  0  0  0  0  0  0  0
   57.7710   31.9330   45.8650 C   0  0  0  0  0  0  0  0  0  0  0  0
   59.0720   32.4940   45.2760 C   0  0  0  0  0  0  0  0  0  0  0  0
   60.0680   32.9020   46.3670 C   0  0  0  0  0  0  0  0  0  0  0  0
   59.6460   34.1390   47.0300 N   0  0  0  0  0  0  0  0  0  0  0  0
   59.7280   33.9940   48.7630 S   0  0  0  0  0  0  0  0  0  0  0  0
   58.8210   32.8810   49.2050 O   0  0  0  0  0  0  0  0  0  0  0  0
   59.2710   35.2680   49.4170 O   0  0  0  0  0  0  0  0  0  0  0  0
   61.3770   33.6170   49.2540 C   0  0  0  0  0  0  0  0  0  0  0  0
   61.6930   33.4230   50.6060 C   0  0  0  0  0  0  0  0  0  0  0  0
   63.0060   33.1300   50.9870 C   0  0  0  0  0  0  0  0  0  0  0  0
   64.0190   33.0160   50.0200 C   0  0  0  0  0  0  0  0  0  0  0  0
   65.4100   32.7090   50.4270 C   0  0  0  0  0  0  0  0  0  0  0  0
   66.3360   33.5120   50.1260 O   0  0  0  0  0  0  0  0  0  0  0  0
   65.7270   31.5000   51.1380 N   0  0  0  0  0  0  0  0  0  0  0  0
   65.0400   31.1960   52.3970 C   0  0  0  0  0  0  0  0  0  0  0  0
   65.0650   29.6850   52.6430 C   0  0  0  0  0  0  0  0  0  0  0  0
   66.3860   29.1850   52.5640 O   0  0  0  0  0  0  0  0  0  0  0  0
   66.8830   29.3440   51.2480 C   0  0  0  0  0  0  0  0  0  0  0  0
   67.0030   30.8290   50.8870 C   0  0  0  0  0  0  0  0  0  0  0  0
   63.7000   33.2310   48.6680 C   0  0  0  0  0  0  0  0  0  0  0  0
   62.3880   33.5270   48.2890 C   0  0  0  0  0  0  0  0  0  0  0  0
   56.3793   30.9232   43.7907 H   0  0  0  0  0  0  0  0  0  0  0  0
   56.1979   29.0727   43.3753 H   0  0  0  0  0  0  0  0  0  0  0  0
   57.2763   27.0188   43.8839 H   0  0  0  0  0  0  0  0  0  0  0  0
   58.8518   27.6089   47.2896 H   0  0  0  0  0  0  0  0  0  0  0  0
   58.8485   30.0299   48.9971 H   0  0  0  0  0  0  0  0  0  0  0  0
   60.3388   30.0851   47.9959 H   0  0  0  0  0  0  0  0  0  0  0  0
   59.2047   31.4781   47.9959 H   0  0  0  0  0  0  0  0  0  0  0  0
   56.9286   32.2089   45.2137 H   0  0  0  0  0  0  0  0  0  0  0  0
   57.6215   32.3534   46.8705 H   0  0  0  0  0  0  0  0  0  0  0  0
   59.5357   31.7239   44.6420 H   0  0  0  0  0  0  0  0  0  0  0  0
   58.8209   33.3921   44.6926 H   0  0  0  0  0  0  0  0  0  0  0  0
   60.1319   32.0974   47.1144 H   0  0  0  0  0  0  0  0  0  0  0  0
   61.0486   33.0732   45.8989 H   0  0  0  0  0  0  0  0  0  0  0  0
   60.9053   33.5016   51.3697 H   0  0  0  0  0  0  0  0  0  0  0  0
   63.2475   32.9878   52.0507 H   0  0  0  0  0  0  0  0  0  0  0  0
   65.5490   31.7104   53.2254 H   0  0  0  0  0  0  0  0  0  0  0  0
   63.9967   31.5394   52.3364 H   0  0  0  0  0  0  0  0  0  0  0  0
   64.6595   29.4758   53.6439 H   0  0  0  0  0  0  0  0  0  0  0  0
   64.4547   29.1921   51.8719 H   0  0  0  0  0  0  0  0  0  0  0  0
   67.8754   28.8746   51.1781 H   0  0  0  0  0  0  0  0  0  0  0  0
   66.1831   28.8662   50.5467 H   0  0  0  0  0  0  0  0  0  0  0  0
   67.7879   31.2930   51.5023 H   0  0  0  0  0  0  0  0  0  0  0  0
   67.2637   30.9263   49.8228 H   0  0  0  0  0  0  0  0  0  0  0  0
   64.4882   33.1658   47.9035 H   0  0  0  0  0  0  0  0  0  0  0  0
   62.1482   33.6901   47.2279 H   0  0  0  0  0  0  0  0  0  0  0  0
  1  2  2  0
  2  3  1  0
  3  4  2  3
  4  5  1  0
  5  6  1  0
  6  7  1  0
  7  8  2  0
  7  9  1  0
  9 10  1  0
 10 11  1  0
  3 12  1  0
 12 13  2  0
 13 14  1  0
 13 15  1  0
 15 16  1  0
 16 17  1  0
 17 18  1  0
 18 19  1  0
 19 20  1  0
 20 21  2  0
 20 22  2  0
 20 23  1  0
 23 24  2  0
 24 25  1  0
 25 26  2  0
 26 27  1  0
 27 28  2  0
 27 29  1  0
 29 30  1  0
 30 31  1  0
 31 32  1  0
 32 33  1  0
 33 34  1  0
 26 35  1  0
 35 36  2  0
 15  2  1  0
 36 23  1  0
 10  5  2  0
 34 29  1  0
  1 37  1  0
  1 38  1  0
  4 39  1  0
 12 40  1  0
 14 41  1  0
 14 42  1  0
 14 43  1  0
 16 44  1  0
 16 45  1  0
 17 46  1  0
 17 47  1  0
 18 48  1  0
 18 49  1  0
 24 50  1  0
 25 51  1  0
 30 52  1  0
 30 53  1  0
 31 54  1  0
 31 55  1  0
 33 56  1  0
 33 57  1  0
 34 58  1  0
 34 59  1  0
 35 60  1  0
 36 61  1  0
M  CHG  4   6  -1   9  -1  11  -1  19  -1
M  END
>  <UniqueID>  (52) 
49

>  <SMILES>  (52) 
C=c1c(=Cc2[n-]c(=O)[n-]c2[O-])cc(C)n1CCC[N-]S(=O)(=O)c1ccc(C(=O)N2CCOCC2)cc1

>  <Energy>  (52) 
129.6265130256204

>  <Genealogy>  (52) 
C=c1c(=Cc2[n-]c(=O)[n-]c2[O-])cc(C)n1CCC[N-]S(=O)(=O)c1ccc(C(=O)N2CCOCC2)cc1 (protonated)
C=c1c(=Cc2[n-]c(=O)[n-]c2[O-])cc(C)n1CCC[N-]S(=O)(=O)c1ccc(C(=O)N2CCOCC2)cc1 (3D coordinates assigned)
C=c1c(=Cc2[n-]c(=O)[n-]c2[O-])cc(C)n1CCC[N-]S(=O)(=O)c1ccc(C(=O)N2CCOCC2)cc1 (nonaromatic ring conformer: 129.6265130256204 kcal/mol)

>  <smiles>  (52) 
C=c1c(=Cc2[nH]c(=O)[nH]c2O)cc(C)n1CCCNS(=O)(=O)c1ccc(C(=O)N2CCOCC2)cc1

>  <score_type>  (52) 
oracle

>  <origin>  (52) 
adg

>  <m_score__min__energy>  (52) 
-17.66

>  <m_primary>  (52) 
energy

$$$$
52:0
     RDKit          3D

 47 50  0  0  0  0  0  0  0  0999 V2000
   57.1851   29.6164   44.9164 H   0  0  0  0  0  0  0  0  0  0  0  0
   57.0720   28.5330   44.7630 C   0  0  0  0  0  0  0  0  0  0  0  0
   56.3896   28.1557   43.9871 H   0  0  0  0  0  0  0  0  0  0  0  0
   57.7670   27.6710   45.5230 C   0  0  0  0  0  0  0  0  0  0  0  0
   57.7250   26.2760   45.4420 C   0  0  0  0  0  0  0  0  0  0  0  0
   57.0390   25.5260   44.5560 C   0  0  0  0  0  0  0  0  0  0  0  0
   57.4037   25.4797   43.5192 H   0  0  0  0  0  0  0  0  0  0  0  0
   55.8210   24.7620   44.9060 C   0  0  0  0  0  0  0  0  0  0  0  0
   54.7530   25.3540   45.6050 C   0  0  0  0  0  0  0  0  0  0  0  0
   54.8080   26.6870   45.9940 O   0  0  0  0  0  0  0  0  0  0  0  0
   53.6420   24.6250   45.8870 N   0  0  0  0  0  0  0  0  0  0  0  0
   53.5320   23.3320   45.4910 C   0  0  0  0  0  0  0  0  0  0  0  0
   52.4940   22.6770   45.7680 O   0  0  0  0  0  0  0  0  0  0  0  0
   54.5370   22.7470   44.7920 N   0  0  0  0  0  0  0  0  0  0  0  0
   55.6700   23.4310   44.4850 C   0  0  0  0  0  0  0  0  0  0  0  0
   56.5810   22.8560   43.8310 O   0  0  0  0  0  0  0  0  0  0  0  0
   58.5640   25.8000   46.4420 C   0  0  0  0  0  0  0  0  0  0  0  0
   58.7743   24.7463   46.6776 H   0  0  0  0  0  0  0  0  0  0  0  0
   59.0820   26.9080   47.0820 C   0  0  0  0  0  0  0  0  0  0  0  0
   60.0390   26.8550   48.2330 C   0  0  0  0  0  0  0  0  0  0  0  0
   59.4775   26.8861   49.1784 H   0  0  0  0  0  0  0  0  0  0  0  0
   60.6215   25.9232   48.1829 H   0  0  0  0  0  0  0  0  0  0  0  0
   60.7208   27.7168   48.1829 H   0  0  0  0  0  0  0  0  0  0  0  0
   58.5950   28.0430   46.5310 N   0  0  0  0  0  0  0  0  0  0  0  0
   58.9250   29.3830   46.9390 C   0  0  0  0  0  0  0  0  0  0  0  0
   59.2970   30.3400   45.9840 C   0  0  0  0  0  0  0  0  0  0  0  0
   59.3417   30.0632   44.9203 H   0  0  0  0  0  0  0  0  0  0  0  0
   59.6110   31.6430   46.3770 C   0  0  0  0  0  0  0  0  0  0  0  0
   59.9121   32.3849   45.6228 H   0  0  0  0  0  0  0  0  0  0  0  0
   59.5440   32.0100   47.7310 C   0  0  0  0  0  0  0  0  0  0  0  0
   59.9210   33.4010   48.1600 C   0  0  0  0  0  0  0  0  0  0  0  0
   59.5635   34.1219   47.4100 H   0  0  0  0  0  0  0  0  0  0  0  0
   59.4589   33.6134   49.1354 H   0  0  0  0  0  0  0  0  0  0  0  0
   61.4150   33.5180   48.2890 C   0  0  0  0  0  0  0  0  0  0  0  0
   62.0060   33.7090   49.5470 C   0  0  0  0  0  0  0  0  0  0  0  0
   61.3821   33.7451   50.4522 H   0  0  0  0  0  0  0  0  0  0  0  0
   63.3920   33.8530   49.6420 C   0  0  0  0  0  0  0  0  0  0  0  0
   63.8630   33.9958   50.6258 H   0  0  0  0  0  0  0  0  0  0  0  0
   64.1600   33.8170   48.5210 N   0  0  0  0  0  0  0  0  0  0  0  0
   63.6140   33.6440   47.2880 C   0  0  0  0  0  0  0  0  0  0  0  0
   64.2616   33.6205   46.3991 H   0  0  0  0  0  0  0  0  0  0  0  0
   62.2320   33.4960   47.1480 C   0  0  0  0  0  0  0  0  0  0  0  0
   61.7873   33.3632   46.1507 H   0  0  0  0  0  0  0  0  0  0  0  0
   59.1790   31.0490   48.6870 C   0  0  0  0  0  0  0  0  0  0  0  0
   59.1391   31.3236   49.7514 H   0  0  0  0  0  0  0  0  0  0  0  0
   58.8660   29.7450   48.2930 C   0  0  0  0  0  0  0  0  0  0  0  0
   58.5724   29.0001   49.0472 H   0  0  0  0  0  0  0  0  0  0  0  0
  1  2  1  0
  2  3  1  0
  2  4  2  0
  4  5  1  0
  5  6  2  0
  6  7  1  0
  6  8  1  0
  8  9  2  0
  9 10  1  0
  9 11  1  0
 11 12  1  0
 12 13  2  0
 12 14  1  0
 14 15  1  0
 15 16  2  0
  5 17  1  0
 17 18  1  0
 17 19  2  0
 19 20  1  0
 20 21  1  0
 20 22  1  0
 20 23  1  0
 19 24  1  0
 24 25  1  0
 25 26  2  0
 26 27  1  0
 26 28  1  0
 28 29  1  0
 28 30  2  0
 30 31  1  0
 31 32  1  0
 31 33  1  0
 31 34  1  0
 34 35  2  0
 35 36  1  0
 35 37  1  0
 37 38  1  0
 37 39  2  0
 39 40  1  0
 40 41  1  0
 40 42  2  0
 42 43  1  0
 30 44  1  0
 44 45  1  0
 44 46  2  0
 46 47  1  0
 24  4  1  0
 46 25  1  0
 15  8  1  0
 42 34  1  0
M  CHG  3  10  -1  11  -1  14  -1
M  END
>  <UniqueID>  (53) 
50

>  <SMILES>  (53) 
C=c1/c(=C/c2c([O-])[n-]c(=O)[n-]c2=O)cc(C)n1-c1ccc(Cc2ccncc2)cc1

>  <Energy>  (53) 
96.05734587535544

>  <Genealogy>  (53) 
C=c1c(=Cc2c([O-])[n-]c(=O)[n-]c2=O)cc(C)n1-c1ccc(Cc2ccncc2)cc1 (protonated)
C=c1/c(=C/c2c([O-])[n-]c(=O)[n-]c2=O)cc(C)n1-c1ccc(Cc2ccncc2)cc1 (cis-trans isomerization)
C=c1/c(=C/c2c([O-])[n-]c(=O)[n-]c2=O)cc(C)n1-c1ccc(Cc2ccncc2)cc1 (3D coordinates assigned)
C=c1/c(=C/c2c([O-])[n-]c(=O)[n-]c2=O)cc(C)n1-c1ccc(Cc2ccncc2)cc1 (optimized conformer: 96.05734587535544 kcal/mol)

>  <smiles>  (53) 
C=c1c(=Cc2c(O)[nH]c(=O)[nH]c2=O)cc(C)n1-c1ccc(Cc2ccncc2)cc1

>  <score_type>  (53) 
oracle

>  <origin>  (53) 
adg

>  <m_score__min__energy>  (53) 
-16.050000000000001

>  <m_primary>  (53) 
energy

$$$$
53:0
     RDKit          3D

 51 53  0  0  0  0  0  0  0  0999 V2000
   57.4630   32.0260   41.8000 C   0  0  0  0  0  0  0  0  0  0  0  0
   57.7500   31.8030   43.0860 C   0  0  0  0  0  0  0  0  0  0  0  0
   56.7230   31.2680   44.0450 C   0  0  0  0  0  0  0  0  0  0  0  0
   57.2900   30.1350   44.8620 C   0  0  0  0  0  0  0  0  0  0  0  0
   58.6240   30.1900   45.3020 C   0  0  0  0  0  0  0  0  0  0  0  0
   59.1580   29.1740   46.1000 C   0  0  0  0  0  0  0  0  0  0  0  0
   60.4950   29.2780   46.5110 O   0  0  0  0  0  0  0  0  0  0  0  0
   60.8980   29.6740   47.7950 C   0  0  0  0  0  0  0  0  0  0  0  0
   61.3360   30.9910   47.9920 C   0  0  0  0  0  0  0  0  0  0  0  0
   61.3580   31.9820   46.8470 C   0  0  0  0  0  0  0  0  0  0  0  0
   60.4140   33.1220   47.1060 C   0  0  0  0  0  0  0  0  0  0  0  0
   60.7290   34.0080   47.9510 O   0  0  0  0  0  0  0  0  0  0  0  0
   59.1880   33.2460   46.3670 N   0  0  0  0  0  0  0  0  0  0  0  0
   59.0150   34.2130   45.3030 C   0  0  0  0  0  0  0  0  0  0  0  0
   57.5170   34.3100   45.1730 C   0  0  0  0  0  0  0  0  0  0  0  0
   57.0270   33.5560   46.4040 C   0  0  0  0  0  0  0  0  0  0  0  0
   58.0390   32.6520   46.7840 O   0  0  0  0  0  0  0  0  0  0  0  0
   61.8210   31.3470   49.2580 C   0  0  0  0  0  0  0  0  0  0  0  0
   62.2830   32.5080   49.4380 O   0  0  0  0  0  0  0  0  0  0  0  0
   61.8090   30.4410   50.2860 N   0  0  0  0  0  0  0  0  0  0  0  0
   62.3560   30.8110   51.6040 C   0  0  0  0  0  0  0  0  0  0  0  0
   61.3520   29.1650   50.0720 C   0  0  0  0  0  0  0  0  0  0  0  0
   61.3920   28.3200   51.0130 O   0  0  0  0  0  0  0  0  0  0  0  0
   60.8590   28.7940   48.8460 N   0  0  0  0  0  0  0  0  0  0  0  0
   60.3240   27.4340   48.6550 C   0  0  0  0  0  0  0  0  0  0  0  0
   58.3490   28.0780   46.4500 C   0  0  0  0  0  0  0  0  0  0  0  0
   57.0210   28.0180   46.0230 C   0  0  0  0  0  0  0  0  0  0  0  0
   56.4870   29.0420   45.2370 C   0  0  0  0  0  0  0  0  0  0  0  0
   55.1580   28.9690   44.8360 O   0  0  0  0  0  0  0  0  0  0  0  0
   58.2369   32.4180   41.1237 H   0  0  0  0  0  0  0  0  0  0  0  0
   56.4528   31.8175   41.4177 H   0  0  0  0  0  0  0  0  0  0  0  0
   58.7648   32.0166   43.4528 H   0  0  0  0  0  0  0  0  0  0  0  0
   56.4056   32.0759   44.7207 H   0  0  0  0  0  0  0  0  0  0  0  0
   55.8655   30.8911   43.4682 H   0  0  0  0  0  0  0  0  0  0  0  0
   59.2557   31.0434   45.0147 H   0  0  0  0  0  0  0  0  0  0  0  0
   62.3779   32.3779   46.7329 H   0  0  0  0  0  0  0  0  0  0  0  0
   61.0414   31.4653   45.9290 H   0  0  0  0  0  0  0  0  0  0  0  0
   59.4517   35.1847   45.5771 H   0  0  0  0  0  0  0  0  0  0  0  0
   59.5132   33.9210   44.3668 H   0  0  0  0  0  0  0  0  0  0  0  0
   57.1839   35.3582   45.1907 H   0  0  0  0  0  0  0  0  0  0  0  0
   57.1324   33.9005   44.2273 H   0  0  0  0  0  0  0  0  0  0  0  0
   56.8300   34.2636   47.2229 H   0  0  0  0  0  0  0  0  0  0  0  0
   56.0941   33.0179   46.1800 H   0  0  0  0  0  0  0  0  0  0  0  0
   61.7240   30.3835   52.3964 H   0  0  0  0  0  0  0  0  0  0  0  0
   63.3793   30.4188   51.6995 H   0  0  0  0  0  0  0  0  0  0  0  0
   62.3728   31.9067   51.6995 H   0  0  0  0  0  0  0  0  0  0  0  0
   60.1417   26.9706   49.6358 H   0  0  0  0  0  0  0  0  0  0  0  0
   59.3797   27.4870   48.0933 H   0  0  0  0  0  0  0  0  0  0  0  0
   61.0513   26.8294   48.0933 H   0  0  0  0  0  0  0  0  0  0  0  0
   58.7644   27.2645   47.0629 H   0  0  0  0  0  0  0  0  0  0  0  0
   56.3926   27.1609   46.3067 H   0  0  0  0  0  0  0  0  0  0  0  0
  1  2  2  0
  2  3  1  0
  3  4  1  0
  4  5  2  0
  5  6  1  0
  6  7  1  0
  7  8  1  0
  8  9  2  0
  9 10  1  0
 10 11  1  0
 11 12  2  0
 11 13  1  0
 13 14  1  0
 14 15  1  0
 15 16  1  0
 16 17  1  0
  9 18  1  0
 18 19  2  0
 18 20  1  0
 20 21  1  0
 20 22  1  0
 22 23  2  0
 22 24  1  0
 24 25  1  0
  6 26  2  0
 26 27  1  0
 27 28  2  0
 28 29  1  0
 28  4  1  0
 24  8  1  0
 17 13  1  0
  1 30  1  0
  1 31  1  0
  2 32  1  0
  3 33  1  0
  3 34  1  0
  5 35  1  0
 10 36  1  0
 10 37  1  0
 14 38  1  0
 14 39  1  0
 15 40  1  0
 15 41  1  0
 16 42  1  0
 16 43  1  0
 21 44  1  0
 21 45  1  0
 21 46  1  0
 25 47  1  0
 25 48  1  0
 25 49  1  0
 26 50  1  0
 27 51  1  0
M  CHG  1  29  -1
M  END
>  <UniqueID>  (54) 
51

>  <SMILES>  (54) 
C=CCc1cc(Oc2c(CC(=O)N3CCCO3)c(=O)n(C)c(=O)n2C)ccc1[O-]

>  <Energy>  (54) 
71.64404341715063

>  <Genealogy>  (54) 
C=CCc1cc(Oc2c(CC(=O)N3CCCO3)c(=O)n(C)c(=O)n2C)ccc1[O-] (protonated)
C=CCc1cc(Oc2c(CC(=O)N3CCCO3)c(=O)n(C)c(=O)n2C)ccc1[O-] (3D coordinates assigned)
C=CCc1cc(Oc2c(CC(=O)N3CCCO3)c(=O)n(C)c(=O)n2C)ccc1[O-] (nonaromatic ring conformer: 71.64404341715063 kcal/mol)

>  <smiles>  (54) 
C=CCc1cc(Oc2c(CC(=O)N3CCCO3)c(=O)n(C)c(=O)n2C)ccc1O

>  <score_type>  (54) 
oracle

>  <origin>  (54) 
adg

>  <m_score__min__energy>  (54) 
-10.32

>  <m_primary>  (54) 
energy

$$$$
54:0
     RDKit          3D

 51 53  0  0  0  0  0  0  0  0999 V2000
   53.7760   25.8140   46.3770 H   0  0  0  0  0  0  0  0  0  0  0  0
   54.5490   26.2920   45.9280 O   0  0  0  0  0  0  0  0  0  0  0  0
   55.8310   25.7480   45.9150 C   0  0  0  0  0  0  0  0  0  0  0  0
   56.0740   24.5090   45.3080 C   0  0  0  0  0  0  0  0  0  0  0  0
   55.2436   23.9462   44.8567 H   0  0  0  0  0  0  0  0  0  0  0  0
   57.3700   23.9870   45.2750 C   0  0  0  0  0  0  0  0  0  0  0  0
   57.5608   23.0211   44.7844 H   0  0  0  0  0  0  0  0  0  0  0  0
   58.4230   24.6900   45.8640 C   0  0  0  0  0  0  0  0  0  0  0  0
   59.4431   24.2800   45.8273 H   0  0  0  0  0  0  0  0  0  0  0  0
   58.1860   25.9180   46.5030 C   0  0  0  0  0  0  0  0  0  0  0  0
   59.3130   26.6570   47.1790 C   0  0  0  0  0  0  0  0  0  0  0  0
   60.0119   25.9216   47.6042 H   0  0  0  0  0  0  0  0  0  0  0  0
   58.8730   27.2955   47.9591 H   0  0  0  0  0  0  0  0  0  0  0  0
   60.0850   27.5680   46.2110 C   0  0  0  0  0  0  0  0  0  0  0  0
   60.5082   26.9472   45.4076 H   0  0  0  0  0  0  0  0  0  0  0  0
   60.8679   28.0772   46.7921 H   0  0  0  0  0  0  0  0  0  0  0  0
   59.2140   28.6410   45.5850 C   0  0  0  0  0  0  0  0  0  0  0  0
   58.3900   28.3050   44.4940 C   0  0  0  0  0  0  0  0  0  0  0  0
   58.4060   27.2799   44.0953 H   0  0  0  0  0  0  0  0  0  0  0  0
   57.5530   29.2590   43.9130 C   0  0  0  0  0  0  0  0  0  0  0  0
   56.9037   28.9798   43.0701 H   0  0  0  0  0  0  0  0  0  0  0  0
   57.5390   30.5660   44.4000 C   0  0  0  0  0  0  0  0  0  0  0  0
   56.8713   31.3141   43.9478 H   0  0  0  0  0  0  0  0  0  0  0  0
   58.3720   30.9250   45.4610 C   0  0  0  0  0  0  0  0  0  0  0  0
   58.3661   31.9602   45.8330 H   0  0  0  0  0  0  0  0  0  0  0  0
   59.2170   29.9760   46.0570 C   0  0  0  0  0  0  0  0  0  0  0  0
   60.0820   30.3850   47.1260 N   0  0  0  0  0  0  0  0  0  0  0  0
   61.2640   31.1880   46.8230 C   0  0  0  0  0  0  0  0  0  0  0  0
   61.7386   31.5105   47.7615 H   0  0  0  0  0  0  0  0  0  0  0  0
   61.9764   30.5862   46.2397 H   0  0  0  0  0  0  0  0  0  0  0  0
   60.9670   32.0720   46.2397 H   0  0  0  0  0  0  0  0  0  0  0  0
   59.5150   30.3460   48.7670 S   0  0  0  0  0  0  0  0  0  0  0  0
   58.5060   29.2410   48.9160 O   0  0  0  0  0  0  0  0  0  0  0  0
   60.6790   30.1030   49.6850 O   0  0  0  0  0  0  0  0  0  0  0  0
   58.7500   31.8700   49.1900 C   0  0  0  0  0  0  0  0  0  0  0  0
   57.8797   31.8731   49.8628 H   0  0  0  0  0  0  0  0  0  0  0  0
   59.2120   33.0230   48.7050 C   0  0  0  0  0  0  0  0  0  0  0  0
   59.9149   33.6078   49.3165 H   0  0  0  0  0  0  0  0  0  0  0  0
   58.8190   33.5490   47.3790 C   0  0  0  0  0  0  0  0  0  0  0  0
   57.4700   33.4630   46.9980 C   0  0  0  0  0  0  0  0  0  0  0  0
   56.7332   33.0314   47.6914 H   0  0  0  0  0  0  0  0  0  0  0  0
   57.0570   33.9220   45.7440 C   0  0  0  0  0  0  0  0  0  0  0  0
   56.0002   33.8404   45.4500 H   0  0  0  0  0  0  0  0  0  0  0  0
   57.9840   34.4840   44.8640 C   0  0  0  0  0  0  0  0  0  0  0  0
   57.6592   34.8353   43.8735 H   0  0  0  0  0  0  0  0  0  0  0  0
   59.3220   34.6000   45.2410 C   0  0  0  0  0  0  0  0  0  0  0  0
   60.0483   35.0514   44.5491 H   0  0  0  0  0  0  0  0  0  0  0  0
   59.7450   34.1450   46.4950 C   0  0  0  0  0  0  0  0  0  0  0  0
   61.0420   34.3260   46.8490 F   0  0  0  0  0  0  0  0  0  0  0  0
   56.8850   26.4490   46.5130 C   0  0  0  0  0  0  0  0  0  0  0  0
   56.6938   27.4201   46.9930 H   0  0  0  0  0  0  0  0  0  0  0  0
  1  2  1  0
  2  3  1  0
  3  4  2  0
  4  5  1  0
  4  6  1  0
  6  7  1  0
  6  8  2  0
  8  9  1  0
  8 10  1  0
 10 11  1  0
 11 12  1  0
 11 13  1  0
 11 14  1  0
 14 15  1  0
 14 16  1  0
 14 17  1  0
 17 18  2  0
 18 19  1  0
 18 20  1  0
 20 21  1  0
 20 22  2  0
 22 23  1  0
 22 24  1  0
 24 25  1  0
 24 26  2  0
 26 27  1  0
 27 28  1  0
 28 29  1  0
 28 30  1  0
 28 31  1  0
 27 32  1  0
 32 33  2  0
 32 34  2  0
 32 35  1  0
 35 36  1  0
 35 37  2  0
 37 38  1  0
 37 39  1  0
 39 40  2  0
 40 41  1  0
 40 42  1  0
 42 43  1  0
 42 44  2  0
 44 45  1  0
 44 46  1  0
 46 47  1  0
 46 48  2  0
 48 49  1  0
 10 50  2  0
 50 51  1  0
 50  3  1  0
 26 17  1  0
 48 39  1  0
M  END
>  <UniqueID>  (55) 
52

>  <SMILES>  (55) 
CN(c1ccccc1CCc1cccc(O)c1)S(=O)(=O)/C=C/c1ccccc1F

>  <Energy>  (55) 
54.46805867651103

>  <Genealogy>  (55) 
CN(c1ccccc1CCc1cccc(O)c1)S(=O)(=O)/C=C/c1ccccc1F (cis-trans isomerization)
CN(c1ccccc1CCc1cccc(O)c1)S(=O)(=O)/C=C/c1ccccc1F (3D coordinates assigned)
CN(c1ccccc1CCc1cccc(O)c1)S(=O)(=O)/C=C/c1ccccc1F (optimized conformer: 54.46805867651103 kcal/mol)

>  <smiles>  (55) 
CN(c1ccccc1CCc1cccc(O)c1)S(=O)(=O)C=Cc1ccccc1F

>  <score_type>  (55) 
oracle

>  <origin>  (55) 
adg

>  <m_score__min__energy>  (55) 
-10.210000000000001

>  <m_primary>  (55) 
energy

$$$$
55:0
     RDKit          3D

 49 50  0  0  0  0  0  0  0  0999 V2000
   54.7860   26.3360   45.9870 N   0  0  0  0  0  0  0  0  0  0  0  0
   56.1490   25.2910   46.1950 S   0  0  0  0  0  0  0  0  0  0  0  0
   55.8550   24.2850   47.2730 O   0  0  0  0  0  0  0  0  0  0  0  0
   56.4070   24.5720   44.9000 O   0  0  0  0  0  0  0  0  0  0  0  0
   57.5620   26.2360   46.6560 C   0  0  0  0  0  0  0  0  0  0  0  0
   58.2990   25.8800   47.7910 C   0  0  0  0  0  0  0  0  0  0  0  0
   59.4400   26.6040   48.1450 C   0  0  0  0  0  0  0  0  0  0  0  0
   59.8580   27.6820   47.3610 C   0  0  0  0  0  0  0  0  0  0  0  0
   59.1340   28.0530   46.2120 C   0  0  0  0  0  0  0  0  0  0  0  0
   59.5760   29.1980   45.3830 C   0  0  0  0  0  0  0  0  0  0  0  0
   60.5170   29.9400   45.7790 O   0  0  0  0  0  0  0  0  0  0  0  0
   58.9340   29.4740   44.1320 N   0  0  0  0  0  0  0  0  0  0  0  0
   57.4920   29.6360   43.9810 C   0  0  0  0  0  0  0  0  0  0  0  0
   57.0280   30.8580   44.7130 C   0  0  0  0  0  0  0  0  0  0  0  0
   55.8270   31.2290   44.6040 O   0  0  0  0  0  0  0  0  0  0  0  0
   57.9510   31.6090   45.5160 N   0  0  0  0  0  0  0  0  0  0  0  0
   57.6250   32.9350   46.0560 C   0  0  2  0  0  0  0  0  0  0  0  0
   57.8210   34.0060   44.9600 C   0  0  0  0  0  0  0  0  0  0  0  0
   57.7650   33.4430   43.6760 O   0  0  0  0  0  0  0  0  0  0  0  0
   58.4750   33.2110   47.3210 C   0  0  0  0  0  0  0  0  0  0  0  0
   59.7070   34.1010   47.0780 C   0  0  0  0  0  0  0  0  0  0  0  0
   61.0020   33.3450   47.2350 C   0  0  0  0  0  0  0  0  0  0  0  0
   61.0270   32.1010   47.8890 C   0  0  0  0  0  0  0  0  0  0  0  0
   62.2280   31.3970   48.0160 C   0  0  0  0  0  0  0  0  0  0  0  0
   63.4100   31.9250   47.4900 C   0  0  0  0  0  0  0  0  0  0  0  0
   63.3940   33.1580   46.8370 C   0  0  0  0  0  0  0  0  0  0  0  0
   62.1950   33.8670   46.7090 C   0  0  0  0  0  0  0  0  0  0  0  0
   57.9820   27.3210   45.8690 C   0  0  0  0  0  0  0  0  0  0  0  0
   55.1420   27.3150   46.0570 H   0  0  0  0  0  0  0  0  0  0  0  0
   57.9786   25.0267   48.4068 H   0  0  0  0  0  0  0  0  0  0  0  0
   60.0105   26.3247   49.0430 H   0  0  0  0  0  0  0  0  0  0  0  0
   60.7596   28.2452   47.6435 H   0  0  0  0  0  0  0  0  0  0  0  0
   57.2478   29.7377   42.9133 H   0  0  0  0  0  0  0  0  0  0  0  0
   56.9864   28.7536   44.4001 H   0  0  0  0  0  0  0  0  0  0  0  0
   58.9100   31.2200   45.6630 H   0  0  0  0  0  0  0  0  0  0  0  0
   56.5692   32.9721   46.3623 H   0  0  0  0  0  0  0  0  0  0  0  0
   57.0281   34.7627   45.0536 H   0  0  0  0  0  0  0  0  0  0  0  0
   58.8135   34.4607   45.0949 H   0  0  0  0  0  0  0  0  0  0  0  0
   56.9960   32.8130   43.6710 H   0  0  0  0  0  0  0  0  0  0  0  0
   57.8339   33.7067   48.0648 H   0  0  0  0  0  0  0  0  0  0  0  0
   58.8543   32.2367   47.6628 H   0  0  0  0  0  0  0  0  0  0  0  0
   59.6552   34.5046   46.0560 H   0  0  0  0  0  0  0  0  0  0  0  0
   59.6942   34.9041   47.8296 H   0  0  0  0  0  0  0  0  0  0  0  0
   60.0985   31.6801   48.3022 H   0  0  0  0  0  0  0  0  0  0  0  0
   62.2426   30.4252   48.5312 H   0  0  0  0  0  0  0  0  0  0  0  0
   64.3534   31.3684   47.5908 H   0  0  0  0  0  0  0  0  0  0  0  0
   64.3248   33.5727   46.4226 H   0  0  0  0  0  0  0  0  0  0  0  0
   62.1865   34.8387   46.1935 H   0  0  0  0  0  0  0  0  0  0  0  0
   57.4047   27.6014   44.9756 H   0  0  0  0  0  0  0  0  0  0  0  0
  1  2  1  0
  2  3  2  0
  2  4  2  0
  2  5  1  0
  5  6  2  0
  6  7  1  0
  7  8  2  0
  8  9  1  0
  9 10  1  0
 10 11  2  0
 10 12  1  0
 12 13  1  0
 13 14  1  0
 14 15  2  0
 14 16  1  0
 16 17  1  0
 17 18  1  0
 18 19  1  0
 17 20  1  0
 20 21  1  0
 21 22  1  0
 22 23  2  0
 23 24  1  0
 24 25  2  0
 25 26  1  0
 26 27  2  0
  9 28  2  0
 28  5  1  0
 27 22  1  0
  1 29  1  0
  6 30  1  0
  7 31  1  0
  8 32  1  0
 13 33  1  0
 13 34  1  0
 16 35  1  0
 17 36  1  1
 18 37  1  0
 18 38  1  0
 19 39  1  0
 20 40  1  0
 20 41  1  0
 21 42  1  0
 21 43  1  0
 23 44  1  0
 24 45  1  0
 25 46  1  0
 26 47  1  0
 27 48  1  0
 28 49  1  0
M  CHG  2   1  -1  12  -1
M  END
>  <UniqueID>  (56) 
53

>  <SMILES>  (56) 
[NH-]S(=O)(=O)c1cccc(C(=O)[N-]CC(=O)N[C@H](CO)CCc2ccccc2)c1

>  <Energy>  (56) 
40.16999094691751

>  <Genealogy>  (56) 
[NH-]S(=O)(=O)c1cccc(C(=O)[N-]CC(=O)NC(CO)CCc2ccccc2)c1 (protonated)
[NH-]S(=O)(=O)c1cccc(C(=O)[N-]CC(=O)N[C@H](CO)CCc2ccccc2)c1 (chirality)
[NH-]S(=O)(=O)c1cccc(C(=O)[N-]CC(=O)N[C@H](CO)CCc2ccccc2)c1 (3D coordinates assigned)
[NH-]S(=O)(=O)c1cccc(C(=O)[N-]CC(=O)N[C@H](CO)CCc2ccccc2)c1 (optimized conformer: 40.16999094691751 kcal/mol)

>  <smiles>  (56) 
NS(=O)(=O)c1cccc(C(=O)NCC(=O)NC(CO)CCc2ccccc2)c1

>  <score_type>  (56) 
oracle

>  <origin>  (56) 
adg

>  <m_score__min__energy>  (56) 
-11.98

>  <m_primary>  (56) 
energy

$$$$
56:0
     RDKit          3D

 44 47  0  0  0  0  0  0  0  0999 V2000
   59.4855   30.8760   44.2342 H   0  0  0  0  0  0  0  0  0  0  0  0
   59.0110   29.9250   44.5180 C   0  0  0  0  0  0  0  0  0  0  0  0
   58.6168   29.2536   43.7409 H   0  0  0  0  0  0  0  0  0  0  0  0
   58.9130   29.5840   45.8120 C   0  0  0  0  0  0  0  0  0  0  0  0
   58.3390   28.4140   46.3230 C   0  0  0  0  0  0  0  0  0  0  0  0
   57.7950   27.4000   45.6230 C   0  0  0  0  0  0  0  0  0  0  0  0
   57.7809   27.4792   44.5259 H   0  0  0  0  0  0  0  0  0  0  0  0
   57.2170   26.1900   46.2370 C   0  0  0  0  0  0  0  0  0  0  0  0
   57.9550   25.1410   46.6380 N   0  0  0  0  0  0  0  0  0  0  0  0
   57.0310   24.2460   47.0490 C   0  0  0  0  0  0  0  0  0  0  0  0
   57.3410   23.1180   47.5150 O   0  0  0  0  0  0  0  0  0  0  0  0
   55.7500   24.6490   46.9130 N   0  0  0  0  0  0  0  0  0  0  0  0
   55.8820   25.8770   46.3860 C   0  0  0  0  0  0  0  0  0  0  0  0
   54.8070   26.6690   46.0050 O   0  0  0  0  0  0  0  0  0  0  0  0
   58.5000   28.4710   47.7010 C   0  0  0  0  0  0  0  0  0  0  0  0
   58.1821   27.7121   48.4311 H   0  0  0  0  0  0  0  0  0  0  0  0
   59.1360   29.6640   47.9770 C   0  0  0  0  0  0  0  0  0  0  0  0
   59.5420   30.1180   49.3470 C   0  0  0  0  0  0  0  0  0  0  0  0
   59.0096   29.5226   50.1033 H   0  0  0  0  0  0  0  0  0  0  0  0
   60.6266   29.9835   49.4714 H   0  0  0  0  0  0  0  0  0  0  0  0
   59.2877   31.1809   49.4714 H   0  0  0  0  0  0  0  0  0  0  0  0
   59.3910   30.3380   46.8340 N   0  0  0  0  0  0  0  0  0  0  0  0
   60.0560   31.6100   46.7400 C   0  0  0  0  0  0  0  0  0  0  0  0
   61.3430   31.7680   47.2740 C   0  0  0  0  0  0  0  0  0  0  0  0
   61.8380   30.9153   47.7617 H   0  0  0  0  0  0  0  0  0  0  0  0
   62.0070   33.0030   47.1930 C   0  0  0  0  0  0  0  0  0  0  0  0
   63.3660   33.1530   47.7670 C   0  0  0  0  0  0  0  0  0  0  0  0
   64.3680   33.1470   47.0000 O   0  0  0  0  0  0  0  0  0  0  0  0
   63.5600   33.3190   49.1800 N   0  0  0  0  0  0  0  0  0  0  0  0
   62.7510   33.5670   49.7910 H   0  0  0  0  0  0  0  0  0  0  0  0
   64.8980   33.3490   49.7630 C   0  0  0  0  0  0  0  0  0  0  0  0
   65.2817   34.2103   49.1965 H   0  0  0  0  0  0  0  0  0  0  0  0
   64.9440   32.9150   51.2180 C   0  0  0  0  0  0  0  0  0  0  0  0
   65.6694   33.3736   51.9062 H   0  0  0  0  0  0  0  0  0  0  0  0
   64.2097   32.8515   52.0345 H   0  0  0  0  0  0  0  0  0  0  0  0
   65.4230   31.9710   50.1270 C   0  0  0  0  0  0  0  0  0  0  0  0
   66.4950   31.7464   50.0256 H   0  0  0  0  0  0  0  0  0  0  0  0
   65.1789   30.9413   49.8269 H   0  0  0  0  0  0  0  0  0  0  0  0
   61.3520   34.0900   46.5850 C   0  0  0  0  0  0  0  0  0  0  0  0
   61.8549   35.0665   46.5256 H   0  0  0  0  0  0  0  0  0  0  0  0
   60.0670   33.9380   46.0560 C   0  0  0  0  0  0  0  0  0  0  0  0
   59.2660   35.3110   45.3110 Cl  0  0  0  0  0  0  0  0  0  0  0  0
   59.4170   32.7010   46.1320 C   0  0  0  0  0  0  0  0  0  0  0  0
   58.1630   32.5600   45.6340 F   0  0  0  0  0  0  0  0  0  0  0  0
  1  2  1  0
  2  3  1  0
  2  4  2  0
  4  5  1  0
  5  6  2  0
  6  7  1  0
  6  8  1  0
  8  9  1  0
  9 10  1  0
 10 11  2  0
 10 12  1  0
 12 13  1  0
 13 14  1  0
  5 15  1  0
 15 16  1  0
 15 17  2  0
 17 18  1  0
 18 19  1  0
 18 20  1  0
 18 21  1  0
 17 22  1  0
 22 23  1  0
 23 24  2  0
 24 25  1  0
 24 26  1  0
 26 27  1  0
 27 28  2  0
 27 29  1  0
 29 30  1  0
 29 31  1  0
 31 32  1  0
 31 33  1  0
 33 34  1  0
 33 35  1  0
 33 36  1  0
 36 37  1  0
 36 38  1  0
 26 39  2  0
 39 40  1  0
 39 41  1  0
 41 42  1  0
 41 43  2  0
 43 44  1  0
 22  4  1  0
 43 23  1  0
 13  8  2  0
 36 31  1  0
M  CHG  3   9  -1  12  -1  14  -1
M  END
>  <UniqueID>  (57) 
54

>  <SMILES>  (57) 
C=c1/c(=C/c2[n-]c(=O)[n-]c2[O-])cc(C)n1-c1cc(C(=O)NC2CC2)cc(Cl)c1F

>  <Energy>  (57) 
383.44775577717627

>  <Genealogy>  (57) 
C=c1c(=Cc2[n-]c(=O)[n-]c2[O-])cc(C)n1-c1cc(C(=O)NC2CC2)cc(Cl)c1F (protonated)
C=c1/c(=C/c2[n-]c(=O)[n-]c2[O-])cc(C)n1-c1cc(C(=O)NC2CC2)cc(Cl)c1F (cis-trans isomerization)
C=c1/c(=C/c2[n-]c(=O)[n-]c2[O-])cc(C)n1-c1cc(C(=O)NC2CC2)cc(Cl)c1F (3D coordinates assigned)
C=c1/c(=C/c2[n-]c(=O)[n-]c2[O-])cc(C)n1-c1cc(C(=O)NC2CC2)cc(Cl)c1F (nonaromatic ring conformer: 383.44775577717627 kcal/mol)

>  <smiles>  (57) 
C=c1c(=Cc2[nH]c(=O)[nH]c2O)cc(C)n1-c1cc(C(=O)NC2CC2)cc(Cl)c1F

>  <score_type>  (57) 
oracle

>  <origin>  (57) 
adg

>  <m_score__min__energy>  (57) 
-15.869999999999999

>  <m_primary>  (57) 
energy

$$$$
57:0
     RDKit          3D

 46 49  0  0  0  0  0  0  0  0999 V2000
   59.1520   34.4310   44.5180 C   0  0  0  0  0  0  0  0  0  0  0  0
   58.3600   33.1740   44.3820 C   0  0  0  0  0  0  0  0  0  0  0  0
   57.6600   32.6080   45.3920 N   0  0  0  0  0  0  0  0  0  0  0  0
   56.9770   31.5230   45.0320 N   0  0  0  0  0  0  0  0  0  0  0  0
   57.1200   31.2270   43.7220 C   0  0  0  0  0  0  0  0  0  0  0  0
   56.3530   29.8170   42.9340 S   0  0  0  0  0  0  0  0  0  0  0  0
   57.2620   28.6660   43.9570 C   0  0  0  0  0  0  0  0  0  0  0  0
   58.2130   27.7610   43.5060 C   0  0  0  0  0  0  0  0  0  0  0  0
   58.7990   27.0280   44.4870 N   0  0  0  0  0  0  0  0  0  0  0  0
   58.3140   27.3540   45.7080 C   0  0  0  0  0  0  0  0  0  0  0  0
   58.7020   26.7980   46.8170 N   0  0  0  0  0  0  0  0  0  0  0  0
   59.5780   27.4050   47.7800 C   0  0  0  0  0  0  0  0  0  0  0  0
   60.2480   26.6590   48.5430 O   0  0  0  0  0  0  0  0  0  0  0  0
   59.6720   28.8760   47.9340 C   0  0  0  0  0  0  0  0  0  0  0  0
   60.2140   29.6630   46.9040 C   0  0  0  0  0  0  0  0  0  0  0  0
   60.2750   31.0540   47.0370 C   0  0  0  0  0  0  0  0  0  0  0  0
   59.8060   31.6730   48.2040 C   0  0  0  0  0  0  0  0  0  0  0  0
   59.8430   33.4250   48.3680 S   0  0  0  0  0  0  0  0  0  0  0  0
   59.4880   33.8120   49.7780 O   0  0  0  0  0  0  0  0  0  0  0  0
   58.8390   34.0250   47.4240 O   0  0  0  0  0  0  0  0  0  0  0  0
   61.4400   34.0100   47.9730 N   0  0  0  0  0  0  0  0  0  0  0  0
   61.7290   33.8540   46.5480 C   0  0  0  0  0  0  0  0  0  0  0  0
   63.2390   33.7240   46.4240 C   0  0  0  0  0  0  0  0  0  0  0  0
   63.7270   33.3360   47.8110 C   0  0  0  0  0  0  0  0  0  0  0  0
   62.4740   33.2460   48.6680 C   0  0  0  0  0  0  0  0  0  0  0  0
   59.3010   30.8880   49.2480 C   0  0  0  0  0  0  0  0  0  0  0  0
   59.2350   29.4990   49.1150 C   0  0  0  0  0  0  0  0  0  0  0  0
   57.1340   28.5480   45.6300 S   0  0  0  0  0  0  0  0  0  0  0  0
   58.1240   32.3330   42.9410 S   0  0  0  0  0  0  0  0  0  0  0  0
   59.2962   34.6599   45.5842 H   0  0  0  0  0  0  0  0  0  0  0  0
   60.1317   34.3011   44.0350 H   0  0  0  0  0  0  0  0  0  0  0  0
   58.6120   35.2587   44.0350 H   0  0  0  0  0  0  0  0  0  0  0  0
   57.6450   32.9780   46.3680 H   0  0  0  0  0  0  0  0  0  0  0  0
   58.4703   27.6473   42.4426 H   0  0  0  0  0  0  0  0  0  0  0  0
   60.5920   29.1832   45.9892 H   0  0  0  0  0  0  0  0  0  0  0  0
   60.6926   31.6645   46.2228 H   0  0  0  0  0  0  0  0  0  0  0  0
   61.2367   32.9512   46.1573 H   0  0  0  0  0  0  0  0  0  0  0  0
   61.3555   34.7125   45.9706 H   0  0  0  0  0  0  0  0  0  0  0  0
   63.4993   32.9447   45.6926 H   0  0  0  0  0  0  0  0  0  0  0  0
   63.7023   34.6583   46.0742 H   0  0  0  0  0  0  0  0  0  0  0  0
   64.2429   32.3650   47.7800 H   0  0  0  0  0  0  0  0  0  0  0  0
   64.4456   34.0662   48.2115 H   0  0  0  0  0  0  0  0  0  0  0  0
   62.1626   32.1966   48.7768 H   0  0  0  0  0  0  0  0  0  0  0  0
   62.6529   33.6453   49.6772 H   0  0  0  0  0  0  0  0  0  0  0  0
   58.9551   31.3668   50.1760 H   0  0  0  0  0  0  0  0  0  0  0  0
   58.8384   28.8892   49.9401 H   0  0  0  0  0  0  0  0  0  0  0  0
  1  2  1  0
  2  3  2  0
  3  4  1  0
  4  5  2  0
  5  6  1  0
  6  7  1  0
  7  8  2  0
  8  9  1  0
  9 10  1  0
 10 11  2  3
 11 12  1  0
 12 13  2  0
 12 14  1  0
 14 15  2  0
 15 16  1  0
 16 17  2  0
 17 18  1  0
 18 19  2  0
 18 20  2  0
 18 21  1  0
 21 22  1  0
 22 23  1  0
 23 24  1  0
 24 25  1  0
 17 26  1  0
 26 27  2  0
 10 28  1  0
  5 29  1  0
 29  2  1  0
 28  7  1  0
 27 14  1  0
 25 21  1  0
  1 30  1  0
  1 31  1  0
  1 32  1  0
  3 33  1  0
  8 34  1  0
 15 35  1  0
 16 36  1  0
 22 37  1  0
 22 38  1  0
 23 39  1  0
 23 40  1  0
 24 41  1  0
 24 42  1  0
 25 43  1  0
 25 44  1  0
 26 45  1  0
 27 46  1  0
M  CHG  2   3   1   9  -1
M  END
>  <UniqueID>  (58) 
55

>  <SMILES>  (58) 
Cc1[nH+]nc(Sc2c[n-]c(=NC(=O)c3ccc(S(=O)(=O)N4CCCC4)cc3)s2)s1

>  <Energy>  (58) 
114.69207387108548

>  <Genealogy>  (58) 
Cc1[nH+]nc(Sc2c[n-]c(=NC(=O)c3ccc(S(=O)(=O)N4CCCC4)cc3)s2)s1 (protonated)
Cc1[nH+]nc(Sc2c[n-]c(=NC(=O)c3ccc(S(=O)(=O)N4CCCC4)cc3)s2)s1 (3D coordinates assigned)
Cc1[nH+]nc(Sc2c[n-]c(=NC(=O)c3ccc(S(=O)(=O)N4CCCC4)cc3)s2)s1 (nonaromatic ring conformer: 114.69207387108548 kcal/mol)

>  <smiles>  (58) 
Cc1nnc(Sc2c[nH]c(=NC(=O)c3ccc(S(=O)(=O)N4CCCC4)cc3)s2)s1

>  <score_type>  (58) 
oracle

>  <origin>  (58) 
adg

>  <m_score__min__energy>  (58) 
-10.85

>  <m_primary>  (58) 
energy

$$$$
58:0
     RDKit          3D

 50 54  0  0  0  0  0  0  0  0999 V2000
   56.5880   32.1570   45.1870 O   0  0  0  0  0  0  0  0  0  0  0  0
   57.7550   32.6590   45.2480 C   0  0  0  0  0  0  0  0  0  0  0  0
   57.9330   34.1300   45.3420 C   0  0  0  0  0  0  0  0  0  0  0  0
   59.3200   34.5360   45.7690 C   0  0  0  0  0  0  0  0  0  0  0  0
   59.7430   33.9100   47.0450 C   0  0  0  0  0  0  0  0  0  0  0  0
   58.7870   33.6470   47.9680 N   0  0  0  0  0  0  0  0  0  0  0  0
   59.0770   33.1020   49.1370 N   0  0  0  0  0  0  0  0  0  0  0  0
   60.3650   32.7970   49.4270 C   0  0  0  0  0  0  0  0  0  0  0  0
   60.6670   32.2790   50.5320 O   0  0  0  0  0  0  0  0  0  0  0  0
   61.3980   33.0360   48.5330 C   0  0  0  0  0  0  0  0  0  0  0  0
   62.7030   32.7050   48.8650 C   0  0  0  0  0  0  0  0  0  0  0  0
   63.7040   32.9670   47.9190 C   0  0  0  0  0  0  0  0  0  0  0  0
   63.3680   33.5440   46.6870 C   0  0  0  0  0  0  0  0  0  0  0  0
   62.0490   33.8520   46.4140 C   0  0  0  0  0  0  0  0  0  0  0  0
   61.0580   33.6070   47.3190 C   0  0  0  0  0  0  0  0  0  0  0  0
   58.9180   31.8510   45.2300 N   0  0  0  0  0  0  0  0  0  0  0  0
   58.7330   30.4270   45.1390 C   0  0  0  0  0  0  0  0  0  0  0  0
   59.3160   29.5580   46.0460 C   0  0  0  0  0  0  0  0  0  0  0  0
   59.0980   28.1840   45.9000 C   0  0  0  0  0  0  0  0  0  0  0  0
   58.3060   27.7090   44.8540 C   0  0  0  0  0  0  0  0  0  0  0  0
   58.1130   26.2600   44.7420 C   0  0  0  0  0  0  0  0  0  0  0  0
   58.6400   25.3410   45.5910 N   0  0  0  0  0  0  0  0  0  0  0  0
   58.2320   24.1200   45.1530 C   0  0  0  0  0  0  0  0  0  0  0  0
   58.4520   22.8310   45.6100 C   0  0  0  0  0  0  0  0  0  0  0  0
   57.9170   21.7200   44.9830 C   0  0  0  0  0  0  0  0  0  0  0  0
   57.1370   21.9510   43.8570 C   0  0  0  0  0  0  0  0  0  0  0  0
   56.8900   23.2040   43.3640 C   0  0  0  0  0  0  0  0  0  0  0  0
   57.4470   24.2970   44.0250 C   0  0  0  0  0  0  0  0  0  0  0  0
   57.3890   25.6410   43.7920 N   0  0  0  0  0  0  0  0  0  0  0  0
   57.7220   28.5670   43.9470 C   0  0  0  0  0  0  0  0  0  0  0  0
   57.9560   29.9150   44.1180 C   0  0  0  0  0  0  0  0  0  0  0  0
   57.7286   34.5703   44.3549 H   0  0  0  0  0  0  0  0  0  0  0  0
   57.2355   34.4944   46.1106 H   0  0  0  0  0  0  0  0  0  0  0  0
   60.0292   34.2400   44.9820 H   0  0  0  0  0  0  0  0  0  0  0  0
   59.3091   35.6247   45.9258 H   0  0  0  0  0  0  0  0  0  0  0  0
   58.3010   32.9180   49.8200 H   0  0  0  0  0  0  0  0  0  0  0  0
   62.9447   32.2521   49.8379 H   0  0  0  0  0  0  0  0  0  0  0  0
   64.7521   32.7199   48.1436 H   0  0  0  0  0  0  0  0  0  0  0  0
   64.1499   33.7506   45.9414 H   0  0  0  0  0  0  0  0  0  0  0  0
   61.7922   34.3050   45.4451 H   0  0  0  0  0  0  0  0  0  0  0  0
   59.8860   32.2520   45.2780 H   0  0  0  0  0  0  0  0  0  0  0  0
   59.9397   29.9415   46.8670 H   0  0  0  0  0  0  0  0  0  0  0  0
   59.5514   27.4772   46.6106 H   0  0  0  0  0  0  0  0  0  0  0  0
   59.0752   22.6854   46.5046 H   0  0  0  0  0  0  0  0  0  0  0  0
   58.1005   20.7023   45.3581 H   0  0  0  0  0  0  0  0  0  0  0  0
   56.6974   21.0869   43.3373 H   0  0  0  0  0  0  0  0  0  0  0  0
   56.2672   23.3445   42.4682 H   0  0  0  0  0  0  0  0  0  0  0  0
   56.8570   26.0470   42.9930 H   0  0  0  0  0  0  0  0  0  0  0  0
   57.0968   28.1928   43.1230 H   0  0  0  0  0  0  0  0  0  0  0  0
   57.5009   30.6184   43.4052 H   0  0  0  0  0  0  0  0  0  0  0  0
  1  2  2  0
  2  3  1  0
  3  4  1  0
  4  5  1  0
  5  6  2  0
  6  7  1  0
  7  8  1  0
  8  9  2  0
  8 10  1  0
 10 11  2  0
 11 12  1  0
 12 13  2  0
 13 14  1  0
 14 15  2  0
  2 16  1  0
 16 17  1  0
 17 18  2  0
 18 19  1  0
 19 20  2  0
 20 21  1  0
 21 22  2  0
 22 23  1  0
 23 24  2  0
 24 25  1  0
 25 26  2  0
 26 27  1  0
 27 28  2  0
 28 29  1  0
 20 30  1  0
 30 31  2  0
 15  5  1  0
 31 17  1  0
 15 10  1  0
 29 21  1  0
 28 23  1  0
  3 32  1  0
  3 33  1  0
  4 34  1  0
  4 35  1  0
  7 36  1  0
 11 37  1  0
 12 38  1  0
 13 39  1  0
 14 40  1  0
 16 41  1  0
 18 42  1  0
 19 43  1  0
 24 44  1  0
 25 45  1  0
 26 46  1  0
 27 47  1  0
 29 48  1  0
 30 49  1  0
 31 50  1  0
M  END
>  <smiles>  (59) 
O=C(CCc1n[nH]c(=O)c2ccccc12)Nc1ccc(-c2nc3ccccc3[nH]2)cc1

>  <score_type>  (59) 
oracle

>  <origin>  (59) 
adg

>  <m_score__min__energy>  (59) 
-10.24

>  <m_primary>  (59) 
energy

$$$$
59:0
     RDKit          3D

 47 50  0  0  0  0  0  0  0  0999 V2000
   65.5302   34.0401   51.8142 H   0  0  0  0  0  0  0  0  0  0  0  0
   65.6370   33.6480   50.7920 C   0  0  0  0  0  0  0  0  0  0  0  0
   66.7820   33.3710   50.3500 O   0  0  0  0  0  0  0  0  0  0  0  0
   64.4360   33.4540   49.9580 C   0  0  0  0  0  0  0  0  0  0  0  0
   63.1760   33.7630   50.4810 C   0  0  0  0  0  0  0  0  0  0  0  0
   63.0823   34.1481   51.5071 H   0  0  0  0  0  0  0  0  0  0  0  0
   62.0390   33.5800   49.6940 C   0  0  0  0  0  0  0  0  0  0  0  0
   61.0460   33.8202   50.1017 H   0  0  0  0  0  0  0  0  0  0  0  0
   62.1570   33.0910   48.3850 C   0  0  0  0  0  0  0  0  0  0  0  0
   60.9890   32.8900   47.5580 N   0  0  0  0  0  0  0  0  0  0  0  0
   60.2700   31.6060   47.5870 C   0  0  0  0  0  0  0  0  0  0  0  0
   60.4280   31.1247   48.5634 H   0  0  0  0  0  0  0  0  0  0  0  0
   60.6554   30.9644   46.7809 H   0  0  0  0  0  0  0  0  0  0  0  0
   58.7670   31.8260   47.3700 C   0  0  0  0  0  0  0  0  0  0  0  0
   58.3605   32.3522   48.2463 H   0  0  0  0  0  0  0  0  0  0  0  0
   58.3079   30.8358   47.2332 H   0  0  0  0  0  0  0  0  0  0  0  0
   58.4480   32.6630   46.0990 C   0  0  0  0  0  0  0  0  0  0  0  0
   57.7652   33.4565   46.4368 H   0  0  0  0  0  0  0  0  0  0  0  0
   57.7410   31.8420   45.0440 C   0  0  0  0  0  0  0  0  0  0  0  0
   57.0490   30.7320   45.4170 N   0  0  0  0  0  0  0  0  0  0  0  0
   56.3870   29.9650   44.5080 C   0  0  0  0  0  0  0  0  0  0  0  0
   55.7280   28.9040   44.8710 N   0  0  0  0  0  0  0  0  0  0  0  0
   56.2630   27.7540   45.5430 C   0  0  0  0  0  0  0  0  0  0  0  0
   55.5330   26.7360   46.0410 N   0  0  0  0  0  0  0  0  0  0  0  0
   56.3690   25.8590   46.5760 N   0  0  0  0  0  0  0  0  0  0  0  0
   57.6240   26.3270   46.4260 C   0  0  0  0  0  0  0  0  0  0  0  0
   58.8460   25.5820   46.8460 C   0  0  0  0  0  0  0  0  0  0  0  0
   58.8971   25.5509   47.9444 H   0  0  0  0  0  0  0  0  0  0  0  0
   58.8036   24.5560   46.4517 H   0  0  0  0  0  0  0  0  0  0  0  0
   59.7386   26.0897   46.4517 H   0  0  0  0  0  0  0  0  0  0  0  0
   57.6030   27.5320   45.7580 C   0  0  0  0  0  0  0  0  0  0  0  0
   58.4542   28.1648   45.4665 H   0  0  0  0  0  0  0  0  0  0  0  0
   56.4100   30.3130   43.1950 N   0  0  0  0  0  0  0  0  0  0  0  0
   57.0830   31.4130   42.7720 C   0  0  0  0  0  0  0  0  0  0  0  0
   57.0895   31.6765   41.7041 H   0  0  0  0  0  0  0  0  0  0  0  0
   57.7660   32.2090   43.6900 C   0  0  0  0  0  0  0  0  0  0  0  0
   58.3124   33.1049   43.3603 H   0  0  0  0  0  0  0  0  0  0  0  0
   59.6880   33.3620   45.5010 C   0  0  0  0  0  0  0  0  0  0  0  0
   59.3573   34.1812   44.8456 H   0  0  0  0  0  0  0  0  0  0  0  0
   60.2662   32.6199   44.9310 H   0  0  0  0  0  0  0  0  0  0  0  0
   60.5840   33.9340   46.6030 C   0  0  0  0  0  0  0  0  0  0  0  0
   60.0326   34.7185   47.1421 H   0  0  0  0  0  0  0  0  0  0  0  0
   61.4898   34.3469   46.1349 H   0  0  0  0  0  0  0  0  0  0  0  0
   63.4410   32.7890   47.9000 C   0  0  0  0  0  0  0  0  0  0  0  0
   63.5601   32.3988   46.8784 H   0  0  0  0  0  0  0  0  0  0  0  0
   64.5380   32.9750   48.6830 N   0  0  0  0  0  0  0  0  0  0  0  0
   65.4750   32.7420   48.2830 H   0  0  0  0  0  0  0  0  0  0  0  0
  1  2  1  0
  2  3  2  0
  2  4  1  0
  4  5  2  0
  5  6  1  0
  5  7  1  0
  7  8  1  0
  7  9  2  0
  9 10  1  0
 10 11  1  0
 11 12  1  0
 11 13  1  0
 11 14  1  0
 14 15  1  0
 14 16  1  0
 14 17  1  0
 17 18  1  0
 17 19  1  0
 19 20  2  0
 20 21  1  0
 21 22  2  0
 22 23  1  0
 23 24  2  0
 24 25  1  0
 25 26  1  0
 26 27  1  0
 27 28  1  0
 27 29  1  0
 27 30  1  0
 26 31  2  0
 31 32  1  0
 21 33  1  0
 33 34  1  0
 34 35  1  0
 34 36  2  0
 36 37  1  0
 17 38  1  0
 38 39  1  0
 38 40  1  0
 38 41  1  0
 41 42  1  0
 41 43  1  0
  9 44  1  0
 44 45  1  0
 44 46  2  0
 46 47  1  0
 46  4  1  0
 41 10  1  0
 36 19  1  0
 31 23  1  0
M  CHG  3  25  -1  33  -1  46   1
M  END
>  <UniqueID>  (60) 
56

>  <SMILES>  (60) 
Cc1cc(/N=c2\nc(C3CCN(c4ccc(C=O)[nH+]c4)CC3)cc[n-]2)n[n-]1

>  <Energy>  (60) 
87.31683665945525

>  <Genealogy>  (60) 
Cc1cc(N=c2nc(C3CCN(c4ccc(C=O)[nH+]c4)CC3)cc[n-]2)n[n-]1 (protonated)
Cc1cc(/N=c2\nc(C3CCN(c4ccc(C=O)[nH+]c4)CC3)cc[n-]2)n[n-]1 (cis-trans isomerization)
Cc1cc(/N=c2\nc(C3CCN(c4ccc(C=O)[nH+]c4)CC3)cc[n-]2)n[n-]1 (3D coordinates assigned)
Cc1cc(/N=c2\nc(C3CCN(c4ccc(C=O)[nH+]c4)CC3)cc[n-]2)n[n-]1 (nonaromatic ring conformer: 87.31683665945525 kcal/mol)

>  <smiles>  (60) 
Cc1cc(N=c2nc(C3CCN(c4ccc(C=O)nc4)CC3)cc[nH]2)n[nH]1

>  <score_type>  (60) 
oracle

>  <origin>  (60) 
adg

>  <m_score__min__energy>  (60) 
-11.109999999999999

>  <m_primary>  (60) 
energy

$$$$
60:0
     RDKit          3D

 53 56  0  0  0  0  0  0  0  0999 V2000
   56.0450   31.6500   52.6360 C   0  0  0  0  0  0  0  0  0  0  0  0
   55.3600   30.5070   52.7840 C   0  0  0  0  0  0  0  0  0  0  0  0
   53.9650   30.3520   52.8400 C   0  0  0  0  0  0  0  0  0  0  0  0
   52.9690   31.2090   52.5420 C   0  0  0  0  0  0  0  0  0  0  0  0
   52.2600   31.2820   51.2530 C   0  0  0  0  0  0  0  0  0  0  0  0
   52.2620   30.3130   50.3200 N   0  0  0  0  0  0  0  0  0  0  0  0
   51.3770   30.7610   49.4030 C   0  0  0  0  0  0  0  0  0  0  0  0
   51.1110   30.1240   48.3510 O   0  0  0  0  0  0  0  0  0  0  0  0
   50.7910   31.9380   49.7090 N   0  0  0  0  0  0  0  0  0  0  0  0
   51.3510   32.2460   50.8900 C   0  0  0  0  0  0  0  0  0  0  0  0
   51.0330   33.3820   51.6240 O   0  0  0  0  0  0  0  0  0  0  0  0
   53.7360   29.0460   53.2460 C   0  0  0  0  0  0  0  0  0  0  0  0
   54.9690   28.4360   53.3420 C   0  0  0  0  0  0  0  0  0  0  0  0
   55.1880   26.9910   53.6690 C   0  0  0  0  0  0  0  0  0  0  0  0
   55.9520   29.3190   53.0650 N   0  0  0  0  0  0  0  0  0  0  0  0
   57.3620   29.0350   53.0800 C   0  0  0  0  0  0  0  0  0  0  0  0
   57.9240   28.3390   54.1600 C   0  0  0  0  0  0  0  0  0  0  0  0
   59.2880   28.0400   54.1690 C   0  0  0  0  0  0  0  0  0  0  0  0
   60.0960   28.4290   53.0980 C   0  0  0  0  0  0  0  0  0  0  0  0
   59.5420   29.1150   52.0140 C   0  0  0  0  0  0  0  0  0  0  0  0
   58.1680   29.4220   51.9970 C   0  0  0  0  0  0  0  0  0  0  0  0
   57.5660   30.0930   50.9240 O   0  0  0  0  0  0  0  0  0  0  0  0
   58.1450   31.1930   50.2290 C   0  0  0  0  0  0  0  0  0  0  0  0
   59.0880   30.6740   49.1430 C   0  0  0  0  0  0  0  0  0  0  0  0
   58.6820   31.1560   47.8230 N   0  0  0  0  0  0  0  0  0  0  0  0
   58.5060   30.3170   46.6410 C   0  0  0  0  0  0  0  0  0  0  0  0
   58.1710   31.2880   45.4790 C   0  0  0  0  0  0  0  0  0  0  0  0
   58.2070   32.6250   46.0610 N   0  0  0  0  0  0  0  0  0  0  0  0
   58.0260   33.8750   45.3370 C   0  0  0  0  0  0  0  0  0  0  0  0
   58.4950   32.5020   47.4360 C   0  0  0  0  0  0  0  0  0  0  0  0
   58.5700   33.4800   48.2270 O   0  0  0  0  0  0  0  0  0  0  0  0
   57.1445   31.6325   52.6076 H   0  0  0  0  0  0  0  0  0  0  0  0
   55.5075   32.6052   52.5429 H   0  0  0  0  0  0  0  0  0  0  0  0
   52.6591   31.9137   53.3277 H   0  0  0  0  0  0  0  0  0  0  0  0
   52.7586   28.5852   53.4519 H   0  0  0  0  0  0  0  0  0  0  0  0
   55.2077   26.8611   54.7611 H   0  0  0  0  0  0  0  0  0  0  0  0
   54.3706   26.3907   53.2430 H   0  0  0  0  0  0  0  0  0  0  0  0
   56.1466   26.6599   53.2430 H   0  0  0  0  0  0  0  0  0  0  0  0
   57.2887   28.0278   55.0023 H   0  0  0  0  0  0  0  0  0  0  0  0
   59.7264   27.4979   55.0199 H   0  0  0  0  0  0  0  0  0  0  0  0
   61.1707   28.1948   53.1080 H   0  0  0  0  0  0  0  0  0  0  0  0
   60.1815   29.4162   51.1712 H   0  0  0  0  0  0  0  0  0  0  0  0
   57.3484   31.7937   49.7658 H   0  0  0  0  0  0  0  0  0  0  0  0
   58.7109   31.8159   50.9373 H   0  0  0  0  0  0  0  0  0  0  0  0
   60.1089   31.0240   49.3556 H   0  0  0  0  0  0  0  0  0  0  0  0
   59.0503   29.5746   49.1418 H   0  0  0  0  0  0  0  0  0  0  0  0
   59.4313   29.7636   46.4229 H   0  0  0  0  0  0  0  0  0  0  0  0
   57.7099   29.5723   46.7883 H   0  0  0  0  0  0  0  0  0  0  0  0
   58.9181   31.1985   44.6766 H   0  0  0  0  0  0  0  0  0  0  0  0
   57.1906   31.0651   45.0327 H   0  0  0  0  0  0  0  0  0  0  0  0
   57.9065   34.7003   46.0544 H   0  0  0  0  0  0  0  0  0  0  0  0
   58.9062   34.0633   44.7048 H   0  0  0  0  0  0  0  0  0  0  0  0
   57.1285   33.8059   44.7048 H   0  0  0  0  0  0  0  0  0  0  0  0
  1  2  2  0
  2  3  1  0
  3  4  2  3
  4  5  1  0
  5  6  1  0
  6  7  1  0
  7  8  2  0
  7  9  1  0
  9 10  1  0
 10 11  1  0
  3 12  1  0
 12 13  2  0
 13 14  1  0
 13 15  1  0
 15 16  1  0
 16 17  2  0
 17 18  1  0
 18 19  2  0
 19 20  1  0
 20 21  2  0
 21 22  1  0
 22 23  1  0
 23 24  1  0
 24 25  1  0
 25 26  1  0
 26 27  1  0
 27 28  1  0
 28 29  1  0
 28 30  1  0
 30 31  2  0
 15  2  1  0
 21 16  1  0
 30 25  1  0
 10  5  2  0
  1 32  1  0
  1 33  1  0
  4 34  1  0
 12 35  1  0
 14 36  1  0
 14 37  1  0
 14 38  1  0
 17 39  1  0
 18 40  1  0
 19 41  1  0
 20 42  1  0
 23 43  1  0
 23 44  1  0
 24 45  1  0
 24 46  1  0
 26 47  1  0
 26 48  1  0
 27 49  1  0
 27 50  1  0
 29 51  1  0
 29 52  1  0
 29 53  1  0
M  CHG  3   6  -1   9  -1  11  -1
M  END
>  <UniqueID>  (61) 
57

>  <SMILES>  (61) 
C=c1c(=Cc2[n-]c(=O)[n-]c2[O-])cc(C)n1-c1ccccc1OCCN1CCN(C)C1=O

>  <Energy>  (61) 
132.57850785097406

>  <Genealogy>  (61) 
C=c1c(=Cc2[n-]c(=O)[n-]c2[O-])cc(C)n1-c1ccccc1OCCN1CCN(C)C1=O (protonated)
C=c1c(=Cc2[n-]c(=O)[n-]c2[O-])cc(C)n1-c1ccccc1OCCN1CCN(C)C1=O (3D coordinates assigned)
C=c1c(=Cc2[n-]c(=O)[n-]c2[O-])cc(C)n1-c1ccccc1OCCN1CCN(C)C1=O (nonaromatic ring conformer: 132.57850785097406 kcal/mol)

>  <smiles>  (61) 
C=c1c(=Cc2[nH]c(=O)[nH]c2O)cc(C)n1-c1ccccc1OCCN1CCN(C)C1=O

>  <score_type>  (61) 
oracle

>  <origin>  (61) 
adg

>  <m_score__min__energy>  (61) 
-16.649999999999999

>  <m_primary>  (61) 
energy

$$$$
61:0
     RDKit          3D

 53 56  0  0  0  0  0  0  0  0999 V2000
   54.5920   22.9260   45.8310 C   0  0  0  0  0  0  0  0  0  0  0  0
   55.5690   23.2760   46.9120 C   0  0  0  0  0  0  0  0  0  0  0  0
   55.9360   22.3550   47.8560 N   0  0  0  0  0  0  0  0  0  0  0  0
   56.9110   22.7470   48.6720 N   0  0  0  0  0  0  0  0  0  0  0  0
   57.3660   24.2770   48.2190 S   0  0  0  0  0  0  0  0  0  0  0  0
   56.2850   24.4770   46.9670 C   0  0  0  0  0  0  0  0  0  0  0  0
   56.2020   25.6360   46.0670 C   0  0  0  0  0  0  0  0  0  0  0  0
   55.1360   26.3090   46.0460 O   0  0  0  0  0  0  0  0  0  0  0  0
   57.2980   25.9980   45.2060 N   0  0  0  0  0  0  0  0  0  0  0  0
   57.3780   25.4330   43.8430 C   0  0  0  0  0  0  0  0  0  0  0  0
   57.3770   23.9310   43.8210 C   0  0  0  0  0  0  0  0  0  0  0  0
   58.2780   23.1080   44.4850 C   0  0  0  0  0  0  0  0  0  0  0  0
   58.0760   21.7470   44.2240 C   0  0  0  0  0  0  0  0  0  0  0  0
   57.0190   21.4980   43.3570 C   0  0  0  0  0  0  0  0  0  0  0  0
   56.3380   22.9700   42.9150 S   0  0  0  0  0  0  0  0  0  0  0  0
   58.2680   26.9410   45.7030 C   0  0  0  0  0  0  0  0  0  0  0  0
   59.3770   26.4440   46.4050 C   0  0  0  0  0  0  0  0  0  0  0  0
   60.3560   27.3070   46.8910 C   0  0  0  0  0  0  0  0  0  0  0  0
   60.2360   28.6810   46.6880 C   0  0  0  0  0  0  0  0  0  0  0  0
   59.1310   29.1960   46.0090 C   0  0  0  0  0  0  0  0  0  0  0  0
   58.1250   28.3430   45.5110 C   0  0  0  0  0  0  0  0  0  0  0  0
   56.9660   28.9410   44.7920 C   0  0  0  0  0  0  0  0  0  0  0  0
   55.7920   28.7880   45.2200 O   0  0  0  0  0  0  0  0  0  0  0  0
   57.1800   29.6880   43.5880 N   0  0  0  0  0  0  0  0  0  0  0  0
   57.4820   31.1160   43.5690 C   0  0  0  0  0  0  0  0  0  0  0  0
   56.9610   31.8010   44.8390 C   0  0  0  0  0  0  0  0  0  0  0  0
   57.9650   32.7850   45.3830 C   0  0  0  0  0  0  0  0  0  0  0  0
   58.4890   32.6230   46.6780 C   0  0  0  0  0  0  0  0  0  0  0  0
   59.3850   33.5610   47.2010 C   0  0  0  0  0  0  0  0  0  0  0  0
   59.7590   34.6710   46.4360 C   0  0  0  0  0  0  0  0  0  0  0  0
   59.2350   34.8450   45.1530 C   0  0  0  0  0  0  0  0  0  0  0  0
   58.3360   33.9110   44.6290 C   0  0  0  0  0  0  0  0  0  0  0  0
   53.6486   22.5881   46.2847 H   0  0  0  0  0  0  0  0  0  0  0  0
   54.4022   23.8120   45.2074 H   0  0  0  0  0  0  0  0  0  0  0  0
   55.0080   22.1210   45.2074 H   0  0  0  0  0  0  0  0  0  0  0  0
   56.5131   25.7911   43.2654 H   0  0  0  0  0  0  0  0  0  0  0  0
   58.3327   25.7644   43.4086 H   0  0  0  0  0  0  0  0  0  0  0  0
   59.0695   23.4868   45.1483 H   0  0  0  0  0  0  0  0  0  0  0  0
   58.6951   20.9510   44.6634 H   0  0  0  0  0  0  0  0  0  0  0  0
   56.6848   20.5065   43.0177 H   0  0  0  0  0  0  0  0  0  0  0  0
   59.4740   25.3613   46.5731 H   0  0  0  0  0  0  0  0  0  0  0  0
   61.2235   26.9047   47.4347 H   0  0  0  0  0  0  0  0  0  0  0  0
   61.0145   29.3611   47.0641 H   0  0  0  0  0  0  0  0  0  0  0  0
   59.0437   30.2824   45.8603 H   0  0  0  0  0  0  0  0  0  0  0  0
   58.5716   31.2532   43.5066 H   0  0  0  0  0  0  0  0  0  0  0  0
   56.9880   31.5688   42.6967 H   0  0  0  0  0  0  0  0  0  0  0  0
   56.0290   32.3347   44.6014 H   0  0  0  0  0  0  0  0  0  0  0  0
   56.7841   31.0286   45.6019 H   0  0  0  0  0  0  0  0  0  0  0  0
   58.1924   31.7535   47.2831 H   0  0  0  0  0  0  0  0  0  0  0  0
   59.7952   33.4261   48.2127 H   0  0  0  0  0  0  0  0  0  0  0  0
   60.4663   35.4073   46.8453 H   0  0  0  0  0  0  0  0  0  0  0  0
   59.5302   35.7187   44.5535 H   0  0  0  0  0  0  0  0  0  0  0  0
   57.9175   34.0584   43.6224 H   0  0  0  0  0  0  0  0  0  0  0  0
  1  2  1  0
  2  3  1  0
  3  4  2  0
  4  5  1  0
  5  6  1  0
  6  7  1  0
  7  8  2  0
  7  9  1  0
  9 10  1  0
 10 11  1  0
 11 12  2  0
 12 13  1  0
 13 14  2  0
 14 15  1  0
  9 16  1  0
 16 17  2  0
 17 18  1  0
 18 19  2  0
 19 20  1  0
 20 21  2  0
 21 22  1  0
 22 23  2  0
 22 24  1  0
 24 25  1  0
 25 26  1  0
 26 27  1  0
 27 28  2  0
 28 29  1  0
 29 30  2  0
 30 31  1  0
 31 32  2  0
  6  2  2  0
 15 11  1  0
 21 16  1  0
 32 27  1  0
  1 33  1  0
  1 34  1  0
  1 35  1  0
 10 36  1  0
 10 37  1  0
 12 38  1  0
 13 39  1  0
 14 40  1  0
 17 41  1  0
 18 42  1  0
 19 43  1  0
 20 44  1  0
 25 45  1  0
 25 46  1  0
 26 47  1  0
 26 48  1  0
 28 49  1  0
 29 50  1  0
 30 51  1  0
 31 52  1  0
 32 53  1  0
M  CHG  1  24  -1
M  END
>  <UniqueID>  (62) 
58

>  <SMILES>  (62) 
Cc1nnsc1C(=O)N(Cc1cccs1)c1ccccc1C(=O)[N-]CCc1ccccc1

>  <Energy>  (62) 
128.84962326755587

>  <Genealogy>  (62) 
Cc1nnsc1C(=O)N(Cc1cccs1)c1ccccc1C(=O)[N-]CCc1ccccc1 (protonated)
Cc1nnsc1C(=O)N(Cc1cccs1)c1ccccc1C(=O)[N-]CCc1ccccc1 (3D coordinates assigned)
Cc1nnsc1C(=O)N(Cc1cccs1)c1ccccc1C(=O)[N-]CCc1ccccc1 (optimized conformer: 128.84962326755587 kcal/mol)

>  <smiles>  (62) 
Cc1nnsc1C(=O)N(Cc1cccs1)c1ccccc1C(=O)NCCc1ccccc1

>  <score_type>  (62) 
oracle

>  <origin>  (62) 
adg

>  <m_score__min__energy>  (62) 
-11.75

>  <m_primary>  (62) 
energy

$$$$
62:0
     RDKit          3D

 62 65  0  0  0  0  0  0  0  0999 V2000
   59.7700   30.7631   44.7140 H   0  0  0  0  0  0  0  0  0  0  0  0
   59.2310   29.8330   44.9470 C   0  0  0  0  0  0  0  0  0  0  0  0
   58.6977   29.2922   44.1513 H   0  0  0  0  0  0  0  0  0  0  0  0
   59.2240   29.3580   46.2020 C   0  0  0  0  0  0  0  0  0  0  0  0
   58.5890   28.1970   46.6530 C   0  0  0  0  0  0  0  0  0  0  0  0
   57.9120   27.2970   45.9130 C   0  0  0  0  0  0  0  0  0  0  0  0
   57.8586   27.4566   44.8259 H   0  0  0  0  0  0  0  0  0  0  0  0
   57.2390   26.1120   46.4730 C   0  0  0  0  0  0  0  0  0  0  0  0
   57.9000   25.0470   46.9590 N   0  0  0  0  0  0  0  0  0  0  0  0
   56.9120   24.1840   47.2810 C   0  0  0  0  0  0  0  0  0  0  0  0
   57.1380   23.0550   47.7880 O   0  0  0  0  0  0  0  0  0  0  0  0
   55.6650   24.6230   47.0070 N   0  0  0  0  0  0  0  0  0  0  0  0
   55.8890   25.8400   46.4860 C   0  0  0  0  0  0  0  0  0  0  0  0
   54.8810   26.6610   45.9910 O   0  0  0  0  0  0  0  0  0  0  0  0
   58.8530   28.1130   48.0160 C   0  0  0  0  0  0  0  0  0  0  0  0
   58.5209   27.3199   48.7021 H   0  0  0  0  0  0  0  0  0  0  0  0
   59.6130   29.2190   48.3400 C   0  0  0  0  0  0  0  0  0  0  0  0
   60.2030   29.4860   49.6910 C   0  0  0  0  0  0  0  0  0  0  0  0
   59.4954   29.1658   50.4699 H   0  0  0  0  0  0  0  0  0  0  0  0
   61.1437   28.9259   49.7975 H   0  0  0  0  0  0  0  0  0  0  0  0
   60.4031   30.5624   49.7975 H   0  0  0  0  0  0  0  0  0  0  0  0
   59.8370   29.9720   47.2420 N   0  0  0  0  0  0  0  0  0  0  0  0
   60.6610   31.1470   47.1870 C   0  0  0  0  0  0  0  0  0  0  0  0
   62.0540   30.9940   47.1740 C   0  0  0  0  0  0  0  0  0  0  0  0
   62.4930   29.9859   47.2042 H   0  0  0  0  0  0  0  0  0  0  0  0
   62.8890   32.1130   47.1230 C   0  0  0  0  0  0  0  0  0  0  0  0
   63.9814   31.9845   47.1112 H   0  0  0  0  0  0  0  0  0  0  0  0
   62.3360   33.3940   47.0870 C   0  0  0  0  0  0  0  0  0  0  0  0
   62.9929   34.2755   47.0499 H   0  0  0  0  0  0  0  0  0  0  0  0
   60.9500   33.5570   47.0980 C   0  0  0  0  0  0  0  0  0  0  0  0
   60.5209   34.5695   47.0719 H   0  0  0  0  0  0  0  0  0  0  0  0
   60.0980   32.4430   47.1420 C   0  0  0  0  0  0  0  0  0  0  0  0
   58.3520   32.7370   47.1200 S   0  0  0  0  0  0  0  0  0  0  0  0
   57.6850   31.6410   46.3360 O   0  0  0  0  0  0  0  0  0  0  0  0
   58.0060   34.0590   46.4950 O   0  0  0  0  0  0  0  0  0  0  0  0
   57.7640   32.7120   48.7540 N   0  0  0  0  0  0  0  0  0  0  0  0
   58.8900   32.6670   49.6840 C   0  0  0  0  0  0  0  0  0  0  0  0
   59.7351   32.1441   49.2125 H   0  0  0  0  0  0  0  0  0  0  0  0
   59.1939   33.6917   49.9439 H   0  0  0  0  0  0  0  0  0  0  0  0
   58.4810   31.9390   50.9200 C   0  0  0  0  0  0  0  0  0  0  0  0
   57.5610   31.0780   50.8670 O   0  0  0  0  0  0  0  0  0  0  0  0
   59.1330   32.2300   52.1610 N   0  0  0  0  0  0  0  0  0  0  0  0
   60.2850   31.4870   52.6620 C   0  0  0  0  0  0  0  0  0  0  0  0
   60.1948   31.3701   53.7520 H   0  0  0  0  0  0  0  0  0  0  0  0
   60.3115   30.5001   52.1769 H   0  0  0  0  0  0  0  0  0  0  0  0
   61.5800   32.2320   52.3410 C   0  0  0  0  0  0  0  0  0  0  0  0
   61.5294   33.2495   52.7559 H   0  0  0  0  0  0  0  0  0  0  0  0
   62.4304   31.6946   52.7860 H   0  0  0  0  0  0  0  0  0  0  0  0
   61.7600   32.3070   50.8700 N   0  0  0  0  0  0  0  0  0  0  0  0
   62.8710   31.4700   50.3790 C   0  0  0  0  0  0  0  0  0  0  0  0
   62.8433   30.4984   50.8941 H   0  0  0  0  0  0  0  0  0  0  0  0
   62.7536   31.3364   49.2935 H   0  0  0  0  0  0  0  0  0  0  0  0
   64.2260   32.1380   50.6430 C   0  0  0  0  0  0  0  0  0  0  0  0
   64.3676   32.2534   51.7277 H   0  0  0  0  0  0  0  0  0  0  0  0
   65.0223   31.5066   50.2221 H   0  0  0  0  0  0  0  0  0  0  0  0
   64.2780   33.4100   50.0290 O   0  0  0  0  0  0  0  0  0  0  0  0
   63.3000   34.2550   50.6020 C   0  0  0  0  0  0  0  0  0  0  0  0
   63.4855   34.3382   51.6830 H   0  0  0  0  0  0  0  0  0  0  0  0
   63.3661   35.2425   50.1220 H   0  0  0  0  0  0  0  0  0  0  0  0
   61.8830   33.6940   50.3760 C   0  0  0  0  0  0  0  0  0  0  0  0
   61.1592   34.3280   50.9091 H   0  0  0  0  0  0  0  0  0  0  0  0
   61.6831   33.6921   49.2943 H   0  0  0  0  0  0  0  0  0  0  0  0
  1  2  1  0
  2  3  1  0
  2  4  2  0
  4  5  1  0
  5  6  2  0
  6  7  1  0
  6  8  1  0
  8  9  1  0
  9 10  1  0
 10 11  2  0
 10 12  1  0
 12 13  1  0
 13 14  1  0
  5 15  1  0
 15 16  1  0
 15 17  2  0
 17 18  1  0
 18 19  1  0
 18 20  1  0
 18 21  1  0
 17 22  1  0
 22 23  1  0
 23 24  2  0
 24 25  1  0
 24 26  1  0
 26 27  1  0
 26 28  2  0
 28 29  1  0
 28 30  1  0
 30 31  1  0
 30 32  2  0
 32 33  1  0
 33 34  2  0
 33 35  2  0
 33 36  1  0
 36 37  1  0
 37 38  1  0
 37 39  1  0
 37 40  1  0
 40 41  2  0
 40 42  1  0
 42 43  1  0
 43 44  1  0
 43 45  1  0
 43 46  1  0
 46 47  1  0
 46 48  1  0
 46 49  1  0
 49 50  1  0
 50 51  1  0
 50 52  1  0
 50 53  1  0
 53 54  1  0
 53 55  1  0
 53 56  1  0
 56 57  1  0
 57 58  1  0
 57 59  1  0
 57 60  1  0
 60 61  1  0
 60 62  1  0
 22  4  1  0
 32 23  1  0
 60 49  1  0
 13  8  2  0
M  CHG  5   9  -1  12  -1  14  -1  36  -1  42  -1
M  END
>  <UniqueID>  (63) 
59

>  <SMILES>  (63) 
C=c1/c(=C/c2[n-]c(=O)[n-]c2[O-])cc(C)n1-c1ccccc1S(=O)(=O)[N-]CC(=O)[N-]CCN1CCOCC1

>  <Energy>  (63) 
134.7825179517102

>  <Genealogy>  (63) 
C=c1c(=Cc2[n-]c(=O)[n-]c2[O-])cc(C)n1-c1ccccc1S(=O)(=O)[N-]CC(=O)[N-]CCN1CCOCC1 (protonated)
C=c1/c(=C/c2[n-]c(=O)[n-]c2[O-])cc(C)n1-c1ccccc1S(=O)(=O)[N-]CC(=O)[N-]CCN1CCOCC1 (cis-trans isomerization)
C=c1/c(=C/c2[n-]c(=O)[n-]c2[O-])cc(C)n1-c1ccccc1S(=O)(=O)[N-]CC(=O)[N-]CCN1CCOCC1 (3D coordinates assigned)
C=c1/c(=C/c2[n-]c(=O)[n-]c2[O-])cc(C)n1-c1ccccc1S(=O)(=O)[N-]CC(=O)[N-]CCN1CCOCC1 (nonaromatic ring conformer: 134.7825179517102 kcal/mol)

>  <smiles>  (63) 
C=c1c(=Cc2[nH]c(=O)[nH]c2O)cc(C)n1-c1ccccc1S(=O)(=O)NCC(=O)NCCN1CCOCC1

>  <score_type>  (63) 
oracle

>  <origin>  (63) 
adg

>  <m_score__min__energy>  (63) 
-18.920000000000002

>  <m_primary>  (63) 
energy

$$$$
63:0
     RDKit          3D

 49 51  0  0  0  0  0  0  0  0999 V2000
   53.5120   24.3160   45.4370 N   0  0  0  0  0  0  0  0  0  0  0  0
   54.7870   23.6790   45.5380 C   0  0  0  0  0  0  0  0  0  0  0  0
   55.0840   22.7580   44.7320 O   0  0  0  0  0  0  0  0  0  0  0  0
   55.7610   24.1110   46.4940 N   0  0  0  0  0  0  0  0  0  0  0  0
   56.6730   25.2070   46.3360 C   0  0  0  0  0  0  0  0  0  0  0  0
   58.0640   25.0110   46.3550 C   0  0  0  0  0  0  0  0  0  0  0  0
   58.9310   26.0900   46.1600 C   0  0  0  0  0  0  0  0  0  0  0  0
   58.4200   27.3710   45.9090 C   0  0  0  0  0  0  0  0  0  0  0  0
   59.5160   28.7230   45.6130 S   0  0  0  0  0  0  0  0  0  0  0  0
   58.7640   29.8240   44.9180 O   0  0  0  0  0  0  0  0  0  0  0  0
   60.6230   28.2700   44.7020 O   0  0  0  0  0  0  0  0  0  0  0  0
   60.2030   29.3420   47.0990 N   0  0  0  0  0  0  0  0  0  0  0  0
   61.2540   30.3520   46.8510 C   0  0  0  0  0  0  0  0  0  0  0  0
   60.7370   31.8060   46.8910 C   0  0  0  0  0  0  0  0  0  0  0  0
   59.8380   32.1050   48.0370 N   0  0  0  0  0  0  0  0  0  0  0  0
   60.2860   33.2710   48.8270 C   0  0  0  0  0  0  0  0  0  0  0  0
   59.6530   34.5720   48.3080 C   0  0  0  0  0  0  0  0  0  0  0  0
   58.9900   34.3700   46.9700 C   0  0  0  0  0  0  0  0  0  0  0  0
   57.7290   33.7600   46.8910 C   0  0  0  0  0  0  0  0  0  0  0  0
   57.1390   33.5580   45.6410 C   0  0  0  0  0  0  0  0  0  0  0  0
   57.7870   33.9480   44.5100 N   0  0  0  0  0  0  0  0  0  0  0  0
   59.0110   34.5360   44.5570 C   0  0  0  0  0  0  0  0  0  0  0  0
   59.6390   34.7530   45.7860 C   0  0  0  0  0  0  0  0  0  0  0  0
   59.5860   30.9440   48.9060 C   0  0  0  0  0  0  0  0  0  0  0  0
   59.1510   29.7570   48.0490 C   0  0  0  0  0  0  0  0  0  0  0  0
   57.0320   27.5640   45.8740 C   0  0  0  0  0  0  0  0  0  0  0  0
   56.1640   26.4880   46.0790 C   0  0  0  0  0  0  0  0  0  0  0  0
   54.7890   26.6980   46.0310 O   0  0  0  0  0  0  0  0  0  0  0  0
   53.3000   25.1850   45.9760 H   0  0  0  0  0  0  0  0  0  0  0  0
   52.8020   23.9640   44.7570 H   0  0  0  0  0  0  0  0  0  0  0  0
   58.4727   24.0039   46.5241 H   0  0  0  0  0  0  0  0  0  0  0  0
   60.0189   25.9332   46.2037 H   0  0  0  0  0  0  0  0  0  0  0  0
   62.0330   30.2388   47.6193 H   0  0  0  0  0  0  0  0  0  0  0  0
   61.6382   30.1745   45.8357 H   0  0  0  0  0  0  0  0  0  0  0  0
   61.6053   32.4788   46.9498 H   0  0  0  0  0  0  0  0  0  0  0  0
   60.1423   31.9539   45.9775 H   0  0  0  0  0  0  0  0  0  0  0  0
   59.9954   33.1252   49.8779 H   0  0  0  0  0  0  0  0  0  0  0  0
   61.3789   33.3548   48.7342 H   0  0  0  0  0  0  0  0  0  0  0  0
   58.8994   34.9160   49.0317 H   0  0  0  0  0  0  0  0  0  0  0  0
   60.4512   35.3192   48.1876 H   0  0  0  0  0  0  0  0  0  0  0  0
   57.2086   33.4431   47.8068 H   0  0  0  0  0  0  0  0  0  0  0  0
   56.1493   33.0830   45.5710 H   0  0  0  0  0  0  0  0  0  0  0  0
   59.5088   34.8420   43.6250 H   0  0  0  0  0  0  0  0  0  0  0  0
   60.6341   35.2202   45.8253 H   0  0  0  0  0  0  0  0  0  0  0  0
   60.5062   30.6862   49.4508 H   0  0  0  0  0  0  0  0  0  0  0  0
   58.7919   31.1887   49.6268 H   0  0  0  0  0  0  0  0  0  0  0  0
   58.9157   28.9098   48.7099 H   0  0  0  0  0  0  0  0  0  0  0  0
   58.2706   30.0650   47.4659 H   0  0  0  0  0  0  0  0  0  0  0  0
   56.6238   28.5677   45.6842 H   0  0  0  0  0  0  0  0  0  0  0  0
  1  2  1  0
  2  3  2  0
  2  4  1  0
  4  5  1  0
  5  6  2  0
  6  7  1  0
  7  8  2  0
  8  9  1  0
  9 10  2  0
  9 11  2  0
  9 12  1  0
 12 13  1  0
 13 14  1  0
 14 15  1  0
 15 16  1  0
 16 17  1  0
 17 18  1  0
 18 19  2  0
 19 20  1  0
 20 21  2  0
 21 22  1  0
 22 23  2  0
 15 24  1  0
 24 25  1  0
  8 26  1  0
 26 27  2  0
 27 28  1  0
 27  5  1  0
 25 12  1  0
 23 18  1  0
  1 29  1  0
  1 30  1  0
  6 31  1  0
  7 32  1  0
 13 33  1  0
 13 34  1  0
 14 35  1  0
 14 36  1  0
 16 37  1  0
 16 38  1  0
 17 39  1  0
 17 40  1  0
 19 41  1  0
 20 42  1  0
 22 43  1  0
 23 44  1  0
 24 45  1  0
 24 46  1  0
 25 47  1  0
 25 48  1  0
 26 49  1  0
M  CHG  2   4  -1  28  -1
M  END
>  <UniqueID>  (64) 
60

>  <SMILES>  (64) 
NC(=O)[N-]c1ccc(S(=O)(=O)N2CCN(CCc3ccncc3)CC2)cc1[O-]

>  <Energy>  (64) 
61.50019711649124

>  <Genealogy>  (64) 
NC(=O)[N-]c1ccc(S(=O)(=O)N2CCN(CCc3ccncc3)CC2)cc1[O-] (protonated)
NC(=O)[N-]c1ccc(S(=O)(=O)N2CCN(CCc3ccncc3)CC2)cc1[O-] (3D coordinates assigned)
NC(=O)[N-]c1ccc(S(=O)(=O)N2CCN(CCc3ccncc3)CC2)cc1[O-] (nonaromatic ring conformer: 61.50019711649124 kcal/mol)

>  <smiles>  (64) 
NC(=O)Nc1ccc(S(=O)(=O)N2CCN(CCc3ccncc3)CC2)cc1O

>  <score_type>  (64) 
oracle

>  <origin>  (64) 
adg

>  <m_score__min__energy>  (64) 
-14.08

>  <m_primary>  (64) 
energy

$$$$
64:0
     RDKit          3D

 33 34  0  0  0  0  0  0  0  0999 V2000
   55.5300   29.3870   42.2780 H   0  0  0  0  0  0  0  0  0  0  0  0
   56.2550   30.0170   41.9590 O   0  0  0  0  0  0  0  0  0  0  0  0
   56.9690   30.8220   42.8470 C   0  0  0  0  0  0  0  0  0  0  0  0
   57.6100   31.9760   42.3720 C   0  0  0  0  0  0  0  0  0  0  0  0
   57.5732   32.2195   41.2999 H   0  0  0  0  0  0  0  0  0  0  0  0
   58.2940   32.8170   43.2510 C   0  0  0  0  0  0  0  0  0  0  0  0
   58.7962   33.7187   42.8706 H   0  0  0  0  0  0  0  0  0  0  0  0
   58.3410   32.5140   44.6130 C   0  0  0  0  0  0  0  0  0  0  0  0
   58.8740   33.1815   45.3061 H   0  0  0  0  0  0  0  0  0  0  0  0
   57.7120   31.3640   45.0970 C   0  0  0  0  0  0  0  0  0  0  0  0
   57.7454   31.1358   46.1726 H   0  0  0  0  0  0  0  0  0  0  0  0
   57.0360   30.4950   44.2200 C   0  0  0  0  0  0  0  0  0  0  0  0
   56.3920   29.2730   44.7640 C   0  0  0  0  0  0  0  0  0  0  0  0
   55.2020   29.3330   45.1740 O   0  0  0  0  0  0  0  0  0  0  0  0
   57.0590   28.0030   44.7820 N   0  0  0  0  0  0  0  0  0  0  0  0
   57.2120   27.2030   45.8030 C   0  0  0  0  0  0  0  0  0  0  0  0
   56.1110   26.3660   46.3390 C   0  0  0  0  0  0  0  0  0  0  0  0
   56.3730   25.3630   47.0550 O   0  0  0  0  0  0  0  0  0  0  0  0
   54.7870   26.6310   46.0140 O   0  0  0  0  0  0  0  0  0  0  0  0
   58.5950   27.0450   46.3720 C   0  0  0  0  0  0  0  0  0  0  0  0
   58.5484   26.4088   47.2681 H   0  0  0  0  0  0  0  0  0  0  0  0
   59.2433   26.5808   45.6143 H   0  0  0  0  0  0  0  0  0  0  0  0
   59.1610   28.3870   46.7450 C   0  0  0  0  0  0  0  0  0  0  0  0
   58.6930   29.0650   47.8830 C   0  0  0  0  0  0  0  0  0  0  0  0
   57.8882   28.6250   48.4903 H   0  0  0  0  0  0  0  0  0  0  0  0
   59.2460   30.2970   48.2470 C   0  0  0  0  0  0  0  0  0  0  0  0
   58.8722   30.8262   49.1360 H   0  0  0  0  0  0  0  0  0  0  0  0
   60.2730   30.8560   47.4820 C   0  0  0  0  0  0  0  0  0  0  0  0
   60.7043   31.8269   47.7671 H   0  0  0  0  0  0  0  0  0  0  0  0
   60.7530   30.1830   46.3550 C   0  0  0  0  0  0  0  0  0  0  0  0
   61.5645   30.6225   45.7564 H   0  0  0  0  0  0  0  0  0  0  0  0
   60.2020   28.9510   45.9880 C   0  0  0  0  0  0  0  0  0  0  0  0
   60.5850   28.4214   45.1032 H   0  0  0  0  0  0  0  0  0  0  0  0
  1  2  1  0
  2  3  1  0
  3  4  2  0
  4  5  1  0
  4  6  1  0
  6  7  1  0
  6  8  2  0
  8  9  1  0
  8 10  1  0
 10 11  1  0
 10 12  2  0
 12 13  1  0
 13 14  2  0
 13 15  1  0
 15 16  2  0
 16 17  1  0
 17 18  2  0
 17 19  1  0
 16 20  1  0
 20 21  1  0
 20 22  1  0
 20 23  1  0
 23 24  2  0
 24 25  1  0
 24 26  1  0
 26 27  1  0
 26 28  2  0
 28 29  1  0
 28 30  1  0
 30 31  1  0
 30 32  2  0
 32 33  1  0
 12  3  1  0
 32 23  1  0
M  CHG  1  19  -1
M  END
>  <UniqueID>  (65) 
61

>  <SMILES>  (65) 
O=C([O-])/C(Cc1ccccc1)=N\C(=O)c1ccccc1O

>  <Energy>  (65) 
44.33867973301504

>  <Genealogy>  (65) 
O=C([O-])C(Cc1ccccc1)=NC(=O)c1ccccc1O (protonated)
O=C([O-])/C(Cc1ccccc1)=N\C(=O)c1ccccc1O (cis-trans isomerization)
O=C([O-])/C(Cc1ccccc1)=N\C(=O)c1ccccc1O (3D coordinates assigned)
O=C([O-])/C(Cc1ccccc1)=N\C(=O)c1ccccc1O (optimized conformer: 44.33867973301504 kcal/mol)

>  <smiles>  (65) 
O=C(O)C(Cc1ccccc1)=NC(=O)c1ccccc1O

>  <score_type>  (65) 
oracle

>  <origin>  (65) 
adg

>  <m_score__min__energy>  (65) 
-10.449999999999999

>  <m_primary>  (65) 
energy

$$$$
65:0
     RDKit          3D

 64 67  0  0  0  0  0  0  0  0999 V2000
   56.2930   24.4560   46.7940 C   0  0  0  0  0  0  0  0  0  0  0  0
   56.1090   25.8670   46.3190 C   0  0  0  0  0  0  0  0  0  0  0  0
   54.9510   26.2460   45.9950 O   0  0  0  0  0  0  0  0  0  0  0  0
   57.2530   26.8090   46.1960 C   0  0  0  0  0  0  0  0  0  0  0  0
   58.2230   26.8760   47.2130 C   0  0  0  0  0  0  0  0  0  0  0  0
   59.2700   27.7980   47.1380 C   0  0  0  0  0  0  0  0  0  0  0  0
   59.3590   28.6720   46.0530 C   0  0  0  0  0  0  0  0  0  0  0  0
   58.4090   28.6140   45.0250 C   0  0  0  0  0  0  0  0  0  0  0  0
   58.4560   29.5490   43.9420 N   0  0  0  0  0  0  0  0  0  0  0  0
   57.3590   30.8890   43.9220 S   0  0  0  0  0  0  0  0  0  0  0  0
   57.0790   31.3090   42.5060 O   0  0  0  0  0  0  0  0  0  0  0  0
   56.0630   30.4860   44.5670 O   0  0  0  0  0  0  0  0  0  0  0  0
   58.0920   32.2140   44.8210 C   0  0  0  0  0  0  0  0  0  0  0  0
   57.7830   33.5420   44.5060 C   0  0  0  0  0  0  0  0  0  0  0  0
   58.2630   34.5820   45.3050 C   0  0  0  0  0  0  0  0  0  0  0  0
   59.0300   34.3010   46.4380 C   0  0  0  0  0  0  0  0  0  0  0  0
   59.3440   32.9710   46.7740 C   0  0  0  0  0  0  0  0  0  0  0  0
   60.0570   32.6610   47.9910 N   0  0  0  0  0  0  0  0  0  0  0  0
   60.1130   33.6310   49.0870 C   0  0  0  0  0  0  0  0  0  0  0  0
   61.5090   34.2470   49.1350 C   0  0  0  0  0  0  0  0  0  0  0  0
   62.5410   33.1920   49.1460 N   0  0  0  0  0  0  0  0  0  0  0  0
   63.7670   33.4140   49.8860 C   0  0  0  0  0  0  0  0  0  0  0  0
   63.8250   34.3630   50.7150 O   0  0  0  0  0  0  0  0  0  0  0  0
   64.9760   32.5210   49.7000 C   0  0  0  0  0  0  0  0  0  0  0  0
   65.8680   32.3880   50.9500 C   0  0  0  0  0  0  0  0  0  0  0  0
   66.8750   33.5080   51.0640 C   0  0  0  0  0  0  0  0  0  0  0  0
   66.6090   34.6180   51.8870 C   0  0  0  0  0  0  0  0  0  0  0  0
   67.5390   35.6550   51.9950 C   0  0  0  0  0  0  0  0  0  0  0  0
   68.7420   35.5950   51.2860 C   0  0  0  0  0  0  0  0  0  0  0  0
   69.0180   34.4930   50.4700 C   0  0  0  0  0  0  0  0  0  0  0  0
   68.0920   33.4510   50.3620 C   0  0  0  0  0  0  0  0  0  0  0  0
   62.4430   32.1210   48.1350 C   0  0  0  0  0  0  0  0  0  0  0  0
   61.0180   31.5590   48.0650 C   0  0  0  0  0  0  0  0  0  0  0  0
   58.8900   31.9340   45.9400 C   0  0  0  0  0  0  0  0  0  0  0  0
   57.3710   27.6730   45.0900 C   0  0  0  0  0  0  0  0  0  0  0  0
   56.2955   24.4367   47.8938 H   0  0  0  0  0  0  0  0  0  0  0  0
   55.4686   23.8322   46.4182 H   0  0  0  0  0  0  0  0  0  0  0  0
   57.2498   24.0644   46.4182 H   0  0  0  0  0  0  0  0  0  0  0  0
   58.1564   26.1961   48.0752 H   0  0  0  0  0  0  0  0  0  0  0  0
   60.0262   27.8354   47.9360 H   0  0  0  0  0  0  0  0  0  0  0  0
   60.1760   29.4070   46.0052 H   0  0  0  0  0  0  0  0  0  0  0  0
   58.8330   29.2280   43.0230 H   0  0  0  0  0  0  0  0  0  0  0  0
   57.1608   33.7672   43.6273 H   0  0  0  0  0  0  0  0  0  0  0  0
   58.0363   35.6256   45.0413 H   0  0  0  0  0  0  0  0  0  0  0  0
   59.3909   35.1245   47.0717 H   0  0  0  0  0  0  0  0  0  0  0  0
   59.3668   34.4214   48.9184 H   0  0  0  0  0  0  0  0  0  0  0  0
   59.8962   33.1272   50.0405 H   0  0  0  0  0  0  0  0  0  0  0  0
   61.6534   34.8851   48.2507 H   0  0  0  0  0  0  0  0  0  0  0  0
   61.6021   34.8444   50.0539 H   0  0  0  0  0  0  0  0  0  0  0  0
   64.6227   31.5173   49.4212 H   0  0  0  0  0  0  0  0  0  0  0  0
   65.5953   32.9895   48.9209 H   0  0  0  0  0  0  0  0  0  0  0  0
   65.2267   32.3980   51.8437 H   0  0  0  0  0  0  0  0  0  0  0  0
   66.4263   31.4442   50.8632 H   0  0  0  0  0  0  0  0  0  0  0  0
   65.6642   34.6695   52.4480 H   0  0  0  0  0  0  0  0  0  0  0  0
   67.3240   36.5203   52.6392 H   0  0  0  0  0  0  0  0  0  0  0  0
   69.4714   36.4141   51.3697 H   0  0  0  0  0  0  0  0  0  0  0  0
   69.9650   34.4461   49.9124 H   0  0  0  0  0  0  0  0  0  0  0  0
   68.3165   32.5828   49.7250 H   0  0  0  0  0  0  0  0  0  0  0  0
   62.7173   32.5292   47.1510 H   0  0  0  0  0  0  0  0  0  0  0  0
   63.1266   31.3075   48.4194 H   0  0  0  0  0  0  0  0  0  0  0  0
   60.9180   30.9258   47.1711 H   0  0  0  0  0  0  0  0  0  0  0  0
   60.8175   30.9602   48.9657 H   0  0  0  0  0  0  0  0  0  0  0  0
   59.1633   30.8930   46.1673 H   0  0  0  0  0  0  0  0  0  0  0  0
   56.6418   27.6091   44.2689 H   0  0  0  0  0  0  0  0  0  0  0  0
  1  2  1  0
  2  3  2  0
  2  4  1  0
  4  5  2  0
  5  6  1  0
  6  7  2  0
  7  8  1  0
  8  9  1  0
  9 10  1  0
 10 11  2  0
 10 12  2  0
 10 13  1  0
 13 14  2  0
 14 15  1  0
 15 16  2  0
 16 17  1  0
 17 18  1  0
 18 19  1  0
 19 20  1  0
 20 21  1  0
 21 22  1  0
 22 23  2  0
 22 24  1  0
 24 25  1  0
 25 26  1  0
 26 27  2  0
 27 28  1  0
 28 29  2  0
 29 30  1  0
 30 31  2  0
 21 32  1  0
 32 33  1  0
 17 34  2  0
  8 35  2  0
 35  4  1  0
 34 13  1  0
 33 18  1  0
 31 26  1  0
  1 36  1  0
  1 37  1  0
  1 38  1  0
  5 39  1  0
  6 40  1  0
  7 41  1  0
  9 42  1  0
 14 43  1  0
 15 44  1  0
 16 45  1  0
 19 46  1  0
 19 47  1  0
 20 48  1  0
 20 49  1  0
 24 50  1  0
 24 51  1  0
 25 52  1  0
 25 53  1  0
 27 54  1  0
 28 55  1  0
 29 56  1  0
 30 57  1  0
 31 58  1  0
 32 59  1  0
 32 60  1  0
 33 61  1  0
 33 62  1  0
 34 63  1  0
 35 64  1  0
M  END
>  <UniqueID>  (66) 
62

>  <SMILES>  (66) 
CC(=O)c1cccc(NS(=O)(=O)c2cccc(N3CCN(C(=O)CCc4ccccc4)CC3)c2)c1

>  <Energy>  (66) 
75.65196629157523

>  <Genealogy>  (66) 
CC(=O)c1cccc(NS(=O)(=O)c2cccc(N3CCN(C(=O)CCc4ccccc4)CC3)c2)c1 (3D coordinates assigned)
CC(=O)c1cccc(NS(=O)(=O)c2cccc(N3CCN(C(=O)CCc4ccccc4)CC3)c2)c1 (nonaromatic ring conformer: 75.65196629157523 kcal/mol)

>  <smiles>  (66) 
CC(=O)c1cccc(NS(=O)(=O)c2cccc(N3CCN(C(=O)CCc4ccccc4)CC3)c2)c1

>  <score_type>  (66) 
oracle

>  <origin>  (66) 
adg

>  <m_score__min__energy>  (66) 
-11.49

>  <m_primary>  (66) 
energy

$$$$
66:0
     RDKit          3D

 56 59  0  0  0  0  0  0  0  0999 V2000
   59.9640   30.7430   49.8000 C   0  0  0  0  0  0  0  0  0  0  0  0
   59.3910   30.7660   48.5960 C   0  0  0  0  0  0  0  0  0  0  0  0
   59.8450   29.8580   47.4860 C   0  0  0  0  0  0  0  0  0  0  0  0
   58.6990   29.4080   46.6550 N   0  0  0  0  0  0  0  0  0  0  0  0
   58.1040   28.1860   46.9220 C   0  0  0  0  0  0  0  0  0  0  0  0
   58.5480   27.4560   47.9040 N   0  0  0  0  0  0  0  0  0  0  0  0
   57.0480   27.7130   46.1020 C   0  0  0  0  0  0  0  0  0  0  0  0
   56.3160   26.4550   46.3730 C   0  0  0  0  0  0  0  0  0  0  0  0
   56.9100   25.4890   46.9170 O   0  0  0  0  0  0  0  0  0  0  0  0
   54.9560   26.2980   45.9600 N   0  0  0  0  0  0  0  0  0  0  0  0
   54.3970   24.9960   45.6180 C   0  0  0  0  0  0  0  0  0  0  0  0
   55.4790   24.0660   45.1350 C   0  0  0  0  0  0  0  0  0  0  0  0
   56.2010   24.3640   43.9670 C   0  0  0  0  0  0  0  0  0  0  0  0
   57.1710   23.4760   43.4910 C   0  0  0  0  0  0  0  0  0  0  0  0
   57.4430   22.2960   44.1910 C   0  0  0  0  0  0  0  0  0  0  0  0
   56.7410   21.9990   45.3640 C   0  0  0  0  0  0  0  0  0  0  0  0
   57.1520   20.4120   46.3490 Br  0  0  0  0  0  0  0  0  0  0  0  0
   55.7480   22.8710   45.8250 C   0  0  0  0  0  0  0  0  0  0  0  0
   56.6430   28.4750   45.0090 C   0  0  0  0  0  0  0  0  0  0  0  0
   57.2130   29.7190   44.7700 C   0  0  0  0  0  0  0  0  0  0  0  0
   56.7610   30.5060   43.7070 C   0  0  0  0  0  0  0  0  0  0  0  0
   57.3220   31.7560   43.4780 C   0  0  0  0  0  0  0  0  0  0  0  0
   58.3410   32.2230   44.3220 C   0  0  0  0  0  0  0  0  0  0  0  0
   58.9460   33.4780   44.1400 O   0  0  0  0  0  0  0  0  0  0  0  0
   58.8820   34.5710   45.0560 C   0  0  0  0  0  0  0  0  0  0  0  0
   59.7490   34.3190   46.2600 C   0  0  0  0  0  0  0  0  0  0  0  0
   59.2390   34.5050   47.5570 C   0  0  0  0  0  0  0  0  0  0  0  0
   60.0390   34.2430   48.6730 C   0  0  0  0  0  0  0  0  0  0  0  0
   59.5410   34.4260   49.9210 F   0  0  0  0  0  0  0  0  0  0  0  0
   61.3480   33.7840   48.5050 C   0  0  0  0  0  0  0  0  0  0  0  0
   61.8600   33.5860   47.2190 C   0  0  0  0  0  0  0  0  0  0  0  0
   63.1280   33.1310   47.0580 F   0  0  0  0  0  0  0  0  0  0  0  0
   61.0630   33.8460   46.0990 C   0  0  0  0  0  0  0  0  0  0  0  0
   58.7630   31.4450   45.3590 N   0  0  0  0  0  0  0  0  0  0  0  0
   58.2410   30.1970   45.6110 C   0  0  0  0  0  0  0  0  0  0  0  0
   59.6090   31.4199   50.5911 H   0  0  0  0  0  0  0  0  0  0  0  0
   60.7916   30.0472   50.0020 H   0  0  0  0  0  0  0  0  0  0  0  0
   58.5645   31.4675   48.4097 H   0  0  0  0  0  0  0  0  0  0  0  0
   60.5589   30.4003   46.8486 H   0  0  0  0  0  0  0  0  0  0  0  0
   60.3188   28.9719   47.9337 H   0  0  0  0  0  0  0  0  0  0  0  0
   58.3140   26.4520   48.0660 H   0  0  0  0  0  0  0  0  0  0  0  0
   53.9185   24.5626   46.5086 H   0  0  0  0  0  0  0  0  0  0  0  0
   53.6569   25.1272   44.8149 H   0  0  0  0  0  0  0  0  0  0  0  0
   56.0024   25.3001   43.4245 H   0  0  0  0  0  0  0  0  0  0  0  0
   57.7201   23.7056   42.5659 H   0  0  0  0  0  0  0  0  0  0  0  0
   58.2098   21.6007   43.8187 H   0  0  0  0  0  0  0  0  0  0  0  0
   55.1760   22.6204   46.7305 H   0  0  0  0  0  0  0  0  0  0  0  0
   55.8673   28.0896   44.3310 H   0  0  0  0  0  0  0  0  0  0  0  0
   55.9599   30.1350   43.0508 H   0  0  0  0  0  0  0  0  0  0  0  0
   56.9696   32.3758   42.6403 H   0  0  0  0  0  0  0  0  0  0  0  0
   59.2266   35.4848   44.5498 H   0  0  0  0  0  0  0  0  0  0  0  0
   57.8409   34.6851   45.3923 H   0  0  0  0  0  0  0  0  0  0  0  0
   58.2063   34.8581   47.6941 H   0  0  0  0  0  0  0  0  0  0  0  0
   61.9758   33.5784   49.3845 H   0  0  0  0  0  0  0  0  0  0  0  0
   61.4659   33.6798   45.0890 H   0  0  0  0  0  0  0  0  0  0  0  0
   59.5050   31.8600   45.9590 H   0  0  0  0  0  0  0  0  0  0  0  0
  1  2  2  0
  2  3  1  0
  3  4  1  0
  4  5  1  0
  5  6  2  3
  5  7  1  0
  7  8  1  0
  8  9  2  0
  8 10  1  0
 10 11  1  0
 11 12  1  0
 12 13  2  0
 13 14  1  0
 14 15  2  0
 15 16  1  0
 16 17  1  0
 16 18  2  0
  7 19  2  0
 19 20  1  0
 20 21  2  0
 21 22  1  0
 22 23  2  0
 23 24  1  0
 24 25  1  0
 25 26  1  0
 26 27  2  0
 27 28  1  0
 28 29  1  0
 28 30  2  0
 30 31  1  0
 31 32  1  0
 31 33  2  0
 23 34  1  0
 34 35  2  0
 35  4  1  0
 18 12  1  0
 35 20  1  0
 33 26  1  0
  1 36  1  0
  1 37  1  0
  2 38  1  0
  3 39  1  0
  3 40  1  0
  6 41  1  0
 11 42  1  0
 11 43  1  0
 13 44  1  0
 14 45  1  0
 15 46  1  0
 18 47  1  0
 19 48  1  0
 21 49  1  0
 22 50  1  0
 25 51  1  0
 25 52  1  0
 27 53  1  0
 30 54  1  0
 33 55  1  0
 34 56  1  0
M  CHG  2  10  -1  34   1
M  END
>  <UniqueID>  (67) 
63

>  <SMILES>  (67) 
C=CCn1c(=N)c(C(=O)[N-]Cc2cccc(Br)c2)cc2ccc(OCc3cc(F)cc(F)c3)[nH+]c21

>  <Energy>  (67) 
78.62603827752933

>  <Genealogy>  (67) 
C=CCn1c(=N)c(C(=O)[N-]Cc2cccc(Br)c2)cc2ccc(OCc3cc(F)cc(F)c3)[nH+]c21 (protonated)
C=CCn1c(=N)c(C(=O)[N-]Cc2cccc(Br)c2)cc2ccc(OCc3cc(F)cc(F)c3)[nH+]c21 (3D coordinates assigned)
C=CCn1c(=N)c(C(=O)[N-]Cc2cccc(Br)c2)cc2ccc(OCc3cc(F)cc(F)c3)[nH+]c21 (optimized conformer: 78.62603827752933 kcal/mol)

>  <smiles>  (67) 
C=CCn1c(=N)c(C(=O)NCc2cccc(Br)c2)cc2ccc(OCc3cc(F)cc(F)c3)nc21

>  <score_type>  (67) 
oracle

>  <origin>  (67) 
adg

>  <m_score__min__energy>  (67) 
-9.1799999999999997

>  <m_primary>  (67) 
energy

$$$$
67:0
     RDKit          3D

 54 57  0  0  0  0  0  0  0  0999 V2000
   58.1290   31.5360   42.8900 O   0  0  0  0  0  0  0  0  0  0  0  0
   57.6550   32.0210   43.9510 C   0  0  0  0  0  0  0  0  0  0  0  0
   57.9230   33.4610   44.2870 C   0  0  0  0  0  0  0  0  0  0  0  0
   58.4490   33.5690   45.6910 C   0  0  0  0  0  0  0  0  0  0  0  0
   59.6900   34.1770   45.9410 C   0  0  0  0  0  0  0  0  0  0  0  0
   60.1920   34.2470   47.2430 C   0  0  0  0  0  0  0  0  0  0  0  0
   59.4620   33.7110   48.3180 C   0  0  0  0  0  0  0  0  0  0  0  0
   59.9980   33.7700   49.6990 C   0  0  0  0  0  0  0  0  0  0  0  0
   61.1450   34.2550   49.8980 O   0  0  0  0  0  0  0  0  0  0  0  0
   59.2230   33.3120   50.8200 N   0  0  0  0  0  0  0  0  0  0  0  0
   58.6510   31.9590   50.8220 C   0  0  0  0  0  0  0  0  0  0  0  0
   57.3510   31.9010   51.6590 C   0  0  0  0  0  0  0  0  0  0  0  0
   57.0980   33.0790   52.4080 O   0  0  0  0  0  0  0  0  0  0  0  0
   58.2700   33.4910   53.0800 C   0  0  0  0  0  0  0  0  0  0  0  0
   59.2510   34.0830   52.0660 C   0  0  0  0  0  0  0  0  0  0  0  0
   58.2330   33.0800   48.0610 C   0  0  0  0  0  0  0  0  0  0  0  0
   57.7310   33.0100   46.7590 C   0  0  0  0  0  0  0  0  0  0  0  0
   57.0120   31.1490   44.8890 N   0  0  0  0  0  0  0  0  0  0  0  0
   57.3310   29.9150   45.1690 C   0  0  0  0  0  0  0  0  0  0  0  0
   58.7890   29.5810   45.3020 C   0  0  0  0  0  0  0  0  0  0  0  0
   59.1960   29.6030   46.7440 C   0  0  0  0  0  0  0  0  0  0  0  0
   58.6030   28.8930   47.7850 C   0  0  0  0  0  0  0  0  0  0  0  0
   59.2810   29.0920   48.9380 N   0  0  0  0  0  0  0  0  0  0  0  0
   60.3020   29.9110   48.6320 C   0  0  0  0  0  0  0  0  0  0  0  0
   61.2920   30.3840   49.4920 C   0  0  0  0  0  0  0  0  0  0  0  0
   62.2870   31.2200   48.9520 C   0  0  0  0  0  0  0  0  0  0  0  0
   62.2730   31.5570   47.5810 C   0  0  0  0  0  0  0  0  0  0  0  0
   61.2630   31.0620   46.7360 C   0  0  0  0  0  0  0  0  0  0  0  0
   60.2870   30.2410   47.3020 C   0  0  0  0  0  0  0  0  0  0  0  0
   56.3360   28.8130   45.2210 C   0  0  0  0  0  0  0  0  0  0  0  0
   55.1480   28.9920   44.8460 O   0  0  0  0  0  0  0  0  0  0  0  0
   56.7270   27.5460   45.6330 O   0  0  0  0  0  0  0  0  0  0  0  0
   58.6676   33.8666   43.5863 H   0  0  0  0  0  0  0  0  0  0  0  0
   56.9865   34.0323   44.2060 H   0  0  0  0  0  0  0  0  0  0  0  0
   60.2698   34.6003   45.1075 H   0  0  0  0  0  0  0  0  0  0  0  0
   61.1653   34.7249   47.4281 H   0  0  0  0  0  0  0  0  0  0  0  0
   58.4244   31.6640   49.7868 H   0  0  0  0  0  0  0  0  0  0  0  0
   59.3841   31.2721   51.2701 H   0  0  0  0  0  0  0  0  0  0  0  0
   56.5054   31.7369   50.9749 H   0  0  0  0  0  0  0  0  0  0  0  0
   57.4729   31.0817   52.3828 H   0  0  0  0  0  0  0  0  0  0  0  0
   58.0144   34.2521   53.8319 H   0  0  0  0  0  0  0  0  0  0  0  0
   58.7322   32.6268   53.5795 H   0  0  0  0  0  0  0  0  0  0  0  0
   58.9690   35.1249   51.8542 H   0  0  0  0  0  0  0  0  0  0  0  0
   60.2665   34.0451   52.4870 H   0  0  0  0  0  0  0  0  0  0  0  0
   57.6621   32.6380   48.8909 H   0  0  0  0  0  0  0  0  0  0  0  0
   56.7676   32.5139   46.5702 H   0  0  0  0  0  0  0  0  0  0  0  0
   58.9711   28.5781   44.8884 H   0  0  0  0  0  0  0  0  0  0  0  0
   59.3798   30.3277   44.7511 H   0  0  0  0  0  0  0  0  0  0  0  0
   57.7093   28.2597   47.6837 H   0  0  0  0  0  0  0  0  0  0  0  0
   59.0600   28.6780   49.8710 H   0  0  0  0  0  0  0  0  0  0  0  0
   61.2953   30.1126   50.5580 H   0  0  0  0  0  0  0  0  0  0  0  0
   63.0815   31.6138   49.6029 H   0  0  0  0  0  0  0  0  0  0  0  0
   63.0568   32.2108   47.1709 H   0  0  0  0  0  0  0  0  0  0  0  0
   61.2434   31.3137   45.6654 H   0  0  0  0  0  0  0  0  0  0  0  0
  1  2  2  0
  2  3  1  0
  3  4  1  0
  4  5  2  0
  5  6  1  0
  6  7  2  0
  7  8  1  0
  8  9  2  0
  8 10  1  0
 10 11  1  0
 11 12  1  0
 12 13  1  0
 13 14  1  0
 14 15  1  0
  7 16  1  0
 16 17  2  0
  2 18  1  0
 18 19  2  3
 19 20  1  0
 20 21  1  0
 21 22  2  0
 22 23  1  0
 23 24  1  0
 24 25  2  0
 25 26  1  0
 26 27  2  0
 27 28  1  0
 28 29  2  0
 19 30  1  0
 30 31  2  0
 30 32  1  0
 17  4  1  0
 29 21  1  0
 15 10  1  0
 29 24  1  0
  3 33  1  0
  3 34  1  0
  5 35  1  0
  6 36  1  0
 11 37  1  0
 11 38  1  0
 12 39  1  0
 12 40  1  0
 14 41  1  0
 14 42  1  0
 15 43  1  0
 15 44  1  0
 16 45  1  0
 17 46  1  0
 20 47  1  0
 20 48  1  0
 22 49  1  0
 23 50  1  0
 25 51  1  0
 26 52  1  0
 27 53  1  0
 28 54  1  0
M  CHG  1  32  -1
M  END
>  <UniqueID>  (68) 
64

>  <SMILES>  (68) 
O=C(Cc1ccc(C(=O)N2CCOCC2)cc1)N=C(Cc1c[nH]c2ccccc12)C(=O)[O-]

>  <Energy>  (68) 
106.87931881570155

>  <Genealogy>  (68) 
O=C(Cc1ccc(C(=O)N2CCOCC2)cc1)N=C(Cc1c[nH]c2ccccc12)C(=O)[O-] (protonated)
O=C(Cc1ccc(C(=O)N2CCOCC2)cc1)N=C(Cc1c[nH]c2ccccc12)C(=O)[O-] (3D coordinates assigned)
O=C(Cc1ccc(C(=O)N2CCOCC2)cc1)N=C(Cc1c[nH]c2ccccc12)C(=O)[O-] (nonaromatic ring conformer: 106.87931881570155 kcal/mol)

>  <smiles>  (68) 
O=C(Cc1ccc(C(=O)N2CCOCC2)cc1)N=C(Cc1c[nH]c2ccccc12)C(=O)O

>  <score_type>  (68) 
oracle

>  <origin>  (68) 
adg

>  <m_score__min__energy>  (68) 
-12.470000000000001

>  <m_primary>  (68) 
energy

$$$$
68:0
     RDKit          3D

 68 72  0  0  0  0  0  0  0  0999 V2000
   63.0130   33.7300   51.7030 O   0  0  0  0  0  0  0  0  0  0  0  0
   61.9700   33.7870   50.9980 C   0  0  0  0  0  0  0  0  0  0  0  0
   60.6990   33.8750   51.6520 N   0  0  0  0  0  0  0  0  0  0  0  0
   59.9170   32.7290   52.1040 C   0  0  0  0  0  0  0  0  0  0  0  0
   60.4180   31.4890   51.4220 C   0  0  0  0  0  0  0  0  0  0  0  0
   61.5550   30.8290   51.9090 C   0  0  0  0  0  0  0  0  0  0  0  0
   62.0520   29.7050   51.2460 C   0  0  0  0  0  0  0  0  0  0  0  0
   61.4250   29.2340   50.0900 C   0  0  0  0  0  0  0  0  0  0  0  0
   60.2810   29.8820   49.5830 C   0  0  0  0  0  0  0  0  0  0  0  0
   59.6030   29.4120   48.3460 C   0  0  0  0  0  0  0  0  0  0  0  0
   58.5130   29.9510   48.0070 O   0  0  0  0  0  0  0  0  0  0  0  0
   60.1660   28.3680   47.5290 N   0  0  0  0  0  0  0  0  0  0  0  0
   59.5040   27.8240   46.3750 C   0  0  0  0  0  0  0  0  0  0  0  0
   59.1440   28.6470   45.2960 C   0  0  0  0  0  0  0  0  0  0  0  0
   58.4680   28.1130   44.1970 C   0  0  0  0  0  0  0  0  0  0  0  0
   58.1390   26.7570   44.1670 C   0  0  0  0  0  0  0  0  0  0  0  0
   58.4810   25.9190   45.2420 C   0  0  0  0  0  0  0  0  0  0  0  0
   58.1150   24.4570   45.2050 C   0  0  0  0  0  0  0  0  0  0  0  0
   56.6560   24.2850   45.0930 N   0  0  0  0  0  0  0  0  0  0  0  0
   56.1430   23.5310   44.0720 C   0  0  0  0  0  0  0  0  0  0  0  0
   54.7660   23.3480   43.9470 C   0  0  0  0  0  0  0  0  0  0  0  0
   53.9280   23.9480   44.8820 C   0  0  0  0  0  0  0  0  0  0  0  0
   52.6780   23.8090   44.7990 O   0  0  0  0  0  0  0  0  0  0  0  0
   54.4600   24.6890   45.8870 N   0  0  0  0  0  0  0  0  0  0  0  0
   55.8040   24.8630   46.0020 C   0  0  0  0  0  0  0  0  0  0  0  0
   56.2510   25.5620   46.9510 O   0  0  0  0  0  0  0  0  0  0  0  0
   59.1550   26.4630   46.3520 C   0  0  0  0  0  0  0  0  0  0  0  0
   59.4980   25.6680   47.3970 F   0  0  0  0  0  0  0  0  0  0  0  0
   59.7940   31.0210   50.2530 C   0  0  0  0  0  0  0  0  0  0  0  0
   62.0940   33.7270   49.5300 C   0  0  0  0  0  0  0  0  0  0  0  0
   63.3020   33.3180   48.9450 C   0  0  0  0  0  0  0  0  0  0  0  0
   63.4300   33.2670   47.5560 C   0  0  0  0  0  0  0  0  0  0  0  0
   62.3630   33.6460   46.7380 C   0  0  0  0  0  0  0  0  0  0  0  0
   61.1620   34.1020   47.3060 C   0  0  0  0  0  0  0  0  0  0  0  0
   60.0330   34.5230   46.4510 C   0  0  0  0  0  0  0  0  0  0  0  0
   60.0090   35.7030   46.0060 O   0  0  0  0  0  0  0  0  0  0  0  0
   58.9770   33.6100   46.0970 N   0  0  0  0  0  0  0  0  0  0  0  0
   57.7100   34.0590   45.5480 C   0  0  0  0  0  0  0  0  0  0  0  0
   56.9260   32.7900   45.2440 C   0  0  0  0  0  0  0  0  0  0  0  0
   57.9600   31.6700   45.1820 C   0  0  0  0  0  0  0  0  0  0  0  0
   59.1560   32.1710   45.9790 C   0  0  0  0  0  0  0  0  0  0  0  0
   61.0290   34.1270   48.7050 C   0  0  0  0  0  0  0  0  0  0  0  0
   60.0229   32.6180   53.1933 H   0  0  0  0  0  0  0  0  0  0  0  0
   58.8567   32.8843   51.8557 H   0  0  0  0  0  0  0  0  0  0  0  0
   62.0569   31.1976   52.8158 H   0  0  0  0  0  0  0  0  0  0  0  0
   62.9413   29.1881   51.6358 H   0  0  0  0  0  0  0  0  0  0  0  0
   61.8271   28.3510   49.5718 H   0  0  0  0  0  0  0  0  0  0  0  0
   61.1200   28.0010   47.7430 H   0  0  0  0  0  0  0  0  0  0  0  0
   59.3957   29.7176   45.3164 H   0  0  0  0  0  0  0  0  0  0  0  0
   58.1941   28.7628   43.3527 H   0  0  0  0  0  0  0  0  0  0  0  0
   57.6090   26.3419   43.2970 H   0  0  0  0  0  0  0  0  0  0  0  0
   58.6012   23.9855   44.3383 H   0  0  0  0  0  0  0  0  0  0  0  0
   58.4548   23.9850   46.1387 H   0  0  0  0  0  0  0  0  0  0  0  0
   56.8230   23.0652   43.3436 H   0  0  0  0  0  0  0  0  0  0  0  0
   54.3515   22.7427   43.1274 H   0  0  0  0  0  0  0  0  0  0  0  0
   58.9150   31.5505   49.8567 H   0  0  0  0  0  0  0  0  0  0  0  0
   64.1520   33.0363   49.5839 H   0  0  0  0  0  0  0  0  0  0  0  0
   64.3737   32.9274   47.1043 H   0  0  0  0  0  0  0  0  0  0  0  0
   62.4637   33.5871   45.6442 H   0  0  0  0  0  0  0  0  0  0  0  0
   57.1711   34.6776   46.2808 H   0  0  0  0  0  0  0  0  0  0  0  0
   57.8508   34.6769   44.6489 H   0  0  0  0  0  0  0  0  0  0  0  0
   56.1934   32.5919   46.0403 H   0  0  0  0  0  0  0  0  0  0  0  0
   56.3641   32.8760   44.3023 H   0  0  0  0  0  0  0  0  0  0  0  0
   57.5572   30.7505   45.6316 H   0  0  0  0  0  0  0  0  0  0  0  0
   58.2352   31.4277   44.1449 H   0  0  0  0  0  0  0  0  0  0  0  0
   59.1757   31.7042   46.9749 H   0  0  0  0  0  0  0  0  0  0  0  0
   60.1063   31.9197   45.4853 H   0  0  0  0  0  0  0  0  0  0  0  0
   60.0841   34.4622   49.1576 H   0  0  0  0  0  0  0  0  0  0  0  0
  1  2  2  0
  2  3  1  0
  3  4  1  0
  4  5  1  0
  5  6  2  0
  6  7  1  0
  7  8  2  0
  8  9  1  0
  9 10  1  0
 10 11  2  0
 10 12  1  0
 12 13  1  0
 13 14  2  0
 14 15  1  0
 15 16  2  0
 16 17  1  0
 17 18  1  0
 18 19  1  0
 19 20  1  0
 20 21  2  0
 21 22  1  0
 22 23  2  0
 22 24  1  0
 24 25  1  0
 25 26  2  0
 17 27  2  0
 27 28  1  0
  9 29  2  0
  2 30  1  0
 30 31  2  0
 31 32  1  0
 32 33  2  0
 33 34  1  0
 34 35  1  0
 35 36  2  0
 35 37  1  0
 37 38  1  0
 38 39  1  0
 39 40  1  0
 40 41  1  0
 34 42  2  0
 29  5  1  0
 42 30  1  0
 27 13  1  0
 41 37  1  0
 25 19  1  0
  4 43  1  0
  4 44  1  0
  6 45  1  0
  7 46  1  0
  8 47  1  0
 12 48  1  0
 14 49  1  0
 15 50  1  0
 16 51  1  0
 18 52  1  0
 18 53  1  0
 20 54  1  0
 21 55  1  0
 29 56  1  0
 31 57  1  0
 32 58  1  0
 33 59  1  0
 38 60  1  0
 38 61  1  0
 39 62  1  0
 39 63  1  0
 40 64  1  0
 40 65  1  0
 41 66  1  0
 41 67  1  0
 42 68  1  0
M  CHG  2   3  -1  24  -1
M  END
>  <UniqueID>  (69) 
65

>  <SMILES>  (69) 
O=C([N-]Cc1cccc(C(=O)Nc2cccc(Cn3ccc(=O)[n-]c3=O)c2F)c1)c1cccc(C(=O)N2CCCC2)c1

>  <Energy>  (69) 
90.8205180662537

>  <Genealogy>  (69) 
O=C([N-]Cc1cccc(C(=O)Nc2cccc(Cn3ccc(=O)[n-]c3=O)c2F)c1)c1cccc(C(=O)N2CCCC2)c1 (protonated)
O=C([N-]Cc1cccc(C(=O)Nc2cccc(Cn3ccc(=O)[n-]c3=O)c2F)c1)c1cccc(C(=O)N2CCCC2)c1 (3D coordinates assigned)
O=C([N-]Cc1cccc(C(=O)Nc2cccc(Cn3ccc(=O)[n-]c3=O)c2F)c1)c1cccc(C(=O)N2CCCC2)c1 (nonaromatic ring conformer: 90.8205180662537 kcal/mol)

>  <smiles>  (69) 
O=C(NCc1cccc(C(=O)Nc2cccc(Cn3ccc(=O)[nH]c3=O)c2F)c1)c1cccc(C(=O)N2CCCC2)c1

>  <score_type>  (69) 
oracle

>  <origin>  (69) 
adg

>  <m_score__min__energy>  (69) 
-13.970000000000001

>  <m_primary>  (69) 
energy

$$$$
69:0
     RDKit          3D

 28 30  0  0  0  0  0  0  0  0999 V2000
   55.1440   29.3380   44.8900 O   0  0  0  0  0  0  0  0  0  0  0  0
   56.3250   29.7490   44.7410 C   0  0  0  0  0  0  0  0  0  0  0  0
   56.5470   31.1420   44.5020 N   0  0  0  0  0  0  0  0  0  0  0  0
   57.4720   31.9840   45.2050 C   0  0  0  0  0  0  0  0  0  0  0  0
   58.1580   31.5410   46.3510 C   0  0  0  0  0  0  0  0  0  0  0  0
   59.0700   32.3850   46.9940 C   0  0  0  0  0  0  0  0  0  0  0  0
   59.3150   33.6650   46.4940 C   0  0  0  0  0  0  0  0  0  0  0  0
   58.6550   34.1020   45.3410 C   0  0  0  0  0  0  0  0  0  0  0  0
   58.9020   35.3400   44.8470 F   0  0  0  0  0  0  0  0  0  0  0  0
   57.7440   33.2610   44.6950 C   0  0  0  0  0  0  0  0  0  0  0  0
   57.4340   28.8570   44.9220 N   0  0  0  0  0  0  0  0  0  0  0  0
   57.4440   27.6530   45.7000 C   0  0  0  0  0  0  0  0  0  0  0  0
   58.6420   27.2850   46.3590 C   0  0  0  0  0  0  0  0  0  0  0  0
   58.7160   26.1010   47.1160 C   0  0  0  0  0  0  0  0  0  0  0  0
   57.5770   25.3040   47.1800 C   0  0  0  0  0  0  0  0  0  0  0  0
   57.4280   24.1390   47.8280 N   0  0  0  0  0  0  0  0  0  0  0  0
   56.1440   23.8120   47.5310 C   0  0  0  0  0  0  0  0  0  0  0  0
   55.6010   22.7610   47.9570 O   0  0  0  0  0  0  0  0  0  0  0  0
   55.4890   24.7000   46.7390 N   0  0  0  0  0  0  0  0  0  0  0  0
   56.4260   25.6380   46.5350 C   0  0  0  0  0  0  0  0  0  0  0  0
   56.3140   26.8000   45.7770 C   0  0  0  0  0  0  0  0  0  0  0  0
   57.9768   30.5290   46.7421 H   0  0  0  0  0  0  0  0  0  0  0  0
   59.5955   32.0388   47.8962 H   0  0  0  0  0  0  0  0  0  0  0  0
   60.0265   34.3293   47.0063 H   0  0  0  0  0  0  0  0  0  0  0  0
   57.2374   33.6036   43.7807 H   0  0  0  0  0  0  0  0  0  0  0  0
   59.5269   27.9334   46.2781 H   0  0  0  0  0  0  0  0  0  0  0  0
   59.6410   25.8157   47.6384 H   0  0  0  0  0  0  0  0  0  0  0  0
   55.3786   27.0487   45.2543 H   0  0  0  0  0  0  0  0  0  0  0  0
  1  2  2  0
  2  3  1  0
  3  4  1  0
  4  5  2  0
  5  6  1  0
  6  7  2  0
  7  8  1  0
  8  9  1  0
  8 10  2  0
  2 11  1  0
 11 12  1  0
 12 13  2  0
 13 14  1  0
 14 15  2  0
 15 16  1  0
 16 17  1  0
 17 18  2  0
 17 19  1  0
 19 20  1  0
 20 21  2  0
 10  4  1  0
 21 12  1  0
 20 15  1  0
  5 22  1  0
  6 23  1  0
  7 24  1  0
 10 25  1  0
 13 26  1  0
 14 27  1  0
 21 28  1  0
M  CHG  4   3  -1  11  -1  16  -1  19  -1
M  END
>  <UniqueID>  (70) 
66

>  <SMILES>  (70) 
O=C([N-]c1cccc(F)c1)[N-]c1ccc2[n-]c(=O)[n-]c2c1

>  <Energy>  (70) 
72.8003699884098

>  <Genealogy>  (70) 
O=C([N-]c1cccc(F)c1)[N-]c1ccc2[n-]c(=O)[n-]c2c1 (protonated)
O=C([N-]c1cccc(F)c1)[N-]c1ccc2[n-]c(=O)[n-]c2c1 (3D coordinates assigned)
O=C([N-]c1cccc(F)c1)[N-]c1ccc2[n-]c(=O)[n-]c2c1 (optimized conformer: 72.8003699884098 kcal/mol)

>  <smiles>  (70) 
O=C(Nc1cccc(F)c1)Nc1ccc2[nH]c(=O)[nH]c2c1

>  <score_type>  (70) 
oracle

>  <origin>  (70) 
adg

>  <m_score__min__energy>  (70) 
-13.07

>  <m_primary>  (70) 
energy

$$$$
70:0
     RDKit          3D

 62 65  0  0  0  0  0  0  0  0999 V2000
   54.6690   23.3870   46.2960 C   0  0  0  0  0  0  0  0  0  0  0  0
   55.5260   24.1470   47.1390 O   0  0  0  0  0  0  0  0  0  0  0  0
   56.3690   25.1770   46.6920 C   0  0  0  0  0  0  0  0  0  0  0  0
   57.7630   25.1420   46.8900 C   0  0  0  0  0  0  0  0  0  0  0  0
   58.5660   26.2130   46.4750 C   0  0  0  0  0  0  0  0  0  0  0  0
   60.0110   26.1840   46.7550 C   0  0  0  0  0  0  0  0  0  0  0  0
   60.7130   27.2000   47.2820 C   0  0  0  0  0  0  0  0  0  0  0  0
   60.1590   28.3570   48.0210 C   0  0  0  0  0  0  0  0  0  0  0  0
   59.8190   29.3720   47.3570 O   0  0  0  0  0  0  0  0  0  0  0  0
   60.1190   28.4440   49.5260 C   0  0  0  0  0  0  0  0  0  0  0  0
   59.5450   29.7520   49.9850 C   0  0  0  0  0  0  0  0  0  0  0  0
   58.3480   29.8100   50.3760 O   0  0  0  0  0  0  0  0  0  0  0  0
   60.4020   30.9470   50.0930 C   0  0  0  0  0  0  0  0  0  0  0  0
   61.2110   31.3120   49.0090 C   0  0  0  0  0  0  0  0  0  0  0  0
   61.9960   32.4800   49.0600 C   0  0  0  0  0  0  0  0  0  0  0  0
   62.8090   32.8870   47.9890 O   0  0  0  0  0  0  0  0  0  0  0  0
   62.4390   33.8240   46.9780 C   0  0  0  0  0  0  0  0  0  0  0  0
   60.9730   33.7290   46.6820 C   0  0  0  0  0  0  0  0  0  0  0  0
   60.1290   34.8380   46.6460 C   0  0  0  0  0  0  0  0  0  0  0  0
   58.5870   34.2970   46.2500 S   0  0  0  0  0  0  0  0  0  0  0  0
   59.0590   32.6890   46.1300 C   0  0  0  0  0  0  0  0  0  0  0  0
   58.1370   31.5530   45.7810 C   0  0  0  0  0  0  0  0  0  0  0  0
   57.0780   31.9250   44.7470 C   0  0  0  0  0  0  0  0  0  0  0  0
   57.6970   30.9450   43.7610 C   0  0  0  0  0  0  0  0  0  0  0  0
   58.7460   30.5580   44.7950 C   0  0  0  0  0  0  0  0  0  0  0  0
   60.3790   32.5430   46.3850 N   0  0  0  0  0  0  0  0  0  0  0  0
   61.9710   33.2800   50.2120 C   0  0  0  0  0  0  0  0  0  0  0  0
   62.7570   34.4440   50.2320 O   0  0  0  0  0  0  0  0  0  0  0  0
   63.7690   34.7190   51.1960 C   0  0  0  0  0  0  0  0  0  0  0  0
   61.1710   32.9010   51.3060 C   0  0  0  0  0  0  0  0  0  0  0  0
   60.3960   31.7370   51.2530 C   0  0  0  0  0  0  0  0  0  0  0  0
   59.6390   31.3560   52.3570 O   0  0  0  0  0  0  0  0  0  0  0  0
   57.9840   27.3010   45.8060 C   0  0  0  0  0  0  0  0  0  0  0  0
   56.6040   27.3290   45.5890 C   0  0  0  0  0  0  0  0  0  0  0  0
   55.7990   26.2770   46.0350 C   0  0  0  0  0  0  0  0  0  0  0  0
   54.4260   26.3290   45.8290 O   0  0  0  0  0  0  0  0  0  0  0  0
   53.9881   22.7832   46.9139 H   0  0  0  0  0  0  0  0  0  0  0  0
   54.0821   24.0670   45.6610 H   0  0  0  0  0  0  0  0  0  0  0  0
   55.2739   22.7230   45.6610 H   0  0  0  0  0  0  0  0  0  0  0  0
   58.2245   24.2684   47.3735 H   0  0  0  0  0  0  0  0  0  0  0  0
   60.5570   25.2599   46.5142 H   0  0  0  0  0  0  0  0  0  0  0  0
   61.8049   27.1698   47.1522 H   0  0  0  0  0  0  0  0  0  0  0  0
   59.4972   27.6243   49.9152 H   0  0  0  0  0  0  0  0  0  0  0  0
   61.1491   28.3669   49.9041 H   0  0  0  0  0  0  0  0  0  0  0  0
   61.2332   30.6799   48.1090 H   0  0  0  0  0  0  0  0  0  0  0  0
   62.6726   34.8414   47.3250 H   0  0  0  0  0  0  0  0  0  0  0  0
   63.0015   33.5964   46.0605 H   0  0  0  0  0  0  0  0  0  0  0  0
   60.4199   35.8806   46.8417 H   0  0  0  0  0  0  0  0  0  0  0  0
   57.8429   31.2312   46.7909 H   0  0  0  0  0  0  0  0  0  0  0  0
   56.0500   31.6723   45.0460 H   0  0  0  0  0  0  0  0  0  0  0  0
   56.9217   32.9763   44.4634 H   0  0  0  0  0  0  0  0  0  0  0  0
   57.0295   30.1207   43.4695 H   0  0  0  0  0  0  0  0  0  0  0  0
   58.0031   31.2838   42.7602 H   0  0  0  0  0  0  0  0  0  0  0  0
   58.6894   29.5093   45.1220 H   0  0  0  0  0  0  0  0  0  0  0  0
   59.8167   30.6030   44.5470 H   0  0  0  0  0  0  0  0  0  0  0  0
   63.3522   34.6057   52.2077 H   0  0  0  0  0  0  0  0  0  0  0  0
   64.6037   34.0151   51.0624 H   0  0  0  0  0  0  0  0  0  0  0  0
   64.1326   35.7485   51.0624 H   0  0  0  0  0  0  0  0  0  0  0  0
   61.1547   33.5256   52.2113 H   0  0  0  0  0  0  0  0  0  0  0  0
   58.8430   30.7340   52.2690 H   0  0  0  0  0  0  0  0  0  0  0  0
   58.6137   28.1309   45.4529 H   0  0  0  0  0  0  0  0  0  0  0  0
   56.1492   28.1825   45.0650 H   0  0  0  0  0  0  0  0  0  0  0  0
  1  2  1  0
  2  3  1  0
  3  4  2  0
  4  5  1  0
  5  6  1  0
  6  7  2  3
  7  8  1  0
  8  9  2  0
  8 10  1  0
 10 11  1  0
 11 12  2  0
 11 13  1  0
 13 14  2  0
 14 15  1  0
 15 16  1  0
 16 17  1  0
 17 18  1  0
 18 19  2  0
 19 20  1  0
 20 21  1  0
 21 22  1  0
 22 23  1  0
 23 24  1  0
 24 25  1  0
 21 26  2  0
 15 27  2  0
 27 28  1  0
 28 29  1  0
 27 30  1  0
 30 31  2  0
 31 32  1  0
  5 33  2  0
 33 34  1  0
 34 35  2  0
 35 36  1  0
 35  3  1  0
 31 13  1  0
 26 18  1  0
 25 22  1  0
  1 37  1  0
  1 38  1  0
  1 39  1  0
  4 40  1  0
  6 41  1  0
  7 42  1  0
 10 43  1  0
 10 44  1  0
 14 45  1  0
 17 46  1  0
 17 47  1  0
 19 48  1  0
 22 49  1  0
 23 50  1  0
 23 51  1  0
 24 52  1  0
 24 53  1  0
 25 54  1  0
 25 55  1  0
 29 56  1  0
 29 57  1  0
 29 58  1  0
 30 59  1  0
 32 60  1  0
 33 61  1  0
 34 62  1  0
M  CHG  1  36  -1
M  END
>  <UniqueID>  (71) 
67

>  <SMILES>  (71) 
COc1cc(C=CC(=O)CC(=O)c2cc(OCc3csc(C4CCC4)n3)c(OC)cc2O)ccc1[O-]

>  <Energy>  (71) 
164.63160333960315

>  <Genealogy>  (71) 
COc1cc(C=CC(=O)CC(=O)c2cc(OCc3csc(C4CCC4)n3)c(OC)cc2O)ccc1[O-] (protonated)
COc1cc(C=CC(=O)CC(=O)c2cc(OCc3csc(C4CCC4)n3)c(OC)cc2O)ccc1[O-] (3D coordinates assigned)
COc1cc(C=CC(=O)CC(=O)c2cc(OCc3csc(C4CCC4)n3)c(OC)cc2O)ccc1[O-] (nonaromatic ring conformer: 164.63160333960315 kcal/mol)

>  <smiles>  (71) 
COc1cc(C=CC(=O)CC(=O)c2cc(OCc3csc(C4CCC4)n3)c(OC)cc2O)ccc1O

>  <score_type>  (71) 
oracle

>  <origin>  (71) 
adg

>  <m_score__min__energy>  (71) 
-12.789999999999999

>  <m_primary>  (71) 
energy

$$$$
71:0
     RDKit          3D

 55 58  0  0  0  0  0  0  0  0999 V2000
   62.7330   34.4260   50.6510 C   0  0  0  0  0  0  0  0  0  0  0  0
   62.5560   34.0830   49.1940 C   0  0  0  0  0  0  0  0  0  0  0  0
   63.6980   33.8340   48.4150 C   0  0  0  0  0  0  0  0  0  0  0  0
   63.5800   33.5140   47.0630 C   0  0  0  0  0  0  0  0  0  0  0  0
   62.3220   33.4470   46.4680 C   0  0  0  0  0  0  0  0  0  0  0  0
   61.1660   33.6830   47.2220 C   0  0  0  0  0  0  0  0  0  0  0  0
   59.8950   33.6490   46.5570 N   0  0  0  0  0  0  0  0  0  0  0  0
   58.7650   32.9470   47.1670 C   0  0  0  0  0  0  0  0  0  0  0  0
   58.1060   31.9690   46.1690 C   0  0  0  0  0  0  0  0  0  0  0  0
   58.3990   32.2890   44.7480 N   0  0  0  0  0  0  0  0  0  0  0  0
   57.3970   31.6960   43.8370 C   0  0  0  0  0  0  0  0  0  0  0  0
   56.7480   30.4530   44.4620 C   0  0  0  0  0  0  0  0  0  0  0  0
   57.5200   29.2160   44.1110 C   0  0  0  0  0  0  0  0  0  0  0  0
   57.2570   28.4690   43.0620 O   0  0  0  0  0  0  0  0  0  0  0  0
   58.1040   27.4670   43.0910 C   0  0  0  0  0  0  0  0  0  0  0  0
   58.1320   26.5550   42.2230 O   0  0  0  0  0  0  0  0  0  0  0  0
   58.9400   27.5180   44.1430 N   0  0  0  0  0  0  0  0  0  0  0  0
   58.5870   28.6410   44.7960 C   0  0  0  0  0  0  0  0  0  0  0  0
   59.2430   29.1100   46.0370 C   0  0  0  0  0  0  0  0  0  0  0  0
   58.6290   28.9480   47.2910 C   0  0  0  0  0  0  0  0  0  0  0  0
   59.2600   29.4060   48.4510 C   0  0  0  0  0  0  0  0  0  0  0  0
   60.5030   30.0400   48.3700 C   0  0  0  0  0  0  0  0  0  0  0  0
   61.1140   30.4830   49.4970 F   0  0  0  0  0  0  0  0  0  0  0  0
   61.1130   30.2200   47.1250 C   0  0  0  0  0  0  0  0  0  0  0  0
   60.4840   29.7650   45.9620 C   0  0  0  0  0  0  0  0  0  0  0  0
   58.4980   33.7440   44.5320 C   0  0  0  0  0  0  0  0  0  0  0  0
   59.7550   34.2610   45.2310 C   0  0  0  0  0  0  0  0  0  0  0  0
   61.2690   33.9660   48.6060 C   0  0  0  0  0  0  0  0  0  0  0  0
   60.0220   34.1870   49.4330 C   0  0  0  0  0  0  0  0  0  0  0  0
   62.3163   33.6186   51.2710 H   0  0  0  0  0  0  0  0  0  0  0  0
   63.8041   34.5430   50.8727 H   0  0  0  0  0  0  0  0  0  0  0  0
   62.2078   35.3668   50.8727 H   0  0  0  0  0  0  0  0  0  0  0  0
   64.6951   33.8920   48.8760 H   0  0  0  0  0  0  0  0  0  0  0  0
   64.4815   33.3141   46.4653 H   0  0  0  0  0  0  0  0  0  0  0  0
   62.2363   33.2069   45.3979 H   0  0  0  0  0  0  0  0  0  0  0  0
   59.1236   32.3810   48.0394 H   0  0  0  0  0  0  0  0  0  0  0  0
   58.0149   33.6930   47.4683 H   0  0  0  0  0  0  0  0  0  0  0  0
   58.4739   30.9542   46.3808 H   0  0  0  0  0  0  0  0  0  0  0  0
   57.0174   32.0532   46.3029 H   0  0  0  0  0  0  0  0  0  0  0  0
   56.6162   32.4419   43.6275 H   0  0  0  0  0  0  0  0  0  0  0  0
   57.9042   31.3954   42.9083 H   0  0  0  0  0  0  0  0  0  0  0  0
   56.7284   30.5677   45.5558 H   0  0  0  0  0  0  0  0  0  0  0  0
   55.7253   30.3538   44.0692 H   0  0  0  0  0  0  0  0  0  0  0  0
   59.7040   26.8460   44.3820 H   0  0  0  0  0  0  0  0  0  0  0  0
   57.6465   28.4581   47.3598 H   0  0  0  0  0  0  0  0  0  0  0  0
   58.7774   29.2672   49.4297 H   0  0  0  0  0  0  0  0  0  0  0  0
   62.0902   30.7208   47.0602 H   0  0  0  0  0  0  0  0  0  0  0  0
   60.9628   29.9205   44.9840 H   0  0  0  0  0  0  0  0  0  0  0  0
   58.5613   33.9543   43.4542 H   0  0  0  0  0  0  0  0  0  0  0  0
   57.6089   34.2444   44.9433 H   0  0  0  0  0  0  0  0  0  0  0  0
   60.6364   34.0110   44.6222 H   0  0  0  0  0  0  0  0  0  0  0  0
   59.6726   35.3515   45.3497 H   0  0  0  0  0  0  0  0  0  0  0  0
   60.2780   34.1416   50.5018 H   0  0  0  0  0  0  0  0  0  0  0  0
   59.5973   35.1744   49.1993 H   0  0  0  0  0  0  0  0  0  0  0  0
   59.2838   33.4057   49.1993 H   0  0  0  0  0  0  0  0  0  0  0  0
  1  2  1  0
  2  3  2  0
  3  4  1  0
  4  5  2  0
  5  6  1  0
  6  7  1  0
  7  8  1  0
  8  9  1  0
  9 10  1  0
 10 11  1  0
 11 12  1  0
 12 13  1  0
 13 14  1  0
 14 15  1  0
 15 16  2  0
 15 17  1  0
 17 18  1  0
 18 19  1  0
 19 20  2  0
 20 21  1  0
 21 22  2  0
 22 23  1  0
 22 24  1  0
 24 25  2  0
 10 26  1  0
 26 27  1  0
  6 28  2  0
 28 29  1  0
 28  2  1  0
 27  7  1  0
 18 13  2  0
 25 19  1  0
  1 30  1  0
  1 31  1  0
  1 32  1  0
  3 33  1  0
  4 34  1  0
  5 35  1  0
  8 36  1  0
  8 37  1  0
  9 38  1  0
  9 39  1  0
 11 40  1  0
 11 41  1  0
 12 42  1  0
 12 43  1  0
 17 44  1  0
 20 45  1  0
 21 46  1  0
 24 47  1  0
 25 48  1  0
 26 49  1  0
 26 50  1  0
 27 51  1  0
 27 52  1  0
 29 53  1  0
 29 54  1  0
 29 55  1  0
M  END
>  <UniqueID>  (72) 
68

>  <SMILES>  (72) 
Cc1cccc(N2CCN(CCc3oc(=O)[nH]c3-c3ccc(F)cc3)CC2)c1C

>  <Energy>  (72) 
105.63886209929895

>  <Genealogy>  (72) 
Cc1cccc(N2CCN(CCc3oc(=O)[nH]c3-c3ccc(F)cc3)CC2)c1C (3D coordinates assigned)
Cc1cccc(N2CCN(CCc3oc(=O)[nH]c3-c3ccc(F)cc3)CC2)c1C (nonaromatic ring conformer: 105.63886209929895 kcal/mol)

>  <smiles>  (72) 
Cc1cccc(N2CCN(CCc3oc(=O)[nH]c3-c3ccc(F)cc3)CC2)c1C

>  <score_type>  (72) 
oracle

>  <origin>  (72) 
adg

>  <m_score__min__energy>  (72) 
-8.2799999999999994

>  <m_primary>  (72) 
energy

$$$$
72:0
     RDKit          3D

 33 35  0  0  0  0  0  0  0  0999 V2000
   59.6790   29.5330   44.8230 C   0  0  0  0  0  0  0  0  0  0  0  0
   58.3480   29.3870   44.9050 C   0  0  0  0  0  0  0  0  0  0  0  0
   57.6130   28.1990   45.0400 C   0  0  0  0  0  0  0  0  0  0  0  0
   58.0260   26.9440   45.2980 C   0  0  0  0  0  0  0  0  0  0  0  0
   57.3640   25.9870   46.1960 C   0  0  0  0  0  0  0  0  0  0  0  0
   58.0200   25.0130   46.8510 N   0  0  0  0  0  0  0  0  0  0  0  0
   57.0320   24.3270   47.4640 C   0  0  0  0  0  0  0  0  0  0  0  0
   57.2540   23.3300   48.1990 O   0  0  0  0  0  0  0  0  0  0  0  0
   55.7860   24.7860   47.2180 N   0  0  0  0  0  0  0  0  0  0  0  0
   56.0080   25.8290   46.4020 C   0  0  0  0  0  0  0  0  0  0  0  0
   54.9860   26.5930   45.8430 O   0  0  0  0  0  0  0  0  0  0  0  0
   56.3010   28.4770   44.8860 N   0  0  0  0  0  0  0  0  0  0  0  0
   56.2560   29.8100   44.7100 C   0  0  0  0  0  0  0  0  0  0  0  0
   55.1760   30.4360   44.5370 O   0  0  0  0  0  0  0  0  0  0  0  0
   57.4680   30.4020   44.7320 N   0  0  0  0  0  0  0  0  0  0  0  0
   57.7400   31.8380   44.5730 C   0  0  0  0  0  0  0  0  0  0  0  0
   58.2460   32.4350   45.8640 C   0  0  0  0  0  0  0  0  0  0  0  0
   58.4250   31.6180   46.9960 C   0  0  0  0  0  0  0  0  0  0  0  0
   58.8830   32.1640   48.1970 C   0  0  0  0  0  0  0  0  0  0  0  0
   59.1740   33.5270   48.2820 C   0  0  0  0  0  0  0  0  0  0  0  0
   59.0120   34.3470   47.1620 C   0  0  0  0  0  0  0  0  0  0  0  0
   58.5550   33.8070   45.9550 C   0  0  0  0  0  0  0  0  0  0  0  0
   58.4150   34.6420   44.8510 O   0  0  0  0  0  0  0  0  0  0  0  0
   60.1168   30.5367   44.7186 H   0  0  0  0  0  0  0  0  0  0  0  0
   60.3326   28.6490   44.8602 H   0  0  0  0  0  0  0  0  0  0  0  0
   58.9412   26.6041   44.7912 H   0  0  0  0  0  0  0  0  0  0  0  0
   55.1430   27.5450   45.5370 H   0  0  0  0  0  0  0  0  0  0  0  0
   58.4998   31.9764   43.7897 H   0  0  0  0  0  0  0  0  0  0  0  0
   56.8045   32.3448   44.2935 H   0  0  0  0  0  0  0  0  0  0  0  0
   58.2027   30.5425   46.9343 H   0  0  0  0  0  0  0  0  0  0  0  0
   59.0148   31.5188   49.0781 H   0  0  0  0  0  0  0  0  0  0  0  0
   59.5307   33.9552   49.2304 H   0  0  0  0  0  0  0  0  0  0  0  0
   59.2445   35.4200   47.2296 H   0  0  0  0  0  0  0  0  0  0  0  0
  1  2  2  0
  2  3  1  0
  3  4  2  3
  4  5  1  0
  5  6  1  0
  6  7  1  0
  7  8  2  0
  7  9  1  0
  9 10  1  0
 10 11  1  0
  3 12  1  0
 12 13  1  0
 13 14  2  0
 13 15  1  0
 15 16  1  0
 16 17  1  0
 17 18  2  0
 18 19  1  0
 19 20  2  0
 20 21  1  0
 21 22  2  0
 22 23  1  0
 15  2  1  0
 22 17  1  0
 10  5  2  0
  1 24  1  0
  1 25  1  0
  4 26  1  0
 11 27  1  0
 16 28  1  0
 16 29  1  0
 18 30  1  0
 19 31  1  0
 20 32  1  0
 21 33  1  0
M  CHG  4   6  -1   9  -1  12  -1  23  -1
M  END
>  <UniqueID>  (73) 
69

>  <SMILES>  (73) 
C=c1c(=Cc2[n-]c(=O)[n-]c2O)[n-]c(=O)n1Cc1ccccc1[O-]

>  <Energy>  (73) 
109.43359629600592

>  <Genealogy>  (73) 
C=c1c(=Cc2[n-]c(=O)[n-]c2O)[n-]c(=O)n1Cc1ccccc1[O-] (protonated)
C=c1c(=Cc2[n-]c(=O)[n-]c2O)[n-]c(=O)n1Cc1ccccc1[O-] (3D coordinates assigned)
C=c1c(=Cc2[n-]c(=O)[n-]c2O)[n-]c(=O)n1Cc1ccccc1[O-] (optimized conformer: 109.43359629600592 kcal/mol)

>  <smiles>  (73) 
C=c1c(=Cc2[nH]c(=O)[nH]c2O)[nH]c(=O)n1Cc1ccccc1O

>  <score_type>  (73) 
oracle

>  <origin>  (73) 
adg

>  <m_score__min__energy>  (73) 
-14.529999999999999

>  <m_primary>  (73) 
energy

$$$$
73:0
     RDKit          3D

 51 53  0  0  0  0  0  0  0  0999 V2000
   59.6070   34.2410   44.8980 C   0  0  0  0  0  0  0  0  0  0  0  0
   59.6650   33.0230   45.7650 C   0  0  0  0  0  0  0  0  0  0  0  0
   60.7680   32.6250   46.4280 N   0  0  0  0  0  0  0  0  0  0  0  0
   60.4560   31.4800   47.0690 C   0  0  0  0  0  0  0  0  0  0  0  0
   61.4260   30.7180   47.8760 C   0  0  0  0  0  0  0  0  0  0  0  0
   61.1150   29.5890   48.3420 O   0  0  0  0  0  0  0  0  0  0  0  0
   62.7070   31.2970   48.1730 N   0  0  0  0  0  0  0  0  0  0  0  0
   63.3690   32.0740   47.4050 N   0  0  0  0  0  0  0  0  0  0  0  0
   63.4190   33.5040   47.5050 C   0  0  0  0  0  0  0  0  0  0  0  0
   63.5820   34.1870   46.4600 O   0  0  0  0  0  0  0  0  0  0  0  0
   63.4040   34.1940   48.8420 C   0  0  0  0  0  0  0  0  0  0  0  0
   62.0910   33.9600   49.5380 C   0  0  0  0  0  0  0  0  0  0  0  0
   60.8800   34.2690   48.8940 C   0  0  0  0  0  0  0  0  0  0  0  0
   59.6620   34.0630   49.5500 C   0  0  0  0  0  0  0  0  0  0  0  0
   59.6440   33.5590   50.8540 C   0  0  0  0  0  0  0  0  0  0  0  0
   60.8450   33.2650   51.5060 C   0  0  0  0  0  0  0  0  0  0  0  0
   62.0660   33.4670   50.8530 C   0  0  0  0  0  0  0  0  0  0  0  0
   59.1330   31.1360   46.8080 C   0  0  0  0  0  0  0  0  0  0  0  0
   58.3790   29.9570   47.3520 C   0  0  0  0  0  0  0  0  0  0  0  0
   58.6350   32.1200   45.9660 C   0  0  0  0  0  0  0  0  0  0  0  0
   57.2970   32.1820   45.3590 C   0  0  0  0  0  0  0  0  0  0  0  0
   56.4780   33.0460   45.7660 O   0  0  0  0  0  0  0  0  0  0  0  0
   56.9160   31.3080   44.2880 N   0  0  0  0  0  0  0  0  0  0  0  0
   56.2400   30.0210   44.4470 C   0  0  0  0  0  0  0  0  0  0  0  0
   57.2380   28.9180   44.7070 C   0  0  0  0  0  0  0  0  0  0  0  0
   58.5860   29.1150   44.3620 C   0  0  0  0  0  0  0  0  0  0  0  0
   59.5350   28.1210   44.6150 C   0  0  0  0  0  0  0  0  0  0  0  0
   59.1470   26.9190   45.2090 C   0  0  0  0  0  0  0  0  0  0  0  0
   57.8080   26.7050   45.5420 C   0  0  0  0  0  0  0  0  0  0  0  0
   56.8500   27.6930   45.2880 C   0  0  0  0  0  0  0  0  0  0  0  0
   55.5230   27.4470   45.6220 O   0  0  0  0  0  0  0  0  0  0  0  0
   59.5642   35.1398   45.5307 H   0  0  0  0  0  0  0  0  0  0  0  0
   60.5042   34.2821   44.2629 H   0  0  0  0  0  0  0  0  0  0  0  0
   58.7099   34.1966   44.2629 H   0  0  0  0  0  0  0  0  0  0  0  0
   61.6930   33.1100   46.4320 H   0  0  0  0  0  0  0  0  0  0  0  0
   64.2198   33.7970   49.4640 H   0  0  0  0  0  0  0  0  0  0  0  0
   63.5383   35.2748   48.6874 H   0  0  0  0  0  0  0  0  0  0  0  0
   60.8905   34.6739   47.8713 H   0  0  0  0  0  0  0  0  0  0  0  0
   58.7166   34.2979   49.0391 H   0  0  0  0  0  0  0  0  0  0  0  0
   58.6849   33.3939   51.3668 H   0  0  0  0  0  0  0  0  0  0  0  0
   60.8302   32.8742   52.5341 H   0  0  0  0  0  0  0  0  0  0  0  0
   63.0092   33.2390   51.3711 H   0  0  0  0  0  0  0  0  0  0  0  0
   58.3973   29.9856   48.4515 H   0  0  0  0  0  0  0  0  0  0  0  0
   57.3370   29.9947   47.0015 H   0  0  0  0  0  0  0  0  0  0  0  0
   58.8503   29.0269   47.0015 H   0  0  0  0  0  0  0  0  0  0  0  0
   55.5422   30.0828   45.2950 H   0  0  0  0  0  0  0  0  0  0  0  0
   55.6962   29.7920   43.5186 H   0  0  0  0  0  0  0  0  0  0  0  0
   58.8963   30.0585   43.8893 H   0  0  0  0  0  0  0  0  0  0  0  0
   60.5887   28.2860   44.3458 H   0  0  0  0  0  0  0  0  0  0  0  0
   59.8961   26.1403   45.4148 H   0  0  0  0  0  0  0  0  0  0  0  0
   57.5046   25.7551   46.0063 H   0  0  0  0  0  0  0  0  0  0  0  0
  1  2  1  0
  2  3  1  0
  3  4  1  0
  4  5  1  0
  5  6  2  0
  5  7  1  0
  7  8  2  3
  8  9  1  0
  9 10  2  0
  9 11  1  0
 11 12  1  0
 12 13  2  0
 13 14  1  0
 14 15  2  0
 15 16  1  0
 16 17  2  0
  4 18  2  0
 18 19  1  0
 18 20  1  0
 20 21  1  0
 21 22  2  0
 21 23  1  0
 23 24  1  0
 24 25  1  0
 25 26  2  0
 26 27  1  0
 27 28  2  0
 28 29  1  0
 29 30  2  0
 30 31  1  0
 20  2  2  0
 30 25  1  0
 17 12  1  0
  1 32  1  0
  1 33  1  0
  1 34  1  0
  3 35  1  0
 11 36  1  0
 11 37  1  0
 13 38  1  0
 14 39  1  0
 15 40  1  0
 16 41  1  0
 17 42  1  0
 19 43  1  0
 19 44  1  0
 19 45  1  0
 24 46  1  0
 24 47  1  0
 26 48  1  0
 27 49  1  0
 28 50  1  0
 29 51  1  0
M  CHG  2  23  -1  31  -1
M  END
>  <UniqueID>  (74) 
70

>  <SMILES>  (74) 
Cc1[nH]c(C(=O)N=NC(=O)Cc2ccccc2)c(C)c1C(=O)[N-]Cc1ccccc1[O-]

>  <Energy>  (74) 
89.2998717355295

>  <Genealogy>  (74) 
Cc1[nH]c(C(=O)N=NC(=O)Cc2ccccc2)c(C)c1C(=O)[N-]Cc1ccccc1[O-] (protonated)
Cc1[nH]c(C(=O)N=NC(=O)Cc2ccccc2)c(C)c1C(=O)[N-]Cc1ccccc1[O-] (3D coordinates assigned)
Cc1[nH]c(C(=O)N=NC(=O)Cc2ccccc2)c(C)c1C(=O)[N-]Cc1ccccc1[O-] (optimized conformer: 89.2998717355295 kcal/mol)

>  <smiles>  (74) 
Cc1[nH]c(C(=O)N=NC(=O)Cc2ccccc2)c(C)c1C(=O)NCc1ccccc1O

>  <score_type>  (74) 
oracle

>  <origin>  (74) 
adg

>  <m_score__min__energy>  (74) 
-14.17

>  <m_primary>  (74) 
energy

$$$$
74:0
     RDKit          3D

 55 59  0  0  0  0  0  0  0  0999 V2000
   54.3140   28.9720   44.4950 H   0  0  0  0  0  0  0  0  0  0  0  0
   55.1210   29.4710   44.8460 O   0  0  0  0  0  0  0  0  0  0  0  0
   56.2710   28.7990   45.2550 C   0  0  0  0  0  0  0  0  0  0  0  0
   56.2710   27.5210   45.6660 N   0  0  0  0  0  0  0  0  0  0  0  0
   57.5790   27.2810   45.9030 C   0  0  0  0  0  0  0  0  0  0  0  0
   58.0010   26.1670   46.3050 O   0  0  0  0  0  0  0  0  0  0  0  0
   58.4000   28.3270   45.6630 N   0  0  0  0  0  0  0  0  0  0  0  0
   57.5570   29.3010   45.2770 C   0  0  0  0  0  0  0  0  0  0  0  0
   58.0070   30.6190   44.8070 C   0  0  0  0  0  0  0  0  0  0  0  0
   57.6695   30.9386   43.8100 H   0  0  0  0  0  0  0  0  0  0  0  0
   58.7970   31.4700   45.4910 C   0  0  0  0  0  0  0  0  0  0  0  0
   58.5440   32.8300   45.5680 C   0  0  0  0  0  0  0  0  0  0  0  0
   57.7394   33.3766   45.0544 H   0  0  0  0  0  0  0  0  0  0  0  0
   59.4940   33.3680   46.4120 C   0  0  0  0  0  0  0  0  0  0  0  0
   59.5760   34.8150   46.7900 C   0  0  0  0  0  0  0  0  0  0  0  0
   59.5813   34.9079   47.8861 H   0  0  0  0  0  0  0  0  0  0  0  0
   60.5002   35.2491   46.3808 H   0  0  0  0  0  0  0  0  0  0  0  0
   58.7068   35.3507   46.3808 H   0  0  0  0  0  0  0  0  0  0  0  0
   60.3510   32.4090   46.8250 N   0  0  0  0  0  0  0  0  0  0  0  0
   61.4770   32.6090   47.6960 C   0  0  0  0  0  0  0  0  0  0  0  0
   62.6180   33.2790   47.2300 C   0  0  0  0  0  0  0  0  0  0  0  0
   62.6660   33.7380   45.9540 F   0  0  0  0  0  0  0  0  0  0  0  0
   63.7150   33.4720   48.0750 C   0  0  0  0  0  0  0  0  0  0  0  0
   64.6007   34.0090   47.7046 H   0  0  0  0  0  0  0  0  0  0  0  0
   63.6960   32.9860   49.3930 C   0  0  0  0  0  0  0  0  0  0  0  0
   64.8290   33.1940   50.2600 N   0  0  0  0  0  0  0  0  0  0  0  0
   64.8390   33.8190   51.5300 C   0  0  0  0  0  0  0  0  0  0  0  0
   63.8040   34.1870   52.1480 O   0  0  0  0  0  0  0  0  0  0  0  0
   66.1030   33.9170   52.0590 O   0  0  0  0  0  0  0  0  0  0  0  0
   67.0510   33.3800   51.1410 C   0  0  1  0  0  0  0  0  0  0  0  0
   67.7503   34.1329   50.7484 H   0  0  0  0  0  0  0  0  0  0  0  0
   67.9300   32.3390   51.8440 C   0  0  0  0  0  0  0  0  0  0  0  0
   68.8831   32.2459   51.3027 H   0  0  0  0  0  0  0  0  0  0  0  0
   68.1101   32.6674   52.8783 H   0  0  0  0  0  0  0  0  0  0  0  0
   67.2650   31.0390   51.8720 N   0  0  0  0  0  0  0  0  0  0  0  0
   67.4660   30.0770   50.9860 N   0  0  0  0  0  0  0  0  0  0  0  0
   66.6760   29.0440   51.2410 N   0  0  0  0  0  0  0  0  0  0  0  0
   65.9570   29.3680   52.3350 C   0  0  0  0  0  0  0  0  0  0  0  0
   64.8740   28.5230   52.9170 C   0  0  0  0  0  0  0  0  0  0  0  0
   64.9268   28.5642   54.0150 H   0  0  0  0  0  0  0  0  0  0  0  0
   63.8958   28.8990   52.5826 H   0  0  0  0  0  0  0  0  0  0  0  0
   65.0008   27.4828   52.5826 H   0  0  0  0  0  0  0  0  0  0  0  0
   66.3120   30.6380   52.7320 C   0  0  0  0  0  0  0  0  0  0  0  0
   65.9006   31.2074   53.5785 H   0  0  0  0  0  0  0  0  0  0  0  0
   66.2020   32.7820   49.9810 C   0  0  0  0  0  0  0  0  0  0  0  0
   66.2811   31.6849   49.9709 H   0  0  0  0  0  0  0  0  0  0  0  0
   66.5449   33.1336   48.9968 H   0  0  0  0  0  0  0  0  0  0  0  0
   62.5440   32.3280   49.8590 C   0  0  0  0  0  0  0  0  0  0  0  0
   62.5080   31.9589   50.8946 H   0  0  0  0  0  0  0  0  0  0  0  0
   61.4440   32.1390   49.0170 C   0  0  0  0  0  0  0  0  0  0  0  0
   60.3340   31.5240   49.4960 F   0  0  0  0  0  0  0  0  0  0  0  0
   59.9550   31.2410   46.2540 C   0  0  0  0  0  0  0  0  0  0  0  0
   60.6690   30.1070   46.3350 C   0  0  0  0  0  0  0  0  0  0  0  0
   61.5620   30.0639   46.9758 H   0  0  0  0  0  0  0  0  0  0  0  0
   60.3610   29.2209   45.7606 H   0  0  0  0  0  0  0  0  0  0  0  0
  1  2  1  0
  2  3  1  0
  3  4  1  0
  4  5  1  0
  5  6  2  0
  5  7  1  0
  7  8  1  0
  8  9  1  0
  9 10  1  0
  9 11  2  0
 11 12  1  0
 12 13  1  0
 12 14  2  0
 14 15  1  0
 15 16  1  0
 15 17  1  0
 15 18  1  0
 14 19  1  0
 19 20  1  0
 20 21  2  0
 21 22  1  0
 21 23  1  0
 23 24  1  0
 23 25  2  0
 25 26  1  0
 26 27  1  0
 27 28  2  0
 27 29  1  0
 29 30  1  0
 30 31  1  6
 30 32  1  0
 32 33  1  0
 32 34  1  0
 32 35  1  0
 35 36  1  0
 36 37  2  0
 37 38  1  0
 38 39  1  0
 39 40  1  0
 39 41  1  0
 39 42  1  0
 38 43  2  0
 43 44  1  0
 30 45  1  0
 45 46  1  0
 45 47  1  0
 25 48  1  0
 48 49  1  0
 48 50  2  0
 50 51  1  0
 19 52  1  0
 52 53  2  0
 53 54  1  0
 53 55  1  0
  8  3  2  0
 52 11  1  0
 50 20  1  0
 45 26  1  0
 43 35  1  0
M  CHG  2   4  -1   7  -1
M  END
>  <UniqueID>  (75) 
71

>  <SMILES>  (75) 
C=c1/c(=C\c2[n-]c(=O)[n-]c2O)cc(C)n1-c1c(F)cc(N2C[C@H](Cn3cc(C)nn3)OC2=O)cc1F

>  <Energy>  (75) 
185.5847532101419

>  <Genealogy>  (75) 
C=c1c(=Cc2[n-]c(=O)[n-]c2O)cc(C)n1-c1c(F)cc(N2CC(Cn3cc(C)nn3)OC2=O)cc1F (protonated)
C=c1c(=Cc2[n-]c(=O)[n-]c2O)cc(C)n1-c1c(F)cc(N2C[C@H](Cn3cc(C)nn3)OC2=O)cc1F (chirality)
C=c1/c(=C\c2[n-]c(=O)[n-]c2O)cc(C)n1-c1c(F)cc(N2C[C@H](Cn3cc(C)nn3)OC2=O)cc1F (cis-trans isomerization)
C=c1/c(=C\c2[n-]c(=O)[n-]c2O)cc(C)n1-c1c(F)cc(N2C[C@H](Cn3cc(C)nn3)OC2=O)cc1F (3D coordinates assigned)
C=c1/c(=C\c2[n-]c(=O)[n-]c2O)cc(C)n1-c1c(F)cc(N2C[C@H](Cn3cc(C)nn3)OC2=O)cc1F (nonaromatic ring conformer: 185.5847532101419 kcal/mol)

>  <smiles>  (75) 
C=c1c(=Cc2[nH]c(=O)[nH]c2O)cc(C)n1-c1c(F)cc(N2CC(Cn3cc(C)nn3)OC2=O)cc1F

>  <score_type>  (75) 
oracle

>  <origin>  (75) 
adg

>  <m_score__min__energy>  (75) 
-13.5

>  <m_primary>  (75) 
energy

$$$$
75:0
     RDKit          3D

 47 49  0  0  0  0  0  0  0  0999 V2000
   58.5471   31.4708   48.4462 H   0  0  0  0  0  0  0  0  0  0  0  0
   58.6060   30.5470   47.8520 C   0  0  0  0  0  0  0  0  0  0  0  0
   58.9230   29.6068   48.3269 H   0  0  0  0  0  0  0  0  0  0  0  0
   58.2910   30.5670   46.5470 C   0  0  0  0  0  0  0  0  0  0  0  0
   58.3170   29.4760   45.6620 C   0  0  0  0  0  0  0  0  0  0  0  0
   58.4340   28.1540   45.8900 C   0  0  0  0  0  0  0  0  0  0  0  0
   59.4498   27.7548   46.0273 H   0  0  0  0  0  0  0  0  0  0  0  0
   57.3180   27.1980   45.9710 C   0  0  0  0  0  0  0  0  0  0  0  0
   57.3960   25.9730   46.5240 N   0  0  0  0  0  0  0  0  0  0  0  0
   56.1180   25.5360   46.4940 C   0  0  0  0  0  0  0  0  0  0  0  0
   55.7800   24.4010   46.9190 O   0  0  0  0  0  0  0  0  0  0  0  0
   55.2300   26.4160   45.9840 N   0  0  0  0  0  0  0  0  0  0  0  0
   56.0040   27.4670   45.6710 C   0  0  0  0  0  0  0  0  0  0  0  0
   55.5200   28.6490   45.1280 O   0  0  0  0  0  0  0  0  0  0  0  0
   58.1680   30.0050   44.3930 C   0  0  0  0  0  0  0  0  0  0  0  0
   58.1918   29.4483   43.4446 H   0  0  0  0  0  0  0  0  0  0  0  0
   57.9840   31.3630   44.5430 C   0  0  0  0  0  0  0  0  0  0  0  0
   57.7640   32.3170   43.4070 C   0  0  0  0  0  0  0  0  0  0  0  0
   57.5337   33.3158   43.8063 H   0  0  0  0  0  0  0  0  0  0  0  0
   58.6737   32.3693   42.7907 H   0  0  0  0  0  0  0  0  0  0  0  0
   56.9233   31.9657   42.7907 H   0  0  0  0  0  0  0  0  0  0  0  0
   58.0440   31.7100   45.8500 N   0  0  0  0  0  0  0  0  0  0  0  0
   57.9820   33.0810   46.3760 C   0  0  0  0  0  0  0  0  0  0  0  0
   57.5073   33.7349   45.6296 H   0  0  0  0  0  0  0  0  0  0  0  0
   57.3940   33.0813   47.3056 H   0  0  0  0  0  0  0  0  0  0  0  0
   59.3590   33.5870   46.6710 C   0  0  0  0  0  0  0  0  0  0  0  0
   59.5790   34.8280   46.6940 O   0  0  0  0  0  0  0  0  0  0  0  0
   60.4190   32.6520   46.9040 N   0  0  0  0  0  0  0  0  0  0  0  0
   61.6810   32.9290   47.5300 C   0  0  0  0  0  0  0  0  0  0  0  0
   62.8400   33.1620   46.7670 C   0  0  0  0  0  0  0  0  0  0  0  0
   62.7844   33.1425   45.6686 H   0  0  0  0  0  0  0  0  0  0  0  0
   64.0610   33.4180   47.3960 C   0  0  0  0  0  0  0  0  0  0  0  0
   64.9637   33.5930   46.7923 H   0  0  0  0  0  0  0  0  0  0  0  0
   64.1370   33.4520   48.7890 C   0  0  0  0  0  0  0  0  0  0  0  0
   65.1023   33.6391   49.2821 H   0  0  0  0  0  0  0  0  0  0  0  0
   62.9900   33.2490   49.5570 C   0  0  0  0  0  0  0  0  0  0  0  0
   63.0545   33.2819   50.6546 H   0  0  0  0  0  0  0  0  0  0  0  0
   61.7540   33.0030   48.9380 C   0  0  0  0  0  0  0  0  0  0  0  0
   60.5810   32.8120   49.7480 N   0  0  0  0  0  0  0  0  0  0  0  0
   59.6060   33.8920   49.9110 C   0  0  0  0  0  0  0  0  0  0  0  0
   59.4392   34.0768   50.9825 H   0  0  0  0  0  0  0  0  0  0  0  0
   59.9898   34.8072   49.4365 H   0  0  0  0  0  0  0  0  0  0  0  0
   58.6565   33.6035   49.4365 H   0  0  0  0  0  0  0  0  0  0  0  0
   60.3100   31.4940   50.3210 C   0  0  0  0  0  0  0  0  0  0  0  0
   60.3239   31.5616   51.4188 H   0  0  0  0  0  0  0  0  0  0  0  0
   59.3214   31.1454   49.9876 H   0  0  0  0  0  0  0  0  0  0  0  0
   61.0809   30.7837   49.9876 H   0  0  0  0  0  0  0  0  0  0  0  0
  1  2  1  0
  2  3  1  0
  2  4  2  0
  4  5  1  0
  5  6  2  0
  6  7  1  0
  6  8  1  0
  8  9  1  0
  9 10  1  0
 10 11  2  0
 10 12  1  0
 12 13  1  0
 13 14  1  0
  5 15  1  0
 15 16  1  0
 15 17  2  0
 17 18  1  0
 18 19  1  0
 18 20  1  0
 18 21  1  0
 17 22  1  0
 22 23  1  0
 23 24  1  0
 23 25  1  0
 23 26  1  0
 26 27  2  0
 26 28  1  0
 28 29  1  0
 29 30  2  0
 30 31  1  0
 30 32  1  0
 32 33  1  0
 32 34  2  0
 34 35  1  0
 34 36  1  0
 36 37  1  0
 36 38  2  0
 38 39  1  0
 39 40  1  0
 40 41  1  0
 40 42  1  0
 40 43  1  0
 39 44  1  0
 44 45  1  0
 44 46  1  0
 44 47  1  0
 22  4  1  0
 38 29  1  0
 13  8  2  0
M  CHG  4   9  -1  12  -1  14  -1  28  -1
M  END
>  <UniqueID>  (76) 
72

>  <SMILES>  (76) 
C=c1/c(=C\c2[n-]c(=O)[n-]c2[O-])cc(C)n1CC(=O)[N-]c1ccccc1N(C)C

>  <Energy>  (76) 
121.91890300994267

>  <Genealogy>  (76) 
C=c1c(=Cc2[n-]c(=O)[n-]c2[O-])cc(C)n1CC(=O)[N-]c1ccccc1N(C)C (protonated)
C=c1/c(=C\c2[n-]c(=O)[n-]c2[O-])cc(C)n1CC(=O)[N-]c1ccccc1N(C)C (cis-trans isomerization)
C=c1/c(=C\c2[n-]c(=O)[n-]c2[O-])cc(C)n1CC(=O)[N-]c1ccccc1N(C)C (3D coordinates assigned)
C=c1/c(=C\c2[n-]c(=O)[n-]c2[O-])cc(C)n1CC(=O)[N-]c1ccccc1N(C)C (optimized conformer: 121.91890300994267 kcal/mol)

>  <smiles>  (76) 
C=c1c(=Cc2[nH]c(=O)[nH]c2O)cc(C)n1CC(=O)Nc1ccccc1N(C)C

>  <score_type>  (76) 
oracle

>  <origin>  (76) 
adg

>  <m_score__min__energy>  (76) 
-16.82

>  <m_primary>  (76) 
energy

$$$$
76:0
     RDKit          3D

 38 39  0  0  0  0  0  0  0  0999 V2000
   62.3950   33.8790   46.5320 C   0  0  0  0  0  0  0  0  0  0  0  0
   60.9710   33.4750   46.7670 C   0  0  0  0  0  0  0  0  0  0  0  0
   59.9170   34.3320   46.4120 C   0  0  0  0  0  0  0  0  0  0  0  0
   58.5950   33.9580   46.6600 C   0  0  0  0  0  0  0  0  0  0  0  0
   58.3140   32.7300   47.2650 C   0  0  0  0  0  0  0  0  0  0  0  0
   59.3520   31.8660   47.6360 C   0  0  0  0  0  0  0  0  0  0  0  0
   59.0080   30.6450   48.2390 O   0  0  0  0  0  0  0  0  0  0  0  0
   59.9170   29.5850   48.5470 C   0  0  0  0  0  0  0  0  0  0  0  0
   59.4470   28.3030   47.9300 C   0  0  0  0  0  0  0  0  0  0  0  0
   59.9660   27.2170   48.3040 O   0  0  0  0  0  0  0  0  0  0  0  0
   58.4380   28.3100   46.9110 N   0  0  0  0  0  0  0  0  0  0  0  0
   57.9910   27.0830   46.2530 C   0  0  0  0  0  0  0  0  0  0  0  0
   56.5200   27.1610   45.9490 C   0  0  0  0  0  0  0  0  0  0  0  0
   55.7820   26.2120   46.3250 O   0  0  0  0  0  0  0  0  0  0  0  0
   55.9070   28.2750   45.2720 N   0  0  0  0  0  0  0  0  0  0  0  0
   56.4580   29.3810   44.8620 C   0  0  0  0  0  0  0  0  0  0  0  0
   56.5190   29.7730   43.5440 C   0  0  0  0  0  0  0  0  0  0  0  0
   57.1690   30.9870   43.6110 C   0  0  0  0  0  0  0  0  0  0  0  0
   57.4960   31.8760   42.4590 C   0  0  0  0  0  0  0  0  0  0  0  0
   57.4550   31.2550   44.8660 O   0  0  0  0  0  0  0  0  0  0  0  0
   57.0410   30.3040   45.6530 N   0  0  0  0  0  0  0  0  0  0  0  0
   60.6860   32.2480   47.3850 C   0  0  0  0  0  0  0  0  0  0  0  0
   62.8998   34.0222   47.4988 H   0  0  0  0  0  0  0  0  0  0  0  0
   62.9103   33.0916   45.9624 H   0  0  0  0  0  0  0  0  0  0  0  0
   62.4200   34.8197   45.9624 H   0  0  0  0  0  0  0  0  0  0  0  0
   60.1334   35.3004   45.9373 H   0  0  0  0  0  0  0  0  0  0  0  0
   57.7723   34.6317   46.3784 H   0  0  0  0  0  0  0  0  0  0  0  0
   57.2695   32.4397   47.4513 H   0  0  0  0  0  0  0  0  0  0  0  0
   60.9129   29.8344   48.1520 H   0  0  0  0  0  0  0  0  0  0  0  0
   59.9657   29.4605   49.6389 H   0  0  0  0  0  0  0  0  0  0  0  0
   57.9180   29.1940   46.7270 H   0  0  0  0  0  0  0  0  0  0  0  0
   58.5492   26.9503   45.3145 H   0  0  0  0  0  0  0  0  0  0  0  0
   58.1736   26.2301   46.9233 H   0  0  0  0  0  0  0  0  0  0  0  0
   56.1416   29.2466   42.6549 H   0  0  0  0  0  0  0  0  0  0  0  0
   57.8529   32.8464   42.8345 H   0  0  0  0  0  0  0  0  0  0  0  0
   58.2811   31.4086   41.8464 H   0  0  0  0  0  0  0  0  0  0  0  0
   56.5952   32.0287   41.8464 H   0  0  0  0  0  0  0  0  0  0  0  0
   61.5093   31.5790   47.6759 H   0  0  0  0  0  0  0  0  0  0  0  0
  1  2  1  0
  2  3  2  0
  3  4  1  0
  4  5  2  0
  5  6  1  0
  6  7  1  0
  7  8  1  0
  8  9  1  0
  9 10  2  0
  9 11  1  0
 11 12  1  0
 12 13  1  0
 13 14  2  0
 13 15  1  0
 15 16  2  3
 16 17  1  0
 17 18  2  0
 18 19  1  0
 18 20  1  0
 20 21  1  0
  6 22  2  0
 22  2  1  0
 21 16  1  0
  1 23  1  0
  1 24  1  0
  1 25  1  0
  3 26  1  0
  4 27  1  0
  5 28  1  0
  8 29  1  0
  8 30  1  0
 11 31  1  0
 12 32  1  0
 12 33  1  0
 17 34  1  0
 19 35  1  0
 19 36  1  0
 19 37  1  0
 22 38  1  0
M  CHG  1  21  -1
M  END
>  <UniqueID>  (77) 
73

>  <SMILES>  (77) 
Cc1cccc(OCC(=O)NCC(=O)N=c2cc(C)o[n-]2)c1

>  <Energy>  (77) 
62.5320787684795

>  <Genealogy>  (77) 
Cc1cccc(OCC(=O)NCC(=O)N=c2cc(C)o[n-]2)c1 (protonated)
Cc1cccc(OCC(=O)NCC(=O)N=c2cc(C)o[n-]2)c1 (3D coordinates assigned)
Cc1cccc(OCC(=O)NCC(=O)N=c2cc(C)o[n-]2)c1 (optimized conformer: 62.5320787684795 kcal/mol)

>  <smiles>  (77) 
Cc1cccc(OCC(=O)NCC(=O)N=c2cc(C)o[nH]2)c1

>  <score_type>  (77) 
oracle

>  <origin>  (77) 
adg

>  <m_score__min__energy>  (77) 
-10.6

>  <m_primary>  (77) 
energy

$$$$
77:0
     RDKit          3D

 57 60  0  0  0  0  0  0  0  0999 V2000
   59.3930   31.4333   48.0081 H   0  0  0  0  0  0  0  0  0  0  0  0
   58.8720   31.9630   47.1970 C   0  0  0  0  0  0  0  0  0  0  0  0
   58.0710   31.2730   46.3440 N   0  0  0  0  0  0  0  0  0  0  0  0
   57.4210   31.8790   45.3100 C   0  0  0  0  0  0  0  0  0  0  0  0
   56.6380   31.2030   44.5190 N   0  0  0  0  0  0  0  0  0  0  0  0
   56.3210   29.8040   44.6260 C   0  0  0  0  0  0  0  0  0  0  0  0
   55.1210   29.4460   44.4850 O   0  0  0  0  0  0  0  0  0  0  0  0
   57.3600   28.7710   44.8400 C   0  0  0  0  0  0  0  0  0  0  0  0
   57.9190   28.0820   43.7500 C   0  0  0  0  0  0  0  0  0  0  0  0
   57.5862   28.3133   42.7274 H   0  0  0  0  0  0  0  0  0  0  0  0
   58.8950   27.1050   43.9590 C   0  0  0  0  0  0  0  0  0  0  0  0
   59.3334   26.5751   43.1005 H   0  0  0  0  0  0  0  0  0  0  0  0
   59.3160   26.7990   45.2560 C   0  0  0  0  0  0  0  0  0  0  0  0
   60.0946   26.0382   45.4141 H   0  0  0  0  0  0  0  0  0  0  0  0
   58.7490   27.4590   46.3580 C   0  0  0  0  0  0  0  0  0  0  0  0
   59.2210   27.1510   47.7540 C   0  0  0  0  0  0  0  0  0  0  0  0
   59.6091   26.1222   47.7835 H   0  0  0  0  0  0  0  0  0  0  0  0
   58.3711   27.2629   48.4433 H   0  0  0  0  0  0  0  0  0  0  0  0
   60.2550   28.0520   48.1570 O   0  0  0  0  0  0  0  0  0  0  0  0
   60.0680   29.2030   48.9400 C   0  0  0  0  0  0  0  0  0  0  0  0
   61.1640   30.0450   49.1480 C   0  0  0  0  0  0  0  0  0  0  0  0
   62.1357   29.7943   48.6975 H   0  0  0  0  0  0  0  0  0  0  0  0
   61.0390   31.2020   49.9220 C   0  0  0  0  0  0  0  0  0  0  0  0
   61.9123   31.8534   50.0739 H   0  0  0  0  0  0  0  0  0  0  0  0
   59.8050   31.5410   50.5090 C   0  0  0  0  0  0  0  0  0  0  0  0
   59.6540   32.7640   51.3430 C   0  0  0  0  0  0  0  0  0  0  0  0
   58.5260   33.3200   51.4390 O   0  0  0  0  0  0  0  0  0  0  0  0
   60.8090   33.3640   52.0870 C   0  0  0  0  0  0  0  0  0  0  0  0
   60.6348   33.2735   53.1693 H   0  0  0  0  0  0  0  0  0  0  0  0
   61.7339   32.8324   51.8188 H   0  0  0  0  0  0  0  0  0  0  0  0
   60.9058   34.4264   51.8188 H   0  0  0  0  0  0  0  0  0  0  0  0
   58.7030   30.6920   50.2960 C   0  0  0  0  0  0  0  0  0  0  0  0
   57.7299   30.9413   50.7442 H   0  0  0  0  0  0  0  0  0  0  0  0
   58.8310   29.5350   49.5210 C   0  0  0  0  0  0  0  0  0  0  0  0
   57.9600   28.8815   49.3651 H   0  0  0  0  0  0  0  0  0  0  0  0
   57.7760   28.4500   46.1420 C   0  0  0  0  0  0  0  0  0  0  0  0
   57.3365   28.9788   47.0006 H   0  0  0  0  0  0  0  0  0  0  0  0
   57.5660   33.2560   45.1210 C   0  0  0  0  0  0  0  0  0  0  0  0
   57.0426   33.7592   44.2947 H   0  0  0  0  0  0  0  0  0  0  0  0
   58.3790   33.9890   45.9870 C   0  0  0  0  0  0  0  0  0  0  0  0
   58.5035   35.0716   45.8371 H   0  0  0  0  0  0  0  0  0  0  0  0
   59.0380   33.3500   47.0480 C   0  0  0  0  0  0  0  0  0  0  0  0
   59.9090   34.1170   47.9700 C   0  0  0  0  0  0  0  0  0  0  0  0
   59.4030   34.9960   48.7170 O   0  0  0  0  0  0  0  0  0  0  0  0
   61.3280   33.8910   48.0100 N   0  0  0  0  0  0  0  0  0  0  0  0
   62.1170   34.4270   49.1280 C   0  0  0  0  0  0  0  0  0  0  0  0
   61.5228   34.3619   50.0514 H   0  0  0  0  0  0  0  0  0  0  0  0
   62.3719   35.4739   48.9068 H   0  0  0  0  0  0  0  0  0  0  0  0
   63.3910   33.6520   49.3080 C   0  0  0  0  0  0  0  0  0  0  0  0
   64.0720   33.8040   50.3570 O   0  0  0  0  0  0  0  0  0  0  0  0
   63.8800   32.8020   48.2670 N   0  0  0  0  0  0  0  0  0  0  0  0
   63.0400   32.3830   47.1500 C   0  0  0  0  0  0  0  0  0  0  0  0
   62.4974   31.4679   47.4295 H   0  0  0  0  0  0  0  0  0  0  0  0
   63.6811   32.1944   46.2763 H   0  0  0  0  0  0  0  0  0  0  0  0
   62.0330   33.4740   46.7940 C   0  0  0  0  0  0  0  0  0  0  0  0
   61.3089   33.0830   46.0641 H   0  0  0  0  0  0  0  0  0  0  0  0
   62.5589   34.3354   46.3565 H   0  0  0  0  0  0  0  0  0  0  0  0
  1  2  1  0
  2  3  1  0
  3  4  1  0
  4  5  2  0
  5  6  1  0
  6  7  2  0
  6  8  1  0
  8  9  2  0
  9 10  1  0
  9 11  1  0
 11 12  1  0
 11 13  2  0
 13 14  1  0
 13 15  1  0
 15 16  1  0
 16 17  1  0
 16 18  1  0
 16 19  1  0
 19 20  1  0
 20 21  2  0
 21 22  1  0
 21 23  1  0
 23 24  1  0
 23 25  2  0
 25 26  1  0
 26 27  2  0
 26 28  1  0
 28 29  1  0
 28 30  1  0
 28 31  1  0
 25 32  1  0
 32 33  1  0
 32 34  2  0
 34 35  1  0
 15 36  2  0
 36 37  1  0
  4 38  1  0
 38 39  1  0
 38 40  2  0
 40 41  1  0
 40 42  1  0
 42 43  1  0
 43 44  2  0
 43 45  1  0
 45 46  1  0
 46 47  1  0
 46 48  1  0
 46 49  1  0
 49 50  2  0
 49 51  1  0
 51 52  1  0
 52 53  1  0
 52 54  1  0
 52 55  1  0
 55 56  1  0
 55 57  1  0
 42  2  2  0
 55 45  1  0
 36  8  1  0
 34 20  1  0
M  CHG  2   3  -1  51  -1
M  END
>  <UniqueID>  (78) 
74

>  <SMILES>  (78) 
CC(=O)c1ccc(OCc2cccc(C(=O)/N=c3/ccc(C(=O)N4CC[N-]C(=O)C4)c[n-]3)c2)cc1

>  <Energy>  (78) 
74.02940605077495

>  <Genealogy>  (78) 
CC(=O)c1ccc(OCc2cccc(C(=O)N=c3ccc(C(=O)N4CC[N-]C(=O)C4)c[n-]3)c2)cc1 (protonated)
CC(=O)c1ccc(OCc2cccc(C(=O)/N=c3/ccc(C(=O)N4CC[N-]C(=O)C4)c[n-]3)c2)cc1 (cis-trans isomerization)
CC(=O)c1ccc(OCc2cccc(C(=O)/N=c3/ccc(C(=O)N4CC[N-]C(=O)C4)c[n-]3)c2)cc1 (3D coordinates assigned)
CC(=O)c1ccc(OCc2cccc(C(=O)/N=c3/ccc(C(=O)N4CC[N-]C(=O)C4)c[n-]3)c2)cc1 (nonaromatic ring conformer: 74.02940605077495 kcal/mol)

>  <smiles>  (78) 
CC(=O)c1ccc(OCc2cccc(C(=O)N=c3ccc(C(=O)N4CCNC(=O)C4)c[nH]3)c2)cc1

>  <score_type>  (78) 
oracle

>  <origin>  (78) 
adg

>  <m_score__min__energy>  (78) 
-13.43

>  <m_primary>  (78) 
energy

$$$$
78:0
     RDKit          3D

 33 34  0  0  0  0  0  0  0  0999 V2000
   56.3770   23.9950   44.6530 C   0  0  0  0  0  0  0  0  0  0  0  0
   55.3530   24.5700   45.9920 S   0  0  0  0  0  0  0  0  0  0  0  0
   55.9640   24.0960   47.2810 O   0  0  0  0  0  0  0  0  0  0  0  0
   53.9650   24.0070   45.8770 O   0  0  0  0  0  0  0  0  0  0  0  0
   55.3010   26.3040   46.0130 N   0  0  0  0  0  0  0  0  0  0  0  0
   56.4220   27.1970   45.9190 C   0  0  0  0  0  0  0  0  0  0  0  0
   57.6350   26.7800   46.4800 C   0  0  0  0  0  0  0  0  0  0  0  0
   58.7700   27.5930   46.4130 C   0  0  0  0  0  0  0  0  0  0  0  0
   58.7010   28.8520   45.8000 C   0  0  0  0  0  0  0  0  0  0  0  0
   59.9320   29.7090   45.6870 C   0  0  0  0  0  0  0  0  0  0  0  0
   59.6750   31.0670   46.2830 C   0  0  0  0  0  0  0  0  0  0  0  0
   58.8790   32.0010   45.5990 C   0  0  0  0  0  0  0  0  0  0  0  0
   58.6710   33.2750   46.1360 C   0  0  0  0  0  0  0  0  0  0  0  0
   59.2630   33.6320   47.3550 C   0  0  0  0  0  0  0  0  0  0  0  0
   59.0630   34.8980   47.8990 O   0  0  0  0  0  0  0  0  0  0  0  0
   60.0650   32.7080   48.0330 C   0  0  0  0  0  0  0  0  0  0  0  0
   60.2760   31.4330   47.4980 C   0  0  0  0  0  0  0  0  0  0  0  0
   57.4850   29.2820   45.2510 C   0  0  0  0  0  0  0  0  0  0  0  0
   56.3440   28.4730   45.3210 C   0  0  0  0  0  0  0  0  0  0  0  0
   55.1480   28.9710   44.8220 O   0  0  0  0  0  0  0  0  0  0  0  0
   57.2677   23.4949   45.0612 H   0  0  0  0  0  0  0  0  0  0  0  0
   55.8081   23.2844   44.0354 H   0  0  0  0  0  0  0  0  0  0  0  0
   56.6876   24.8506   44.0354 H   0  0  0  0  0  0  0  0  0  0  0  0
   57.6955   25.8016   46.9791 H   0  0  0  0  0  0  0  0  0  0  0  0
   59.7205   27.2439   46.8427 H   0  0  0  0  0  0  0  0  0  0  0  0
   60.7614   29.2268   46.2252 H   0  0  0  0  0  0  0  0  0  0  0  0
   60.1921   29.8261   44.6246 H   0  0  0  0  0  0  0  0  0  0  0  0
   58.4180   31.7291   44.6380 H   0  0  0  0  0  0  0  0  0  0  0  0
   58.0405   33.9996   45.5998 H   0  0  0  0  0  0  0  0  0  0  0  0
   59.6400   35.2450   48.6560 H   0  0  0  0  0  0  0  0  0  0  0  0
   60.5312   32.9850   48.9900 H   0  0  0  0  0  0  0  0  0  0  0  0
   60.9154   30.7141   48.0313 H   0  0  0  0  0  0  0  0  0  0  0  0
   57.4264   30.2647   44.7603 H   0  0  0  0  0  0  0  0  0  0  0  0
  1  2  1  0
  2  3  2  0
  2  4  2  0
  2  5  1  0
  5  6  1  0
  6  7  2  0
  7  8  1  0
  8  9  2  0
  9 10  1  0
 10 11  1  0
 11 12  2  0
 12 13  1  0
 13 14  2  0
 14 15  1  0
 14 16  1  0
 16 17  2  0
  9 18  1  0
 18 19  2  0
 19 20  1  0
 19  6  1  0
 17 11  1  0
  1 21  1  0
  1 22  1  0
  1 23  1  0
  7 24  1  0
  8 25  1  0
 10 26  1  0
 10 27  1  0
 12 28  1  0
 13 29  1  0
 15 30  1  0
 16 31  1  0
 17 32  1  0
 18 33  1  0
M  CHG  2   5  -1  20  -1
M  END
>  <UniqueID>  (79) 
75

>  <SMILES>  (79) 
CS(=O)(=O)[N-]c1ccc(Cc2ccc(O)cc2)cc1[O-]

>  <Energy>  (79) 
34.636959084628316

>  <Genealogy>  (79) 
CS(=O)(=O)[N-]c1ccc(Cc2ccc(O)cc2)cc1[O-] (protonated)
CS(=O)(=O)[N-]c1ccc(Cc2ccc(O)cc2)cc1[O-] (3D coordinates assigned)
CS(=O)(=O)[N-]c1ccc(Cc2ccc(O)cc2)cc1[O-] (optimized conformer: 34.636959084628316 kcal/mol)

>  <smiles>  (79) 
CS(=O)(=O)Nc1ccc(Cc2ccc(O)cc2)cc1O

>  <score_type>  (79) 
oracle

>  <origin>  (79) 
adg

>  <m_score__min__energy>  (79) 
-12.98

>  <m_primary>  (79) 
energy

$$$$
79:0
     RDKit          3D

 41 43  0  0  0  0  0  0  0  0999 V2000
   51.7579   29.0325   52.7922 H   0  0  0  0  0  0  0  0  0  0  0  0
   52.6660   28.6630   53.2910 C   0  0  0  0  0  0  0  0  0  0  0  0
   52.5910   27.8823   54.0623 H   0  0  0  0  0  0  0  0  0  0  0  0
   53.8710   29.1670   52.9570 C   0  0  0  0  0  0  0  0  0  0  0  0
   54.0550   30.1590   51.9380 C   0  0  0  0  0  0  0  0  0  0  0  0
   53.0140   30.7410   51.2790 C   0  0  0  0  0  0  0  0  0  0  0  0
   53.0185   30.6816   50.1806 H   0  0  0  0  0  0  0  0  0  0  0  0
   51.8780   31.4460   51.9130 C   0  0  0  0  0  0  0  0  0  0  0  0
   51.6050   31.4510   53.2320 N   0  0  0  0  0  0  0  0  0  0  0  0
   50.5670   32.3080   53.3360 C   0  0  0  0  0  0  0  0  0  0  0  0
   50.0110   32.5710   54.4340 O   0  0  0  0  0  0  0  0  0  0  0  0
   50.1780   32.8690   52.1710 N   0  0  0  0  0  0  0  0  0  0  0  0
   51.0250   32.3220   51.2850 C   0  0  0  0  0  0  0  0  0  0  0  0
   51.0220   32.6200   49.9280 O   0  0  0  0  0  0  0  0  0  0  0  0
   55.3780   30.5730   51.6700 C   0  0  0  0  0  0  0  0  0  0  0  0
   55.5515   31.3568   50.9180 H   0  0  0  0  0  0  0  0  0  0  0  0
   56.4710   30.0150   52.3330 C   0  0  0  0  0  0  0  0  0  0  0  0
   57.8300   30.5100   52.0210 C   0  0  0  0  0  0  0  0  0  0  0  0
   58.5490   29.8570   51.2170 O   0  0  0  0  0  0  0  0  0  0  0  0
   58.3430   31.7140   52.6210 N   0  0  0  0  0  0  0  0  0  0  0  0
   58.0920   32.1120   53.9960 C   0  0  0  0  0  0  0  0  0  0  0  0
   57.0130   32.2403   54.1674 H   0  0  0  0  0  0  0  0  0  0  0  0
   58.4436   31.3523   54.7096 H   0  0  0  0  0  0  0  0  0  0  0  0
   58.8200   33.4360   54.1800 C   0  0  0  0  0  0  0  0  0  0  0  0
   58.1924   34.1418   54.7440 H   0  0  0  0  0  0  0  0  0  0  0  0
   59.7546   33.3059   54.7453 H   0  0  0  0  0  0  0  0  0  0  0  0
   59.0880   33.9720   52.7700 C   0  0  2  0  0  0  0  0  0  0  0  0
   60.0591   34.4841   52.7012 H   0  0  0  0  0  0  0  0  0  0  0  0
   58.0620   34.9480   52.3930 N   0  0  0  0  0  0  0  0  0  0  0  0
   58.3290   35.3600   51.4690 H   0  0  0  0  0  0  0  0  0  0  0  0
   58.0990   35.7400   53.0760 H   0  0  0  0  0  0  0  0  0  0  0  0
   59.0220   32.7460   51.8540 C   0  0  0  0  0  0  0  0  0  0  0  0
   58.4549   32.9802   50.9410 H   0  0  0  0  0  0  0  0  0  0  0  0
   60.0248   32.4220   51.5386 H   0  0  0  0  0  0  0  0  0  0  0  0
   56.2440   29.0420   53.3190 C   0  0  0  0  0  0  0  0  0  0  0  0
   57.3890   28.4170   54.0740 C   0  0  0  0  0  0  0  0  0  0  0  0
   57.2116   28.5139   55.1553 H   0  0  0  0  0  0  0  0  0  0  0  0
   57.4652   27.3522   53.8089 H   0  0  0  0  0  0  0  0  0  0  0  0
   58.3259   28.9288   53.8089 H   0  0  0  0  0  0  0  0  0  0  0  0
   54.9660   28.6680   53.6120 N   0  0  0  0  0  0  0  0  0  0  0  0
   54.8310   27.9490   54.3610 H   0  0  0  0  0  0  0  0  0  0  0  0
  1  2  1  0
  2  3  1  0
  2  4  2  0
  4  5  1  0
  5  6  2  0
  6  7  1  0
  6  8  1  0
  8  9  1  0
  9 10  1  0
 10 11  2  0
 10 12  1  0
 12 13  1  0
 13 14  1  0
  5 15  1  0
 15 16  1  0
 15 17  2  0
 17 18  1  0
 18 19  2  0
 18 20  1  0
 20 21  1  0
 21 22  1  0
 21 23  1  0
 21 24  1  0
 24 25  1  0
 24 26  1  0
 24 27  1  0
 27 28  1  1
 27 29  1  0
 29 30  1  0
 29 31  1  0
 27 32  1  0
 32 33  1  0
 32 34  1  0
 17 35  1  0
 35 36  1  0
 36 37  1  0
 36 38  1  0
 36 39  1  0
 35 40  2  0
 40 41  1  0
 40  4  1  0
 13  8  2  0
 32 20  1  0
M  CHG  4   9  -1  12  -1  14  -1  40   1
M  END
>  <UniqueID>  (80) 
76

>  <SMILES>  (80) 
C=c1[nH+]c(C)c(C(=O)N2CC[C@H](N)C2)c/c1=C\c1[n-]c(=O)[n-]c1[O-]

>  <Energy>  (80) 
92.50504100453678

>  <Genealogy>  (80) 
C=c1[nH+]c(C)c(C(=O)N2CCC(N)C2)cc1=Cc1[n-]c(=O)[n-]c1[O-] (protonated)
C=c1[nH+]c(C)c(C(=O)N2CC[C@H](N)C2)cc1=Cc1[n-]c(=O)[n-]c1[O-] (chirality)
C=c1[nH+]c(C)c(C(=O)N2CC[C@H](N)C2)c/c1=C\c1[n-]c(=O)[n-]c1[O-] (cis-trans isomerization)
C=c1[nH+]c(C)c(C(=O)N2CC[C@H](N)C2)c/c1=C\c1[n-]c(=O)[n-]c1[O-] (3D coordinates assigned)
C=c1[nH+]c(C)c(C(=O)N2CC[C@H](N)C2)c/c1=C\c1[n-]c(=O)[n-]c1[O-] (nonaromatic ring conformer: 92.50504100453678 kcal/mol)

>  <smiles>  (80) 
C=c1nc(C)c(C(=O)N2CCC(N)C2)cc1=Cc1[nH]c(=O)[nH]c1O

>  <score_type>  (80) 
oracle

>  <origin>  (80) 
adg

>  <m_score__min__energy>  (80) 
-15.529999999999999

>  <m_primary>  (80) 
energy

$$$$
80:0
     RDKit          3D

 87 90  0  0  0  0  0  0  0  0999 V2000
   59.8967   26.4407   48.0972 H   0  0  0  0  0  0  0  0  0  0  0  0
   58.9480   26.7390   47.6270 C   0  0  0  0  0  0  0  0  0  0  0  0
   58.0181   26.2089   47.8803 H   0  0  0  0  0  0  0  0  0  0  0  0
   58.5120   34.0030   45.7980 C   0  0  0  0  0  0  0  0  0  0  0  0
   57.5480   28.0800   46.1510 C   0  0  0  0  0  0  0  0  0  0  0  0
   56.7852   27.5563   46.7459 H   0  0  0  0  0  0  0  0  0  0  0  0
   57.4308   29.1731   46.1878 H   0  0  0  0  0  0  0  0  0  0  0  0
   57.3900   27.6600   44.6810 C   0  0  0  0  0  0  0  0  0  0  0  0
   58.1511   26.9021   44.4439 H   0  0  0  0  0  0  0  0  0  0  0  0
   56.3749   27.2574   44.5486 H   0  0  0  0  0  0  0  0  0  0  0  0
   57.5560   28.8290   43.7410 C   0  0  0  0  0  0  0  0  0  0  0  0
   58.3898   28.8091   43.0239 H   0  0  0  0  0  0  0  0  0  0  0  0
   56.7330   29.8960   43.7370 C   0  0  0  0  0  0  0  0  0  0  0  0
   57.3480   31.2480   43.7020 C   0  0  0  0  0  0  0  0  0  0  0  0
   57.8526   31.5704   42.7793 H   0  0  0  0  0  0  0  0  0  0  0  0
   57.3170   32.0920   44.7400 C   0  0  0  0  0  0  0  0  0  0  0  0
   56.7142   31.8459   45.6266 H   0  0  0  0  0  0  0  0  0  0  0  0
   61.7960   30.9220   50.1240 C   0  0  0  0  0  0  0  0  0  0  0  0
   58.3266   33.7829   43.7197 H   0  0  0  0  0  0  0  0  0  0  0  0
   58.9250   27.7570   46.7380 C   0  0  0  0  0  0  0  0  0  0  0  0
   57.8510   33.7000   47.1210 C   0  0  0  0  0  0  0  0  0  0  0  0
   58.5167   34.0051   47.9419 H   0  0  0  0  0  0  0  0  0  0  0  0
   56.9031   34.2535   47.1926 H   0  0  0  0  0  0  0  0  0  0  0  0
   57.6516   32.6206   47.1926 H   0  0  0  0  0  0  0  0  0  0  0  0
   59.6280   35.0180   45.7400 C   0  0  0  0  0  0  0  0  0  0  0  0
   59.9285   35.2913   46.7622 H   0  0  0  0  0  0  0  0  0  0  0  0
   60.4886   34.5867   45.2078 H   0  0  0  0  0  0  0  0  0  0  0  0
   59.2800   35.9156   45.2078 H   0  0  0  0  0  0  0  0  0  0  0  0
   55.2260   29.7350   43.7230 C   0  0  0  0  0  0  0  0  0  0  0  0
   54.8519   29.6950   44.7567 H   0  0  0  0  0  0  0  0  0  0  0  0
   54.7708   30.5896   43.2011 H   0  0  0  0  0  0  0  0  0  0  0  0
   54.9616   28.8035   43.2011 H   0  0  0  0  0  0  0  0  0  0  0  0
   60.1960   28.6560   46.6500 C   0  0  2  0  0  0  0  0  0  0  0  0
   60.8803   27.8444   46.3619 H   0  0  0  0  0  0  0  0  0  0  0  0
   59.9520   29.8650   45.6900 C   0  0  0  0  0  0  0  0  0  0  0  0
   60.5272   29.7257   44.7628 H   0  0  0  0  0  0  0  0  0  0  0  0
   58.8843   29.9372   45.4352 H   0  0  0  0  0  0  0  0  0  0  0  0
   60.4140   31.1450   46.4000 C   0  0  0  0  0  0  0  0  0  0  0  0
   61.4314   31.4153   46.0810 H   0  0  0  0  0  0  0  0  0  0  0  0
   59.7645   32.0001   46.1614 H   0  0  0  0  0  0  0  0  0  0  0  0
   60.3920   30.8140   47.9070 C   0  0  2  0  0  0  0  0  0  0  0  0
   58.8950   30.8660   48.3760 C   0  0  0  0  0  0  0  0  0  0  0  0
   58.8550   30.8674   49.4753 H   0  0  0  0  0  0  0  0  0  0  0  0
   58.4216   31.7811   47.9907 H   0  0  0  0  0  0  0  0  0  0  0  0
   58.3593   29.9859   47.9907 H   0  0  0  0  0  0  0  0  0  0  0  0
   61.3420   31.7170   48.8560 C   0  0  1  0  0  0  0  0  0  0  0  0
   60.5410   32.9820   49.2810 C   0  0  0  0  0  0  0  0  0  0  0  0
   60.5038   33.0407   50.3788 H   0  0  0  0  0  0  0  0  0  0  0  0
   61.0354   33.8801   48.8823 H   0  0  0  0  0  0  0  0  0  0  0  0
   59.5177   32.9192   48.8823 H   0  0  0  0  0  0  0  0  0  0  0  0
   58.0870   33.3520   44.7030 C   0  0  0  0  0  0  0  0  0  0  0  0
   61.2750   29.6870   50.3620 C   0  0  0  0  0  0  0  0  0  0  0  0
   61.1137   29.3600   51.3998 H   0  0  0  0  0  0  0  0  0  0  0  0
   60.9250   28.7850   49.2610 C   0  0  0  0  0  0  0  0  0  0  0  0
   60.9780   27.5460   49.4600 O   0  0  0  0  0  0  0  0  0  0  0  0
   60.8700   29.3530   47.8810 C   0  0  1  0  0  0  0  0  0  0  0  0
   61.9283   29.1649   47.6474 H   0  0  0  0  0  0  0  0  0  0  0  0
   62.9330   31.4680   51.0550 C   0  0  1  0  0  0  0  0  0  0  0  0
   62.3190   32.5110   52.0240 C   0  0  0  0  0  0  0  0  0  0  0  0
   62.5026   32.1991   53.0627 H   0  0  0  0  0  0  0  0  0  0  0  0
   62.7834   33.4926   51.8484 H   0  0  0  0  0  0  0  0  0  0  0  0
   61.2354   32.5813   51.8484 H   0  0  0  0  0  0  0  0  0  0  0  0
   63.5660   30.3120   51.9280 C   0  0  0  0  0  0  0  0  0  0  0  0
   62.9159   30.1638   52.8029 H   0  0  0  0  0  0  0  0  0  0  0  0
   63.6368   29.4495   51.2490 H   0  0  0  0  0  0  0  0  0  0  0  0
   65.0050   30.5290   52.4490 C   0  0  0  0  0  0  0  0  0  0  0  0
   65.0275   30.2725   53.5184 H   0  0  0  0  0  0  0  0  0  0  0  0
   65.6615   29.8865   51.8439 H   0  0  0  0  0  0  0  0  0  0  0  0
   65.5080   31.9310   52.2910 C   0  0  0  0  0  0  0  0  0  0  0  0
   66.1860   32.4150   53.1850 O   0  0  0  0  0  0  0  0  0  0  0  0
   65.3120   32.6780   50.9840 C   0  0  0  0  0  0  0  0  0  0  0  0
   66.6260   32.5340   50.1740 C   0  0  0  0  0  0  0  0  0  0  0  0
   67.4754   32.4409   50.8667 H   0  0  0  0  0  0  0  0  0  0  0  0
   66.5696   31.6367   49.5403 H   0  0  0  0  0  0  0  0  0  0  0  0
   66.7653   33.4223   49.5403 H   0  0  0  0  0  0  0  0  0  0  0  0
   65.1210   34.1880   51.2920 C   0  0  0  0  0  0  0  0  0  0  0  0
   65.1017   34.3405   52.3812 H   0  0  0  0  0  0  0  0  0  0  0  0
   65.9540   34.7593   50.8565 H   0  0  0  0  0  0  0  0  0  0  0  0
   64.1720   34.5339   50.8565 H   0  0  0  0  0  0  0  0  0  0  0  0
   64.1080   32.0440   50.1700 C   0  0  2  0  0  0  0  0  0  0  0  0
   64.5421   31.1469   49.7045 H   0  0  0  0  0  0  0  0  0  0  0  0
   63.6290   32.9300   49.0030 C   0  0  0  0  0  0  0  0  0  0  0  0
   63.1497   33.8312   49.4130 H   0  0  0  0  0  0  0  0  0  0  0  0
   64.5040   33.1930   48.3905 H   0  0  0  0  0  0  0  0  0  0  0  0
   62.6230   32.1950   48.1090 C   0  0  0  0  0  0  0  0  0  0  0  0
   62.3181   32.8750   47.2999 H   0  0  0  0  0  0  0  0  0  0  0  0
   63.1291   31.2924   47.7359 H   0  0  0  0  0  0  0  0  0  0  0  0
  1  2  1  0
  2  3  1  0
  2  4  2  0
  4  5  1  0
  5  6  1  0
  5  7  1  0
  5  8  1  0
  8  9  1  0
  8 10  1  0
  8 11  1  0
 11 12  1  0
 11 13  2  0
 13 14  1  0
 14 15  1  0
 14 16  2  0
 16 17  1  0
 16 18  1  0
 18 19  1  0
 18 20  2  3
 20 21  1  0
 21 22  1  0
 21 23  1  0
 21 24  1  0
 20 25  1  0
 25 26  1  0
 25 27  1  0
 25 28  1  0
 13 29  1  0
 29 30  1  0
 29 31  1  0
 29 32  1  0
  4 33  1  0
 33 34  1  6
 33 35  1  0
 35 36  1  0
 35 37  1  0
 35 38  1  0
 38 39  1  0
 38 40  1  0
 38 41  1  0
 41 42  1  1
 42 43  1  0
 42 44  1  0
 42 45  1  0
 41 46  1  0
 46 47  1  6
 47 48  1  0
 47 49  1  0
 47 50  1  0
 46 51  1  0
 51 52  2  0
 52 53  1  0
 52 54  1  0
 54 55  2  0
 54 56  1  0
 56 57  1  6
 51 58  1  0
 58 59  1  1
 59 60  1  0
 59 61  1  0
 59 62  1  0
 58 63  1  0
 63 64  1  0
 63 65  1  0
 63 66  1  0
 66 67  1  0
 66 68  1  0
 66 69  1  0
 69 70  2  0
 69 71  1  0
 71 72  1  0
 72 73  1  0
 72 74  1  0
 72 75  1  0
 71 76  1  0
 76 77  1  0
 76 78  1  0
 76 79  1  0
 71 80  1  0
 80 81  1  6
 80 82  1  0
 82 83  1  0
 82 84  1  0
 82 85  1  0
 85 86  1  0
 85 87  1  0
 56 33  1  0
 80 58  1  0
 56 41  1  0
 85 46  1  0
M  END
>  <UniqueID>  (81) 
77

>  <SMILES>  (81) 
C=C(CCC=C(C)/C=C/C=C(C)C)[C@H]1CC[C@@]2(C)C1C(=O)C=C1C3(C)CCC(=O)C(C)(C)C3CCC12C

>  <Energy>  (81) 
162.03898198769312

>  <Genealogy>  (81) 
C=C(CCC=C(C)C=CC=C(C)C)[C@H]1CC[C@@]2(C)C1C(=O)C=C1C3(C)CCC(=O)C(C)(C)C3CCC12C (chirality)
C=C(CCC=C(C)/C=C/C=C(C)C)[C@H]1CC[C@@]2(C)C1C(=O)C=C1C3(C)CCC(=O)C(C)(C)C3CCC12C (cis-trans isomerization)
C=C(CCC=C(C)/C=C/C=C(C)C)[C@H]1CC[C@@]2(C)C1C(=O)C=C1C3(C)CCC(=O)C(C)(C)C3CCC12C (3D coordinates assigned)
C=C(CCC=C(C)/C=C/C=C(C)C)[C@H]1CC[C@@]2(C)C1C(=O)C=C1C3(C)CCC(=O)C(C)(C)C3CCC12C (nonaromatic ring conformer: 162.03898198769312 kcal/mol)

>  <smiles>  (81) 
C=C(CCC=C(C)C=CC=C(C)C)C1CCC2(C)C1C(=O)C=C1C3(C)CCC(=O)C(C)(C)C3CCC12C

>  <score_type>  (81) 
oracle

>  <origin>  (81) 
adg

>  <m_score__min__energy>  (81) 
-10.57

>  <m_primary>  (81) 
energy

$$$$
81:0
     RDKit          3D

 35 38  0  0  0  0  0  0  0  0999 V2000
   53.7679   28.7566   53.3779 H   0  0  0  0  0  0  0  0  0  0  0  0
   54.3980   29.5030   52.8720 C   0  0  0  0  0  0  0  0  0  0  0  0
   56.0190   29.8120   53.1980 S   0  0  0  0  0  0  0  0  0  0  0  0
   56.1300   31.0130   52.0180 C   0  0  0  0  0  0  0  0  0  0  0  0
   57.1940   31.7030   51.7280 N   0  0  0  0  0  0  0  0  0  0  0  0
   58.3450   31.1960   50.9840 C   0  0  0  0  0  0  0  0  0  0  0  0
   59.1781   31.0211   51.6807 H   0  0  0  0  0  0  0  0  0  0  0  0
   58.0623   30.2558   50.4880 H   0  0  0  0  0  0  0  0  0  0  0  0
   58.7720   32.1840   49.9430 C   0  0  0  0  0  0  0  0  0  0  0  0
   59.8490   32.9840   50.1660 N   0  0  0  0  0  0  0  0  0  0  0  0
   60.2750   33.8770   49.2360 C   0  0  0  0  0  0  0  0  0  0  0  0
   61.2760   34.6000   49.4860 O   0  0  0  0  0  0  0  0  0  0  0  0
   59.5940   33.9830   48.0120 C   0  0  0  0  0  0  0  0  0  0  0  0
   59.9840   34.8850   47.0060 C   0  0  0  0  0  0  0  0  0  0  0  0
   60.8511   35.5433   47.1634 H   0  0  0  0  0  0  0  0  0  0  0  0
   59.2690   34.9450   45.8050 C   0  0  0  0  0  0  0  0  0  0  0  0
   59.5754   35.6513   45.0193 H   0  0  0  0  0  0  0  0  0  0  0  0
   58.1660   34.1100   45.6000 C   0  0  0  0  0  0  0  0  0  0  0  0
   57.6071   34.1617   44.6540 H   0  0  0  0  0  0  0  0  0  0  0  0
   57.7720   33.2100   46.5940 C   0  0  0  0  0  0  0  0  0  0  0  0
   56.9049   32.5537   46.4287 H   0  0  0  0  0  0  0  0  0  0  0  0
   58.4800   33.1430   47.8000 C   0  0  0  0  0  0  0  0  0  0  0  0
   58.0980   32.2680   48.7650 N   0  0  0  0  0  0  0  0  0  0  0  0
   54.9600   31.1890   51.3710 N   0  0  0  0  0  0  0  0  0  0  0  0
   53.9930   30.3580   51.8490 C   0  0  0  0  0  0  0  0  0  0  0  0
   52.6180   30.3300   51.2590 C   0  0  0  0  0  0  0  0  0  0  0  0
   52.1955   29.3202   51.3675 H   0  0  0  0  0  0  0  0  0  0  0  0
   52.6767   30.5972   50.1936 H   0  0  0  0  0  0  0  0  0  0  0  0
   51.7390   31.3130   51.9640 C   0  0  0  0  0  0  0  0  0  0  0  0
   51.4550   31.2670   53.2770 N   0  0  0  0  0  0  0  0  0  0  0  0
   50.5880   32.2890   53.4440 C   0  0  0  0  0  0  0  0  0  0  0  0
   50.0890   32.5790   54.5620 O   0  0  0  0  0  0  0  0  0  0  0  0
   50.2930   32.9730   52.3170 N   0  0  0  0  0  0  0  0  0  0  0  0
   51.0260   32.3380   51.3890 C   0  0  0  0  0  0  0  0  0  0  0  0
   51.0380   32.6820   50.0420 O   0  0  0  0  0  0  0  0  0  0  0  0
  1  2  1  0
  2  3  1  0
  3  4  1  0
  4  5  2  0
  5  6  1  0
  6  7  1  0
  6  8  1  0
  6  9  1  0
  9 10  2  0
 10 11  1  0
 11 12  2  0
 11 13  1  0
 13 14  2  0
 14 15  1  0
 14 16  1  0
 16 17  1  0
 16 18  2  0
 18 19  1  0
 18 20  1  0
 20 21  1  0
 20 22  2  0
 22 23  1  0
  4 24  1  0
 24 25  1  0
 25 26  1  0
 26 27  1  0
 26 28  1  0
 26 29  1  0
 29 30  1  0
 30 31  1  0
 31 32  2  0
 31 33  1  0
 33 34  1  0
 34 35  1  0
 25  2  2  0
 34 29  2  0
 23  9  1  0
 22 13  1  0
M  CHG  5  23  -1  24  -1  30  -1  33  -1  35  -1
M  END
>  <UniqueID>  (82) 
78

>  <SMILES>  (82) 
O=c1[n-]c([O-])c(Cc2cs/c(=N\Cc3nc(=O)c4ccccc4[n-]3)[n-]2)[n-]1

>  <Energy>  (82) 
100.15536647384914

>  <Genealogy>  (82) 
O=c1[n-]c([O-])c(Cc2csc(=NCc3nc(=O)c4ccccc4[n-]3)[n-]2)[n-]1 (protonated)
O=c1[n-]c([O-])c(Cc2cs/c(=N\Cc3nc(=O)c4ccccc4[n-]3)[n-]2)[n-]1 (cis-trans isomerization)
O=c1[n-]c([O-])c(Cc2cs/c(=N\Cc3nc(=O)c4ccccc4[n-]3)[n-]2)[n-]1 (3D coordinates assigned)
O=c1[n-]c([O-])c(Cc2cs/c(=N\Cc3nc(=O)c4ccccc4[n-]3)[n-]2)[n-]1 (optimized conformer: 100.15536647384914 kcal/mol)

>  <smiles>  (82) 
O=c1[nH]c(O)c(Cc2csc(=NCc3nc(=O)c4ccccc4[nH]3)[nH]2)[nH]1

>  <score_type>  (82) 
oracle

>  <origin>  (82) 
adg

>  <m_score__min__energy>  (82) 
-19.510000000000002

>  <m_primary>  (82) 
energy

$$$$
82:0
     RDKit          3D

 18 19  0  0  0  0  0  0  0  0999 V2000
   55.8620   31.1980   51.6280 C   0  0  0  0  0  0  0  0  0  0  0  0
   55.2250   30.2230   52.2820 C   0  0  0  0  0  0  0  0  0  0  0  0
   55.8250   29.0720   52.6350 N   0  0  0  0  0  0  0  0  0  0  0  0
   54.8500   28.3840   53.2620 C   0  0  0  0  0  0  0  0  0  0  0  0
   55.0790   26.8920   53.8860 S   0  0  0  0  0  0  0  0  0  0  0  0
   53.6660   29.0280   53.3250 N   0  0  0  0  0  0  0  0  0  0  0  0
   53.9010   30.2030   52.7090 C   0  0  0  0  0  0  0  0  0  0  0  0
   52.9680   31.1510   52.5150 C   0  0  0  0  0  0  0  0  0  0  0  0
   52.1390   31.2560   51.2990 C   0  0  0  0  0  0  0  0  0  0  0  0
   52.1860   30.3500   50.3060 N   0  0  0  0  0  0  0  0  0  0  0  0
   51.3340   30.8450   49.3830 C   0  0  0  0  0  0  0  0  0  0  0  0
   51.0980   30.2590   48.2930 O   0  0  0  0  0  0  0  0  0  0  0  0
   50.7610   32.0210   49.7150 N   0  0  0  0  0  0  0  0  0  0  0  0
   51.2870   32.2750   50.9240 C   0  0  0  0  0  0  0  0  0  0  0  0
   51.0260   33.4370   51.6400 O   0  0  0  0  0  0  0  0  0  0  0  0
   55.3275   32.1217   51.3611 H   0  0  0  0  0  0  0  0  0  0  0  0
   56.9210   31.0773   51.3563 H   0  0  0  0  0  0  0  0  0  0  0  0
   52.8131   31.8938   53.3114 H   0  0  0  0  0  0  0  0  0  0  0  0
  1  2  2  0
  2  3  1  0
  3  4  1  0
  4  5  2  0
  4  6  1  0
  6  7  1  0
  7  8  2  3
  8  9  1  0
  9 10  1  0
 10 11  1  0
 11 12  2  0
 11 13  1  0
 13 14  1  0
 14 15  1  0
  7  2  1  0
 14  9  2  0
  1 16  1  0
  1 17  1  0
  8 18  1  0
M  CHG  5   3  -1   6  -1  10  -1  13  -1  15  -1
M  END
>  <UniqueID>  (83) 
79

>  <SMILES>  (83) 
C=c1[n-]c(=S)[n-]c1=Cc1[n-]c(=O)[n-]c1[O-]

>  <Energy>  (83) 
81.95941453467046

>  <Genealogy>  (83) 
C=c1[n-]c(=S)[n-]c1=Cc1[n-]c(=O)[n-]c1[O-] (protonated)
C=c1[n-]c(=S)[n-]c1=Cc1[n-]c(=O)[n-]c1[O-] (3D coordinates assigned)
C=c1[n-]c(=S)[n-]c1=Cc1[n-]c(=O)[n-]c1[O-] (optimized conformer: 81.95941453467046 kcal/mol)

>  <smiles>  (83) 
C=c1[nH]c(=S)[nH]c1=Cc1[nH]c(=O)[nH]c1O

>  <score_type>  (83) 
oracle

>  <origin>  (83) 
adg

>  <m_score__min__energy>  (83) 
-16.84

>  <m_primary>  (83) 
energy

$$$$
83:0
     RDKit          3D

 38 41  0  0  0  0  0  0  0  0999 V2000
   57.4520   25.6296   43.7141 H   0  0  0  0  0  0  0  0  0  0  0  0
   57.7500   24.7410   44.2900 C   0  0  0  0  0  0  0  0  0  0  0  0
   58.3732   23.9652   43.8211 H   0  0  0  0  0  0  0  0  0  0  0  0
   57.3550   24.6040   45.5590 C   0  0  0  0  0  0  0  0  0  0  0  0
   57.7010   23.5300   46.2930 N   0  0  0  0  0  0  0  0  0  0  0  0
   57.0130   23.6900   47.4400 C   0  0  0  0  0  0  0  0  0  0  0  0
   57.0740   22.8660   48.3890 O   0  0  0  0  0  0  0  0  0  0  0  0
   56.2510   24.7990   47.4850 N   0  0  0  0  0  0  0  0  0  0  0  0
   56.4770   25.4020   46.3020 C   0  0  0  0  0  0  0  0  0  0  0  0
   55.9020   26.5820   46.0030 C   0  0  0  0  0  0  0  0  0  0  0  0
   54.8035   26.6281   46.0377 H   0  0  0  0  0  0  0  0  0  0  0  0
   56.6140   27.8150   45.6340 C   0  0  0  0  0  0  0  0  0  0  0  0
   56.0720   28.9230   44.9990 C   0  0  0  0  0  0  0  0  0  0  0  0
   54.7790   28.9900   44.4970 O   0  0  0  0  0  0  0  0  0  0  0  0
   56.9460   29.9540   44.9250 N   0  0  0  0  0  0  0  0  0  0  0  0
   58.0490   29.4910   45.5460 C   0  0  0  0  0  0  0  0  0  0  0  0
   59.2320   30.1940   45.7660 C   0  0  0  0  0  0  0  0  0  0  0  0
   59.3515   31.2235   45.3975 H   0  0  0  0  0  0  0  0  0  0  0  0
   60.2710   29.5560   46.4710 C   0  0  0  0  0  0  0  0  0  0  0  0
   61.4810   30.2880   46.7150 N   0  0  0  0  0  0  0  0  0  0  0  0
   61.6120   31.4920   47.4830 C   0  0  0  0  0  0  0  0  0  0  0  0
   62.5410   31.5990   48.3290 O   0  0  0  0  0  0  0  0  0  0  0  0
   60.6940   32.6380   47.2510 C   0  0  0  0  0  0  0  0  0  0  0  0
   59.3700   32.5820   47.7340 C   0  0  0  0  0  0  0  0  0  0  0  0
   59.0272   31.6908   48.2801 H   0  0  0  0  0  0  0  0  0  0  0  0
   58.4890   33.6470   47.5260 C   0  0  0  0  0  0  0  0  0  0  0  0
   57.4587   33.5898   47.9072 H   0  0  0  0  0  0  0  0  0  0  0  0
   58.9140   34.7820   46.8360 C   0  0  0  0  0  0  0  0  0  0  0  0
   58.2197   35.6200   46.6758 H   0  0  0  0  0  0  0  0  0  0  0  0
   60.2190   34.8550   46.3490 C   0  0  0  0  0  0  0  0  0  0  0  0
   60.5503   35.7509   45.8035 H   0  0  0  0  0  0  0  0  0  0  0  0
   61.1090   33.7940   46.5510 C   0  0  0  0  0  0  0  0  0  0  0  0
   62.3670   33.9070   46.0550 F   0  0  0  0  0  0  0  0  0  0  0  0
   60.0760   28.2430   46.9770 C   0  0  0  0  0  0  0  0  0  0  0  0
   60.8750   27.7575   47.5566 H   0  0  0  0  0  0  0  0  0  0  0  0
   58.8700   27.5590   46.7430 C   0  0  0  0  0  0  0  0  0  0  0  0
   58.7110   26.5419   47.1305 H   0  0  0  0  0  0  0  0  0  0  0  0
   57.8820   28.2090   46.0050 C   0  0  0  0  0  0  0  0  0  0  0  0
  1  2  1  0
  2  3  1  0
  2  4  2  0
  4  5  1  0
  5  6  1  0
  6  7  2  0
  6  8  1  0
  8  9  1  0
  9 10  2  0
 10 11  1  0
 10 12  1  0
 12 13  2  0
 13 14  1  0
 13 15  1  0
 15 16  1  0
 16 17  2  0
 17 18  1  0
 17 19  1  0
 19 20  1  0
 20 21  1  0
 21 22  2  0
 21 23  1  0
 23 24  2  0
 24 25  1  0
 24 26  1  0
 26 27  1  0
 26 28  2  0
 28 29  1  0
 28 30  1  0
 30 31  1  0
 30 32  2  0
 32 33  1  0
 19 34  2  0
 34 35  1  0
 34 36  1  0
 36 37  1  0
 36 38  2  0
  9  4  1  0
 38 12  1  0
 38 16  1  0
 32 23  1  0
M  CHG  5   5  -1   8  -1  14  -1  15  -1  20  -1
M  END
>  <UniqueID>  (84) 
80

>  <SMILES>  (84) 
C=c1[n-]c(=O)[n-]/c1=C/c1c([O-])[n-]c2cc([N-]C(=O)c3ccccc3F)ccc12

>  <Energy>  (84) 
122.02421796737359

>  <Genealogy>  (84) 
C=c1[n-]c(=O)[n-]c1=Cc1c([O-])[n-]c2cc([N-]C(=O)c3ccccc3F)ccc12 (protonated)
C=c1[n-]c(=O)[n-]/c1=C/c1c([O-])[n-]c2cc([N-]C(=O)c3ccccc3F)ccc12 (cis-trans isomerization)
C=c1[n-]c(=O)[n-]/c1=C/c1c([O-])[n-]c2cc([N-]C(=O)c3ccccc3F)ccc12 (3D coordinates assigned)
C=c1[n-]c(=O)[n-]/c1=C/c1c([O-])[n-]c2cc([N-]C(=O)c3ccccc3F)ccc12 (optimized conformer: 122.02421796737359 kcal/mol)

>  <smiles>  (84) 
C=c1[nH]c(=O)[nH]c1=Cc1c(O)[nH]c2cc(NC(=O)c3ccccc3F)ccc12

>  <score_type>  (84) 
oracle

>  <origin>  (84) 
adg

>  <m_score__min__energy>  (84) 
-18.010000000000002

>  <m_primary>  (84) 
energy

$$$$
84:0
     RDKit          3D

 53 56  0  0  0  0  0  0  0  0999 V2000
   55.3070   26.1160   45.9850 O   0  0  0  0  0  0  0  0  0  0  0  0
   56.5410   25.9360   45.7960 C   0  0  0  0  0  0  0  0  0  0  0  0
   57.5010   26.2310   46.9020 C   0  0  0  0  0  0  0  0  0  0  0  0
   58.0170   27.5860   46.7520 N   0  0  0  0  0  0  0  0  0  0  0  0
   58.6100   28.1050   45.5550 C   0  0  0  0  0  0  0  0  0  0  0  0
   59.5630   27.4730   45.0270 O   0  0  0  0  0  0  0  0  0  0  0  0
   58.1680   29.3760   44.9460 C   0  0  0  0  0  0  0  0  0  0  0  0
   57.4150   29.3790   43.7620 C   0  0  0  0  0  0  0  0  0  0  0  0
   57.0180   30.5880   43.1840 C   0  0  0  0  0  0  0  0  0  0  0  0
   57.3770   31.8000   43.7780 C   0  0  0  0  0  0  0  0  0  0  0  0
   58.1410   31.8100   44.9510 C   0  0  0  0  0  0  0  0  0  0  0  0
   58.6140   33.3490   45.6690 S   0  0  0  0  0  0  0  0  0  0  0  0
   59.5210   34.0440   44.6900 O   0  0  0  0  0  0  0  0  0  0  0  0
   57.4030   34.2080   45.9060 O   0  0  0  0  0  0  0  0  0  0  0  0
   59.4460   33.1000   47.1830 N   0  0  0  0  0  0  0  0  0  0  0  0
   58.6910   32.7260   48.3820 C   0  0  0  0  0  0  0  0  0  0  0  0
   59.2570   31.4220   48.9410 C   0  0  0  0  0  0  0  0  0  0  0  0
   60.7340   31.6010   49.3200 C   0  0  0  0  0  0  0  0  0  0  0  0
   61.5310   32.3360   48.2650 C   0  0  0  0  0  0  0  0  0  0  0  0
   62.9330   32.3290   48.3400 C   0  0  0  0  0  0  0  0  0  0  0  0
   63.6940   33.0630   47.4290 C   0  0  0  0  0  0  0  0  0  0  0  0
   63.0630   33.8300   46.4480 C   0  0  0  0  0  0  0  0  0  0  0  0
   61.6680   33.8580   46.3670 C   0  0  0  0  0  0  0  0  0  0  0  0
   60.8870   33.1010   47.2610 C   0  0  0  0  0  0  0  0  0  0  0  0
   58.5460   30.5960   45.5260 C   0  0  0  0  0  0  0  0  0  0  0  0
   57.0310   25.3330   44.5870 N   0  0  0  0  0  0  0  0  0  0  0  0
   57.1730   24.0680   44.2920 C   0  0  0  0  0  0  0  0  0  0  0  0
   58.1200   23.3260   45.0120 C   0  0  0  0  0  0  0  0  0  0  0  0
   58.3070   21.9720   44.7280 C   0  0  0  0  0  0  0  0  0  0  0  0
   57.5800   21.3710   43.7480 N   0  0  0  0  0  0  0  0  0  0  0  0
   56.6670   22.0660   43.0180 C   0  0  0  0  0  0  0  0  0  0  0  0
   56.4480   23.4240   43.2670 C   0  0  0  0  0  0  0  0  0  0  0  0
   56.9846   26.1407   47.8690 H   0  0  0  0  0  0  0  0  0  0  0  0
   58.3355   25.5154   46.8625 H   0  0  0  0  0  0  0  0  0  0  0  0
   57.1362   28.4267   43.2872 H   0  0  0  0  0  0  0  0  0  0  0  0
   56.4217   30.5850   42.2596 H   0  0  0  0  0  0  0  0  0  0  0  0
   57.0585   32.7494   43.3228 H   0  0  0  0  0  0  0  0  0  0  0  0
   58.7813   33.5207   49.1372 H   0  0  0  0  0  0  0  0  0  0  0  0
   57.6301   32.5901   48.1251 H   0  0  0  0  0  0  0  0  0  0  0  0
   58.6855   31.1323   49.8351 H   0  0  0  0  0  0  0  0  0  0  0  0
   59.1773   30.6390   48.1725 H   0  0  0  0  0  0  0  0  0  0  0  0
   60.7881   32.1702   50.2598 H   0  0  0  0  0  0  0  0  0  0  0  0
   61.1712   30.5968   49.4219 H   0  0  0  0  0  0  0  0  0  0  0  0
   63.4351   31.7409   49.1223 H   0  0  0  0  0  0  0  0  0  0  0  0
   64.7923   33.0371   47.4840 H   0  0  0  0  0  0  0  0  0  0  0  0
   63.6655   34.4140   45.7367 H   0  0  0  0  0  0  0  0  0  0  0  0
   61.1773   34.4753   45.6001 H   0  0  0  0  0  0  0  0  0  0  0  0
   59.1632   30.6009   46.4365 H   0  0  0  0  0  0  0  0  0  0  0  0
   58.7152   23.8104   45.8001 H   0  0  0  0  0  0  0  0  0  0  0  0
   59.0449   21.3891   45.2988 H   0  0  0  0  0  0  0  0  0  0  0  0
   57.7320   20.3570   43.5470 H   0  0  0  0  0  0  0  0  0  0  0  0
   56.0974   21.5565   42.2268 H   0  0  0  0  0  0  0  0  0  0  0  0
   55.7161   23.9862   42.6685 H   0  0  0  0  0  0  0  0  0  0  0  0
  1  2  2  0
  2  3  1  0
  3  4  1  0
  4  5  1  0
  5  6  2  0
  5  7  1  0
  7  8  2  0
  8  9  1  0
  9 10  2  0
 10 11  1  0
 11 12  1  0
 12 13  2  0
 12 14  2  0
 12 15  1  0
 15 16  1  0
 16 17  1  0
 17 18  1  0
 18 19  1  0
 19 20  2  0
 20 21  1  0
 21 22  2  0
 22 23  1  0
 23 24  2  0
 11 25  2  0
  2 26  1  0
 26 27  2  3
 27 28  1  0
 28 29  2  0
 29 30  1  0
 30 31  1  0
 31 32  2  0
 25  7  1  0
 32 27  1  0
 24 15  1  0
 24 19  1  0
  3 33  1  0
  3 34  1  0
  8 35  1  0
  9 36  1  0
 10 37  1  0
 16 38  1  0
 16 39  1  0
 17 40  1  0
 17 41  1  0
 18 42  1  0
 18 43  1  0
 20 44  1  0
 21 45  1  0
 22 46  1  0
 23 47  1  0
 25 48  1  0
 28 49  1  0
 29 50  1  0
 30 51  1  0
 31 52  1  0
 32 53  1  0
M  CHG  1   4  -1
M  END
>  <UniqueID>  (85) 
81

>  <SMILES>  (85) 
O=C(C[N-]C(=O)c1cccc(S(=O)(=O)N2CCCc3ccccc32)c1)N=c1cc[nH]cc1

>  <Energy>  (85) 
71.02859921729637

>  <Genealogy>  (85) 
O=C(C[N-]C(=O)c1cccc(S(=O)(=O)N2CCCc3ccccc32)c1)N=c1cc[nH]cc1 (protonated)
O=C(C[N-]C(=O)c1cccc(S(=O)(=O)N2CCCc3ccccc32)c1)N=c1cc[nH]cc1 (3D coordinates assigned)
O=C(C[N-]C(=O)c1cccc(S(=O)(=O)N2CCCc3ccccc32)c1)N=c1cc[nH]cc1 (nonaromatic ring conformer: 71.02859921729637 kcal/mol)

>  <smiles>  (85) 
O=C(CNC(=O)c1cccc(S(=O)(=O)N2CCCc3ccccc32)c1)N=c1cc[nH]cc1

>  <score_type>  (85) 
oracle

>  <origin>  (85) 
adg

>  <m_score__min__energy>  (85) 
-12.73

>  <m_primary>  (85) 
energy

$$$$
85:0
     RDKit          3D

 40 42  0  0  0  0  0  0  0  0999 V2000
   55.1470   29.3540   44.8620 N   0  0  0  0  0  0  0  0  0  0  0  0
   56.7520   29.6570   44.3010 S   0  0  0  0  0  0  0  0  0  0  0  0
   56.7120   30.0290   42.8460 O   0  0  0  0  0  0  0  0  0  0  0  0
   57.5830   28.4140   44.4570 O   0  0  0  0  0  0  0  0  0  0  0  0
   57.4620   30.9710   45.2330 C   0  0  0  0  0  0  0  0  0  0  0  0
   57.0480   32.2930   45.0170 C   0  0  0  0  0  0  0  0  0  0  0  0
   57.5990   33.3340   45.7690 C   0  0  0  0  0  0  0  0  0  0  0  0
   58.5590   33.0640   46.7580 C   0  0  0  0  0  0  0  0  0  0  0  0
   59.1460   34.1820   47.5790 C   0  0  0  0  0  0  0  0  0  0  0  0
   60.0810   33.6770   48.5350 O   0  0  0  0  0  0  0  0  0  0  0  0
   59.7730   33.2920   49.8500 C   0  0  0  0  0  0  0  0  0  0  0  0
   60.5770   33.7770   50.8860 C   0  0  0  0  0  0  0  0  0  0  0  0
   60.3210   33.4140   52.2090 C   0  0  0  0  0  0  0  0  0  0  0  0
   59.2600   32.5570   52.5100 C   0  0  0  0  0  0  0  0  0  0  0  0
   58.4390   32.0550   51.4860 C   0  0  0  0  0  0  0  0  0  0  0  0
   57.3250   31.1300   51.8170 C   0  0  0  0  0  0  0  0  0  0  0  0
   56.0520   31.4760   52.2340 C   0  0  0  0  0  0  0  0  0  0  0  0
   55.4070   30.2640   52.3860 C   0  0  0  0  0  0  0  0  0  0  0  0
   54.0140   30.0480   52.8110 C   0  0  0  0  0  0  0  0  0  0  0  0
   53.3250   28.8290   52.5230 N   0  0  0  0  0  0  0  0  0  0  0  0
   53.4140   30.9580   53.4430 O   0  0  0  0  0  0  0  0  0  0  0  0
   56.2520   29.2620   52.0760 N   0  0  0  0  0  0  0  0  0  0  0  0
   57.4160   29.7880   51.7280 N   0  0  0  0  0  0  0  0  0  0  0  0
   58.6940   32.4400   50.1570 C   0  0  0  0  0  0  0  0  0  0  0  0
   58.9770   31.7410   46.9660 C   0  0  0  0  0  0  0  0  0  0  0  0
   58.4270   30.7000   46.2130 C   0  0  0  0  0  0  0  0  0  0  0  0
   55.2200   28.6440   45.6260 H   0  0  0  0  0  0  0  0  0  0  0  0
   56.2871   32.5114   44.2532 H   0  0  0  0  0  0  0  0  0  0  0  0
   57.2792   34.3703   45.5854 H   0  0  0  0  0  0  0  0  0  0  0  0
   59.6605   34.8879   46.9104 H   0  0  0  0  0  0  0  0  0  0  0  0
   58.3310   34.6873   48.1179 H   0  0  0  0  0  0  0  0  0  0  0  0
   61.4170   34.4492   50.6567 H   0  0  0  0  0  0  0  0  0  0  0  0
   60.9569   33.8041   53.0174 H   0  0  0  0  0  0  0  0  0  0  0  0
   59.0659   32.2733   53.5549 H   0  0  0  0  0  0  0  0  0  0  0  0
   55.6468   32.4842   52.4051 H   0  0  0  0  0  0  0  0  0  0  0  0
   52.3380   28.7010   52.8350 H   0  0  0  0  0  0  0  0  0  0  0  0
   53.7840   28.0490   52.0040 H   0  0  0  0  0  0  0  0  0  0  0  0
   58.0442   32.0719   49.3494 H   0  0  0  0  0  0  0  0  0  0  0  0
   59.7417   31.5219   47.7258 H   0  0  0  0  0  0  0  0  0  0  0  0
   58.7525   29.6643   46.3900 H   0  0  0  0  0  0  0  0  0  0  0  0
  1  2  1  0
  2  3  2  0
  2  4  2  0
  2  5  1  0
  5  6  2  0
  6  7  1  0
  7  8  2  0
  8  9  1  0
  9 10  1  0
 10 11  1  0
 11 12  2  0
 12 13  1  0
 13 14  2  0
 14 15  1  0
 15 16  1  0
 16 17  2  0
 17 18  1  0
 18 19  1  0
 19 20  1  0
 19 21  2  0
 18 22  2  0
 22 23  1  0
 15 24  2  0
  8 25  1  0
 25 26  2  0
 26  5  1  0
 24 11  1  0
 23 16  1  0
  1 27  1  0
  6 28  1  0
  7 29  1  0
  9 30  1  0
  9 31  1  0
 12 32  1  0
 13 33  1  0
 14 34  1  0
 17 35  1  0
 20 36  1  0
 20 37  1  0
 24 38  1  0
 25 39  1  0
 26 40  1  0
M  CHG  2   1  -1  23  -1
M  END
>  <UniqueID>  (86) 
82

>  <SMILES>  (86) 
[NH-]S(=O)(=O)c1ccc(COc2cccc(-c3cc(C(N)=O)n[n-]3)c2)cc1

>  <Energy>  (86) 
70.46036921089365

>  <Genealogy>  (86) 
[NH-]S(=O)(=O)c1ccc(COc2cccc(-c3cc(C(N)=O)n[n-]3)c2)cc1 (protonated)
[NH-]S(=O)(=O)c1ccc(COc2cccc(-c3cc(C(N)=O)n[n-]3)c2)cc1 (3D coordinates assigned)
[NH-]S(=O)(=O)c1ccc(COc2cccc(-c3cc(C(N)=O)n[n-]3)c2)cc1 (optimized conformer: 70.46036921089365 kcal/mol)

>  <smiles>  (86) 
NC(=O)c1cc(-c2cccc(OCc3ccc(S(N)(=O)=O)cc3)c2)[nH]n1

>  <score_type>  (86) 
oracle

>  <origin>  (86) 
adg

>  <m_score__min__energy>  (86) 
-12.09

>  <m_primary>  (86) 
energy

$$$$
86:0
     RDKit          3D

 54 57  0  0  0  0  0  0  0  0999 V2000
   59.2516   30.3646   48.1671 H   0  0  0  0  0  0  0  0  0  0  0  0
   58.8980   29.3690   47.8610 C   0  0  0  0  0  0  0  0  0  0  0  0
   59.0672   28.5004   48.5143 H   0  0  0  0  0  0  0  0  0  0  0  0
   58.2600   29.2140   46.6900 C   0  0  0  0  0  0  0  0  0  0  0  0
   57.7470   28.0210   46.1510 C   0  0  0  0  0  0  0  0  0  0  0  0
   57.5810   26.8020   46.7030 C   0  0  0  0  0  0  0  0  0  0  0  0
   57.9323   26.6636   47.7362 H   0  0  0  0  0  0  0  0  0  0  0  0
   56.9660   25.6370   46.0340 C   0  0  0  0  0  0  0  0  0  0  0  0
   55.6010   25.6230   45.7020 C   0  0  0  0  0  0  0  0  0  0  0  0
   54.7840   26.7110   45.9980 O   0  0  0  0  0  0  0  0  0  0  0  0
   55.0670   24.5400   45.0790 N   0  0  0  0  0  0  0  0  0  0  0  0
   55.8370   23.4730   44.7460 C   0  0  0  0  0  0  0  0  0  0  0  0
   55.3200   22.4750   44.1800 O   0  0  0  0  0  0  0  0  0  0  0  0
   57.1670   23.4830   45.0150 N   0  0  0  0  0  0  0  0  0  0  0  0
   57.7480   24.5410   45.6380 C   0  0  0  0  0  0  0  0  0  0  0  0
   58.9870   24.5250   45.8560 O   0  0  0  0  0  0  0  0  0  0  0  0
   57.3780   28.3110   44.8480 C   0  0  0  0  0  0  0  0  0  0  0  0
   56.9780   27.6030   44.1072 H   0  0  0  0  0  0  0  0  0  0  0  0
   57.6080   29.6570   44.6570 C   0  0  0  0  0  0  0  0  0  0  0  0
   57.3300   30.3930   43.3810 C   0  0  0  0  0  0  0  0  0  0  0  0
   56.9501   31.3989   43.6132 H   0  0  0  0  0  0  0  0  0  0  0  0
   58.2582   30.4775   42.7967 H   0  0  0  0  0  0  0  0  0  0  0  0
   56.5778   29.8428   42.7967 H   0  0  0  0  0  0  0  0  0  0  0  0
   58.1410   30.2060   45.7700 N   0  0  0  0  0  0  0  0  0  0  0  0
   58.5140   31.5870   45.9320 C   0  0  0  0  0  0  0  0  0  0  0  0
   57.7170   32.6020   45.3960 C   0  0  0  0  0  0  0  0  0  0  0  0
   56.7882   32.3460   44.8652 H   0  0  0  0  0  0  0  0  0  0  0  0
   58.0940   33.9390   45.5310 C   0  0  0  0  0  0  0  0  0  0  0  0
   57.4608   34.7297   45.1022 H   0  0  0  0  0  0  0  0  0  0  0  0
   59.2740   34.2840   46.2090 C   0  0  0  0  0  0  0  0  0  0  0  0
   59.6460   35.7390   46.3340 C   0  0  0  0  0  0  0  0  0  0  0  0
   59.7152   36.0097   47.3979 H   0  0  0  0  0  0  0  0  0  0  0  0
   60.6173   35.9122   45.8477 H   0  0  0  0  0  0  0  0  0  0  0  0
   58.8770   36.3572   45.8477 H   0  0  0  0  0  0  0  0  0  0  0  0
   60.0910   33.2590   46.7460 C   0  0  0  0  0  0  0  0  0  0  0  0
   61.3650   33.5620   47.4390 C   0  0  0  0  0  0  0  0  0  0  0  0
   61.4170   34.5630   48.2070 O   0  0  0  0  0  0  0  0  0  0  0  0
   62.5310   32.7150   47.2550 N   0  0  0  0  0  0  0  0  0  0  0  0
   62.6170   32.5040   46.2320 H   0  0  0  0  0  0  0  0  0  0  0  0
   62.3720   31.4090   47.9460 C   0  0  0  0  0  0  0  0  0  0  0  0
   61.2996   31.2248   48.1073 H   0  0  0  0  0  0  0  0  0  0  0  0
   62.8264   30.6380   47.3063 H   0  0  0  0  0  0  0  0  0  0  0  0
   63.0900   31.3640   49.3090 C   0  0  0  0  0  0  0  0  0  0  0  0
   62.5748   30.6487   49.9670 H   0  0  0  0  0  0  0  0  0  0  0  0
   64.1327   31.0500   49.1537 H   0  0  0  0  0  0  0  0  0  0  0  0
   63.0800   32.6390   49.9100 O   0  0  0  0  0  0  0  0  0  0  0  0
   63.9290   33.5200   49.1930 C   0  0  0  0  0  0  0  0  0  0  0  0
   63.6976   34.5512   49.4980 H   0  0  0  0  0  0  0  0  0  0  0  0
   64.9645   33.2359   49.4316 H   0  0  0  0  0  0  0  0  0  0  0  0
   63.7720   33.4170   47.6540 C   0  0  0  0  0  0  0  0  0  0  0  0
   63.7532   34.4330   47.2328 H   0  0  0  0  0  0  0  0  0  0  0  0
   64.6227   32.8349   47.2701 H   0  0  0  0  0  0  0  0  0  0  0  0
   59.6930   31.9190   46.6110 C   0  0  0  0  0  0  0  0  0  0  0  0
   60.3144   31.1210   47.0435 H   0  0  0  0  0  0  0  0  0  0  0  0
  1  2  1  0
  2  3  1  0
  2  4  2  0
  4  5  1  0
  5  6  2  0
  6  7  1  0
  6  8  1  0
  8  9  2  0
  9 10  1  0
  9 11  1  0
 11 12  1  0
 12 13  2  0
 12 14  1  0
 14 15  1  0
 15 16  2  0
  5 17  1  0
 17 18  1  0
 17 19  2  0
 19 20  1  0
 20 21  1  0
 20 22  1  0
 20 23  1  0
 19 24  1  0
 24 25  1  0
 25 26  2  0
 26 27  1  0
 26 28  1  0
 28 29  1  0
 28 30  2  0
 30 31  1  0
 31 32  1  0
 31 33  1  0
 31 34  1  0
 30 35  1  0
 35 36  1  0
 36 37  2  0
 36 38  1  0
 38 39  1  0
 38 40  1  0
 40 41  1  0
 40 42  1  0
 40 43  1  0
 43 44  1  0
 43 45  1  0
 43 46  1  0
 46 47  1  0
 47 48  1  0
 47 49  1  0
 47 50  1  0
 50 51  1  0
 50 52  1  0
 35 53  2  0
 53 54  1  0
 24  4  1  0
 53 25  1  0
 15  8  1  0
 50 38  1  0
M  CHG  4  10  -1  11  -1  14  -1  38   1
M  END
>  <UniqueID>  (87) 
83

>  <SMILES>  (87) 
C=c1/c(=C\c2c([O-])[n-]c(=O)[n-]c2=O)cc(C)n1-c1ccc(C)c(C(=O)[NH+]2CCOCC2)c1

>  <Energy>  (87) 
125.30548730445801

>  <Genealogy>  (87) 
C=c1c(=Cc2c([O-])[n-]c(=O)[n-]c2=O)cc(C)n1-c1ccc(C)c(C(=O)[NH+]2CCOCC2)c1 (protonated)
C=c1/c(=C\c2c([O-])[n-]c(=O)[n-]c2=O)cc(C)n1-c1ccc(C)c(C(=O)[NH+]2CCOCC2)c1 (cis-trans isomerization)
C=c1/c(=C\c2c([O-])[n-]c(=O)[n-]c2=O)cc(C)n1-c1ccc(C)c(C(=O)[NH+]2CCOCC2)c1 (3D coordinates assigned)
C=c1/c(=C\c2c([O-])[n-]c(=O)[n-]c2=O)cc(C)n1-c1ccc(C)c(C(=O)[NH+]2CCOCC2)c1 (nonaromatic ring conformer: 125.30548730445801 kcal/mol)

>  <smiles>  (87) 
C=c1c(=Cc2c(O)[nH]c(=O)[nH]c2=O)cc(C)n1-c1ccc(C)c(C(=O)N2CCOCC2)c1

>  <score_type>  (87) 
oracle

>  <origin>  (87) 
adg

>  <m_score__min__energy>  (87) 
-15.75

>  <m_primary>  (87) 
energy

$$$$
87:0
     RDKit          3D

 61 64  0  0  0  0  0  0  0  0999 V2000
   57.5930   34.1140   45.5450 C   0  0  0  0  0  0  0  0  0  0  0  0
   58.9360   33.5370   45.8500 C   0  0  0  0  0  0  0  0  0  0  0  0
   60.0510   34.2760   45.9960 N   0  0  0  0  0  0  0  0  0  0  0  0
   61.0340   33.4510   46.3250 N   0  0  0  0  0  0  0  0  0  0  0  0
   62.3590   33.9010   46.7460 C   0  0  0  0  0  0  0  0  0  0  0  0
   63.0150   32.8880   47.6490 C   0  0  0  0  0  0  0  0  0  0  0  0
   63.3710   31.7780   47.1620 O   0  0  0  0  0  0  0  0  0  0  0  0
   63.2160   33.1580   49.0450 N   0  0  0  0  0  0  0  0  0  0  0  0
   63.9300   32.2610   49.9030 C   0  0  0  0  0  0  0  0  0  0  0  0
   65.2990   32.4720   50.1250 C   0  0  0  0  0  0  0  0  0  0  0  0
   66.0320   31.5790   50.9070 C   0  0  0  0  0  0  0  0  0  0  0  0
   65.4060   30.4690   51.4730 C   0  0  0  0  0  0  0  0  0  0  0  0
   64.0420   30.2500   51.2650 C   0  0  0  0  0  0  0  0  0  0  0  0
   63.2830   31.1430   50.4830 C   0  0  0  0  0  0  0  0  0  0  0  0
   61.7970   30.9270   50.2940 C   0  0  0  0  0  0  0  0  0  0  0  0
   61.3560   29.9340   51.1440 F   0  0  0  0  0  0  0  0  0  0  0  0
   61.0740   32.0780   50.5570 F   0  0  0  0  0  0  0  0  0  0  0  0
   61.5450   30.5490   48.9880 F   0  0  0  0  0  0  0  0  0  0  0  0
   60.5750   32.1850   46.3920 C   0  0  0  0  0  0  0  0  0  0  0  0
   59.2270   32.2080   46.1060 C   0  0  0  0  0  0  0  0  0  0  0  0
   58.2860   31.0850   46.2270 C   0  0  0  0  0  0  0  0  0  0  0  0
   57.2220   31.0880   45.5510 O   0  0  0  0  0  0  0  0  0  0  0  0
   58.5530   29.9980   47.1190 N   0  0  0  0  0  0  0  0  0  0  0  0
   58.2530   28.6260   46.8210 C   0  0  0  0  0  0  0  0  0  0  0  0
   57.3740   28.3260   45.7740 C   0  0  0  0  0  0  0  0  0  0  0  0
   57.0630   26.9960   45.4740 C   0  0  0  0  0  0  0  0  0  0  0  0
   57.6560   25.9490   46.1960 C   0  0  0  0  0  0  0  0  0  0  0  0
   57.2530   24.2670   45.8290 S   0  0  0  0  0  0  0  0  0  0  0  0
   55.7560   24.1440   45.7830 O   0  0  0  0  0  0  0  0  0  0  0  0
   57.7490   23.4060   46.9590 O   0  0  0  0  0  0  0  0  0  0  0  0
   57.9020   23.7030   44.2920 N   0  0  0  0  0  0  0  0  0  0  0  0
   57.0220   24.0140   43.1520 C   0  0  0  0  0  0  0  0  0  0  0  0
   55.8590   23.0060   43.0180 C   0  0  0  0  0  0  0  0  0  0  0  0
   55.8330   22.0810   44.0850 O   0  0  0  0  0  0  0  0  0  0  0  0
   57.0440   21.3530   44.1190 C   0  0  0  0  0  0  0  0  0  0  0  0
   58.2690   22.2770   44.3030 C   0  0  0  0  0  0  0  0  0  0  0  0
   58.5540   26.2480   47.2280 C   0  0  0  0  0  0  0  0  0  0  0  0
   58.8580   27.5770   47.5350 C   0  0  0  0  0  0  0  0  0  0  0  0
   57.0686   34.3393   46.4853 H   0  0  0  0  0  0  0  0  0  0  0  0
   57.7151   35.0391   44.9625 H   0  0  0  0  0  0  0  0  0  0  0  0
   57.0060   33.3887   44.9625 H   0  0  0  0  0  0  0  0  0  0  0  0
   62.9878   34.0490   45.8556 H   0  0  0  0  0  0  0  0  0  0  0  0
   62.2474   34.8437   47.3017 H   0  0  0  0  0  0  0  0  0  0  0  0
   62.9230   34.0750   49.4450 H   0  0  0  0  0  0  0  0  0  0  0  0
   65.7971   33.3461   49.6802 H   0  0  0  0  0  0  0  0  0  0  0  0
   67.1051   31.7507   51.0773 H   0  0  0  0  0  0  0  0  0  0  0  0
   65.9877   29.7639   52.0849 H   0  0  0  0  0  0  0  0  0  0  0  0
   63.5561   29.3722   51.7160 H   0  0  0  0  0  0  0  0  0  0  0  0
   61.1708   31.2921   46.6323 H   0  0  0  0  0  0  0  0  0  0  0  0
   56.9260   29.1397   45.1847 H   0  0  0  0  0  0  0  0  0  0  0  0
   56.3498   26.7694   44.6678 H   0  0  0  0  0  0  0  0  0  0  0  0
   56.6029   25.0212   43.2930 H   0  0  0  0  0  0  0  0  0  0  0  0
   57.6259   23.9554   42.2345 H   0  0  0  0  0  0  0  0  0  0  0  0
   54.9088   23.5601   43.0055 H   0  0  0  0  0  0  0  0  0  0  0  0
   56.0044   22.4427   42.0844 H   0  0  0  0  0  0  0  0  0  0  0  0
   57.0071   20.6409   44.9566 H   0  0  0  0  0  0  0  0  0  0  0  0
   57.1537   20.8302   43.1574 H   0  0  0  0  0  0  0  0  0  0  0  0
   58.7472   22.0425   45.2655 H   0  0  0  0  0  0  0  0  0  0  0  0
   58.9530   22.0998   43.4599 H   0  0  0  0  0  0  0  0  0  0  0  0
   59.0222   25.4331   47.7996 H   0  0  0  0  0  0  0  0  0  0  0  0
   59.5739   27.8033   48.3389 H   0  0  0  0  0  0  0  0  0  0  0  0
  1  2  1  0
  2  3  2  0
  3  4  1  0
  4  5  1  0
  5  6  1  0
  6  7  2  0
  6  8  1  0
  8  9  1  0
  9 10  2  0
 10 11  1  0
 11 12  2  0
 12 13  1  0
 13 14  2  0
 14 15  1  0
 15 16  1  0
 15 17  1  0
 15 18  1  0
  4 19  1  0
 19 20  2  0
 20 21  1  0
 21 22  2  0
 21 23  1  0
 23 24  1  0
 24 25  2  0
 25 26  1  0
 26 27  2  0
 27 28  1  0
 28 29  2  0
 28 30  2  0
 28 31  1  0
 31 32  1  0
 32 33  1  0
 33 34  1  0
 34 35  1  0
 35 36  1  0
 27 37  1  0
 37 38  2  0
 20  2  1  0
 38 24  1  0
 14  9  1  0
 36 31  1  0
  1 39  1  0
  1 40  1  0
  1 41  1  0
  5 42  1  0
  5 43  1  0
  8 44  1  0
 10 45  1  0
 11 46  1  0
 12 47  1  0
 13 48  1  0
 19 49  1  0
 25 50  1  0
 26 51  1  0
 32 52  1  0
 32 53  1  0
 33 54  1  0
 33 55  1  0
 35 56  1  0
 35 57  1  0
 36 58  1  0
 36 59  1  0
 37 60  1  0
 38 61  1  0
M  CHG  1  23  -1
M  END
>  <UniqueID>  (88) 
84

>  <SMILES>  (88) 
Cc1nn(CC(=O)Nc2ccccc2C(F)(F)F)cc1C(=O)[N-]c1ccc(S(=O)(=O)N2CCOCC2)cc1

>  <Energy>  (88) 
115.60042609954814

>  <Genealogy>  (88) 
Cc1nn(CC(=O)Nc2ccccc2C(F)(F)F)cc1C(=O)[N-]c1ccc(S(=O)(=O)N2CCOCC2)cc1 (protonated)
Cc1nn(CC(=O)Nc2ccccc2C(F)(F)F)cc1C(=O)[N-]c1ccc(S(=O)(=O)N2CCOCC2)cc1 (3D coordinates assigned)
Cc1nn(CC(=O)Nc2ccccc2C(F)(F)F)cc1C(=O)[N-]c1ccc(S(=O)(=O)N2CCOCC2)cc1 (nonaromatic ring conformer: 115.60042609954814 kcal/mol)

>  <smiles>  (88) 
Cc1nn(CC(=O)Nc2ccccc2C(F)(F)F)cc1C(=O)Nc1ccc(S(=O)(=O)N2CCOCC2)cc1

>  <score_type>  (88) 
oracle

>  <origin>  (88) 
adg

>  <m_score__min__energy>  (88) 
-11.619999999999999

>  <m_primary>  (88) 
energy

$$$$
88:0
     RDKit          3D

 43 45  0  0  0  0  0  0  0  0999 V2000
   61.1550   30.3950   51.7510 N   0  0  0  0  0  0  0  0  0  0  0  0
   60.9410   31.0380   50.4880 C   0  0  0  0  0  0  0  0  0  0  0  0
   61.2630   32.2910   50.3510 N   0  0  0  0  0  0  0  0  0  0  0  0
   60.3410   30.2800   49.3590 C   0  0  0  0  0  0  0  0  0  0  0  0
   61.0330   29.2010   48.7790 C   0  0  0  0  0  0  0  0  0  0  0  0
   60.4750   28.4900   47.7120 C   0  0  0  0  0  0  0  0  0  0  0  0
   59.2140   28.8370   47.2140 C   0  0  0  0  0  0  0  0  0  0  0  0
   58.5530   27.9660   45.8310 S   0  0  0  0  0  0  0  0  0  0  0  0
   59.2650   28.4310   44.5910 O   0  0  0  0  0  0  0  0  0  0  0  0
   58.7630   26.4850   45.9820 O   0  0  0  0  0  0  0  0  0  0  0  0
   56.8570   28.2980   45.6690 N   0  0  0  0  0  0  0  0  0  0  0  0
   56.3130   29.3450   44.8570 C   0  0  0  0  0  0  0  0  0  0  0  0
   55.1400   29.2300   44.4160 O   0  0  0  0  0  0  0  0  0  0  0  0
   57.0920   30.5380   44.5030 C   0  0  0  0  0  0  0  0  0  0  0  0
   57.0560   31.0610   43.2060 C   0  0  0  0  0  0  0  0  0  0  0  0
   57.7740   32.2240   42.9180 C   0  0  0  0  0  0  0  0  0  0  0  0
   57.7380   32.7150   41.7580 O   0  0  0  0  0  0  0  0  0  0  0  0
   58.5240   32.8450   43.9190 C   0  0  0  0  0  0  0  0  0  0  0  0
   58.5640   32.2810   45.2080 C   0  0  0  0  0  0  0  0  0  0  0  0
   59.3330   32.9080   46.3140 C   0  0  0  0  0  0  0  0  0  0  0  0
   60.6890   32.5750   46.4980 C   0  0  0  0  0  0  0  0  0  0  0  0
   61.4300   33.1580   47.5310 C   0  0  0  0  0  0  0  0  0  0  0  0
   60.8310   34.0810   48.3890 C   0  0  0  0  0  0  0  0  0  0  0  0
   61.5680   34.6550   49.4170 O   0  0  0  0  0  0  0  0  0  0  0  0
   59.4900   34.4300   48.2120 C   0  0  0  0  0  0  0  0  0  0  0  0
   58.7450   33.8520   47.1790 C   0  0  0  0  0  0  0  0  0  0  0  0
   57.8470   31.1490   45.4560 N   0  0  0  0  0  0  0  0  0  0  0  0
   58.5160   29.9050   47.7890 C   0  0  0  0  0  0  0  0  0  0  0  0
   59.0770   30.6280   48.8460 C   0  0  0  0  0  0  0  0  0  0  0  0
   60.9600   29.3790   51.8830 H   0  0  0  0  0  0  0  0  0  0  0  0
   61.5470   30.9260   52.5600 H   0  0  0  0  0  0  0  0  0  0  0  0
   62.1710   32.5640   49.9150 H   0  0  0  0  0  0  0  0  0  0  0  0
   60.6480   33.0600   50.6980 H   0  0  0  0  0  0  0  0  0  0  0  0
   62.0211   28.9143   49.1681 H   0  0  0  0  0  0  0  0  0  0  0  0
   61.0300   27.6537   47.2618 H   0  0  0  0  0  0  0  0  0  0  0  0
   56.4686   30.5617   42.4214 H   0  0  0  0  0  0  0  0  0  0  0  0
   59.0799   33.7689   43.7015 H   0  0  0  0  0  0  0  0  0  0  0  0
   61.1692   31.8505   45.8238 H   0  0  0  0  0  0  0  0  0  0  0  0
   62.4876   32.8882   47.6674 H   0  0  0  0  0  0  0  0  0  0  0  0
   59.0192   35.1606   48.8862 H   0  0  0  0  0  0  0  0  0  0  0  0
   57.6915   34.1367   47.0408 H   0  0  0  0  0  0  0  0  0  0  0  0
   57.5208   30.1770   47.4074 H   0  0  0  0  0  0  0  0  0  0  0  0
   58.5264   31.4755   49.2802 H   0  0  0  0  0  0  0  0  0  0  0  0
  1  2  1  0
  2  3  2  0
  2  4  1  0
  4  5  2  0
  5  6  1  0
  6  7  2  0
  7  8  1  0
  8  9  2  0
  8 10  2  0
  8 11  1  0
 11 12  1  0
 12 13  2  0
 12 14  1  0
 14 15  2  0
 15 16  1  0
 16 17  2  0
 16 18  1  0
 18 19  2  0
 19 20  1  0
 20 21  2  0
 21 22  1  0
 22 23  2  0
 23 24  1  0
 23 25  1  0
 25 26  2  0
 19 27  1  0
  7 28  1  0
 28 29  2  0
 29  4  1  0
 27 14  1  0
 26 20  1  0
  1 30  1  0
  1 31  1  0
  3 32  1  0
  3 33  1  0
  5 34  1  0
  6 35  1  0
 15 36  1  0
 18 37  1  0
 21 38  1  0
 22 39  1  0
 25 40  1  0
 26 41  1  0
 28 42  1  0
 29 43  1  0
M  CHG  4   3   1  11  -1  24  -1  27  -1
M  END
>  <UniqueID>  (89) 
85

>  <SMILES>  (89) 
NC(=[NH2+])c1ccc(S(=O)(=O)[N-]C(=O)c2cc(=O)cc(-c3ccc([O-])cc3)[n-]2)cc1

>  <Energy>  (89) 
55.48681891612078

>  <Genealogy>  (89) 
NC(=[NH2+])c1ccc(S(=O)(=O)[N-]C(=O)c2cc(=O)cc(-c3ccc([O-])cc3)[n-]2)cc1 (protonated)
NC(=[NH2+])c1ccc(S(=O)(=O)[N-]C(=O)c2cc(=O)cc(-c3ccc([O-])cc3)[n-]2)cc1 (3D coordinates assigned)
NC(=[NH2+])c1ccc(S(=O)(=O)[N-]C(=O)c2cc(=O)cc(-c3ccc([O-])cc3)[n-]2)cc1 (optimized conformer: 55.48681891612078 kcal/mol)

>  <smiles>  (89) 
N=C(N)c1ccc(S(=O)(=O)NC(=O)c2cc(=O)cc(-c3ccc(O)cc3)[nH]2)cc1

>  <score_type>  (89) 
oracle

>  <origin>  (89) 
adg

>  <m_score__min__energy>  (89) 
-11.859999999999999

>  <m_primary>  (89) 
energy

$$$$
89:0
     RDKit          3D

 52 55  0  0  1  0  0  0  0  0999 V2000
   60.8790   34.2080   48.7510 C   0  0  0  0  0  0  0  0  0  0  0  0
   59.5060   34.2160   48.1150 C   0  0  0  0  0  0  0  0  0  0  0  0
   59.1760   35.1490   47.3000 O   0  0  0  0  0  0  0  0  0  0  0  0
   58.6490   33.1730   48.4500 N   0  0  0  0  0  0  0  0  0  0  0  0
   58.7990   31.9260   48.3780 C   0  0  0  0  0  0  0  0  0  0  0  0
   59.0750   31.2740   49.5420 N   0  0  0  0  0  0  0  0  0  0  0  0
   59.3560   29.9640   49.5590 C   0  0  0  0  0  0  0  0  0  0  0  0
   59.3620   29.2730   48.3690 C   0  0  0  0  0  0  0  0  0  0  0  0
   59.6360   27.8850   48.3120 N   0  0  0  0  0  0  0  0  0  0  0  0
   59.1300   26.9730   47.3750 C   0  0  0  0  0  0  0  0  0  0  0  0
   57.8220   26.9600   46.9180 C   0  0  0  0  0  0  0  0  0  0  0  0
   57.3800   26.0090   45.9930 C   0  0  0  0  0  0  0  0  0  0  0  0
   58.2240   25.0480   45.5010 C   0  0  0  0  0  0  0  0  0  0  0  0
   57.7310   24.1190   44.5750 N   0  0  0  0  0  0  0  0  0  0  0  0
   57.9500   22.7060   44.8320 C   0  0  0  0  0  0  0  0  0  0  0  0
   57.5800   21.8540   43.6410 C   0  0  0  0  0  0  0  0  0  0  0  0
   56.2480   22.1150   43.1650 N   0  0  0  0  0  0  0  0  0  0  0  0
   55.8550   23.4830   43.2640 C   0  0  0  0  0  0  0  0  0  0  0  0
   57.0090   24.4580   43.3640 C   0  0  0  0  0  0  0  0  0  0  0  0
   59.5280   25.0590   45.9540 C   0  0  0  0  0  0  0  0  0  0  0  0
   59.9550   25.9860   46.8530 C   0  0  0  0  0  0  0  0  0  0  0  0
   59.0790   29.9350   47.1990 C   0  0  0  0  0  0  0  0  0  0  0  0
   58.7780   31.3150   47.1680 C   0  0  0  0  0  0  0  0  0  0  0  0
   58.3060   31.8130   45.9040 C   0  0  0  0  0  0  0  0  0  0  0  0
   58.3040   31.3760   44.6440 N   0  0  0  0  0  0  0  0  0  0  0  0
   57.8750   32.2720   43.7690 C   0  0  0  0  0  0  0  0  0  0  0  0
   57.7550   32.1070   42.3370 C   0  0  0  0  0  0  0  0  0  0  0  0
   57.6770   31.9760   41.1820 N   0  0  0  0  0  0  0  0  0  0  0  0
   57.5720   33.3950   44.5100 C   0  0  0  0  0  0  0  0  0  0  0  0
   57.8350   33.0990   45.7860 N   0  0  0  0  0  0  0  0  0  0  0  0
   60.7758   34.2086   49.8461 H   0  0  0  0  0  0  0  0  0  0  0  0
   61.4244   33.3067   48.4346 H   0  0  0  0  0  0  0  0  0  0  0  0
   61.4349   35.1029   48.4346 H   0  0  0  0  0  0  0  0  0  0  0  0
   59.0720   31.7890   50.4390 H   0  0  0  0  0  0  0  0  0  0  0  0
   59.5777   29.4506   50.5063 H   0  0  0  0  0  0  0  0  0  0  0  0
   60.2900   27.4860   49.0520 H   0  0  0  0  0  0  0  0  0  0  0  0
   57.1149   27.7153   47.2915 H   0  0  0  0  0  0  0  0  0  0  0  0
   56.3340   26.0328   45.6535 H   0  0  0  0  0  0  0  0  0  0  0  0
   59.0130   22.5475   45.0663 H   0  0  0  0  0  0  0  0  0  0  0  0
   57.3099   22.4093   45.6760 H   0  0  0  0  0  0  0  0  0  0  0  0
   58.2911   22.0588   42.8271 H   0  0  0  0  0  0  0  0  0  0  0  0
   57.6191   20.8019   43.9597 H   0  0  0  0  0  0  0  0  0  0  0  0
   56.1980   21.8100   42.1690 H   0  0  0  0  0  0  0  0  0  0  0  0
   55.2657   23.7375   42.3707 H   0  0  0  0  0  0  0  0  0  0  0  0
   55.2806   23.5786   44.1972 H   0  0  0  0  0  0  0  0  0  0  0  0
   57.6675   24.3584   42.4885 H   0  0  0  0  0  0  0  0  0  0  0  0
   56.6501   25.4974   43.3928 H   0  0  0  0  0  0  0  0  0  0  0  0
   60.2352   24.3036   45.5808 H   0  0  0  0  0  0  0  0  0  0  0  0
   61.0040   25.9521   47.1822 H   0  0  0  0  0  0  0  0  0  0  0  0
   59.0870   29.3715   46.2543 H   0  0  0  0  0  0  0  0  0  0  0  0
   57.1876   34.3508   44.1245 H   0  0  0  0  0  0  0  0  0  0  0  0
   57.6940   33.7680   46.5710 H   0  0  0  0  0  0  0  0  0  0  0  0
  1  2  1  0
  2  3  2  0
  2  4  1  0
  4  5  2  0
  5  6  1  0
  6  7  1  0
  7  8  2  0
  8  9  1  0
  9 10  1  0
 10 11  2  0
 11 12  1  0
 12 13  2  0
 13 14  1  0
 14 15  1  0
 15 16  1  0
 16 17  1  0
 17 18  1  0
 18 19  1  0
 13 20  1  0
 20 21  2  0
  8 22  1  0
 22 23  2  0
 23 24  1  0
 24 25  2  0
 25 26  1  0
 26 27  1  0
 27 28  3  0
 26 29  2  0
 29 30  1  0
 23  5  1  0
 30 24  1  0
 21 10  1  0
 19 14  1  0
  1 31  1  0
  1 32  1  0
  1 33  1  0
  6 34  1  0
  7 35  1  0
  9 36  1  0
 11 37  1  0
 12 38  1  0
 15 39  1  0
 15 40  1  0
 16 41  1  0
 16 42  1  0
 17 43  1  0
 18 44  1  0
 18 45  1  0
 19 46  1  0
 19 47  1  0
 20 48  1  0
 21 49  1  0
 22 50  1  0
 29 51  1  0
 30 52  1  0
M  END
>  <smiles>  (90) 
CC(=O)N=c1[nH]cc(Nc2ccc(N3CCNCC3)cc2)cc1-c1nc(C#N)c[nH]1

>  <score_type>  (90) 
oracle

>  <origin>  (90) 
adg

>  <m_score__min__energy>  (90) 
-8.6099999999999994

>  <m_primary>  (90) 
energy

$$$$
90:0
     RDKit          3D

 49 52  0  0  0  0  0  0  0  0999 V2000
   58.7653   31.8475   47.2822 H   0  0  0  0  0  0  0  0  0  0  0  0
   59.7450   32.3470   47.3100 C   0  0  0  0  0  0  0  0  0  0  0  0
   59.9250   33.4650   46.5680 C   0  0  0  0  0  0  0  0  0  0  0  0
   58.7680   34.0330   45.7790 C   0  0  0  0  0  0  0  0  0  0  0  0
   57.9795   34.3553   46.4750 H   0  0  0  0  0  0  0  0  0  0  0  0
   59.1277   34.8886   45.1886 H   0  0  0  0  0  0  0  0  0  0  0  0
   58.2070   32.9980   44.8410 C   0  0  0  0  0  0  0  0  0  0  0  0
   57.3940   31.9630   45.3340 C   0  0  0  0  0  0  0  0  0  0  0  0
   57.1904   31.8930   46.4127 H   0  0  0  0  0  0  0  0  0  0  0  0
   56.8430   31.0220   44.4590 C   0  0  0  0  0  0  0  0  0  0  0  0
   56.2120   30.2107   44.8510 H   0  0  0  0  0  0  0  0  0  0  0  0
   57.0930   31.1110   43.0870 C   0  0  0  0  0  0  0  0  0  0  0  0
   56.5560   30.1980   42.2400 F   0  0  0  0  0  0  0  0  0  0  0  0
   57.8930   32.1420   42.5870 C   0  0  0  0  0  0  0  0  0  0  0  0
   58.0879   32.2118   41.5066 H   0  0  0  0  0  0  0  0  0  0  0  0
   58.4460   33.0850   43.4590 C   0  0  0  0  0  0  0  0  0  0  0  0
   59.0708   33.8984   43.0614 H   0  0  0  0  0  0  0  0  0  0  0  0
   61.2970   34.0820   46.3900 C   0  0  0  0  0  0  0  0  0  0  0  0
   61.6631   33.8391   45.3815 H   0  0  0  0  0  0  0  0  0  0  0  0
   61.1930   35.1672   46.5368 H   0  0  0  0  0  0  0  0  0  0  0  0
   62.3140   33.5750   47.4140 C   0  0  0  0  0  0  0  0  0  0  0  0
   63.3316   33.7815   47.0510 H   0  0  0  0  0  0  0  0  0  0  0  0
   62.1510   34.0889   48.3728 H   0  0  0  0  0  0  0  0  0  0  0  0
   62.1420   32.0690   47.6130 C   0  0  0  0  0  0  0  0  0  0  0  0
   62.2740   31.5565   46.6487 H   0  0  0  0  0  0  0  0  0  0  0  0
   62.8943   31.7108   48.3312 H   0  0  0  0  0  0  0  0  0  0  0  0
   60.7910   31.7810   48.1400 N   0  0  2  0  0  0  0  0  0  0  0  0
   60.7270   32.2250   49.0850 H   0  0  0  0  0  0  0  0  0  0  0  0
   60.5720   30.3560   48.2730 C   0  0  0  0  0  0  0  0  0  0  0  0
   61.0750   29.7220   49.2440 O   0  0  0  0  0  0  0  0  0  0  0  0
   59.8310   29.5950   47.2420 C   0  0  0  0  0  0  0  0  0  0  0  0
   58.5320   29.1410   47.3750 C   0  0  0  0  0  0  0  0  0  0  0  0
   57.8665   29.3016   48.2360 H   0  0  0  0  0  0  0  0  0  0  0  0
   58.2290   28.4450   46.2160 C   0  0  0  0  0  0  0  0  0  0  0  0
   57.0510   27.8210   46.0230 C   0  0  0  0  0  0  0  0  0  0  0  0
   56.2742   28.3735   45.4741 H   0  0  0  0  0  0  0  0  0  0  0  0
   56.7130   26.4660   46.4820 C   0  0  0  0  0  0  0  0  0  0  0  0
   57.6110   25.6120   47.0040 N   0  0  0  0  0  0  0  0  0  0  0  0
   56.9050   24.4700   47.1540 C   0  0  0  0  0  0  0  0  0  0  0  0
   57.4060   23.4230   47.6390 O   0  0  0  0  0  0  0  0  0  0  0  0
   55.6240   24.5350   46.7310 N   0  0  0  0  0  0  0  0  0  0  0  0
   55.5230   25.8000   46.2950 C   0  0  0  0  0  0  0  0  0  0  0  0
   54.3750   26.3260   45.7130 O   0  0  0  0  0  0  0  0  0  0  0  0
   59.3630   28.5510   45.3960 C   0  0  0  0  0  0  0  0  0  0  0  0
   59.5000   28.1750   44.1200 C   0  0  0  0  0  0  0  0  0  0  0  0
   58.6902   27.6245   43.6188 H   0  0  0  0  0  0  0  0  0  0  0  0
   60.4225   28.4162   43.5716 H   0  0  0  0  0  0  0  0  0  0  0  0
   60.3320   29.2270   46.0460 N   0  0  0  0  0  0  0  0  0  0  0  0
   61.2850   29.4420   45.6750 H   0  0  0  0  0  0  0  0  0  0  0  0
  1  2  1  0
  2  3  2  0
  3  4  1  0
  4  5  1  0
  4  6  1  0
  4  7  1  0
  7  8  2  0
  8  9  1  0
  8 10  1  0
 10 11  1  0
 10 12  2  0
 12 13  1  0
 12 14  1  0
 14 15  1  0
 14 16  2  0
 16 17  1  0
  3 18  1  0
 18 19  1  0
 18 20  1  0
 18 21  1  0
 21 22  1  0
 21 23  1  0
 21 24  1  0
 24 25  1  0
 24 26  1  0
 24 27  1  0
 27 28  1  1
 27 29  1  0
 29 30  2  0
 29 31  1  0
 31 32  2  0
 32 33  1  0
 32 34  1  0
 34 35  2  0
 35 36  1  0
 35 37  1  0
 37 38  1  0
 38 39  1  0
 39 40  2  0
 39 41  1  0
 41 42  1  0
 42 43  1  0
 34 44  1  0
 44 45  2  0
 45 46  1  0
 45 47  1  0
 44 48  1  0
 48 49  1  0
 27  2  1  0
 48 31  1  0
 16  7  1  0
 42 37  2  0
M  CHG  4  27   1  38  -1  41  -1  43  -1
M  END
>  <UniqueID>  (91) 
86

>  <SMILES>  (91) 
C=c1[nH]c(C(=O)[N@@H+]2C=C(Cc3ccc(F)cc3)CCC2)c/c1=C/c1[n-]c(=O)[n-]c1[O-]

>  <Energy>  (91) 
122.84118896984643

>  <Genealogy>  (91) 
C=c1[nH]c(C(=O)[NH+]2C=C(Cc3ccc(F)cc3)CCC2)cc1=Cc1[n-]c(=O)[n-]c1[O-] (protonated)
C=c1[nH]c(C(=O)[N@@H+]2C=C(Cc3ccc(F)cc3)CCC2)cc1=Cc1[n-]c(=O)[n-]c1[O-] (chirality)
C=c1[nH]c(C(=O)[N@@H+]2C=C(Cc3ccc(F)cc3)CCC2)c/c1=C/c1[n-]c(=O)[n-]c1[O-] (cis-trans isomerization)
C=c1[nH]c(C(=O)[N@@H+]2C=C(Cc3ccc(F)cc3)CCC2)c/c1=C/c1[n-]c(=O)[n-]c1[O-] (3D coordinates assigned)
C=c1[nH]c(C(=O)[N@@H+]2C=C(Cc3ccc(F)cc3)CCC2)c/c1=C/c1[n-]c(=O)[n-]c1[O-] (nonaromatic ring conformer: 122.84118896984643 kcal/mol)

>  <smiles>  (91) 
C=c1[nH]c(C(=O)N2C=C(Cc3ccc(F)cc3)CCC2)cc1=Cc1[nH]c(=O)[nH]c1O

>  <score_type>  (91) 
oracle

>  <origin>  (91) 
adg

>  <m_score__min__energy>  (91) 
-18.23

>  <m_primary>  (91) 
energy

$$$$
91:0
     RDKit          3D

 41 43  0  0  0  0  0  0  0  0999 V2000
   56.5530   24.0410   48.0610 C   0  0  0  0  0  0  0  0  0  0  0  0
   56.5670   24.6070   46.8540 C   0  0  0  0  0  0  0  0  0  0  0  0
   55.7020   23.7000   45.4050 Br  0  0  0  0  0  0  0  0  0  0  0  0
   57.1850   25.9350   46.6240 C   0  0  0  0  0  0  0  0  0  0  0  0
   58.4960   26.1600   47.0700 C   0  0  0  0  0  0  0  0  0  0  0  0
   59.1130   27.4020   46.8790 C   0  0  0  0  0  0  0  0  0  0  0  0
   60.5360   27.6140   47.3200 C   0  0  0  0  0  0  0  0  0  0  0  0
   60.6210   28.8080   48.2180 C   0  0  0  0  0  0  0  0  0  0  0  0
   60.3110   28.8380   49.5570 C   0  0  0  0  0  0  0  0  0  0  0  0
   60.5780   30.0650   50.0360 N   0  0  0  0  0  0  0  0  0  0  0  0
   61.0510   30.7410   48.9670 C   0  0  0  0  0  0  0  0  0  0  0  0
   61.1020   30.0040   47.8380 N   0  0  0  0  0  0  0  0  0  0  0  0
   58.4220   28.4210   46.2130 C   0  0  0  0  0  0  0  0  0  0  0  0
   57.1040   28.2280   45.7610 C   0  0  0  0  0  0  0  0  0  0  0  0
   56.4050   29.3420   45.0670 C   0  0  0  0  0  0  0  0  0  0  0  0
   55.1560   29.2850   44.8920 O   0  0  0  0  0  0  0  0  0  0  0  0
   57.1290   30.4910   44.6130 N   0  0  0  0  0  0  0  0  0  0  0  0
   56.6450   31.8600   44.7540 C   0  0  0  0  0  0  0  0  0  0  0  0
   57.6760   32.7090   45.4440 C   0  0  0  0  0  0  0  0  0  0  0  0
   58.2130   33.8420   44.8080 C   0  0  0  0  0  0  0  0  0  0  0  0
   59.1890   34.6120   45.4500 C   0  0  0  0  0  0  0  0  0  0  0  0
   59.6390   34.2540   46.7240 C   0  0  0  0  0  0  0  0  0  0  0  0
   59.1150   33.1240   47.3590 C   0  0  0  0  0  0  0  0  0  0  0  0
   58.1390   32.3520   46.7210 C   0  0  0  0  0  0  0  0  0  0  0  0
   56.4790   26.9800   45.9890 C   0  0  0  0  0  0  0  0  0  0  0  0
   55.1500   26.7820   45.6230 O   0  0  0  0  0  0  0  0  0  0  0  0
   57.0427   24.5420   48.9091 H   0  0  0  0  0  0  0  0  0  0  0  0
   56.0518   23.0730   48.2088 H   0  0  0  0  0  0  0  0  0  0  0  0
   59.0450   25.3517   47.5752 H   0  0  0  0  0  0  0  0  0  0  0  0
   60.8854   26.7238   47.8636 H   0  0  0  0  0  0  0  0  0  0  0  0
   61.1671   27.7822   46.4349 H   0  0  0  0  0  0  0  0  0  0  0  0
   59.9102   27.9960   50.1405 H   0  0  0  0  0  0  0  0  0  0  0  0
   61.3654   31.7941   49.0124 H   0  0  0  0  0  0  0  0  0  0  0  0
   58.9174   29.3878   46.0404 H   0  0  0  0  0  0  0  0  0  0  0  0
   56.4398   32.2769   43.7570 H   0  0  0  0  0  0  0  0  0  0  0  0
   55.7247   31.8541   45.3565 H   0  0  0  0  0  0  0  0  0  0  0  0
   57.8650   34.1238   43.8033 H   0  0  0  0  0  0  0  0  0  0  0  0
   59.6029   35.5007   44.9512 H   0  0  0  0  0  0  0  0  0  0  0  0
   60.4057   34.8615   47.2272 H   0  0  0  0  0  0  0  0  0  0  0  0
   59.4706   32.8420   48.3610 H   0  0  0  0  0  0  0  0  0  0  0  0
   57.7320   31.4611   47.2216 H   0  0  0  0  0  0  0  0  0  0  0  0
  1  2  2  0
  2  3  1  0
  2  4  1  0
  4  5  2  0
  5  6  1  0
  6  7  1  0
  7  8  1  0
  8  9  2  0
  9 10  1  0
 10 11  1  0
 11 12  2  0
  6 13  2  0
 13 14  1  0
 14 15  1  0
 15 16  2  0
 15 17  1  0
 17 18  1  0
 18 19  1  0
 19 20  2  0
 20 21  1  0
 21 22  2  0
 22 23  1  0
 23 24  2  0
 14 25  2  0
 25 26  1  0
 25  4  1  0
 12  8  1  0
 24 19  1  0
  1 27  1  0
  1 28  1  0
  5 29  1  0
  7 30  1  0
  7 31  1  0
  9 32  1  0
 11 33  1  0
 13 34  1  0
 18 35  1  0
 18 36  1  0
 20 37  1  0
 21 38  1  0
 22 39  1  0
 23 40  1  0
 24 41  1  0
M  CHG  3  10  -1  17  -1  26  -1
M  END
>  <UniqueID>  (92) 
87

>  <SMILES>  (92) 
C=C(Br)c1cc(Cc2c[n-]cn2)cc(C(=O)[N-]Cc2ccccc2)c1[O-]

>  <Energy>  (92) 
74.26048592573406

>  <Genealogy>  (92) 
C=C(Br)c1cc(Cc2c[n-]cn2)cc(C(=O)[N-]Cc2ccccc2)c1[O-] (protonated)
C=C(Br)c1cc(Cc2c[n-]cn2)cc(C(=O)[N-]Cc2ccccc2)c1[O-] (3D coordinates assigned)
C=C(Br)c1cc(Cc2c[n-]cn2)cc(C(=O)[N-]Cc2ccccc2)c1[O-] (optimized conformer: 74.26048592573406 kcal/mol)

>  <smiles>  (92) 
C=C(Br)c1cc(Cc2c[nH]cn2)cc(C(=O)NCc2ccccc2)c1O

>  <score_type>  (92) 
oracle

>  <origin>  (92) 
adg

>  <m_score__min__energy>  (92) 
-14.59

>  <m_primary>  (92) 
energy

$$$$
92:0
     RDKit          3D

 43 45  0  0  0  0  0  0  0  0999 V2000
   55.1460   27.4890   45.4000 H   0  0  0  0  0  0  0  0  0  0  0  0
   54.9700   26.6920   45.9990 O   0  0  0  0  0  0  0  0  0  0  0  0
   55.9830   25.7990   46.3350 C   0  0  0  0  0  0  0  0  0  0  0  0
   55.8420   24.8330   47.2580 N   0  0  0  0  0  0  0  0  0  0  0  0
   57.0580   24.2460   47.2630 C   0  0  0  0  0  0  0  0  0  0  0  0
   57.3400   23.2780   48.0160 O   0  0  0  0  0  0  0  0  0  0  0  0
   57.9500   24.7850   46.4070 N   0  0  0  0  0  0  0  0  0  0  0  0
   57.2500   25.7610   45.7970 C   0  0  0  0  0  0  0  0  0  0  0  0
   57.8280   26.7420   44.8620 C   0  0  0  0  0  0  0  0  0  0  0  0
   58.5356   26.3618   44.1105 H   0  0  0  0  0  0  0  0  0  0  0  0
   57.5670   28.0610   44.8460 C   0  0  0  0  0  0  0  0  0  0  0  0
   56.2950   28.5130   44.7730 N   0  0  0  0  0  0  0  0  0  0  0  0
   56.4070   29.8500   44.8640 C   0  0  0  0  0  0  0  0  0  0  0  0
   55.4080   30.6190   44.8560 O   0  0  0  0  0  0  0  0  0  0  0  0
   57.6800   30.2830   44.9680 N   0  0  0  0  0  0  0  0  0  0  0  0
   58.1160   31.6800   45.1020 C   0  0  0  0  0  0  0  0  0  0  0  0
   59.0425   31.8242   44.5268 H   0  0  0  0  0  0  0  0  0  0  0  0
   57.3184   32.3337   44.7194 H   0  0  0  0  0  0  0  0  0  0  0  0
   58.3770   32.0370   46.5700 C   0  0  0  0  0  0  0  0  0  0  0  0
   57.8113   32.9460   46.8225 H   0  0  0  0  0  0  0  0  0  0  0  0
   58.0559   31.1891   47.1929 H   0  0  0  0  0  0  0  0  0  0  0  0
   59.8450   32.2850   46.8290 C   0  0  0  0  0  0  0  0  0  0  0  0
   60.3930   33.5380   46.5040 C   0  0  0  0  0  0  0  0  0  0  0  0
   59.7553   34.3121   46.0522 H   0  0  0  0  0  0  0  0  0  0  0  0
   61.7390   33.8070   46.7500 C   0  0  0  0  0  0  0  0  0  0  0  0
   62.1600   34.7890   46.4883 H   0  0  0  0  0  0  0  0  0  0  0  0
   62.5510   32.8330   47.3270 C   0  0  0  0  0  0  0  0  0  0  0  0
   63.6141   33.0455   47.5130 H   0  0  0  0  0  0  0  0  0  0  0  0
   62.0200   31.5880   47.6700 C   0  0  0  0  0  0  0  0  0  0  0  0
   62.6671   30.8266   48.1299 H   0  0  0  0  0  0  0  0  0  0  0  0
   60.6590   31.2990   47.4310 C   0  0  0  0  0  0  0  0  0  0  0  0
   60.0720   30.0700   47.7860 O   0  0  0  0  0  0  0  0  0  0  0  0
   60.6920   28.9940   48.4940 C   0  0  0  0  0  0  0  0  0  0  0  0
   61.7235   28.8723   48.1318 H   0  0  0  0  0  0  0  0  0  0  0  0
   60.6858   29.2319   49.5679 H   0  0  0  0  0  0  0  0  0  0  0  0
   59.9300   27.6860   48.2810 C   0  0  0  0  0  0  0  0  0  0  0  0
   60.0110   26.9190   49.4290 F   0  0  0  0  0  0  0  0  0  0  0  0
   58.5990   27.9620   48.0220 F   0  0  0  0  0  0  0  0  0  0  0  0
   60.6020   26.7480   46.9240 Cl  0  0  0  0  0  0  0  0  0  0  0  0
   58.4350   29.1600   44.9320 C   0  0  0  0  0  0  0  0  0  0  0  0
   59.7750   29.1640   44.8540 C   0  0  0  0  0  0  0  0  0  0  0  0
   60.3281   30.1110   44.9395 H   0  0  0  0  0  0  0  0  0  0  0  0
   60.3201   28.2203   44.7046 H   0  0  0  0  0  0  0  0  0  0  0  0
  1  2  1  0
  2  3  1  0
  3  4  1  0
  4  5  1  0
  5  6  2  0
  5  7  1  0
  7  8  1  0
  8  9  1  0
  9 10  1  0
  9 11  2  0
 11 12  1  0
 12 13  1  0
 13 14  2  0
 13 15  1  0
 15 16  1  0
 16 17  1  0
 16 18  1  0
 16 19  1  0
 19 20  1  0
 19 21  1  0
 19 22  1  0
 22 23  2  0
 23 24  1  0
 23 25  1  0
 25 26  1  0
 25 27  2  0
 27 28  1  0
 27 29  1  0
 29 30  1  0
 29 31  2  0
 31 32  1  0
 32 33  1  0
 33 34  1  0
 33 35  1  0
 33 36  1  0
 36 37  1  0
 36 38  1  0
 36 39  1  0
 15 40  1  0
 40 41  2  0
 41 42  1  0
 41 43  1  0
  8  3  2  0
 40 11  1  0
 31 22  1  0
M  CHG  3   4  -1   7  -1  12  -1
M  END
>  <UniqueID>  (93) 
88

>  <SMILES>  (93) 
C=c1/c(=C\c2[n-]c(=O)[n-]c2O)[n-]c(=O)n1CCc1ccccc1OCC(F)(F)Cl

>  <Energy>  (93) 
112.78078407251225

>  <Genealogy>  (93) 
C=c1c(=Cc2[n-]c(=O)[n-]c2O)[n-]c(=O)n1CCc1ccccc1OCC(F)(F)Cl (protonated)
C=c1/c(=C\c2[n-]c(=O)[n-]c2O)[n-]c(=O)n1CCc1ccccc1OCC(F)(F)Cl (cis-trans isomerization)
C=c1/c(=C\c2[n-]c(=O)[n-]c2O)[n-]c(=O)n1CCc1ccccc1OCC(F)(F)Cl (3D coordinates assigned)
C=c1/c(=C\c2[n-]c(=O)[n-]c2O)[n-]c(=O)n1CCc1ccccc1OCC(F)(F)Cl (optimized conformer: 112.78078407251225 kcal/mol)

>  <smiles>  (93) 
C=c1c(=Cc2[nH]c(=O)[nH]c2O)[nH]c(=O)n1CCc1ccccc1OCC(F)(F)Cl

>  <score_type>  (93) 
oracle

>  <origin>  (93) 
adg

>  <m_score__min__energy>  (93) 
-14.529999999999999

>  <m_primary>  (93) 
energy

$$$$
93:0
     RDKit          3D

 46 49  0  0  0  0  0  0  0  0999 V2000
   60.0810   29.2530   51.9330 O   0  0  0  0  0  0  0  0  0  0  0  0
   59.3010   29.8830   51.1720 C   0  0  0  0  0  0  0  0  0  0  0  0
   58.2700   30.6870   51.7640 N   0  0  0  0  0  0  0  0  0  0  0  0
   56.9730   30.2820   52.2380 C   0  0  0  0  0  0  0  0  0  0  0  0
   56.9070   29.4320   53.3470 C   0  0  0  0  0  0  0  0  0  0  0  0
   55.6720   29.0360   53.8630 C   0  0  0  0  0  0  0  0  0  0  0  0
   54.4880   29.4860   53.2760 C   0  0  0  0  0  0  0  0  0  0  0  0
   54.5300   30.3460   52.1660 C   0  0  0  0  0  0  0  0  0  0  0  0
   53.2780   30.8050   51.5190 C   0  0  0  0  0  0  0  0  0  0  0  0
   52.8560   30.2420   50.3560 N   0  0  0  0  0  0  0  0  0  0  0  0
   51.7130   30.6700   49.7620 C   0  0  0  0  0  0  0  0  0  0  0  0
   51.3270   30.1420   48.6880 O   0  0  0  0  0  0  0  0  0  0  0  0
   50.9900   31.6700   50.3240 N   0  0  0  0  0  0  0  0  0  0  0  0
   51.4080   32.2410   51.4800 C   0  0  0  0  0  0  0  0  0  0  0  0
   50.7400   33.1700   52.0020 O   0  0  0  0  0  0  0  0  0  0  0  0
   52.5480   31.8090   52.0760 N   0  0  0  0  0  0  0  0  0  0  0  0
   55.7780   30.7580   51.6690 C   0  0  0  0  0  0  0  0  0  0  0  0
   59.4300   29.7100   49.7050 C   0  0  0  0  0  0  0  0  0  0  0  0
   59.8940   28.4780   49.2110 C   0  0  0  0  0  0  0  0  0  0  0  0
   60.0130   28.2620   47.8390 C   0  0  0  0  0  0  0  0  0  0  0  0
   59.6840   29.2750   46.9400 C   0  0  0  0  0  0  0  0  0  0  0  0
   59.2320   30.5090   47.4110 C   0  0  0  0  0  0  0  0  0  0  0  0
   59.0860   30.7420   48.7910 C   0  0  0  0  0  0  0  0  0  0  0  0
   58.5810   32.0950   49.2490 C   0  0  0  0  0  0  0  0  0  0  0  0
   57.7660   32.7150   48.2520 O   0  0  0  0  0  0  0  0  0  0  0  0
   58.2130   33.4790   47.1610 C   0  0  0  0  0  0  0  0  0  0  0  0
   57.4860   33.3810   45.9670 C   0  0  0  0  0  0  0  0  0  0  0  0
   57.8870   34.0840   44.8280 C   0  0  0  0  0  0  0  0  0  0  0  0
   59.0100   34.9110   44.8780 C   0  0  0  0  0  0  0  0  0  0  0  0
   59.7290   35.0400   46.0670 C   0  0  0  0  0  0  0  0  0  0  0  0
   59.3440   34.3260   47.2070 C   0  0  0  0  0  0  0  0  0  0  0  0
   60.0640   34.4970   48.3420 F   0  0  0  0  0  0  0  0  0  0  0  0
   57.8351   29.0731   53.8158 H   0  0  0  0  0  0  0  0  0  0  0  0
   55.6315   28.3670   54.7352 H   0  0  0  0  0  0  0  0  0  0  0  0
   53.5181   29.1658   53.6844 H   0  0  0  0  0  0  0  0  0  0  0  0
   55.8210   31.4615   50.8245 H   0  0  0  0  0  0  0  0  0  0  0  0
   60.1657   27.6768   49.9141 H   0  0  0  0  0  0  0  0  0  0  0  0
   60.3673   27.2901   47.4651 H   0  0  0  0  0  0  0  0  0  0  0  0
   59.7806   29.1019   45.8580 H   0  0  0  0  0  0  0  0  0  0  0  0
   58.9873   31.3079   46.6955 H   0  0  0  0  0  0  0  0  0  0  0  0
   57.9867   31.9632   50.1652 H   0  0  0  0  0  0  0  0  0  0  0  0
   59.4503   32.7426   49.4358 H   0  0  0  0  0  0  0  0  0  0  0  0
   56.5902   32.7439   45.9260 H   0  0  0  0  0  0  0  0  0  0  0  0
   57.3176   33.9856   43.8920 H   0  0  0  0  0  0  0  0  0  0  0  0
   59.3284   35.4611   43.9802 H   0  0  0  0  0  0  0  0  0  0  0  0
   60.6031   35.7066   46.1082 H   0  0  0  0  0  0  0  0  0  0  0  0
  1  2  2  0
  2  3  1  0
  3  4  1  0
  4  5  2  0
  5  6  1  0
  6  7  2  0
  7  8  1  0
  8  9  1  0
  9 10  2  0
 10 11  1  0
 11 12  2  0
 11 13  1  0
 13 14  1  0
 14 15  2  0
 14 16  1  0
  8 17  2  0
  2 18  1  0
 18 19  2  0
 19 20  1  0
 20 21  2  0
 21 22  1  0
 22 23  2  0
 23 24  1  0
 24 25  1  0
 25 26  1  0
 26 27  2  0
 27 28  1  0
 28 29  2  0
 29 30  1  0
 30 31  2  0
 31 32  1  0
 17  4  1  0
 23 18  1  0
 31 26  1  0
 16  9  1  0
  5 33  1  0
  6 34  1  0
  7 35  1  0
 17 36  1  0
 19 37  1  0
 20 38  1  0
 21 39  1  0
 22 40  1  0
 24 41  1  0
 24 42  1  0
 27 43  1  0
 28 44  1  0
 29 45  1  0
 30 46  1  0
M  CHG  3   3  -1  13  -1  16  -1
M  END
>  <UniqueID>  (94) 
89

>  <SMILES>  (94) 
O=C([N-]c1cccc(-c2nc(=O)[n-]c(=O)[n-]2)c1)c1ccccc1COc1ccccc1F

>  <Energy>  (94) 
60.875683501177775

>  <Genealogy>  (94) 
O=C([N-]c1cccc(-c2nc(=O)[n-]c(=O)[n-]2)c1)c1ccccc1COc1ccccc1F (protonated)
O=C([N-]c1cccc(-c2nc(=O)[n-]c(=O)[n-]2)c1)c1ccccc1COc1ccccc1F (3D coordinates assigned)
O=C([N-]c1cccc(-c2nc(=O)[n-]c(=O)[n-]2)c1)c1ccccc1COc1ccccc1F (optimized conformer: 60.875683501177775 kcal/mol)

>  <smiles>  (94) 
O=C(Nc1cccc(-c2nc(=O)[nH]c(=O)[nH]2)c1)c1ccccc1COc1ccccc1F

>  <score_type>  (94) 
oracle

>  <origin>  (94) 
adg

>  <m_score__min__energy>  (94) 
-13.73

>  <m_primary>  (94) 
energy

$$$$
