0:0
     RDKit          3D

 51 53  0  0  0  0  0  0  0  0999 V2000
   64.9460   33.0200   49.7240 Cl  0  0  0  0  0  0  0  0  0  0  0  0
   63.4450   33.2210   48.8400 C   0  0  0  0  0  0  0  0  0  0  0  0
   62.3910   33.9440   49.4050 C   0  0  0  0  0  0  0  0  0  0  0  0
   61.1930   34.1040   48.7010 C   0  0  0  0  0  0  0  0  0  0  0  0
   61.0420   33.5450   47.4200 C   0  0  0  0  0  0  0  0  0  0  0  0
   59.7690   33.7110   46.6770 C   0  0  0  0  0  0  0  0  0  0  0  0
   59.7170   34.6020   45.5920 C   0  0  0  0  0  0  0  0  0  0  0  0
   58.5310   34.7890   44.8830 C   0  0  0  0  0  0  0  0  0  0  0  0
   57.3840   34.0860   45.2470 C   0  0  0  0  0  0  0  0  0  0  0  0
   57.4200   33.1900   46.3170 C   0  0  0  0  0  0  0  0  0  0  0  0
   58.6130   32.9830   47.0390 C   0  0  0  0  0  0  0  0  0  0  0  0
   58.7000   32.0730   48.1100 O   0  0  0  0  0  0  0  0  0  0  0  0
   58.4390   32.3310   49.4910 C   0  0  0  0  0  0  0  0  0  0  0  0
   59.3950   31.5340   50.3920 C   0  0  0  0  0  0  0  0  0  0  0  0
   60.4940   30.7620   49.6360 C   0  0  0  0  0  0  0  0  0  0  0  0
   59.9610   29.5370   48.8820 C   0  0  0  0  0  0  0  0  0  0  0  0
   60.7800   29.2670   47.7650 O   0  0  0  0  0  0  0  0  0  0  0  0
   60.3810   30.0650   46.6700 C   0  0  0  0  0  0  0  0  0  0  0  0
   59.8260   29.1720   45.5570 C   0  0  0  0  0  0  0  0  0  0  0  0
   58.4860   29.6650   45.0680 C   0  0  0  0  0  0  0  0  0  0  0  0
   58.4080   30.6740   44.0970 C   0  0  0  0  0  0  0  0  0  0  0  0
   57.1630   31.0850   43.6160 C   0  0  0  0  0  0  0  0  0  0  0  0
   56.0060   30.4830   44.1120 C   0  0  0  0  0  0  0  0  0  0  0  0
   56.0950   29.5110   45.0580 N   0  0  0  0  0  0  0  0  0  0  0  0
   57.2950   29.0940   45.5440 C   0  0  0  0  0  0  0  0  0  0  0  0
   62.1050   32.8130   46.8620 C   0  0  0  0  0  0  0  0  0  0  0  0
   63.3010   32.6550   47.5690 C   0  0  0  0  0  0  0  0  0  0  0  0
   62.5037   34.3880   50.4051 H   0  0  0  0  0  0  0  0  0  0  0  0
   60.3647   34.6702   49.1520 H   0  0  0  0  0  0  0  0  0  0  0  0
   60.6203   35.1572   45.2991 H   0  0  0  0  0  0  0  0  0  0  0  0
   58.5007   35.4911   44.0367 H   0  0  0  0  0  0  0  0  0  0  0  0
   56.4478   34.2375   44.6897 H   0  0  0  0  0  0  0  0  0  0  0  0
   56.5096   32.6408   46.5992 H   0  0  0  0  0  0  0  0  0  0  0  0
   58.5718   33.4052   49.6873 H   0  0  0  0  0  0  0  0  0  0  0  0
   57.4075   32.0220   49.7157 H   0  0  0  0  0  0  0  0  0  0  0  0
   59.8829   32.2379   51.0822 H   0  0  0  0  0  0  0  0  0  0  0  0
   58.7821   30.7798   50.9073 H   0  0  0  0  0  0  0  0  0  0  0  0
   60.9633   31.4425   48.9103 H   0  0  0  0  0  0  0  0  0  0  0  0
   61.2126   30.3981   50.3851 H   0  0  0  0  0  0  0  0  0  0  0  0
   59.9619   28.6662   49.5540 H   0  0  0  0  0  0  0  0  0  0  0  0
   58.9359   29.7406   48.5388 H   0  0  0  0  0  0  0  0  0  0  0  0
   59.6022   30.7702   46.9958 H   0  0  0  0  0  0  0  0  0  0  0  0
   61.2492   30.6237   46.2904 H   0  0  0  0  0  0  0  0  0  0  0  0
   60.5342   29.1682   44.7153 H   0  0  0  0  0  0  0  0  0  0  0  0
   59.6935   28.1580   45.9622 H   0  0  0  0  0  0  0  0  0  0  0  0
   59.3273   31.1415   43.7144 H   0  0  0  0  0  0  0  0  0  0  0  0
   57.0951   31.8753   42.8539 H   0  0  0  0  0  0  0  0  0  0  0  0
   55.0203   30.7955   43.7368 H   0  0  0  0  0  0  0  0  0  0  0  0
   57.3324   28.3073   46.3120 H   0  0  0  0  0  0  0  0  0  0  0  0
   61.9952   32.3625   45.8645 H   0  0  0  0  0  0  0  0  0  0  0  0
   64.1301   32.0846   47.1249 H   0  0  0  0  0  0  0  0  0  0  0  0
  1  2  1  0
  2  3  2  0
  3  4  1  0
  4  5  2  0
  5  6  1  0
  6  7  2  0
  7  8  1  0
  8  9  2  0
  9 10  1  0
 10 11  2  0
 11 12  1  0
 12 13  1  0
 13 14  1  0
 14 15  1  0
 15 16  1  0
 16 17  1  0
 17 18  1  0
 18 19  1  0
 19 20  1  0
 20 21  2  0
 21 22  1  0
 22 23  2  0
 23 24  1  0
 24 25  2  0
  5 26  1  0
 26 27  2  0
 27  2  1  0
 11  6  1  0
 25 20  1  0
  3 28  1  0
  4 29  1  0
  7 30  1  0
  8 31  1  0
  9 32  1  0
 10 33  1  0
 13 34  1  0
 13 35  1  0
 14 36  1  0
 14 37  1  0
 15 38  1  0
 15 39  1  0
 16 40  1  0
 16 41  1  0
 18 42  1  0
 18 43  1  0
 19 44  1  0
 19 45  1  0
 21 46  1  0
 22 47  1  0
 23 48  1  0
 25 49  1  0
 26 50  1  0
 27 51  1  0
M  END
>  <UniqueID>  (1) 
1

>  <SMILES>  (1) 
Clc1ccc(-c2ccccc2OCCCCOCCc2cccnc2)cc1

>  <Energy>  (1) 
55.25997626187019

>  <Genealogy>  (1) 
Clc1ccc(-c2ccccc2OCCCCOCCc2cccnc2)cc1 (3D coordinates assigned)
Clc1ccc(-c2ccccc2OCCCCOCCc2cccnc2)cc1 (optimized conformer: 55.25997626187019 kcal/mol)

>  <smiles>  (1) 
Clc1ccc(-c2ccccc2OCCCCOCCc2cccnc2)cc1

>  <score_type>  (1) 
oracle

>  <origin>  (1) 
adg

>  <m_score__min__energy>  (1) 
-7.9800000000000004

>  <m_primary>  (1) 
energy

$$$$
1:0
     RDKit          3D

 47 50  0  0  0  0  0  0  0  0999 V2000
   56.3340   29.5710   42.3090 C   0  0  0  0  0  0  0  0  0  0  0  0
   56.9590   30.6820   43.0990 C   0  0  0  0  0  0  0  0  0  0  0  0
   56.8590   30.6990   44.4980 C   0  0  0  0  0  0  0  0  0  0  0  0
   57.4080   31.7540   45.2330 C   0  0  0  0  0  0  0  0  0  0  0  0
   58.0540   32.8130   44.5760 C   0  0  0  0  0  0  0  0  0  0  0  0
   58.6150   33.9720   45.3570 C   0  0  0  0  0  0  0  0  0  0  0  0
   59.1180   33.5090   46.6510 N   0  0  0  0  0  0  0  0  0  0  0  0
   58.3630   33.0090   47.6570 C   0  0  0  0  0  0  0  0  0  0  0  0
   59.1700   32.5920   48.7140 C   0  0  0  0  0  0  0  0  0  0  0  0
   58.7240   32.0220   50.0050 C   0  0  0  0  0  0  0  0  0  0  0  0
   58.3760   32.7990   50.9340 O   0  0  0  0  0  0  0  0  0  0  0  0
   58.6640   30.5670   50.2420 C   0  0  0  0  0  0  0  0  0  0  0  0
   57.8030   30.0860   51.0250 O   0  0  0  0  0  0  0  0  0  0  0  0
   59.5410   29.7010   49.5100 N   0  0  0  0  0  0  0  0  0  0  0  0
   59.3510   29.2330   48.1670 C   0  0  0  0  0  0  0  0  0  0  0  0
   58.4970   28.1560   47.8640 C   0  0  0  0  0  0  0  0  0  0  0  0
   58.3590   27.7160   46.5440 C   0  0  0  0  0  0  0  0  0  0  0  0
   59.0780   28.3370   45.5180 C   0  0  0  0  0  0  0  0  0  0  0  0
   58.9060   27.7830   43.8630 Cl  0  0  0  0  0  0  0  0  0  0  0  0
   59.9470   29.3920   45.8160 C   0  0  0  0  0  0  0  0  0  0  0  0
   60.0880   29.8320   47.1360 C   0  0  0  0  0  0  0  0  0  0  0  0
   60.4710   32.8600   48.3130 C   0  0  0  0  0  0  0  0  0  0  0  0
   61.6970   32.6360   48.9450 C   0  0  0  0  0  0  0  0  0  0  0  0
   62.8700   32.9980   48.2610 C   0  0  0  0  0  0  0  0  0  0  0  0
   62.7990   33.5660   46.9720 C   0  0  0  0  0  0  0  0  0  0  0  0
   61.5550   33.7760   46.3530 C   0  0  0  0  0  0  0  0  0  0  0  0
   60.4020   33.4070   47.0540 C   0  0  0  0  0  0  0  0  0  0  0  0
   58.1330   32.8080   43.1750 C   0  0  0  0  0  0  0  0  0  0  0  0
   57.5850   31.7520   42.4410 C   0  0  0  0  0  0  0  0  0  0  0  0
   55.9133   28.8232   42.9974 H   0  0  0  0  0  0  0  0  0  0  0  0
   55.5323   29.9778   41.6751 H   0  0  0  0  0  0  0  0  0  0  0  0
   57.0979   29.0971   41.6751 H   0  0  0  0  0  0  0  0  0  0  0  0
   56.3458   29.8777   45.0197 H   0  0  0  0  0  0  0  0  0  0  0  0
   57.3334   31.7542   46.3305 H   0  0  0  0  0  0  0  0  0  0  0  0
   59.4385   34.4292   44.7888 H   0  0  0  0  0  0  0  0  0  0  0  0
   57.8193   34.7130   45.5238 H   0  0  0  0  0  0  0  0  0  0  0  0
   57.2652   32.9412   47.6423 H   0  0  0  0  0  0  0  0  0  0  0  0
   57.9359   27.6585   48.6688 H   0  0  0  0  0  0  0  0  0  0  0  0
   57.6833   26.8795   46.3121 H   0  0  0  0  0  0  0  0  0  0  0  0
   60.5200   29.8760   45.0113 H   0  0  0  0  0  0  0  0  0  0  0  0
   60.7820   30.6537   47.3667 H   0  0  0  0  0  0  0  0  0  0  0  0
   61.7426   32.1891   49.9491 H   0  0  0  0  0  0  0  0  0  0  0  0
   63.8500   32.8373   48.7340 H   0  0  0  0  0  0  0  0  0  0  0  0
   63.7242   33.8467   46.4473 H   0  0  0  0  0  0  0  0  0  0  0  0
   61.4898   34.2173   45.3475 H   0  0  0  0  0  0  0  0  0  0  0  0
   58.6285   33.6391   42.6518 H   0  0  0  0  0  0  0  0  0  0  0  0
   57.6447   31.7597   41.3427 H   0  0  0  0  0  0  0  0  0  0  0  0
  1  2  1  0
  2  3  2  0
  3  4  1  0
  4  5  2  0
  5  6  1  0
  6  7  1  0
  7  8  1  0
  8  9  2  0
  9 10  1  0
 10 11  2  0
 10 12  1  0
 12 13  2  0
 12 14  1  0
 14 15  1  0
 15 16  2  0
 16 17  1  0
 17 18  2  0
 18 19  1  0
 18 20  1  0
 20 21  2  0
  9 22  1  0
 22 23  2  0
 23 24  1  0
 24 25  2  0
 25 26  1  0
 26 27  2  0
  5 28  1  0
 28 29  2  0
 29  2  1  0
 27  7  1  0
 21 15  1  0
 27 22  1  0
  1 30  1  0
  1 31  1  0
  1 32  1  0
  3 33  1  0
  4 34  1  0
  6 35  1  0
  6 36  1  0
  8 37  1  0
 16 38  1  0
 17 39  1  0
 20 40  1  0
 21 41  1  0
 23 42  1  0
 24 43  1  0
 25 44  1  0
 26 45  1  0
 28 46  1  0
 29 47  1  0
M  CHG  1  14  -1
M  END
>  <UniqueID>  (2) 
2

>  <SMILES>  (2) 
Cc1ccc(Cn2cc(C(=O)C(=O)[N-]c3ccc(Cl)cc3)c3ccccc32)cc1

>  <Energy>  (2) 
88.42794509318358

>  <Genealogy>  (2) 
Cc1ccc(Cn2cc(C(=O)C(=O)[N-]c3ccc(Cl)cc3)c3ccccc32)cc1 (protonated)
Cc1ccc(Cn2cc(C(=O)C(=O)[N-]c3ccc(Cl)cc3)c3ccccc32)cc1 (3D coordinates assigned)
Cc1ccc(Cn2cc(C(=O)C(=O)[N-]c3ccc(Cl)cc3)c3ccccc32)cc1 (optimized conformer: 88.42794509318358 kcal/mol)

>  <smiles>  (2) 
Cc1ccc(Cn2cc(C(=O)C(=O)Nc3ccc(Cl)cc3)c3ccccc32)cc1

>  <score_type>  (2) 
oracle

>  <origin>  (2) 
adg

>  <m_score__min__energy>  (2) 
-10.48

>  <m_primary>  (2) 
energy

$$$$
2:0
     RDKit          3D

 35 38  0  0  0  0  0  0  0  0999 V2000
   55.9500   30.1220   44.4700 C   0  0  0  0  0  0  0  0  0  0  0  0
   56.5930   29.7510   45.6850 O   0  0  0  0  0  0  0  0  0  0  0  0
   57.8520   29.1300   45.7760 C   0  0  0  0  0  0  0  0  0  0  0  0
   59.0300   29.8990   45.8420 C   0  0  0  0  0  0  0  0  0  0  0  0
   60.2820   29.2870   45.9310 C   0  0  0  0  0  0  0  0  0  0  0  0
   61.4440   30.0540   45.9960 O   0  0  0  0  0  0  0  0  0  0  0  0
   60.3760   27.8990   45.9570 C   0  0  0  0  0  0  0  0  0  0  0  0
   59.2210   27.1060   45.8930 C   0  0  0  0  0  0  0  0  0  0  0  0
   59.3410   25.7130   45.9200 C   0  0  0  0  0  0  0  0  0  0  0  0
   58.2090   24.8900   45.8580 C   0  0  0  0  0  0  0  0  0  0  0  0
   56.9250   25.4680   45.7660 C   0  0  0  0  0  0  0  0  0  0  0  0
   56.7950   26.8790   45.7390 C   0  0  0  0  0  0  0  0  0  0  0  0
   55.5280   27.4480   45.6480 O   0  0  0  0  0  0  0  0  0  0  0  0
   57.9420   27.7110   45.8010 C   0  0  0  0  0  0  0  0  0  0  0  0
   55.7310   24.5740   45.7020 C   0  0  0  0  0  0  0  0  0  0  0  0
   54.5710   25.0620   45.6200 O   0  0  0  0  0  0  0  0  0  0  0  0
   55.8930   23.1010   45.7330 C   0  0  0  0  0  0  0  0  0  0  0  0
   54.7690   22.2550   45.6720 C   0  0  0  0  0  0  0  0  0  0  0  0
   54.9240   20.8680   45.7010 C   0  0  0  0  0  0  0  0  0  0  0  0
   56.1980   20.3090   45.7920 C   0  0  0  0  0  0  0  0  0  0  0  0
   57.3220   21.1350   45.8540 C   0  0  0  0  0  0  0  0  0  0  0  0
   57.1800   22.5350   45.8240 C   0  0  0  0  0  0  0  0  0  0  0  0
   58.3680   23.4150   45.8890 C   0  0  0  0  0  0  0  0  0  0  0  0
   59.5190   22.9050   45.9700 O   0  0  0  0  0  0  0  0  0  0  0  0
   55.0179   30.6598   44.6978 H   0  0  0  0  0  0  0  0  0  0  0  0
   56.6165   30.7743   43.8868 H   0  0  0  0  0  0  0  0  0  0  0  0
   55.7188   29.2185   43.8868 H   0  0  0  0  0  0  0  0  0  0  0  0
   58.9629   30.9968   45.8232 H   0  0  0  0  0  0  0  0  0  0  0  0
   61.7840   30.4270   46.8740 H   0  0  0  0  0  0  0  0  0  0  0  0
   61.3637   27.4200   46.0283 H   0  0  0  0  0  0  0  0  0  0  0  0
   60.3393   25.2566   45.9910 H   0  0  0  0  0  0  0  0  0  0  0  0
   53.7613   22.6903   45.6010 H   0  0  0  0  0  0  0  0  0  0  0  0
   54.0399   20.2153   45.6520 H   0  0  0  0  0  0  0  0  0  0  0  0
   56.3178   19.2158   45.8150 H   0  0  0  0  0  0  0  0  0  0  0  0
   58.3248   20.6888   45.9267 H   0  0  0  0  0  0  0  0  0  0  0  0
  1  2  1  0
  2  3  1  0
  3  4  2  0
  4  5  1  0
  5  6  1  0
  5  7  2  0
  7  8  1  0
  8  9  2  0
  9 10  1  0
 10 11  2  0
 11 12  1  0
 12 13  1  0
 12 14  2  0
 11 15  1  0
 15 16  2  0
 15 17  1  0
 17 18  2  0
 18 19  1  0
 19 20  2  0
 20 21  1  0
 21 22  2  0
 22 23  1  0
 23 24  2  0
 14  3  1  0
 22 17  1  0
 14  8  1  0
 23 10  1  0
  1 25  1  0
  1 26  1  0
  1 27  1  0
  4 28  1  0
  6 29  1  0
  7 30  1  0
  9 31  1  0
 18 32  1  0
 19 33  1  0
 20 34  1  0
 21 35  1  0
M  CHG  1  13  -1
M  END
>  <UniqueID>  (3) 
3

>  <SMILES>  (3) 
COc1cc(O)cc2cc3c(c([O-])c12)C(=O)c1ccccc1C3=O

>  <Energy>  (3) 
52.48441256907321

>  <Genealogy>  (3) 
COc1cc(O)cc2cc3c(c([O-])c12)C(=O)c1ccccc1C3=O (protonated)
COc1cc(O)cc2cc3c(c([O-])c12)C(=O)c1ccccc1C3=O (3D coordinates assigned)
COc1cc(O)cc2cc3c(c([O-])c12)C(=O)c1ccccc1C3=O (nonaromatic ring conformer: 52.48441256907321 kcal/mol)

>  <smiles>  (3) 
COc1cc(O)cc2cc3c(c(O)c12)C(=O)c1ccccc1C3=O

>  <score_type>  (3) 
oracle

>  <origin>  (3) 
adg

>  <m_score__min__energy>  (3) 
-11.24

>  <m_primary>  (3) 
energy

$$$$
3:0
     RDKit          3D

 36 39  0  0  0  0  0  0  0  0999 V2000
   56.5780   26.1460   46.1140 C   0  0  0  0  0  0  0  0  0  0  0  0
   57.4030   27.3390   46.3750 N   0  0  0  0  0  0  0  0  0  0  0  0
   58.4280   27.2830   47.2870 C   0  0  0  0  0  0  0  0  0  0  0  0
   58.6890   26.2120   47.9020 O   0  0  0  0  0  0  0  0  0  0  0  0
   59.2010   28.4120   47.5590 C   0  0  0  0  0  0  0  0  0  0  0  0
   58.9290   29.6260   46.9260 C   0  0  0  0  0  0  0  0  0  0  0  0
   59.7500   30.8060   47.2840 C   0  0  0  0  0  0  0  0  0  0  0  0
   59.1390   31.9570   47.8100 C   0  0  0  0  0  0  0  0  0  0  0  0
   59.9090   33.0790   48.1350 C   0  0  0  0  0  0  0  0  0  0  0  0
   61.2900   33.0590   47.9290 C   0  0  0  0  0  0  0  0  0  0  0  0
   61.9000   31.9300   47.3650 C   0  0  0  0  0  0  0  0  0  0  0  0
   61.1360   30.8030   47.0520 C   0  0  0  0  0  0  0  0  0  0  0  0
   63.2770   31.9530   47.1210 O   0  0  0  0  0  0  0  0  0  0  0  0
   64.0170   33.1750   47.1750 C   0  0  0  0  0  0  0  0  0  0  0  0
   63.5080   34.0530   48.3260 C   0  0  0  0  0  0  0  0  0  0  0  0
   62.0830   34.1580   48.2760 O   0  0  0  0  0  0  0  0  0  0  0  0
   57.8710   29.6890   45.9940 C   0  0  0  0  0  0  0  0  0  0  0  0
   57.5570   30.8640   45.2840 C   0  0  0  0  0  0  0  0  0  0  0  0
   56.4900   30.8820   44.3860 C   0  0  0  0  0  0  0  0  0  0  0  0
   55.7450   29.7210   44.1870 C   0  0  0  0  0  0  0  0  0  0  0  0
   54.7770   29.7200   43.3840 O   0  0  0  0  0  0  0  0  0  0  0  0
   56.0670   28.5850   44.8570 N   0  0  0  0  0  0  0  0  0  0  0  0
   57.1050   28.5230   45.7420 C   0  0  0  0  0  0  0  0  0  0  0  0
   56.2683   25.6981   47.0698 H   0  0  0  0  0  0  0  0  0  0  0  0
   55.6863   26.4356   45.5387 H   0  0  0  0  0  0  0  0  0  0  0  0
   57.1637   25.4139   45.5387 H   0  0  0  0  0  0  0  0  0  0  0  0
   60.0311   28.3450   48.2777 H   0  0  0  0  0  0  0  0  0  0  0  0
   58.0504   31.9759   47.9669 H   0  0  0  0  0  0  0  0  0  0  0  0
   59.4273   33.9756   48.5522 H   0  0  0  0  0  0  0  0  0  0  0  0
   61.6197   29.9127   46.6237 H   0  0  0  0  0  0  0  0  0  0  0  0
   65.0815   32.9483   47.3344 H   0  0  0  0  0  0  0  0  0  0  0  0
   63.8859   33.7159   46.2262 H   0  0  0  0  0  0  0  0  0  0  0  0
   63.8055   33.6032   49.2847 H   0  0  0  0  0  0  0  0  0  0  0  0
   63.9449   35.0580   48.2302 H   0  0  0  0  0  0  0  0  0  0  0  0
   58.1569   31.7730   45.4386 H   0  0  0  0  0  0  0  0  0  0  0  0
   56.2389   31.8034   43.8402 H   0  0  0  0  0  0  0  0  0  0  0  0
  1  2  1  0
  2  3  1  0
  3  4  2  0
  3  5  1  0
  5  6  2  0
  6  7  1  0
  7  8  2  0
  8  9  1  0
  9 10  2  0
 10 11  1  0
 11 12  2  0
 11 13  1  0
 13 14  1  0
 14 15  1  0
 15 16  1  0
  6 17  1  0
 17 18  1  0
 18 19  2  0
 19 20  1  0
 20 21  2  0
 20 22  1  0
 22 23  1  0
 23  2  1  0
 12  7  1  0
 23 17  2  0
 16 10  1  0
  1 24  1  0
  1 25  1  0
  1 26  1  0
  5 27  1  0
  8 28  1  0
  9 29  1  0
 12 30  1  0
 14 31  1  0
 14 32  1  0
 15 33  1  0
 15 34  1  0
 18 35  1  0
 19 36  1  0
M  CHG  1  22  -1
M  END
>  <UniqueID>  (4) 
4

>  <SMILES>  (4) 
Cn1c(=O)cc(-c2ccc3c(c2)OCCO3)c2ccc(=O)[n-]c21

>  <Energy>  (4) 
57.294923943164534

>  <Genealogy>  (4) 
Cn1c(=O)cc(-c2ccc3c(c2)OCCO3)c2ccc(=O)[n-]c21 (protonated)
Cn1c(=O)cc(-c2ccc3c(c2)OCCO3)c2ccc(=O)[n-]c21 (3D coordinates assigned)
Cn1c(=O)cc(-c2ccc3c(c2)OCCO3)c2ccc(=O)[n-]c21 (nonaromatic ring conformer: 57.294923943164534 kcal/mol)

>  <smiles>  (4) 
Cn1c(=O)cc(-c2ccc3c(c2)OCCO3)c2ccc(=O)[nH]c21

>  <score_type>  (4) 
oracle

>  <origin>  (4) 
adg

>  <m_score__min__energy>  (4) 
-8.2599999999999998

>  <m_primary>  (4) 
energy

$$$$
4:0
     RDKit          3D

 44 46  0  0  0  0  0  0  0  0999 V2000
   56.6140   22.0610   49.1250 C   0  0  0  0  0  0  0  0  0  0  0  0
   57.2290   21.9430   47.8620 O   0  0  0  0  0  0  0  0  0  0  0  0
   56.2390   21.7310   46.8780 C   0  0  0  0  0  0  0  0  0  0  0  0
   56.8950   21.2210   45.5950 C   0  0  0  0  0  0  0  0  0  0  0  0
   56.0430   21.4510   44.4280 N   0  0  0  0  0  0  0  0  0  0  0  0
   55.9050   22.6820   43.7040 C   0  0  0  0  0  0  0  0  0  0  0  0
   55.4160   22.6510   42.5450 O   0  0  0  0  0  0  0  0  0  0  0  0
   56.2830   23.9840   44.2850 C   0  0  0  0  0  0  0  0  0  0  0  0
   57.4020   24.6720   43.7900 C   0  0  0  0  0  0  0  0  0  0  0  0
   57.7370   25.9300   44.2990 C   0  0  0  0  0  0  0  0  0  0  0  0
   56.9580   26.5160   45.3020 C   0  0  0  0  0  0  0  0  0  0  0  0
   57.2970   27.8250   45.7770 N   0  0  0  0  0  0  0  0  0  0  0  0
   56.7190   29.0410   45.2920 C   0  0  0  0  0  0  0  0  0  0  0  0
   55.5270   29.0290   44.8850 O   0  0  0  0  0  0  0  0  0  0  0  0
   57.4550   30.2770   45.3070 N   0  0  0  0  0  0  0  0  0  0  0  0
   58.5080   30.5920   46.2790 C   0  0  0  0  0  0  0  0  0  0  0  0
   58.7610   32.0330   46.0430 C   0  0  0  0  0  0  0  0  0  0  0  0
   59.6920   32.8550   46.6810 C   0  0  0  0  0  0  0  0  0  0  0  0
   59.7740   34.2010   46.2930 C   0  0  0  0  0  0  0  0  0  0  0  0
   58.9320   34.7010   45.2810 C   0  0  0  0  0  0  0  0  0  0  0  0
   58.0050   33.8550   44.6510 C   0  0  0  0  0  0  0  0  0  0  0  0
   57.9410   32.5200   45.0520 C   0  0  0  0  0  0  0  0  0  0  0  0
   57.0500   31.4540   44.5340 C   0  0  0  0  0  0  0  0  0  0  0  0
   55.8790   25.8000   45.8460 C   0  0  0  0  0  0  0  0  0  0  0  0
   55.5450   24.5410   45.3410 C   0  0  0  0  0  0  0  0  0  0  0  0
   57.3665   21.9166   49.9142 H   0  0  0  0  0  0  0  0  0  0  0  0
   56.1670   23.0613   49.2232 H   0  0  0  0  0  0  0  0  0  0  0  0
   55.8285   21.2972   49.2232 H   0  0  0  0  0  0  0  0  0  0  0  0
   55.5154   20.9861   47.2407 H   0  0  0  0  0  0  0  0  0  0  0  0
   55.7190   22.6781   46.6718 H   0  0  0  0  0  0  0  0  0  0  0  0
   57.8503   21.7464   45.4490 H   0  0  0  0  0  0  0  0  0  0  0  0
   57.0550   20.1375   45.6968 H   0  0  0  0  0  0  0  0  0  0  0  0
   58.0175   24.2195   42.9986 H   0  0  0  0  0  0  0  0  0  0  0  0
   58.6174   26.4616   43.9089 H   0  0  0  0  0  0  0  0  0  0  0  0
   58.1617   30.4149   47.3080 H   0  0  0  0  0  0  0  0  0  0  0  0
   59.4071   29.9694   46.1604 H   0  0  0  0  0  0  0  0  0  0  0  0
   60.3465   32.4564   47.4701 H   0  0  0  0  0  0  0  0  0  0  0  0
   60.4991   34.8685   46.7815 H   0  0  0  0  0  0  0  0  0  0  0  0
   59.0007   35.7576   44.9830 H   0  0  0  0  0  0  0  0  0  0  0  0
   57.3439   34.2363   43.8588 H   0  0  0  0  0  0  0  0  0  0  0  0
   55.9933   31.7004   44.7145 H   0  0  0  0  0  0  0  0  0  0  0  0
   57.1370   31.3082   43.4472 H   0  0  0  0  0  0  0  0  0  0  0  0
   55.2952   26.2319   46.6722 H   0  0  0  0  0  0  0  0  0  0  0  0
   54.7003   23.9840   45.7726 H   0  0  0  0  0  0  0  0  0  0  0  0
  1  2  1  0
  2  3  1  0
  3  4  1  0
  4  5  1  0
  5  6  1  0
  6  7  2  0
  6  8  1  0
  8  9  2  0
  9 10  1  0
 10 11  2  0
 11 12  1  0
 12 13  1  0
 13 14  2  0
 13 15  1  0
 15 16  1  0
 16 17  1  0
 17 18  2  0
 18 19  1  0
 19 20  2  0
 20 21  1  0
 21 22  2  0
 22 23  1  0
 11 24  1  0
 24 25  2  0
 25  8  1  0
 23 15  1  0
 22 17  1  0
  1 26  1  0
  1 27  1  0
  1 28  1  0
  3 29  1  0
  3 30  1  0
  4 31  1  0
  4 32  1  0
  9 33  1  0
 10 34  1  0
 16 35  1  0
 16 36  1  0
 18 37  1  0
 19 38  1  0
 20 39  1  0
 21 40  1  0
 23 41  1  0
 23 42  1  0
 24 43  1  0
 25 44  1  0
M  CHG  2   5  -1  12  -1
M  END
>  <UniqueID>  (5) 
5

>  <SMILES>  (5) 
COCC[N-]C(=O)c1ccc([N-]C(=O)N2Cc3ccccc3C2)cc1

>  <Energy>  (5) 
62.86849004215587

>  <Genealogy>  (5) 
COCC[N-]C(=O)c1ccc([N-]C(=O)N2Cc3ccccc3C2)cc1 (protonated)
COCC[N-]C(=O)c1ccc([N-]C(=O)N2Cc3ccccc3C2)cc1 (3D coordinates assigned)
COCC[N-]C(=O)c1ccc([N-]C(=O)N2Cc3ccccc3C2)cc1 (nonaromatic ring conformer: 62.86849004215587 kcal/mol)

>  <smiles>  (5) 
COCCNC(=O)c1ccc(NC(=O)N2Cc3ccccc3C2)cc1

>  <score_type>  (5) 
oracle

>  <origin>  (5) 
adg

>  <m_score__min__energy>  (5) 
-10.91

>  <m_primary>  (5) 
energy

$$$$
5:0
     RDKit          3D

 55 57  0  0  0  0  0  0  0  0999 V2000
   63.1084   33.8343   45.6213 H   0  0  0  0  0  0  0  0  0  0  0  0
   62.6780   33.6690   46.6200 C   0  0  0  0  0  0  0  0  0  0  0  0
   58.1720   33.5860   44.5320 C   0  0  0  0  0  0  0  0  0  0  0  0
   57.5321   34.4030   44.1673 H   0  0  0  0  0  0  0  0  0  0  0  0
   58.9980   33.8300   45.7390 C   0  0  0  0  0  0  0  0  0  0  0  0
   58.4390   34.2010   46.9790 C   0  0  0  0  0  0  0  0  0  0  0  0
   57.3496   34.3194   47.0744 H   0  0  0  0  0  0  0  0  0  0  0  0
   63.8120   31.2220   50.7460 C   0  0  0  0  0  0  0  0  0  0  0  0
   64.4935   31.0990   51.6007 H   0  0  0  0  0  0  0  0  0  0  0  0
   62.6560   30.4250   50.6550 C   0  0  0  0  0  0  0  0  0  0  0  0
   62.3250   29.4840   51.6440 O   0  0  0  0  0  0  0  0  0  0  0  0
   61.4700   29.7450   52.7530 C   0  0  0  0  0  0  0  0  0  0  0  0
   62.0222   29.5764   53.6893 H   0  0  0  0  0  0  0  0  0  0  0  0
   61.1260   30.7891   52.7130 H   0  0  0  0  0  0  0  0  0  0  0  0
   60.6016   29.0710   52.7130 H   0  0  0  0  0  0  0  0  0  0  0  0
   61.7920   30.5880   49.5550 C   0  0  0  0  0  0  0  0  0  0  0  0
   60.6070   29.7800   49.4280 N   0  0  0  0  0  0  0  0  0  0  0  0
   60.7410   28.3350   49.2410 C   0  0  0  0  0  0  0  0  0  0  0  0
   60.7868   27.8409   50.2227 H   0  0  0  0  0  0  0  0  0  0  0  0
   59.8742   27.9559   48.6798 H   0  0  0  0  0  0  0  0  0  0  0  0
   61.6628   28.1218   48.6798 H   0  0  0  0  0  0  0  0  0  0  0  0
   59.3120   30.4180   49.1860 C   0  0  0  0  0  0  0  0  0  0  0  0
   58.8338   30.6536   50.1482 H   0  0  0  0  0  0  0  0  0  0  0  0
   59.4614   31.3456   48.6140 H   0  0  0  0  0  0  0  0  0  0  0  0
   58.6676   29.7343   48.6140 H   0  0  0  0  0  0  0  0  0  0  0  0
   62.0870   31.5480   48.5730 C   0  0  0  0  0  0  0  0  0  0  0  0
   61.3950   31.6943   47.7306 H   0  0  0  0  0  0  0  0  0  0  0  0
   61.2150   33.8370   46.7670 C   0  0  0  0  0  0  0  0  0  0  0  0
   60.6430   34.2520   47.9810 C   0  0  0  0  0  0  0  0  0  0  0  0
   61.2866   34.4462   48.8517 H   0  0  0  0  0  0  0  0  0  0  0  0
   59.2610   34.4190   48.0870 C   0  0  0  0  0  0  0  0  0  0  0  0
   58.8178   34.7234   49.0467 H   0  0  0  0  0  0  0  0  0  0  0  0
   64.1010   32.1670   49.7610 C   0  0  0  0  0  0  0  0  0  0  0  0
   64.9995   32.7950   49.8526 H   0  0  0  0  0  0  0  0  0  0  0  0
   63.2520   32.3210   48.6540 C   0  0  0  0  0  0  0  0  0  0  0  0
   63.5220   33.3310   47.6080 C   0  0  0  0  0  0  0  0  0  0  0  0
   64.4928   33.8471   47.6422 H   0  0  0  0  0  0  0  0  0  0  0  0
   58.1610   32.4240   43.8590 C   0  0  0  0  0  0  0  0  0  0  0  0
   58.6681   32.3836   42.8837 H   0  0  0  0  0  0  0  0  0  0  0  0
   57.5030   31.1920   44.3580 C   0  0  0  0  0  0  0  0  0  0  0  0
   56.2600   30.8280   43.8140 C   0  0  0  0  0  0  0  0  0  0  0  0
   55.7959   31.4618   43.0440 H   0  0  0  0  0  0  0  0  0  0  0  0
   55.6080   29.6700   44.2410 C   0  0  0  0  0  0  0  0  0  0  0  0
   54.6315   29.4014   43.8116 H   0  0  0  0  0  0  0  0  0  0  0  0
   56.1900   28.8510   45.2110 C   0  0  0  0  0  0  0  0  0  0  0  0
   55.5260   27.6980   45.6180 O   0  0  0  0  0  0  0  0  0  0  0  0
   57.4360   29.1910   45.7650 C   0  0  0  0  0  0  0  0  0  0  0  0
   58.0820   28.2950   46.7830 C   0  0  0  0  0  0  0  0  0  0  0  0
   57.8286   28.6464   47.7941 H   0  0  0  0  0  0  0  0  0  0  0  0
   57.7167   27.2660   46.6502 H   0  0  0  0  0  0  0  0  0  0  0  0
   59.1737   28.3165   46.6502 H   0  0  0  0  0  0  0  0  0  0  0  0
   58.0940   30.3540   45.3250 C   0  0  0  0  0  0  0  0  0  0  0  0
   59.0796   30.6119   45.7398 H   0  0  0  0  0  0  0  0  0  0  0  0
   60.3890   33.6480   45.6480 C   0  0  0  0  0  0  0  0  0  0  0  0
   60.8361   33.3535   44.6870 H   0  0  0  0  0  0  0  0  0  0  0  0
  1  2  1  0
  2  3  2  0
  3  4  1  0
  3  5  1  0
  5  6  2  0
  6  7  1  0
  6  8  1  0
  8  9  1  0
  8 10  2  0
 10 11  1  0
 11 12  1  0
 12 13  1  0
 12 14  1  0
 12 15  1  0
 10 16  1  0
 16 17  1  0
 17 18  1  0
 18 19  1  0
 18 20  1  0
 18 21  1  0
 17 22  1  0
 22 23  1  0
 22 24  1  0
 22 25  1  0
 16 26  2  0
 26 27  1  0
  2 28  1  0
 28 29  2  0
 29 30  1  0
 29 31  1  0
 31 32  1  0
 31 33  2  0
 33 34  1  0
 33 35  1  0
 35 36  1  0
 36 37  1  0
 36 38  2  0
 38 39  1  0
 38 40  1  0
 40 41  2  0
 41 42  1  0
 41 43  1  0
 43 44  1  0
 43 45  2  0
 45 46  1  0
 45 47  1  0
 47 48  1  0
 48 49  1  0
 48 50  1  0
 48 51  1  0
 47 52  2  0
 52 53  1  0
 35 54  2  0
 54 55  1  0
 26  5  1  0
 54 28  1  0
 52 40  1  0
M  CHG  1  46  -1
M  END
>  <UniqueID>  (6) 
6

>  <SMILES>  (6) 
COc1ccc(/C=C\c2cccc(/C=C/c3ccc([O-])c(C)c3)c2)cc1N(C)C

>  <Energy>  (6) 
74.24839260288026

>  <Genealogy>  (6) 
COc1ccc(C=Cc2cccc(C=Cc3ccc([O-])c(C)c3)c2)cc1N(C)C (protonated)
COc1ccc(/C=C\c2cccc(/C=C/c3ccc([O-])c(C)c3)c2)cc1N(C)C (cis-trans isomerization)
COc1ccc(/C=C\c2cccc(/C=C/c3ccc([O-])c(C)c3)c2)cc1N(C)C (3D coordinates assigned)
COc1ccc(/C=C\c2cccc(/C=C/c3ccc([O-])c(C)c3)c2)cc1N(C)C (optimized conformer: 74.24839260288026 kcal/mol)

>  <smiles>  (6) 
COc1ccc(C=Cc2cccc(C=Cc3ccc(O)c(C)c3)c2)cc1N(C)C

>  <score_type>  (6) 
oracle

>  <origin>  (6) 
adg

>  <m_score__min__energy>  (6) 
-12.48

>  <m_primary>  (6) 
energy

$$$$
6:0
     RDKit          3D

 44 46  0  0  0  0  0  0  0  0999 V2000
   57.9600   29.2530   43.7870 C   0  0  0  0  0  0  0  0  0  0  0  0
   56.9600   30.7230   43.8080 S   0  0  0  0  0  0  0  0  0  0  0  0
   55.6410   30.4230   44.4660 O   0  0  0  0  0  0  0  0  0  0  0  0
   56.7020   31.1770   42.3990 O   0  0  0  0  0  0  0  0  0  0  0  0
   57.8000   31.9870   44.6970 C   0  0  0  0  0  0  0  0  0  0  0  0
   57.9890   33.2510   44.1230 C   0  0  0  0  0  0  0  0  0  0  0  0
   58.6300   34.2620   44.8440 C   0  0  0  0  0  0  0  0  0  0  0  0
   59.0880   34.0150   46.1410 C   0  0  0  0  0  0  0  0  0  0  0  0
   58.9140   32.7470   46.7230 C   0  0  0  0  0  0  0  0  0  0  0  0
   59.3320   32.4640   48.0320 O   0  0  0  0  0  0  0  0  0  0  0  0
   60.6550   32.5240   48.4920 C   0  0  0  0  0  0  0  0  0  0  0  0
   61.0700   33.5840   49.2490 N   0  0  0  0  0  0  0  0  0  0  0  0
   62.3450   33.6860   49.7060 C   0  0  0  0  0  0  0  0  0  0  0  0
   63.2790   32.7010   49.3980 C   0  0  0  0  0  0  0  0  0  0  0  0
   64.5530   32.8010   49.8530 F   0  0  0  0  0  0  0  0  0  0  0  0
   62.8960   31.6170   48.6110 C   0  0  0  0  0  0  0  0  0  0  0  0
   61.5770   31.5090   48.1380 C   0  0  0  0  0  0  0  0  0  0  0  0
   61.1900   30.3340   47.3090 C   0  0  0  0  0  0  0  0  0  0  0  0
   61.1940   30.4300   46.0510 O   0  0  0  0  0  0  0  0  0  0  0  0
   60.7680   29.1100   47.9270 N   0  0  0  0  0  0  0  0  0  0  0  0
   59.6710   28.2740   47.5310 C   0  0  0  0  0  0  0  0  0  0  0  0
   59.6270   26.9020   47.8320 C   0  0  0  0  0  0  0  0  0  0  0  0
   58.5240   26.1310   47.4530 C   0  0  0  0  0  0  0  0  0  0  0  0
   57.4390   26.7200   46.7810 C   0  0  0  0  0  0  0  0  0  0  0  0
   56.2730   25.9020   46.3830 C   0  0  0  0  0  0  0  0  0  0  0  0
   56.3400   24.6430   46.3900 O   0  0  0  0  0  0  0  0  0  0  0  0
   55.0860   26.5110   45.9920 O   0  0  0  0  0  0  0  0  0  0  0  0
   57.4770   28.0980   46.5040 C   0  0  0  0  0  0  0  0  0  0  0  0
   58.5810   28.8660   46.8840 C   0  0  0  0  0  0  0  0  0  0  0  0
   58.2560   31.7440   46.0000 C   0  0  0  0  0  0  0  0  0  0  0  0
   58.1731   28.9397   44.8197 H   0  0  0  0  0  0  0  0  0  0  0  0
   57.4202   28.4497   43.2642 H   0  0  0  0  0  0  0  0  0  0  0  0
   58.9054   29.4601   43.2642 H   0  0  0  0  0  0  0  0  0  0  0  0
   57.6317   33.4482   43.1015 H   0  0  0  0  0  0  0  0  0  0  0  0
   58.7743   35.2535   44.3900 H   0  0  0  0  0  0  0  0  0  0  0  0
   59.5861   34.8150   46.7083 H   0  0  0  0  0  0  0  0  0  0  0  0
   60.4040   34.3580   49.4710 H   0  0  0  0  0  0  0  0  0  0  0  0
   62.6401   34.5490   50.3209 H   0  0  0  0  0  0  0  0  0  0  0  0
   63.6318   30.8395   48.3578 H   0  0  0  0  0  0  0  0  0  0  0  0
   60.4646   26.4323   48.3685 H   0  0  0  0  0  0  0  0  0  0  0  0
   58.5051   25.0554   47.6824 H   0  0  0  0  0  0  0  0  0  0  0  0
   56.6324   28.5746   45.9849 H   0  0  0  0  0  0  0  0  0  0  0  0
   58.5930   29.9454   46.6725 H   0  0  0  0  0  0  0  0  0  0  0  0
   58.0957   30.7571   46.4586 H   0  0  0  0  0  0  0  0  0  0  0  0
  1  2  1  0
  2  3  2  0
  2  4  2  0
  2  5  1  0
  5  6  2  0
  6  7  1  0
  7  8  2  0
  8  9  1  0
  9 10  1  0
 10 11  1  0
 11 12  2  0
 12 13  1  0
 13 14  2  0
 14 15  1  0
 14 16  1  0
 16 17  2  0
 17 18  1  0
 18 19  2  0
 18 20  1  0
 20 21  1  0
 21 22  2  0
 22 23  1  0
 23 24  2  0
 24 25  1  0
 25 26  2  0
 25 27  1  0
 24 28  1  0
 28 29  2  0
  9 30  2  0
 30  5  1  0
 17 11  1  0
 29 21  1  0
  1 31  1  0
  1 32  1  0
  1 33  1  0
  6 34  1  0
  7 35  1  0
  8 36  1  0
 12 37  1  0
 13 38  1  0
 16 39  1  0
 22 40  1  0
 23 41  1  0
 28 42  1  0
 29 43  1  0
 30 44  1  0
M  CHG  3  12   1  20  -1  27  -1
M  END
>  <UniqueID>  (7) 
7

>  <SMILES>  (7) 
CS(=O)(=O)c1cccc(Oc2[nH+]cc(F)cc2C(=O)[N-]c2ccc(C(=O)[O-])cc2)c1

>  <Energy>  (7) 
56.300581609921146

>  <Genealogy>  (7) 
CS(=O)(=O)c1cccc(Oc2[nH+]cc(F)cc2C(=O)[N-]c2ccc(C(=O)[O-])cc2)c1 (protonated)
CS(=O)(=O)c1cccc(Oc2[nH+]cc(F)cc2C(=O)[N-]c2ccc(C(=O)[O-])cc2)c1 (3D coordinates assigned)
CS(=O)(=O)c1cccc(Oc2[nH+]cc(F)cc2C(=O)[N-]c2ccc(C(=O)[O-])cc2)c1 (optimized conformer: 56.300581609921146 kcal/mol)

>  <smiles>  (7) 
CS(=O)(=O)c1cccc(Oc2ncc(F)cc2C(=O)Nc2ccc(C(=O)O)cc2)c1

>  <score_type>  (7) 
oracle

>  <origin>  (7) 
adg

>  <m_score__min__energy>  (7) 
-11.09

>  <m_primary>  (7) 
energy

$$$$
7:0
     RDKit          3D

 64 67  0  0  1  0  0  0  0  0999 V2000
   63.9480   32.0200   49.2240 C   0  0  0  0  0  0  0  0  0  0  0  0
   62.7490   31.4700   48.7350 O   0  0  0  0  0  0  0  0  0  0  0  0
   61.8200   32.3030   48.1270 C   0  0  0  0  0  0  0  0  0  0  0  0
   62.0860   33.0390   46.9910 C   0  0  0  0  0  0  0  0  0  0  0  0
   61.1530   33.8660   46.3940 C   0  0  0  0  0  0  0  0  0  0  0  0
   59.9140   33.9450   46.9720 C   0  0  0  0  0  0  0  0  0  0  0  0
   58.8100   34.7990   46.4280 C   0  0  1  0  0  0  0  0  0  0  0  0
   59.3360   35.3410   45.1030 C   0  0  0  0  0  0  0  0  0  0  0  0
   57.6690   33.9880   46.0650 N   0  0  0  0  0  0  0  0  0  0  0  0
   57.7830   32.9520   45.3140 C   0  0  0  0  0  0  0  0  0  0  0  0
   57.8200   31.6770   45.8050 C   0  0  0  0  0  0  0  0  0  0  0  0
   57.9410   30.5980   44.9850 C   0  0  0  0  0  0  0  0  0  0  0  0
   57.9880   29.2170   45.4340 C   0  0  0  0  0  0  0  0  0  0  0  0
   59.2160   28.6470   45.6920 C   0  0  0  0  0  0  0  0  0  0  0  0
   59.3120   27.3280   46.1230 C   0  0  0  0  0  0  0  0  0  0  0  0
   60.6700   26.7570   46.3900 C   0  0  0  0  0  0  0  0  0  0  0  0
   58.1950   26.5630   46.3030 C   0  0  0  0  0  0  0  0  0  0  0  0
   56.9490   27.1190   46.0480 C   0  0  0  0  0  0  0  0  0  0  0  0
   55.8140   26.2960   46.2460 N   0  0  0  0  0  0  0  0  0  0  0  0
   55.7200   25.0930   45.7680 C   0  0  0  0  0  0  0  0  0  0  0  0
   55.1430   24.1470   46.5500 N   0  0  0  0  0  0  0  0  0  0  0  0
   55.0150   22.8640   46.1050 C   0  0  0  0  0  0  0  0  0  0  0  0
   54.3720   21.8330   46.9910 C   0  0  0  0  0  0  0  0  0  0  0  0
   55.4730   22.5100   44.8510 C   0  0  0  0  0  0  0  0  0  0  0  0
   56.0570   23.5210   44.0900 C   0  0  0  0  0  0  0  0  0  0  0  0
   56.1800   24.7760   44.5300 N   0  0  0  0  0  0  0  0  0  0  0  0
   56.8690   28.4340   45.6190 C   0  0  0  0  0  0  0  0  0  0  0  0
   58.0230   30.8170   43.6600 N   0  0  0  0  0  0  0  0  0  0  0  0
   57.9880   32.0770   43.1490 C   0  0  0  0  0  0  0  0  0  0  0  0
   58.0780   32.3390   41.6870 C   0  0  0  0  0  0  0  0  0  0  0  0
   57.8660   33.1430   43.9860 N   0  0  0  0  0  0  0  0  0  0  0  0
   59.5990   33.2220   48.1170 C   0  0  0  0  0  0  0  0  0  0  0  0
   60.5520   32.4040   48.6900 C   0  0  0  0  0  0  0  0  0  0  0  0
   60.1720   31.6480   49.9160 C   0  0  0  0  0  0  0  0  0  0  0  0
   63.9328   32.0130   50.3239 H   0  0  0  0  0  0  0  0  0  0  0  0
   64.7988   31.4221   48.8652 H   0  0  0  0  0  0  0  0  0  0  0  0
   64.0498   33.0549   48.8652 H   0  0  0  0  0  0  0  0  0  0  0  0
   63.0863   32.9644   46.5396 H   0  0  0  0  0  0  0  0  0  0  0  0
   61.3969   34.4397   45.4877 H   0  0  0  0  0  0  0  0  0  0  0  0
   58.5230   35.5591   47.1696 H   0  0  0  0  0  0  0  0  0  0  0  0
   60.0899   36.1179   45.2980 H   0  0  0  0  0  0  0  0  0  0  0  0
   59.7932   34.5225   44.5277 H   0  0  0  0  0  0  0  0  0  0  0  0
   58.5042   35.7735   44.5277 H   0  0  0  0  0  0  0  0  0  0  0  0
   57.7501   31.5191   46.8914 H   0  0  0  0  0  0  0  0  0  0  0  0
   60.1310   29.2422   45.5555 H   0  0  0  0  0  0  0  0  0  0  0  0
   60.8321   26.6888   47.4759 H   0  0  0  0  0  0  0  0  0  0  0  0
   60.7397   25.7534   45.9452 H   0  0  0  0  0  0  0  0  0  0  0  0
   61.4360   27.4092   45.9452 H   0  0  0  0  0  0  0  0  0  0  0  0
   58.2815   25.5212   46.6452 H   0  0  0  0  0  0  0  0  0  0  0  0
   54.5386   22.1001   48.0450 H   0  0  0  0  0  0  0  0  0  0  0  0
   53.2915   21.7977   46.7880 H   0  0  0  0  0  0  0  0  0  0  0  0
   54.8156   20.8471   46.7880 H   0  0  0  0  0  0  0  0  0  0  0  0
   55.3814   21.4815   44.4719 H   0  0  0  0  0  0  0  0  0  0  0  0
   56.4321   23.2752   43.0856 H   0  0  0  0  0  0  0  0  0  0  0  0
   56.6260   25.5300   43.9410 H   0  0  0  0  0  0  0  0  0  0  0  0
   55.8782   28.8680   45.4192 H   0  0  0  0  0  0  0  0  0  0  0  0
   58.4312   33.3672   41.5198 H   0  0  0  0  0  0  0  0  0  0  0  0
   58.7841   31.6299   41.2302 H   0  0  0  0  0  0  0  0  0  0  0  0
   57.0852   32.2135   41.2302 H   0  0  0  0  0  0  0  0  0  0  0  0
   57.8390   34.1180   43.5960 H   0  0  0  0  0  0  0  0  0  0  0  0
   58.5968   33.3013   48.5635 H   0  0  0  0  0  0  0  0  0  0  0  0
   60.4618   32.2245   50.8068 H   0  0  0  0  0  0  0  0  0  0  0  0
   59.0843   31.4840   49.9232 H   0  0  0  0  0  0  0  0  0  0  0  0
   60.6893   30.6772   49.9232 H   0  0  0  0  0  0  0  0  0  0  0  0
  1  2  1  0
  2  3  1  0
  3  4  2  0
  4  5  1  0
  5  6  2  0
  6  7  1  0
  7  8  1  0
  7  9  1  0
  9 10  2  0
 10 11  1  0
 11 12  2  0
 12 13  1  0
 13 14  2  0
 14 15  1  0
 15 16  1  0
 15 17  2  0
 17 18  1  0
 18 19  1  0
 19 20  2  0
 20 21  1  0
 21 22  2  0
 22 23  1  0
 22 24  1  0
 24 25  2  0
 25 26  1  0
 18 27  2  0
 12 28  1  0
 28 29  2  0
 29 30  1  0
 29 31  1  0
  6 32  1  0
 32 33  2  0
 33 34  1  0
 33  3  1  0
 31 10  1  0
 27 13  1  0
 26 20  1  0
  1 35  1  0
  1 36  1  0
  1 37  1  0
  4 38  1  0
  5 39  1  0
  7 40  1  1
  8 41  1  0
  8 42  1  0
  8 43  1  0
 11 44  1  0
 14 45  1  0
 16 46  1  0
 16 47  1  0
 16 48  1  0
 17 49  1  0
 23 50  1  0
 23 51  1  0
 23 52  1  0
 24 53  1  0
 25 54  1  0
 26 55  1  0
 27 56  1  0
 30 57  1  0
 30 58  1  0
 30 59  1  0
 31 60  1  0
 32 61  1  0
 34 62  1  0
 34 63  1  0
 34 64  1  0
M  END
>  <smiles>  (8) 
COc1ccc(C(C)N=c2cc(-c3cc(C)cc(N=c4nc(C)cc[nH]4)c3)nc(C)[nH]2)cc1C

>  <score_type>  (8) 
oracle

>  <origin>  (8) 
adg

>  <m_score__min__energy>  (8) 
-10.17

>  <m_primary>  (8) 
energy

$$$$
8:0
     RDKit          3D

 30 32  0  0  0  0  0  0  0  0999 V2000
   59.7950   25.5580   46.3000 C   0  0  0  0  0  0  0  0  0  0  0  0
   58.4010   26.1140   46.2010 C   0  0  0  0  0  0  0  0  0  0  0  0
   57.2560   25.3830   46.5260 C   0  0  0  0  0  0  0  0  0  0  0  0
   57.2170   24.0400   47.0370 C   0  0  0  0  0  0  0  0  0  0  0  0
   57.1870   22.9590   47.4490 N   0  0  0  0  0  0  0  0  0  0  0  0
   55.8910   26.2950   46.1660 S   0  0  0  0  0  0  0  0  0  0  0  0
   56.7290   27.6410   45.6150 C   0  0  0  0  0  0  0  0  0  0  0  0
   56.0850   28.7930   45.0580 N   0  0  0  0  0  0  0  0  0  0  0  0
   56.7040   29.7450   44.1880 C   0  0  0  0  0  0  0  0  0  0  0  0
   56.6990   29.5560   42.9410 O   0  0  0  0  0  0  0  0  0  0  0  0
   57.4010   30.9250   44.7340 C   0  0  0  0  0  0  0  0  0  0  0  0
   57.7900   31.1000   46.3730 S   0  0  0  0  0  0  0  0  0  0  0  0
   58.5230   32.5980   46.2060 C   0  0  0  0  0  0  0  0  0  0  0  0
   59.1060   33.3840   47.1960 C   0  0  0  0  0  0  0  0  0  0  0  0
   59.6680   34.6130   46.8220 C   0  0  0  0  0  0  0  0  0  0  0  0
   59.6360   35.0280   45.4760 C   0  0  0  0  0  0  0  0  0  0  0  0
   59.0430   34.2170   44.4950 C   0  0  0  0  0  0  0  0  0  0  0  0
   58.4830   32.9900   44.8750 C   0  0  0  0  0  0  0  0  0  0  0  0
   57.8530   32.0560   44.0350 C   0  0  0  0  0  0  0  0  0  0  0  0
   57.6770   32.3020   42.3010 Cl  0  0  0  0  0  0  0  0  0  0  0  0
   58.1010   27.3810   45.6610 C   0  0  0  0  0  0  0  0  0  0  0  0
   59.1030   28.2550   45.1010 C   0  0  0  0  0  0  0  0  0  0  0  0
   59.9080   28.9540   44.6500 N   0  0  0  0  0  0  0  0  0  0  0  0
   60.0714   25.4477   47.3590 H   0  0  0  0  0  0  0  0  0  0  0  0
   59.8338   24.5756   45.8067 H   0  0  0  0  0  0  0  0  0  0  0  0
   60.4993   26.2440   45.8067 H   0  0  0  0  0  0  0  0  0  0  0  0
   59.1253   33.0499   48.2438 H   0  0  0  0  0  0  0  0  0  0  0  0
   60.1357   35.2556   47.5825 H   0  0  0  0  0  0  0  0  0  0  0  0
   60.0786   35.9940   45.1916 H   0  0  0  0  0  0  0  0  0  0  0  0
   59.0184   34.5401   43.4438 H   0  0  0  0  0  0  0  0  0  0  0  0
  1  2  1  0
  2  3  2  0
  3  4  1  0
  4  5  3  0
  3  6  1  0
  6  7  1  0
  7  8  1  0
  8  9  1  0
  9 10  2  0
  9 11  1  0
 11 12  1  0
 12 13  1  0
 13 14  2  0
 14 15  1  0
 15 16  2  0
 16 17  1  0
 17 18  2  0
 18 19  1  0
 19 20  1  0
  7 21  2  0
 21 22  1  0
 22 23  3  0
 21  2  1  0
 19 11  2  0
 18 13  1  0
  1 24  1  0
  1 25  1  0
  1 26  1  0
 14 27  1  0
 15 28  1  0
 16 29  1  0
 17 30  1  0
M  CHG  1   8  -1
M  END
>  <UniqueID>  (9) 
8

>  <SMILES>  (9) 
Cc1c(C#N)sc([N-]C(=O)c2sc3ccccc3c2Cl)c1C#N

>  <Energy>  (9) 
95.23184680013506

>  <Genealogy>  (9) 
Cc1c(C#N)sc([N-]C(=O)c2sc3ccccc3c2Cl)c1C#N (protonated)
Cc1c(C#N)sc([N-]C(=O)c2sc3ccccc3c2Cl)c1C#N (3D coordinates assigned)
Cc1c(C#N)sc([N-]C(=O)c2sc3ccccc3c2Cl)c1C#N (optimized conformer: 95.23184680013506 kcal/mol)

>  <smiles>  (9) 
Cc1c(C#N)sc(NC(=O)c2sc3ccccc3c2Cl)c1C#N

>  <score_type>  (9) 
oracle

>  <origin>  (9) 
adg

>  <m_score__min__energy>  (9) 
-9.75

>  <m_primary>  (9) 
energy

$$$$
9:0
     RDKit          3D

 55 58  0  0  0  0  0  0  0  0999 V2000
   62.3540   34.2170   49.3890 C   0  0  0  0  0  0  0  0  0  0  0  0
   61.0080   34.6010   49.1280 O   0  0  0  0  0  0  0  0  0  0  0  0
   60.1830   33.9970   48.1680 C   0  0  0  0  0  0  0  0  0  0  0  0
   60.3340   34.3750   46.8290 C   0  0  0  0  0  0  0  0  0  0  0  0
   59.5350   33.8010   45.8360 C   0  0  0  0  0  0  0  0  0  0  0  0
   58.5740   32.8360   46.1680 C   0  0  0  0  0  0  0  0  0  0  0  0
   57.7060   32.2370   45.0950 C   0  0  0  0  0  0  0  0  0  0  0  0
   57.4300   30.8330   45.3920 N   0  0  0  0  0  0  0  0  0  0  0  0
   58.4710   29.8450   45.4670 C   0  0  0  0  0  0  0  0  0  0  0  0
   59.6770   30.2000   45.3510 O   0  0  0  0  0  0  0  0  0  0  0  0
   58.1560   28.4140   45.6970 C   0  0  0  0  0  0  0  0  0  0  0  0
   59.1930   27.5040   45.9700 C   0  0  0  0  0  0  0  0  0  0  0  0
   58.9150   26.1520   46.1900 C   0  0  0  0  0  0  0  0  0  0  0  0
   57.5920   25.6830   46.1300 C   0  0  0  0  0  0  0  0  0  0  0  0
   57.2600   24.3330   46.3420 C   0  0  0  0  0  0  0  0  0  0  0  0
   58.1750   23.5010   46.6040 O   0  0  0  0  0  0  0  0  0  0  0  0
   55.9510   23.9210   46.2660 N   0  0  0  0  0  0  0  0  0  0  0  0
   55.6050   22.5080   46.5280 C   0  0  0  0  0  0  0  0  0  0  0  0
   55.3210   22.2990   47.9930 C   0  0  0  0  0  0  0  0  0  0  0  0
   54.0180   22.4450   48.4940 C   0  0  0  0  0  0  0  0  0  0  0  0
   53.7500   22.2180   49.8470 C   0  0  0  0  0  0  0  0  0  0  0  0
   54.7860   21.8370   50.7220 C   0  0  0  0  0  0  0  0  0  0  0  0
   54.5680   21.5970   52.0870 O   0  0  0  0  0  0  0  0  0  0  0  0
   53.9500   22.5220   52.9760 C   0  0  0  0  0  0  0  0  0  0  0  0
   56.0830   21.6890   50.2190 C   0  0  0  0  0  0  0  0  0  0  0  0
   56.3510   21.9160   48.8660 C   0  0  0  0  0  0  0  0  0  0  0  0
   54.9660   24.8360   45.9820 C   0  0  0  0  0  0  0  0  0  0  0  0
   53.7580   24.4840   45.9080 O   0  0  0  0  0  0  0  0  0  0  0  0
   55.2780   26.1400   45.7760 N   0  0  0  0  0  0  0  0  0  0  0  0
   56.5540   26.5860   45.8440 C   0  0  0  0  0  0  0  0  0  0  0  0
   56.8340   27.9400   45.6270 C   0  0  0  0  0  0  0  0  0  0  0  0
   58.4170   32.4570   47.5100 C   0  0  0  0  0  0  0  0  0  0  0  0
   59.2150   33.0310   48.5050 C   0  0  0  0  0  0  0  0  0  0  0  0
   62.5178   34.1703   50.4757 H   0  0  0  0  0  0  0  0  0  0  0  0
   62.5456   33.2283   48.9465 H   0  0  0  0  0  0  0  0  0  0  0  0
   63.0384   34.9557   48.9465 H   0  0  0  0  0  0  0  0  0  0  0  0
   61.0868   35.1292   46.5560 H   0  0  0  0  0  0  0  0  0  0  0  0
   59.6612   34.1085   44.7874 H   0  0  0  0  0  0  0  0  0  0  0  0
   56.7569   32.7908   45.0446 H   0  0  0  0  0  0  0  0  0  0  0  0
   58.2317   32.3025   44.1310 H   0  0  0  0  0  0  0  0  0  0  0  0
   56.4460   30.5710   45.6190 H   0  0  0  0  0  0  0  0  0  0  0  0
   60.2331   27.8598   46.0108 H   0  0  0  0  0  0  0  0  0  0  0  0
   59.7349   25.4527   46.4109 H   0  0  0  0  0  0  0  0  0  0  0  0
   54.7124   22.2392   45.9440 H   0  0  0  0  0  0  0  0  0  0  0  0
   56.4540   21.8728   46.2353 H   0  0  0  0  0  0  0  0  0  0  0  0
   53.2024   22.7400   47.8175 H   0  0  0  0  0  0  0  0  0  0  0  0
   52.7258   22.3374   50.2300 H   0  0  0  0  0  0  0  0  0  0  0  0
   54.1505   22.2218   54.0151 H   0  0  0  0  0  0  0  0  0  0  0  0
   54.3578   23.5283   52.7998 H   0  0  0  0  0  0  0  0  0  0  0  0
   52.8642   22.5304   52.7998 H   0  0  0  0  0  0  0  0  0  0  0  0
   56.8990   21.3914   50.8940 H   0  0  0  0  0  0  0  0  0  0  0  0
   57.3750   21.7938   48.4833 H   0  0  0  0  0  0  0  0  0  0  0  0
   56.0146   28.6379   45.4002 H   0  0  0  0  0  0  0  0  0  0  0  0
   57.6621   31.7042   47.7810 H   0  0  0  0  0  0  0  0  0  0  0  0
   59.0862   32.7270   49.5543 H   0  0  0  0  0  0  0  0  0  0  0  0
  1  2  1  0
  2  3  1  0
  3  4  2  0
  4  5  1  0
  5  6  2  0
  6  7  1  0
  7  8  1  0
  8  9  1  0
  9 10  2  0
  9 11  1  0
 11 12  2  0
 12 13  1  0
 13 14  2  0
 14 15  1  0
 15 16  2  0
 15 17  1  0
 17 18  1  0
 18 19  1  0
 19 20  2  0
 20 21  1  0
 21 22  2  0
 22 23  1  0
 23 24  1  0
 22 25  1  0
 25 26  2  0
 17 27  1  0
 27 28  2  0
 27 29  1  0
 29 30  1  0
 30 31  2  0
  6 32  1  0
 32 33  2  0
 33  3  1  0
 31 11  1  0
 30 14  1  0
 26 19  1  0
  1 34  1  0
  1 35  1  0
  1 36  1  0
  4 37  1  0
  5 38  1  0
  7 39  1  0
  7 40  1  0
  8 41  1  0
 12 42  1  0
 13 43  1  0
 18 44  1  0
 18 45  1  0
 20 46  1  0
 21 47  1  0
 24 48  1  0
 24 49  1  0
 24 50  1  0
 25 51  1  0
 26 52  1  0
 31 53  1  0
 32 54  1  0
 33 55  1  0
M  CHG  1  29  -1
M  END
>  <UniqueID>  (10) 
9

>  <SMILES>  (10) 
COc1ccc(CNC(=O)c2ccc3c(=O)n(Cc4ccc(OC)cc4)c(=O)[n-]c3c2)cc1

>  <Energy>  (10) 
66.09581331174212

>  <Genealogy>  (10) 
COc1ccc(CNC(=O)c2ccc3c(=O)n(Cc4ccc(OC)cc4)c(=O)[n-]c3c2)cc1 (protonated)
COc1ccc(CNC(=O)c2ccc3c(=O)n(Cc4ccc(OC)cc4)c(=O)[n-]c3c2)cc1 (3D coordinates assigned)
COc1ccc(CNC(=O)c2ccc3c(=O)n(Cc4ccc(OC)cc4)c(=O)[n-]c3c2)cc1 (optimized conformer: 66.09581331174212 kcal/mol)

>  <smiles>  (10) 
COc1ccc(CNC(=O)c2ccc3c(=O)n(Cc4ccc(OC)cc4)c(=O)[nH]c3c2)cc1

>  <score_type>  (10) 
oracle

>  <origin>  (10) 
adg

>  <m_score__min__energy>  (10) 
-9.0199999999999996

>  <m_primary>  (10) 
energy

$$$$
10:0
     RDKit          3D

 37 39  0  0  0  0  0  0  0  0999 V2000
   54.9580   29.4610   43.4880 N   0  0  0  0  0  0  0  0  0  0  0  0
   56.0800   30.0190   43.7900 C   0  0  0  0  0  0  0  0  0  0  0  0
   56.2980   30.8450   44.8430 N   0  0  0  0  0  0  0  0  0  0  0  0
   57.5910   31.2410   44.8420 C   0  0  0  0  0  0  0  0  0  0  0  0
   58.2390   32.1090   45.7840 N   0  0  0  0  0  0  0  0  0  0  0  0
   58.1810   33.5210   45.5580 C   0  0  0  0  0  0  0  0  0  0  0  0
   59.1830   34.3380   46.2970 C   0  0  0  0  0  0  0  0  0  0  0  0
   60.1590   33.5850   47.0490 N   0  0  0  0  0  0  0  0  0  0  0  0
   60.7460   34.5120   48.0300 C   0  0  0  0  0  0  0  0  0  0  0  0
   61.8820   33.8430   48.7060 C   0  0  0  0  0  0  0  0  0  0  0  0
   61.7760   33.5380   50.0500 C   0  0  0  0  0  0  0  0  0  0  0  0
   62.8060   32.8910   50.7440 C   0  0  0  0  0  0  0  0  0  0  0  0
   63.9740   32.5320   50.1080 C   0  0  0  0  0  0  0  0  0  0  0  0
   64.9640   31.9080   50.7810 F   0  0  0  0  0  0  0  0  0  0  0  0
   64.0800   32.8400   48.7600 C   0  0  0  0  0  0  0  0  0  0  0  0
   63.0510   33.4850   48.0720 C   0  0  0  0  0  0  0  0  0  0  0  0
   63.2500   33.8430   46.3790 Cl  0  0  0  0  0  0  0  0  0  0  0  0
   59.5530   32.5030   47.8040 C   0  0  0  0  0  0  0  0  0  0  0  0
   58.9210   31.4940   46.9080 C   0  0  0  0  0  0  0  0  0  0  0  0
   58.1740   30.6490   43.7700 N   0  0  0  0  0  0  0  0  0  0  0  0
   57.2510   29.9100   43.1380 N   0  0  0  0  0  0  0  0  0  0  0  0
   54.9020   28.8620   42.6220 H   0  0  0  0  0  0  0  0  0  0  0  0
   58.3295   33.6969   44.4824 H   0  0  0  0  0  0  0  0  0  0  0  0
   57.1983   33.8431   45.9329 H   0  0  0  0  0  0  0  0  0  0  0  0
   59.7220   34.9580   45.5656 H   0  0  0  0  0  0  0  0  0  0  0  0
   58.6143   34.9221   47.0356 H   0  0  0  0  0  0  0  0  0  0  0  0
   61.1037   35.4159   47.5152 H   0  0  0  0  0  0  0  0  0  0  0  0
   59.9866   34.7965   48.7732 H   0  0  0  0  0  0  0  0  0  0  0  0
   60.8571   33.8111   50.5894 H   0  0  0  0  0  0  0  0  0  0  0  0
   62.6804   32.6660   51.8134 H   0  0  0  0  0  0  0  0  0  0  0  0
   64.9987   32.5690   48.2191 H   0  0  0  0  0  0  0  0  0  0  0  0
   60.3301   32.0088   48.4056 H   0  0  0  0  0  0  0  0  0  0  0  0
   58.7694   32.9298   48.4473 H   0  0  0  0  0  0  0  0  0  0  0  0
   59.7029   30.8226   46.5235 H   0  0  0  0  0  0  0  0  0  0  0  0
   58.1728   30.9422   47.4959 H   0  0  0  0  0  0  0  0  0  0  0  0
   59.1820   30.7710   43.5090 H   0  0  0  0  0  0  0  0  0  0  0  0
   57.4000   29.3220   42.2630 H   0  0  0  0  0  0  0  0  0  0  0  0
  1  2  2  3
  2  3  1  0
  3  4  2  0
  4  5  1  0
  5  6  1  0
  6  7  1  0
  7  8  1  0
  8  9  1  0
  9 10  1  0
 10 11  2  0
 11 12  1  0
 12 13  2  0
 13 14  1  0
 13 15  1  0
 15 16  2  0
 16 17  1  0
  8 18  1  0
 18 19  1  0
  4 20  1  0
 20 21  1  0
 21  2  1  0
 19  5  1  0
 16 10  1  0
  1 22  1  0
  6 23  1  0
  6 24  1  0
  7 25  1  0
  7 26  1  0
  9 27  1  0
  9 28  1  0
 11 29  1  0
 12 30  1  0
 15 31  1  0
 18 32  1  0
 18 33  1  0
 19 34  1  0
 19 35  1  0
 20 36  1  0
 21 37  1  0
M  END
>  <smiles>  (11) 
N=c1nc(N2CCN(Cc3ccc(F)cc3Cl)CC2)[nH][nH]1

>  <score_type>  (11) 
oracle

>  <origin>  (11) 
adg

>  <m_score__min__energy>  (11) 
-7.4199999999999999

>  <m_primary>  (11) 
energy

$$$$
11:0
     RDKit          3D

 18 18  0  0  0  0  0  0  0  0999 V2000
   56.9700   31.5660   44.8740 N   0  0  0  0  0  0  0  0  0  0  0  0
   57.8690   30.9060   45.1810 C   0  0  0  0  0  0  0  0  0  0  0  0
   58.9890   30.0820   45.5630 C   0  0  0  0  0  0  0  0  0  0  0  0
   60.0330   30.6910   46.3440 C   0  0  0  0  0  0  0  0  0  0  0  0
   60.8720   31.1800   46.9730 N   0  0  0  0  0  0  0  0  0  0  0  0
   59.1280   28.8100   45.1530 C   0  0  0  0  0  0  0  0  0  0  0  0
   58.3390   27.6650   45.6640 C   0  0  0  0  0  0  0  0  0  0  0  0
   58.9570   26.4930   46.1390 C   0  0  0  0  0  0  0  0  0  0  0  0
   58.1810   25.4180   46.5840 C   0  0  0  0  0  0  0  0  0  0  0  0
   56.7860   25.4940   46.5410 C   0  0  0  0  0  0  0  0  0  0  0  0
   56.1640   26.6420   46.0440 C   0  0  0  0  0  0  0  0  0  0  0  0
   54.7780   26.7140   45.9890 O   0  0  0  0  0  0  0  0  0  0  0  0
   56.9380   27.7210   45.5980 C   0  0  0  0  0  0  0  0  0  0  0  0
   59.8836   28.6036   44.3807 H   0  0  0  0  0  0  0  0  0  0  0  0
   60.0545   26.4223   46.1603 H   0  0  0  0  0  0  0  0  0  0  0  0
   58.6696   24.5106   46.9687 H   0  0  0  0  0  0  0  0  0  0  0  0
   56.1779   24.6499   46.8985 H   0  0  0  0  0  0  0  0  0  0  0  0
   56.4450   28.6174   45.1937 H   0  0  0  0  0  0  0  0  0  0  0  0
  1  2  3  0
  2  3  1  0
  3  4  1  0
  4  5  3  0
  3  6  2  3
  6  7  1  0
  7  8  2  0
  8  9  1  0
  9 10  2  0
 10 11  1  0
 11 12  1  0
 11 13  2  0
 13  7  1  0
  6 14  1  0
  8 15  1  0
  9 16  1  0
 10 17  1  0
 13 18  1  0
M  CHG  1  12  -1
M  END
>  <UniqueID>  (12) 
10

>  <SMILES>  (12) 
N#CC(C#N)=Cc1cccc([O-])c1

>  <Energy>  (12) 
20.430220241681962

>  <Genealogy>  (12) 
N#CC(C#N)=Cc1cccc([O-])c1 (protonated)
N#CC(C#N)=Cc1cccc([O-])c1 (3D coordinates assigned)
N#CC(C#N)=Cc1cccc([O-])c1 (optimized conformer: 20.430220241681962 kcal/mol)

>  <smiles>  (12) 
N#CC(C#N)=Cc1cccc(O)c1

>  <score_type>  (12) 
oracle

>  <origin>  (12) 
adg

>  <m_score__min__energy>  (12) 
-8.7400000000000002

>  <m_primary>  (12) 
energy

$$$$
12:0
     RDKit          3D

 53 57  0  0  1  0  0  0  0  0999 V2000
   57.0260   31.1040   45.2750 O   0  0  0  0  0  0  0  0  0  0  0  0
   58.2050   31.3900   45.6730 C   0  0  0  0  0  0  0  0  0  0  0  0
   59.0050   30.2860   46.0650 N   0  0  0  0  0  0  0  0  0  0  0  0
   58.4450   28.9930   45.9830 C   0  0  0  0  0  0  0  0  0  0  0  0
   57.9700   28.5860   44.7320 C   0  0  0  0  0  0  0  0  0  0  0  0
   57.4060   27.3390   44.5550 C   0  0  0  0  0  0  0  0  0  0  0  0
   57.3070   26.4720   45.6310 C   0  0  0  0  0  0  0  0  0  0  0  0
   56.6930   25.0980   45.4650 C   0  0  0  0  0  0  0  0  0  0  0  0
   55.4150   25.1890   46.1320 N   0  0  0  0  0  0  0  0  0  0  0  0
   54.5250   24.3180   45.9340 C   0  0  0  0  0  0  0  0  0  0  0  0
   53.4210   24.6670   45.2490 N   0  0  0  0  0  0  0  0  0  0  0  0
   52.5040   23.7020   45.0660 C   0  0  0  0  0  0  0  0  0  0  0  0
   52.5940   22.4590   45.4940 N   0  0  0  0  0  0  0  0  0  0  0  0
   53.6960   22.0190   46.2060 C   0  0  0  0  0  0  0  0  0  0  0  0
   53.9180   20.8120   46.6920 C   0  0  0  0  0  0  0  0  0  0  0  0
   55.0980   20.5460   47.3910 C   0  0  0  0  0  0  0  0  0  0  0  0
   55.9760   22.2190   47.3370 S   0  0  0  0  0  0  0  0  0  0  0  0
   54.6450   23.0230   46.3940 C   0  0  0  0  0  0  0  0  0  0  0  0
   57.7820   26.8880   46.8660 C   0  0  0  0  0  0  0  0  0  0  0  0
   58.3480   28.1320   47.0590 C   0  0  0  0  0  0  0  0  0  0  0  0
   58.6800   32.7690   45.7170 C   0  0  0  0  0  0  0  0  0  0  0  0
   58.4340   33.6870   44.7190 C   0  0  0  0  0  0  0  0  0  0  0  0
   58.9300   34.9750   44.8580 C   0  0  0  0  0  0  0  0  0  0  0  0
   59.6610   35.3780   45.9560 C   0  0  0  0  0  0  0  0  0  0  0  0
   59.9050   34.4540   46.9540 C   0  0  0  0  0  0  0  0  0  0  0  0
   60.6390   34.8300   48.0760 O   0  0  0  0  0  0  0  0  0  0  0  0
   61.8580   34.1820   48.2690 C   0  0  0  0  0  0  0  0  0  0  0  0
   62.5720   33.6040   47.2410 C   0  0  0  0  0  0  0  0  0  0  0  0
   63.7680   32.9910   47.5640 C   0  0  0  0  0  0  0  0  0  0  0  0
   64.2520   32.9440   48.8600 C   0  0  0  0  0  0  0  0  0  0  0  0
   63.5200   33.5320   49.8830 C   0  0  0  0  0  0  0  0  0  0  0  0
   62.3220   34.1500   49.5820 C   0  0  0  0  0  0  0  0  0  0  0  0
   59.4090   33.1710   46.8150 C   0  0  0  0  0  0  0  0  0  0  0  0
   59.9740   30.4300   46.4020 H   0  0  0  0  0  0  0  0  0  0  0  0
   58.0473   29.2713   43.8750 H   0  0  0  0  0  0  0  0  0  0  0  0
   57.0368   27.0349   43.5644 H   0  0  0  0  0  0  0  0  0  0  0  0
   56.5593   24.8582   44.3998 H   0  0  0  0  0  0  0  0  0  0  0  0
   57.3276   24.3033   45.8842 H   0  0  0  0  0  0  0  0  0  0  0  0
   53.3230   25.6270   44.9030 H   0  0  0  0  0  0  0  0  0  0  0  0
   51.5958   23.9744   44.5083 H   0  0  0  0  0  0  0  0  0  0  0  0
   53.1736   20.0153   46.5466 H   0  0  0  0  0  0  0  0  0  0  0  0
   55.4306   19.6051   47.8537 H   0  0  0  0  0  0  0  0  0  0  0  0
   57.7049   26.2019   47.7223 H   0  0  0  0  0  0  0  0  0  0  0  0
   58.7151   28.4324   48.0515 H   0  0  0  0  0  0  0  0  0  0  0  0
   57.8546   33.4034   43.8280 H   0  0  0  0  0  0  0  0  0  0  0  0
   58.7321   35.7052   44.0595 H   0  0  0  0  0  0  0  0  0  0  0  0
   60.0397   36.4077   46.0351 H   0  0  0  0  0  0  0  0  0  0  0  0
   62.2044   33.6297   46.2046 H   0  0  0  0  0  0  0  0  0  0  0  0
   64.3570   32.5232   46.7614 H   0  0  0  0  0  0  0  0  0  0  0  0
   65.2080   32.4453   49.0776 H   0  0  0  0  0  0  0  0  0  0  0  0
   63.8891   33.5060   50.9189 H   0  0  0  0  0  0  0  0  0  0  0  0
   61.7316   34.6191   50.3829 H   0  0  0  0  0  0  0  0  0  0  0  0
   59.6044   32.4408   47.6141 H   0  0  0  0  0  0  0  0  0  0  0  0
  1  2  2  0
  2  3  1  0
  3  4  1  0
  4  5  2  0
  5  6  1  0
  6  7  2  0
  7  8  1  0
  8  9  1  0
  9 10  2  0
 10 11  1  0
 11 12  1  0
 12 13  2  0
 13 14  1  0
 14 15  1  0
 15 16  2  0
 16 17  1  0
 17 18  1  0
  7 19  1  0
 19 20  2  0
  2 21  1  0
 21 22  2  0
 22 23  1  0
 23 24  2  0
 24 25  1  0
 25 26  1  0
 26 27  1  0
 27 28  2  0
 28 29  1  0
 29 30  2  0
 30 31  1  0
 31 32  2  0
 25 33  2  0
 20  4  1  0
 33 21  1  0
 18 10  1  0
 32 27  1  0
 18 14  2  0
  3 34  1  0
  5 35  1  0
  6 36  1  0
  8 37  1  0
  8 38  1  0
 11 39  1  0
 12 40  1  0
 15 41  1  0
 16 42  1  0
 19 43  1  0
 20 44  1  0
 22 45  1  0
 23 46  1  0
 24 47  1  0
 28 48  1  0
 29 49  1  0
 30 50  1  0
 31 51  1  0
 32 52  1  0
 33 53  1  0
M  END
>  <smiles>  (13) 
O=C(Nc1ccc(CN=c2[nH]cnc3ccsc23)cc1)c1cccc(Oc2ccccc2)c1

>  <score_type>  (13) 
oracle

>  <origin>  (13) 
adg

>  <m_score__min__energy>  (13) 
-9.4399999999999995

>  <m_primary>  (13) 
energy

$$$$
13:0
     RDKit          3D

 54 57  0  0  0  0  0  0  0  0999 V2000
   53.8120   30.4800   51.2720 C   0  0  0  0  0  0  0  0  0  0  0  0
   55.0220   30.0370   51.9760 N   0  0  0  0  0  0  0  0  0  0  0  0
   54.9890   28.8050   52.7740 C   0  0  0  0  0  0  0  0  0  0  0  0
   56.2280   30.8280   51.8670 C   0  0  0  0  0  0  0  0  0  0  0  0
   56.3130   32.1340   52.3870 C   0  0  0  0  0  0  0  0  0  0  0  0
   57.4710   32.8320   52.2610 N   0  0  0  0  0  0  0  0  0  0  0  0
   58.5590   32.2970   51.6450 C   0  0  0  0  0  0  0  0  0  0  0  0
   59.7330   33.0280   51.4910 C   0  0  0  0  0  0  0  0  0  0  0  0
   59.7890   34.2050   51.9420 O   0  0  0  0  0  0  0  0  0  0  0  0
   60.8070   32.4740   50.8420 N   0  0  0  0  0  0  0  0  0  0  0  0
   62.0130   33.2930   50.5990 C   0  0  0  0  0  0  0  0  0  0  0  0
   62.2010   33.5140   49.1180 C   0  0  0  0  0  0  0  0  0  0  0  0
   63.4090   33.1540   48.4950 C   0  0  0  0  0  0  0  0  0  0  0  0
   63.5690   33.3180   47.1140 C   0  0  0  0  0  0  0  0  0  0  0  0
   62.5220   33.8330   46.3460 C   0  0  0  0  0  0  0  0  0  0  0  0
   61.3160   34.1900   46.9560 C   0  0  0  0  0  0  0  0  0  0  0  0
   61.1530   34.0310   48.3360 C   0  0  0  0  0  0  0  0  0  0  0  0
   60.7250   31.1940   50.3460 C   0  0  0  0  0  0  0  0  0  0  0  0
   61.7160   30.6940   49.7410 O   0  0  0  0  0  0  0  0  0  0  0  0
   59.5740   30.4540   50.4900 N   0  0  0  0  0  0  0  0  0  0  0  0
   59.4560   29.1280   49.8500 C   0  0  0  0  0  0  0  0  0  0  0  0
   59.1540   29.3060   48.3940 C   0  0  0  0  0  0  0  0  0  0  0  0
   58.3510   28.5270   47.8130 O   0  0  0  0  0  0  0  0  0  0  0  0
   59.7460   30.3950   47.6750 N   0  0  0  0  0  0  0  0  0  0  0  0
   58.9740   31.4220   47.0280 C   0  0  0  0  0  0  0  0  0  0  0  0
   58.3950   32.4840   47.7520 C   0  0  0  0  0  0  0  0  0  0  0  0
   57.6830   33.4870   47.0870 C   0  0  0  0  0  0  0  0  0  0  0  0
   57.5550   33.4490   45.6960 C   0  0  0  0  0  0  0  0  0  0  0  0
   58.1360   32.4080   44.9680 C   0  0  0  0  0  0  0  0  0  0  0  0
   58.8400   31.3970   45.6290 C   0  0  0  0  0  0  0  0  0  0  0  0
   58.4920   30.9990   51.1280 C   0  0  0  0  0  0  0  0  0  0  0  0
   57.3260   30.3060   51.2520 N   0  0  0  0  0  0  0  0  0  0  0  0
   53.0429   30.7616   52.0063 H   0  0  0  0  0  0  0  0  0  0  0  0
   54.0521   31.3485   50.6411 H   0  0  0  0  0  0  0  0  0  0  0  0
   53.4345   29.6618   50.6411 H   0  0  0  0  0  0  0  0  0  0  0  0
   54.9959   29.0608   53.8438 H   0  0  0  0  0  0  0  0  0  0  0  0
   54.0754   28.2396   52.5380 H   0  0  0  0  0  0  0  0  0  0  0  0
   55.8710   28.1915   52.5380 H   0  0  0  0  0  0  0  0  0  0  0  0
   55.4466   32.5859   52.8922 H   0  0  0  0  0  0  0  0  0  0  0  0
   61.8992   34.2655   51.1003 H   0  0  0  0  0  0  0  0  0  0  0  0
   62.8921   32.7661   50.9985 H   0  0  0  0  0  0  0  0  0  0  0  0
   64.2327   32.7413   49.0960 H   0  0  0  0  0  0  0  0  0  0  0  0
   64.5191   33.0413   46.6337 H   0  0  0  0  0  0  0  0  0  0  0  0
   62.6467   33.9577   45.2602 H   0  0  0  0  0  0  0  0  0  0  0  0
   60.4935   34.5968   46.3494 H   0  0  0  0  0  0  0  0  0  0  0  0
   60.2015   34.3114   48.8113 H   0  0  0  0  0  0  0  0  0  0  0  0
   60.4024   28.5792   49.9645 H   0  0  0  0  0  0  0  0  0  0  0  0
   58.6446   28.5593   50.3277 H   0  0  0  0  0  0  0  0  0  0  0  0
   60.7720   30.5470   47.7960 H   0  0  0  0  0  0  0  0  0  0  0  0
   58.5039   32.5239   48.8459 H   0  0  0  0  0  0  0  0  0  0  0  0
   57.2234   34.3064   47.6591 H   0  0  0  0  0  0  0  0  0  0  0  0
   56.9962   34.2396   45.1738 H   0  0  0  0  0  0  0  0  0  0  0  0
   58.0394   32.3836   43.8725 H   0  0  0  0  0  0  0  0  0  0  0  0
   59.2916   30.5773   45.0509 H   0  0  0  0  0  0  0  0  0  0  0  0
  1  2  1  0
  2  3  1  0
  2  4  1  0
  4  5  2  0
  5  6  1  0
  6  7  2  0
  7  8  1  0
  8  9  2  0
  8 10  1  0
 10 11  1  0
 11 12  1  0
 12 13  2  0
 13 14  1  0
 14 15  2  0
 15 16  1  0
 16 17  2  0
 10 18  1  0
 18 19  2  0
 18 20  1  0
 20 21  1  0
 21 22  1  0
 22 23  2  0
 22 24  1  0
 24 25  1  0
 25 26  2  0
 26 27  1  0
 27 28  2  0
 28 29  1  0
 29 30  2  0
 20 31  1  0
 31 32  2  0
 32  4  1  0
 31  7  1  0
 17 12  1  0
 30 25  1  0
  1 33  1  0
  1 34  1  0
  1 35  1  0
  3 36  1  0
  3 37  1  0
  3 38  1  0
  5 39  1  0
 11 40  1  0
 11 41  1  0
 13 42  1  0
 14 43  1  0
 15 44  1  0
 16 45  1  0
 17 46  1  0
 21 47  1  0
 21 48  1  0
 24 49  1  0
 26 50  1  0
 27 51  1  0
 28 52  1  0
 29 53  1  0
 30 54  1  0
M  END
>  <UniqueID>  (14) 
11

>  <SMILES>  (14) 
CN(C)c1cnc2c(=O)n(Cc3ccccc3)c(=O)n(CC(=O)Nc3ccccc3)c2n1

>  <Energy>  (14) 
69.01589957048533

>  <Genealogy>  (14) 
CN(C)c1cnc2c(=O)n(Cc3ccccc3)c(=O)n(CC(=O)Nc3ccccc3)c2n1 (3D coordinates assigned)
CN(C)c1cnc2c(=O)n(Cc3ccccc3)c(=O)n(CC(=O)Nc3ccccc3)c2n1 (optimized conformer: 69.01589957048533 kcal/mol)

>  <smiles>  (14) 
CN(C)c1cnc2c(=O)n(Cc3ccccc3)c(=O)n(CC(=O)Nc3ccccc3)c2n1

>  <score_type>  (14) 
oracle

>  <origin>  (14) 
adg

>  <m_score__min__energy>  (14) 
-8.6799999999999997

>  <m_primary>  (14) 
energy

$$$$
14:0
     RDKit          3D

 65 69  0  0  0  0  0  0  0  0999 V2000
   57.5944   20.2220   44.4665 H   0  0  0  0  0  0  0  0  0  0  0  0
   57.2780   21.1700   44.9260 C   0  0  0  0  0  0  0  0  0  0  0  0
   57.2740   21.3150   46.3200 C   0  0  0  0  0  0  0  0  0  0  0  0
   57.7320   20.1960   47.2030 C   0  0  0  0  0  0  0  0  0  0  0  0
   57.6125   20.4880   48.2568 H   0  0  0  0  0  0  0  0  0  0  0  0
   57.1288   19.2987   47.0005 H   0  0  0  0  0  0  0  0  0  0  0  0
   58.7912   19.9791   47.0005 H   0  0  0  0  0  0  0  0  0  0  0  0
   56.8830   22.4940   46.8740 N   0  0  0  0  0  0  0  0  0  0  0  0
   56.4860   23.5560   46.1160 C   0  0  0  0  0  0  0  0  0  0  0  0
   56.1120   24.6750   46.6630 N   0  0  0  0  0  0  0  0  0  0  0  0
   56.1780   25.9890   46.0770 C   0  0  0  0  0  0  0  0  0  0  0  0
   55.1520   26.7190   46.0060 O   0  0  0  0  0  0  0  0  0  0  0  0
   57.4970   26.5370   45.5960 C   0  0  1  0  0  0  0  0  0  0  0  0
   57.7244   26.0937   44.6153 H   0  0  0  0  0  0  0  0  0  0  0  0
   57.3890   28.0520   45.4100 C   0  0  0  0  0  0  0  0  0  0  0  0
   56.5963   28.2699   44.6791 H   0  0  0  0  0  0  0  0  0  0  0  0
   57.1511   28.5102   46.3813 H   0  0  0  0  0  0  0  0  0  0  0  0
   58.7120   28.6340   44.9040 C   0  0  1  0  0  0  0  0  0  0  0  0
   58.8110   28.3567   43.8441 H   0  0  0  0  0  0  0  0  0  0  0  0
   58.6800   30.1420   45.0080 C   0  0  0  0  0  0  0  0  0  0  0  0
   59.4370   30.8280   45.9030 N   0  0  0  0  0  0  0  0  0  0  0  0
   59.0220   32.0980   45.7520 C   0  0  0  0  0  0  0  0  0  0  0  0
   59.4610   33.2200   46.4480 C   0  0  0  0  0  0  0  0  0  0  0  0
   60.2616   33.1456   47.1986 H   0  0  0  0  0  0  0  0  0  0  0  0
   58.8470   34.4530   46.1600 C   0  0  0  0  0  0  0  0  0  0  0  0
   59.1701   35.3615   46.6893 H   0  0  0  0  0  0  0  0  0  0  0  0
   57.8180   34.5310   45.1950 C   0  0  0  0  0  0  0  0  0  0  0  0
   57.3425   35.4995   44.9806 H   0  0  0  0  0  0  0  0  0  0  0  0
   57.3970   33.3780   44.5060 C   0  0  0  0  0  0  0  0  0  0  0  0
   56.5960   33.4249   43.7535 H   0  0  0  0  0  0  0  0  0  0  0  0
   58.0330   32.1710   44.8120 C   0  0  0  0  0  0  0  0  0  0  0  0
   57.8050   30.9360   44.3270 N   0  0  0  0  0  0  0  0  0  0  0  0
   56.7800   30.5160   43.3700 C   0  0  0  0  0  0  0  0  0  0  0  0
   55.8959   30.1537   43.9151 H   0  0  0  0  0  0  0  0  0  0  0  0
   56.4964   31.3704   42.7379 H   0  0  0  0  0  0  0  0  0  0  0  0
   57.1775   29.7083   42.7379 H   0  0  0  0  0  0  0  0  0  0  0  0
   59.9680   28.0130   45.5810 C   0  0  0  0  0  0  0  0  0  0  0  0
   60.4797   27.3823   44.8391 H   0  0  0  0  0  0  0  0  0  0  0  0
   60.5802   28.8576   45.9300 H   0  0  0  0  0  0  0  0  0  0  0  0
   59.6850   27.1810   46.7770 N   0  0  1  0  0  0  0  0  0  0  0  0
   60.5910   26.6910   46.9730 H   0  0  0  0  0  0  0  0  0  0  0  0
   59.3610   27.9890   47.9850 C   0  0  0  0  0  0  0  0  0  0  0  0
   58.5794   28.7180   47.7249 H   0  0  0  0  0  0  0  0  0  0  0  0
   59.0187   27.3002   48.7713 H   0  0  0  0  0  0  0  0  0  0  0  0
   60.5910   28.7490   48.5220 C   0  0  0  0  0  0  0  0  0  0  0  0
   60.9843   28.2225   49.4041 H   0  0  0  0  0  0  0  0  0  0  0  0
   61.3546   28.7907   47.7313 H   0  0  0  0  0  0  0  0  0  0  0  0
   60.2180   30.1560   48.9110 C   0  0  0  0  0  0  0  0  0  0  0  0
   61.2080   31.1520   48.9870 C   0  0  0  0  0  0  0  0  0  0  0  0
   62.2528   30.9064   48.7459 H   0  0  0  0  0  0  0  0  0  0  0  0
   60.8680   32.4530   49.3680 C   0  0  0  0  0  0  0  0  0  0  0  0
   61.6441   33.2308   49.4191 H   0  0  0  0  0  0  0  0  0  0  0  0
   59.5440   32.7670   49.6840 C   0  0  0  0  0  0  0  0  0  0  0  0
   59.2792   33.7917   49.9837 H   0  0  0  0  0  0  0  0  0  0  0  0
   58.5560   31.7820   49.6200 C   0  0  0  0  0  0  0  0  0  0  0  0
   57.5135   32.0325   49.8656 H   0  0  0  0  0  0  0  0  0  0  0  0
   58.8910   30.4780   49.2440 C   0  0  0  0  0  0  0  0  0  0  0  0
   58.1132   29.7010   49.2086 H   0  0  0  0  0  0  0  0  0  0  0  0
   58.6890   26.1110   46.5060 C   0  0  0  0  0  0  0  0  0  0  0  0
   59.2104   25.2752   46.0166 H   0  0  0  0  0  0  0  0  0  0  0  0
   58.2526   25.8429   47.4795 H   0  0  0  0  0  0  0  0  0  0  0  0
   56.4850   23.4430   44.7180 C   0  0  0  0  0  0  0  0  0  0  0  0
   56.1783   24.2947   44.0930 H   0  0  0  0  0  0  0  0  0  0  0  0
   56.8760   22.2420   44.1270 C   0  0  0  0  0  0  0  0  0  0  0  0
   56.8677   22.1393   43.0318 H   0  0  0  0  0  0  0  0  0  0  0  0
  1  2  1  0
  2  3  2  0
  3  4  1  0
  4  5  1  0
  4  6  1  0
  4  7  1  0
  3  8  1  0
  8  9  1  0
  9 10  2  0
 10 11  1  0
 11 12  2  0
 11 13  1  0
 13 14  1  6
 13 15  1  0
 15 16  1  0
 15 17  1  0
 15 18  1  0
 18 19  1  6
 18 20  1  0
 20 21  2  0
 21 22  1  0
 22 23  2  0
 23 24  1  0
 23 25  1  0
 25 26  1  0
 25 27  2  0
 27 28  1  0
 27 29  1  0
 29 30  1  0
 29 31  2  0
 31 32  1  0
 32 33  1  0
 33 34  1  0
 33 35  1  0
 33 36  1  0
 18 37  1  0
 37 38  1  0
 37 39  1  0
 37 40  1  0
 40 41  1  1
 40 42  1  0
 42 43  1  0
 42 44  1  0
 42 45  1  0
 45 46  1  0
 45 47  1  0
 45 48  1  0
 48 49  2  0
 49 50  1  0
 49 51  1  0
 51 52  1  0
 51 53  2  0
 53 54  1  0
 53 55  1  0
 55 56  1  0
 55 57  2  0
 57 58  1  0
 40 59  1  0
 59 60  1  0
 59 61  1  0
  9 62  1  0
 62 63  1  0
 62 64  2  0
 64 65  1  0
 64  2  1  0
 59 13  1  0
 32 20  1  0
 57 48  1  0
 31 22  1  0
M  CHG  2   8  -1  40   1
M  END
>  <UniqueID>  (15) 
12

>  <SMILES>  (15) 
Cc1ccc/c(=N/C(=O)[C@H]2C[C@@H](c3nc4ccccc4n3C)C[NH+](CCc3ccccc3)C2)[n-]1

>  <Energy>  (15) 
121.40969476516963

>  <Genealogy>  (15) 
Cc1cccc(=NC(=O)C2CC(c3nc4ccccc4n3C)C[NH+](CCc3ccccc3)C2)[n-]1 (protonated)
Cc1cccc(=NC(=O)[C@H]2C[C@@H](c3nc4ccccc4n3C)C[NH+](CCc3ccccc3)C2)[n-]1 (chirality)
Cc1ccc/c(=N/C(=O)[C@H]2C[C@@H](c3nc4ccccc4n3C)C[NH+](CCc3ccccc3)C2)[n-]1 (cis-trans isomerization)
Cc1ccc/c(=N/C(=O)[C@H]2C[C@@H](c3nc4ccccc4n3C)C[NH+](CCc3ccccc3)C2)[n-]1 (3D coordinates assigned)
Cc1ccc/c(=N/C(=O)[C@H]2C[C@@H](c3nc4ccccc4n3C)C[NH+](CCc3ccccc3)C2)[n-]1 (nonaromatic ring conformer: 121.40969476516963 kcal/mol)

>  <smiles>  (15) 
Cc1cccc(=NC(=O)C2CC(c3nc4ccccc4n3C)CN(CCc3ccccc3)C2)[nH]1

>  <score_type>  (15) 
oracle

>  <origin>  (15) 
adg

>  <m_score__min__energy>  (15) 
-9.6099999999999994

>  <m_primary>  (15) 
energy

$$$$
15:0
     RDKit          3D

 54 58  0  0  0  0  0  0  0  0999 V2000
   57.9380   34.1820   44.4720 O   0  0  0  0  0  0  0  0  0  0  0  0
   57.9940   33.4050   45.4630 C   0  0  0  0  0  0  0  0  0  0  0  0
   57.0350   32.3440   45.5520 N   0  0  0  0  0  0  0  0  0  0  0  0
   57.1400   31.0610   44.9160 C   0  0  0  0  0  0  0  0  0  0  0  0
   56.6390   30.8380   43.6190 C   0  0  0  0  0  0  0  0  0  0  0  0
   56.7620   29.5820   43.0240 C   0  0  0  0  0  0  0  0  0  0  0  0
   57.4120   28.5470   43.7010 C   0  0  0  0  0  0  0  0  0  0  0  0
   57.9420   28.7600   44.9840 C   0  0  0  0  0  0  0  0  0  0  0  0
   58.6140   27.6870   45.6750 N   0  0  0  0  0  0  0  0  0  0  0  0
   59.8420   27.9590   46.4310 C   0  0  0  0  0  0  0  0  0  0  0  0
   60.7190   26.7040   46.4610 C   0  0  0  0  0  0  0  0  0  0  0  0
   59.9820   25.5890   46.9280 O   0  0  0  0  0  0  0  0  0  0  0  0
   58.9480   25.2800   46.0080 C   0  0  0  0  0  0  0  0  0  0  0  0
   57.9230   26.4190   45.9330 C   0  0  0  0  0  0  0  0  0  0  0  0
   57.7980   30.0240   45.5860 C   0  0  0  0  0  0  0  0  0  0  0  0
   59.0600   33.5900   46.4790 C   0  0  0  0  0  0  0  0  0  0  0  0
   58.8900   34.5130   47.5240 C   0  0  0  0  0  0  0  0  0  0  0  0
   59.8610   34.6840   48.4620 N   0  0  0  0  0  0  0  0  0  0  0  0
   61.0280   33.9800   48.4160 C   0  0  0  0  0  0  0  0  0  0  0  0
   62.0210   34.1750   49.3870 C   0  0  0  0  0  0  0  0  0  0  0  0
   63.2060   33.4340   49.3170 C   0  0  0  0  0  0  0  0  0  0  0  0
   64.4880   33.6530   50.5470 S   0  0  0  0  0  0  0  0  0  0  0  0
   64.4130   31.9390   51.0660 C   0  0  0  0  0  0  0  0  0  0  0  0
   65.5960   31.2340   51.3250 C   0  0  0  0  0  0  0  0  0  0  0  0
   65.5400   29.8950   51.7310 C   0  0  0  0  0  0  0  0  0  0  0  0
   64.3050   29.2570   51.8820 C   0  0  0  0  0  0  0  0  0  0  0  0
   64.2360   27.5790   52.4060 Cl  0  0  0  0  0  0  0  0  0  0  0  0
   63.1220   29.9600   51.6160 C   0  0  0  0  0  0  0  0  0  0  0  0
   63.1760   31.2990   51.2090 C   0  0  0  0  0  0  0  0  0  0  0  0
   63.3930   32.5410   48.3100 N   0  0  0  0  0  0  0  0  0  0  0  0
   62.4550   32.3370   47.3470 C   0  0  0  0  0  0  0  0  0  0  0  0
   61.2490   33.0520   47.3800 C   0  0  0  0  0  0  0  0  0  0  0  0
   60.2630   32.8690   46.4080 C   0  0  0  0  0  0  0  0  0  0  0  0
   56.1487   31.6573   43.0728 H   0  0  0  0  0  0  0  0  0  0  0  0
   56.3467   29.4064   42.0207 H   0  0  0  0  0  0  0  0  0  0  0  0
   57.5092   27.5595   43.2263 H   0  0  0  0  0  0  0  0  0  0  0  0
   60.3940   28.7792   45.9488 H   0  0  0  0  0  0  0  0  0  0  0  0
   59.5800   28.2447   47.4604 H   0  0  0  0  0  0  0  0  0  0  0  0
   61.0850   26.4949   45.4449 H   0  0  0  0  0  0  0  0  0  0  0  0
   61.5642   26.8797   47.1427 H   0  0  0  0  0  0  0  0  0  0  0  0
   59.3872   25.1246   45.0115 H   0  0  0  0  0  0  0  0  0  0  0  0
   58.4356   24.3682   46.3487 H   0  0  0  0  0  0  0  0  0  0  0  0
   57.2112   26.2178   45.1189 H   0  0  0  0  0  0  0  0  0  0  0  0
   57.3811   26.4861   46.8879 H   0  0  0  0  0  0  0  0  0  0  0  0
   58.2065   30.1981   46.5924 H   0  0  0  0  0  0  0  0  0  0  0  0
   57.9636   35.1030   47.5847 H   0  0  0  0  0  0  0  0  0  0  0  0
   59.7010   35.3850   49.2190 H   0  0  0  0  0  0  0  0  0  0  0  0
   61.8697   34.9041   50.1966 H   0  0  0  0  0  0  0  0  0  0  0  0
   66.5695   31.7329   51.2093 H   0  0  0  0  0  0  0  0  0  0  0  0
   66.4703   29.3435   51.9317 H   0  0  0  0  0  0  0  0  0  0  0  0
   62.1491   29.4590   51.7271 H   0  0  0  0  0  0  0  0  0  0  0  0
   62.2458   31.8483   51.0015 H   0  0  0  0  0  0  0  0  0  0  0  0
   62.6421   31.6111   46.5420 H   0  0  0  0  0  0  0  0  0  0  0  0
   60.4291   32.1584   45.5849 H   0  0  0  0  0  0  0  0  0  0  0  0
  1  2  2  0
  2  3  1  0
  3  4  1  0
  4  5  2  0
  5  6  1  0
  6  7  2  0
  7  8  1  0
  8  9  1  0
  9 10  1  0
 10 11  1  0
 11 12  1  0
 12 13  1  0
 13 14  1  0
  8 15  2  0
  2 16  1  0
 16 17  2  0
 17 18  1  0
 18 19  2  0
 19 20  1  0
 20 21  2  0
 21 22  1  0
 22 23  1  0
 23 24  2  0
 24 25  1  0
 25 26  2  0
 26 27  1  0
 26 28  1  0
 28 29  2  0
 21 30  1  0
 30 31  2  0
 31 32  1  0
 32 33  2  0
 15  4  1  0
 33 16  1  0
 14  9  1  0
 32 19  1  0
 29 23  1  0
  5 34  1  0
  6 35  1  0
  7 36  1  0
 10 37  1  0
 10 38  1  0
 11 39  1  0
 11 40  1  0
 13 41  1  0
 13 42  1  0
 14 43  1  0
 14 44  1  0
 15 45  1  0
 17 46  1  0
 18 47  1  0
 20 48  1  0
 24 49  1  0
 25 50  1  0
 28 51  1  0
 29 52  1  0
 31 53  1  0
 33 54  1  0
M  CHG  2   3  -1  18   1
M  END
>  <UniqueID>  (16) 
13

>  <SMILES>  (16) 
O=C([N-]c1cccc(N2CCOCC2)c1)c1c[nH+]c2cc(Sc3ccc(Cl)cc3)ncc2c1

>  <Energy>  (16) 
70.88236617032665

>  <Genealogy>  (16) 
O=C([N-]c1cccc(N2CCOCC2)c1)c1c[nH+]c2cc(Sc3ccc(Cl)cc3)ncc2c1 (protonated)
O=C([N-]c1cccc(N2CCOCC2)c1)c1c[nH+]c2cc(Sc3ccc(Cl)cc3)ncc2c1 (3D coordinates assigned)
O=C([N-]c1cccc(N2CCOCC2)c1)c1c[nH+]c2cc(Sc3ccc(Cl)cc3)ncc2c1 (nonaromatic ring conformer: 70.88236617032665 kcal/mol)

>  <smiles>  (16) 
O=C(Nc1cccc(N2CCOCC2)c1)c1cnc2cc(Sc3ccc(Cl)cc3)ncc2c1

>  <score_type>  (16) 
oracle

>  <origin>  (16) 
adg

>  <m_score__min__energy>  (16) 
-8.7400000000000002

>  <m_primary>  (16) 
energy

$$$$
16:0
     RDKit          3D

 75 80  0  0  0  0  0  0  0  0999 V2000
   60.8270   32.0600   52.0410 H   0  0  0  0  0  0  0  0  0  0  0  0
   60.5390   31.2910   51.4840 O   0  0  0  0  0  0  0  0  0  0  0  0
   59.8710   31.7980   50.3550 C   0  0  2  0  0  0  0  0  0  0  0  0
   60.6140   32.0226   49.5755 H   0  0  0  0  0  0  0  0  0  0  0  0
   59.1720   33.1290   50.6790 C   0  0  0  0  0  0  0  0  0  0  0  0
   58.5333   33.4203   49.8321 H   0  0  0  0  0  0  0  0  0  0  0  0
   58.5590   33.0032   51.5837 H   0  0  0  0  0  0  0  0  0  0  0  0
   60.1370   34.1420   50.9090 O   0  0  0  0  0  0  0  0  0  0  0  0
   61.3900   33.8200   51.3770 N   0  0  0  0  0  0  0  0  0  0  0  0
   62.3920   33.6080   50.5820 C   0  0  0  0  0  0  0  0  0  0  0  0
   62.4150   33.6310   49.1090 C   0  0  0  0  0  0  0  0  0  0  0  0
   61.4070   33.8900   48.1730 C   0  0  0  0  0  0  0  0  0  0  0  0
   60.3827   34.1245   48.4981 H   0  0  0  0  0  0  0  0  0  0  0  0
   61.7360   33.8430   46.8080 C   0  0  0  0  0  0  0  0  0  0  0  0
   60.9619   34.0461   46.0534 H   0  0  0  0  0  0  0  0  0  0  0  0
   63.0490   33.5380   46.3970 C   0  0  0  0  0  0  0  0  0  0  0  0
   63.2918   33.5035   45.3247 H   0  0  0  0  0  0  0  0  0  0  0  0
   64.0490   33.2780   47.3470 C   0  0  0  0  0  0  0  0  0  0  0  0
   65.0762   33.0388   47.0344 H   0  0  0  0  0  0  0  0  0  0  0  0
   63.7060   33.3310   48.6970 C   0  0  0  0  0  0  0  0  0  0  0  0
   64.5370   33.1090   49.8800 C   0  0  0  0  0  0  0  0  0  0  0  0
   65.8880   32.7760   49.9800 C   0  0  0  0  0  0  0  0  0  0  0  0
   66.5065   32.6454   49.0798 H   0  0  0  0  0  0  0  0  0  0  0  0
   66.4370   32.6120   51.2650 C   0  0  0  0  0  0  0  0  0  0  0  0
   67.4994   32.3495   51.3758 H   0  0  0  0  0  0  0  0  0  0  0  0
   65.6340   32.7820   52.4120 C   0  0  0  0  0  0  0  0  0  0  0  0
   66.0751   32.6521   53.4113 H   0  0  0  0  0  0  0  0  0  0  0  0
   64.2750   33.1160   52.2880 C   0  0  0  0  0  0  0  0  0  0  0  0
   63.6424   33.2479   53.1782 H   0  0  0  0  0  0  0  0  0  0  0  0
   63.7490   33.2760   51.0050 C   0  0  0  0  0  0  0  0  0  0  0  0
   58.9200   30.7410   49.7560 C   0  0  0  0  0  0  0  0  0  0  0  0
   58.5435   31.1095   48.7904 H   0  0  0  0  0  0  0  0  0  0  0  0
   58.0989   30.5811   50.4703 H   0  0  0  0  0  0  0  0  0  0  0  0
   59.5870   29.4580   49.5430 N   0  0  0  0  0  0  0  0  0  0  0  0
   59.6310   28.7540   48.3990 C   0  0  0  0  0  0  0  0  0  0  0  0
   59.1644   29.0214   47.4394 H   0  0  0  0  0  0  0  0  0  0  0  0
   60.3800   27.6280   48.6720 C   0  0  0  0  0  0  0  0  0  0  0  0
   60.7670   26.5660   47.7000 C   0  0  0  0  0  0  0  0  0  0  0  0
   61.1735   25.7003   48.2434 H   0  0  0  0  0  0  0  0  0  0  0  0
   61.5323   26.9553   47.0124 H   0  0  0  0  0  0  0  0  0  0  0  0
   59.6170   26.1670   46.9600 O   0  0  0  0  0  0  0  0  0  0  0  0
   58.9300   26.9860   46.0510 C   0  0  0  0  0  0  0  0  0  0  0  0
   59.6020   27.7550   45.0830 C   0  0  0  0  0  0  0  0  0  0  0  0
   60.7010   27.7378   45.0387 H   0  0  0  0  0  0  0  0  0  0  0  0
   58.8840   28.5400   44.1780 C   0  0  0  0  0  0  0  0  0  0  0  0
   59.4216   29.1397   43.4288 H   0  0  0  0  0  0  0  0  0  0  0  0
   57.4790   28.5690   44.2180 C   0  0  0  0  0  0  0  0  0  0  0  0
   56.6740   29.3800   43.2730 C   0  0  0  0  0  0  0  0  0  0  0  0
   56.2386   28.8777   42.3966 H   0  0  0  0  0  0  0  0  0  0  0  0
   56.4480   30.6930   43.4290 C   0  0  0  0  0  0  0  0  0  0  0  0
   55.4093   31.0387   43.5371 H   0  0  0  0  0  0  0  0  0  0  0  0
   57.5340   31.6960   43.4620 C   0  0  0  0  0  0  0  0  0  0  0  0
   58.2010   31.8850   42.4080 O   0  0  0  0  0  0  0  0  0  0  0  0
   57.8750   32.4810   44.6700 C   0  0  0  0  0  0  0  0  0  0  0  0
   58.2200   33.8360   44.5330 C   0  0  0  0  0  0  0  0  0  0  0  0
   58.2424   34.2957   43.5339 H   0  0  0  0  0  0  0  0  0  0  0  0
   58.5350   34.6040   45.6580 C   0  0  0  0  0  0  0  0  0  0  0  0
   58.8115   35.6622   45.5408 H   0  0  0  0  0  0  0  0  0  0  0  0
   58.4990   34.0290   46.9310 C   0  0  0  0  0  0  0  0  0  0  0  0
   58.7548   34.6321   47.8146 H   0  0  0  0  0  0  0  0  0  0  0  0
   58.1380   32.6880   47.0810 C   0  0  0  0  0  0  0  0  0  0  0  0
   58.1082   32.2381   48.0844 H   0  0  0  0  0  0  0  0  0  0  0  0
   57.8140   31.9140   45.9610 C   0  0  0  0  0  0  0  0  0  0  0  0
   57.4150   30.5940   46.1430 O   0  0  0  0  0  0  0  0  0  0  0  0
   56.8110   27.8250   45.2040 C   0  0  0  0  0  0  0  0  0  0  0  0
   55.7134   27.8648   45.2644 H   0  0  0  0  0  0  0  0  0  0  0  0
   57.5300   27.0280   46.1170 C   0  0  0  0  0  0  0  0  0  0  0  0
   56.8880   26.2580   47.1010 O   0  0  0  0  0  0  0  0  0  0  0  0
   56.8420   24.8350   47.1120 C   0  0  0  0  0  0  0  0  0  0  0  0
   56.8304   24.4765   48.1519 H   0  0  0  0  0  0  0  0  0  0  0  0
   55.9323   24.4935   46.5963 H   0  0  0  0  0  0  0  0  0  0  0  0
   57.7277   24.4355   46.5963 H   0  0  0  0  0  0  0  0  0  0  0  0
   60.7870   27.6780   49.9580 N   0  0  0  0  0  0  0  0  0  0  0  0
   60.2820   28.7970   50.4570 N   0  0  0  0  0  0  0  0  0  0  0  0
   60.4220   29.1150   51.4410 H   0  0  0  0  0  0  0  0  0  0  0  0
  1  2  1  0
  2  3  1  0
  3  4  1  6
  3  5  1  0
  5  6  1  0
  5  7  1  0
  5  8  1  0
  8  9  1  0
  9 10  2  3
 10 11  1  0
 11 12  2  0
 12 13  1  0
 12 14  1  0
 14 15  1  0
 14 16  2  0
 16 17  1  0
 16 18  1  0
 18 19  1  0
 18 20  2  0
 20 21  1  0
 21 22  2  0
 22 23  1  0
 22 24  1  0
 24 25  1  0
 24 26  2  0
 26 27  1  0
 26 28  1  0
 28 29  1  0
 28 30  2  0
  3 31  1  0
 31 32  1  0
 31 33  1  0
 31 34  1  0
 34 35  1  0
 35 36  1  0
 35 37  2  0
 37 38  1  0
 38 39  1  0
 38 40  1  0
 38 41  1  0
 41 42  1  0
 42 43  2  0
 43 44  1  0
 43 45  1  0
 45 46  1  0
 45 47  2  0
 47 48  1  0
 48 49  1  0
 48 50  2  0
 50 51  1  0
 50 52  1  0
 52 53  2  0
 52 54  1  0
 54 55  2  0
 55 56  1  0
 55 57  1  0
 57 58  1  0
 57 59  2  0
 59 60  1  0
 59 61  1  0
 61 62  1  0
 61 63  2  0
 63 64  1  0
 47 65  1  0
 65 66  1  0
 65 67  2  0
 67 68  1  0
 68 69  1  0
 69 70  1  0
 69 71  1  0
 69 72  1  0
 37 73  1  0
 73 74  2  0
 74 75  1  0
 30 10  1  0
 74 34  1  0
 20 11  1  0
 30 21  1  0
 67 42  1  0
 63 54  1  0
M  CHG  2  64  -1  74   1
M  END
>  <UniqueID>  (17) 
14

>  <SMILES>  (17) 
COc1cc(/C=C/C(=O)c2ccccc2[O-])ccc1OCc1cn(C[C@H](O)CON=C2c3ccccc3-c3ccccc32)[nH+]n1

>  <Energy>  (17) 
152.68345748564386

>  <Genealogy>  (17) 
COc1cc(C=CC(=O)c2ccccc2[O-])ccc1OCc1cn(CC(O)CON=C2c3ccccc3-c3ccccc32)[nH+]n1 (protonated)
COc1cc(C=CC(=O)c2ccccc2[O-])ccc1OCc1cn(C[C@H](O)CON=C2c3ccccc3-c3ccccc32)[nH+]n1 (chirality)
COc1cc(/C=C/C(=O)c2ccccc2[O-])ccc1OCc1cn(C[C@H](O)CON=C2c3ccccc3-c3ccccc32)[nH+]n1 (cis-trans isomerization)
COc1cc(/C=C/C(=O)c2ccccc2[O-])ccc1OCc1cn(C[C@H](O)CON=C2c3ccccc3-c3ccccc32)[nH+]n1 (3D coordinates assigned)
COc1cc(/C=C/C(=O)c2ccccc2[O-])ccc1OCc1cn(C[C@H](O)CON=C2c3ccccc3-c3ccccc32)[nH+]n1 (nonaromatic ring conformer: 152.68345748564386 kcal/mol)

>  <smiles>  (17) 
COc1cc(C=CC(=O)c2ccccc2O)ccc1OCc1cn(CC(O)CON=C2c3ccccc3-c3ccccc32)nn1

>  <score_type>  (17) 
oracle

>  <origin>  (17) 
adg

>  <m_score__min__energy>  (17) 
-13.43

>  <m_primary>  (17) 
energy

$$$$
17:0
     RDKit          3D

 59 63  0  0  0  0  0  0  0  0999 V2000
   60.0519   31.2720   51.7867 H   0  0  0  0  0  0  0  0  0  0  0  0
   59.8030   32.1970   51.2460 C   0  0  0  0  0  0  0  0  0  0  0  0
   60.4570   33.4600   51.6540 C   0  0  0  0  0  0  0  0  0  0  0  0
   60.0100   34.1150   52.6320 O   0  0  0  0  0  0  0  0  0  0  0  0
   61.5850   33.9820   50.9380 N   0  0  0  0  0  0  0  0  0  0  0  0
   61.9940   33.5680   49.6260 C   0  0  0  0  0  0  0  0  0  0  0  0
   63.1780   32.8290   49.5060 C   0  0  0  0  0  0  0  0  0  0  0  0
   63.7348   32.5435   50.4107 H   0  0  0  0  0  0  0  0  0  0  0  0
   63.6590   32.4510   48.2520 C   0  0  0  0  0  0  0  0  0  0  0  0
   64.5947   31.8779   48.1738 H   0  0  0  0  0  0  0  0  0  0  0  0
   62.9580   32.7970   47.0980 C   0  0  0  0  0  0  0  0  0  0  0  0
   63.3539   32.5143   46.1114 H   0  0  0  0  0  0  0  0  0  0  0  0
   61.7500   33.5040   47.1890 C   0  0  0  0  0  0  0  0  0  0  0  0
   61.0350   33.8310   46.0250 C   0  0  0  0  0  0  0  0  0  0  0  0
   61.4357   33.5525   45.0392 H   0  0  0  0  0  0  0  0  0  0  0  0
   59.8180   34.5080   46.1150 C   0  0  0  0  0  0  0  0  0  0  0  0
   59.2673   34.7711   45.1998 H   0  0  0  0  0  0  0  0  0  0  0  0
   59.2980   34.8520   47.3640 C   0  0  0  0  0  0  0  0  0  0  0  0
   58.3327   35.3755   47.4293 H   0  0  0  0  0  0  0  0  0  0  0  0
   59.9970   34.5350   48.5320 C   0  0  0  0  0  0  0  0  0  0  0  0
   59.5716   34.7982   49.5117 H   0  0  0  0  0  0  0  0  0  0  0  0
   61.2440   33.8800   48.4630 C   0  0  0  0  0  0  0  0  0  0  0  0
   58.9190   32.1400   50.2420 C   0  0  0  0  0  0  0  0  0  0  0  0
   58.1557   32.9291   50.1734 H   0  0  0  0  0  0  0  0  0  0  0  0
   58.9160   31.0680   49.2180 C   0  0  0  0  0  0  0  0  0  0  0  0
   59.0420   29.7070   49.5560 C   0  0  0  0  0  0  0  0  0  0  0  0
   59.1654   29.4136   50.6089 H   0  0  0  0  0  0  0  0  0  0  0  0
   59.0110   28.7270   48.5600 C   0  0  0  0  0  0  0  0  0  0  0  0
   59.1185   27.6667   48.8325 H   0  0  0  0  0  0  0  0  0  0  0  0
   58.8440   29.0870   47.2180 C   0  0  0  0  0  0  0  0  0  0  0  0
   58.8060   28.0650   46.2140 N   0  0  0  0  0  0  0  0  0  0  0  0
   59.9370   27.1470   46.0660 C   0  0  0  0  0  0  0  0  0  0  0  0
   60.5001   27.4042   45.1567 H   0  0  0  0  0  0  0  0  0  0  0  0
   60.5938   27.2337   46.9442 H   0  0  0  0  0  0  0  0  0  0  0  0
   59.4240   25.7100   45.9570 C   0  0  0  0  0  0  0  0  0  0  0  0
   60.2545   25.0566   45.6517 H   0  0  0  0  0  0  0  0  0  0  0  0
   59.0290   25.4100   46.9388 H   0  0  0  0  0  0  0  0  0  0  0  0
   58.3370   25.5960   44.9680 N   0  0  0  0  0  0  0  0  0  0  0  0
   57.9170   24.2890   44.5220 C   0  0  0  0  0  0  0  0  0  0  0  0
   56.8940   24.1570   43.5630 C   0  0  0  0  0  0  0  0  0  0  0  0
   56.4020   25.0552   43.1617 H   0  0  0  0  0  0  0  0  0  0  0  0
   56.5000   22.8920   43.1180 C   0  0  0  0  0  0  0  0  0  0  0  0
   55.7020   22.7987   42.3666 H   0  0  0  0  0  0  0  0  0  0  0  0
   57.1170   21.7460   43.6250 C   0  0  0  0  0  0  0  0  0  0  0  0
   56.8076   20.7516   43.2707 H   0  0  0  0  0  0  0  0  0  0  0  0
   58.1280   21.8640   44.5830 C   0  0  0  0  0  0  0  0  0  0  0  0
   58.6103   20.9611   44.9856 H   0  0  0  0  0  0  0  0  0  0  0  0
   58.5280   23.1270   45.0310 C   0  0  0  0  0  0  0  0  0  0  0  0
   59.3242   23.2131   45.7851 H   0  0  0  0  0  0  0  0  0  0  0  0
   57.7680   26.8050   44.3490 C   0  0  0  0  0  0  0  0  0  0  0  0
   58.4422   27.1561   43.5539 H   0  0  0  0  0  0  0  0  0  0  0  0
   56.7817   26.5589   43.9288 H   0  0  0  0  0  0  0  0  0  0  0  0
   57.5990   27.9140   45.3930 C   0  0  0  0  0  0  0  0  0  0  0  0
   57.3963   28.8638   44.8765 H   0  0  0  0  0  0  0  0  0  0  0  0
   56.7625   27.6428   46.0539 H   0  0  0  0  0  0  0  0  0  0  0  0
   58.7080   30.4420   46.8720 C   0  0  0  0  0  0  0  0  0  0  0  0
   58.4990   30.9810   45.0460 Br  0  0  0  0  0  0  0  0  0  0  0  0
   58.7360   31.4220   47.8700 C   0  0  0  0  0  0  0  0  0  0  0  0
   58.6159   32.4807   47.5967 H   0  0  0  0  0  0  0  0  0  0  0  0
  1  2  1  0
  2  3  1  0
  3  4  2  0
  3  5  1  0
  5  6  1  0
  6  7  2  0
  7  8  1  0
  7  9  1  0
  9 10  1  0
  9 11  2  0
 11 12  1  0
 11 13  1  0
 13 14  2  0
 14 15  1  0
 14 16  1  0
 16 17  1  0
 16 18  2  0
 18 19  1  0
 18 20  1  0
 20 21  1  0
 20 22  2  0
  2 23  2  0
 23 24  1  0
 23 25  1  0
 25 26  2  0
 26 27  1  0
 26 28  1  0
 28 29  1  0
 28 30  2  0
 30 31  1  0
 31 32  1  0
 32 33  1  0
 32 34  1  0
 32 35  1  0
 35 36  1  0
 35 37  1  0
 35 38  1  0
 38 39  1  0
 39 40  2  0
 40 41  1  0
 40 42  1  0
 42 43  1  0
 42 44  2  0
 44 45  1  0
 44 46  1  0
 46 47  1  0
 46 48  2  0
 48 49  1  0
 38 50  1  0
 50 51  1  0
 50 52  1  0
 50 53  1  0
 53 54  1  0
 53 55  1  0
 30 56  1  0
 56 57  1  0
 56 58  2  0
 58 59  1  0
 22  6  1  0
 58 25  1  0
 22 13  1  0
 53 31  1  0
 48 39  1  0
M  CHG  1   5  -1
M  END
>  <UniqueID>  (18) 
15

>  <SMILES>  (18) 
O=C(/C=C/c1ccc(N2CCN(c3ccccc3)CC2)c(Br)c1)[N-]c1cccc2ccccc12

>  <Energy>  (18) 
86.67299505049228

>  <Genealogy>  (18) 
O=C(C=Cc1ccc(N2CCN(c3ccccc3)CC2)c(Br)c1)[N-]c1cccc2ccccc12 (protonated)
O=C(/C=C/c1ccc(N2CCN(c3ccccc3)CC2)c(Br)c1)[N-]c1cccc2ccccc12 (cis-trans isomerization)
O=C(/C=C/c1ccc(N2CCN(c3ccccc3)CC2)c(Br)c1)[N-]c1cccc2ccccc12 (3D coordinates assigned)
O=C(/C=C/c1ccc(N2CCN(c3ccccc3)CC2)c(Br)c1)[N-]c1cccc2ccccc12 (nonaromatic ring conformer: 86.67299505049228 kcal/mol)

>  <smiles>  (18) 
O=C(C=Cc1ccc(N2CCN(c3ccccc3)CC2)c(Br)c1)Nc1cccc2ccccc12

>  <score_type>  (18) 
oracle

>  <origin>  (18) 
adg

>  <m_score__min__energy>  (18) 
-12.18

>  <m_primary>  (18) 
energy

$$$$
18:0
     RDKit          3D

 34 35  0  0  0  0  0  0  0  0999 V2000
   59.6450   35.3520   46.6330 C   0  0  0  0  0  0  0  0  0  0  0  0
   59.4590   34.3220   45.5370 C   0  0  0  0  0  0  0  0  0  0  0  0
   58.1620   33.7640   45.6690 N   0  0  0  0  0  0  0  0  0  0  0  0
   57.8470   33.4250   46.9830 C   0  0  0  0  0  0  0  0  0  0  0  0
   58.6050   32.4000   47.7240 C   0  0  0  0  0  0  0  0  0  0  0  0
   57.5280   33.2040   44.5730 C   0  0  0  0  0  0  0  0  0  0  0  0
   57.5250   31.7240   44.6470 C   0  0  0  0  0  0  0  0  0  0  0  0
   56.3380   31.1070   44.5510 N   0  0  0  0  0  0  0  0  0  0  0  0
   56.2630   29.7640   44.6000 C   0  0  0  0  0  0  0  0  0  0  0  0
   55.1500   29.1810   44.5100 O   0  0  0  0  0  0  0  0  0  0  0  0
   57.4020   28.9850   44.7500 C   0  0  0  0  0  0  0  0  0  0  0  0
   57.5990   27.6190   44.8270 C   0  0  0  0  0  0  0  0  0  0  0  0
   58.9360   27.4690   44.9700 N   0  0  0  0  0  0  0  0  0  0  0  0
   59.5390   28.6660   44.9810 N   0  0  0  0  0  0  0  0  0  0  0  0
   60.9540   28.9580   45.1140 C   0  0  0  0  0  0  0  0  0  0  0  0
   58.6090   29.6410   44.8460 C   0  0  0  0  0  0  0  0  0  0  0  0
   58.6330   30.9770   44.7920 N   0  0  0  0  0  0  0  0  0  0  0  0
   59.5567   34.8631   47.6144 H   0  0  0  0  0  0  0  0  0  0  0  0
   60.6405   35.8106   46.5400 H   0  0  0  0  0  0  0  0  0  0  0  0
   58.8728   36.1299   46.5400 H   0  0  0  0  0  0  0  0  0  0  0  0
   59.5590   34.8032   44.5529 H   0  0  0  0  0  0  0  0  0  0  0  0
   60.2221   33.5343   45.6223 H   0  0  0  0  0  0  0  0  0  0  0  0
   57.9274   34.3524   47.5690 H   0  0  0  0  0  0  0  0  0  0  0  0
   56.8609   32.9505   46.8714 H   0  0  0  0  0  0  0  0  0  0  0  0
   58.4836   32.5642   48.8049 H   0  0  0  0  0  0  0  0  0  0  0  0
   58.2263   31.4016   47.4599 H   0  0  0  0  0  0  0  0  0  0  0  0
   59.6706   32.4696   47.4599 H   0  0  0  0  0  0  0  0  0  0  0  0
   56.4886   33.5626   44.5391 H   0  0  0  0  0  0  0  0  0  0  0  0
   58.0746   33.5039   43.6667 H   0  0  0  0  0  0  0  0  0  0  0  0
   56.8363   26.8277   44.7819 H   0  0  0  0  0  0  0  0  0  0  0  0
   61.2185   29.0126   46.1803 H   0  0  0  0  0  0  0  0  0  0  0  0
   61.5397   28.1618   44.6312 H   0  0  0  0  0  0  0  0  0  0  0  0
   61.1766   29.9210   44.6312 H   0  0  0  0  0  0  0  0  0  0  0  0
   59.5730   31.4310   44.8630 H   0  0  0  0  0  0  0  0  0  0  0  0
  1  2  1  0
  2  3  1  0
  3  4  1  0
  4  5  1  0
  3  6  1  0
  6  7  1  0
  7  8  2  0
  8  9  1  0
  9 10  2  0
  9 11  1  0
 11 12  1  0
 12 13  2  0
 13 14  1  0
 14 15  1  0
 14 16  1  0
 16 17  1  0
 17  7  1  0
 16 11  2  0
  1 18  1  0
  1 19  1  0
  1 20  1  0
  2 21  1  0
  2 22  1  0
  4 23  1  0
  4 24  1  0
  5 25  1  0
  5 26  1  0
  5 27  1  0
  6 28  1  0
  6 29  1  0
 12 30  1  0
 15 31  1  0
 15 32  1  0
 15 33  1  0
 17 34  1  0
M  END
>  <smiles>  (19) 
CCN(CC)Cc1nc(=O)c2cnn(C)c2[nH]1

>  <score_type>  (19) 
oracle

>  <origin>  (19) 
adg

>  <m_score__min__energy>  (19) 
-6.0300000000000002

>  <m_primary>  (19) 
energy

$$$$
19:0
     RDKit          3D

 51 53  0  0  1  0  0  0  0  0999 V2000
   57.5870   25.6910   44.4860 C   0  0  0  0  0  0  0  0  0  0  0  0
   58.8120   26.3020   44.7150 O   0  0  0  0  0  0  0  0  0  0  0  0
   59.0620   27.2730   45.6540 C   0  0  0  0  0  0  0  0  0  0  0  0
   59.5960   26.8220   46.8620 C   0  0  0  0  0  0  0  0  0  0  0  0
   59.8770   27.7110   47.8630 C   0  0  0  0  0  0  0  0  0  0  0  0
   60.3890   27.2870   49.0220 N   0  0  0  0  0  0  0  0  0  0  0  0
   60.6540   28.1850   49.9800 C   0  0  0  0  0  0  0  0  0  0  0  0
   60.4000   29.4880   49.7610 N   0  0  0  0  0  0  0  0  0  0  0  0
   59.8790   29.9540   48.5950 C   0  0  0  0  0  0  0  0  0  0  0  0
   59.6480   31.2070   48.4130 N   0  0  0  0  0  0  0  0  0  0  0  0
   60.7390   32.0210   47.9910 C   0  0  0  0  0  0  0  0  0  0  0  0
   60.5520   32.7930   46.8560 C   0  0  0  0  0  0  0  0  0  0  0  0
   61.5560   33.6210   46.3620 C   0  0  0  0  0  0  0  0  0  0  0  0
   62.7490   33.6490   47.0420 C   0  0  0  0  0  0  0  0  0  0  0  0
   63.7170   34.4670   46.5400 F   0  0  0  0  0  0  0  0  0  0  0  0
   62.9470   32.8840   48.1730 C   0  0  0  0  0  0  0  0  0  0  0  0
   64.5060   32.9890   48.9690 Cl  0  0  0  0  0  0  0  0  0  0  0  0
   61.9440   32.0600   48.6620 C   0  0  0  0  0  0  0  0  0  0  0  0
   59.6070   29.0390   47.6090 C   0  0  0  0  0  0  0  0  0  0  0  0
   59.0860   29.4770   46.4310 C   0  0  0  0  0  0  0  0  0  0  0  0
   58.7900   28.5860   45.3900 C   0  0  0  0  0  0  0  0  0  0  0  0
   58.2440   29.1350   44.2270 N   0  0  0  0  0  0  0  0  0  0  0  0
   56.9700   29.6730   44.0040 C   0  0  0  0  0  0  0  0  0  0  0  0
   56.0880   29.7360   44.8690 O   0  0  0  0  0  0  0  0  0  0  0  0
   56.5990   30.2260   42.6450 C   0  0  0  0  0  0  0  0  0  0  0  0
   57.1620   31.6010   42.6060 C   0  0  0  0  0  0  0  0  0  0  0  0
   58.1510   32.0190   43.3510 C   0  0  0  0  0  0  0  0  0  0  0  0
   58.0480   32.9850   44.3790 N   0  0  0  0  0  0  0  0  0  0  0  0
   58.8690   34.1700   44.4480 C   0  0  0  0  0  0  0  0  0  0  0  0
   57.0360   32.7310   45.4120 C   0  0  0  0  0  0  0  0  0  0  0  0
   57.1103   25.4532   45.4484 H   0  0  0  0  0  0  0  0  0  0  0  0
   56.9391   26.3715   43.9141 H   0  0  0  0  0  0  0  0  0  0  0  0
   57.7408   24.7641   43.9141 H   0  0  0  0  0  0  0  0  0  0  0  0
   59.7913   25.7496   47.0095 H   0  0  0  0  0  0  0  0  0  0  0  0
   60.5790   26.2700   49.1740 H   0  0  0  0  0  0  0  0  0  0  0  0
   61.0774   27.8586   50.9414 H   0  0  0  0  0  0  0  0  0  0  0  0
   59.5858   32.7506   46.3320 H   0  0  0  0  0  0  0  0  0  0  0  0
   61.3996   34.2307   45.4599 H   0  0  0  0  0  0  0  0  0  0  0  0
   62.1056   31.4516   49.5641 H   0  0  0  0  0  0  0  0  0  0  0  0
   58.8933   30.5511   46.2927 H   0  0  0  0  0  0  0  0  0  0  0  0
   58.8830   29.1620   43.3650 H   0  0  0  0  0  0  0  0  0  0  0  0
   57.0370   29.6089   41.8467 H   0  0  0  0  0  0  0  0  0  0  0  0
   55.5101   30.2274   42.4895 H   0  0  0  0  0  0  0  0  0  0  0  0
   56.7149   32.3169   41.9006 H   0  0  0  0  0  0  0  0  0  0  0  0
   59.1439   31.5844   43.1634 H   0  0  0  0  0  0  0  0  0  0  0  0
   59.0493   34.4303   45.5014 H   0  0  0  0  0  0  0  0  0  0  0  0
   59.8300   33.9799   43.9476 H   0  0  0  0  0  0  0  0  0  0  0  0
   58.3534   35.0029   43.9476 H   0  0  0  0  0  0  0  0  0  0  0  0
   57.4910   32.8452   46.4070 H   0  0  0  0  0  0  0  0  0  0  0  0
   56.2108   33.4499   45.3015 H   0  0  0  0  0  0  0  0  0  0  0  0
   56.6481   31.7076   45.3015 H   0  0  0  0  0  0  0  0  0  0  0  0
  1  2  1  0
  2  3  1  0
  3  4  2  0
  4  5  1  0
  5  6  1  0
  6  7  1  0
  7  8  2  0
  8  9  1  0
  9 10  2  0
 10 11  1  0
 11 12  2  0
 12 13  1  0
 13 14  2  0
 14 15  1  0
 14 16  1  0
 16 17  1  0
 16 18  2  0
  9 19  1  0
 19 20  1  0
 20 21  2  0
 21 22  1  0
 22 23  1  0
 23 24  2  0
 23 25  1  0
 25 26  1  0
 26 27  2  0
 27 28  1  0
 28 29  1  0
 28 30  1  0
 21  3  1  0
 19  5  2  0
 18 11  1  0
  1 31  1  0
  1 32  1  0
  1 33  1  0
  4 34  1  0
  6 35  1  0
  7 36  1  0
 12 37  1  0
 13 38  1  0
 18 39  1  0
 20 40  1  0
 22 41  1  0
 25 42  1  0
 25 43  1  0
 26 44  1  0
 27 45  1  0
 29 46  1  0
 29 47  1  0
 29 48  1  0
 30 49  1  0
 30 50  1  0
 30 51  1  0
M  END
>  <smiles>  (20) 
COc1cc2[nH]cnc(=Nc3ccc(F)c(Cl)c3)c2cc1NC(=O)CC=CN(C)C

>  <score_type>  (20) 
oracle

>  <origin>  (20) 
adg

>  <m_score__min__energy>  (20) 
-7.9100000000000001

>  <m_primary>  (20) 
energy

$$$$
20:0
     RDKit          3D

 46 48  0  0  0  0  0  0  0  0999 V2000
   61.4355   29.4983   51.0329 H   0  0  0  0  0  0  0  0  0  0  0  0
   61.0980   29.5030   49.9860 C   0  0  0  0  0  0  0  0  0  0  0  0
   61.0340   30.6710   49.2990 N   0  0  0  0  0  0  0  0  0  0  0  0
   60.6080   30.7040   48.0060 C   0  0  0  0  0  0  0  0  0  0  0  0
   60.5620   31.8190   47.3380 N   0  0  0  0  0  0  0  0  0  0  0  0
   59.4300   32.3540   46.6280 C   0  0  0  0  0  0  0  0  0  0  0  0
   58.5240   31.5140   45.9530 C   0  0  0  0  0  0  0  0  0  0  0  0
   58.6643   30.4235   45.9880 H   0  0  0  0  0  0  0  0  0  0  0  0
   57.4470   32.0500   45.2380 C   0  0  0  0  0  0  0  0  0  0  0  0
   56.5690   31.1640   44.5930 O   0  0  0  0  0  0  0  0  0  0  0  0
   56.9350   30.3100   43.5160 C   0  0  0  0  0  0  0  0  0  0  0  0
   57.3387   29.3681   43.9158 H   0  0  0  0  0  0  0  0  0  0  0  0
   56.0492   30.0969   42.8996 H   0  0  0  0  0  0  0  0  0  0  0  0
   57.7002   30.8045   42.8996 H   0  0  0  0  0  0  0  0  0  0  0  0
   57.2850   33.4450   45.1830 C   0  0  0  0  0  0  0  0  0  0  0  0
   56.4354   33.8766   44.6335 H   0  0  0  0  0  0  0  0  0  0  0  0
   58.1980   34.2850   45.8230 C   0  0  0  0  0  0  0  0  0  0  0  0
   58.0690   35.3759   45.7656 H   0  0  0  0  0  0  0  0  0  0  0  0
   59.2820   33.7470   46.5410 C   0  0  0  0  0  0  0  0  0  0  0  0
   60.2250   34.5630   47.1880 O   0  0  0  0  0  0  0  0  0  0  0  0
   60.4600   34.5660   48.5920 C   0  0  0  0  0  0  0  0  0  0  0  0
   59.4978   34.5537   49.1248 H   0  0  0  0  0  0  0  0  0  0  0  0
   61.0434   33.6752   48.8680 H   0  0  0  0  0  0  0  0  0  0  0  0
   61.0204   35.4714   48.8680 H   0  0  0  0  0  0  0  0  0  0  0  0
   60.2640   29.5450   47.3850 N   0  0  0  0  0  0  0  0  0  0  0  0
   60.3260   28.3490   48.0240 C   0  0  0  0  0  0  0  0  0  0  0  0
   59.9320   27.1930   47.3350 O   0  0  0  0  0  0  0  0  0  0  0  0
   58.6300   26.9140   46.8900 C   0  0  0  0  0  0  0  0  0  0  0  0
   57.9900   25.7650   47.3650 C   0  0  0  0  0  0  0  0  0  0  0  0
   58.5136   25.0982   48.0659 H   0  0  0  0  0  0  0  0  0  0  0  0
   56.6890   25.4580   46.9550 C   0  0  0  0  0  0  0  0  0  0  0  0
   56.1930   24.5548   47.3400 H   0  0  0  0  0  0  0  0  0  0  0  0
   56.0140   26.2940   46.0570 C   0  0  0  0  0  0  0  0  0  0  0  0
   54.6700   25.9640   45.6780 N   0  0  0  0  0  0  0  0  0  0  0  0
   54.1930   24.6810   45.2510 C   0  0  0  0  0  0  0  0  0  0  0  0
   53.0330   24.3220   45.5830 O   0  0  0  0  0  0  0  0  0  0  0  0
   55.0440   23.7380   44.4570 C   0  0  0  0  0  0  0  0  0  0  0  0
   55.6206   23.0991   45.1421 H   0  0  0  0  0  0  0  0  0  0  0  0
   54.4014   23.1095   43.8229 H   0  0  0  0  0  0  0  0  0  0  0  0
   55.7349   24.3130   43.8229 H   0  0  0  0  0  0  0  0  0  0  0  0
   56.6360   27.4750   45.6170 C   0  0  0  0  0  0  0  0  0  0  0  0
   56.0973   28.1606   44.9463 H   0  0  0  0  0  0  0  0  0  0  0  0
   57.9360   27.7820   46.0280 C   0  0  0  0  0  0  0  0  0  0  0  0
   58.4182   28.7059   45.6760 H   0  0  0  0  0  0  0  0  0  0  0  0
   60.7360   28.3090   49.3650 C   0  0  0  0  0  0  0  0  0  0  0  0
   60.7710   27.3565   49.9141 H   0  0  0  0  0  0  0  0  0  0  0  0
  1  2  1  0
  2  3  1  0
  3  4  1  0
  4  5  2  0
  5  6  1  0
  6  7  2  0
  7  8  1  0
  7  9  1  0
  9 10  1  0
 10 11  1  0
 11 12  1  0
 11 13  1  0
 11 14  1  0
  9 15  2  0
 15 16  1  0
 15 17  1  0
 17 18  1  0
 17 19  2  0
 19 20  1  0
 20 21  1  0
 21 22  1  0
 21 23  1  0
 21 24  1  0
  4 25  1  0
 25 26  2  0
 26 27  1  0
 27 28  1  0
 28 29  2  0
 29 30  1  0
 29 31  1  0
 31 32  1  0
 31 33  2  0
 33 34  1  0
 34 35  1  0
 35 36  2  0
 35 37  1  0
 37 38  1  0
 37 39  1  0
 37 40  1  0
 33 41  1  0
 41 42  1  0
 41 43  2  0
 43 44  1  0
 26 45  1  0
 45 46  1  0
 45  2  2  0
 19  6  1  0
 43 28  1  0
M  CHG  2   3  -1  34  -1
M  END
>  <UniqueID>  (21) 
16

>  <SMILES>  (21) 
COc1ccc(OC)c(/N=c2/nc(Oc3ccc([N-]C(C)=O)cc3)cc[n-]2)c1

>  <Energy>  (21) 
64.70615027819558

>  <Genealogy>  (21) 
COc1ccc(OC)c(N=c2nc(Oc3ccc([N-]C(C)=O)cc3)cc[n-]2)c1 (protonated)
COc1ccc(OC)c(/N=c2/nc(Oc3ccc([N-]C(C)=O)cc3)cc[n-]2)c1 (cis-trans isomerization)
COc1ccc(OC)c(/N=c2/nc(Oc3ccc([N-]C(C)=O)cc3)cc[n-]2)c1 (3D coordinates assigned)
COc1ccc(OC)c(/N=c2/nc(Oc3ccc([N-]C(C)=O)cc3)cc[n-]2)c1 (optimized conformer: 64.70615027819558 kcal/mol)

>  <smiles>  (21) 
COc1ccc(OC)c(N=c2nc(Oc3ccc(NC(C)=O)cc3)cc[nH]2)c1

>  <score_type>  (21) 
oracle

>  <origin>  (21) 
adg

>  <m_score__min__energy>  (21) 
-10.66

>  <m_primary>  (21) 
energy

$$$$
21:0
     RDKit          3D

 66 70  0  0  0  0  0  0  0  0999 V2000
   61.1320   34.2340   46.3730 C   0  0  0  0  0  0  0  0  0  0  0  0
   59.8110   34.7900   46.0290 N   0  0  0  0  0  0  0  0  0  0  0  0
   59.2740   34.2000   44.7740 C   0  0  0  0  0  0  0  0  0  0  0  0
   58.1720   33.1480   44.9990 C   0  0  0  0  0  0  0  0  0  0  0  0
   58.3890   32.4480   46.2690 N   0  0  0  0  0  0  0  0  0  0  0  0
   58.5320   31.0160   46.3200 C   0  0  0  0  0  0  0  0  0  0  0  0
   59.5720   30.4260   47.0910 C   0  0  0  0  0  0  0  0  0  0  0  0
   59.7030   29.0270   47.1690 C   0  0  0  0  0  0  0  0  0  0  0  0
   58.7810   28.2510   46.4730 C   0  0  0  0  0  0  0  0  0  0  0  0
   58.7120   26.9130   46.4170 N   0  0  0  0  0  0  0  0  0  0  0  0
   57.6310   26.7040   45.6170 C   0  0  0  0  0  0  0  0  0  0  0  0
   57.1480   25.3510   45.2600 C   0  0  0  0  0  0  0  0  0  0  0  0
   57.3900   24.8220   43.9820 C   0  0  0  0  0  0  0  0  0  0  0  0
   56.9420   23.5420   43.6510 C   0  0  0  0  0  0  0  0  0  0  0  0
   56.2160   22.7760   44.5780 C   0  0  0  0  0  0  0  0  0  0  0  0
   55.8520   21.4200   44.2820 N   0  0  0  0  0  0  0  0  0  0  0  0
   55.3790   20.4510   45.2250 C   0  0  0  0  0  0  0  0  0  0  0  0
   54.2170   20.5780   45.6960 O   0  0  0  0  0  0  0  0  0  0  0  0
   56.1810   19.2220   45.5650 C   0  0  0  0  0  0  0  0  0  0  0  0
   57.3130   19.5370   46.5580 C   0  0  0  0  0  0  0  0  0  0  0  0
   58.0320   20.7630   46.2170 N   0  0  0  0  0  0  0  0  0  0  0  0
   55.9660   23.3020   45.8610 C   0  0  0  0  0  0  0  0  0  0  0  0
   55.2480   22.5450   46.8480 N   0  0  0  0  0  0  0  0  0  0  0  0
   55.8410   22.1510   48.0950 C   0  0  0  0  0  0  0  0  0  0  0  0
   57.0940   22.1980   48.2290 O   0  0  0  0  0  0  0  0  0  0  0  0
   55.0050   21.6570   49.2150 C   0  0  0  0  0  0  0  0  0  0  0  0
   53.6620   22.0650   49.3260 C   0  0  0  0  0  0  0  0  0  0  0  0
   52.8640   21.5970   50.3750 C   0  0  0  0  0  0  0  0  0  0  0  0
   53.3940   20.7130   51.3170 C   0  0  0  0  0  0  0  0  0  0  0  0
   54.7220   20.2930   51.2120 C   0  0  0  0  0  0  0  0  0  0  0  0
   55.2320   19.4260   52.1210 F   0  0  0  0  0  0  0  0  0  0  0  0
   55.5250   20.7590   50.1650 C   0  0  0  0  0  0  0  0  0  0  0  0
   56.4460   24.5760   46.1970 C   0  0  0  0  0  0  0  0  0  0  0  0
   57.0310   27.8440   45.1810 N   0  0  0  0  0  0  0  0  0  0  0  0
   57.7810   28.8050   45.7400 C   0  0  0  0  0  0  0  0  0  0  0  0
   57.6150   30.1840   45.6370 C   0  0  0  0  0  0  0  0  0  0  0  0
   58.5010   33.2450   47.4950 C   0  0  0  0  0  0  0  0  0  0  0  0
   58.8660   34.7030   47.1640 C   0  0  0  0  0  0  0  0  0  0  0  0
   61.2375   34.1896   47.4670 H   0  0  0  0  0  0  0  0  0  0  0  0
   61.2237   33.2209   45.9544 H   0  0  0  0  0  0  0  0  0  0  0  0
   61.9206   34.8765   45.9544 H   0  0  0  0  0  0  0  0  0  0  0  0
   58.8570   35.0122   44.1605 H   0  0  0  0  0  0  0  0  0  0  0  0
   60.1110   33.6842   44.2807 H   0  0  0  0  0  0  0  0  0  0  0  0
   57.1924   33.6479   45.0228 H   0  0  0  0  0  0  0  0  0  0  0  0
   58.2019   32.4169   44.1776 H   0  0  0  0  0  0  0  0  0  0  0  0
   60.2811   31.0701   47.6318 H   0  0  0  0  0  0  0  0  0  0  0  0
   60.5065   28.5628   47.7597 H   0  0  0  0  0  0  0  0  0  0  0  0
   57.9359   25.4198   43.2372 H   0  0  0  0  0  0  0  0  0  0  0  0
   57.1596   23.1293   42.6548 H   0  0  0  0  0  0  0  0  0  0  0  0
   55.5120   18.4727   46.0133 H   0  0  0  0  0  0  0  0  0  0  0  0
   56.6346   18.8416   44.6379 H   0  0  0  0  0  0  0  0  0  0  0  0
   56.8796   19.6501   47.5627 H   0  0  0  0  0  0  0  0  0  0  0  0
   58.0325   18.7059   46.5190 H   0  0  0  0  0  0  0  0  0  0  0  0
   57.3490   21.5500   46.1320 H   0  0  0  0  0  0  0  0  0  0  0  0
   58.5010   20.6400   45.2900 H   0  0  0  0  0  0  0  0  0  0  0  0
   54.3560   22.0840   46.5570 H   0  0  0  0  0  0  0  0  0  0  0  0
   53.2377   22.7562   48.5830 H   0  0  0  0  0  0  0  0  0  0  0  0
   51.8176   21.9257   50.4580 H   0  0  0  0  0  0  0  0  0  0  0  0
   52.7654   20.3472   52.1422 H   0  0  0  0  0  0  0  0  0  0  0  0
   56.5688   20.4213   50.0843 H   0  0  0  0  0  0  0  0  0  0  0  0
   56.2703   24.9733   47.2076 H   0  0  0  0  0  0  0  0  0  0  0  0
   56.7952   30.6130   45.0422 H   0  0  0  0  0  0  0  0  0  0  0  0
   57.5387   33.2256   48.0276 H   0  0  0  0  0  0  0  0  0  0  0  0
   59.2942   32.8159   48.1248 H   0  0  0  0  0  0  0  0  0  0  0  0
   57.9473   35.2497   46.9049 H   0  0  0  0  0  0  0  0  0  0  0  0
   59.3523   35.1422   48.0475 H   0  0  0  0  0  0  0  0  0  0  0  0
  1  2  1  0
  2  3  1  0
  3  4  1  0
  4  5  1  0
  5  6  1  0
  6  7  2  0
  7  8  1  0
  8  9  2  0
  9 10  1  0
 10 11  1  0
 11 12  1  0
 12 13  2  0
 13 14  1  0
 14 15  2  0
 15 16  1  0
 16 17  1  0
 17 18  2  0
 17 19  1  0
 19 20  1  0
 20 21  1  0
 15 22  1  0
 22 23  1  0
 23 24  1  0
 24 25  2  0
 24 26  1  0
 26 27  2  0
 27 28  1  0
 28 29  2  0
 29 30  1  0
 30 31  1  0
 30 32  2  0
 22 33  2  0
 11 34  2  0
 34 35  1  0
 35 36  2  0
  5 37  1  0
 37 38  1  0
 38  2  1  0
 36  6  1  0
 35  9  1  0
 33 12  1  0
 32 26  1  0
  1 39  1  0
  1 40  1  0
  1 41  1  0
  3 42  1  0
  3 43  1  0
  4 44  1  0
  4 45  1  0
  7 46  1  0
  8 47  1  0
 13 48  1  0
 14 49  1  0
 19 50  1  0
 19 51  1  0
 20 52  1  0
 20 53  1  0
 21 54  1  0
 21 55  1  0
 23 56  1  0
 27 57  1  0
 28 58  1  0
 29 59  1  0
 32 60  1  0
 33 61  1  0
 36 62  1  0
 37 63  1  0
 37 64  1  0
 38 65  1  0
 38 66  1  0
M  CHG  2  10  -1  16  -1
M  END
>  <UniqueID>  (22) 
17

>  <SMILES>  (22) 
CN1CCN(c2ccc3[n-]c(-c4ccc([N-]C(=O)CCN)c(NC(=O)c5cccc(F)c5)c4)nc3c2)CC1

>  <Energy>  (22) 
127.55907024335804

>  <Genealogy>  (22) 
CN1CCN(c2ccc3[n-]c(-c4ccc([N-]C(=O)CCN)c(NC(=O)c5cccc(F)c5)c4)nc3c2)CC1 (protonated)
CN1CCN(c2ccc3[n-]c(-c4ccc([N-]C(=O)CCN)c(NC(=O)c5cccc(F)c5)c4)nc3c2)CC1 (3D coordinates assigned)
CN1CCN(c2ccc3[n-]c(-c4ccc([N-]C(=O)CCN)c(NC(=O)c5cccc(F)c5)c4)nc3c2)CC1 (nonaromatic ring conformer: 127.55907024335804 kcal/mol)

>  <smiles>  (22) 
CN1CCN(c2ccc3[nH]c(-c4ccc(NC(=O)CCN)c(NC(=O)c5cccc(F)c5)c4)nc3c2)CC1

>  <score_type>  (22) 
oracle

>  <origin>  (22) 
adg

>  <m_score__min__energy>  (22) 
-11.4

>  <m_primary>  (22) 
energy

$$$$
22:0
     RDKit          3D

 33 34  0  0  0  0  0  0  0  0999 V2000
   60.7510   29.6930   48.9010 C   0  0  0  0  0  0  0  0  0  0  0  0
   60.8450   28.6390   47.9470 O   0  0  0  0  0  0  0  0  0  0  0  0
   59.7670   27.8420   47.5300 C   0  0  0  0  0  0  0  0  0  0  0  0
   59.6330   26.5000   47.9380 C   0  0  0  0  0  0  0  0  0  0  0  0
   58.5520   25.7330   47.5040 C   0  0  0  0  0  0  0  0  0  0  0  0
   57.5850   26.2900   46.6620 C   0  0  0  0  0  0  0  0  0  0  0  0
   56.2020   25.3300   46.1460 S   0  0  0  0  0  0  0  0  0  0  0  0
   54.8170   26.3490   45.9880 N   0  0  0  0  0  0  0  0  0  0  0  0
   55.9210   24.2540   47.1590 O   0  0  0  0  0  0  0  0  0  0  0  0
   56.4980   24.6800   44.8240 O   0  0  0  0  0  0  0  0  0  0  0  0
   57.7040   27.6250   46.2600 C   0  0  0  0  0  0  0  0  0  0  0  0
   58.8000   28.4030   46.6740 C   0  0  0  0  0  0  0  0  0  0  0  0
   58.9120   29.7820   46.2770 N   0  0  0  0  0  0  0  0  0  0  0  0
   57.8380   30.5310   45.6860 C   0  0  0  0  0  0  0  0  0  0  0  0
   56.7970   29.9460   45.2830 O   0  0  0  0  0  0  0  0  0  0  0  0
   57.9650   31.9860   45.5100 C   0  0  0  0  0  0  0  0  0  0  0  0
   57.3340   32.7450   44.5390 C   0  0  0  0  0  0  0  0  0  0  0  0
   57.7380   34.0460   44.7530 C   0  0  0  0  0  0  0  0  0  0  0  0
   58.5870   33.9900   45.8410 C   0  0  0  0  0  0  0  0  0  0  0  0
   59.2570   35.1050   46.4340 N   0  0  0  0  0  0  0  0  0  0  0  0
   59.2120   35.2910   47.6670 O   0  0  0  0  0  0  0  0  0  0  0  0
   59.9590   35.9820   45.6420 O   0  0  0  0  0  0  0  0  0  0  0  0
   58.7060   32.7570   46.2730 O   0  0  0  0  0  0  0  0  0  0  0  0
   60.7885   29.2726   49.9168 H   0  0  0  0  0  0  0  0  0  0  0  0
   61.5906   30.3899   48.7614 H   0  0  0  0  0  0  0  0  0  0  0  0
   59.8014   30.2303   48.7614 H   0  0  0  0  0  0  0  0  0  0  0  0
   60.3866   26.0540   48.6037 H   0  0  0  0  0  0  0  0  0  0  0  0
   58.4599   24.6851   47.8257 H   0  0  0  0  0  0  0  0  0  0  0  0
   55.1480   27.3340   46.1010 H   0  0  0  0  0  0  0  0  0  0  0  0
   56.9330   28.0702   45.6140 H   0  0  0  0  0  0  0  0  0  0  0  0
   59.8470   30.2440   46.3550 H   0  0  0  0  0  0  0  0  0  0  0  0
   56.6501   32.3840   43.7567 H   0  0  0  0  0  0  0  0  0  0  0  0
   57.4463   34.9382   44.1795 H   0  0  0  0  0  0  0  0  0  0  0  0
  1  2  1  0
  2  3  1  0
  3  4  2  0
  4  5  1  0
  5  6  2  0
  6  7  1  0
  7  8  1  0
  7  9  2  0
  7 10  2  0
  6 11  1  0
 11 12  2  0
 12 13  1  0
 13 14  1  0
 14 15  2  0
 14 16  1  0
 16 17  2  0
 17 18  1  0
 18 19  2  0
 19 20  1  0
 20 21  2  0
 20 22  1  0
 19 23  1  0
 12  3  1  0
 23 16  1  0
  1 24  1  0
  1 25  1  0
  1 26  1  0
  4 27  1  0
  5 28  1  0
  8 29  1  0
 11 30  1  0
 13 31  1  0
 17 32  1  0
 18 33  1  0
M  CHG  3   8  -1  20   1  22  -1
M  END
>  <UniqueID>  (23) 
18

>  <SMILES>  (23) 
COc1ccc(S([NH-])(=O)=O)cc1NC(=O)c1ccc([N+](=O)[O-])o1

>  <Energy>  (23) 
61.455230665208276

>  <Genealogy>  (23) 
COc1ccc(S([NH-])(=O)=O)cc1NC(=O)c1ccc([N+](=O)[O-])o1 (protonated)
COc1ccc(S([NH-])(=O)=O)cc1NC(=O)c1ccc([N+](=O)[O-])o1 (3D coordinates assigned)
COc1ccc(S([NH-])(=O)=O)cc1NC(=O)c1ccc([N+](=O)[O-])o1 (optimized conformer: 61.455230665208276 kcal/mol)

>  <smiles>  (23) 
COc1ccc(S(N)(=O)=O)cc1NC(=O)c1ccc([N+](=O)[O-])o1

>  <score_type>  (23) 
oracle

>  <origin>  (23) 
adg

>  <m_score__min__energy>  (23) 
-9.9000000000000004

>  <m_primary>  (23) 
energy

$$$$
23:0
     RDKit          3D

 51 55  0  0  0  0  0  0  0  0999 V2000
   55.9350   29.7190   42.8850 C   0  0  0  0  0  0  0  0  0  0  0  0
   55.9050   30.3920   44.1390 O   0  0  0  0  0  0  0  0  0  0  0  0
   57.0460   30.7460   44.8780 C   0  0  0  0  0  0  0  0  0  0  0  0
   57.3870   32.0860   45.1330 C   0  0  0  0  0  0  0  0  0  0  0  0
   58.5400   32.3980   45.8540 C   0  0  0  0  0  0  0  0  0  0  0  0
   59.3860   31.3830   46.3200 C   0  0  0  0  0  0  0  0  0  0  0  0
   60.6220   31.7430   47.0520 C   0  0  0  0  0  0  0  0  0  0  0  0
   61.1660   31.0110   48.0590 N   0  0  0  0  0  0  0  0  0  0  0  0
   62.2570   31.7120   48.4010 C   0  0  0  0  0  0  0  0  0  0  0  0
   63.2050   31.4260   49.3790 C   0  0  0  0  0  0  0  0  0  0  0  0
   64.2720   32.3310   49.5340 C   0  0  0  0  0  0  0  0  0  0  0  0
   64.3600   33.4830   48.7160 C   0  0  0  0  0  0  0  0  0  0  0  0
   63.3830   33.7370   47.7340 C   0  0  0  0  0  0  0  0  0  0  0  0
   62.3440   32.8190   47.6100 C   0  0  0  0  0  0  0  0  0  0  0  0
   61.3320   32.8300   46.7790 O   0  0  0  0  0  0  0  0  0  0  0  0
   59.0410   30.0410   46.0790 C   0  0  0  0  0  0  0  0  0  0  0  0
   57.8640   29.7210   45.3820 C   0  0  0  0  0  0  0  0  0  0  0  0
   57.5290   28.3590   45.0930 N   0  0  0  0  0  0  0  0  0  0  0  0
   56.9680   27.4140   46.0130 C   0  0  0  0  0  0  0  0  0  0  0  0
   55.7620   27.0780   45.8700 O   0  0  0  0  0  0  0  0  0  0  0  0
   57.7210   26.9690   47.2430 C   0  0  0  0  0  0  0  0  0  0  0  0
   59.5270   27.1630   47.0350 S   0  0  0  0  0  0  0  0  0  0  0  0
   59.7290   28.2010   48.4790 C   0  0  0  0  0  0  0  0  0  0  0  0
   60.7730   28.1040   49.3210 N   0  0  0  0  0  0  0  0  0  0  0  0
   60.5960   29.0360   50.2400 N   0  0  0  0  0  0  0  0  0  0  0  0
   59.4470   29.6730   49.9360 C   0  0  0  0  0  0  0  0  0  0  0  0
   58.8900   30.7870   50.7330 C   0  0  0  0  0  0  0  0  0  0  0  0
   59.3830   32.0920   50.5510 C   0  0  0  0  0  0  0  0  0  0  0  0
   58.8750   33.1550   51.3040 C   0  0  0  0  0  0  0  0  0  0  0  0
   57.8660   32.9290   52.2420 C   0  0  0  0  0  0  0  0  0  0  0  0
   57.3650   31.6390   52.4310 C   0  0  0  0  0  0  0  0  0  0  0  0
   57.8690   30.5700   51.6820 C   0  0  0  0  0  0  0  0  0  0  0  0
   57.3700   29.3260   51.9030 F   0  0  0  0  0  0  0  0  0  0  0  0
   58.8690   29.1780   48.8220 N   0  0  0  0  0  0  0  0  0  0  0  0
   55.9834   28.6330   43.0528 H   0  0  0  0  0  0  0  0  0  0  0  0
   55.0251   29.9620   42.3166 H   0  0  0  0  0  0  0  0  0  0  0  0
   56.8196   30.0420   42.3166 H   0  0  0  0  0  0  0  0  0  0  0  0
   56.7400   32.8943   44.7613 H   0  0  0  0  0  0  0  0  0  0  0  0
   58.7871   33.4502   46.0584 H   0  0  0  0  0  0  0  0  0  0  0  0
   60.8460   30.1040   48.4620 H   0  0  0  0  0  0  0  0  0  0  0  0
   63.1236   30.5267   50.0072 H   0  0  0  0  0  0  0  0  0  0  0  0
   65.0426   32.1418   50.2958 H   0  0  0  0  0  0  0  0  0  0  0  0
   65.1970   34.1844   48.8483 H   0  0  0  0  0  0  0  0  0  0  0  0
   63.4388   34.6268   47.0896 H   0  0  0  0  0  0  0  0  0  0  0  0
   59.6980   29.2356   46.4391 H   0  0  0  0  0  0  0  0  0  0  0  0
   57.3935   27.5751   48.1006 H   0  0  0  0  0  0  0  0  0  0  0  0
   57.5069   25.9030   47.4100 H   0  0  0  0  0  0  0  0  0  0  0  0
   60.1747   32.2776   49.8102 H   0  0  0  0  0  0  0  0  0  0  0  0
   59.2709   34.1707   51.1571 H   0  0  0  0  0  0  0  0  0  0  0  0
   57.4657   33.7666   52.8320 H   0  0  0  0  0  0  0  0  0  0  0  0
   56.5710   31.4627   53.1716 H   0  0  0  0  0  0  0  0  0  0  0  0
  1  2  1  0
  2  3  1  0
  3  4  2  0
  4  5  1  0
  5  6  2  0
  6  7  1  0
  7  8  2  0
  8  9  1  0
  9 10  2  0
 10 11  1  0
 11 12  2  0
 12 13  1  0
 13 14  2  0
 14 15  1  0
  6 16  1  0
 16 17  2  0
 17 18  1  0
 18 19  1  0
 19 20  2  0
 19 21  1  0
 21 22  1  0
 22 23  1  0
 23 24  2  0
 24 25  1  0
 25 26  1  0
 26 27  1  0
 27 28  2  0
 28 29  1  0
 29 30  2  0
 30 31  1  0
 31 32  2  0
 32 33  1  0
 26 34  2  0
 17  3  1  0
 34 23  1  0
 15  7  1  0
 32 27  1  0
 14  9  1  0
  1 35  1  0
  1 36  1  0
  1 37  1  0
  4 38  1  0
  5 39  1  0
  8 40  1  0
 10 41  1  0
 11 42  1  0
 12 43  1  0
 13 44  1  0
 16 45  1  0
 21 46  1  0
 21 47  1  0
 28 48  1  0
 29 49  1  0
 30 50  1  0
 31 51  1  0
M  CHG  3   8   1  18  -1  25  -1
M  END
>  <UniqueID>  (24) 
19

>  <SMILES>  (24) 
COc1ccc(-c2[nH+]c3ccccc3o2)cc1[N-]C(=O)CSc1n[n-]c(-c2ccccc2F)n1

>  <Energy>  (24) 
129.97457380062724

>  <Genealogy>  (24) 
COc1ccc(-c2[nH+]c3ccccc3o2)cc1[N-]C(=O)CSc1n[n-]c(-c2ccccc2F)n1 (protonated)
COc1ccc(-c2[nH+]c3ccccc3o2)cc1[N-]C(=O)CSc1n[n-]c(-c2ccccc2F)n1 (3D coordinates assigned)
COc1ccc(-c2[nH+]c3ccccc3o2)cc1[N-]C(=O)CSc1n[n-]c(-c2ccccc2F)n1 (optimized conformer: 129.97457380062724 kcal/mol)

>  <smiles>  (24) 
COc1ccc(-c2nc3ccccc3o2)cc1NC(=O)CSc1n[nH]c(-c2ccccc2F)n1

>  <score_type>  (24) 
oracle

>  <origin>  (24) 
adg

>  <m_score__min__energy>  (24) 
-10.25

>  <m_primary>  (24) 
energy

$$$$
24:0
     RDKit          3D

 42 44  0  0  0  0  0  0  0  0999 V2000
   56.6530   26.7600   46.2120 C   0  0  0  0  0  0  0  0  0  0  0  0
   56.6600   28.1020   45.5460 C   0  0  0  0  0  0  0  0  0  0  0  0
   55.6370   28.5880   44.8770 O   0  0  0  0  0  0  0  0  0  0  0  0
   55.9610   29.7690   44.4000 C   0  0  0  0  0  0  0  0  0  0  0  0
   57.2560   30.0810   44.7660 C   0  0  0  0  0  0  0  0  0  0  0  0
   57.7110   29.0070   45.5120 C   0  0  0  0  0  0  0  0  0  0  0  0
   59.0670   28.8360   46.0730 C   0  0  0  0  0  0  0  0  0  0  0  0
   59.7090   27.7790   45.8270 O   0  0  0  0  0  0  0  0  0  0  0  0
   59.6740   29.8630   46.8820 N   0  0  0  0  0  0  0  0  0  0  0  0
   61.1190   30.0910   46.8060 C   0  0  0  0  0  0  0  0  0  0  0  0
   61.4040   31.5570   47.1370 C   0  0  0  0  0  0  0  0  0  0  0  0
   60.9290   31.9380   48.4950 N   0  0  0  0  0  0  0  0  0  0  0  0
   60.4990   33.6370   48.5180 S   0  0  0  0  0  0  0  0  0  0  0  0
   59.7070   33.9440   49.7570 O   0  0  0  0  0  0  0  0  0  0  0  0
   61.7440   34.4840   48.5310 O   0  0  0  0  0  0  0  0  0  0  0  0
   59.5130   34.0460   47.1150 C   0  0  0  0  0  0  0  0  0  0  0  0
   60.0450   34.8270   46.0810 C   0  0  0  0  0  0  0  0  0  0  0  0
   59.2580   35.1450   44.9700 C   0  0  0  0  0  0  0  0  0  0  0  0
   57.9370   34.6850   44.8890 C   0  0  0  0  0  0  0  0  0  0  0  0
   57.4050   33.9030   45.9150 C   0  0  0  0  0  0  0  0  0  0  0  0
   58.1920   33.5820   47.0260 C   0  0  0  0  0  0  0  0  0  0  0  0
   59.8170   31.0970   49.0170 C   0  0  0  0  0  0  0  0  0  0  0  0
   58.8930   30.5640   47.9120 C   0  0  0  0  0  0  0  0  0  0  0  0
   56.6537   26.8926   47.3040 H   0  0  0  0  0  0  0  0  0  0  0  0
   55.7520   26.2057   45.9105 H   0  0  0  0  0  0  0  0  0  0  0  0
   57.5482   26.1964   45.9105 H   0  0  0  0  0  0  0  0  0  0  0  0
   55.3005   30.4121   43.7998 H   0  0  0  0  0  0  0  0  0  0  0  0
   57.8124   30.9963   44.5157 H   0  0  0  0  0  0  0  0  0  0  0  0
   61.6344   29.4417   47.5290 H   0  0  0  0  0  0  0  0  0  0  0  0
   61.4816   29.8587   45.7938 H   0  0  0  0  0  0  0  0  0  0  0  0
   62.4896   31.7262   47.0828 H   0  0  0  0  0  0  0  0  0  0  0  0
   60.8610   32.1758   46.4074 H   0  0  0  0  0  0  0  0  0  0  0  0
   61.7360   31.8310   49.1590 H   0  0  0  0  0  0  0  0  0  0  0  0
   61.0815   35.1900   46.1431 H   0  0  0  0  0  0  0  0  0  0  0  0
   59.6767   35.7575   44.1579 H   0  0  0  0  0  0  0  0  0  0  0  0
   57.3187   34.9405   44.0158 H   0  0  0  0  0  0  0  0  0  0  0  0
   56.3688   33.5397   45.8503 H   0  0  0  0  0  0  0  0  0  0  0  0
   57.7733   32.9631   47.8333 H   0  0  0  0  0  0  0  0  0  0  0  0
   60.2491   30.2404   49.5551 H   0  0  0  0  0  0  0  0  0  0  0  0
   59.2070   31.7328   49.6755 H   0  0  0  0  0  0  0  0  0  0  0  0
   58.1663   29.8659   48.3531 H   0  0  0  0  0  0  0  0  0  0  0  0
   58.3693   31.4118   47.4462 H   0  0  0  0  0  0  0  0  0  0  0  0
  1  2  1  0
  2  3  1  0
  3  4  1  0
  4  5  2  0
  5  6  1  0
  6  7  1  0
  7  8  2  0
  7  9  1  0
  9 10  1  0
 10 11  1  0
 11 12  1  0
 12 13  1  0
 13 14  2  0
 13 15  2  0
 13 16  1  0
 16 17  2  0
 17 18  1  0
 18 19  2  0
 19 20  1  0
 20 21  2  0
 12 22  1  0
 22 23  1  0
  6  2  2  0
 23  9  1  0
 21 16  1  0
  1 24  1  0
  1 25  1  0
  1 26  1  0
  4 27  1  0
  5 28  1  0
 10 29  1  0
 10 30  1  0
 11 31  1  0
 11 32  1  0
 12 33  1  0
 17 34  1  0
 18 35  1  0
 19 36  1  0
 20 37  1  0
 21 38  1  0
 22 39  1  0
 22 40  1  0
 23 41  1  0
 23 42  1  0
M  CHG  1  12   1
M  END
>  <UniqueID>  (25) 
20

>  <SMILES>  (25) 
Cc1occc1C(=O)N1CC[NH+](S(=O)(=O)c2ccccc2)CC1

>  <Energy>  (25) 
77.88197713480297

>  <Genealogy>  (25) 
Cc1occc1C(=O)N1CC[NH+](S(=O)(=O)c2ccccc2)CC1 (protonated)
Cc1occc1C(=O)N1CC[NH+](S(=O)(=O)c2ccccc2)CC1 (3D coordinates assigned)
Cc1occc1C(=O)N1CC[NH+](S(=O)(=O)c2ccccc2)CC1 (nonaromatic ring conformer: 77.88197713480297 kcal/mol)

>  <smiles>  (25) 
Cc1occc1C(=O)N1CCN(S(=O)(=O)c2ccccc2)CC1

>  <score_type>  (25) 
oracle

>  <origin>  (25) 
adg

>  <m_score__min__energy>  (25) 
-6.2400000000000002

>  <m_primary>  (25) 
energy

$$$$
25:0
     RDKit          3D

 42 44  0  0  1  0  0  0  0  0999 V2000
   55.2080   29.7300   43.4240 C   0  0  0  0  0  0  0  0  0  0  0  0
   56.2830   29.8940   44.4470 C   0  0  0  0  0  0  0  0  0  0  0  0
   56.8240   31.0890   44.7470 N   0  0  0  0  0  0  0  0  0  0  0  0
   57.7950   31.2210   45.6750 C   0  0  0  0  0  0  0  0  0  0  0  0
   58.3820   32.5160   46.0020 C   0  0  0  0  0  0  0  0  0  0  0  0
   58.5870   32.7620   47.3620 C   0  0  0  0  0  0  0  0  0  0  0  0
   58.2500   31.8280   48.3000 F   0  0  0  0  0  0  0  0  0  0  0  0
   59.1400   33.9750   47.7290 C   0  0  0  0  0  0  0  0  0  0  0  0
   59.4850   34.9280   46.7760 C   0  0  0  0  0  0  0  0  0  0  0  0
   59.2780   34.6820   45.4250 C   0  0  0  0  0  0  0  0  0  0  0  0
   58.7190   33.4550   45.0500 C   0  0  0  0  0  0  0  0  0  0  0  0
   58.4330   33.0820   43.3640 Cl  0  0  0  0  0  0  0  0  0  0  0  0
   58.2710   30.0970   46.3570 C   0  0  0  0  0  0  0  0  0  0  0  0
   57.7110   28.8770   46.0410 C   0  0  0  0  0  0  0  0  0  0  0  0
   58.0620   27.7670   46.5970 N   0  0  0  0  0  0  0  0  0  0  0  0
   58.3220   26.6360   45.7270 C   0  0  0  0  0  0  0  0  0  0  0  0
   57.0290   25.8670   45.6830 C   0  0  0  0  0  0  0  0  0  0  0  0
   56.8550   24.6040   45.1580 C   0  0  0  0  0  0  0  0  0  0  0  0
   55.5530   24.3150   45.3310 N   0  0  0  0  0  0  0  0  0  0  0  0
   54.9430   23.0660   44.9140 C   0  0  0  0  0  0  0  0  0  0  0  0
   54.5410   22.3400   46.1910 C   0  0  0  0  0  0  0  0  0  0  0  0
   54.3960   23.2490   47.3140 N   0  0  0  0  0  0  0  0  0  0  0  0
   54.9190   25.3100   45.9230 N   0  0  0  0  0  0  0  0  0  0  0  0
   55.8210   26.2510   46.1350 N   0  0  0  0  0  0  0  0  0  0  0  0
   56.7430   28.8110   45.1040 N   0  0  0  0  0  0  0  0  0  0  0  0
   54.2415   29.5826   43.9281 H   0  0  0  0  0  0  0  0  0  0  0  0
   55.1598   30.6312   42.7951 H   0  0  0  0  0  0  0  0  0  0  0  0
   55.4307   28.8554   42.7951 H   0  0  0  0  0  0  0  0  0  0  0  0
   59.3103   34.1905   48.7942 H   0  0  0  0  0  0  0  0  0  0  0  0
   59.9253   35.8842   47.0952 H   0  0  0  0  0  0  0  0  0  0  0  0
   59.5469   35.4334   44.6679 H   0  0  0  0  0  0  0  0  0  0  0  0
   59.0620   30.1826   47.1166 H   0  0  0  0  0  0  0  0  0  0  0  0
   58.6008   26.9799   44.7200 H   0  0  0  0  0  0  0  0  0  0  0  0
   59.1555   26.0185   46.0932 H   0  0  0  0  0  0  0  0  0  0  0  0
   57.6215   23.9657   44.6942 H   0  0  0  0  0  0  0  0  0  0  0  0
   54.0568   23.2635   44.2930 H   0  0  0  0  0  0  0  0  0  0  0  0
   55.6386   22.4622   44.3127 H   0  0  0  0  0  0  0  0  0  0  0  0
   53.5814   21.8296   46.0217 H   0  0  0  0  0  0  0  0  0  0  0  0
   55.3372   21.6220   46.4372 H   0  0  0  0  0  0  0  0  0  0  0  0
   53.6340   23.9530   47.0780 H   0  0  0  0  0  0  0  0  0  0  0  0
   55.3070   23.7570   47.4120 H   0  0  0  0  0  0  0  0  0  0  0  0
   56.3070   27.8730   44.8560 H   0  0  0  0  0  0  0  0  0  0  0  0
  1  2  1  0
  2  3  2  0
  3  4  1  0
  4  5  1  0
  5  6  2  0
  6  7  1  0
  6  8  1  0
  8  9  2  0
  9 10  1  0
 10 11  2  0
 11 12  1  0
  4 13  2  0
 13 14  1  0
 14 15  2  0
 15 16  1  0
 16 17  1  0
 17 18  2  0
 18 19  1  0
 19 20  1  0
 20 21  1  0
 21 22  1  0
 19 23  1  0
 23 24  2  0
 14 25  1  0
 25  2  1  0
 11  5  1  0
 24 17  1  0
  1 26  1  0
  1 27  1  0
  1 28  1  0
  8 29  1  0
  9 30  1  0
 10 31  1  0
 13 32  1  0
 16 33  1  0
 16 34  1  0
 18 35  1  0
 20 36  1  0
 20 37  1  0
 21 38  1  0
 21 39  1  0
 22 40  1  0
 22 41  1  0
 25 42  1  0
M  END
>  <smiles>  (26) 
Cc1nc(-c2c(F)cccc2Cl)cc(=NCc2cn(CCN)nn2)[nH]1

>  <score_type>  (26) 
oracle

>  <origin>  (26) 
adg

>  <m_score__min__energy>  (26) 
-9.3699999999999992

>  <m_primary>  (26) 
energy

$$$$
26:0
     RDKit          3D

 29 30  0  0  0  0  0  0  0  0999 V2000
   55.4409   30.9123   43.9186 H   0  0  0  0  0  0  0  0  0  0  0  0
   56.0860   30.1240   44.3340 C   0  0  0  0  0  0  0  0  0  0  0  0
   55.5300   29.0050   44.8680 N   0  0  0  0  0  0  0  0  0  0  0  0
   56.2810   27.9980   45.3900 C   0  0  0  0  0  0  0  0  0  0  0  0
   55.6670   26.9650   45.8970 N   0  0  0  0  0  0  0  0  0  0  0  0
   55.9260   25.5820   45.6190 C   0  0  0  0  0  0  0  0  0  0  0  0
   55.5030   24.7090   46.4210 O   0  0  0  0  0  0  0  0  0  0  0  0
   56.5940   25.1920   44.4090 N   0  0  0  0  0  0  0  0  0  0  0  0
   56.9250   25.9310   43.7490 H   0  0  0  0  0  0  0  0  0  0  0  0
   57.0210   23.8440   44.1750 C   0  0  0  0  0  0  0  0  0  0  0  0
   56.2350   23.0120   43.3660 C   0  0  0  0  0  0  0  0  0  0  0  0
   55.3055   23.3987   42.9227 H   0  0  0  0  0  0  0  0  0  0  0  0
   56.6270   21.6930   43.1200 C   0  0  0  0  0  0  0  0  0  0  0  0
   56.0119   21.0478   42.4755 H   0  0  0  0  0  0  0  0  0  0  0  0
   57.7990   21.1940   43.6920 C   0  0  0  0  0  0  0  0  0  0  0  0
   58.1103   20.1579   43.4927 H   0  0  0  0  0  0  0  0  0  0  0  0
   58.5770   22.0110   44.5180 C   0  0  0  0  0  0  0  0  0  0  0  0
   59.4965   21.6133   44.9724 H   0  0  0  0  0  0  0  0  0  0  0  0
   58.1910   23.3320   44.7690 C   0  0  0  0  0  0  0  0  0  0  0  0
   59.2420   24.3780   45.9850 Br  0  0  0  0  0  0  0  0  0  0  0  0
   57.6870   28.1290   45.4040 C   0  0  0  0  0  0  0  0  0  0  0  0
   58.3108   27.3434   45.8553 H   0  0  0  0  0  0  0  0  0  0  0  0
   58.2840   29.2650   44.8400 C   0  0  0  0  0  0  0  0  0  0  0  0
   59.7740   29.4350   44.8800 C   0  0  0  0  0  0  0  0  0  0  0  0
   60.1107   29.4734   45.9265 H   0  0  0  0  0  0  0  0  0  0  0  0
   60.2537   28.5858   44.3714 H   0  0  0  0  0  0  0  0  0  0  0  0
   60.0501   30.3705   44.3714 H   0  0  0  0  0  0  0  0  0  0  0  0
   57.4720   30.2760   44.3110 C   0  0  0  0  0  0  0  0  0  0  0  0
   57.9236   31.1822   43.8811 H   0  0  0  0  0  0  0  0  0  0  0  0
  1  2  1  0
  2  3  1  0
  3  4  1  0
  4  5  2  0
  5  6  1  0
  6  7  2  0
  6  8  1  0
  8  9  1  0
  8 10  1  0
 10 11  2  0
 11 12  1  0
 11 13  1  0
 13 14  1  0
 13 15  2  0
 15 16  1  0
 15 17  1  0
 17 18  1  0
 17 19  2  0
 19 20  1  0
  4 21  1  0
 21 22  1  0
 21 23  2  0
 23 24  1  0
 24 25  1  0
 24 26  1  0
 24 27  1  0
 23 28  1  0
 28 29  1  0
 28  2  2  0
 19 10  1  0
M  CHG  1   3  -1
M  END
>  <UniqueID>  (27) 
21

>  <SMILES>  (27) 
Cc1cc[n-]/c(=N/C(=O)Nc2ccccc2Br)c1

>  <Energy>  (27) 
44.336104914205585

>  <Genealogy>  (27) 
Cc1cc[n-]c(=NC(=O)Nc2ccccc2Br)c1 (protonated)
Cc1cc[n-]/c(=N/C(=O)Nc2ccccc2Br)c1 (cis-trans isomerization)
Cc1cc[n-]/c(=N/C(=O)Nc2ccccc2Br)c1 (3D coordinates assigned)
Cc1cc[n-]/c(=N/C(=O)Nc2ccccc2Br)c1 (optimized conformer: 44.336104914205585 kcal/mol)

>  <smiles>  (27) 
Cc1cc[nH]c(=NC(=O)Nc2ccccc2Br)c1

>  <score_type>  (27) 
oracle

>  <origin>  (27) 
adg

>  <m_score__min__energy>  (27) 
-8.9399999999999995

>  <m_primary>  (27) 
energy

$$$$
27:0
     RDKit          3D

 51 54  0  0  0  0  0  0  0  0999 V2000
   59.7740   36.0790   45.7060 C   0  0  0  0  0  0  0  0  0  0  0  0
   59.2890   34.7180   46.0960 C   0  0  0  0  0  0  0  0  0  0  0  0
   58.6410   33.9030   45.1650 C   0  0  0  0  0  0  0  0  0  0  0  0
   58.2190   32.6240   45.5630 C   0  0  0  0  0  0  0  0  0  0  0  0
   57.5310   31.6880   44.6440 C   0  0  0  0  0  0  0  0  0  0  0  0
   57.6580   31.7740   43.2440 C   0  0  0  0  0  0  0  0  0  0  0  0
   56.9710   30.8660   42.4340 C   0  0  0  0  0  0  0  0  0  0  0  0
   56.1620   29.8890   43.0140 C   0  0  0  0  0  0  0  0  0  0  0  0
   56.0460   29.8370   44.4030 C   0  0  0  0  0  0  0  0  0  0  0  0
   56.7220   30.7280   45.1760 N   0  0  0  0  0  0  0  0  0  0  0  0
   58.4810   32.2140   46.8340 N   0  0  0  0  0  0  0  0  0  0  0  0
   59.1190   33.0120   47.7340 C   0  0  0  0  0  0  0  0  0  0  0  0
   59.3830   32.5330   49.0700 N   0  0  0  0  0  0  0  0  0  0  0  0
   60.5920   32.9740   49.7840 C   0  0  0  0  0  0  0  0  0  0  0  0
   61.6290   31.8500   49.8360 C   0  0  0  0  0  0  0  0  0  0  0  0
   61.4220   30.7680   48.7620 C   0  0  0  0  0  0  0  0  0  0  0  0
   60.3660   29.8090   49.1330 N   0  0  0  0  0  0  0  0  0  0  0  0
   60.3500   28.5080   48.5150 C   0  0  0  0  0  0  0  0  0  0  0  0
   60.8580   27.5250   49.1210 O   0  0  0  0  0  0  0  0  0  0  0  0
   59.7410   28.2960   47.1860 C   0  0  0  0  0  0  0  0  0  0  0  0
   58.5390   27.5790   47.0630 C   0  0  0  0  0  0  0  0  0  0  0  0
   57.9660   27.3740   45.8040 C   0  0  0  0  0  0  0  0  0  0  0  0
   58.5930   27.8720   44.6590 C   0  0  0  0  0  0  0  0  0  0  0  0
   59.7990   28.5700   44.7710 C   0  0  0  0  0  0  0  0  0  0  0  0
   60.3750   28.7760   46.0280 C   0  0  0  0  0  0  0  0  0  0  0  0
   59.2320   30.1680   50.0070 C   0  0  0  0  0  0  0  0  0  0  0  0
   58.5080   31.4760   49.6180 C   0  0  0  0  0  0  0  0  0  0  0  0
   59.5190   34.2550   47.3520 N   0  0  0  0  0  0  0  0  0  0  0  0
   59.9835   36.6670   46.6117 H   0  0  0  0  0  0  0  0  0  0  0  0
   60.6935   35.9837   45.1098 H   0  0  0  0  0  0  0  0  0  0  0  0
   59.0014   36.5867   45.1098 H   0  0  0  0  0  0  0  0  0  0  0  0
   58.4644   34.2566   44.1385 H   0  0  0  0  0  0  0  0  0  0  0  0
   58.2931   32.5499   42.7917 H   0  0  0  0  0  0  0  0  0  0  0  0
   57.0681   30.9217   41.3397 H   0  0  0  0  0  0  0  0  0  0  0  0
   55.6217   29.1678   42.3832 H   0  0  0  0  0  0  0  0  0  0  0  0
   55.4073   29.0748   44.8732 H   0  0  0  0  0  0  0  0  0  0  0  0
   61.0242   33.8403   49.2617 H   0  0  0  0  0  0  0  0  0  0  0  0
   60.3153   33.2481   50.8127 H   0  0  0  0  0  0  0  0  0  0  0  0
   62.6269   32.2913   49.6966 H   0  0  0  0  0  0  0  0  0  0  0  0
   61.5209   31.3576   50.8137 H   0  0  0  0  0  0  0  0  0  0  0  0
   61.1410   31.2561   47.8171 H   0  0  0  0  0  0  0  0  0  0  0  0
   62.3641   30.2095   48.6598 H   0  0  0  0  0  0  0  0  0  0  0  0
   58.0466   27.1772   47.9608 H   0  0  0  0  0  0  0  0  0  0  0  0
   57.0200   26.8197   45.7149 H   0  0  0  0  0  0  0  0  0  0  0  0
   58.1379   27.7149   43.6700 H   0  0  0  0  0  0  0  0  0  0  0  0
   60.2953   28.9576   43.8691 H   0  0  0  0  0  0  0  0  0  0  0  0
   61.3294   29.3166   46.1107 H   0  0  0  0  0  0  0  0  0  0  0  0
   58.4999   29.3477   49.9732 H   0  0  0  0  0  0  0  0  0  0  0  0
   59.6519   30.3312   51.0105 H   0  0  0  0  0  0  0  0  0  0  0  0
   57.7490   31.2337   48.8596 H   0  0  0  0  0  0  0  0  0  0  0  0
   58.0815   31.8804   50.5478 H   0  0  0  0  0  0  0  0  0  0  0  0
  1  2  1  0
  2  3  2  0
  3  4  1  0
  4  5  1  0
  5  6  2  0
  6  7  1  0
  7  8  2  0
  8  9  1  0
  9 10  2  0
  4 11  2  0
 11 12  1  0
 12 13  1  0
 13 14  1  0
 14 15  1  0
 15 16  1  0
 16 17  1  0
 17 18  1  0
 18 19  2  0
 18 20  1  0
 20 21  2  0
 21 22  1  0
 22 23  2  0
 23 24  1  0
 24 25  2  0
 17 26  1  0
 26 27  1  0
 12 28  2  0
 28  2  1  0
 10  5  1  0
 27 13  1  0
 25 20  1  0
  1 29  1  0
  1 30  1  0
  1 31  1  0
  3 32  1  0
  6 33  1  0
  7 34  1  0
  8 35  1  0
  9 36  1  0
 14 37  1  0
 14 38  1  0
 15 39  1  0
 15 40  1  0
 16 41  1  0
 16 42  1  0
 21 43  1  0
 22 44  1  0
 23 45  1  0
 24 46  1  0
 25 47  1  0
 26 48  1  0
 26 49  1  0
 27 50  1  0
 27 51  1  0
M  END
>  <UniqueID>  (28) 
22

>  <SMILES>  (28) 
Cc1cc(-c2ccccn2)nc(N2CCCN(C(=O)c3ccccc3)CC2)n1

>  <Energy>  (28) 
67.88148704077123

>  <Genealogy>  (28) 
Cc1cc(-c2ccccn2)nc(N2CCCN(C(=O)c3ccccc3)CC2)n1 (3D coordinates assigned)
Cc1cc(-c2ccccn2)nc(N2CCCN(C(=O)c3ccccc3)CC2)n1 (nonaromatic ring conformer: 67.88148704077123 kcal/mol)

>  <smiles>  (28) 
Cc1cc(-c2ccccn2)nc(N2CCCN(C(=O)c3ccccc3)CC2)n1

>  <score_type>  (28) 
oracle

>  <origin>  (28) 
adg

>  <m_score__min__energy>  (28) 
-6.4800000000000004

>  <m_primary>  (28) 
energy

$$$$
28:0
     RDKit          3D

 49 51  0  0  0  0  0  0  0  0999 V2000
   61.2160   30.3800   47.6370 F   0  0  0  0  0  0  0  0  0  0  0  0
   61.9140   31.5190   47.8840 C   0  0  0  0  0  0  0  0  0  0  0  0
   63.0540   31.7950   47.1230 C   0  0  0  0  0  0  0  0  0  0  0  0
   63.7890   32.9610   47.3560 C   0  0  0  0  0  0  0  0  0  0  0  0
   63.3900   33.8510   48.3550 C   0  0  0  0  0  0  0  0  0  0  0  0
   62.2520   33.5810   49.1190 C   0  0  0  0  0  0  0  0  0  0  0  0
   61.4970   32.4150   48.8920 C   0  0  0  0  0  0  0  0  0  0  0  0
   60.3060   32.1540   49.6700 N   0  0  0  0  0  0  0  0  0  0  0  0
   59.6440   33.3780   50.0690 C   0  0  0  0  0  0  0  0  0  0  0  0
   59.6630   33.8360   51.6500 S   0  0  0  0  0  0  0  0  0  0  0  0
   59.3980   34.4080   49.0940 N   0  0  0  0  0  0  0  0  0  0  0  0
   58.9910   34.1540   47.7420 C   0  0  0  0  0  0  0  0  0  0  0  0
   59.6550   34.7910   46.6860 C   0  0  0  0  0  0  0  0  0  0  0  0
   59.2600   34.5710   45.3630 C   0  0  0  0  0  0  0  0  0  0  0  0
   58.1840   33.7080   45.0780 C   0  0  0  0  0  0  0  0  0  0  0  0
   57.7540   33.4340   43.7690 O   0  0  0  0  0  0  0  0  0  0  0  0
   58.1100   32.2820   43.0020 C   0  0  0  0  0  0  0  0  0  0  0  0
   57.1380   31.1120   43.2400 C   0  0  0  0  0  0  0  0  0  0  0  0
   57.2350   30.5840   44.6200 N   0  0  0  0  0  0  0  0  0  0  0  0
   56.4560   29.3300   44.7770 C   0  0  0  0  0  0  0  0  0  0  0  0
   57.3570   28.0830   44.7100 C   0  0  0  0  0  0  0  0  0  0  0  0
   58.3720   28.0570   45.7050 O   0  0  0  0  0  0  0  0  0  0  0  0
   58.7800   29.3480   46.1380 C   0  0  0  0  0  0  0  0  0  0  0  0
   58.6440   30.4280   45.0530 C   0  0  0  0  0  0  0  0  0  0  0  0
   57.5010   33.1010   46.1370 C   0  0  0  0  0  0  0  0  0  0  0  0
   57.8920   33.3280   47.4600 C   0  0  0  0  0  0  0  0  0  0  0  0
   63.3734   31.0928   46.3389 H   0  0  0  0  0  0  0  0  0  0  0  0
   64.6824   33.1775   46.7518 H   0  0  0  0  0  0  0  0  0  0  0  0
   63.9722   34.7656   48.5407 H   0  0  0  0  0  0  0  0  0  0  0  0
   61.9432   34.2859   49.9050 H   0  0  0  0  0  0  0  0  0  0  0  0
   60.5750   31.5910   50.5080 H   0  0  0  0  0  0  0  0  0  0  0  0
   59.6260   31.5750   49.1260 H   0  0  0  0  0  0  0  0  0  0  0  0
   59.5780   35.4010   49.3690 H   0  0  0  0  0  0  0  0  0  0  0  0
   60.4939   35.4698   46.8993 H   0  0  0  0  0  0  0  0  0  0  0  0
   59.7916   35.0738   44.5416 H   0  0  0  0  0  0  0  0  0  0  0  0
   58.0938   32.5465   41.9344 H   0  0  0  0  0  0  0  0  0  0  0  0
   59.1142   31.9605   43.3152 H   0  0  0  0  0  0  0  0  0  0  0  0
   56.1102   31.4626   43.0651 H   0  0  0  0  0  0  0  0  0  0  0  0
   57.4047   30.3014   42.5459 H   0  0  0  0  0  0  0  0  0  0  0  0
   55.9453   29.3480   45.7511 H   0  0  0  0  0  0  0  0  0  0  0  0
   55.7318   29.2725   43.9510 H   0  0  0  0  0  0  0  0  0  0  0  0
   56.7254   27.1911   44.8349 H   0  0  0  0  0  0  0  0  0  0  0  0
   57.8641   28.1050   43.7341 H   0  0  0  0  0  0  0  0  0  0  0  0
   58.1601   29.6389   46.9989 H   0  0  0  0  0  0  0  0  0  0  0  0
   59.8470   29.2810   46.3970 H   0  0  0  0  0  0  0  0  0  0  0  0
   59.0032   31.3868   45.4551 H   0  0  0  0  0  0  0  0  0  0  0  0
   59.2423   30.1217   44.1822 H   0  0  0  0  0  0  0  0  0  0  0  0
   56.6482   32.4388   45.9269 H   0  0  0  0  0  0  0  0  0  0  0  0
   57.3356   32.8570   48.2837 H   0  0  0  0  0  0  0  0  0  0  0  0
  1  2  1  0
  2  3  2  0
  3  4  1  0
  4  5  2  0
  5  6  1  0
  6  7  2  0
  7  8  1  0
  8  9  1  0
  9 10  2  0
  9 11  1  0
 11 12  1  0
 12 13  2  0
 13 14  1  0
 14 15  2  0
 15 16  1  0
 16 17  1  0
 17 18  1  0
 18 19  1  0
 19 20  1  0
 20 21  1  0
 21 22  1  0
 22 23  1  0
 23 24  1  0
 15 25  1  0
 25 26  2  0
  7  2  1  0
 26 12  1  0
 24 19  1  0
  3 27  1  0
  4 28  1  0
  5 29  1  0
  6 30  1  0
  8 31  1  0
  8 32  1  0
 11 33  1  0
 13 34  1  0
 14 35  1  0
 17 36  1  0
 17 37  1  0
 18 38  1  0
 18 39  1  0
 20 40  1  0
 20 41  1  0
 21 42  1  0
 21 43  1  0
 23 44  1  0
 23 45  1  0
 24 46  1  0
 24 47  1  0
 25 48  1  0
 26 49  1  0
M  CHG  1   8   1
M  END
>  <UniqueID>  (29) 
23

>  <SMILES>  (29) 
Fc1ccccc1[NH2+]C(=S)Nc1ccc(OCCN2CCOCC2)cc1

>  <Energy>  (29) 
73.26798583817217

>  <Genealogy>  (29) 
Fc1ccccc1[NH2+]C(=S)Nc1ccc(OCCN2CCOCC2)cc1 (protonated)
Fc1ccccc1[NH2+]C(=S)Nc1ccc(OCCN2CCOCC2)cc1 (3D coordinates assigned)
Fc1ccccc1[NH2+]C(=S)Nc1ccc(OCCN2CCOCC2)cc1 (nonaromatic ring conformer: 73.26798583817217 kcal/mol)

>  <smiles>  (29) 
Fc1ccccc1NC(=S)Nc1ccc(OCCN2CCOCC2)cc1

>  <score_type>  (29) 
oracle

>  <origin>  (29) 
adg

>  <m_score__min__energy>  (29) 
-6.3600000000000003

>  <m_primary>  (29) 
energy

$$$$
29:0
     RDKit          3D

 53 56  0  0  0  0  0  0  0  0999 V2000
   63.6780   32.3500   48.6760 C   0  0  0  0  0  0  0  0  0  0  0  0
   62.5670   33.3310   48.2730 C   0  0  0  0  0  0  0  0  0  0  0  0
   62.2690   33.2310   46.7720 C   0  0  0  0  0  0  0  0  0  0  0  0
   61.2950   33.1540   49.1320 C   0  0  0  0  0  0  0  0  0  0  0  0
   60.6990   31.7810   49.0330 C   0  0  0  0  0  0  0  0  0  0  0  0
   59.5760   31.4060   49.6770 N   0  0  0  0  0  0  0  0  0  0  0  0
   59.3820   30.1750   49.3160 O   0  0  0  0  0  0  0  0  0  0  0  0
   60.3290   29.8050   48.4910 C   0  0  0  0  0  0  0  0  0  0  0  0
   60.4300   28.4410   47.8880 C   0  0  0  0  0  0  0  0  0  0  0  0
   59.4570   28.2970   46.7910 N   0  0  0  0  0  0  0  0  0  0  0  0
   59.3830   29.3030   45.7530 C   0  0  0  0  0  0  0  0  0  0  0  0
   60.2430   30.2250   45.6930 O   0  0  0  0  0  0  0  0  0  0  0  0
   58.3260   29.2080   44.6850 C   0  0  2  0  0  0  0  0  0  0  0  0
   58.0690   30.5340   44.1200 N   0  0  0  0  0  0  0  0  0  0  0  0
   57.3310   31.5900   44.7510 C   0  0  0  0  0  0  0  0  0  0  0  0
   56.0730   31.5220   44.7690 O   0  0  0  0  0  0  0  0  0  0  0  0
   57.9910   32.7590   45.3610 C   0  0  0  0  0  0  0  0  0  0  0  0
   58.0390   32.8850   46.7580 C   0  0  0  0  0  0  0  0  0  0  0  0
   58.6690   33.9870   47.3460 C   0  0  0  0  0  0  0  0  0  0  0  0
   59.2690   34.9610   46.5430 C   0  0  0  0  0  0  0  0  0  0  0  0
   59.2470   34.8290   45.1520 C   0  0  0  0  0  0  0  0  0  0  0  0
   58.6180   33.7290   44.5610 C   0  0  0  0  0  0  0  0  0  0  0  0
   57.0340   28.6280   45.2790 C   0  0  0  0  0  0  0  0  0  0  0  0
   57.3090   27.3450   46.0150 C   0  0  0  0  0  0  0  0  0  0  0  0
   56.3550   26.3160   46.0120 C   0  0  0  0  0  0  0  0  0  0  0  0
   56.5790   25.1450   46.7380 C   0  0  0  0  0  0  0  0  0  0  0  0
   57.7510   24.9980   47.4800 C   0  0  0  0  0  0  0  0  0  0  0  0
   58.7010   26.0230   47.5040 C   0  0  0  0  0  0  0  0  0  0  0  0
   58.4900   27.2140   46.7790 C   0  0  0  0  0  0  0  0  0  0  0  0
   61.2100   30.7980   48.2640 N   0  0  0  0  0  0  0  0  0  0  0  0
   63.7392   32.2959   49.7730 H   0  0  0  0  0  0  0  0  0  0  0  0
   63.4507   31.3525   48.2718 H   0  0  0  0  0  0  0  0  0  0  0  0
   64.6397   32.6990   48.2718 H   0  0  0  0  0  0  0  0  0  0  0  0
   62.9330   34.3490   48.4725 H   0  0  0  0  0  0  0  0  0  0  0  0
   61.2354   32.8842   46.6257 H   0  0  0  0  0  0  0  0  0  0  0  0
   62.3932   34.2200   46.3068 H   0  0  0  0  0  0  0  0  0  0  0  0
   62.9647   32.5171   46.3068 H   0  0  0  0  0  0  0  0  0  0  0  0
   61.5540   33.3473   50.1835 H   0  0  0  0  0  0  0  0  0  0  0  0
   60.5444   33.8633   48.7531 H   0  0  0  0  0  0  0  0  0  0  0  0
   61.4463   28.2920   47.4943 H   0  0  0  0  0  0  0  0  0  0  0  0
   60.2132   27.6894   48.6614 H   0  0  0  0  0  0  0  0  0  0  0  0
   58.6807   28.5419   43.8847 H   0  0  0  0  0  0  0  0  0  0  0  0
   57.5792   32.1138   47.3934 H   0  0  0  0  0  0  0  0  0  0  0  0
   58.6922   34.0870   48.4412 H   0  0  0  0  0  0  0  0  0  0  0  0
   59.7582   35.8309   47.0056 H   0  0  0  0  0  0  0  0  0  0  0  0
   59.7256   35.5921   44.5207 H   0  0  0  0  0  0  0  0  0  0  0  0
   58.6140   33.6227   43.4662 H   0  0  0  0  0  0  0  0  0  0  0  0
   56.5998   29.3580   45.9780 H   0  0  0  0  0  0  0  0  0  0  0  0
   56.3333   28.4181   44.4574 H   0  0  0  0  0  0  0  0  0  0  0  0
   55.4260   26.4327   45.4347 H   0  0  0  0  0  0  0  0  0  0  0  0
   55.8314   24.3382   46.7250 H   0  0  0  0  0  0  0  0  0  0  0  0
   57.9281   24.0727   48.0479 H   0  0  0  0  0  0  0  0  0  0  0  0
   59.6214   25.8995   48.0936 H   0  0  0  0  0  0  0  0  0  0  0  0
  1  2  1  0
  2  3  1  0
  2  4  1  0
  4  5  1  0
  5  6  2  0
  6  7  1  0
  7  8  1  0
  8  9  1  0
  9 10  1  0
 10 11  1  0
 11 12  2  0
 11 13  1  0
 13 14  1  0
 14 15  1  0
 15 16  2  0
 15 17  1  0
 17 18  2  0
 18 19  1  0
 19 20  2  0
 20 21  1  0
 21 22  2  0
 13 23  1  0
 23 24  1  0
 24 25  2  0
 25 26  1  0
 26 27  2  0
 27 28  1  0
 28 29  2  0
  8 30  2  0
 30  5  1  0
 29 10  1  0
 22 17  1  0
 29 24  1  0
  1 31  1  0
  1 32  1  0
  1 33  1  0
  2 34  1  0
  3 35  1  0
  3 36  1  0
  3 37  1  0
  4 38  1  0
  4 39  1  0
  9 40  1  0
  9 41  1  0
 13 42  1  6
 18 43  1  0
 19 44  1  0
 20 45  1  0
 21 46  1  0
 22 47  1  0
 23 48  1  0
 23 49  1  0
 25 50  1  0
 26 51  1  0
 27 52  1  0
 28 53  1  0
M  CHG  1  14  -1
M  END
>  <UniqueID>  (30) 
24

>  <SMILES>  (30) 
CC(C)Cc1noc(CN2C(=O)[C@H]([N-]C(=O)c3ccccc3)Cc3ccccc32)n1

>  <Energy>  (30) 
90.95498809447753

>  <Genealogy>  (30) 
CC(C)Cc1noc(CN2C(=O)C([N-]C(=O)c3ccccc3)Cc3ccccc32)n1 (protonated)
CC(C)Cc1noc(CN2C(=O)[C@H]([N-]C(=O)c3ccccc3)Cc3ccccc32)n1 (chirality)
CC(C)Cc1noc(CN2C(=O)[C@H]([N-]C(=O)c3ccccc3)Cc3ccccc32)n1 (3D coordinates assigned)
CC(C)Cc1noc(CN2C(=O)[C@H]([N-]C(=O)c3ccccc3)Cc3ccccc32)n1 (nonaromatic ring conformer: 90.95498809447753 kcal/mol)

>  <smiles>  (30) 
CC(C)Cc1noc(CN2C(=O)C(NC(=O)c3ccccc3)Cc3ccccc32)n1

>  <score_type>  (30) 
oracle

>  <origin>  (30) 
adg

>  <m_score__min__energy>  (30) 
-11.029999999999999

>  <m_primary>  (30) 
energy

$$$$
30:0
     RDKit          3D

 43 45  0  0  0  0  0  0  0  0999 V2000
   58.7677   35.4362   44.6331 H   0  0  0  0  0  0  0  0  0  0  0  0
   59.0850   34.6050   45.2800 C   0  0  0  0  0  0  0  0  0  0  0  0
   60.1220   34.7930   46.1940 C   0  0  0  0  0  0  0  0  0  0  0  0
   60.6165   35.7731   46.2642 H   0  0  0  0  0  0  0  0  0  0  0  0
   60.5400   33.7400   47.0260 C   0  0  0  0  0  0  0  0  0  0  0  0
   61.6370   33.9660   48.0040 C   0  0  0  0  0  0  0  0  0  0  0  0
   61.3720   34.5650   49.0860 O   0  0  0  0  0  0  0  0  0  0  0  0
   62.9850   33.4950   47.7590 N   0  0  0  0  0  0  0  0  0  0  0  0
   63.6520   33.9400   48.4320 H   0  0  0  0  0  0  0  0  0  0  0  0
   63.3950   33.8400   46.3900 C   0  0  0  0  0  0  0  0  0  0  0  0
   64.2362   34.5478   46.4266 H   0  0  0  0  0  0  0  0  0  0  0  0
   63.7061   32.9279   45.8596 H   0  0  0  0  0  0  0  0  0  0  0  0
   62.5495   34.3024   45.8596 H   0  0  0  0  0  0  0  0  0  0  0  0
   63.0760   32.0410   47.9740 C   0  0  0  0  0  0  0  0  0  0  0  0
   63.0892   31.8301   49.0535 H   0  0  0  0  0  0  0  0  0  0  0  0
   62.2070   31.5473   47.5145 H   0  0  0  0  0  0  0  0  0  0  0  0
   63.9998   31.6595   47.5145 H   0  0  0  0  0  0  0  0  0  0  0  0
   59.8850   32.4970   46.9310 C   0  0  0  0  0  0  0  0  0  0  0  0
   60.1891   31.6717   47.5916 H   0  0  0  0  0  0  0  0  0  0  0  0
   58.8450   32.2960   46.0010 C   0  0  0  0  0  0  0  0  0  0  0  0
   58.1460   30.9890   45.8930 C   0  0  0  0  0  0  0  0  0  0  0  0
   56.9670   30.9130   45.2160 N   0  0  0  0  0  0  0  0  0  0  0  0
   56.3020   29.7650   45.0850 N   0  0  0  0  0  0  0  0  0  0  0  0
   56.7710   28.6020   45.6130 C   0  0  0  0  0  0  0  0  0  0  0  0
   56.1060   27.4880   45.5050 N   0  0  0  0  0  0  0  0  0  0  0  0
   56.6250   26.1550   45.6440 C   0  0  0  0  0  0  0  0  0  0  0  0
   57.3940   25.6210   44.6010 C   0  0  0  0  0  0  0  0  0  0  0  0
   57.6083   26.2326   43.7122 H   0  0  0  0  0  0  0  0  0  0  0  0
   57.8910   24.3160   44.6820 C   0  0  0  0  0  0  0  0  0  0  0  0
   58.5081   23.9116   43.8661 H   0  0  0  0  0  0  0  0  0  0  0  0
   57.6040   23.5240   45.8000 C   0  0  0  0  0  0  0  0  0  0  0  0
   58.1130   22.1800   45.8810 C   0  0  0  0  0  0  0  0  0  0  0  0
   58.5220   21.0990   45.9470 N   0  0  0  0  0  0  0  0  0  0  0  0
   56.8090   24.0370   46.8300 C   0  0  0  0  0  0  0  0  0  0  0  0
   56.5730   23.4120   47.7039 H   0  0  0  0  0  0  0  0  0  0  0  0
   56.3130   25.3430   46.7520 C   0  0  0  0  0  0  0  0  0  0  0  0
   55.6773   25.7370   47.5586 H   0  0  0  0  0  0  0  0  0  0  0  0
   57.9730   28.6180   46.3210 C   0  0  0  0  0  0  0  0  0  0  0  0
   58.3661   27.6929   46.7679 H   0  0  0  0  0  0  0  0  0  0  0  0
   58.6710   29.8160   46.4570 C   0  0  0  0  0  0  0  0  0  0  0  0
   59.6261   29.8423   47.0021 H   0  0  0  0  0  0  0  0  0  0  0  0
   58.4490   33.3680   45.1830 C   0  0  0  0  0  0  0  0  0  0  0  0
   57.6310   33.2301   44.4606 H   0  0  0  0  0  0  0  0  0  0  0  0
  1  2  1  0
  2  3  2  0
  3  4  1  0
  3  5  1  0
  5  6  1  0
  6  7  2  0
  6  8  1  0
  8  9  1  0
  8 10  1  0
 10 11  1  0
 10 12  1  0
 10 13  1  0
  8 14  1  0
 14 15  1  0
 14 16  1  0
 14 17  1  0
  5 18  2  0
 18 19  1  0
 18 20  1  0
 20 21  1  0
 21 22  2  0
 22 23  1  0
 23 24  1  0
 24 25  2  0
 25 26  1  0
 26 27  2  0
 27 28  1  0
 27 29  1  0
 29 30  1  0
 29 31  2  0
 31 32  1  0
 32 33  3  0
 31 34  1  0
 34 35  1  0
 34 36  2  0
 36 37  1  0
 24 38  1  0
 38 39  1  0
 38 40  2  0
 40 41  1  0
 20 42  2  0
 42 43  1  0
 42  2  1  0
 40 21  1  0
 36 26  1  0
M  CHG  2   8   1  23  -1
M  END
>  <UniqueID>  (31) 
25

>  <SMILES>  (31) 
C[NH+](C)C(=O)c1cccc(-c2cc/c(=N/c3ccc(C#N)cc3)[n-]n2)c1

>  <Energy>  (31) 
60.07759275715092

>  <Genealogy>  (31) 
C[NH+](C)C(=O)c1cccc(-c2ccc(=Nc3ccc(C#N)cc3)[n-]n2)c1 (protonated)
C[NH+](C)C(=O)c1cccc(-c2cc/c(=N/c3ccc(C#N)cc3)[n-]n2)c1 (cis-trans isomerization)
C[NH+](C)C(=O)c1cccc(-c2cc/c(=N/c3ccc(C#N)cc3)[n-]n2)c1 (3D coordinates assigned)
C[NH+](C)C(=O)c1cccc(-c2cc/c(=N/c3ccc(C#N)cc3)[n-]n2)c1 (optimized conformer: 60.07759275715092 kcal/mol)

>  <smiles>  (31) 
CN(C)C(=O)c1cccc(-c2ccc(=Nc3ccc(C#N)cc3)[nH]n2)c1

>  <score_type>  (31) 
oracle

>  <origin>  (31) 
adg

>  <m_score__min__energy>  (31) 
-8.7300000000000004

>  <m_primary>  (31) 
energy

$$$$
31:0
     RDKit          3D

 54 57  0  0  0  0  0  0  0  0999 V2000
   66.6750   33.0640   50.9760 C   0  0  0  0  0  0  0  0  0  0  0  0
   65.3210   33.3520   51.3120 O   0  0  0  0  0  0  0  0  0  0  0  0
   64.2340   33.1720   50.4430 C   0  0  0  0  0  0  0  0  0  0  0  0
   62.9780   33.7620   50.6750 C   0  0  0  0  0  0  0  0  0  0  0  0
   61.9260   33.5560   49.7770 C   0  0  0  0  0  0  0  0  0  0  0  0
   62.1160   32.7720   48.6260 C   0  0  0  0  0  0  0  0  0  0  0  0
   61.0180   32.5510   47.6610 C   0  0  0  0  0  0  0  0  0  0  0  0
   60.5440   33.5300   46.8530 N   0  0  0  0  0  0  0  0  0  0  0  0
   59.5790   32.9180   46.1350 C   0  0  0  0  0  0  0  0  0  0  0  0
   58.7730   33.5260   45.1640 C   0  0  0  0  0  0  0  0  0  0  0  0
   58.9220   34.9800   44.8250 C   0  0  0  0  0  0  0  0  0  0  0  0
   57.7740   32.7360   44.5650 C   0  0  0  0  0  0  0  0  0  0  0  0
   57.6150   31.3870   44.9330 C   0  0  0  0  0  0  0  0  0  0  0  0
   56.2490   30.3230   44.1280 Br  0  0  0  0  0  0  0  0  0  0  0  0
   58.4590   30.8320   45.9040 C   0  0  0  0  0  0  0  0  0  0  0  0
   59.4200   31.6210   46.4540 N   0  0  0  0  0  0  0  0  0  0  0  0
   60.3230   31.3640   47.4210 C   0  0  0  0  0  0  0  0  0  0  0  0
   60.4480   30.0840   48.1520 C   0  0  0  0  0  0  0  0  0  0  0  0
   60.2890   28.8690   47.4810 C   0  0  0  0  0  0  0  0  0  0  0  0
   60.4250   27.6510   48.1670 C   0  0  0  0  0  0  0  0  0  0  0  0
   60.2600   26.4150   47.5190 O   0  0  0  0  0  0  0  0  0  0  0  0
   59.6760   26.2490   46.2310 C   0  0  0  0  0  0  0  0  0  0  0  0
   60.7380   27.6450   49.5370 C   0  0  0  0  0  0  0  0  0  0  0  0
   60.8640   26.3830   50.1510 O   0  0  0  0  0  0  0  0  0  0  0  0
   61.7070   26.0540   51.2500 C   0  0  0  0  0  0  0  0  0  0  0  0
   60.9140   28.8750   50.2230 C   0  0  0  0  0  0  0  0  0  0  0  0
   61.2460   28.8790   51.5870 O   0  0  0  0  0  0  0  0  0  0  0  0
   62.2790   29.6650   52.1740 C   0  0  0  0  0  0  0  0  0  0  0  0
   60.7540   30.0830   49.5180 C   0  0  0  0  0  0  0  0  0  0  0  0
   63.3640   32.1680   48.4110 C   0  0  0  0  0  0  0  0  0  0  0  0
   64.4140   32.3730   49.3100 C   0  0  0  0  0  0  0  0  0  0  0  0
   67.2628   32.9390   51.8973 H   0  0  0  0  0  0  0  0  0  0  0  0
   66.7170   32.1368   50.3856 H   0  0  0  0  0  0  0  0  0  0  0  0
   67.0908   33.8938   50.3856 H   0  0  0  0  0  0  0  0  0  0  0  0
   62.8229   34.3878   51.5663 H   0  0  0  0  0  0  0  0  0  0  0  0
   60.9435   34.0104   49.9727 H   0  0  0  0  0  0  0  0  0  0  0  0
   58.9823   35.5684   45.7524 H   0  0  0  0  0  0  0  0  0  0  0  0
   59.8399   35.1272   44.2370 H   0  0  0  0  0  0  0  0  0  0  0  0
   58.0530   35.3103   44.2370 H   0  0  0  0  0  0  0  0  0  0  0  0
   57.1129   33.1761   43.8039 H   0  0  0  0  0  0  0  0  0  0  0  0
   58.3467   29.7826   46.2140 H   0  0  0  0  0  0  0  0  0  0  0  0
   60.0553   28.8663   46.4061 H   0  0  0  0  0  0  0  0  0  0  0  0
   58.6233   25.9498   46.3415 H   0  0  0  0  0  0  0  0  0  0  0  0
   59.7312   27.1984   45.6782 H   0  0  0  0  0  0  0  0  0  0  0  0
   60.2224   25.4706   45.6782 H   0  0  0  0  0  0  0  0  0  0  0  0
   61.1783   26.2603   52.1923 H   0  0  0  0  0  0  0  0  0  0  0  0
   61.9705   24.9870   51.2034 H   0  0  0  0  0  0  0  0  0  0  0  0
   62.6236   26.6604   51.2034 H   0  0  0  0  0  0  0  0  0  0  0  0
   62.2048   29.6085   53.2700 H   0  0  0  0  0  0  0  0  0  0  0  0
   63.2588   29.2819   51.8526 H   0  0  0  0  0  0  0  0  0  0  0  0
   62.1711   30.7114   51.8526 H   0  0  0  0  0  0  0  0  0  0  0  0
   60.8711   31.0397   50.0481 H   0  0  0  0  0  0  0  0  0  0  0  0
   63.5169   31.5288   47.5289 H   0  0  0  0  0  0  0  0  0  0  0  0
   65.3905   31.9017   49.1246 H   0  0  0  0  0  0  0  0  0  0  0  0
  1  2  1  0
  2  3  1  0
  3  4  2  0
  4  5  1  0
  5  6  2  0
  6  7  1  0
  7  8  1  0
  8  9  2  0
  9 10  1  0
 10 11  1  0
 10 12  2  0
 12 13  1  0
 13 14  1  0
 13 15  2  0
 15 16  1  0
 16 17  1  0
 17 18  1  0
 18 19  2  0
 19 20  1  0
 20 21  1  0
 21 22  1  0
 20 23  2  0
 23 24  1  0
 24 25  1  0
 23 26  1  0
 26 27  1  0
 27 28  1  0
 26 29  2  0
  6 30  1  0
 30 31  2  0
 31  3  1  0
 17  7  2  0
 29 18  1  0
 16  9  1  0
  1 32  1  0
  1 33  1  0
  1 34  1  0
  4 35  1  0
  5 36  1  0
 11 37  1  0
 11 38  1  0
 11 39  1  0
 12 40  1  0
 15 41  1  0
 19 42  1  0
 22 43  1  0
 22 44  1  0
 22 45  1  0
 25 46  1  0
 25 47  1  0
 25 48  1  0
 28 49  1  0
 28 50  1  0
 28 51  1  0
 29 52  1  0
 30 53  1  0
 31 54  1  0
M  END
>  <UniqueID>  (32) 
26

>  <SMILES>  (32) 
COc1ccc(-c2nc3c(C)cc(Br)cn3c2-c2cc(OC)c(OC)c(OC)c2)cc1

>  <Energy>  (32) 
100.90589893755615

>  <Genealogy>  (32) 
COc1ccc(-c2nc3c(C)cc(Br)cn3c2-c2cc(OC)c(OC)c(OC)c2)cc1 (3D coordinates assigned)
COc1ccc(-c2nc3c(C)cc(Br)cn3c2-c2cc(OC)c(OC)c(OC)c2)cc1 (optimized conformer: 100.90589893755615 kcal/mol)

>  <smiles>  (32) 
COc1ccc(-c2nc3c(C)cc(Br)cn3c2-c2cc(OC)c(OC)c(OC)c2)cc1

>  <score_type>  (32) 
oracle

>  <origin>  (32) 
adg

>  <m_score__min__energy>  (32) 
-7.1100000000000003

>  <m_primary>  (32) 
energy

$$$$
32:0
     RDKit          3D

 27 29  0  0  0  0  0  0  0  0999 V2000
   58.2688   28.1518   47.2389 H   0  0  0  0  0  0  0  0  0  0  0  0
   57.6130   27.8980   46.3930 C   0  0  0  0  0  0  0  0  0  0  0  0
   57.4180   28.8330   45.4510 C   0  0  0  0  0  0  0  0  0  0  0  0
   57.8080   30.2470   45.5580 C   0  0  0  0  0  0  0  0  0  0  0  0
   58.3750   30.9570   46.6200 C   0  0  0  0  0  0  0  0  0  0  0  0
   58.6054   30.4589   47.5733 H   0  0  0  0  0  0  0  0  0  0  0  0
   58.6430   32.3250   46.4370 C   0  0  0  0  0  0  0  0  0  0  0  0
   59.0887   32.9081   47.2563 H   0  0  0  0  0  0  0  0  0  0  0  0
   58.3450   32.9550   45.2120 C   0  0  0  0  0  0  0  0  0  0  0  0
   58.5596   34.0259   45.0810 H   0  0  0  0  0  0  0  0  0  0  0  0
   57.7750   32.2220   44.1570 C   0  0  0  0  0  0  0  0  0  0  0  0
   57.5402   32.7040   43.1965 H   0  0  0  0  0  0  0  0  0  0  0  0
   57.5150   30.8660   44.3610 C   0  0  0  0  0  0  0  0  0  0  0  0
   56.9480   29.8570   43.4740 C   0  0  0  0  0  0  0  0  0  0  0  0
   56.5880   30.0370   42.2420 N   0  0  0  0  0  0  0  0  0  0  0  0
   57.2190   30.5110   41.5590 H   0  0  0  0  0  0  0  0  0  0  0  0
   55.6520   29.7090   41.9140 H   0  0  0  0  0  0  0  0  0  0  0  0
   56.8820   28.5990   44.1430 N   0  0  0  0  0  0  0  0  0  0  0  0
   56.6980   27.6810   43.6830 H   0  0  0  0  0  0  0  0  0  0  0  0
   57.0090   26.5550   46.3720 C   0  0  0  0  0  0  0  0  0  0  0  0
   55.7830   26.3300   45.9560 O   0  0  0  0  0  0  0  0  0  0  0  0
   55.5460   25.0400   46.0170 C   0  0  0  0  0  0  0  0  0  0  0  0
   54.5978   24.5565   45.7393 H   0  0  0  0  0  0  0  0  0  0  0  0
   56.6660   24.3830   46.4820 C   0  0  0  0  0  0  0  0  0  0  0  0
   56.7793   23.3005   46.6412 H   0  0  0  0  0  0  0  0  0  0  0  0
   57.6150   25.3580   46.7070 C   0  0  0  0  0  0  0  0  0  0  0  0
   58.6410   25.2135   47.0763 H   0  0  0  0  0  0  0  0  0  0  0  0
  1  2  1  0
  2  3  2  0
  3  4  1  0
  4  5  2  0
  5  6  1  0
  5  7  1  0
  7  8  1  0
  7  9  2  0
  9 10  1  0
  9 11  1  0
 11 12  1  0
 11 13  2  0
 13 14  1  0
 14 15  2  0
 15 16  1  0
 15 17  1  0
 14 18  1  0
 18 19  1  0
  2 20  1  0
 20 21  1  0
 21 22  1  0
 22 23  1  0
 22 24  2  0
 24 25  1  0
 24 26  1  0
 26 27  1  0
 18  3  1  0
 26 20  2  0
 13  4  1  0
M  CHG  1  15   1
M  END
>  <UniqueID>  (33) 
27

>  <SMILES>  (33) 
[NH2+]=C1N/C(=C\c2ccco2)c2ccccc21

>  <Energy>  (33) 
88.74843899827233

>  <Genealogy>  (33) 
[NH2+]=C1NC(=Cc2ccco2)c2ccccc21 (protonated)
[NH2+]=C1N/C(=C\c2ccco2)c2ccccc21 (cis-trans isomerization)
[NH2+]=C1N/C(=C\c2ccco2)c2ccccc21 (3D coordinates assigned)
[NH2+]=C1N/C(=C\c2ccco2)c2ccccc21 (nonaromatic ring conformer: 88.74843899827233 kcal/mol)

>  <smiles>  (33) 
N=C1NC(=Cc2ccco2)c2ccccc21

>  <score_type>  (33) 
oracle

>  <origin>  (33) 
adg

>  <m_score__min__energy>  (33) 
-4.96

>  <m_primary>  (33) 
energy

$$$$
33:0
     RDKit          3D

 60 62  0  0  1  0  0  0  0  0999 V2000
   56.0170   30.0340   43.7970 C   0  0  0  0  0  0  0  0  0  0  0  0
   57.0200   30.8120   43.3900 C   0  0  0  0  0  0  0  0  0  0  0  0
   57.7620   31.5030   44.4390 C   0  0  0  0  0  0  0  0  0  0  0  0
   58.7690   30.9220   44.9080 O   0  0  0  0  0  0  0  0  0  0  0  0
   57.3680   32.7960   44.9230 N   0  0  0  0  0  0  0  0  0  0  0  0
   58.1990   33.3420   45.9530 C   0  0  0  0  0  0  0  0  0  0  0  0
   58.9260   34.4800   45.5820 C   0  0  0  0  0  0  0  0  0  0  0  0
   59.7470   35.0550   46.5280 C   0  0  0  0  0  0  0  0  0  0  0  0
   59.8290   34.5050   47.7940 C   0  0  0  0  0  0  0  0  0  0  0  0
   59.1140   33.3860   48.1620 C   0  0  0  0  0  0  0  0  0  0  0  0
   59.2210   32.7990   49.5480 C   0  0  2  0  0  0  0  0  0  0  0  0
   59.6470   33.8530   50.5370 C   0  0  0  0  0  0  0  0  0  0  0  0
   60.3220   33.2960   51.6820 N   0  0  0  0  0  0  0  0  0  0  0  0
   59.6210   33.5460   52.9030 C   0  0  0  0  0  0  0  0  0  0  0  0
   60.1730   31.7330   49.4300 N   0  0  0  0  0  0  0  0  0  0  0  0
   61.3430   31.9150   48.9630 C   0  0  0  0  0  0  0  0  0  0  0  0
   62.2980   32.5380   49.6360 N   0  0  0  0  0  0  0  0  0  0  0  0
   63.5180   32.7040   49.0900 C   0  0  0  0  0  0  0  0  0  0  0  0
   64.4610   33.2960   49.7100 N   0  0  0  0  0  0  0  0  0  0  0  0
   65.5310   32.6910   50.3770 C   0  0  0  0  0  0  0  0  0  0  0  0
   66.8020   33.2620   50.3330 C   0  0  0  0  0  0  0  0  0  0  0  0
   67.8850   32.7090   50.9830 C   0  0  0  0  0  0  0  0  0  0  0  0
   67.7460   31.5470   51.7160 C   0  0  0  0  0  0  0  0  0  0  0  0
   66.5000   30.9600   51.7790 C   0  0  0  0  0  0  0  0  0  0  0  0
   65.4120   31.5340   51.1130 C   0  0  0  0  0  0  0  0  0  0  0  0
   64.1230   30.8190   51.2450 C   0  0  0  0  0  0  0  0  0  0  0  0
   63.2510   31.5930   52.2040 C   0  0  0  0  0  0  0  0  0  0  0  0
   61.9420   31.1400   51.9870 O   0  0  0  0  0  0  0  0  0  0  0  0
   63.7680   32.2370   47.8580 N   0  0  0  0  0  0  0  0  0  0  0  0
   62.8360   31.5910   47.1140 C   0  0  0  0  0  0  0  0  0  0  0  0
   61.5970   31.4290   47.6850 C   0  0  0  0  0  0  0  0  0  0  0  0
   60.6500   30.7890   46.9670 F   0  0  0  0  0  0  0  0  0  0  0  0
   58.2950   32.8170   47.2090 C   0  0  0  0  0  0  0  0  0  0  0  0
   55.4145   29.4828   43.0600 H   0  0  0  0  0  0  0  0  0  0  0  0
   55.7918   29.9432   44.8699 H   0  0  0  0  0  0  0  0  0  0  0  0
   57.2733   30.9263   42.3257 H   0  0  0  0  0  0  0  0  0  0  0  0
   56.5390   33.2750   44.5360 H   0  0  0  0  0  0  0  0  0  0  0  0
   58.8445   34.9010   44.5690 H   0  0  0  0  0  0  0  0  0  0  0  0
   60.3357   35.9495   46.2764 H   0  0  0  0  0  0  0  0  0  0  0  0
   60.4897   34.9785   48.5351 H   0  0  0  0  0  0  0  0  0  0  0  0
   58.2600   32.4202   49.9260 H   0  0  0  0  0  0  0  0  0  0  0  0
   60.3280   34.5547   50.0331 H   0  0  0  0  0  0  0  0  0  0  0  0
   58.7392   34.3585   50.8979 H   0  0  0  0  0  0  0  0  0  0  0  0
   60.4260   32.2480   51.5840 H   0  0  0  0  0  0  0  0  0  0  0  0
   60.2753   33.3126   53.7559 H   0  0  0  0  0  0  0  0  0  0  0  0
   59.3259   34.6048   52.9462 H   0  0  0  0  0  0  0  0  0  0  0  0
   58.7225   32.9129   52.9462 H   0  0  0  0  0  0  0  0  0  0  0  0
   62.1100   32.9010   50.5920 H   0  0  0  0  0  0  0  0  0  0  0  0
   66.9463   34.1886   49.7581 H   0  0  0  0  0  0  0  0  0  0  0  0
   68.8683   33.1977   50.9171 H   0  0  0  0  0  0  0  0  0  0  0  0
   68.6068   31.1013   52.2360 H   0  0  0  0  0  0  0  0  0  0  0  0
   66.3606   30.0343   52.3567 H   0  0  0  0  0  0  0  0  0  0  0  0
   63.6308   30.7542   50.2634 H   0  0  0  0  0  0  0  0  0  0  0  0
   64.2907   29.7993   51.6219 H   0  0  0  0  0  0  0  0  0  0  0  0
   63.5564   31.3963   53.2423 H   0  0  0  0  0  0  0  0  0  0  0  0
   63.3348   32.6774   52.0395 H   0  0  0  0  0  0  0  0  0  0  0  0
   61.6010   31.5870   51.1650 H   0  0  0  0  0  0  0  0  0  0  0  0
   64.6960   32.3530   47.4220 H   0  0  0  0  0  0  0  0  0  0  0  0
   63.0607   31.2158   46.1047 H   0  0  0  0  0  0  0  0  0  0  0  0
   57.7080   31.9230   47.4663 H   0  0  0  0  0  0  0  0  0  0  0  0
  1  2  2  0
  2  3  1  0
  3  4  2  0
  3  5  1  0
  5  6  1  0
  6  7  2  0
  7  8  1  0
  8  9  2  0
  9 10  1  0
 10 11  1  0
 11 12  1  0
 12 13  1  0
 13 14  1  0
 11 15  1  0
 15 16  2  0
 16 17  1  0
 17 18  1  0
 18 19  2  0
 19 20  1  0
 20 21  2  0
 21 22  1  0
 22 23  2  0
 23 24  1  0
 24 25  2  0
 25 26  1  0
 26 27  1  0
 27 28  1  0
 18 29  1  0
 29 30  1  0
 30 31  2  0
 31 32  1  0
 10 33  2  0
 33  6  1  0
 31 16  1  0
 25 20  1  0
  1 34  1  0
  1 35  1  0
  2 36  1  0
  5 37  1  0
  7 38  1  0
  8 39  1  0
  9 40  1  0
 11 41  1  1
 12 42  1  0
 12 43  1  0
 13 44  1  0
 14 45  1  0
 14 46  1  0
 14 47  1  0
 17 48  1  0
 21 49  1  0
 22 50  1  0
 23 51  1  0
 24 52  1  0
 26 53  1  0
 26 54  1  0
 27 55  1  0
 27 56  1  0
 28 57  1  0
 29 58  1  0
 30 59  1  0
 33 60  1  0
M  END
>  <smiles>  (34) 
C=CC(=O)Nc1cccc(C(CNC)N=c2[nH]c(=Nc3ccccc3CCO)[nH]cc2F)c1

>  <score_type>  (34) 
oracle

>  <origin>  (34) 
adg

>  <m_score__min__energy>  (34) 
-9.6400000000000006

>  <m_primary>  (34) 
energy

$$$$
34:0
     RDKit          3D

 33 35  0  0  0  0  0  0  0  0999 V2000
   58.2100   27.8890   45.7670 O   0  0  0  0  0  0  0  0  0  0  0  0
   57.6630   28.9470   45.3520 C   0  0  0  0  0  0  0  0  0  0  0  0
   56.6090   28.8610   44.4970 N   0  0  0  0  0  0  0  0  0  0  0  0
   55.9720   29.9770   44.0590 C   0  0  0  0  0  0  0  0  0  0  0  0
   56.3940   31.2020   44.4580 N   0  0  0  0  0  0  0  0  0  0  0  0
   57.4530   31.3510   45.2970 C   0  0  0  0  0  0  0  0  0  0  0  0
   57.8800   32.6770   45.6470 N   0  0  0  0  0  0  0  0  0  0  0  0
   57.8870   33.1730   47.0130 C   0  0  0  0  0  0  0  0  0  0  0  0
   58.5180   34.5560   46.9400 C   0  0  0  0  0  0  0  0  0  0  0  0
   59.2700   34.6000   45.6120 C   0  0  0  0  0  0  0  0  0  0  0  0
   58.6560   33.5090   44.7440 C   0  0  0  0  0  0  0  0  0  0  0  0
   58.1190   30.2060   45.7860 C   0  0  0  0  0  0  0  0  0  0  0  0
   59.2190   30.3110   46.7750 C   0  0  0  0  0  0  0  0  0  0  0  0
   60.4860   30.7770   46.3840 C   0  0  0  0  0  0  0  0  0  0  0  0
   61.5170   30.8890   47.3210 C   0  0  0  0  0  0  0  0  0  0  0  0
   61.2920   30.5360   48.6550 C   0  0  0  0  0  0  0  0  0  0  0  0
   60.0350   30.0690   49.0520 C   0  0  0  0  0  0  0  0  0  0  0  0
   59.0030   29.9530   48.1170 C   0  0  0  0  0  0  0  0  0  0  0  0
   56.2700   27.9250   44.1780 H   0  0  0  0  0  0  0  0  0  0  0  0
   55.1119   29.8871   43.3791 H   0  0  0  0  0  0  0  0  0  0  0  0
   56.8607   33.2388   47.4034 H   0  0  0  0  0  0  0  0  0  0  0  0
   58.4439   32.5053   47.6868 H   0  0  0  0  0  0  0  0  0  0  0  0
   57.7405   35.3337   46.9660 H   0  0  0  0  0  0  0  0  0  0  0  0
   59.1891   34.7405   47.7918 H   0  0  0  0  0  0  0  0  0  0  0  0
   59.1453   35.5832   45.1348 H   0  0  0  0  0  0  0  0  0  0  0  0
   60.3490   34.4408   45.7551 H   0  0  0  0  0  0  0  0  0  0  0  0
   58.0050   33.9514   43.9756 H   0  0  0  0  0  0  0  0  0  0  0  0
   59.4272   32.9270   44.2182 H   0  0  0  0  0  0  0  0  0  0  0  0
   60.6671   31.0550   45.3352 H   0  0  0  0  0  0  0  0  0  0  0  0
   62.5061   31.2551   47.0087 H   0  0  0  0  0  0  0  0  0  0  0  0
   62.1035   30.6256   49.3921 H   0  0  0  0  0  0  0  0  0  0  0  0
   59.8584   29.7925   50.1019 H   0  0  0  0  0  0  0  0  0  0  0  0
   58.0175   29.5800   48.4325 H   0  0  0  0  0  0  0  0  0  0  0  0
  1  2  2  0
  2  3  1  0
  3  4  1  0
  4  5  2  0
  5  6  1  0
  6  7  1  0
  7  8  1  0
  8  9  1  0
  9 10  1  0
 10 11  1  0
  6 12  2  0
 12 13  1  0
 13 14  2  0
 14 15  1  0
 15 16  2  0
 16 17  1  0
 17 18  2  0
 12  2  1  0
 18 13  1  0
 11  7  1  0
  3 19  1  0
  4 20  1  0
  8 21  1  0
  8 22  1  0
  9 23  1  0
  9 24  1  0
 10 25  1  0
 10 26  1  0
 11 27  1  0
 11 28  1  0
 14 29  1  0
 15 30  1  0
 16 31  1  0
 17 32  1  0
 18 33  1  0
M  END
>  <UniqueID>  (35) 
28

>  <SMILES>  (35) 
O=c1[nH]cnc(N2CCCC2)c1-c1ccccc1

>  <Energy>  (35) 
46.69857457198168

>  <Genealogy>  (35) 
O=c1[nH]cnc(N2CCCC2)c1-c1ccccc1 (3D coordinates assigned)
O=c1[nH]cnc(N2CCCC2)c1-c1ccccc1 (nonaromatic ring conformer: 46.69857457198168 kcal/mol)

>  <smiles>  (35) 
O=c1[nH]cnc(N2CCCC2)c1-c1ccccc1

>  <score_type>  (35) 
oracle

>  <origin>  (35) 
adg

>  <m_score__min__energy>  (35) 
-6.3499999999999996

>  <m_primary>  (35) 
energy

$$$$
35:0
     RDKit          3D

 49 52  0  0  0  0  0  0  0  0999 V2000
   55.5920   30.2200   52.7660 C   0  0  0  0  0  0  0  0  0  0  0  0
   56.7890   30.0970   52.0040 O   0  0  0  0  0  0  0  0  0  0  0  0
   57.5970   31.1770   51.6140 C   0  0  0  0  0  0  0  0  0  0  0  0
   57.8270   32.2060   52.5370 C   0  0  0  0  0  0  0  0  0  0  0  0
   58.6430   33.2900   52.2050 C   0  0  0  0  0  0  0  0  0  0  0  0
   59.2300   33.3590   50.9380 C   0  0  0  0  0  0  0  0  0  0  0  0
   58.9900   32.3540   49.9870 C   0  0  0  0  0  0  0  0  0  0  0  0
   59.6160   32.4390   48.6950 N   0  0  0  0  0  0  0  0  0  0  0  0
   59.5160   33.5910   47.8460 C   0  0  0  0  0  0  0  0  0  0  0  0
   59.2790   34.7220   48.3520 O   0  0  0  0  0  0  0  0  0  0  0  0
   59.7670   33.4530   46.3570 C   0  0  2  0  0  0  0  0  0  0  0  0
   59.0620   34.5260   45.5090 C   0  0  0  0  0  0  0  0  0  0  0  0
   57.5490   34.2640   45.3230 C   0  0  0  0  0  0  0  0  0  0  0  0
   57.0270   33.0050   46.0470 C   0  0  0  0  0  0  0  0  0  0  0  0
   57.8960   31.8130   45.9020 N   0  0  0  0  0  0  0  0  0  0  0  0
   57.3640   30.7680   44.6010 S   0  0  0  0  0  0  0  0  0  0  0  0
   57.9100   31.2880   43.2990 O   0  0  0  0  0  0  0  0  0  0  0  0
   55.8620   30.7990   44.5100 O   0  0  0  0  0  0  0  0  0  0  0  0
   57.8900   29.0930   44.8490 C   0  0  0  0  0  0  0  0  0  0  0  0
   57.7600   28.1590   43.8060 C   0  0  0  0  0  0  0  0  0  0  0  0
   58.1470   26.8210   43.9780 C   0  0  0  0  0  0  0  0  0  0  0  0
   58.6840   26.3860   45.1950 C   0  0  0  0  0  0  0  0  0  0  0  0
   58.8300   27.2980   46.2380 C   0  0  0  0  0  0  0  0  0  0  0  0
   59.3390   26.9500   47.4460 N   0  0  0  0  0  0  0  0  0  0  0  0
   59.2440   28.4010   48.2360 S   0  0  0  0  0  0  0  0  0  0  0  0
   58.6000   29.4680   47.1500 N   0  0  0  0  0  0  0  0  0  0  0  0
   58.4330   28.6570   46.0720 C   0  0  0  0  0  0  0  0  0  0  0  0
   59.3550   32.0670   45.8290 C   0  0  0  0  0  0  0  0  0  0  0  0
   58.1850   31.2550   50.3350 C   0  0  0  0  0  0  0  0  0  0  0  0
   55.8358   30.1949   53.8384 H   0  0  0  0  0  0  0  0  0  0  0  0
   55.0997   31.1735   52.5241 H   0  0  0  0  0  0  0  0  0  0  0  0
   54.9161   29.3866   52.5241 H   0  0  0  0  0  0  0  0  0  0  0  0
   57.3606   32.1597   53.5322 H   0  0  0  0  0  0  0  0  0  0  0  0
   58.8236   34.0885   52.9397 H   0  0  0  0  0  0  0  0  0  0  0  0
   59.8842   34.2062   50.6844 H   0  0  0  0  0  0  0  0  0  0  0  0
   60.2360   31.6580   48.3870 H   0  0  0  0  0  0  0  0  0  0  0  0
   60.8532   33.5895   46.2499 H   0  0  0  0  0  0  0  0  0  0  0  0
   59.1892   35.5005   46.0032 H   0  0  0  0  0  0  0  0  0  0  0  0
   59.5211   34.5043   44.5096 H   0  0  0  0  0  0  0  0  0  0  0  0
   56.9989   35.1353   45.7080 H   0  0  0  0  0  0  0  0  0  0  0  0
   57.3888   34.0972   44.2476 H   0  0  0  0  0  0  0  0  0  0  0  0
   56.9361   33.2367   47.1185 H   0  0  0  0  0  0  0  0  0  0  0  0
   56.0635   32.7507   45.5811 H   0  0  0  0  0  0  0  0  0  0  0  0
   57.3480   28.4826   42.8388 H   0  0  0  0  0  0  0  0  0  0  0  0
   58.0272   26.1079   43.1490 H   0  0  0  0  0  0  0  0  0  0  0  0
   58.9871   25.3368   45.3264 H   0  0  0  0  0  0  0  0  0  0  0  0
   59.8716   31.3003   46.4250 H   0  0  0  0  0  0  0  0  0  0  0  0
   59.6357   32.0305   44.7661 H   0  0  0  0  0  0  0  0  0  0  0  0
   58.0129   30.4508   49.6045 H   0  0  0  0  0  0  0  0  0  0  0  0
  1  2  1  0
  2  3  1  0
  3  4  2  0
  4  5  1  0
  5  6  2  0
  6  7  1  0
  7  8  1  0
  8  9  1  0
  9 10  2  0
  9 11  1  0
 11 12  1  0
 12 13  1  0
 13 14  1  0
 14 15  1  0
 15 16  1  0
 16 17  2  0
 16 18  2  0
 16 19  1  0
 19 20  2  0
 20 21  1  0
 21 22  2  0
 22 23  1  0
 23 24  2  0
 24 25  1  0
 25 26  1  0
 26 27  2  0
 15 28  1  0
  7 29  2  0
 29  3  1  0
 28 11  1  0
 27 19  1  0
 27 23  1  0
  1 30  1  0
  1 31  1  0
  1 32  1  0
  4 33  1  0
  5 34  1  0
  6 35  1  0
  8 36  1  0
 11 37  1  1
 12 38  1  0
 12 39  1  0
 13 40  1  0
 13 41  1  0
 14 42  1  0
 14 43  1  0
 20 44  1  0
 21 45  1  0
 22 46  1  0
 28 47  1  0
 28 48  1  0
 29 49  1  0
M  END
>  <UniqueID>  (36) 
29

>  <SMILES>  (36) 
COc1cccc(NC(=O)[C@@H]2CCCN(S(=O)(=O)c3cccc4nsnc34)C2)c1

>  <Energy>  (36) 
103.07230534421771

>  <Genealogy>  (36) 
COc1cccc(NC(=O)[C@@H]2CCCN(S(=O)(=O)c3cccc4nsnc34)C2)c1 (chirality)
COc1cccc(NC(=O)[C@@H]2CCCN(S(=O)(=O)c3cccc4nsnc34)C2)c1 (3D coordinates assigned)
COc1cccc(NC(=O)[C@@H]2CCCN(S(=O)(=O)c3cccc4nsnc34)C2)c1 (nonaromatic ring conformer: 103.07230534421771 kcal/mol)

>  <smiles>  (36) 
COc1cccc(NC(=O)C2CCCN(S(=O)(=O)c3cccc4nsnc34)C2)c1

>  <score_type>  (36) 
oracle

>  <origin>  (36) 
adg

>  <m_score__min__energy>  (36) 
-9.5500000000000007

>  <m_primary>  (36) 
energy

$$$$
36:0
     RDKit          3D

 54 56  0  0  0  0  0  0  0  0999 V2000
   59.0418   34.9767   44.0762 H   0  0  0  0  0  0  0  0  0  0  0  0
   58.8940   34.1520   44.7890 C   0  0  0  0  0  0  0  0  0  0  0  0
   58.0120   33.1860   44.4630 C   0  0  0  0  0  0  0  0  0  0  0  0
   56.8450   32.8530   45.3630 C   0  0  0  0  0  0  0  0  0  0  0  0
   57.1559   32.9417   46.4144 H   0  0  0  0  0  0  0  0  0  0  0  0
   56.0183   33.5511   45.1649 H   0  0  0  0  0  0  0  0  0  0  0  0
   56.5112   31.8238   45.1649 H   0  0  0  0  0  0  0  0  0  0  0  0
   58.2090   32.3720   43.1920 C   0  0  0  0  0  0  0  0  0  0  0  0
   57.5017   32.7430   42.4357 H   0  0  0  0  0  0  0  0  0  0  0  0
   59.2626   32.5010   42.9034 H   0  0  0  0  0  0  0  0  0  0  0  0
   57.9950   30.9080   43.3460 N   0  0  0  0  0  0  0  0  0  0  0  0
   58.6640   30.4670   42.6690 H   0  0  0  0  0  0  0  0  0  0  0  0
   58.3960   30.4070   44.6850 C   0  0  0  0  0  0  0  0  0  0  0  0
   59.4940   30.3871   44.7483 H   0  0  0  0  0  0  0  0  0  0  0  0
   57.9796   31.0778   45.4510 H   0  0  0  0  0  0  0  0  0  0  0  0
   57.8530   28.9920   44.9240 C   0  0  0  0  0  0  0  0  0  0  0  0
   58.2328   28.3272   44.1342 H   0  0  0  0  0  0  0  0  0  0  0  0
   58.1902   28.6605   45.9172 H   0  0  0  0  0  0  0  0  0  0  0  0
   56.3770   28.9590   44.9070 N   0  0  0  0  0  0  0  0  0  0  0  0
   56.0760   28.0410   44.5020 H   0  0  0  0  0  0  0  0  0  0  0  0
   55.7620   30.0440   44.1200 C   0  0  0  0  0  0  0  0  0  0  0  0
   54.7866   29.7019   43.7438 H   0  0  0  0  0  0  0  0  0  0  0  0
   55.6483   30.9196   44.7761 H   0  0  0  0  0  0  0  0  0  0  0  0
   56.6400   30.4530   42.9260 C   0  0  0  0  0  0  0  0  0  0  0  0
   56.7501   29.5877   42.2558 H   0  0  0  0  0  0  0  0  0  0  0  0
   56.1458   31.2952   42.4196 H   0  0  0  0  0  0  0  0  0  0  0  0
   59.6740   34.1730   46.0420 C   0  0  0  0  0  0  0  0  0  0  0  0
   59.0670   34.4640   47.2730 C   0  0  0  0  0  0  0  0  0  0  0  0
   57.9932   34.6992   47.3126 H   0  0  0  0  0  0  0  0  0  0  0  0
   59.8220   34.4560   48.4490 C   0  0  0  0  0  0  0  0  0  0  0  0
   59.3407   34.7004   49.4075 H   0  0  0  0  0  0  0  0  0  0  0  0
   61.1840   34.1400   48.4180 C   0  0  0  0  0  0  0  0  0  0  0  0
   61.8970   34.1500   49.6250 O   0  0  0  0  0  0  0  0  0  0  0  0
   61.5530   33.3770   50.7720 C   0  0  0  0  0  0  0  0  0  0  0  0
   62.0551   33.7946   51.6571 H   0  0  0  0  0  0  0  0  0  0  0  0
   60.4626   33.4061   50.9143 H   0  0  0  0  0  0  0  0  0  0  0  0
   61.9960   31.9270   50.5750 C   0  0  0  0  0  0  0  0  0  0  0  0
   63.0320   31.9149   50.2054 H   0  0  0  0  0  0  0  0  0  0  0  0
   61.9241   31.4053   51.5407 H   0  0  0  0  0  0  0  0  0  0  0  0
   61.1110   31.2200   49.5820 C   0  0  0  0  0  0  0  0  0  0  0  0
   59.7380   31.0680   49.8370 C   0  0  0  0  0  0  0  0  0  0  0  0
   59.3111   31.4422   50.7792 H   0  0  0  0  0  0  0  0  0  0  0  0
   58.9120   30.4430   48.8980 C   0  0  0  0  0  0  0  0  0  0  0  0
   57.8387   30.3211   49.1060 H   0  0  0  0  0  0  0  0  0  0  0  0
   59.4470   29.9730   47.6960 C   0  0  0  0  0  0  0  0  0  0  0  0
   58.7958   29.4798   46.9593 H   0  0  0  0  0  0  0  0  0  0  0  0
   60.8110   30.1300   47.4300 C   0  0  0  0  0  0  0  0  0  0  0  0
   61.2320   29.7610   46.4831 H   0  0  0  0  0  0  0  0  0  0  0  0
   61.6410   30.7560   48.3670 C   0  0  0  0  0  0  0  0  0  0  0  0
   62.7119   30.8850   48.1511 H   0  0  0  0  0  0  0  0  0  0  0  0
   61.7870   33.8190   47.1860 C   0  0  0  0  0  0  0  0  0  0  0  0
   62.8557   33.5612   47.1495 H   0  0  0  0  0  0  0  0  0  0  0  0
   61.0320   33.8270   46.0100 C   0  0  0  0  0  0  0  0  0  0  0  0
   61.5061   33.5603   45.0539 H   0  0  0  0  0  0  0  0  0  0  0  0
  1  2  1  0
  2  3  2  0
  3  4  1  0
  4  5  1  0
  4  6  1  0
  4  7  1  0
  3  8  1  0
  8  9  1  0
  8 10  1  0
  8 11  1  0
 11 12  1  0
 11 13  1  0
 13 14  1  0
 13 15  1  0
 13 16  1  0
 16 17  1  0
 16 18  1  0
 16 19  1  0
 19 20  1  0
 19 21  1  0
 21 22  1  0
 21 23  1  0
 21 24  1  0
 24 25  1  0
 24 26  1  0
  2 27  1  0
 27 28  2  0
 28 29  1  0
 28 30  1  0
 30 31  1  0
 30 32  2  0
 32 33  1  0
 33 34  1  0
 34 35  1  0
 34 36  1  0
 34 37  1  0
 37 38  1  0
 37 39  1  0
 37 40  1  0
 40 41  2  0
 41 42  1  0
 41 43  1  0
 43 44  1  0
 43 45  2  0
 45 46  1  0
 45 47  1  0
 47 48  1  0
 47 49  2  0
 49 50  1  0
 32 51  1  0
 51 52  1  0
 51 53  2  0
 53 54  1  0
 24 11  1  0
 53 27  1  0
 49 40  1  0
M  CHG  1  11   1
M  END
>  <UniqueID>  (37) 
30

>  <SMILES>  (37) 
C/C(=C\c1ccc(OCCc2ccccc2)cc1)C[NH+]1CCNCC1

>  <Energy>  (37) 
70.24818392170987

>  <Genealogy>  (37) 
CC(=Cc1ccc(OCCc2ccccc2)cc1)C[NH+]1CCNCC1 (protonated)
C/C(=C\c1ccc(OCCc2ccccc2)cc1)C[NH+]1CCNCC1 (cis-trans isomerization)
C/C(=C\c1ccc(OCCc2ccccc2)cc1)C[NH+]1CCNCC1 (3D coordinates assigned)
C/C(=C\c1ccc(OCCc2ccccc2)cc1)C[NH+]1CCNCC1 (nonaromatic ring conformer: 70.24818392170987 kcal/mol)

>  <smiles>  (37) 
CC(=Cc1ccc(OCCc2ccccc2)cc1)CN1CCNCC1

>  <score_type>  (37) 
oracle

>  <origin>  (37) 
adg

>  <m_score__min__energy>  (37) 
-7.0300000000000002

>  <m_primary>  (37) 
energy

$$$$
37:0
     RDKit          3D

 38 40  0  0  0  0  0  0  0  0999 V2000
   59.7230   26.0060   46.3510 C   0  0  0  0  0  0  0  0  0  0  0  0
   58.9570   27.0820   45.6410 C   0  0  0  0  0  0  0  0  0  0  0  0
   58.4520   26.8560   44.3550 C   0  0  0  0  0  0  0  0  0  0  0  0
   57.7730   27.8700   43.6780 C   0  0  0  0  0  0  0  0  0  0  0  0
   57.5920   29.1300   44.2710 C   0  0  0  0  0  0  0  0  0  0  0  0
   56.8460   30.1970   43.5160 C   0  0  0  0  0  0  0  0  0  0  0  0
   58.1230   29.3790   45.5590 C   0  0  0  0  0  0  0  0  0  0  0  0
   57.9800   30.6780   46.1710 N   0  0  0  0  0  0  0  0  0  0  0  0
   59.0680   31.6040   46.3200 C   0  0  0  0  0  0  0  0  0  0  0  0
   60.2530   31.1430   46.7970 N   0  0  0  0  0  0  0  0  0  0  0  0
   61.3000   31.9770   47.0390 C   0  0  0  0  0  0  0  0  0  0  0  0
   62.4980   31.4530   47.5540 C   0  0  0  0  0  0  0  0  0  0  0  0
   63.5680   32.3040   47.8130 C   0  0  0  0  0  0  0  0  0  0  0  0
   63.4420   33.6650   47.5620 C   0  0  0  0  0  0  0  0  0  0  0  0
   62.2440   34.1640   47.0490 C   0  0  0  0  0  0  0  0  0  0  0  0
   61.1850   33.3270   46.7900 N   0  0  0  0  0  0  0  0  0  0  0  0
   60.0140   33.8270   46.2750 C   0  0  0  0  0  0  0  0  0  0  0  0
   59.9040   35.0610   46.0230 O   0  0  0  0  0  0  0  0  0  0  0  0
   58.9280   32.9720   46.0070 C   0  0  0  0  0  0  0  0  0  0  0  0
   57.7030   33.5210   45.3740 C   0  0  0  0  0  0  0  0  0  0  0  0
   56.6420   32.8460   45.2930 O   0  0  0  0  0  0  0  0  0  0  0  0
   58.8100   28.3460   46.2280 C   0  0  0  0  0  0  0  0  0  0  0  0
   59.6255   26.1429   47.4381 H   0  0  0  0  0  0  0  0  0  0  0  0
   59.3210   25.0220   46.0679 H   0  0  0  0  0  0  0  0  0  0  0  0
   60.7844   26.0638   46.0679 H   0  0  0  0  0  0  0  0  0  0  0  0
   58.5909   25.8754   43.8763 H   0  0  0  0  0  0  0  0  0  0  0  0
   57.3757   27.6804   42.6699 H   0  0  0  0  0  0  0  0  0  0  0  0
   56.3661   30.8833   44.2292 H   0  0  0  0  0  0  0  0  0  0  0  0
   57.5494   30.7584   42.8835 H   0  0  0  0  0  0  0  0  0  0  0  0
   56.0772   29.7291   42.8835 H   0  0  0  0  0  0  0  0  0  0  0  0
   57.0200   31.0520   46.3410 H   0  0  0  0  0  0  0  0  0  0  0  0
   60.3420   30.1220   47.0090 H   0  0  0  0  0  0  0  0  0  0  0  0
   62.5894   30.3747   47.7515 H   0  0  0  0  0  0  0  0  0  0  0  0
   64.5095   31.9012   48.2147 H   0  0  0  0  0  0  0  0  0  0  0  0
   64.2819   34.3452   47.7666 H   0  0  0  0  0  0  0  0  0  0  0  0
   62.1459   35.2413   46.8493 H   0  0  0  0  0  0  0  0  0  0  0  0
   57.7217   34.5422   44.9655 H   0  0  0  0  0  0  0  0  0  0  0  0
   59.2365   28.5345   47.2243 H   0  0  0  0  0  0  0  0  0  0  0  0
  1  2  1  0
  2  3  2  0
  3  4  1  0
  4  5  2  0
  5  6  1  0
  5  7  1  0
  7  8  1  0
  8  9  1  0
  9 10  1  0
 10 11  2  0
 11 12  1  0
 12 13  2  0
 13 14  1  0
 14 15  2  0
 15 16  1  0
 16 17  1  0
 17 18  2  0
 17 19  1  0
 19 20  1  0
 20 21  2  0
  7 22  2  0
 22  2  1  0
 19  9  2  0
 16 11  1  0
  1 23  1  0
  1 24  1  0
  1 25  1  0
  3 26  1  0
  4 27  1  0
  6 28  1  0
  6 29  1  0
  6 30  1  0
  8 31  1  0
 10 32  1  0
 12 33  1  0
 13 34  1  0
 14 35  1  0
 15 36  1  0
 20 37  1  0
 22 38  1  0
M  CHG  1  10   1
M  END
>  <UniqueID>  (38) 
31

>  <SMILES>  (38) 
Cc1ccc(C)c(Nc2[nH+]c3ccccn3c(=O)c2C=O)c1

>  <Energy>  (38) 
56.98789144991714

>  <Genealogy>  (38) 
Cc1ccc(C)c(Nc2[nH+]c3ccccn3c(=O)c2C=O)c1 (protonated)
Cc1ccc(C)c(Nc2[nH+]c3ccccn3c(=O)c2C=O)c1 (3D coordinates assigned)
Cc1ccc(C)c(Nc2[nH+]c3ccccn3c(=O)c2C=O)c1 (optimized conformer: 56.98789144991714 kcal/mol)

>  <smiles>  (38) 
Cc1ccc(C)c(Nc2nc3ccccn3c(=O)c2C=O)c1

>  <score_type>  (38) 
oracle

>  <origin>  (38) 
adg

>  <m_score__min__energy>  (38) 
-5.6399999999999997

>  <m_primary>  (38) 
energy

$$$$
38:0
     RDKit          3D

 37 40  0  0  0  0  0  0  0  0999 V2000
   56.3570   31.1460   44.5230 O   0  0  0  0  0  0  0  0  0  0  0  0
   57.3970   31.0830   45.2370 C   0  0  0  0  0  0  0  0  0  0  0  0
   58.1760   32.2320   45.4630 C   0  0  0  0  0  0  0  0  0  0  0  0
   57.8390   33.4840   44.9140 C   0  0  0  0  0  0  0  0  0  0  0  0
   58.6430   34.5990   45.1660 C   0  0  0  0  0  0  0  0  0  0  0  0
   59.7850   34.4780   45.9630 C   0  0  0  0  0  0  0  0  0  0  0  0
   60.1290   33.2410   46.5130 C   0  0  0  0  0  0  0  0  0  0  0  0
   59.3330   32.1170   46.2690 C   0  0  0  0  0  0  0  0  0  0  0  0
   59.6710   30.9450   46.7980 O   0  0  0  0  0  0  0  0  0  0  0  0
   58.9620   29.8390   46.6080 C   0  0  0  0  0  0  0  0  0  0  0  0
   59.3810   28.6420   47.1970 C   0  0  0  0  0  0  0  0  0  0  0  0
   58.6460   27.4700   47.0080 C   0  0  0  0  0  0  0  0  0  0  0  0
   57.4820   27.4820   46.2300 C   0  0  0  0  0  0  0  0  0  0  0  0
   56.5560   26.0000   46.0130 S   0  0  0  0  0  0  0  0  0  0  0  0
   56.8170   25.0380   47.1380 O   0  0  0  0  0  0  0  0  0  0  0  0
   55.0930   26.3400   45.9870 O   0  0  0  0  0  0  0  0  0  0  0  0
   56.9880   25.2440   44.5120 N   0  0  0  0  0  0  0  0  0  0  0  0
   57.2690   23.8480   44.3410 C   0  0  0  0  0  0  0  0  0  0  0  0
   58.3930   23.2340   44.9270 C   0  0  0  0  0  0  0  0  0  0  0  0
   58.6340   21.8720   44.7280 C   0  0  0  0  0  0  0  0  0  0  0  0
   57.7590   21.1100   43.9500 C   0  0  0  0  0  0  0  0  0  0  0  0
   56.6400   21.7110   43.3690 C   0  0  0  0  0  0  0  0  0  0  0  0
   56.3950   23.0740   43.5630 C   0  0  0  0  0  0  0  0  0  0  0  0
   55.3060   23.6450   42.9910 F   0  0  0  0  0  0  0  0  0  0  0  0
   57.0570   28.6760   45.6300 C   0  0  0  0  0  0  0  0  0  0  0  0
   57.7900   29.8630   45.8150 C   0  0  0  0  0  0  0  0  0  0  0  0
   56.9416   33.5847   44.2859 H   0  0  0  0  0  0  0  0  0  0  0  0
   58.3762   35.5755   44.7356 H   0  0  0  0  0  0  0  0  0  0  0  0
   60.4142   35.3590   46.1575 H   0  0  0  0  0  0  0  0  0  0  0  0
   61.0284   33.1505   47.1398 H   0  0  0  0  0  0  0  0  0  0  0  0
   60.2931   28.6236   47.8116 H   0  0  0  0  0  0  0  0  0  0  0  0
   58.9834   26.5319   47.4730 H   0  0  0  0  0  0  0  0  0  0  0  0
   59.0834   23.8286   45.5433 H   0  0  0  0  0  0  0  0  0  0  0  0
   59.5153   21.3985   45.1853 H   0  0  0  0  0  0  0  0  0  0  0  0
   57.9510   20.0380   43.7951 H   0  0  0  0  0  0  0  0  0  0  0  0
   55.9500   21.1109   42.7576 H   0  0  0  0  0  0  0  0  0  0  0  0
   56.1469   28.6849   45.0122 H   0  0  0  0  0  0  0  0  0  0  0  0
  1  2  2  0
  2  3  1  0
  3  4  2  0
  4  5  1  0
  5  6  2  0
  6  7  1  0
  7  8  2  0
  8  9  1  0
  9 10  1  0
 10 11  2  0
 11 12  1  0
 12 13  2  0
 13 14  1  0
 14 15  2  0
 14 16  2  0
 14 17  1  0
 17 18  1  0
 18 19  2  0
 19 20  1  0
 20 21  2  0
 21 22  1  0
 22 23  2  0
 23 24  1  0
 13 25  1  0
 25 26  2  0
 26  2  1  0
  8  3  1  0
 26 10  1  0
 23 18  1  0
  4 27  1  0
  5 28  1  0
  6 29  1  0
  7 30  1  0
 11 31  1  0
 12 32  1  0
 19 33  1  0
 20 34  1  0
 21 35  1  0
 22 36  1  0
 25 37  1  0
M  CHG  1  17  -1
M  END
>  <UniqueID>  (39) 
32

>  <SMILES>  (39) 
O=c1c2ccccc2oc2ccc(S(=O)(=O)[N-]c3ccccc3F)cc12

>  <Energy>  (39) 
53.931003609514775

>  <Genealogy>  (39) 
O=c1c2ccccc2oc2ccc(S(=O)(=O)[N-]c3ccccc3F)cc12 (protonated)
O=c1c2ccccc2oc2ccc(S(=O)(=O)[N-]c3ccccc3F)cc12 (3D coordinates assigned)
O=c1c2ccccc2oc2ccc(S(=O)(=O)[N-]c3ccccc3F)cc12 (optimized conformer: 53.931003609514775 kcal/mol)

>  <smiles>  (39) 
O=c1c2ccccc2oc2ccc(S(=O)(=O)Nc3ccccc3F)cc12

>  <score_type>  (39) 
oracle

>  <origin>  (39) 
adg

>  <m_score__min__energy>  (39) 
-10.43

>  <m_primary>  (39) 
energy

$$$$
39:0
     RDKit          3D

 47 49  0  0  0  0  0  0  0  0999 V2000
   56.5830   30.0270   42.8890 C   0  0  0  0  0  0  0  0  0  0  0  0
   56.4830   29.4480   44.2690 C   0  0  0  0  0  0  0  0  0  0  0  0
   55.3410   29.3540   44.7970 O   0  0  0  0  0  0  0  0  0  0  0  0
   57.6560   29.0330   45.0060 N   0  0  0  0  0  0  0  0  0  0  0  0
   58.8210   29.9230   45.0570 C   0  0  0  0  0  0  0  0  0  0  0  0
   60.1070   29.1010   45.0010 C   0  0  0  0  0  0  0  0  0  0  0  0
   60.4210   28.3950   46.3240 C   0  0  0  0  0  0  0  0  0  0  0  0
   59.4170   28.5980   47.3980 N   0  0  2  0  0  0  0  0  0  0  0  0
   60.0070   28.4790   48.7580 C   0  0  0  0  0  0  0  0  0  0  0  0
   60.2180   29.8360   49.4730 C   0  0  0  0  0  0  0  0  0  0  0  0
   61.1390   30.8230   48.7380 C   0  0  0  0  0  0  0  0  0  0  0  0
   60.3760   31.7320   47.8240 C   0  0  0  0  0  0  0  0  0  0  0  0
   60.9230   32.7760   47.0820 C   0  0  0  0  0  0  0  0  0  0  0  0
   59.8560   33.2810   46.3760 C   0  0  0  0  0  0  0  0  0  0  0  0
   59.7820   34.3300   45.4620 C   0  0  0  0  0  0  0  0  0  0  0  0
   58.5270   34.6100   44.8900 C   0  0  0  0  0  0  0  0  0  0  0  0
   57.3920   33.8440   45.2410 C   0  0  0  0  0  0  0  0  0  0  0  0
   57.5030   32.7900   46.1680 C   0  0  0  0  0  0  0  0  0  0  0  0
   58.7580   32.5360   46.7160 C   0  0  0  0  0  0  0  0  0  0  0  0
   59.0830   31.6110   47.5840 O   0  0  0  0  0  0  0  0  0  0  0  0
   58.1660   27.8230   47.1750 C   0  0  0  0  0  0  0  0  0  0  0  0
   57.6700   27.7420   45.7120 C   0  0  0  0  0  0  0  0  0  0  0  0
   56.7698   31.1088   42.9579 H   0  0  0  0  0  0  0  0  0  0  0  0
   57.4113   29.5456   42.3485 H   0  0  0  0  0  0  0  0  0  0  0  0
   55.6412   29.8513   42.3485 H   0  0  0  0  0  0  0  0  0  0  0  0
   58.7912   30.6121   44.2001 H   0  0  0  0  0  0  0  0  0  0  0  0
   58.7981   30.4955   45.9960 H   0  0  0  0  0  0  0  0  0  0  0  0
   60.0034   28.3404   44.2131 H   0  0  0  0  0  0  0  0  0  0  0  0
   60.9342   29.7956   44.7929 H   0  0  0  0  0  0  0  0  0  0  0  0
   60.4946   27.3156   46.1255 H   0  0  0  0  0  0  0  0  0  0  0  0
   61.3585   28.8367   46.6927 H   0  0  0  0  0  0  0  0  0  0  0  0
   59.1440   29.6010   47.2800 H   0  0  0  0  0  0  0  0  0  0  0  0
   59.3347   27.8640   49.3743 H   0  0  0  0  0  0  0  0  0  0  0  0
   61.0016   28.0255   48.6352 H   0  0  0  0  0  0  0  0  0  0  0  0
   59.2346   30.3136   49.5951 H   0  0  0  0  0  0  0  0  0  0  0  0
   60.7143   29.6060   50.4274 H   0  0  0  0  0  0  0  0  0  0  0  0
   61.6708   31.4336   49.4826 H   0  0  0  0  0  0  0  0  0  0  0  0
   61.8416   30.2388   48.1256 H   0  0  0  0  0  0  0  0  0  0  0  0
   61.9683   33.1181   47.0646 H   0  0  0  0  0  0  0  0  0  0  0  0
   60.6728   34.9184   45.1969 H   0  0  0  0  0  0  0  0  0  0  0  0
   58.4286   35.4309   44.1645 H   0  0  0  0  0  0  0  0  0  0  0  0
   56.4164   34.0727   44.7873 H   0  0  0  0  0  0  0  0  0  0  0  0
   56.6273   32.1870   46.4501 H   0  0  0  0  0  0  0  0  0  0  0  0
   58.3387   26.7960   47.5291 H   0  0  0  0  0  0  0  0  0  0  0  0
   57.3809   28.3627   47.7248 H   0  0  0  0  0  0  0  0  0  0  0  0
   58.3301   27.0554   45.1618 H   0  0  0  0  0  0  0  0  0  0  0  0
   56.6277   27.3926   45.7512 H   0  0  0  0  0  0  0  0  0  0  0  0
  1  2  1  0
  2  3  2  0
  2  4  1  0
  4  5  1  0
  5  6  1  0
  6  7  1  0
  7  8  1  0
  8  9  1  0
  9 10  1  0
 10 11  1  0
 11 12  1  0
 12 13  2  0
 13 14  1  0
 14 15  2  0
 15 16  1  0
 16 17  2  0
 17 18  1  0
 18 19  2  0
 19 20  1  0
  8 21  1  0
 21 22  1  0
 22  4  1  0
 20 12  1  0
 19 14  1  0
  1 23  1  0
  1 24  1  0
  1 25  1  0
  5 26  1  0
  5 27  1  0
  6 28  1  0
  6 29  1  0
  7 30  1  0
  7 31  1  0
  8 32  1  6
  9 33  1  0
  9 34  1  0
 10 35  1  0
 10 36  1  0
 11 37  1  0
 11 38  1  0
 13 39  1  0
 15 40  1  0
 16 41  1  0
 17 42  1  0
 18 43  1  0
 21 44  1  0
 21 45  1  0
 22 46  1  0
 22 47  1  0
M  CHG  1   8   1
M  END
>  <UniqueID>  (40) 
33

>  <SMILES>  (40) 
CC(=O)N1CCC[N@H+](CCCc2cc3ccccc3o2)CC1

>  <Energy>  (40) 
87.56544632927037

>  <Genealogy>  (40) 
CC(=O)N1CCC[NH+](CCCc2cc3ccccc3o2)CC1 (protonated)
CC(=O)N1CCC[N@H+](CCCc2cc3ccccc3o2)CC1 (chirality)
CC(=O)N1CCC[N@H+](CCCc2cc3ccccc3o2)CC1 (3D coordinates assigned)
CC(=O)N1CCC[N@H+](CCCc2cc3ccccc3o2)CC1 (nonaromatic ring conformer: 87.56544632927037 kcal/mol)

>  <smiles>  (40) 
CC(=O)N1CCCN(CCCc2cc3ccccc3o2)CC1

>  <score_type>  (40) 
oracle

>  <origin>  (40) 
adg

>  <m_score__min__energy>  (40) 
-3.1899999999999999

>  <m_primary>  (40) 
energy

$$$$
40:0
     RDKit          3D

 35 37  0  0  0  0  0  0  0  0999 V2000
   58.4610   25.7390   47.4260 O   0  0  0  0  0  0  0  0  0  0  0  0
   58.3550   26.8750   46.8910 C   0  0  0  0  0  0  0  0  0  0  0  0
   57.1750   27.2380   46.2490 C   0  0  0  0  0  0  0  0  0  0  0  0
   57.0620   28.5100   45.6730 C   0  0  0  0  0  0  0  0  0  0  0  0
   55.8620   28.8830   45.0650 O   0  0  0  0  0  0  0  0  0  0  0  0
   58.1170   29.3890   45.7210 N   0  0  0  0  0  0  0  0  0  0  0  0
   57.9470   30.7150   45.1800 C   0  0  0  0  0  0  0  0  0  0  0  0
   57.8140   31.8190   46.0380 C   0  0  0  0  0  0  0  0  0  0  0  0
   57.6870   33.1080   45.5110 C   0  0  0  0  0  0  0  0  0  0  0  0
   57.6860   33.3030   44.1280 C   0  0  0  0  0  0  0  0  0  0  0  0
   57.8080   32.2080   43.2670 C   0  0  0  0  0  0  0  0  0  0  0  0
   57.9340   30.9170   43.7890 C   0  0  0  0  0  0  0  0  0  0  0  0
   59.3000   29.0260   46.3290 C   0  0  0  0  0  0  0  0  0  0  0  0
   60.4280   29.9150   46.3700 N   0  0  0  0  0  0  0  0  0  0  0  0
   60.5410   31.0160   47.2880 C   0  0  0  0  0  0  0  0  0  0  0  0
   61.4270   32.0830   47.0480 C   0  0  0  0  0  0  0  0  0  0  0  0
   61.5050   33.1500   47.9470 C   0  0  0  0  0  0  0  0  0  0  0  0
   60.7120   33.1570   49.0970 C   0  0  0  0  0  0  0  0  0  0  0  0
   60.7900   34.1960   49.9660 F   0  0  0  0  0  0  0  0  0  0  0  0
   59.8440   32.0920   49.3550 C   0  0  0  0  0  0  0  0  0  0  0  0
   59.0760   32.0950   50.4720 F   0  0  0  0  0  0  0  0  0  0  0  0
   59.7620   31.0230   48.4570 C   0  0  0  0  0  0  0  0  0  0  0  0
   59.4190   27.7730   46.9410 C   0  0  0  0  0  0  0  0  0  0  0  0
   56.3352   26.5297   46.1941 H   0  0  0  0  0  0  0  0  0  0  0  0
   55.1320   28.2080   44.8680 H   0  0  0  0  0  0  0  0  0  0  0  0
   57.8097   31.6692   47.1277 H   0  0  0  0  0  0  0  0  0  0  0  0
   57.5877   33.9701   46.1870 H   0  0  0  0  0  0  0  0  0  0  0  0
   57.5892   34.3183   43.7160 H   0  0  0  0  0  0  0  0  0  0  0  0
   57.8048   32.3624   42.1779 H   0  0  0  0  0  0  0  0  0  0  0  0
   58.0232   30.0569   43.1091 H   0  0  0  0  0  0  0  0  0  0  0  0
   61.1730   29.7930   45.6470 H   0  0  0  0  0  0  0  0  0  0  0  0
   62.0607   32.0770   46.1489 H   0  0  0  0  0  0  0  0  0  0  0  0
   62.1920   33.9859   47.7488 H   0  0  0  0  0  0  0  0  0  0  0  0
   59.0837   30.1829   48.6672 H   0  0  0  0  0  0  0  0  0  0  0  0
   60.3493   27.4982   47.4597 H   0  0  0  0  0  0  0  0  0  0  0  0
  1  2  2  0
  2  3  1  0
  3  4  2  0
  4  5  1  0
  4  6  1  0
  6  7  1  0
  7  8  2  0
  8  9  1  0
  9 10  2  0
 10 11  1  0
 11 12  2  0
  6 13  1  0
 13 14  1  0
 14 15  1  0
 15 16  2  0
 16 17  1  0
 17 18  2  0
 18 19  1  0
 18 20  1  0
 20 21  1  0
 20 22  2  0
 13 23  2  0
 23  2  1  0
 12  7  1  0
 22 15  1  0
  3 24  1  0
  5 25  1  0
  8 26  1  0
  9 27  1  0
 10 28  1  0
 11 29  1  0
 12 30  1  0
 14 31  1  0
 16 32  1  0
 17 33  1  0
 22 34  1  0
 23 35  1  0
M  END
>  <UniqueID>  (41) 
34

>  <SMILES>  (41) 
O=c1cc(O)n(-c2ccccc2)c(Nc2ccc(F)c(F)c2)c1

>  <Energy>  (41) 
52.21273798436308

>  <Genealogy>  (41) 
O=c1cc(O)n(-c2ccccc2)c(Nc2ccc(F)c(F)c2)c1 (3D coordinates assigned)
O=c1cc(O)n(-c2ccccc2)c(Nc2ccc(F)c(F)c2)c1 (optimized conformer: 52.21273798436308 kcal/mol)

>  <smiles>  (41) 
O=c1cc(O)n(-c2ccccc2)c(Nc2ccc(F)c(F)c2)c1

>  <score_type>  (41) 
oracle

>  <origin>  (41) 
adg

>  <m_score__min__energy>  (41) 
-6.6799999999999997

>  <m_primary>  (41) 
energy

$$$$
41:0
     RDKit          3D

 31 33  0  0  0  0  0  0  0  0999 V2000
   58.9920   29.4370   45.1850 O   0  0  0  0  0  0  0  0  0  0  0  0
   57.7710   29.5510   45.4720 C   0  0  0  0  0  0  0  0  0  0  0  0
   57.1400   30.8260   45.3100 N   0  0  0  0  0  0  0  0  0  0  0  0
   57.7270   32.1060   45.5870 C   0  0  0  0  0  0  0  0  0  0  0  0
   58.1930   32.3670   46.8820 C   0  0  0  0  0  0  0  0  0  0  0  0
   58.7530   33.6100   47.1960 C   0  0  0  0  0  0  0  0  0  0  0  0
   58.8360   34.6060   46.2190 C   0  0  0  0  0  0  0  0  0  0  0  0
   58.3500   34.3640   44.9320 C   0  0  0  0  0  0  0  0  0  0  0  0
   57.7900   33.1210   44.6150 C   0  0  0  0  0  0  0  0  0  0  0  0
   57.0240   28.4230   45.9480 N   0  0  0  0  0  0  0  0  0  0  0  0
   57.0340   27.0940   45.4060 C   0  0  0  0  0  0  0  0  0  0  0  0
   57.7890   26.7560   44.2690 C   0  0  0  0  0  0  0  0  0  0  0  0
   57.7530   25.4540   43.7610 C   0  0  0  0  0  0  0  0  0  0  0  0
   56.9520   24.4730   44.3710 C   0  0  0  0  0  0  0  0  0  0  0  0
   56.9130   23.0950   43.8330 C   0  0  0  0  0  0  0  0  0  0  0  0
   57.8790   22.1760   44.0450 N   0  0  0  0  0  0  0  0  0  0  0  0
   57.4000   21.1150   43.3710 C   0  0  0  0  0  0  0  0  0  0  0  0
   56.2490   21.3890   42.8090 O   0  0  0  0  0  0  0  0  0  0  0  0
   55.9090   22.6130   43.0730 N   0  0  0  0  0  0  0  0  0  0  0  0
   56.1810   24.8220   45.4910 C   0  0  0  0  0  0  0  0  0  0  0  0
   56.2180   26.1240   45.9970 C   0  0  0  0  0  0  0  0  0  0  0  0
   58.1182   31.5898   47.6568 H   0  0  0  0  0  0  0  0  0  0  0  0
   59.1280   33.8035   48.2119 H   0  0  0  0  0  0  0  0  0  0  0  0
   59.2840   35.5804   46.4636 H   0  0  0  0  0  0  0  0  0  0  0  0
   58.4075   35.1516   44.1663 H   0  0  0  0  0  0  0  0  0  0  0  0
   57.3983   32.9374   43.6036 H   0  0  0  0  0  0  0  0  0  0  0  0
   58.4104   27.5190   43.7773 H   0  0  0  0  0  0  0  0  0  0  0  0
   58.3556   25.1954   42.8778 H   0  0  0  0  0  0  0  0  0  0  0  0
   57.9093   20.1425   43.3008 H   0  0  0  0  0  0  0  0  0  0  0  0
   55.5439   24.0660   45.9732 H   0  0  0  0  0  0  0  0  0  0  0  0
   55.6000   26.3883   46.8677 H   0  0  0  0  0  0  0  0  0  0  0  0
  1  2  2  0
  2  3  1  0
  3  4  1  0
  4  5  2  0
  5  6  1  0
  6  7  2  0
  7  8  1  0
  8  9  2  0
  2 10  1  0
 10 11  1  0
 11 12  2  0
 12 13  1  0
 13 14  2  0
 14 15  1  0
 15 16  1  0
 16 17  2  0
 17 18  1  0
 18 19  1  0
 14 20  1  0
 20 21  2  0
  9  4  1  0
 21 11  1  0
 19 15  2  0
  5 22  1  0
  6 23  1  0
  7 24  1  0
  8 25  1  0
  9 26  1  0
 12 27  1  0
 13 28  1  0
 17 29  1  0
 20 30  1  0
 21 31  1  0
M  CHG  2   3  -1  10  -1
M  END
>  <UniqueID>  (42) 
35

>  <SMILES>  (42) 
O=C([N-]c1ccccc1)[N-]c1ccc(-c2ncon2)cc1

>  <Energy>  (42) 
74.09434531596338

>  <Genealogy>  (42) 
O=C([N-]c1ccccc1)[N-]c1ccc(-c2ncon2)cc1 (protonated)
O=C([N-]c1ccccc1)[N-]c1ccc(-c2ncon2)cc1 (3D coordinates assigned)
O=C([N-]c1ccccc1)[N-]c1ccc(-c2ncon2)cc1 (optimized conformer: 74.09434531596338 kcal/mol)

>  <smiles>  (42) 
O=C(Nc1ccccc1)Nc1ccc(-c2ncon2)cc1

>  <score_type>  (42) 
oracle

>  <origin>  (42) 
adg

>  <m_score__min__energy>  (42) 
-10.56

>  <m_primary>  (42) 
energy

$$$$
42:0
     RDKit          3D

 48 50  0  0  0  0  0  0  0  0999 V2000
   62.6210   32.0330   47.5620 C   0  0  0  0  0  0  0  0  0  0  0  0
   62.1170   33.3260   46.9950 C   0  0  0  0  0  0  0  0  0  0  0  0
   62.9180   34.0710   46.3700 O   0  0  0  0  0  0  0  0  0  0  0  0
   60.7440   33.7230   47.1050 N   0  0  0  0  0  0  0  0  0  0  0  0
   59.6310   33.1620   46.3940 C   0  0  0  0  0  0  0  0  0  0  0  0
   58.7800   34.0300   45.6700 C   0  0  0  0  0  0  0  0  0  0  0  0
   57.6500   33.5310   44.9940 C   0  0  0  0  0  0  0  0  0  0  0  0
   57.4040   32.1640   45.0660 C   0  0  0  0  0  0  0  0  0  0  0  0
   56.3640   31.4920   44.5440 N   0  0  0  0  0  0  0  0  0  0  0  0
   56.5020   30.2160   44.8930 N   0  0  0  0  0  0  0  0  0  0  0  0
   57.6290   30.0750   45.6330 C   0  0  0  0  0  0  0  0  0  0  0  0
   58.0940   28.7830   46.1800 C   0  0  0  0  0  0  0  0  0  0  0  0
   59.3340   28.6740   46.8290 C   0  0  0  0  0  0  0  0  0  0  0  0
   59.7570   27.4440   47.3350 C   0  0  0  0  0  0  0  0  0  0  0  0
   58.9600   26.3070   47.1800 C   0  0  0  0  0  0  0  0  0  0  0  0
   57.7360   26.3910   46.4950 C   0  0  0  0  0  0  0  0  0  0  0  0
   56.8800   25.2520   46.3220 N   0  0  0  0  0  0  0  0  0  0  0  0
   55.5010   25.2740   45.9320 C   0  0  0  0  0  0  0  0  0  0  0  0
   54.8290   26.3380   45.9940 O   0  0  0  0  0  0  0  0  0  0  0  0
   54.8330   24.0010   45.5150 C   0  0  0  0  0  0  0  0  0  0  0  0
   55.1040   23.6950   44.0670 C   0  0  0  0  0  0  0  0  0  0  0  0
   56.3310   23.5340   43.5600 C   0  0  0  0  0  0  0  0  0  0  0  0
   57.1360   22.3860   43.8610 N   0  0  0  0  0  0  0  0  0  0  0  0
   58.3720   22.5920   44.6100 C   0  0  0  0  0  0  0  0  0  0  0  0
   57.0230   21.1980   43.0160 C   0  0  0  0  0  0  0  0  0  0  0  0
   57.3050   27.6340   46.0100 C   0  0  0  0  0  0  0  0  0  0  0  0
   58.2200   31.3190   45.7620 C   0  0  0  0  0  0  0  0  0  0  0  0
   59.3280   31.7830   46.4710 C   0  0  0  0  0  0  0  0  0  0  0  0
   62.6018   32.0822   48.6607 H   0  0  0  0  0  0  0  0  0  0  0  0
   61.9787   31.2078   47.2207 H   0  0  0  0  0  0  0  0  0  0  0  0
   63.6523   31.8602   47.2207 H   0  0  0  0  0  0  0  0  0  0  0  0
   59.0035   35.1065   45.6348 H   0  0  0  0  0  0  0  0  0  0  0  0
   56.9845   34.1996   44.4282 H   0  0  0  0  0  0  0  0  0  0  0  0
   59.9747   29.5614   46.9391 H   0  0  0  0  0  0  0  0  0  0  0  0
   60.7218   27.3694   47.8580 H   0  0  0  0  0  0  0  0  0  0  0  0
   59.2915   25.3438   47.5952 H   0  0  0  0  0  0  0  0  0  0  0  0
   55.2148   23.1757   46.1340 H   0  0  0  0  0  0  0  0  0  0  0  0
   53.7474   24.1161   45.6501 H   0  0  0  0  0  0  0  0  0  0  0  0
   54.2446   23.5983   43.3872 H   0  0  0  0  0  0  0  0  0  0  0  0
   56.7359   24.3072   42.8904 H   0  0  0  0  0  0  0  0  0  0  0  0
   58.1576   22.5563   45.6883 H   0  0  0  0  0  0  0  0  0  0  0  0
   59.0925   21.8016   44.3530 H   0  0  0  0  0  0  0  0  0  0  0  0
   58.7972   23.5734   44.3530 H   0  0  0  0  0  0  0  0  0  0  0  0
   56.9379   20.3035   43.6505 H   0  0  0  0  0  0  0  0  0  0  0  0
   56.1289   21.2835   42.3809 H   0  0  0  0  0  0  0  0  0  0  0  0
   57.9171   21.1134   42.3809 H   0  0  0  0  0  0  0  0  0  0  0  0
   56.3383   27.7098   45.4907 H   0  0  0  0  0  0  0  0  0  0  0  0
   59.9460   31.0984   47.0705 H   0  0  0  0  0  0  0  0  0  0  0  0
  1  2  1  0
  2  3  2  0
  2  4  1  0
  4  5  1  0
  5  6  1  0
  6  7  2  0
  7  8  1  0
  8  9  2  0
  9 10  1  0
 10 11  1  0
 11 12  1  0
 12 13  2  0
 13 14  1  0
 14 15  2  0
 15 16  1  0
 16 17  1  0
 17 18  1  0
 18 19  2  0
 18 20  1  0
 20 21  1  0
 21 22  2  3
 22 23  1  0
 23 24  1  0
 23 25  1  0
 16 26  2  0
 11 27  2  0
 27 28  1  0
 28  5  2  0
 27  8  1  0
 26 12  1  0
  1 29  1  0
  1 30  1  0
  1 31  1  0
  6 32  1  0
  7 33  1  0
 13 34  1  0
 14 35  1  0
 15 36  1  0
 20 37  1  0
 20 38  1  0
 21 39  1  0
 22 40  1  0
 24 41  1  0
 24 42  1  0
 24 43  1  0
 25 44  1  0
 25 45  1  0
 25 46  1  0
 26 47  1  0
 28 48  1  0
M  CHG  3   4  -1  10  -1  17  -1
M  END
>  <UniqueID>  (43) 
36

>  <SMILES>  (43) 
CC(=O)[N-]c1ccc2n[n-]c(-c3cccc([N-]C(=O)CC=CN(C)C)c3)c2c1

>  <Energy>  (43) 
98.28023042224143

>  <Genealogy>  (43) 
CC(=O)[N-]c1ccc2n[n-]c(-c3cccc([N-]C(=O)CC=CN(C)C)c3)c2c1 (protonated)
CC(=O)[N-]c1ccc2n[n-]c(-c3cccc([N-]C(=O)CC=CN(C)C)c3)c2c1 (3D coordinates assigned)
CC(=O)[N-]c1ccc2n[n-]c(-c3cccc([N-]C(=O)CC=CN(C)C)c3)c2c1 (optimized conformer: 98.28023042224143 kcal/mol)

>  <smiles>  (43) 
CC(=O)Nc1ccc2n[nH]c(-c3cccc(NC(=O)CC=CN(C)C)c3)c2c1

>  <score_type>  (43) 
oracle

>  <origin>  (43) 
adg

>  <m_score__min__energy>  (43) 
-12.76

>  <m_primary>  (43) 
energy

$$$$
43:0
     RDKit          3D

 45 47  0  0  0  0  0  0  0  0999 V2000
   54.4880   25.9510   45.9210 O   0  0  0  0  0  0  0  0  0  0  0  0
   55.7440   25.9190   45.8140 C   0  0  0  0  0  0  0  0  0  0  0  0
   56.5230   27.0410   46.2420 N   0  0  0  0  0  0  0  0  0  0  0  0
   57.8680   27.3390   45.7590 C   0  0  0  0  0  0  0  0  0  0  0  0
   57.8480   28.4010   44.6470 C   0  0  0  0  0  0  0  0  0  0  0  0
   58.2340   29.7230   45.1460 N   0  0  0  0  0  0  0  0  0  0  0  0
   57.4090   30.8870   44.9930 C   0  0  0  0  0  0  0  0  0  0  0  0
   56.2410   30.7750   44.5300 O   0  0  0  0  0  0  0  0  0  0  0  0
   57.9310   32.2280   45.3260 C   0  0  0  0  0  0  0  0  0  0  0  0
   57.6430   33.3370   44.5180 C   0  0  0  0  0  0  0  0  0  0  0  0
   58.1480   34.5910   44.8650 C   0  0  0  0  0  0  0  0  0  0  0  0
   58.8930   34.7400   45.9920 N   0  0  0  0  0  0  0  0  0  0  0  0
   59.1730   33.6920   46.8120 C   0  0  0  0  0  0  0  0  0  0  0  0
   59.9390   33.9200   47.9640 O   0  0  0  0  0  0  0  0  0  0  0  0
   61.3290   33.7530   48.0520 C   0  0  0  0  0  0  0  0  0  0  0  0
   62.0590   33.5370   46.8750 C   0  0  0  0  0  0  0  0  0  0  0  0
   63.4470   33.3780   46.9240 C   0  0  0  0  0  0  0  0  0  0  0  0
   64.1180   33.4450   48.1480 C   0  0  0  0  0  0  0  0  0  0  0  0
   63.4020   33.6790   49.3260 C   0  0  0  0  0  0  0  0  0  0  0  0
   62.0140   33.8400   49.2800 C   0  0  0  0  0  0  0  0  0  0  0  0
   58.7190   32.4080   46.4720 C   0  0  0  0  0  0  0  0  0  0  0  0
   56.4140   24.7230   45.2540 C   0  0  0  0  0  0  0  0  0  0  0  0
   55.9130   24.0980   44.0960 C   0  0  0  0  0  0  0  0  0  0  0  0
   56.5420   22.9620   43.5770 C   0  0  0  0  0  0  0  0  0  0  0  0
   57.6730   22.4370   44.2050 C   0  0  0  0  0  0  0  0  0  0  0  0
   58.1790   23.0470   45.3550 C   0  0  0  0  0  0  0  0  0  0  0  0
   57.5550   24.1830   45.8790 C   0  0  0  0  0  0  0  0  0  0  0  0
   58.4740   27.7119   46.5978 H   0  0  0  0  0  0  0  0  0  0  0  0
   58.2972   26.4149   45.3444 H   0  0  0  0  0  0  0  0  0  0  0  0
   58.5508   28.1006   43.8559 H   0  0  0  0  0  0  0  0  0  0  0  0
   56.8205   28.4697   44.2602 H   0  0  0  0  0  0  0  0  0  0  0  0
   59.1920   29.8230   45.5490 H   0  0  0  0  0  0  0  0  0  0  0  0
   57.0233   33.2196   43.6168 H   0  0  0  0  0  0  0  0  0  0  0  0
   57.9425   35.4613   44.2245 H   0  0  0  0  0  0  0  0  0  0  0  0
   61.5370   33.4924   45.9078 H   0  0  0  0  0  0  0  0  0  0  0  0
   64.0121   33.1998   45.9973 H   0  0  0  0  0  0  0  0  0  0  0  0
   65.2095   33.3136   48.1847 H   0  0  0  0  0  0  0  0  0  0  0  0
   63.9308   33.7364   50.2889 H   0  0  0  0  0  0  0  0  0  0  0  0
   61.4544   34.0354   50.2066 H   0  0  0  0  0  0  0  0  0  0  0  0
   58.9806   31.5455   47.1026 H   0  0  0  0  0  0  0  0  0  0  0  0
   55.0217   24.5057   43.5967 H   0  0  0  0  0  0  0  0  0  0  0  0
   56.1445   22.4806   42.6713 H   0  0  0  0  0  0  0  0  0  0  0  0
   58.1654   21.5432   43.7942 H   0  0  0  0  0  0  0  0  0  0  0  0
   59.0701   22.6328   45.8493 H   0  0  0  0  0  0  0  0  0  0  0  0
   57.9578   24.6584   46.7855 H   0  0  0  0  0  0  0  0  0  0  0  0
  1  2  2  0
  2  3  1  0
  3  4  1  0
  4  5  1  0
  5  6  1  0
  6  7  1  0
  7  8  2  0
  7  9  1  0
  9 10  2  0
 10 11  1  0
 11 12  2  0
 12 13  1  0
 13 14  1  0
 14 15  1  0
 15 16  2  0
 16 17  1  0
 17 18  2  0
 18 19  1  0
 19 20  2  0
 13 21  2  0
  2 22  1  0
 22 23  2  0
 23 24  1  0
 24 25  2  0
 25 26  1  0
 26 27  2  0
 21  9  1  0
 27 22  1  0
 20 15  1  0
  4 28  1  0
  4 29  1  0
  5 30  1  0
  5 31  1  0
  6 32  1  0
 10 33  1  0
 11 34  1  0
 16 35  1  0
 17 36  1  0
 18 37  1  0
 19 38  1  0
 20 39  1  0
 21 40  1  0
 23 41  1  0
 24 42  1  0
 25 43  1  0
 26 44  1  0
 27 45  1  0
M  CHG  1   3  -1
M  END
>  <UniqueID>  (44) 
37

>  <SMILES>  (44) 
O=C([N-]CCNC(=O)c1ccnc(Oc2ccccc2)c1)c1ccccc1

>  <Energy>  (44) 
52.18612907428939

>  <Genealogy>  (44) 
O=C([N-]CCNC(=O)c1ccnc(Oc2ccccc2)c1)c1ccccc1 (protonated)
O=C([N-]CCNC(=O)c1ccnc(Oc2ccccc2)c1)c1ccccc1 (3D coordinates assigned)
O=C([N-]CCNC(=O)c1ccnc(Oc2ccccc2)c1)c1ccccc1 (optimized conformer: 52.18612907428939 kcal/mol)

>  <smiles>  (44) 
O=C(NCCNC(=O)c1ccnc(Oc2ccccc2)c1)c1ccccc1

>  <score_type>  (44) 
oracle

>  <origin>  (44) 
adg

>  <m_score__min__energy>  (44) 
-10.859999999999999

>  <m_primary>  (44) 
energy

$$$$
44:0
     RDKit          3D

 33 35  0  0  0  0  0  0  0  0999 V2000
   55.5280   30.0510   43.6410 C   0  0  0  0  0  0  0  0  0  0  0  0
   56.0750   29.7170   44.9130 O   0  0  0  0  0  0  0  0  0  0  0  0
   57.4300   29.4340   45.1480 C   0  0  0  0  0  0  0  0  0  0  0  0
   57.9900   28.1740   44.8530 C   0  0  0  0  0  0  0  0  0  0  0  0
   59.3410   27.9250   45.1050 C   0  0  0  0  0  0  0  0  0  0  0  0
   60.1480   28.9250   45.6460 C   0  0  0  0  0  0  0  0  0  0  0  0
   59.6080   30.1780   45.9390 C   0  0  0  0  0  0  0  0  0  0  0  0
   58.2460   30.4390   45.7040 C   0  0  0  0  0  0  0  0  0  0  0  0
   57.6890   31.7340   45.9890 N   0  0  0  0  0  0  0  0  0  0  0  0
   58.4830   32.9210   46.1080 C   0  0  0  0  0  0  0  0  0  0  0  0
   58.5170   33.8520   45.0560 C   0  0  0  0  0  0  0  0  0  0  0  0
   59.2610   35.0390   45.1760 C   0  0  0  0  0  0  0  0  0  0  0  0
   59.9580   35.3220   46.3610 C   0  0  0  0  0  0  0  0  0  0  0  0
   59.9020   34.4020   47.4100 C   0  0  0  0  0  0  0  0  0  0  0  0
   59.1930   33.2200   47.2820 C   0  0  0  0  0  0  0  0  0  0  0  0
   59.2090   32.3480   48.7910 S   0  0  0  0  0  0  0  0  0  0  0  0
   59.9310   31.0340   48.7170 O   0  0  0  0  0  0  0  0  0  0  0  0
   57.8410   32.2220   49.3990 O   0  0  0  0  0  0  0  0  0  0  0  0
   60.1770   33.5800   49.5720 C   0  0  0  0  0  0  0  0  0  0  0  0
   60.4770   34.5810   48.7470 C   0  0  0  0  0  0  0  0  0  0  0  0
   54.5967   30.6196   43.7802 H   0  0  0  0  0  0  0  0  0  0  0  0
   56.2505   30.6622   43.0802 H   0  0  0  0  0  0  0  0  0  0  0  0
   55.3144   29.1291   43.0802 H   0  0  0  0  0  0  0  0  0  0  0  0
   57.3592   27.3826   44.4219 H   0  0  0  0  0  0  0  0  0  0  0  0
   59.7692   26.9379   44.8762 H   0  0  0  0  0  0  0  0  0  0  0  0
   61.2119   28.7260   45.8422 H   0  0  0  0  0  0  0  0  0  0  0  0
   60.2515   30.9665   46.3563 H   0  0  0  0  0  0  0  0  0  0  0  0
   56.6500   31.8420   46.0060 H   0  0  0  0  0  0  0  0  0  0  0  0
   57.9569   33.6505   44.1310 H   0  0  0  0  0  0  0  0  0  0  0  0
   59.2970   35.7494   44.3370 H   0  0  0  0  0  0  0  0  0  0  0  0
   60.5377   36.2514   46.4615 H   0  0  0  0  0  0  0  0  0  0  0  0
   60.4999   33.5326   50.6225 H   0  0  0  0  0  0  0  0  0  0  0  0
   61.0893   35.4477   49.0367 H   0  0  0  0  0  0  0  0  0  0  0  0
  1  2  1  0
  2  3  1  0
  3  4  2  0
  4  5  1  0
  5  6  2  0
  6  7  1  0
  7  8  2  0
  8  9  1  0
  9 10  1  0
 10 11  2  0
 11 12  1  0
 12 13  2  0
 13 14  1  0
 14 15  2  0
 15 16  1  0
 16 17  2  0
 16 18  2  0
 16 19  1  0
 19 20  2  0
  8  3  1  0
 15 10  1  0
 20 14  1  0
  1 21  1  0
  1 22  1  0
  1 23  1  0
  4 24  1  0
  5 25  1  0
  6 26  1  0
  7 27  1  0
  9 28  1  0
 11 29  1  0
 12 30  1  0
 13 31  1  0
 19 32  1  0
 20 33  1  0
M  END
>  <UniqueID>  (45) 
38

>  <SMILES>  (45) 
COc1ccccc1Nc1cccc2c1S(=O)(=O)C=C2

>  <Energy>  (45) 
62.00457960340439

>  <Genealogy>  (45) 
COc1ccccc1Nc1cccc2c1S(=O)(=O)C=C2 (3D coordinates assigned)
COc1ccccc1Nc1cccc2c1S(=O)(=O)C=C2 (nonaromatic ring conformer: 62.00457960340439 kcal/mol)

>  <smiles>  (45) 
COc1ccccc1Nc1cccc2c1S(=O)(=O)C=C2

>  <score_type>  (45) 
oracle

>  <origin>  (45) 
adg

>  <m_score__min__energy>  (45) 
-7.5099999999999998

>  <m_primary>  (45) 
energy

$$$$
45:0
     RDKit          3D

 42 44  0  0  0  0  0  0  0  0999 V2000
   66.3310   32.7220   50.1180 C   0  0  0  0  0  0  0  0  0  0  0  0
   64.8690   32.5080   50.4940 C   0  0  0  0  0  0  0  0  0  0  0  0
   64.1760   31.8080   49.4600 O   0  0  0  0  0  0  0  0  0  0  0  0
   63.4070   32.4000   48.4450 C   0  0  0  0  0  0  0  0  0  0  0  0
   63.8530   33.5060   47.6970 C   0  0  0  0  0  0  0  0  0  0  0  0
   63.0410   34.0530   46.7010 C   0  0  0  0  0  0  0  0  0  0  0  0
   61.7860   33.5060   46.4350 C   0  0  0  0  0  0  0  0  0  0  0  0
   61.3270   32.3920   47.1610 C   0  0  0  0  0  0  0  0  0  0  0  0
   59.9920   31.8050   46.8920 C   0  0  0  0  0  0  0  0  0  0  0  0
   58.9730   32.2930   47.4560 O   0  0  0  0  0  0  0  0  0  0  0  0
   59.8440   30.6720   46.0220 N   0  0  0  0  0  0  0  0  0  0  0  0
   58.5650   30.2270   45.5470 C   0  0  0  0  0  0  0  0  0  0  0  0
   58.1570   28.9140   45.8190 C   0  0  0  0  0  0  0  0  0  0  0  0
   56.9120   28.4380   45.3760 C   0  0  0  0  0  0  0  0  0  0  0  0
   56.5020   27.0510   45.6920 C   0  0  0  0  0  0  0  0  0  0  0  0
   57.3000   25.9220   45.7230 C   0  0  0  0  0  0  0  0  0  0  0  0
   56.4260   24.9170   46.0740 C   0  0  0  0  0  0  0  0  0  0  0  0
   56.7580   23.4670   46.1850 C   0  0  0  0  0  0  0  0  0  0  0  0
   55.1870   25.4190   46.2220 N   0  0  0  0  0  0  0  0  0  0  0  0
   55.2720   26.6970   45.9930 O   0  0  0  0  0  0  0  0  0  0  0  0
   56.0800   29.2960   44.6360 C   0  0  0  0  0  0  0  0  0  0  0  0
   56.4920   30.5960   44.3370 C   0  0  0  0  0  0  0  0  0  0  0  0
   57.7320   31.0670   44.7810 C   0  0  0  0  0  0  0  0  0  0  0  0
   58.2410   32.6790   44.2920 Cl  0  0  0  0  0  0  0  0  0  0  0  0
   62.1470   31.8540   48.1700 C   0  0  0  0  0  0  0  0  0  0  0  0
   66.9357   32.8105   51.0326 H   0  0  0  0  0  0  0  0  0  0  0  0
   66.6861   31.8663   49.5250 H   0  0  0  0  0  0  0  0  0  0  0  0
   66.4260   33.6436   49.5250 H   0  0  0  0  0  0  0  0  0  0  0  0
   64.8179   31.9215   51.4232 H   0  0  0  0  0  0  0  0  0  0  0  0
   64.3939   33.4902   50.6341 H   0  0  0  0  0  0  0  0  0  0  0  0
   64.8435   33.9405   47.8975 H   0  0  0  0  0  0  0  0  0  0  0  0
   63.3933   34.9201   46.1231 H   0  0  0  0  0  0  0  0  0  0  0  0
   61.1514   33.9483   45.6529 H   0  0  0  0  0  0  0  0  0  0  0  0
   60.6530   30.0190   45.9180 H   0  0  0  0  0  0  0  0  0  0  0  0
   58.8214   28.2467   46.3876 H   0  0  0  0  0  0  0  0  0  0  0  0
   58.3776   25.8448   45.5163 H   0  0  0  0  0  0  0  0  0  0  0  0
   56.8224   23.1858   47.2465 H   0  0  0  0  0  0  0  0  0  0  0  0
   55.9727   22.8725   45.6952 H   0  0  0  0  0  0  0  0  0  0  0  0
   57.7237   23.2734   45.6952 H   0  0  0  0  0  0  0  0  0  0  0  0
   55.0980   28.9409   44.2903 H   0  0  0  0  0  0  0  0  0  0  0  0
   55.8368   31.2546   43.7480 H   0  0  0  0  0  0  0  0  0  0  0  0
   61.7926   30.9906   48.7522 H   0  0  0  0  0  0  0  0  0  0  0  0
  1  2  1  0
  2  3  1  0
  3  4  1  0
  4  5  2  0
  5  6  1  0
  6  7  2  0
  7  8  1  0
  8  9  1  0
  9 10  2  0
  9 11  1  0
 11 12  1  0
 12 13  2  0
 13 14  1  0
 14 15  1  0
 15 16  2  0
 16 17  1  0
 17 18  1  0
 17 19  2  0
 19 20  1  0
 14 21  2  0
 21 22  1  0
 22 23  2  0
 23 24  1  0
  8 25  2  0
 25  4  1  0
 23 12  1  0
 20 15  1  0
  1 26  1  0
  1 27  1  0
  1 28  1  0
  2 29  1  0
  2 30  1  0
  5 31  1  0
  6 32  1  0
  7 33  1  0
 11 34  1  0
 13 35  1  0
 16 36  1  0
 18 37  1  0
 18 38  1  0
 18 39  1  0
 21 40  1  0
 22 41  1  0
 25 42  1  0
M  END
>  <UniqueID>  (46) 
39

>  <SMILES>  (46) 
CCOc1cccc(C(=O)Nc2cc(-c3cc(C)no3)ccc2Cl)c1

>  <Energy>  (46) 
80.23106228703536

>  <Genealogy>  (46) 
CCOc1cccc(C(=O)Nc2cc(-c3cc(C)no3)ccc2Cl)c1 (3D coordinates assigned)
CCOc1cccc(C(=O)Nc2cc(-c3cc(C)no3)ccc2Cl)c1 (optimized conformer: 80.23106228703536 kcal/mol)

>  <smiles>  (46) 
CCOc1cccc(C(=O)Nc2cc(-c3cc(C)no3)ccc2Cl)c1

>  <score_type>  (46) 
oracle

>  <origin>  (46) 
adg

>  <m_score__min__energy>  (46) 
-8.6400000000000006

>  <m_primary>  (46) 
energy

$$$$
46:0
     RDKit          3D

 23 24  0  0  0  0  0  0  0  0999 V2000
   56.5130   30.8260   44.5040 O   0  0  0  0  0  0  0  0  0  0  0  0
   57.4880   31.2080   45.2030 C   0  0  0  0  0  0  0  0  0  0  0  0
   57.3850   32.3520   45.9300 N   0  0  0  0  0  0  0  0  0  0  0  0
   58.4110   32.7940   46.7030 C   0  0  0  0  0  0  0  0  0  0  0  0
   59.5960   32.0590   46.7550 C   0  0  0  0  0  0  0  0  0  0  0  0
   59.7040   30.9150   46.0310 N   0  0  0  0  0  0  0  0  0  0  0  0
   58.6860   30.4690   45.2450 C   0  0  0  0  0  0  0  0  0  0  0  0
   58.8500   29.1760   44.4950 C   0  0  0  0  0  0  0  0  0  0  0  0
   58.2130   28.0470   45.2570 C   0  0  0  0  0  0  0  0  0  0  0  0
   59.0090   27.1660   46.0090 C   0  0  0  0  0  0  0  0  0  0  0  0
   58.4160   26.1330   46.7420 C   0  0  0  0  0  0  0  0  0  0  0  0
   57.0280   25.9780   46.7380 C   0  0  0  0  0  0  0  0  0  0  0  0
   56.2270   26.8560   46.0020 C   0  0  0  0  0  0  0  0  0  0  0  0
   54.8460   26.7050   46.0020 O   0  0  0  0  0  0  0  0  0  0  0  0
   56.8170   27.8910   45.2660 C   0  0  0  0  0  0  0  0  0  0  0  0
   58.3085   33.7231   47.2828 H   0  0  0  0  0  0  0  0  0  0  0  0
   60.4354   32.4032   47.3770 H   0  0  0  0  0  0  0  0  0  0  0  0
   58.3702   29.2648   43.5092 H   0  0  0  0  0  0  0  0  0  0  0  0
   59.9229   28.9659   44.3740 H   0  0  0  0  0  0  0  0  0  0  0  0
   60.1020   27.2893   46.0211 H   0  0  0  0  0  0  0  0  0  0  0  0
   59.0440   25.4413   47.3227 H   0  0  0  0  0  0  0  0  0  0  0  0
   56.5645   25.1640   47.3147 H   0  0  0  0  0  0  0  0  0  0  0  0
   56.1846   28.5847   44.6925 H   0  0  0  0  0  0  0  0  0  0  0  0
  1  2  2  0
  2  3  1  0
  3  4  1  0
  4  5  2  0
  5  6  1  0
  6  7  2  0
  7  8  1  0
  8  9  1  0
  9 10  2  0
 10 11  1  0
 11 12  2  0
 12 13  1  0
 13 14  1  0
 13 15  2  0
  7  2  1  0
 15  9  1  0
  4 16  1  0
  5 17  1  0
  8 18  1  0
  8 19  1  0
 10 20  1  0
 11 21  1  0
 12 22  1  0
 15 23  1  0
M  CHG  2   3  -1  14  -1
M  END
>  <UniqueID>  (47) 
40

>  <SMILES>  (47) 
O=c1[n-]ccnc1Cc1cccc([O-])c1

>  <Energy>  (47) 
25.18339749591514

>  <Genealogy>  (47) 
O=c1[n-]ccnc1Cc1cccc([O-])c1 (protonated)
O=c1[n-]ccnc1Cc1cccc([O-])c1 (3D coordinates assigned)
O=c1[n-]ccnc1Cc1cccc([O-])c1 (optimized conformer: 25.18339749591514 kcal/mol)

>  <smiles>  (47) 
O=c1[nH]ccnc1Cc1cccc(O)c1

>  <score_type>  (47) 
oracle

>  <origin>  (47) 
adg

>  <m_score__min__energy>  (47) 
-10.59

>  <m_primary>  (47) 
energy

$$$$
47:0
     RDKit          3D

 33 34  0  0  0  0  0  0  0  0999 V2000
   55.1490   26.3430   45.9790 O   0  0  0  0  0  0  0  0  0  0  0  0
   56.3720   26.1080   46.1720 C   0  0  0  0  0  0  0  0  0  0  0  0
   57.1260   27.0150   46.9880 N   0  0  0  0  0  0  0  0  0  0  0  0
   58.0720   28.0180   46.5010 C   0  0  0  0  0  0  0  0  0  0  0  0
   58.8700   27.4740   45.3100 C   0  0  0  0  0  0  0  0  0  0  0  0
   58.8720   28.4470   44.1240 C   0  0  0  0  0  0  0  0  0  0  0  0
   57.9480   29.5570   44.3510 N   0  0  0  0  0  0  0  0  0  0  0  0
   58.2640   30.8200   44.6760 C   0  0  0  0  0  0  0  0  0  0  0  0
   57.0940   31.5400   44.7530 C   0  0  0  0  0  0  0  0  0  0  0  0
   56.0480   30.7360   44.4740 N   0  0  0  0  0  0  0  0  0  0  0  0
   56.6070   29.5320   44.2300 C   0  0  0  0  0  0  0  0  0  0  0  0
   56.9730   24.9040   45.5680 C   0  0  0  0  0  0  0  0  0  0  0  0
   58.2490   24.4860   45.9700 C   0  0  0  0  0  0  0  0  0  0  0  0
   58.8250   23.3440   45.4090 C   0  0  0  0  0  0  0  0  0  0  0  0
   58.1270   22.6030   44.4530 C   0  0  0  0  0  0  0  0  0  0  0  0
   56.8350   22.9920   44.0540 C   0  0  0  0  0  0  0  0  0  0  0  0
   56.1050   22.2230   43.0800 N   0  0  0  0  0  0  0  0  0  0  0  0
   56.2910   20.9930   42.9710 O   0  0  0  0  0  0  0  0  0  0  0  0
   55.1940   22.8320   42.2470 O   0  0  0  0  0  0  0  0  0  0  0  0
   56.2630   24.1420   44.6270 C   0  0  0  0  0  0  0  0  0  0  0  0
   57.5180   28.9145   46.1857 H   0  0  0  0  0  0  0  0  0  0  0  0
   58.7717   28.2687   47.3119 H   0  0  0  0  0  0  0  0  0  0  0  0
   59.9086   27.3007   45.6284 H   0  0  0  0  0  0  0  0  0  0  0  0
   58.3923   26.5395   44.9807 H   0  0  0  0  0  0  0  0  0  0  0  0
   59.8878   28.8471   43.9896 H   0  0  0  0  0  0  0  0  0  0  0  0
   58.5485   27.9020   43.2250 H   0  0  0  0  0  0  0  0  0  0  0  0
   59.2777   31.2102   44.8499 H   0  0  0  0  0  0  0  0  0  0  0  0
   57.0228   32.6086   45.0039 H   0  0  0  0  0  0  0  0  0  0  0  0
   56.0326   28.6327   43.9627 H   0  0  0  0  0  0  0  0  0  0  0  0
   58.7990   25.0597   46.7305 H   0  0  0  0  0  0  0  0  0  0  0  0
   59.8312   23.0274   45.7210 H   0  0  0  0  0  0  0  0  0  0  0  0
   58.5902   21.7095   44.0091 H   0  0  0  0  0  0  0  0  0  0  0  0
   55.2477   24.4478   44.3344 H   0  0  0  0  0  0  0  0  0  0  0  0
  1  2  2  0
  2  3  1  0
  3  4  1  0
  4  5  1  0
  5  6  1  0
  6  7  1  0
  7  8  1  0
  8  9  2  0
  9 10  1  0
 10 11  2  0
  2 12  1  0
 12 13  2  0
 13 14  1  0
 14 15  2  0
 15 16  1  0
 16 17  1  0
 17 18  2  0
 17 19  1  0
 16 20  2  0
 11  7  1  0
 20 12  1  0
  4 21  1  0
  4 22  1  0
  5 23  1  0
  5 24  1  0
  6 25  1  0
  6 26  1  0
  8 27  1  0
  9 28  1  0
 11 29  1  0
 13 30  1  0
 14 31  1  0
 15 32  1  0
 20 33  1  0
M  CHG  3   3  -1  17   1  19  -1
M  END
>  <UniqueID>  (48) 
41

>  <SMILES>  (48) 
O=C([N-]CCCn1ccnc1)c1cccc([N+](=O)[O-])c1

>  <Energy>  (48) 
62.582047236285725

>  <Genealogy>  (48) 
O=C([N-]CCCn1ccnc1)c1cccc([N+](=O)[O-])c1 (protonated)
O=C([N-]CCCn1ccnc1)c1cccc([N+](=O)[O-])c1 (3D coordinates assigned)
O=C([N-]CCCn1ccnc1)c1cccc([N+](=O)[O-])c1 (optimized conformer: 62.582047236285725 kcal/mol)

>  <smiles>  (48) 
O=C(NCCCn1ccnc1)c1cccc([N+](=O)[O-])c1

>  <score_type>  (48) 
oracle

>  <origin>  (48) 
adg

>  <m_score__min__energy>  (48) 
-8.3800000000000008

>  <m_primary>  (48) 
energy

$$$$
48:0
     RDKit          3D

 30 31  0  0  0  0  0  0  0  0999 V2000
   57.8220   32.3400   42.6410 C   0  0  0  0  0  0  0  0  0  0  0  0
   57.5320   32.0710   44.0550 N   0  0  0  0  0  0  0  0  0  0  0  0
   57.0230   33.1710   44.8890 C   0  0  0  0  0  0  0  0  0  0  0  0
   58.0650   33.6710   45.8650 C   0  0  0  0  0  0  0  0  0  0  0  0
   58.1490   33.1610   47.1750 C   0  0  0  0  0  0  0  0  0  0  0  0
   59.1460   33.6130   48.0460 C   0  0  0  0  0  0  0  0  0  0  0  0
   60.0740   34.5640   47.6170 C   0  0  0  0  0  0  0  0  0  0  0  0
   60.0090   35.0630   46.3140 C   0  0  0  0  0  0  0  0  0  0  0  0
   59.0150   34.6150   45.4390 C   0  0  0  0  0  0  0  0  0  0  0  0
   57.7620   30.7510   44.6080 C   0  0  0  0  0  0  0  0  0  0  0  0
   58.9740   30.4460   45.2600 C   0  0  0  0  0  0  0  0  0  0  0  0
   59.2000   29.1700   45.7860 C   0  0  0  0  0  0  0  0  0  0  0  0
   58.2240   28.1800   45.6670 C   0  0  0  0  0  0  0  0  0  0  0  0
   57.0200   28.4640   45.0200 C   0  0  0  0  0  0  0  0  0  0  0  0
   56.7880   29.7370   44.4930 C   0  0  0  0  0  0  0  0  0  0  0  0
   58.6266   33.0864   42.5673 H   0  0  0  0  0  0  0  0  0  0  0  0
   58.1391   31.4091   42.1482 H   0  0  0  0  0  0  0  0  0  0  0  0
   56.9175   32.7260   42.1482 H   0  0  0  0  0  0  0  0  0  0  0  0
   56.7212   34.0023   44.2349 H   0  0  0  0  0  0  0  0  0  0  0  0
   56.1691   32.7908   45.4688 H   0  0  0  0  0  0  0  0  0  0  0  0
   57.4273   32.4037   47.5149 H   0  0  0  0  0  0  0  0  0  0  0  0
   59.1990   33.2183   49.0714 H   0  0  0  0  0  0  0  0  0  0  0  0
   60.8555   34.9199   48.3045 H   0  0  0  0  0  0  0  0  0  0  0  0
   60.7418   35.8103   45.9755 H   0  0  0  0  0  0  0  0  0  0  0  0
   58.9762   35.0038   44.4107 H   0  0  0  0  0  0  0  0  0  0  0  0
   59.7501   31.2196   45.3561 H   0  0  0  0  0  0  0  0  0  0  0  0
   60.1493   28.9464   46.2947 H   0  0  0  0  0  0  0  0  0  0  0  0
   58.4030   27.1773   46.0824 H   0  0  0  0  0  0  0  0  0  0  0  0
   56.2514   27.6829   44.9248 H   0  0  0  0  0  0  0  0  0  0  0  0
   55.8368   29.9506   43.9835 H   0  0  0  0  0  0  0  0  0  0  0  0
  1  2  1  0
  2  3  1  0
  3  4  1  0
  4  5  2  0
  5  6  1  0
  6  7  2  0
  7  8  1  0
  8  9  2  0
  2 10  1  0
 10 11  2  0
 11 12  1  0
 12 13  2  0
 13 14  1  0
 14 15  2  0
  9  4  1  0
 15 10  1  0
  1 16  1  0
  1 17  1  0
  1 18  1  0
  3 19  1  0
  3 20  1  0
  5 21  1  0
  6 22  1  0
  7 23  1  0
  8 24  1  0
  9 25  1  0
 11 26  1  0
 12 27  1  0
 13 28  1  0
 14 29  1  0
 15 30  1  0
M  END
>  <UniqueID>  (49) 
42

>  <SMILES>  (49) 
CN(Cc1ccccc1)c1ccccc1

>  <Energy>  (49) 
33.56524170548882

>  <Genealogy>  (49) 
CN(Cc1ccccc1)c1ccccc1 (3D coordinates assigned)
CN(Cc1ccccc1)c1ccccc1 (optimized conformer: 33.56524170548882 kcal/mol)

>  <smiles>  (49) 
CN(Cc1ccccc1)c1ccccc1

>  <score_type>  (49) 
oracle

>  <origin>  (49) 
adg

>  <m_score__min__energy>  (49) 
-5.71

>  <m_primary>  (49) 
energy

$$$$
49:0
     RDKit          3D

 35 37  0  0  0  0  0  0  0  0999 V2000
   60.3390   30.1760   46.0010 O   0  0  0  0  0  0  0  0  0  0  0  0
   59.0910   29.9160   46.0280 C   0  0  0  0  0  0  0  0  0  0  0  0
   58.2520   30.9850   46.4480 N   0  0  0  0  0  0  0  0  0  0  0  0
   58.7700   32.2620   46.8150 C   0  0  0  0  0  0  0  0  0  0  0  0
   59.4890   32.3280   48.0050 C   0  0  0  0  0  0  0  0  0  0  0  0
   60.0220   33.5420   48.4250 C   0  0  0  0  0  0  0  0  0  0  0  0
   59.7980   34.6320   47.6140 C   0  0  0  0  0  0  0  0  0  0  0  0
   59.0970   34.5970   46.4420 C   0  0  0  0  0  0  0  0  0  0  0  0
   58.5740   33.3940   46.0360 C   0  0  0  0  0  0  0  0  0  0  0  0
   57.8230   33.2990   44.8020 C   0  0  0  0  0  0  0  0  0  0  0  0
   56.9850   34.1920   44.5090 O   0  0  0  0  0  0  0  0  0  0  0  0
   58.0270   32.2020   43.9240 N   0  0  0  0  0  0  0  0  0  0  0  0
   57.1140   31.3150   43.8090 C   0  0  0  0  0  0  0  0  0  0  0  0
   56.1820   31.0190   44.7210 N   0  0  0  0  0  0  0  0  0  0  0  0
   55.4370   30.0420   44.2010 N   0  0  0  0  0  0  0  0  0  0  0  0
   55.9060   29.7520   43.0010 N   0  0  0  0  0  0  0  0  0  0  0  0
   56.9430   30.5220   42.7300 N   0  0  0  0  0  0  0  0  0  0  0  0
   58.5670   28.6050   45.6510 C   0  0  0  0  0  0  0  0  0  0  0  0
   58.6530   28.0950   44.3750 C   0  0  0  0  0  0  0  0  0  0  0  0
   58.1180   26.8380   44.1440 C   0  0  0  0  0  0  0  0  0  0  0  0
   57.5130   26.0950   45.1360 C   0  0  0  0  0  0  0  0  0  0  0  0
   57.4250   26.6040   46.4180 C   0  0  0  0  0  0  0  0  0  0  0  0
   57.9600   27.8530   46.6360 C   0  0  0  0  0  0  0  0  0  0  0  0
   57.2190   30.8570   46.5000 H   0  0  0  0  0  0  0  0  0  0  0  0
   59.6353   31.4222   48.6118 H   0  0  0  0  0  0  0  0  0  0  0  0
   60.5950   33.6273   49.3601 H   0  0  0  0  0  0  0  0  0  0  0  0
   60.2130   35.5997   47.9324 H   0  0  0  0  0  0  0  0  0  0  0  0
   58.9555   35.5070   45.8404 H   0  0  0  0  0  0  0  0  0  0  0  0
   55.5520   29.0310   42.3200 H   0  0  0  0  0  0  0  0  0  0  0  0
   57.5450   30.5560   41.8740 H   0  0  0  0  0  0  0  0  0  0  0  0
   59.1307   28.6667   43.5657 H   0  0  0  0  0  0  0  0  0  0  0  0
   58.1781   26.4162   43.1299 H   0  0  0  0  0  0  0  0  0  0  0  0
   57.1019   25.1006   44.9077 H   0  0  0  0  0  0  0  0  0  0  0  0
   56.9477   26.0350   47.2294 H   0  0  0  0  0  0  0  0  0  0  0  0
   57.9006   28.2747   47.6502 H   0  0  0  0  0  0  0  0  0  0  0  0
  1  2  2  0
  2  3  1  0
  3  4  1  0
  4  5  2  0
  5  6  1  0
  6  7  2  0
  7  8  1  0
  8  9  2  0
  9 10  1  0
 10 11  2  0
 10 12  1  0
 12 13  2  3
 13 14  1  0
 14 15  2  0
 15 16  1  0
 16 17  1  0
  2 18  1  0
 18 19  2  0
 19 20  1  0
 20 21  2  0
 21 22  1  0
 22 23  2  0
  9  4  1  0
 17 13  1  0
 23 18  1  0
  3 24  1  0
  5 25  1  0
  6 26  1  0
  7 27  1  0
  8 28  1  0
 16 29  1  0
 17 30  1  0
 19 31  1  0
 20 32  1  0
 21 33  1  0
 22 34  1  0
 23 35  1  0
M  END
>  <smiles>  (50) 
O=C(Nc1ccccc1C(=O)N=c1nn[nH][nH]1)c1ccccc1

>  <score_type>  (50) 
oracle

>  <origin>  (50) 
adg

>  <m_score__min__energy>  (50) 
-8.5999999999999996

>  <m_primary>  (50) 
energy

$$$$
50:0
     RDKit          3D

 28 30  0  0  1  0  0  0  0  0999 V2000
   60.4640   26.7280   47.3420 Br  0  0  0  0  0  0  0  0  0  0  0  0
   58.9650   27.5210   46.4940 C   0  0  0  0  0  0  0  0  0  0  0  0
   57.8300   26.8130   46.2490 C   0  0  0  0  0  0  0  0  0  0  0  0
   56.7000   27.3010   45.6420 C   0  0  0  0  0  0  0  0  0  0  0  0
   56.7260   28.6210   45.2510 C   0  0  0  0  0  0  0  0  0  0  0  0
   55.6140   29.0910   44.6570 N   0  0  0  0  0  0  0  0  0  0  0  0
   55.5720   30.3690   44.2530 C   0  0  0  0  0  0  0  0  0  0  0  0
   56.6560   31.1180   44.4640 N   0  0  0  0  0  0  0  0  0  0  0  0
   57.7900   30.6850   45.0560 C   0  0  0  0  0  0  0  0  0  0  0  0
   58.7200   31.4670   45.1960 N   0  0  0  0  0  0  0  0  0  0  0  0
   58.8840   32.5990   45.9070 C   0  0  0  0  0  0  0  0  0  0  0  0
   59.1520   33.8230   45.2470 C   0  0  0  0  0  0  0  0  0  0  0  0
   59.4280   34.9480   46.0140 C   0  0  0  0  0  0  0  0  0  0  0  0
   59.4480   34.9130   47.3920 C   0  0  0  0  0  0  0  0  0  0  0  0
   59.1890   33.7270   48.0320 C   0  0  0  0  0  0  0  0  0  0  0  0
   58.9080   32.5700   47.3220 C   0  0  0  0  0  0  0  0  0  0  0  0
   57.8560   29.3860   45.4770 C   0  0  0  0  0  0  0  0  0  0  0  0
   58.9590   28.8680   46.0820 C   0  0  0  0  0  0  0  0  0  0  0  0
   57.8165   25.7592   46.5643 H   0  0  0  0  0  0  0  0  0  0  0  0
   55.8159   26.6680   45.4758 H   0  0  0  0  0  0  0  0  0  0  0  0
   54.7680   28.4940   44.4960 H   0  0  0  0  0  0  0  0  0  0  0  0
   54.6774   30.7843   43.7659 H   0  0  0  0  0  0  0  0  0  0  0  0
   59.1418   33.8818   44.1486 H   0  0  0  0  0  0  0  0  0  0  0  0
   59.6379   35.8998   45.5040 H   0  0  0  0  0  0  0  0  0  0  0  0
   59.6684   35.8225   47.9701 H   0  0  0  0  0  0  0  0  0  0  0  0
   59.2047   33.6937   49.1314 H   0  0  0  0  0  0  0  0  0  0  0  0
   58.7040   31.6309   47.8573 H   0  0  0  0  0  0  0  0  0  0  0  0
   59.8440   29.4996   46.2490 H   0  0  0  0  0  0  0  0  0  0  0  0
  1  2  1  0
  2  3  2  0
  3  4  1  0
  4  5  2  0
  5  6  1  0
  6  7  1  0
  7  8  2  0
  8  9  1  0
  9 10  2  0
 10 11  1  0
 11 12  2  0
 12 13  1  0
 13 14  2  0
 14 15  1  0
 15 16  2  0
  9 17  1  0
 17 18  2  0
 18  2  1  0
 17  5  1  0
 16 11  1  0
  3 19  1  0
  4 20  1  0
  6 21  1  0
  7 22  1  0
 12 23  1  0
 13 24  1  0
 14 25  1  0
 15 26  1  0
 16 27  1  0
 18 28  1  0
M  END
>  <smiles>  (51) 
Brc1ccc2[nH]cnc(=Nc3ccccc3)c2c1

>  <score_type>  (51) 
oracle

>  <origin>  (51) 
adg

>  <m_score__min__energy>  (51) 
-7.71

>  <m_primary>  (51) 
energy

$$$$
51:0
     RDKit          3D

 35 37  0  0  0  0  0  0  0  0999 V2000
   55.5080   29.0520   44.8620 N   0  0  0  0  0  0  0  0  0  0  0  0
   56.2710   29.8550   43.9630 C   0  0  0  0  0  0  0  0  0  0  0  0
   56.1560   29.6670   42.7220 O   0  0  0  0  0  0  0  0  0  0  0  0
   57.1860   30.8990   44.4790 C   0  0  0  0  0  0  0  0  0  0  0  0
   57.8710   30.7240   45.6910 C   0  0  0  0  0  0  0  0  0  0  0  0
   58.7300   31.7180   46.1650 C   0  0  0  0  0  0  0  0  0  0  0  0
   58.9150   32.8870   45.4110 C   0  0  0  0  0  0  0  0  0  0  0  0
   59.7520   33.9240   45.8490 O   0  0  0  0  0  0  0  0  0  0  0  0
   60.7920   33.7930   46.7800 C   0  0  0  0  0  0  0  0  0  0  0  0
   60.5070   33.9770   48.1370 C   0  0  0  0  0  0  0  0  0  0  0  0
   61.5190   33.8680   49.0950 C   0  0  0  0  0  0  0  0  0  0  0  0
   62.8420   33.5860   48.7090 C   0  0  0  0  0  0  0  0  0  0  0  0
   63.9180   33.4700   49.7270 C   0  0  0  0  0  0  0  0  0  0  0  0
   63.8300   34.1570   50.9490 C   0  0  0  0  0  0  0  0  0  0  0  0
   64.8480   34.0380   51.8960 C   0  0  0  0  0  0  0  0  0  0  0  0
   65.9520   33.2310   51.6160 C   0  0  0  0  0  0  0  0  0  0  0  0
   66.0300   32.5690   50.4310 N   0  0  0  0  0  0  0  0  0  0  0  0
   65.0500   32.6700   49.4920 C   0  0  0  0  0  0  0  0  0  0  0  0
   63.1290   33.4240   47.3420 C   0  0  0  0  0  0  0  0  0  0  0  0
   62.1160   33.5320   46.3850 C   0  0  0  0  0  0  0  0  0  0  0  0
   58.2300   33.0470   44.2490 N   0  0  0  0  0  0  0  0  0  0  0  0
   57.3870   32.0950   43.7680 C   0  0  0  0  0  0  0  0  0  0  0  0
   54.5490   29.3400   45.1580 H   0  0  0  0  0  0  0  0  0  0  0  0
   57.7308   29.7996   46.2705 H   0  0  0  0  0  0  0  0  0  0  0  0
   59.2571   31.5857   47.1214 H   0  0  0  0  0  0  0  0  0  0  0  0
   59.4791   34.2091   48.4525 H   0  0  0  0  0  0  0  0  0  0  0  0
   61.2788   34.0039   50.1598 H   0  0  0  0  0  0  0  0  0  0  0  0
   62.9560   34.7907   51.1601 H   0  0  0  0  0  0  0  0  0  0  0  0
   64.7811   34.5749   52.8538 H   0  0  0  0  0  0  0  0  0  0  0  0
   66.7603   33.1305   52.3553 H   0  0  0  0  0  0  0  0  0  0  0  0
   66.8660   31.9730   50.2350 H   0  0  0  0  0  0  0  0  0  0  0  0
   65.1442   32.1220   48.5429 H   0  0  0  0  0  0  0  0  0  0  0  0
   64.1598   33.2104   47.0230 H   0  0  0  0  0  0  0  0  0  0  0  0
   62.3556   33.4123   45.3181 H   0  0  0  0  0  0  0  0  0  0  0  0
   56.8593   32.2615   42.8173 H   0  0  0  0  0  0  0  0  0  0  0  0
  1  2  1  0
  2  3  2  0
  2  4  1  0
  4  5  2  0
  5  6  1  0
  6  7  2  0
  7  8  1  0
  8  9  1  0
  9 10  2  0
 10 11  1  0
 11 12  2  0
 12 13  1  0
 13 14  2  0
 14 15  1  0
 15 16  2  0
 16 17  1  0
 17 18  2  0
 12 19  1  0
 19 20  2  0
  7 21  1  0
 21 22  2  0
 22  4  1  0
 20  9  1  0
 18 13  1  0
  1 23  1  0
  5 24  1  0
  6 25  1  0
 10 26  1  0
 11 27  1  0
 14 28  1  0
 15 29  1  0
 16 30  1  0
 17 31  1  0
 18 32  1  0
 19 33  1  0
 20 34  1  0
 22 35  1  0
M  CHG  2   1  -1  17   1
M  END
>  <UniqueID>  (52) 
43

>  <SMILES>  (52) 
[NH-]C(=O)c1ccc(Oc2ccc(-c3ccc[nH+]c3)cc2)nc1

>  <Energy>  (52) 
50.74307074052216

>  <Genealogy>  (52) 
[NH-]C(=O)c1ccc(Oc2ccc(-c3ccc[nH+]c3)cc2)nc1 (protonated)
[NH-]C(=O)c1ccc(Oc2ccc(-c3ccc[nH+]c3)cc2)nc1 (3D coordinates assigned)
[NH-]C(=O)c1ccc(Oc2ccc(-c3ccc[nH+]c3)cc2)nc1 (optimized conformer: 50.74307074052216 kcal/mol)

>  <smiles>  (52) 
NC(=O)c1ccc(Oc2ccc(-c3cccnc3)cc2)nc1

>  <score_type>  (52) 
oracle

>  <origin>  (52) 
adg

>  <m_score__min__energy>  (52) 
-9.1099999999999994

>  <m_primary>  (52) 
energy

$$$$
52:0
     RDKit          3D

 49 52  0  0  0  0  0  0  0  0999 V2000
   60.1844   28.8768   47.0936 H   0  0  0  0  0  0  0  0  0  0  0  0
   59.3190   28.2710   46.7870 C   0  0  0  0  0  0  0  0  0  0  0  0
   58.2450   28.8670   46.2100 N   0  0  0  0  0  0  0  0  0  0  0  0
   57.1400   28.1790   45.8110 C   0  0  0  0  0  0  0  0  0  0  0  0
   56.1880   28.8710   45.2430 N   0  0  0  0  0  0  0  0  0  0  0  0
   56.1510   29.5220   43.9370 C   0  0  0  0  0  0  0  0  0  0  0  0
   56.6201   28.8685   43.1867 H   0  0  0  0  0  0  0  0  0  0  0  0
   55.1069   29.7143   43.6493 H   0  0  0  0  0  0  0  0  0  0  0  0
   56.9170   30.8480   44.0130 C   0  0  0  0  0  0  0  0  0  0  0  0
   57.6532   30.8759   43.1962 H   0  0  0  0  0  0  0  0  0  0  0  0
   56.1811   31.6611   43.9269 H   0  0  0  0  0  0  0  0  0  0  0  0
   57.6260   31.0250   45.2920 N   0  0  0  0  0  0  0  0  0  0  0  0
   56.9990   30.7950   46.0920 H   0  0  0  0  0  0  0  0  0  0  0  0
   58.3860   30.3040   45.3340 H   0  0  0  0  0  0  0  0  0  0  0  0
   58.2400   32.3350   45.4020 C   0  0  0  0  0  0  0  0  0  0  0  0
   57.5870   33.4260   44.7970 C   0  0  0  0  0  0  0  0  0  0  0  0
   56.6397   33.2591   44.2634 H   0  0  0  0  0  0  0  0  0  0  0  0
   58.1170   34.7120   44.8610 C   0  0  0  0  0  0  0  0  0  0  0  0
   57.5830   35.5490   44.3873 H   0  0  0  0  0  0  0  0  0  0  0  0
   59.3180   34.9420   45.5210 C   0  0  0  0  0  0  0  0  0  0  0  0
   59.7341   35.9595   45.5609 H   0  0  0  0  0  0  0  0  0  0  0  0
   60.0020   33.8850   46.1360 C   0  0  0  0  0  0  0  0  0  0  0  0
   61.2210   34.1370   46.7850 C   0  0  0  0  0  0  0  0  0  0  0  0
   61.6319   35.1573   46.8010 H   0  0  0  0  0  0  0  0  0  0  0  0
   61.9130   33.1010   47.4090 C   0  0  0  0  0  0  0  0  0  0  0  0
   62.8750   33.3022   47.9030 H   0  0  0  0  0  0  0  0  0  0  0  0
   61.3880   31.8110   47.4080 C   0  0  0  0  0  0  0  0  0  0  0  0
   61.9312   30.9995   47.9144 H   0  0  0  0  0  0  0  0  0  0  0  0
   60.1760   31.5410   46.7680 C   0  0  0  0  0  0  0  0  0  0  0  0
   59.7697   30.5189   46.7820 H   0  0  0  0  0  0  0  0  0  0  0  0
   59.4650   32.5670   46.1020 C   0  0  0  0  0  0  0  0  0  0  0  0
   57.1060   26.7650   46.0170 C   0  0  0  0  0  0  0  0  0  0  0  0
   55.9730   25.8890   45.6680 C   0  0  0  0  0  0  0  0  0  0  0  0
   54.8040   26.2800   45.9310 O   0  0  0  0  0  0  0  0  0  0  0  0
   56.1910   24.5410   45.0860 C   0  0  0  0  0  0  0  0  0  0  0  0
   56.4950   24.3820   43.7190 C   0  0  0  0  0  0  0  0  0  0  0  0
   56.5889   25.2681   43.0740 H   0  0  0  0  0  0  0  0  0  0  0  0
   56.6780   23.1070   43.1770 C   0  0  0  0  0  0  0  0  0  0  0  0
   56.9053   22.9931   42.1068 H   0  0  0  0  0  0  0  0  0  0  0  0
   56.5730   21.9770   43.9910 C   0  0  0  0  0  0  0  0  0  0  0  0
   56.7178   20.9742   43.5627 H   0  0  0  0  0  0  0  0  0  0  0  0
   56.2840   22.1220   45.3490 C   0  0  0  0  0  0  0  0  0  0  0  0
   56.2095   21.2326   45.9919 H   0  0  0  0  0  0  0  0  0  0  0  0
   56.0890   23.3940   45.8940 C   0  0  0  0  0  0  0  0  0  0  0  0
   55.8539   23.4992   46.9634 H   0  0  0  0  0  0  0  0  0  0  0  0
   58.2200   26.1470   46.6040 C   0  0  0  0  0  0  0  0  0  0  0  0
   58.2188   25.0581   46.7602 H   0  0  0  0  0  0  0  0  0  0  0  0
   59.3270   26.8970   46.9910 C   0  0  0  0  0  0  0  0  0  0  0  0
   60.1973   26.4077   47.4526 H   0  0  0  0  0  0  0  0  0  0  0  0
  1  2  1  0
  2  3  1  0
  3  4  1  0
  4  5  2  0
  5  6  1  0
  6  7  1  0
  6  8  1  0
  6  9  1  0
  9 10  1  0
  9 11  1  0
  9 12  1  0
 12 13  1  0
 12 14  1  0
 12 15  1  0
 15 16  2  0
 16 17  1  0
 16 18  1  0
 18 19  1  0
 18 20  2  0
 20 21  1  0
 20 22  1  0
 22 23  2  0
 23 24  1  0
 23 25  1  0
 25 26  1  0
 25 27  2  0
 27 28  1  0
 27 29  1  0
 29 30  1  0
 29 31  2  0
  4 32  1  0
 32 33  1  0
 33 34  2  0
 33 35  1  0
 35 36  2  0
 36 37  1  0
 36 38  1  0
 38 39  1  0
 38 40  2  0
 40 41  1  0
 40 42  1  0
 42 43  1  0
 42 44  2  0
 44 45  1  0
 32 46  2  0
 46 47  1  0
 46 48  1  0
 48 49  1  0
 48  2  2  0
 31 15  1  0
 44 35  1  0
 31 22  1  0
M  CHG  2   3  -1  12   1
M  END
>  <UniqueID>  (53) 
44

>  <SMILES>  (53) 
O=C(c1ccccc1)c1ccc[n-]/c1=N/CC[NH2+]c1cccc2ccccc12

>  <Energy>  (53) 
72.16150345145466

>  <Genealogy>  (53) 
O=C(c1ccccc1)c1ccc[n-]c1=NCC[NH2+]c1cccc2ccccc12 (protonated)
O=C(c1ccccc1)c1ccc[n-]/c1=N/CC[NH2+]c1cccc2ccccc12 (cis-trans isomerization)
O=C(c1ccccc1)c1ccc[n-]/c1=N/CC[NH2+]c1cccc2ccccc12 (3D coordinates assigned)
O=C(c1ccccc1)c1ccc[n-]/c1=N/CC[NH2+]c1cccc2ccccc12 (optimized conformer: 72.16150345145466 kcal/mol)

>  <smiles>  (53) 
O=C(c1ccccc1)c1ccc[nH]c1=NCCNc1cccc2ccccc12

>  <score_type>  (53) 
oracle

>  <origin>  (53) 
adg

>  <m_score__min__energy>  (53) 
-9.3399999999999999

>  <m_primary>  (53) 
energy

$$$$
53:0
     RDKit          3D

 40 43  0  0  0  0  0  0  0  0999 V2000
   57.3920   30.3240   43.4450 N   0  0  0  0  0  0  0  0  0  0  0  0
   57.6430   31.1980   44.3580 C   0  0  0  0  0  0  0  0  0  0  0  0
   57.2070   32.4700   44.2910 N   0  0  0  0  0  0  0  0  0  0  0  0
   57.4730   33.3840   45.2510 C   0  0  0  0  0  0  0  0  0  0  0  0
   57.0000   34.5660   45.0650 N   0  0  0  0  0  0  0  0  0  0  0  0
   58.1990   33.0190   46.3180 N   0  0  0  0  0  0  0  0  0  0  0  0
   58.5060   33.9400   47.3600 C   0  0  0  0  0  0  0  0  0  0  0  0
   59.6540   34.8630   46.9320 C   0  0  0  0  0  0  0  0  0  0  0  0
   60.9250   34.1880   47.3040 C   0  0  0  0  0  0  0  0  0  0  0  0
   61.8940   33.8430   46.3870 C   0  0  0  0  0  0  0  0  0  0  0  0
   63.0530   33.2120   46.8340 C   0  0  0  0  0  0  0  0  0  0  0  0
   63.2420   32.9280   48.1870 C   0  0  0  0  0  0  0  0  0  0  0  0
   62.2720   33.2730   49.1040 C   0  0  0  0  0  0  0  0  0  0  0  0
   61.1390   33.8940   48.6390 C   0  0  0  0  0  0  0  0  0  0  0  0
   58.6640   31.7450   46.4320 C   0  0  0  0  0  0  0  0  0  0  0  0
   59.4010   31.0950   47.3620 N   0  0  0  0  0  0  0  0  0  0  0  0
   59.5870   29.8110   46.9900 C   0  0  0  0  0  0  0  0  0  0  0  0
   60.2390   28.7180   47.5300 C   0  0  0  0  0  0  0  0  0  0  0  0
   60.2570   27.4920   46.8930 C   0  0  0  0  0  0  0  0  0  0  0  0
   59.6230   27.3050   45.6890 C   0  0  0  0  0  0  0  0  0  0  0  0
   58.9630   28.3850   45.1280 C   0  0  0  0  0  0  0  0  0  0  0  0
   58.9510   29.6100   45.7720 C   0  0  0  0  0  0  0  0  0  0  0  0
   58.3910   30.8230   45.4570 C   0  0  0  0  0  0  0  0  0  0  0  0
   58.2250   29.8940   42.9780 H   0  0  0  0  0  0  0  0  0  0  0  0
   56.6470   32.7300   43.4580 H   0  0  0  0  0  0  0  0  0  0  0  0
   56.2220   34.9590   45.6320 H   0  0  0  0  0  0  0  0  0  0  0  0
   57.6158   34.5468   47.5822 H   0  0  0  0  0  0  0  0  0  0  0  0
   58.8121   33.3790   48.2554 H   0  0  0  0  0  0  0  0  0  0  0  0
   59.6193   35.0279   45.8450 H   0  0  0  0  0  0  0  0  0  0  0  0
   59.5728   35.8416   47.4277 H   0  0  0  0  0  0  0  0  0  0  0  0
   61.7546   34.0625   45.3182 H   0  0  0  0  0  0  0  0  0  0  0  0
   63.8315   32.9332   46.1086 H   0  0  0  0  0  0  0  0  0  0  0  0
   64.1637   32.4295   48.5216 H   0  0  0  0  0  0  0  0  0  0  0  0
   62.4017   33.0575   50.1749 H   0  0  0  0  0  0  0  0  0  0  0  0
   60.3612   34.1721   49.3654 H   0  0  0  0  0  0  0  0  0  0  0  0
   59.7830   31.5100   48.2530 H   0  0  0  0  0  0  0  0  0  0  0  0
   60.7579   28.8274   48.4937 H   0  0  0  0  0  0  0  0  0  0  0  0
   60.7892   26.6497   47.3590 H   0  0  0  0  0  0  0  0  0  0  0  0
   59.6392   26.3270   45.1858 H   0  0  0  0  0  0  0  0  0  0  0  0
   58.4450   28.2688   44.1646 H   0  0  0  0  0  0  0  0  0  0  0  0
  1  2  2  3
  2  3  1  0
  3  4  1  0
  4  5  2  3
  4  6  1  0
  6  7  1  0
  7  8  1  0
  8  9  1  0
  9 10  2  0
 10 11  1  0
 11 12  2  0
 12 13  1  0
 13 14  2  0
  6 15  1  0
 15 16  1  0
 16 17  1  0
 17 18  2  0
 18 19  1  0
 19 20  2  0
 20 21  1  0
 21 22  2  0
 22 23  1  0
 23  2  1  0
 14  9  1  0
 23 15  2  0
 22 17  1  0
  1 24  1  0
  3 25  1  0
  5 26  1  0
  7 27  1  0
  7 28  1  0
  8 29  1  0
  8 30  1  0
 10 31  1  0
 11 32  1  0
 12 33  1  0
 13 34  1  0
 14 35  1  0
 16 36  1  0
 18 37  1  0
 19 38  1  0
 20 39  1  0
 21 40  1  0
M  END
>  <smiles>  (54) 
N=c1[nH]c(=N)n(CCc2ccccc2)c2[nH]c3ccccc3c12

>  <score_type>  (54) 
oracle

>  <origin>  (54) 
adg

>  <m_score__min__energy>  (54) 
-7.6299999999999999

>  <m_primary>  (54) 
energy

$$$$
54:0
     RDKit          3D

 37 39  0  0  0  0  0  0  0  0999 V2000
   61.3390   30.8440   47.1390 C   0  0  0  0  0  0  0  0  0  0  0  0
   60.0590   31.1370   46.5040 N   0  0  0  0  0  0  0  0  0  0  0  0
   59.1600   30.2280   46.0600 C   0  0  0  0  0  0  0  0  0  0  0  0
   58.0750   30.8710   45.4710 C   0  0  0  0  0  0  0  0  0  0  0  0
   56.9100   30.2020   44.8630 C   0  0  0  0  0  0  0  0  0  0  0  0
   55.9280   30.9030   44.4970 O   0  0  0  0  0  0  0  0  0  0  0  0
   56.8800   28.7500   44.6240 C   0  0  0  0  0  0  0  0  0  0  0  0
   57.6680   28.2270   43.7900 O   0  0  0  0  0  0  0  0  0  0  0  0
   55.9230   27.9400   45.3160 N   0  0  0  0  0  0  0  0  0  0  0  0
   56.2630   26.7000   46.0040 C   0  0  0  0  0  0  0  0  0  0  0  0
   57.7100   26.7100   46.4150 C   0  0  0  0  0  0  0  0  0  0  0  0
   58.1430   27.4990   47.4940 C   0  0  0  0  0  0  0  0  0  0  0  0
   59.4930   27.5180   47.8560 C   0  0  0  0  0  0  0  0  0  0  0  0
   60.4200   26.7550   47.1410 C   0  0  0  0  0  0  0  0  0  0  0  0
   59.9990   25.9710   46.0640 C   0  0  0  0  0  0  0  0  0  0  0  0
   58.6490   25.9490   45.6990 C   0  0  0  0  0  0  0  0  0  0  0  0
   58.3600   32.2280   45.5360 C   0  0  0  0  0  0  0  0  0  0  0  0
   57.6890   33.3410   45.0240 C   0  0  0  0  0  0  0  0  0  0  0  0
   58.2680   34.6080   45.2180 C   0  0  0  0  0  0  0  0  0  0  0  0
   59.5000   34.7350   45.8930 C   0  0  0  0  0  0  0  0  0  0  0  0
   60.1710   33.5970   46.3730 C   0  0  0  0  0  0  0  0  0  0  0  0
   59.5710   32.3510   46.1740 C   0  0  0  0  0  0  0  0  0  0  0  0
   61.2207   30.8711   48.2323 H   0  0  0  0  0  0  0  0  0  0  0  0
   61.6804   29.8445   46.8318 H   0  0  0  0  0  0  0  0  0  0  0  0
   62.0812   31.5955   46.8318 H   0  0  0  0  0  0  0  0  0  0  0  0
   59.2708   29.1374   46.1515 H   0  0  0  0  0  0  0  0  0  0  0  0
   55.6323   26.5972   46.8994 H   0  0  0  0  0  0  0  0  0  0  0  0
   56.0908   25.8541   45.3222 H   0  0  0  0  0  0  0  0  0  0  0  0
   57.4166   28.1042   48.0562 H   0  0  0  0  0  0  0  0  0  0  0  0
   59.8259   28.1340   48.7043 H   0  0  0  0  0  0  0  0  0  0  0  0
   61.4822   26.7717   47.4264 H   0  0  0  0  0  0  0  0  0  0  0  0
   60.7299   25.3705   45.5026 H   0  0  0  0  0  0  0  0  0  0  0  0
   58.3213   25.3336   44.8482 H   0  0  0  0  0  0  0  0  0  0  0  0
   56.7364   33.2299   44.4853 H   0  0  0  0  0  0  0  0  0  0  0  0
   57.7566   35.5059   44.8408 H   0  0  0  0  0  0  0  0  0  0  0  0
   59.9390   35.7321   46.0449 H   0  0  0  0  0  0  0  0  0  0  0  0
   61.1384   33.6847   46.8892 H   0  0  0  0  0  0  0  0  0  0  0  0
  1  2  1  0
  2  3  1  0
  3  4  2  0
  4  5  1  0
  5  6  2  0
  5  7  1  0
  7  8  2  0
  7  9  1  0
  9 10  1  0
 10 11  1  0
 11 12  2  0
 12 13  1  0
 13 14  2  0
 14 15  1  0
 15 16  2  0
  4 17  1  0
 17 18  2  0
 18 19  1  0
 19 20  2  0
 20 21  1  0
 21 22  2  0
 22  2  1  0
 16 11  1  0
 22 17  1  0
  1 23  1  0
  1 24  1  0
  1 25  1  0
  3 26  1  0
 10 27  1  0
 10 28  1  0
 12 29  1  0
 13 30  1  0
 14 31  1  0
 15 32  1  0
 16 33  1  0
 18 34  1  0
 19 35  1  0
 20 36  1  0
 21 37  1  0
M  CHG  1   9  -1
M  END
>  <UniqueID>  (55) 
45

>  <SMILES>  (55) 
Cn1cc(C(=O)C(=O)[N-]Cc2ccccc2)c2ccccc21

>  <Energy>  (55) 
73.78601659469146

>  <Genealogy>  (55) 
Cn1cc(C(=O)C(=O)[N-]Cc2ccccc2)c2ccccc21 (protonated)
Cn1cc(C(=O)C(=O)[N-]Cc2ccccc2)c2ccccc21 (3D coordinates assigned)
Cn1cc(C(=O)C(=O)[N-]Cc2ccccc2)c2ccccc21 (optimized conformer: 73.78601659469146 kcal/mol)

>  <smiles>  (55) 
Cn1cc(C(=O)C(=O)NCc2ccccc2)c2ccccc21

>  <score_type>  (55) 
oracle

>  <origin>  (55) 
adg

>  <m_score__min__energy>  (55) 
-9.1999999999999993

>  <m_primary>  (55) 
energy

$$$$
55:0
     RDKit          3D

 29 31  0  0  0  0  0  0  0  0999 V2000
   58.8220   34.1940   44.8880 C   0  0  0  0  0  0  0  0  0  0  0  0
   57.7330   33.1860   45.8910 S   0  0  0  0  0  0  0  0  0  0  0  0
   57.6020   31.5170   45.2580 C   0  0  0  0  0  0  0  0  0  0  0  0
   56.4980   31.2140   44.5180 N   0  0  0  0  0  0  0  0  0  0  0  0
   56.3280   29.9760   44.0070 C   0  0  0  0  0  0  0  0  0  0  0  0
   55.2850   29.7140   43.3160 N   0  0  0  0  0  0  0  0  0  0  0  0
   57.2980   29.0200   44.2520 C   0  0  0  0  0  0  0  0  0  0  0  0
   57.4090   27.7490   43.8940 N   0  0  0  0  0  0  0  0  0  0  0  0
   58.5590   27.2630   44.3980 C   0  0  0  0  0  0  0  0  0  0  0  0
   59.1550   28.2700   45.0790 N   0  0  0  0  0  0  0  0  0  0  0  0
   60.4130   28.1830   45.7790 C   0  0  0  0  0  0  0  0  0  0  0  0
   60.3400   28.7580   47.2000 C   0  0  0  0  0  0  0  0  0  0  0  0
   60.3260   27.3340   47.7380 C   0  0  0  0  0  0  0  0  0  0  0  0
   60.7680   26.8610   46.3670 C   0  0  0  0  0  0  0  0  0  0  0  0
   58.4050   29.3790   45.0130 C   0  0  0  0  0  0  0  0  0  0  0  0
   58.5620   30.6170   45.5170 N   0  0  0  0  0  0  0  0  0  0  0  0
   59.4711   34.7949   45.5419 H   0  0  0  0  0  0  0  0  0  0  0  0
   59.4419   33.5440   44.2531 H   0  0  0  0  0  0  0  0  0  0  0  0
   58.2217   34.8622   44.2531 H   0  0  0  0  0  0  0  0  0  0  0  0
   55.2900   28.9640   42.6000 H   0  0  0  0  0  0  0  0  0  0  0  0
   58.9427   26.2390   44.2787 H   0  0  0  0  0  0  0  0  0  0  0  0
   61.0542   28.6086   44.9931 H   0  0  0  0  0  0  0  0  0  0  0  0
   61.2200   29.3472   47.4973 H   0  0  0  0  0  0  0  0  0  0  0  0
   59.5589   29.4795   47.4816 H   0  0  0  0  0  0  0  0  0  0  0  0
   61.0521   27.1433   48.5420 H   0  0  0  0  0  0  0  0  0  0  0  0
   59.4338   26.9160   48.2272 H   0  0  0  0  0  0  0  0  0  0  0  0
   61.8385   26.6164   46.3025 H   0  0  0  0  0  0  0  0  0  0  0  0
   60.3489   25.9376   45.9408 H   0  0  0  0  0  0  0  0  0  0  0  0
   59.3680   30.9010   46.0780 H   0  0  0  0  0  0  0  0  0  0  0  0
  1  2  1  0
  2  3  1  0
  3  4  2  0
  4  5  1  0
  5  6  2  3
  5  7  1  0
  7  8  1  0
  8  9  2  0
  9 10  1  0
 10 11  1  0
 11 12  1  0
 12 13  1  0
 13 14  1  0
 10 15  1  0
 15 16  1  0
 16  3  1  0
 15  7  2  0
 14 11  1  0
  1 17  1  0
  1 18  1  0
  1 19  1  0
  6 20  1  0
  9 21  1  0
 11 22  1  0
 12 23  1  0
 12 24  1  0
 13 25  1  0
 13 26  1  0
 14 27  1  0
 14 28  1  0
 16 29  1  0
M  END
>  <smiles>  (56) 
CSc1nc(=N)c2ncn(C3CCC3)c2[nH]1

>  <score_type>  (56) 
oracle

>  <origin>  (56) 
adg

>  <m_score__min__energy>  (56) 
-5.7999999999999998

>  <m_primary>  (56) 
energy

$$$$
56:0
     RDKit          3D

 50 52  0  0  0  0  0  0  0  0999 V2000
   56.1640   19.2170   45.4860 C   0  0  0  0  0  0  0  0  0  0  0  0
   55.3160   20.3560   45.5900 O   0  0  0  0  0  0  0  0  0  0  0  0
   55.7730   21.6750   45.7450 C   0  0  0  0  0  0  0  0  0  0  0  0
   55.9040   22.2760   47.0110 C   0  0  0  0  0  0  0  0  0  0  0  0
   56.3610   23.5890   47.1270 C   0  0  0  0  0  0  0  0  0  0  0  0
   56.7000   24.3290   45.9850 C   0  0  0  0  0  0  0  0  0  0  0  0
   57.1840   25.7270   46.1150 C   0  0  0  0  0  0  0  0  0  0  0  0
   58.1160   26.0630   47.1100 C   0  0  0  0  0  0  0  0  0  0  0  0
   58.5640   27.3800   47.2330 C   0  0  0  0  0  0  0  0  0  0  0  0
   59.4000   27.6660   48.1330 O   0  0  0  0  0  0  0  0  0  0  0  0
   58.0790   28.3660   46.3570 C   0  0  0  0  0  0  0  0  0  0  0  0
   58.5040   29.7050   46.4400 C   0  0  0  0  0  0  0  0  0  0  0  0
   58.0030   30.6620   45.5490 C   0  0  0  0  0  0  0  0  0  0  0  0
   58.4450   32.0270   45.6340 C   0  0  0  0  0  0  0  0  0  0  0  0
   58.8190   33.1720   45.7010 C   0  0  0  0  0  0  0  0  0  0  0  0
   59.2670   34.5700   45.7870 C   0  0  0  0  0  0  0  0  0  0  0  0
   60.2800   34.8010   46.9280 C   0  0  0  0  0  0  0  0  0  0  0  0
   61.5340   33.9300   46.7650 C   0  0  0  0  0  0  0  0  0  0  0  0
   59.6440   34.5930   48.3100 C   0  0  0  0  0  0  0  0  0  0  0  0
   57.0770   30.2880   44.5690 C   0  0  0  0  0  0  0  0  0  0  0  0
   56.6460   28.9630   44.4770 C   0  0  0  0  0  0  0  0  0  0  0  0
   57.1400   27.9930   45.3650 C   0  0  0  0  0  0  0  0  0  0  0  0
   56.7210   26.6970   45.2720 N   0  0  0  0  0  0  0  0  0  0  0  0
   56.5700   23.7300   44.7200 C   0  0  0  0  0  0  0  0  0  0  0  0
   56.1070   22.4050   44.5950 C   0  0  0  0  0  0  0  0  0  0  0  0
   55.9660   21.7790   43.3460 O   0  0  0  0  0  0  0  0  0  0  0  0
   57.0180   21.1190   42.6490 C   0  0  0  0  0  0  0  0  0  0  0  0
   56.4276   18.8629   46.4935 H   0  0  0  0  0  0  0  0  0  0  0  0
   55.6394   18.4177   44.9421 H   0  0  0  0  0  0  0  0  0  0  0  0
   57.0802   19.4904   44.9421 H   0  0  0  0  0  0  0  0  0  0  0  0
   55.6442   21.7063   47.9154 H   0  0  0  0  0  0  0  0  0  0  0  0
   56.4562   24.0476   48.1223 H   0  0  0  0  0  0  0  0  0  0  0  0
   58.4937   25.2881   47.7933 H   0  0  0  0  0  0  0  0  0  0  0  0
   59.2332   30.0012   47.2084 H   0  0  0  0  0  0  0  0  0  0  0  0
   59.7411   34.8470   44.8339 H   0  0  0  0  0  0  0  0  0  0  0  0
   58.3830   35.1902   45.9966 H   0  0  0  0  0  0  0  0  0  0  0  0
   60.5935   35.8532   46.8607 H   0  0  0  0  0  0  0  0  0  0  0  0
   61.9239   33.6592   47.7573 H   0  0  0  0  0  0  0  0  0  0  0  0
   61.2759   33.0157   46.2105 H   0  0  0  0  0  0  0  0  0  0  0  0
   62.3006   34.4911   46.2105 H   0  0  0  0  0  0  0  0  0  0  0  0
   60.3793   34.8335   49.0920 H   0  0  0  0  0  0  0  0  0  0  0  0
   58.7693   35.2519   48.4140 H   0  0  0  0  0  0  0  0  0  0  0  0
   59.3277   33.5446   48.4140 H   0  0  0  0  0  0  0  0  0  0  0  0
   56.6870   31.0408   43.8682 H   0  0  0  0  0  0  0  0  0  0  0  0
   55.9160   28.6773   43.7053 H   0  0  0  0  0  0  0  0  0  0  0  0
   56.0430   26.4380   44.5190 H   0  0  0  0  0  0  0  0  0  0  0  0
   56.8326   24.3019   43.8178 H   0  0  0  0  0  0  0  0  0  0  0  0
   57.7188   20.6793   43.3739 H   0  0  0  0  0  0  0  0  0  0  0  0
   56.5966   20.3231   42.0173 H   0  0  0  0  0  0  0  0  0  0  0  0
   57.5512   21.8448   42.0173 H   0  0  0  0  0  0  0  0  0  0  0  0
  1  2  1  0
  2  3  1  0
  3  4  2  0
  4  5  1  0
  5  6  2  0
  6  7  1  0
  7  8  2  0
  8  9  1  0
  9 10  2  0
  9 11  1  0
 11 12  2  0
 12 13  1  0
 13 14  1  0
 14 15  3  0
 15 16  1  0
 16 17  1  0
 17 18  1  0
 17 19  1  0
 13 20  2  0
 20 21  1  0
 21 22  2  0
 22 23  1  0
  6 24  1  0
 24 25  2  0
 25 26  1  0
 26 27  1  0
 25  3  1  0
 23  7  1  0
 22 11  1  0
  1 28  1  0
  1 29  1  0
  1 30  1  0
  4 31  1  0
  5 32  1  0
  8 33  1  0
 12 34  1  0
 16 35  1  0
 16 36  1  0
 17 37  1  0
 18 38  1  0
 18 39  1  0
 18 40  1  0
 19 41  1  0
 19 42  1  0
 19 43  1  0
 20 44  1  0
 21 45  1  0
 23 46  1  0
 24 47  1  0
 27 48  1  0
 27 49  1  0
 27 50  1  0
M  END
>  <UniqueID>  (57) 
46

>  <SMILES>  (57) 
COc1ccc(-c2cc(=O)c3cc(C#CCC(C)C)ccc3[nH]2)cc1OC

>  <Energy>  (57) 
51.04723072362721

>  <Genealogy>  (57) 
COc1ccc(-c2cc(=O)c3cc(C#CCC(C)C)ccc3[nH]2)cc1OC (3D coordinates assigned)
COc1ccc(-c2cc(=O)c3cc(C#CCC(C)C)ccc3[nH]2)cc1OC (optimized conformer: 51.04723072362721 kcal/mol)

>  <smiles>  (57) 
COc1ccc(-c2cc(=O)c3cc(C#CCC(C)C)ccc3[nH]2)cc1OC

>  <score_type>  (57) 
oracle

>  <origin>  (57) 
adg

>  <m_score__min__energy>  (57) 
-7.2999999999999998

>  <m_primary>  (57) 
energy

$$$$
57:0
     RDKit          3D

 37 39  0  0  0  0  0  0  0  0999 V2000
   56.6280   19.3910   43.5430 H   0  0  0  0  0  0  0  0  0  0  0  0
   56.1140   20.1270   43.1230 O   0  0  0  0  0  0  0  0  0  0  0  0
   57.0510   21.0480   42.6310 C   0  0  0  0  0  0  0  0  0  0  0  0
   56.6388   21.5407   41.7381 H   0  0  0  0  0  0  0  0  0  0  0  0
   57.9762   20.5102   42.3766 H   0  0  0  0  0  0  0  0  0  0  0  0
   57.3730   22.1120   43.6910 C   0  0  1  0  0  0  0  0  0  0  0  0
   58.1540   22.7407   43.2384 H   0  0  0  0  0  0  0  0  0  0  0  0
   56.2180   22.8590   43.9980 O   0  0  0  0  0  0  0  0  0  0  0  0
   56.2940   23.2210   45.3630 C   0  0  2  0  0  0  0  0  0  0  0  0
   55.4270   22.8132   45.9034 H   0  0  0  0  0  0  0  0  0  0  0  0
   56.2560   24.7130   45.5050 C   0  0  0  0  0  0  0  0  0  0  0  0
   55.2490   25.3780   46.1150 N   0  0  0  0  0  0  0  0  0  0  0  0
   55.4490   26.6930   46.1860 N   0  0  0  0  0  0  0  0  0  0  0  0
   56.6230   27.0850   45.6460 C   0  0  0  0  0  0  0  0  0  0  0  0
   56.9930   28.3330   45.6330 N   0  0  0  0  0  0  0  0  0  0  0  0
   56.9000   29.2630   44.5440 C   0  0  0  0  0  0  0  0  0  0  0  0
   57.0560   28.8840   43.3500 O   0  0  0  0  0  0  0  0  0  0  0  0
   56.5670   30.5920   44.8290 O   0  0  0  0  0  0  0  0  0  0  0  0
   57.4720   31.5920   45.2170 C   0  0  0  0  0  0  0  0  0  0  0  0
   57.4320   32.8240   44.5510 C   0  0  0  0  0  0  0  0  0  0  0  0
   56.7052   32.9830   43.7408 H   0  0  0  0  0  0  0  0  0  0  0  0
   58.3080   33.8520   44.9080 C   0  0  0  0  0  0  0  0  0  0  0  0
   58.2751   34.8126   44.3731 H   0  0  0  0  0  0  0  0  0  0  0  0
   59.2260   33.6610   45.9440 C   0  0  0  0  0  0  0  0  0  0  0  0
   59.9196   34.4689   46.2202 H   0  0  0  0  0  0  0  0  0  0  0  0
   59.2630   32.4440   46.6290 C   0  0  0  0  0  0  0  0  0  0  0  0
   60.1400   32.2660   47.6470 F   0  0  0  0  0  0  0  0  0  0  0  0
   58.3870   31.4120   46.2730 C   0  0  0  0  0  0  0  0  0  0  0  0
   58.4131   30.4576   46.8193 H   0  0  0  0  0  0  0  0  0  0  0  0
   57.4900   25.7660   45.0410 S   0  0  0  0  0  0  0  0  0  0  0  0
   57.5630   22.6310   45.9780 C   0  0  1  0  0  0  0  0  0  0  0  0
   58.3610   23.3734   46.1265 H   0  0  0  0  0  0  0  0  0  0  0  0
   57.3260   22.1220   47.2450 F   0  0  0  0  0  0  0  0  0  0  0  0
   57.9430   21.5520   44.9960 C   0  0  1  0  0  0  0  0  0  0  0  0
   59.0215   21.3417   44.9454 H   0  0  0  0  0  0  0  0  0  0  0  0
   57.3790   20.3080   45.3480 O   0  0  0  0  0  0  0  0  0  0  0  0
   57.6000   19.6510   44.6360 H   0  0  0  0  0  0  0  0  0  0  0  0
  1  2  1  0
  2  3  1  0
  3  4  1  0
  3  5  1  0
  3  6  1  0
  6  7  1  6
  6  8  1  0
  8  9  1  0
  9 10  1  1
  9 11  1  0
 11 12  2  0
 12 13  1  0
 13 14  1  0
 14 15  2  0
 15 16  1  0
 16 17  2  0
 16 18  1  0
 18 19  1  0
 19 20  2  0
 20 21  1  0
 20 22  1  0
 22 23  1  0
 22 24  2  0
 24 25  1  0
 24 26  1  0
 26 27  1  0
 26 28  2  0
 28 29  1  0
 14 30  1  0
  9 31  1  0
 31 32  1  1
 31 33  1  0
 31 34  1  0
 34 35  1  6
 34 36  1  0
 36 37  1  0
 34  6  1  0
 30 11  1  0
 28 19  1  0
M  CHG  1  13  -1
M  END
>  <UniqueID>  (58) 
47

>  <SMILES>  (58) 
O=C(/N=c1/[n-]nc([C@H]2O[C@H](CO)C(O)C2F)s1)Oc1cccc(F)c1

>  <Energy>  (58) 
82.78974027879995

>  <Genealogy>  (58) 
O=C(N=c1[n-]nc(C2OC(CO)C(O)C2F)s1)Oc1cccc(F)c1 (protonated)
O=C(N=c1[n-]nc([C@H]2O[C@H](CO)C(O)C2F)s1)Oc1cccc(F)c1 (chirality)
O=C(/N=c1/[n-]nc([C@H]2O[C@H](CO)C(O)C2F)s1)Oc1cccc(F)c1 (cis-trans isomerization)
O=C(/N=c1/[n-]nc([C@H]2O[C@H](CO)C(O)C2F)s1)Oc1cccc(F)c1 (3D coordinates assigned)
O=C(/N=c1/[n-]nc([C@H]2O[C@H](CO)C(O)C2F)s1)Oc1cccc(F)c1 (nonaromatic ring conformer: 82.78974027879995 kcal/mol)

>  <smiles>  (58) 
O=C(N=c1[nH]nc(C2OC(CO)C(O)C2F)s1)Oc1cccc(F)c1

>  <score_type>  (58) 
oracle

>  <origin>  (58) 
adg

>  <m_score__min__energy>  (58) 
-10.300000000000001

>  <m_primary>  (58) 
energy

$$$$
58:0
     RDKit          3D

 53 57  0  0  0  0  0  0  0  0999 V2000
   57.0870   20.1100   45.7970 C   0  0  0  0  0  0  0  0  0  0  0  0
   56.3910   21.4370   45.7540 C   0  0  0  0  0  0  0  0  0  0  0  0
   56.1810   22.1670   46.9340 C   0  0  0  0  0  0  0  0  0  0  0  0
   55.5390   23.4100   46.8900 C   0  0  0  0  0  0  0  0  0  0  0  0
   55.1190   23.9470   45.6630 C   0  0  0  0  0  0  0  0  0  0  0  0
   54.4210   25.2810   45.6220 C   0  0  0  0  0  0  0  0  0  0  0  0
   55.3570   26.3610   45.9190 N   0  0  0  0  0  0  0  0  0  0  0  0
   56.7210   26.3780   45.4830 C   0  0  0  0  0  0  0  0  0  0  0  0
   57.0890   25.6170   44.5470 O   0  0  0  0  0  0  0  0  0  0  0  0
   57.6980   27.2830   46.1340 C   0  0  0  0  0  0  0  0  0  0  0  0
   58.5790   26.7940   47.1170 C   0  0  0  0  0  0  0  0  0  0  0  0
   59.5060   27.6440   47.7280 C   0  0  0  0  0  0  0  0  0  0  0  0
   59.5660   28.9960   47.3670 C   0  0  0  0  0  0  0  0  0  0  0  0
   60.4680   29.8380   47.9430 N   0  0  0  0  0  0  0  0  0  0  0  0
   60.5470   31.1520   47.5840 C   0  0  0  0  0  0  0  0  0  0  0  0
   61.6310   31.9780   48.1640 C   0  0  0  0  0  0  0  0  0  0  0  0
   61.4980   32.5300   49.4490 C   0  0  0  0  0  0  0  0  0  0  0  0
   62.5140   33.3300   49.9810 C   0  0  0  0  0  0  0  0  0  0  0  0
   63.6670   33.5850   49.2320 C   0  0  0  0  0  0  0  0  0  0  0  0
   63.7980   33.0520   47.9460 C   0  0  0  0  0  0  0  0  0  0  0  0
   62.7820   32.2570   47.4100 C   0  0  0  0  0  0  0  0  0  0  0  0
   59.6370   31.6590   46.6190 C   0  0  0  0  0  0  0  0  0  0  0  0
   59.5640   33.0820   46.2220 C   0  0  0  0  0  0  0  0  0  0  0  0
   59.7100   34.1910   47.0390 C   0  0  0  0  0  0  0  0  0  0  0  0
   59.5170   35.2850   46.2230 C   0  0  0  0  0  0  0  0  0  0  0  0
   59.2560   34.7830   44.9660 C   0  0  0  0  0  0  0  0  0  0  0  0
   59.2850   33.4700   44.9990 O   0  0  0  0  0  0  0  0  0  0  0  0
   58.7520   30.8030   46.0420 N   0  0  0  0  0  0  0  0  0  0  0  0
   58.6920   29.4930   46.3830 C   0  0  0  0  0  0  0  0  0  0  0  0
   57.7630   28.6430   45.7720 C   0  0  0  0  0  0  0  0  0  0  0  0
   55.3500   23.2250   44.4810 C   0  0  0  0  0  0  0  0  0  0  0  0
   55.9890   21.9830   44.5260 C   0  0  0  0  0  0  0  0  0  0  0  0
   57.2434   19.8118   46.8442 H   0  0  0  0  0  0  0  0  0  0  0  0
   56.4688   19.3551   45.2892 H   0  0  0  0  0  0  0  0  0  0  0  0
   58.0595   20.1894   45.2892 H   0  0  0  0  0  0  0  0  0  0  0  0
   56.5224   21.7607   47.8975 H   0  0  0  0  0  0  0  0  0  0  0  0
   55.3628   23.9685   47.8211 H   0  0  0  0  0  0  0  0  0  0  0  0
   53.9967   25.4361   44.6190 H   0  0  0  0  0  0  0  0  0  0  0  0
   53.6224   25.2863   46.3785 H   0  0  0  0  0  0  0  0  0  0  0  0
   58.5378   25.7337   47.4071 H   0  0  0  0  0  0  0  0  0  0  0  0
   60.1899   27.2499   48.4941 H   0  0  0  0  0  0  0  0  0  0  0  0
   61.1350   29.4620   48.6560 H   0  0  0  0  0  0  0  0  0  0  0  0
   60.5910   32.3321   50.0390 H   0  0  0  0  0  0  0  0  0  0  0  0
   62.4063   33.7586   50.9883 H   0  0  0  0  0  0  0  0  0  0  0  0
   64.4712   34.2051   49.6547 H   0  0  0  0  0  0  0  0  0  0  0  0
   64.7026   33.2590   47.3553 H   0  0  0  0  0  0  0  0  0  0  0  0
   62.8841   31.8483   46.3939 H   0  0  0  0  0  0  0  0  0  0  0  0
   59.9337   34.1973   48.1160 H   0  0  0  0  0  0  0  0  0  0  0  0
   59.5621   36.3444   46.5157 H   0  0  0  0  0  0  0  0  0  0  0  0
   59.0541   35.3898   44.0710 H   0  0  0  0  0  0  0  0  0  0  0  0
   57.0804   29.0387   45.0055 H   0  0  0  0  0  0  0  0  0  0  0  0
   55.0263   23.6391   43.5147 H   0  0  0  0  0  0  0  0  0  0  0  0
   56.1777   21.4307   43.5936 H   0  0  0  0  0  0  0  0  0  0  0  0
  1  2  1  0
  2  3  2  0
  3  4  1  0
  4  5  2  0
  5  6  1  0
  6  7  1  0
  7  8  1  0
  8  9  2  0
  8 10  1  0
 10 11  2  0
 11 12  1  0
 12 13  2  0
 13 14  1  0
 14 15  2  0
 15 16  1  0
 16 17  2  0
 17 18  1  0
 18 19  2  0
 19 20  1  0
 20 21  2  0
 15 22  1  0
 22 23  1  0
 23 24  2  0
 24 25  1  0
 25 26  2  0
 26 27  1  0
 22 28  2  0
 28 29  1  0
 29 30  2  0
  5 31  1  0
 31 32  2  0
 32  2  1  0
 30 10  1  0
 29 13  1  0
 21 16  1  0
 27 23  1  0
  1 33  1  0
  1 34  1  0
  1 35  1  0
  3 36  1  0
  4 37  1  0
  6 38  1  0
  6 39  1  0
 11 40  1  0
 12 41  1  0
 14 42  1  0
 17 43  1  0
 18 44  1  0
 19 45  1  0
 20 46  1  0
 21 47  1  0
 24 48  1  0
 25 49  1  0
 26 50  1  0
 30 51  1  0
 31 52  1  0
 32 53  1  0
M  CHG  2   7  -1  14   1
M  END
>  <UniqueID>  (59) 
48

>  <SMILES>  (59) 
Cc1ccc(C[N-]C(=O)c2ccc3[nH+]c(-c4ccccc4)c(-c4ccco4)nc3c2)cc1

>  <Energy>  (59) 
97.49425817088097

>  <Genealogy>  (59) 
Cc1ccc(C[N-]C(=O)c2ccc3[nH+]c(-c4ccccc4)c(-c4ccco4)nc3c2)cc1 (protonated)
Cc1ccc(C[N-]C(=O)c2ccc3[nH+]c(-c4ccccc4)c(-c4ccco4)nc3c2)cc1 (3D coordinates assigned)
Cc1ccc(C[N-]C(=O)c2ccc3[nH+]c(-c4ccccc4)c(-c4ccco4)nc3c2)cc1 (optimized conformer: 97.49425817088097 kcal/mol)

>  <smiles>  (59) 
Cc1ccc(CNC(=O)c2ccc3nc(-c4ccccc4)c(-c4ccco4)nc3c2)cc1

>  <score_type>  (59) 
oracle

>  <origin>  (59) 
adg

>  <m_score__min__energy>  (59) 
-9.1099999999999994

>  <m_primary>  (59) 
energy

$$$$
59:0
     RDKit          3D

 64 67  0  0  1  0  0  0  0  0999 V2000
   50.4410   24.5120   43.5110 C   0  0  0  0  0  0  0  0  0  0  0  0
   51.5130   24.4880   44.4790 N   0  0  0  0  0  0  0  0  0  0  0  0
   51.8300   23.2520   45.1090 C   0  0  0  0  0  0  0  0  0  0  0  0
   51.2070   22.1760   44.8510 O   0  0  0  0  0  0  0  0  0  0  0  0
   52.9460   23.2820   46.1030 C   0  0  0  0  0  0  0  0  0  0  0  0
   53.7380   24.4480   45.9520 O   0  0  0  0  0  0  0  0  0  0  0  0
   55.0080   24.3390   45.3540 C   0  0  0  0  0  0  0  0  0  0  0  0
   55.1640   23.4530   44.3070 C   0  0  0  0  0  0  0  0  0  0  0  0
   56.3890   23.3140   43.6940 C   0  0  0  0  0  0  0  0  0  0  0  0
   57.4390   24.0810   44.1550 C   0  0  0  0  0  0  0  0  0  0  0  0
   57.2660   24.9720   45.2120 C   0  0  0  0  0  0  0  0  0  0  0  0
   59.7240   28.9880   48.4720 N   0  0  0  0  0  0  0  0  0  0  0  0
   58.9990   28.5950   47.4850 C   0  0  0  0  0  0  0  0  0  0  0  0
   57.4230   27.7940   45.3650 N   0  0  0  0  0  0  0  0  0  0  0  0
   57.3760   29.0500   45.8470 C   0  0  0  0  0  0  0  0  0  0  0  0
   56.4860   29.9420   45.2210 O   0  0  0  0  0  0  0  0  0  0  0  0
   56.9070   30.7500   44.1710 C   0  0  0  0  0  0  0  0  0  0  0  0
   57.6830   31.8480   44.4750 C   0  0  0  0  0  0  0  0  0  0  0  0
   58.1360   32.6930   43.4790 C   0  0  0  0  0  0  0  0  0  0  0  0
   57.7960   32.4150   42.1680 C   0  0  0  0  0  0  0  0  0  0  0  0
   57.0190   31.3150   41.8700 C   0  0  0  0  0  0  0  0  0  0  0  0
   56.5550   30.4560   42.8520 C   0  0  0  0  0  0  0  0  0  0  0  0
   58.1440   29.4530   46.8840 N   0  0  0  0  0  0  0  0  0  0  0  0
   58.2740   26.9440   45.9630 C   0  0  0  0  0  0  0  0  0  0  0  0
   58.4190   25.7100   45.6020 N   0  0  0  0  0  0  0  0  0  0  0  0
   59.2320   30.0270   49.3220 C   0  0  0  0  0  0  0  0  0  0  0  0
   58.5510   29.7600   50.4910 C   0  0  0  0  0  0  0  0  0  0  0  0
   58.1070   30.8090   51.2570 C   0  0  0  0  0  0  0  0  0  0  0  0
   58.3640   32.0970   50.8200 C   0  0  0  0  0  0  0  0  0  0  0  0
   59.0360   32.3950   49.6700 C   0  0  0  0  0  0  0  0  0  0  0  0
   59.3140   33.6570   49.2010 O   0  0  0  0  0  0  0  0  0  0  0  0
   59.9040   34.0080   47.9920 C   0  0  0  0  0  0  0  0  0  0  0  0
   58.9820   34.1450   46.8480 C   0  0  0  0  0  0  0  0  0  0  0  0
   59.2610   34.9480   45.6280 C   0  0  0  0  0  0  0  0  0  0  0  0
   57.9120   33.5610   46.8900 O   0  0  0  0  0  0  0  0  0  0  0  0
   59.4800   31.3240   48.9030 C   0  0  0  0  0  0  0  0  0  0  0  0
   59.0520   27.3370   47.0100 N   0  0  0  0  0  0  0  0  0  0  0  0
   56.0380   25.1200   45.8380 C   0  0  0  0  0  0  0  0  0  0  0  0
   49.4741   24.5336   44.0351 H   0  0  0  0  0  0  0  0  0  0  0  0
   50.5364   25.4082   42.8804 H   0  0  0  0  0  0  0  0  0  0  0  0
   50.4962   23.6124   42.8804 H   0  0  0  0  0  0  0  0  0  0  0  0
   52.0580   25.3670   44.7220 H   0  0  0  0  0  0  0  0  0  0  0  0
   52.5225   23.2653   47.1181 H   0  0  0  0  0  0  0  0  0  0  0  0
   53.5856   22.4031   45.9341 H   0  0  0  0  0  0  0  0  0  0  0  0
   54.3070   22.8562   43.9614 H   0  0  0  0  0  0  0  0  0  0  0  0
   56.5267   22.6106   42.8595 H   0  0  0  0  0  0  0  0  0  0  0  0
   58.4273   23.9877   43.6811 H   0  0  0  0  0  0  0  0  0  0  0  0
   56.8420   27.4590   44.5660 H   0  0  0  0  0  0  0  0  0  0  0  0
   57.9451   32.0544   45.5232 H   0  0  0  0  0  0  0  0  0  0  0  0
   58.7545   33.5689   43.7246 H   0  0  0  0  0  0  0  0  0  0  0  0
   58.1465   33.0735   41.3596 H   0  0  0  0  0  0  0  0  0  0  0  0
   56.7600   31.1139   40.8200 H   0  0  0  0  0  0  0  0  0  0  0  0
   55.9365   29.5808   42.6041 H   0  0  0  0  0  0  0  0  0  0  0  0
   58.3664   28.7220   50.8049 H   0  0  0  0  0  0  0  0  0  0  0  0
   57.5605   30.6305   52.1948 H   0  0  0  0  0  0  0  0  0  0  0  0
   58.0041   32.9327   51.4382 H   0  0  0  0  0  0  0  0  0  0  0  0
   60.4149   34.9720   48.1321 H   0  0  0  0  0  0  0  0  0  0  0  0
   60.5802   33.1791   47.7356 H   0  0  0  0  0  0  0  0  0  0  0  0
   59.6091   35.9498   45.9201 H   0  0  0  0  0  0  0  0  0  0  0  0
   60.0386   34.4494   45.0307 H   0  0  0  0  0  0  0  0  0  0  0  0
   58.3418   35.0389   45.0307 H   0  0  0  0  0  0  0  0  0  0  0  0
   60.0267   31.5058   47.9660 H   0  0  0  0  0  0  0  0  0  0  0  0
   59.7150   26.6670   47.4710 H   0  0  0  0  0  0  0  0  0  0  0  0
   55.8926   25.8205   46.6735 H   0  0  0  0  0  0  0  0  0  0  0  0
  1  2  1  0
  2  3  1  0
  3  4  2  0
  3  5  1  0
  5  6  1  0
  6  7  1  0
  7  8  2  0
  8  9  1  0
  9 10  2  0
 10 11  1  0
 11 12  1  0
 12 13  2  0
 13 14  1  0
 14 15  1  0
 15 16  1  0
 16 17  1  0
 17 18  2  0
 18 19  1  0
 19 20  2  0
 20 21  1  0
 21 22  2  0
 15 23  2  0
 23 24  1  0
 24 25  2  0
 25 26  1  0
 26 27  2  0
 27 28  1  0
 28 29  2  0
 29 30  1  0
 30 31  1  0
 31 32  1  0
 32 33  1  0
 33 34  1  0
 33 35  2  0
 30 36  2  0
 24 37  1  0
 11 38  2  0
 38  7  1  0
 37 13  1  0
 22 17  1  0
 36 26  1  0
  1 39  1  0
  1 40  1  0
  1 41  1  0
  2 42  1  0
  5 43  1  0
  5 44  1  0
  8 45  1  0
  9 46  1  0
 10 47  1  0
 14 48  1  0
 18 49  1  0
 19 50  1  0
 20 51  1  0
 21 52  1  0
 22 53  1  0
 27 54  1  0
 28 55  1  0
 29 56  1  0
 32 57  1  0
 32 58  1  0
 34 59  1  0
 34 60  1  0
 34 61  1  0
 36 62  1  0
 37 63  1  0
 38 64  1  0
M  END
>  <smiles>  (60) 
CNC(=O)COc1cccc(N=c2[nH]c(Oc3ccccc3)nc(=Nc3cccc(OCC(C)=O)c3)[nH]2)c1

>  <score_type>  (60) 
oracle

>  <origin>  (60) 
adg

>  <m_score__min__energy>  (60) 
-10.26

>  <m_primary>  (60) 
energy

$$$$
60:0
     RDKit          3D

 43 45  0  0  0  0  0  0  0  0999 V2000
   56.2270   30.4540   43.9790 C   0  0  0  0  0  0  0  0  0  0  0  0
   56.7240   30.0470   45.2490 O   0  0  0  0  0  0  0  0  0  0  0  0
   57.6950   29.0510   45.4470 C   0  0  0  0  0  0  0  0  0  0  0  0
   57.7770   27.9220   44.6060 C   0  0  0  0  0  0  0  0  0  0  0  0
   58.7580   26.9520   44.8160 C   0  0  0  0  0  0  0  0  0  0  0  0
   59.6700   27.0930   45.8610 C   0  0  0  0  0  0  0  0  0  0  0  0
   59.6020   28.2040   46.7030 C   0  0  0  0  0  0  0  0  0  0  0  0
   58.6110   29.1830   46.5140 C   0  0  0  0  0  0  0  0  0  0  0  0
   58.5740   30.3740   47.4430 C   0  0  0  0  0  0  0  0  0  0  0  0
   59.5630   31.3350   47.0730 O   0  0  0  0  0  0  0  0  0  0  0  0
   59.3190   32.5310   46.3760 C   0  0  0  0  0  0  0  0  0  0  0  0
   58.1730   32.7030   45.5720 C   0  0  0  0  0  0  0  0  0  0  0  0
   57.9390   33.9170   44.9220 C   0  0  0  0  0  0  0  0  0  0  0  0
   58.8410   34.9700   45.0600 C   0  0  0  0  0  0  0  0  0  0  0  0
   59.9850   34.8130   45.8450 C   0  0  0  0  0  0  0  0  0  0  0  0
   60.2400   33.5950   46.5000 C   0  0  0  0  0  0  0  0  0  0  0  0
   61.4650   33.4550   47.3240 C   0  0  0  0  0  0  0  0  0  0  0  0
   61.4390   33.7110   48.7010 C   0  0  0  0  0  0  0  0  0  0  0  0
   62.5710   33.5820   49.4390 N   0  0  0  0  0  0  0  0  0  0  0  0
   63.7440   33.2140   48.8630 C   0  0  0  0  0  0  0  0  0  0  0  0
   65.2160   33.0590   49.8730 S   0  0  0  0  0  0  0  0  0  0  0  0
   64.6390   31.5370   50.6830 C   0  0  0  0  0  0  0  0  0  0  0  0
   63.8000   32.9660   47.5270 N   0  0  0  0  0  0  0  0  0  0  0  0
   62.6900   33.0830   46.7520 C   0  0  0  0  0  0  0  0  0  0  0  0
   55.3830   31.1452   44.1199 H   0  0  0  0  0  0  0  0  0  0  0  0
   57.0260   30.9606   43.4178 H   0  0  0  0  0  0  0  0  0  0  0  0
   55.8879   29.5708   43.4178 H   0  0  0  0  0  0  0  0  0  0  0  0
   57.0622   27.8051   43.7781 H   0  0  0  0  0  0  0  0  0  0  0  0
   58.8118   26.0741   44.1555 H   0  0  0  0  0  0  0  0  0  0  0  0
   60.4438   26.3280   46.0220 H   0  0  0  0  0  0  0  0  0  0  0  0
   60.3294   28.3144   47.5207 H   0  0  0  0  0  0  0  0  0  0  0  0
   57.5796   30.8413   47.3912 H   0  0  0  0  0  0  0  0  0  0  0  0
   58.7817   30.0298   48.4669 H   0  0  0  0  0  0  0  0  0  0  0  0
   57.4582   31.8750   45.4560 H   0  0  0  0  0  0  0  0  0  0  0  0
   57.0406   34.0420   44.2997 H   0  0  0  0  0  0  0  0  0  0  0  0
   58.6516   35.9260   44.5500 H   0  0  0  0  0  0  0  0  0  0  0  0
   60.6923   35.6486   45.9519 H   0  0  0  0  0  0  0  0  0  0  0  0
   60.4998   34.0170   49.1850 H   0  0  0  0  0  0  0  0  0  0  0  0
   64.6864   31.6621   51.7748 H   0  0  0  0  0  0  0  0  0  0  0  0
   63.6009   31.3324   50.3821 H   0  0  0  0  0  0  0  0  0  0  0  0
   65.2806   30.6956   50.3821 H   0  0  0  0  0  0  0  0  0  0  0  0
   64.7050   32.6890   47.0860 H   0  0  0  0  0  0  0  0  0  0  0  0
   62.7527   32.8851   45.6718 H   0  0  0  0  0  0  0  0  0  0  0  0
  1  2  1  0
  2  3  1  0
  3  4  2  0
  4  5  1  0
  5  6  2  0
  6  7  1  0
  7  8  2  0
  8  9  1  0
  9 10  1  0
 10 11  1  0
 11 12  2  0
 12 13  1  0
 13 14  2  0
 14 15  1  0
 15 16  2  0
 16 17  1  0
 17 18  2  0
 18 19  1  0
 19 20  2  0
 20 21  1  0
 21 22  1  0
 20 23  1  0
 23 24  2  0
  8  3  1  0
 16 11  1  0
 24 17  1  0
  1 25  1  0
  1 26  1  0
  1 27  1  0
  4 28  1  0
  5 29  1  0
  6 30  1  0
  7 31  1  0
  9 32  1  0
  9 33  1  0
 12 34  1  0
 13 35  1  0
 14 36  1  0
 15 37  1  0
 18 38  1  0
 22 39  1  0
 22 40  1  0
 22 41  1  0
 23 42  1  0
 24 43  1  0
M  CHG  1  23   1
M  END
>  <UniqueID>  (61) 
49

>  <SMILES>  (61) 
COc1ccccc1COc1ccccc1-c1cnc(SC)[nH+]c1

>  <Energy>  (61) 
47.7213258181427

>  <Genealogy>  (61) 
COc1ccccc1COc1ccccc1-c1cnc(SC)[nH+]c1 (protonated)
COc1ccccc1COc1ccccc1-c1cnc(SC)[nH+]c1 (3D coordinates assigned)
COc1ccccc1COc1ccccc1-c1cnc(SC)[nH+]c1 (optimized conformer: 47.7213258181427 kcal/mol)

>  <smiles>  (61) 
COc1ccccc1COc1ccccc1-c1cnc(SC)nc1

>  <score_type>  (61) 
oracle

>  <origin>  (61) 
adg

>  <m_score__min__energy>  (61) 
-6.5899999999999999

>  <m_primary>  (61) 
energy

$$$$
61:0
     RDKit          3D

 63 65  0  0  0  0  0  0  0  0999 V2000
   59.0270   27.2220   46.6180 C   0  0  0  0  0  0  0  0  0  0  0  0
   58.5250   28.5300   47.2170 C   0  0  0  0  0  0  0  0  0  0  0  0
   58.8980   29.6590   46.3520 N   0  0  0  0  0  0  0  0  0  0  0  0
   60.1380   30.4060   46.6100 C   0  0  0  0  0  0  0  0  0  0  0  0
   60.8960   29.7980   47.7970 C   0  0  0  0  0  0  0  0  0  0  0  0
   61.4340   30.8640   48.7590 C   0  0  0  0  0  0  0  0  0  0  0  0
   60.7440   30.7800   50.0580 N   0  0  0  0  0  0  0  0  0  0  0  0
   59.2790   30.6050   49.9600 C   0  0  1  0  0  0  0  0  0  0  0  0
   58.7460   29.7220   51.1020 C   0  0  0  0  0  0  0  0  0  0  0  0
   58.5320   31.9170   49.8480 C   0  0  0  0  0  0  0  0  0  0  0  0
   57.4430   32.0660   50.4660 O   0  0  0  0  0  0  0  0  0  0  0  0
   59.1370   33.0290   49.1750 N   0  0  0  0  0  0  0  0  0  0  0  0
   58.9030   33.4180   47.8150 C   0  0  0  0  0  0  0  0  0  0  0  0
   57.6150   33.3510   47.2550 C   0  0  0  0  0  0  0  0  0  0  0  0
   57.3990   33.7520   45.9330 C   0  0  0  0  0  0  0  0  0  0  0  0
   58.4620   34.2230   45.1610 C   0  0  0  0  0  0  0  0  0  0  0  0
   59.7500   34.2790   45.7020 C   0  0  0  0  0  0  0  0  0  0  0  0
   59.9850   33.8580   47.0200 C   0  0  0  0  0  0  0  0  0  0  0  0
   61.3220   33.9040   47.5490 N   0  0  0  0  0  0  0  0  0  0  0  0
   62.4450   33.4000   46.7580 C   0  0  0  0  0  0  0  0  0  0  0  0
   63.7730   33.8180   47.4010 C   0  0  0  0  0  0  0  0  0  0  0  0
   63.8670   33.4120   48.7570 O   0  0  0  0  0  0  0  0  0  0  0  0
   62.7210   33.7310   49.5500 C   0  0  0  0  0  0  0  0  0  0  0  0
   61.6000   34.5180   48.8470 C   0  0  0  0  0  0  0  0  0  0  0  0
   58.0750   29.9890   45.2170 C   0  0  0  0  0  0  0  0  0  0  0  0
   58.4990   30.9490   44.2840 C   0  0  0  0  0  0  0  0  0  0  0  0
   57.6940   31.2690   43.1870 C   0  0  0  0  0  0  0  0  0  0  0  0
   56.4590   30.6350   43.0140 C   0  0  0  0  0  0  0  0  0  0  0  0
   56.0270   29.6860   43.9420 C   0  0  0  0  0  0  0  0  0  0  0  0
   56.8310   29.3630   45.0400 C   0  0  0  0  0  0  0  0  0  0  0  0
   59.2939   26.5266   47.4274 H   0  0  0  0  0  0  0  0  0  0  0  0
   58.2363   26.7757   45.9971 H   0  0  0  0  0  0  0  0  0  0  0  0
   59.9133   27.4194   45.9971 H   0  0  0  0  0  0  0  0  0  0  0  0
   57.4297   28.4902   47.3109 H   0  0  0  0  0  0  0  0  0  0  0  0
   58.9813   28.6702   48.2080 H   0  0  0  0  0  0  0  0  0  0  0  0
   60.7764   30.3674   45.7151 H   0  0  0  0  0  0  0  0  0  0  0  0
   59.8814   31.4486   46.8489 H   0  0  0  0  0  0  0  0  0  0  0  0
   60.2130   29.1364   48.3500 H   0  0  0  0  0  0  0  0  0  0  0  0
   61.7579   29.2452   47.3951 H   0  0  0  0  0  0  0  0  0  0  0  0
   62.5118   30.7046   48.9103 H   0  0  0  0  0  0  0  0  0  0  0  0
   61.2559   31.8587   48.3245 H   0  0  0  0  0  0  0  0  0  0  0  0
   61.1340   29.9630   50.5830 H   0  0  0  0  0  0  0  0  0  0  0  0
   59.0848   30.0761   49.0153 H   0  0  0  0  0  0  0  0  0  0  0  0
   59.0167   30.1705   52.0692 H   0  0  0  0  0  0  0  0  0  0  0  0
   57.6512   29.6463   51.0266 H   0  0  0  0  0  0  0  0  0  0  0  0
   59.1890   28.7180   51.0266 H   0  0  0  0  0  0  0  0  0  0  0  0
   56.7736   32.9815   47.8596 H   0  0  0  0  0  0  0  0  0  0  0  0
   56.3891   33.6961   45.5006 H   0  0  0  0  0  0  0  0  0  0  0  0
   58.2863   34.5505   44.1257 H   0  0  0  0  0  0  0  0  0  0  0  0
   60.5839   34.6552   45.0911 H   0  0  0  0  0  0  0  0  0  0  0  0
   62.3932   32.3022   46.7112 H   0  0  0  0  0  0  0  0  0  0  0  0
   62.3882   33.8213   45.7435 H   0  0  0  0  0  0  0  0  0  0  0  0
   64.5987   33.3599   46.8367 H   0  0  0  0  0  0  0  0  0  0  0  0
   63.8283   34.9163   47.3744 H   0  0  0  0  0  0  0  0  0  0  0  0
   62.2903   32.7855   49.9114 H   0  0  0  0  0  0  0  0  0  0  0  0
   63.0911   34.3958   50.3444 H   0  0  0  0  0  0  0  0  0  0  0  0
   60.6912   34.4964   49.4664 H   0  0  0  0  0  0  0  0  0  0  0  0
   61.9163   35.5615   48.7019 H   0  0  0  0  0  0  0  0  0  0  0  0
   59.4686   31.4512   44.4170 H   0  0  0  0  0  0  0  0  0  0  0  0
   58.0322   32.0206   42.4585 H   0  0  0  0  0  0  0  0  0  0  0  0
   55.8289   30.8841   42.1474 H   0  0  0  0  0  0  0  0  0  0  0  0
   55.0533   29.1917   43.8097 H   0  0  0  0  0  0  0  0  0  0  0  0
   56.4867   28.6144   45.7688 H   0  0  0  0  0  0  0  0  0  0  0  0
  1  2  1  0
  2  3  1  0
  3  4  1  0
  4  5  1  0
  5  6  1  0
  6  7  1  0
  7  8  1  0
  8  9  1  0
  8 10  1  0
 10 11  2  0
 10 12  1  0
 12 13  1  0
 13 14  2  0
 14 15  1  0
 15 16  2  0
 16 17  1  0
 17 18  2  0
 18 19  1  0
 19 20  1  0
 20 21  1  0
 21 22  1  0
 22 23  1  0
 23 24  1  0
  3 25  1  0
 25 26  2  0
 26 27  1  0
 27 28  2  0
 28 29  1  0
 29 30  2  0
 18 13  1  0
 24 19  1  0
 30 25  1  0
  1 31  1  0
  1 32  1  0
  1 33  1  0
  2 34  1  0
  2 35  1  0
  4 36  1  0
  4 37  1  0
  5 38  1  0
  5 39  1  0
  6 40  1  0
  6 41  1  0
  7 42  1  0
  8 43  1  6
  9 44  1  0
  9 45  1  0
  9 46  1  0
 14 47  1  0
 15 48  1  0
 16 49  1  0
 17 50  1  0
 20 51  1  0
 20 52  1  0
 21 53  1  0
 21 54  1  0
 23 55  1  0
 23 56  1  0
 24 57  1  0
 24 58  1  0
 26 59  1  0
 27 60  1  0
 28 61  1  0
 29 62  1  0
 30 63  1  0
M  CHG  1  12  -1
M  END
>  <UniqueID>  (62) 
50

>  <SMILES>  (62) 
CCN(CCCN[C@@H](C)C(=O)[N-]c1ccccc1N1CCOCC1)c1ccccc1

>  <Energy>  (62) 
78.28985795478705

>  <Genealogy>  (62) 
CCN(CCCNC(C)C(=O)[N-]c1ccccc1N1CCOCC1)c1ccccc1 (protonated)
CCN(CCCN[C@@H](C)C(=O)[N-]c1ccccc1N1CCOCC1)c1ccccc1 (chirality)
CCN(CCCN[C@@H](C)C(=O)[N-]c1ccccc1N1CCOCC1)c1ccccc1 (3D coordinates assigned)
CCN(CCCN[C@@H](C)C(=O)[N-]c1ccccc1N1CCOCC1)c1ccccc1 (nonaromatic ring conformer: 78.28985795478705 kcal/mol)

>  <smiles>  (62) 
CCN(CCCNC(C)C(=O)Nc1ccccc1N1CCOCC1)c1ccccc1

>  <score_type>  (62) 
oracle

>  <origin>  (62) 
adg

>  <m_score__min__energy>  (62) 
-10.050000000000001

>  <m_primary>  (62) 
energy

$$$$
62:0
     RDKit          3D

 43 45  0  0  0  0  0  0  0  0999 V2000
   59.6210   35.4540   46.6510 C   0  0  0  0  0  0  0  0  0  0  0  0
   60.4380   34.9490   47.7020 O   0  0  0  0  0  0  0  0  0  0  0  0
   61.1750   33.7570   47.6330 C   0  0  0  0  0  0  0  0  0  0  0  0
   62.5680   33.8350   47.7140 C   0  0  0  0  0  0  0  0  0  0  0  0
   63.3440   32.6770   47.6550 C   0  0  0  0  0  0  0  0  0  0  0  0
   62.7370   31.4290   47.5080 C   0  0  0  0  0  0  0  0  0  0  0  0
   61.3360   31.3220   47.4120 C   0  0  0  0  0  0  0  0  0  0  0  0
   60.6480   30.0070   47.2680 C   0  0  0  0  0  0  0  0  0  0  0  0
   60.9650   29.0770   48.0590 O   0  0  0  0  0  0  0  0  0  0  0  0
   59.5870   29.7100   46.2260 C   0  0  0  0  0  0  0  0  0  0  0  0
   58.2200   29.3660   46.8610 C   0  0  0  0  0  0  0  0  0  0  0  0
   57.4910   28.2320   46.1170 C   0  0  0  0  0  0  0  0  0  0  0  0
   57.5790   28.3610   44.6480 N   0  0  0  0  0  0  0  0  0  0  0  0
   56.5450   29.6320   44.0310 S   0  0  0  0  0  0  0  0  0  0  0  0
   56.1460   29.3410   42.6110 O   0  0  0  0  0  0  0  0  0  0  0  0
   55.2990   29.7100   44.8700 O   0  0  0  0  0  0  0  0  0  0  0  0
   57.3540   31.1870   44.0980 C   0  0  0  0  0  0  0  0  0  0  0  0
   57.9720   31.8210   43.0320 C   0  0  0  0  0  0  0  0  0  0  0  0
   58.5030   33.0690   43.3750 C   0  0  0  0  0  0  0  0  0  0  0  0
   58.2990   33.4150   44.7060 C   0  0  0  0  0  0  0  0  0  0  0  0
   57.4550   32.1680   45.4570 S   0  0  0  0  0  0  0  0  0  0  0  0
   58.9620   28.4700   44.1140 C   0  0  0  0  0  0  0  0  0  0  0  0
   60.0410   28.6620   45.1950 C   0  0  0  0  0  0  0  0  0  0  0  0
   60.5620   32.4970   47.4840 C   0  0  0  0  0  0  0  0  0  0  0  0
   58.7594   35.9866   47.0800 H   0  0  0  0  0  0  0  0  0  0  0  0
   60.2084   36.1468   46.0305 H   0  0  0  0  0  0  0  0  0  0  0  0
   59.2640   34.6188   46.0305 H   0  0  0  0  0  0  0  0  0  0  0  0
   63.0554   34.8149   47.8249 H   0  0  0  0  0  0  0  0  0  0  0  0
   64.4395   32.7481   47.7247 H   0  0  0  0  0  0  0  0  0  0  0  0
   63.3577   30.5218   47.4668 H   0  0  0  0  0  0  0  0  0  0  0  0
   59.4413   30.6431   45.6620 H   0  0  0  0  0  0  0  0  0  0  0  0
   58.3838   29.0554   47.9034 H   0  0  0  0  0  0  0  0  0  0  0  0
   57.5885   30.2646   46.8003 H   0  0  0  0  0  0  0  0  0  0  0  0
   57.9398   27.2723   46.4129 H   0  0  0  0  0  0  0  0  0  0  0  0
   56.4271   28.2870   46.3908 H   0  0  0  0  0  0  0  0  0  0  0  0
   58.0381   31.3886   42.0227 H   0  0  0  0  0  0  0  0  0  0  0  0
   59.0319   33.7155   42.6592 H   0  0  0  0  0  0  0  0  0  0  0  0
   58.6328   34.3463   45.1868 H   0  0  0  0  0  0  0  0  0  0  0  0
   59.1908   27.5491   43.5576 H   0  0  0  0  0  0  0  0  0  0  0  0
   58.9865   29.3679   43.4791 H   0  0  0  0  0  0  0  0  0  0  0  0
   60.2170   27.7037   45.7057 H   0  0  0  0  0  0  0  0  0  0  0  0
   60.9677   29.0109   44.7160 H   0  0  0  0  0  0  0  0  0  0  0  0
   59.4657   32.4300   47.4232 H   0  0  0  0  0  0  0  0  0  0  0  0
  1  2  1  0
  2  3  1  0
  3  4  2  0
  4  5  1  0
  5  6  2  0
  6  7  1  0
  7  8  1  0
  8  9  2  0
  8 10  1  0
 10 11  1  0
 11 12  1  0
 12 13  1  0
 13 14  1  0
 14 15  2  0
 14 16  2  0
 14 17  1  0
 17 18  2  0
 18 19  1  0
 19 20  2  0
 20 21  1  0
 13 22  1  0
 22 23  1  0
  7 24  2  0
 24  3  1  0
 23 10  1  0
 21 17  1  0
  1 25  1  0
  1 26  1  0
  1 27  1  0
  4 28  1  0
  5 29  1  0
  6 30  1  0
 10 31  1  0
 11 32  1  0
 11 33  1  0
 12 34  1  0
 12 35  1  0
 18 36  1  0
 19 37  1  0
 20 38  1  0
 22 39  1  0
 22 40  1  0
 23 41  1  0
 23 42  1  0
 24 43  1  0
M  END
>  <UniqueID>  (63) 
51

>  <SMILES>  (63) 
COc1cccc(C(=O)C2CCN(S(=O)(=O)c3cccs3)CC2)c1

>  <Energy>  (63) 
82.39895092185111

>  <Genealogy>  (63) 
COc1cccc(C(=O)C2CCN(S(=O)(=O)c3cccs3)CC2)c1 (3D coordinates assigned)
COc1cccc(C(=O)C2CCN(S(=O)(=O)c3cccs3)CC2)c1 (nonaromatic ring conformer: 82.39895092185111 kcal/mol)

>  <smiles>  (63) 
COc1cccc(C(=O)C2CCN(S(=O)(=O)c3cccs3)CC2)c1

>  <score_type>  (63) 
oracle

>  <origin>  (63) 
adg

>  <m_score__min__energy>  (63) 
-9.4600000000000009

>  <m_primary>  (63) 
energy

$$$$
63:0
     RDKit          3D

 41 44  0  0  0  0  0  0  0  0999 V2000
   55.1680   29.9600   43.7540 C   0  0  0  0  0  0  0  0  0  0  0  0
   56.4970   29.7150   44.3970 C   0  0  0  0  0  0  0  0  0  0  0  0
   57.0400   28.4260   44.4270 C   0  0  0  0  0  0  0  0  0  0  0  0
   58.2990   28.2080   45.0100 C   0  0  0  0  0  0  0  0  0  0  0  0
   58.8810   26.8200   45.0080 C   0  0  0  0  0  0  0  0  0  0  0  0
   58.9850   29.2970   45.5950 C   0  0  0  0  0  0  0  0  0  0  0  0
   58.4030   30.5790   45.5180 C   0  0  0  0  0  0  0  0  0  0  0  0
   57.1900   30.7540   44.9310 N   0  0  0  0  0  0  0  0  0  0  0  0
   59.0970   31.6890   46.0860 N   0  0  0  0  0  0  0  0  0  0  0  0
   58.7700   32.9630   45.9470 N   0  0  0  0  0  0  0  0  0  0  0  0
   59.6770   33.6800   46.6460 C   0  0  0  0  0  0  0  0  0  0  0  0
   59.6430   35.1720   46.7420 C   0  0  0  0  0  0  0  0  0  0  0  0
   60.6040   32.8240   47.2400 C   0  0  0  0  0  0  0  0  0  0  0  0
   61.7470   33.1770   48.1090 C   0  0  0  0  0  0  0  0  0  0  0  0
   63.0490   32.7750   47.7670 C   0  0  0  0  0  0  0  0  0  0  0  0
   64.1300   33.1080   48.5900 C   0  0  0  0  0  0  0  0  0  0  0  0
   63.9190   33.8430   49.7590 C   0  0  0  0  0  0  0  0  0  0  0  0
   62.6280   34.2460   50.1070 C   0  0  0  0  0  0  0  0  0  0  0  0
   61.5450   33.9150   49.2870 C   0  0  0  0  0  0  0  0  0  0  0  0
   60.1920   31.5630   46.8470 C   0  0  0  0  0  0  0  0  0  0  0  0
   60.7340   30.2190   47.2350 C   0  0  0  0  0  0  0  0  0  0  0  0
   60.3940   29.1600   46.1640 C   0  0  0  0  0  0  0  0  0  0  0  0
   54.4042   30.1008   44.5330 H   0  0  0  0  0  0  0  0  0  0  0  0
   55.2243   30.8629   43.1282 H   0  0  0  0  0  0  0  0  0  0  0  0
   54.8987   29.0964   43.1282 H   0  0  0  0  0  0  0  0  0  0  0  0
   56.4810   27.5834   43.9940 H   0  0  0  0  0  0  0  0  0  0  0  0
   59.0233   26.4806   46.0446 H   0  0  0  0  0  0  0  0  0  0  0  0
   58.1942   26.1352   44.4890 H   0  0  0  0  0  0  0  0  0  0  0  0
   59.8508   26.8298   44.4890 H   0  0  0  0  0  0  0  0  0  0  0  0
   59.6362   35.4713   47.8005 H   0  0  0  0  0  0  0  0  0  0  0  0
   60.5318   35.5916   46.2481 H   0  0  0  0  0  0  0  0  0  0  0  0
   58.7360   35.5506   46.2481 H   0  0  0  0  0  0  0  0  0  0  0  0
   63.2192   32.1956   46.8476 H   0  0  0  0  0  0  0  0  0  0  0  0
   65.1471   32.7908   48.3164 H   0  0  0  0  0  0  0  0  0  0  0  0
   64.7698   34.1043   50.4054 H   0  0  0  0  0  0  0  0  0  0  0  0
   62.4629   34.8248   51.0277 H   0  0  0  0  0  0  0  0  0  0  0  0
   60.5298   34.2341   49.5657 H   0  0  0  0  0  0  0  0  0  0  0  0
   61.8268   30.2876   47.3400 H   0  0  0  0  0  0  0  0  0  0  0  0
   60.2757   29.9160   48.1880 H   0  0  0  0  0  0  0  0  0  0  0  0
   61.1137   29.2575   45.3378 H   0  0  0  0  0  0  0  0  0  0  0  0
   60.4498   28.1766   46.6537 H   0  0  0  0  0  0  0  0  0  0  0  0
  1  2  1  0
  2  3  2  0
  3  4  1  0
  4  5  1  0
  4  6  2  0
  6  7  1  0
  7  8  2  0
  7  9  1  0
  9 10  1  0
 10 11  2  0
 11 12  1  0
 11 13  1  0
 13 14  1  0
 14 15  2  0
 15 16  1  0
 16 17  2  0
 17 18  1  0
 18 19  2  0
 13 20  2  0
 20 21  1  0
 21 22  1  0
  8  2  1  0
 20  9  1  0
 22  6  1  0
 19 14  1  0
  1 23  1  0
  1 24  1  0
  1 25  1  0
  3 26  1  0
  5 27  1  0
  5 28  1  0
  5 29  1  0
 12 30  1  0
 12 31  1  0
 12 32  1  0
 15 33  1  0
 16 34  1  0
 17 35  1  0
 18 36  1  0
 19 37  1  0
 21 38  1  0
 21 39  1  0
 22 40  1  0
 22 41  1  0
M  END
>  <UniqueID>  (64) 
52

>  <SMILES>  (64) 
Cc1cc(C)c2c(n1)-n1nc(C)c(-c3ccccc3)c1CC2

>  <Energy>  (64) 
82.84489842708156

>  <Genealogy>  (64) 
Cc1cc(C)c2c(n1)-n1nc(C)c(-c3ccccc3)c1CC2 (3D coordinates assigned)
Cc1cc(C)c2c(n1)-n1nc(C)c(-c3ccccc3)c1CC2 (nonaromatic ring conformer: 82.84489842708156 kcal/mol)

>  <smiles>  (64) 
Cc1cc(C)c2c(n1)-n1nc(C)c(-c3ccccc3)c1CC2

>  <score_type>  (64) 
oracle

>  <origin>  (64) 
adg

>  <m_score__min__energy>  (64) 
-7.9900000000000002

>  <m_primary>  (64) 
energy

$$$$
64:0
     RDKit          3D

 34 35  0  0  0  0  0  0  0  0999 V2000
   55.9910   23.5530   47.2100 H   0  0  0  0  0  0  0  0  0  0  0  0
   55.3780   24.2560   46.7390 N   0  0  0  0  0  0  0  0  0  0  0  0
   55.8650   25.3570   46.2680 C   0  0  0  0  0  0  0  0  0  0  0  0
   55.1480   26.4850   46.1050 N   0  0  0  0  0  0  0  0  0  0  0  0
   55.9740   27.3670   45.6170 O   0  0  0  0  0  0  0  0  0  0  0  0
   57.1760   26.8560   45.4580 C   0  0  0  0  0  0  0  0  0  0  0  0
   58.3560   27.6170   44.9450 C   0  0  0  0  0  0  0  0  0  0  0  0
   58.8945   26.9994   44.2111 H   0  0  0  0  0  0  0  0  0  0  0  0
   58.0038   28.5453   44.4715 H   0  0  0  0  0  0  0  0  0  0  0  0
   59.3030   27.9740   46.0970 C   0  0  0  0  0  0  0  0  0  0  0  0
   59.5825   27.0509   46.6260 H   0  0  0  0  0  0  0  0  0  0  0  0
   60.1864   28.4705   45.6692 H   0  0  0  0  0  0  0  0  0  0  0  0
   58.6540   28.9400   47.0960 C   0  0  0  0  0  0  0  0  0  0  0  0
   58.2034   28.3606   47.9153 H   0  0  0  0  0  0  0  0  0  0  0  0
   59.4301   29.6167   47.4830 H   0  0  0  0  0  0  0  0  0  0  0  0
   57.6150   29.7440   46.4510 N   0  0  0  0  0  0  0  0  0  0  0  0
   56.6850   29.2930   46.2920 H   0  0  0  0  0  0  0  0  0  0  0  0
   57.9130   30.9480   45.7280 C   0  0  0  0  0  0  0  0  0  0  0  0
   58.8830   31.8190   46.2490 C   0  0  0  0  0  0  0  0  0  0  0  0
   59.4278   31.5426   47.1638 H   0  0  0  0  0  0  0  0  0  0  0  0
   59.1630   33.0320   45.6180 C   0  0  0  0  0  0  0  0  0  0  0  0
   59.9158   33.7123   46.0427 H   0  0  0  0  0  0  0  0  0  0  0  0
   58.4880   33.3810   44.4490 C   0  0  0  0  0  0  0  0  0  0  0  0
   58.6976   34.3444   43.9613 H   0  0  0  0  0  0  0  0  0  0  0  0
   57.5470   32.5110   43.8960 C   0  0  0  0  0  0  0  0  0  0  0  0
   57.0277   32.7895   42.9671 H   0  0  0  0  0  0  0  0  0  0  0  0
   57.2560   31.2810   44.5150 C   0  0  0  0  0  0  0  0  0  0  0  0
   56.3400   30.3330   43.8370 C   0  0  0  0  0  0  0  0  0  0  0  0
   55.3980   29.8000   44.4800 O   0  0  0  0  0  0  0  0  0  0  0  0
   56.5190   30.0000   42.4590 N   0  0  0  0  0  0  0  0  0  0  0  0
   57.2310   30.4880   41.8710 H   0  0  0  0  0  0  0  0  0  0  0  0
   55.8920   29.3000   42.0040 H   0  0  0  0  0  0  0  0  0  0  0  0
   57.1690   25.5400   45.8720 C   0  0  0  0  0  0  0  0  0  0  0  0
   57.9988   24.8179   45.8826 H   0  0  0  0  0  0  0  0  0  0  0  0
  1  2  1  0
  2  3  2  0
  3  4  1  0
  4  5  1  0
  5  6  1  0
  6  7  1  0
  7  8  1  0
  7  9  1  0
  7 10  1  0
 10 11  1  0
 10 12  1  0
 10 13  1  0
 13 14  1  0
 13 15  1  0
 13 16  1  0
 16 17  1  0
 16 18  1  0
 18 19  2  0
 19 20  1  0
 19 21  1  0
 21 22  1  0
 21 23  2  0
 23 24  1  0
 23 25  1  0
 25 26  1  0
 25 27  2  0
 27 28  1  0
 28 29  2  0
 28 30  1  0
 30 31  1  0
 30 32  1  0
  6 33  2  0
 33 34  1  0
 33  3  1  0
 27 18  1  0
M  CHG  1   4  -1
M  END
>  <UniqueID>  (65) 
53

>  <SMILES>  (65) 
[H]/N=c1/cc(CCCNc2ccccc2C(N)=O)o[n-]1

>  <Energy>  (65) 
66.88239862713301

>  <Genealogy>  (65) 
N=c1cc(CCCNc2ccccc2C(N)=O)o[n-]1 (protonated)
[H]/N=c1/cc(CCCNc2ccccc2C(N)=O)o[n-]1 (cis-trans isomerization)
[H]/N=c1/cc(CCCNc2ccccc2C(N)=O)o[n-]1 (3D coordinates assigned)
[H]/N=c1/cc(CCCNc2ccccc2C(N)=O)o[n-]1 (optimized conformer: 66.88239862713301 kcal/mol)

>  <smiles>  (65) 
N=c1cc(CCCNc2ccccc2C(N)=O)o[nH]1

>  <score_type>  (65) 
oracle

>  <origin>  (65) 
adg

>  <m_score__min__energy>  (65) 
-9.2200000000000006

>  <m_primary>  (65) 
energy

$$$$
65:0
     RDKit          3D

 56 60  0  0  0  0  0  0  0  0999 V2000
   58.2600   34.9420   44.5840 O   0  0  0  0  0  0  0  0  0  0  0  0
   58.4330   34.3570   45.6880 C   0  0  0  0  0  0  0  0  0  0  0  0
   59.2330   34.9750   46.7070 N   0  0  0  0  0  0  0  0  0  0  0  0
   60.4360   34.4510   47.2900 C   0  0  0  0  0  0  0  0  0  0  0  0
   61.4240   33.9370   46.4390 C   0  0  0  0  0  0  0  0  0  0  0  0
   62.6000   33.3960   46.9660 C   0  0  0  0  0  0  0  0  0  0  0  0
   62.7930   33.3500   48.3500 C   0  0  0  0  0  0  0  0  0  0  0  0
   64.2670   32.6650   49.0100 Cl  0  0  0  0  0  0  0  0  0  0  0  0
   61.8010   33.8370   49.2070 C   0  0  0  0  0  0  0  0  0  0  0  0
   60.6230   34.3800   48.6830 C   0  0  0  0  0  0  0  0  0  0  0  0
   57.8690   33.0460   45.9040 N   0  0  0  0  0  0  0  0  0  0  0  0
   57.1990   32.3140   44.8250 C   0  0  0  0  0  0  0  0  0  0  0  0
   58.0710   31.1290   44.4100 C   0  0  0  0  0  0  0  0  0  0  0  0
   58.4910   30.3530   45.5890 N   0  0  0  0  0  0  0  0  0  0  0  0
   58.6910   28.9340   45.4440 C   0  0  0  0  0  0  0  0  0  0  0  0
   59.6780   28.1730   46.0530 C   0  0  0  0  0  0  0  0  0  0  0  0
   59.4760   26.8820   45.6100 C   0  0  0  0  0  0  0  0  0  0  0  0
   58.3870   26.9400   44.7630 C   0  0  0  0  0  0  0  0  0  0  0  0
   57.7750   25.7780   44.0460 C   0  0  0  0  0  0  0  0  0  0  0  0
   56.7170   25.1680   44.8810 N   0  0  0  0  0  0  0  0  0  0  0  0
   55.9370   24.1370   44.1870 C   0  0  1  0  0  0  0  0  0  0  0  0
   56.8180   22.8760   44.1690 C   0  0  0  0  0  0  0  0  0  0  0  0
   57.7230   23.0530   45.3810 C   0  0  0  0  0  0  0  0  0  0  0  0
   57.2500   24.3800   45.9950 C   0  0  2  0  0  0  0  0  0  0  0  0
   56.0560   24.1280   46.9670 C   0  0  0  0  0  0  0  0  0  0  0  0
   54.7960   24.4320   46.3730 O   0  0  0  0  0  0  0  0  0  0  0  0
   54.6670   23.8930   45.0580 C   0  0  0  0  0  0  0  0  0  0  0  0
   57.9400   28.1710   44.6810 O   0  0  0  0  0  0  0  0  0  0  0  0
   59.0390   31.0730   46.7530 C   0  0  0  0  0  0  0  0  0  0  0  0
   58.1580   32.2710   47.1140 C   0  0  0  0  0  0  0  0  0  0  0  0
   61.2729   33.9595   45.3497 H   0  0  0  0  0  0  0  0  0  0  0  0
   63.3754   33.0056   46.2905 H   0  0  0  0  0  0  0  0  0  0  0  0
   61.9474   33.7930   50.2963 H   0  0  0  0  0  0  0  0  0  0  0  0
   59.8412   34.7523   49.3613 H   0  0  0  0  0  0  0  0  0  0  0  0
   56.2236   31.9481   45.1781 H   0  0  0  0  0  0  0  0  0  0  0  0
   57.0448   32.9809   43.9640 H   0  0  0  0  0  0  0  0  0  0  0  0
   57.4970   30.4774   43.7347 H   0  0  0  0  0  0  0  0  0  0  0  0
   58.9679   31.5114   43.9008 H   0  0  0  0  0  0  0  0  0  0  0  0
   60.4581   28.5249   46.7441 H   0  0  0  0  0  0  0  0  0  0  0  0
   60.0619   25.9901   45.8767 H   0  0  0  0  0  0  0  0  0  0  0  0
   57.3367   26.1245   43.0985 H   0  0  0  0  0  0  0  0  0  0  0  0
   58.5535   25.0274   43.8447 H   0  0  0  0  0  0  0  0  0  0  0  0
   55.6459   24.4118   43.1624 H   0  0  0  0  0  0  0  0  0  0  0  0
   57.4086   22.8229   43.2425 H   0  0  0  0  0  0  0  0  0  0  0  0
   56.2326   21.9454   44.2054 H   0  0  0  0  0  0  0  0  0  0  0  0
   58.7784   23.1150   45.0773 H   0  0  0  0  0  0  0  0  0  0  0  0
   57.6628   22.2106   46.0858 H   0  0  0  0  0  0  0  0  0  0  0  0
   58.0747   24.8691   46.5341 H   0  0  0  0  0  0  0  0  0  0  0  0
   56.1874   24.7590   47.8584 H   0  0  0  0  0  0  0  0  0  0  0  0
   56.0548   23.0588   47.2255 H   0  0  0  0  0  0  0  0  0  0  0  0
   53.8048   24.3664   44.5655 H   0  0  0  0  0  0  0  0  0  0  0  0
   54.5304   22.8057   45.1537 H   0  0  0  0  0  0  0  0  0  0  0  0
   59.0855   30.3875   47.6120 H   0  0  0  0  0  0  0  0  0  0  0  0
   60.0453   31.4384   46.5002 H   0  0  0  0  0  0  0  0  0  0  0  0
   57.2156   31.9137   47.5546 H   0  0  0  0  0  0  0  0  0  0  0  0
   58.6839   32.9076   47.8408 H   0  0  0  0  0  0  0  0  0  0  0  0
  1  2  2  0
  2  3  1  0
  3  4  1  0
  4  5  2  0
  5  6  1  0
  6  7  2  0
  7  8  1  0
  7  9  1  0
  9 10  2  0
  2 11  1  0
 11 12  1  0
 12 13  1  0
 13 14  1  0
 14 15  1  0
 15 16  2  0
 16 17  1  0
 17 18  2  0
 18 19  1  0
 19 20  1  0
 20 21  1  0
 21 22  1  0
 22 23  1  0
 23 24  1  0
 24 25  1  0
 25 26  1  0
 26 27  1  0
 18 28  1  0
 14 29  1  0
 29 30  1  0
 10  4  1  0
 30 11  1  0
 28 15  1  0
 24 20  1  0
 27 21  1  0
  5 31  1  0
  6 32  1  0
  9 33  1  0
 10 34  1  0
 12 35  1  0
 12 36  1  0
 13 37  1  0
 13 38  1  0
 16 39  1  0
 17 40  1  0
 19 41  1  0
 19 42  1  0
 21 43  1  6
 22 44  1  0
 22 45  1  0
 23 46  1  0
 23 47  1  0
 24 48  1  1
 25 49  1  0
 25 50  1  0
 27 51  1  0
 27 52  1  0
 29 53  1  0
 29 54  1  0
 30 55  1  0
 30 56  1  0
M  CHG  1   3  -1
M  END
>  <UniqueID>  (66) 
54

>  <SMILES>  (66) 
O=C([N-]c1ccc(Cl)cc1)N1CCN(c2ccc(CN3[C@@H]4CC[C@H]3COC4)o2)CC1

>  <Energy>  (66) 
113.36904885533102

>  <Genealogy>  (66) 
O=C([N-]c1ccc(Cl)cc1)N1CCN(c2ccc(CN3C4CCC3COC4)o2)CC1 (protonated)
O=C([N-]c1ccc(Cl)cc1)N1CCN(c2ccc(CN3[C@@H]4CC[C@H]3COC4)o2)CC1 (chirality)
O=C([N-]c1ccc(Cl)cc1)N1CCN(c2ccc(CN3[C@@H]4CC[C@H]3COC4)o2)CC1 (3D coordinates assigned)
O=C([N-]c1ccc(Cl)cc1)N1CCN(c2ccc(CN3[C@@H]4CC[C@H]3COC4)o2)CC1 (nonaromatic ring conformer: 113.36904885533102 kcal/mol)

>  <smiles>  (66) 
O=C(Nc1ccc(Cl)cc1)N1CCN(c2ccc(CN3C4CCC3COC4)o2)CC1

>  <score_type>  (66) 
oracle

>  <origin>  (66) 
adg

>  <m_score__min__energy>  (66) 
-10.359999999999999

>  <m_primary>  (66) 
energy

$$$$
66:0
     RDKit          3D

 30 31  0  0  0  0  0  0  0  0999 V2000
   60.7286   29.1448   44.5596 H   0  0  0  0  0  0  0  0  0  0  0  0
   60.0080   29.4780   45.3210 C   0  0  0  0  0  0  0  0  0  0  0  0
   60.2800   30.5230   46.0460 N   0  0  0  0  0  0  0  0  0  0  0  0
   59.3190   31.5770   46.3860 C   0  0  0  0  0  0  0  0  0  0  0  0
   58.4992   31.1025   46.9453 H   0  0  0  0  0  0  0  0  0  0  0  0
   59.9490   32.6450   47.3070 C   0  0  0  0  0  0  0  0  0  0  0  0
   59.8723   32.3037   48.3499 H   0  0  0  0  0  0  0  0  0  0  0  0
   60.9988   32.7752   47.0055 H   0  0  0  0  0  0  0  0  0  0  0  0
   59.2450   34.0120   47.1780 C   0  0  0  0  0  0  0  0  0  0  0  0
   59.3245   34.5463   48.1362 H   0  0  0  0  0  0  0  0  0  0  0  0
   59.7354   34.5766   46.3713 H   0  0  0  0  0  0  0  0  0  0  0  0
   57.8250   33.8590   46.8340 N   0  0  0  0  0  0  0  0  0  0  0  0
   57.3690   33.2460   47.5500 H   0  0  0  0  0  0  0  0  0  0  0  0
   57.6390   33.2640   45.4950 C   0  0  0  0  0  0  0  0  0  0  0  0
   56.6524   32.7786   45.4650 H   0  0  0  0  0  0  0  0  0  0  0  0
   57.7274   34.0823   44.7652 H   0  0  0  0  0  0  0  0  0  0  0  0
   58.7110   32.2130   45.1260 C   0  0  0  0  0  0  0  0  0  0  0  0
   58.2465   31.4255   44.5144 H   0  0  0  0  0  0  0  0  0  0  0  0
   59.5138   32.7146   44.5657 H   0  0  0  0  0  0  0  0  0  0  0  0
   58.7470   28.7320   45.5040 C   0  0  0  0  0  0  0  0  0  0  0  0
   58.7290   27.4520   46.0890 C   0  0  0  0  0  0  0  0  0  0  0  0
   59.6697   26.9880   46.4201 H   0  0  0  0  0  0  0  0  0  0  0  0
   57.5210   26.7680   46.2510 C   0  0  0  0  0  0  0  0  0  0  0  0
   57.5145   25.7683   46.7098 H   0  0  0  0  0  0  0  0  0  0  0  0
   56.3210   27.3500   45.8320 C   0  0  0  0  0  0  0  0  0  0  0  0
   55.1250   26.6630   45.9970 O   0  0  0  0  0  0  0  0  0  0  0  0
   56.3290   28.6230   45.2490 C   0  0  0  0  0  0  0  0  0  0  0  0
   55.1390   29.2070   44.8310 O   0  0  0  0  0  0  0  0  0  0  0  0
   57.5370   29.3100   45.0870 C   0  0  0  0  0  0  0  0  0  0  0  0
   57.5390   30.3104   44.6296 H   0  0  0  0  0  0  0  0  0  0  0  0
  1  2  1  0
  2  3  2  0
  3  4  1  0
  4  5  1  0
  4  6  1  0
  6  7  1  0
  6  8  1  0
  6  9  1  0
  9 10  1  0
  9 11  1  0
  9 12  1  0
 12 13  1  0
 12 14  1  0
 14 15  1  0
 14 16  1  0
 14 17  1  0
 17 18  1  0
 17 19  1  0
  2 20  1  0
 20 21  2  0
 21 22  1  0
 21 23  1  0
 23 24  1  0
 23 25  2  0
 25 26  1  0
 25 27  1  0
 27 28  1  0
 27 29  2  0
 29 30  1  0
 17  4  1  0
 29 20  1  0
M  CHG  2  26  -1  28  -1
M  END
>  <UniqueID>  (67) 
55

>  <SMILES>  (67) 
[O-]c1ccc(/C=N/C2CCNCC2)cc1[O-]

>  <Energy>  (67) 
33.775145201801536

>  <Genealogy>  (67) 
[O-]c1ccc(C=NC2CCNCC2)cc1[O-] (protonated)
[O-]c1ccc(/C=N/C2CCNCC2)cc1[O-] (cis-trans isomerization)
[O-]c1ccc(/C=N/C2CCNCC2)cc1[O-] (3D coordinates assigned)
[O-]c1ccc(/C=N/C2CCNCC2)cc1[O-] (nonaromatic ring conformer: 33.775145201801536 kcal/mol)

>  <smiles>  (67) 
Oc1ccc(C=NC2CCNCC2)cc1O

>  <score_type>  (67) 
oracle

>  <origin>  (67) 
adg

>  <m_score__min__energy>  (67) 
-14.49

>  <m_primary>  (67) 
energy

$$$$
67:0
     RDKit          3D

 59 63  0  0  0  0  0  0  0  0999 V2000
   58.7780   25.8930   48.1660 O   0  0  0  0  0  0  0  0  0  0  0  0
   59.4280   26.5820   47.3320 C   0  0  0  0  0  0  0  0  0  0  0  0
   59.7250   25.9750   45.9810 C   0  0  0  0  0  0  0  0  0  0  0  0
   58.5070   25.9060   45.1540 N   0  0  0  0  0  0  0  0  0  0  0  0
   57.8290   27.1150   44.7360 C   0  0  0  0  0  0  0  0  0  0  0  0
   57.0660   27.8750   45.6450 C   0  0  0  0  0  0  0  0  0  0  0  0
   56.4310   29.0490   45.2290 C   0  0  0  0  0  0  0  0  0  0  0  0
   56.5500   29.4810   43.9070 C   0  0  0  0  0  0  0  0  0  0  0  0
   57.3050   28.7390   42.9960 C   0  0  0  0  0  0  0  0  0  0  0  0
   57.9420   27.5650   43.4060 C   0  0  0  0  0  0  0  0  0  0  0  0
   57.9970   24.6190   44.7490 C   0  0  0  0  0  0  0  0  0  0  0  0
   58.4890   23.4430   45.3450 C   0  0  0  0  0  0  0  0  0  0  0  0
   57.9910   22.1950   44.9610 C   0  0  0  0  0  0  0  0  0  0  0  0
   56.9970   22.1080   43.9830 C   0  0  0  0  0  0  0  0  0  0  0  0
   56.4980   23.2690   43.3870 C   0  0  0  0  0  0  0  0  0  0  0  0
   56.9930   24.5200   43.7680 C   0  0  0  0  0  0  0  0  0  0  0  0
   59.7920   27.9450   47.6570 N   0  0  0  0  0  0  0  0  0  0  0  0
   60.7830   28.6670   46.8400 C   0  0  0  0  0  0  0  0  0  0  0  0
   61.1310   30.0380   47.4290 C   0  0  0  0  0  0  0  0  0  0  0  0
   59.9070   30.7300   47.8380 N   0  0  0  0  0  0  0  0  0  0  0  0
   59.7910   32.1450   47.6380 C   0  0  0  0  0  0  0  0  0  0  0  0
   60.4200   33.0140   48.5390 C   0  0  0  0  0  0  0  0  0  0  0  0
   60.3230   34.3970   48.3740 C   0  0  0  0  0  0  0  0  0  0  0  0
   59.5980   34.9290   47.3060 C   0  0  0  0  0  0  0  0  0  0  0  0
   58.9650   34.0780   46.3890 C   0  0  0  0  0  0  0  0  0  0  0  0
   58.2400   34.6110   45.3110 C   0  0  0  0  0  0  0  0  0  0  0  0
   57.6140   33.7610   44.3970 C   0  0  0  0  0  0  0  0  0  0  0  0
   57.7070   32.3770   44.5470 C   0  0  0  0  0  0  0  0  0  0  0  0
   58.4240   31.8300   45.6140 C   0  0  0  0  0  0  0  0  0  0  0  0
   59.0600   32.6700   46.5490 C   0  0  0  0  0  0  0  0  0  0  0  0
   58.8640   30.0290   48.5950 C   0  0  0  0  0  0  0  0  0  0  0  0
   59.2580   28.5750   48.8750 C   0  0  0  0  0  0  0  0  0  0  0  0
   60.4751   26.5931   45.4659 H   0  0  0  0  0  0  0  0  0  0  0  0
   60.1050   24.9537   46.1314 H   0  0  0  0  0  0  0  0  0  0  0  0
   56.9694   27.5422   46.6890 H   0  0  0  0  0  0  0  0  0  0  0  0
   55.8358   29.6340   45.9456 H   0  0  0  0  0  0  0  0  0  0  0  0
   56.0494   30.4053   43.5829 H   0  0  0  0  0  0  0  0  0  0  0  0
   57.3983   29.0794   41.9542 H   0  0  0  0  0  0  0  0  0  0  0  0
   58.5371   26.9869   42.6837 H   0  0  0  0  0  0  0  0  0  0  0  0
   59.2697   23.5064   46.1173 H   0  0  0  0  0  0  0  0  0  0  0  0
   58.3822   21.2798   45.4294 H   0  0  0  0  0  0  0  0  0  0  0  0
   56.6069   21.1245   43.6820 H   0  0  0  0  0  0  0  0  0  0  0  0
   55.7151   23.1989   42.6175 H   0  0  0  0  0  0  0  0  0  0  0  0
   56.5954   25.4318   43.2983 H   0  0  0  0  0  0  0  0  0  0  0  0
   61.7008   28.0635   46.7812 H   0  0  0  0  0  0  0  0  0  0  0  0
   60.3455   28.8289   45.8438 H   0  0  0  0  0  0  0  0  0  0  0  0
   61.7840   29.9039   48.3040 H   0  0  0  0  0  0  0  0  0  0  0  0
   61.6492   30.6386   46.6669 H   0  0  0  0  0  0  0  0  0  0  0  0
   60.9945   32.6037   49.3826 H   0  0  0  0  0  0  0  0  0  0  0  0
   60.8197   35.0701   49.0883 H   0  0  0  0  0  0  0  0  0  0  0  0
   59.5232   36.0196   47.1836 H   0  0  0  0  0  0  0  0  0  0  0  0
   58.1650   35.7013   45.1862 H   0  0  0  0  0  0  0  0  0  0  0  0
   57.0455   34.1841   43.5557 H   0  0  0  0  0  0  0  0  0  0  0  0
   57.2135   31.7134   43.8217 H   0  0  0  0  0  0  0  0  0  0  0  0
   58.4923   30.7377   45.7246 H   0  0  0  0  0  0  0  0  0  0  0  0
   58.7066   30.5478   49.5521 H   0  0  0  0  0  0  0  0  0  0  0  0
   57.9420   30.0284   47.9950 H   0  0  0  0  0  0  0  0  0  0  0  0
   60.0267   28.5527   49.6615 H   0  0  0  0  0  0  0  0  0  0  0  0
   58.3663   28.0202   49.2024 H   0  0  0  0  0  0  0  0  0  0  0  0
  1  2  2  0
  2  3  1  0
  3  4  1  0
  4  5  1  0
  5  6  2  0
  6  7  1  0
  7  8  2  0
  8  9  1  0
  9 10  2  0
  4 11  1  0
 11 12  2  0
 12 13  1  0
 13 14  2  0
 14 15  1  0
 15 16  2  0
  2 17  1  0
 17 18  1  0
 18 19  1  0
 19 20  1  0
 20 21  1  0
 21 22  2  0
 22 23  1  0
 23 24  2  0
 24 25  1  0
 25 26  2  0
 26 27  1  0
 27 28  2  0
 28 29  1  0
 29 30  2  0
 20 31  1  0
 31 32  1  0
 10  5  1  0
 16 11  1  0
 32 17  1  0
 30 21  1  0
 30 25  1  0
  3 33  1  0
  3 34  1  0
  6 35  1  0
  7 36  1  0
  8 37  1  0
  9 38  1  0
 10 39  1  0
 12 40  1  0
 13 41  1  0
 14 42  1  0
 15 43  1  0
 16 44  1  0
 18 45  1  0
 18 46  1  0
 19 47  1  0
 19 48  1  0
 22 49  1  0
 23 50  1  0
 24 51  1  0
 26 52  1  0
 27 53  1  0
 28 54  1  0
 29 55  1  0
 31 56  1  0
 31 57  1  0
 32 58  1  0
 32 59  1  0
M  END
>  <UniqueID>  (68) 
56

>  <SMILES>  (68) 
O=C(CN(c1ccccc1)c1ccccc1)N1CCN(c2cccc3ccccc23)CC1

>  <Energy>  (68) 
83.1340001273714

>  <Genealogy>  (68) 
O=C(CN(c1ccccc1)c1ccccc1)N1CCN(c2cccc3ccccc23)CC1 (3D coordinates assigned)
O=C(CN(c1ccccc1)c1ccccc1)N1CCN(c2cccc3ccccc23)CC1 (nonaromatic ring conformer: 83.1340001273714 kcal/mol)

>  <smiles>  (68) 
O=C(CN(c1ccccc1)c1ccccc1)N1CCN(c2cccc3ccccc23)CC1

>  <score_type>  (68) 
oracle

>  <origin>  (68) 
adg

>  <m_score__min__energy>  (68) 
-8.8000000000000007

>  <m_primary>  (68) 
energy

$$$$
68:0
     RDKit          3D

 48 51  0  0  0  0  0  0  0  0999 V2000
   55.1670   29.3440   44.8710 O   0  0  0  0  0  0  0  0  0  0  0  0
   56.3010   29.8460   44.6520 C   0  0  0  0  0  0  0  0  0  0  0  0
   56.4090   31.2640   44.4860 N   0  0  0  0  0  0  0  0  0  0  0  0
   57.4600   32.0940   44.9990 C   0  0  0  0  0  0  0  0  0  0  0  0
   58.3280   31.6470   46.0100 C   0  0  0  0  0  0  0  0  0  0  0  0
   59.3270   32.4910   46.5040 C   0  0  0  0  0  0  0  0  0  0  0  0
   59.4720   33.7880   46.0020 C   0  0  0  0  0  0  0  0  0  0  0  0
   60.4790   34.6090   46.5320 O   0  0  0  0  0  0  0  0  0  0  0  0
   61.6360   34.1580   47.1840 C   0  0  0  0  0  0  0  0  0  0  0  0
   62.7580   33.8220   46.4190 C   0  0  0  0  0  0  0  0  0  0  0  0
   63.9000   33.3980   47.0250 N   0  0  0  0  0  0  0  0  0  0  0  0
   63.9960   33.2960   48.3770 C   0  0  0  0  0  0  0  0  0  0  0  0
   62.9090   33.6410   49.1840 C   0  0  0  0  0  0  0  0  0  0  0  0
   63.0310   33.5330   50.9300 Cl  0  0  0  0  0  0  0  0  0  0  0  0
   61.7260   34.0810   48.5840 C   0  0  0  0  0  0  0  0  0  0  0  0
   58.5750   34.2510   45.0220 C   0  0  0  0  0  0  0  0  0  0  0  0
   57.5760   33.4070   44.5290 C   0  0  0  0  0  0  0  0  0  0  0  0
   57.4450   28.9960   44.4700 N   0  0  0  0  0  0  0  0  0  0  0  0
   57.5260   27.6420   44.9470 C   0  0  0  0  0  0  0  0  0  0  0  0
   57.4110   27.3380   46.3160 C   0  0  0  0  0  0  0  0  0  0  0  0
   57.5190   26.0160   46.7580 C   0  0  0  0  0  0  0  0  0  0  0  0
   57.7690   24.9800   45.8410 C   0  0  0  0  0  0  0  0  0  0  0  0
   57.8660   23.6400   46.2430 O   0  0  0  0  0  0  0  0  0  0  0  0
   56.8320   22.6950   46.1770 C   0  0  0  0  0  0  0  0  0  0  0  0
   55.5270   23.1030   46.4810 C   0  0  0  0  0  0  0  0  0  0  0  0
   54.4670   22.1920   46.4120 C   0  0  0  0  0  0  0  0  0  0  0  0
   54.7040   20.8700   46.0250 C   0  0  0  0  0  0  0  0  0  0  0  0
   56.0000   20.4590   45.7000 C   0  0  0  0  0  0  0  0  0  0  0  0
   57.0610   21.3670   45.7680 C   0  0  0  0  0  0  0  0  0  0  0  0
   57.8810   25.2840   44.4800 C   0  0  0  0  0  0  0  0  0  0  0  0
   57.7750   26.6050   44.0370 C   0  0  0  0  0  0  0  0  0  0  0  0
   58.2209   30.6295   46.4140 H   0  0  0  0  0  0  0  0  0  0  0  0
   60.0039   32.1322   47.2933 H   0  0  0  0  0  0  0  0  0  0  0  0
   62.7168   33.9009   45.3226 H   0  0  0  0  0  0  0  0  0  0  0  0
   64.9305   32.9414   48.8362 H   0  0  0  0  0  0  0  0  0  0  0  0
   60.8659   34.3668   49.2074 H   0  0  0  0  0  0  0  0  0  0  0  0
   58.6602   35.2800   44.6428 H   0  0  0  0  0  0  0  0  0  0  0  0
   56.8757   33.7776   43.7659 H   0  0  0  0  0  0  0  0  0  0  0  0
   58.2290   29.3590   43.8810 H   0  0  0  0  0  0  0  0  0  0  0  0
   57.2351   28.1450   47.0426 H   0  0  0  0  0  0  0  0  0  0  0  0
   57.4079   25.7854   47.8278 H   0  0  0  0  0  0  0  0  0  0  0  0
   55.3343   24.1452   46.7756 H   0  0  0  0  0  0  0  0  0  0  0  0
   53.4463   22.5166   46.6626 H   0  0  0  0  0  0  0  0  0  0  0  0
   53.8710   20.1533   45.9762 H   0  0  0  0  0  0  0  0  0  0  0  0
   56.1853   19.4199   45.3904 H   0  0  0  0  0  0  0  0  0  0  0  0
   58.0778   21.0431   45.5012 H   0  0  0  0  0  0  0  0  0  0  0  0
   58.0539   24.4768   43.7530 H   0  0  0  0  0  0  0  0  0  0  0  0
   57.8877   26.8329   42.9668 H   0  0  0  0  0  0  0  0  0  0  0  0
  1  2  2  0
  2  3  1  0
  3  4  1  0
  4  5  2  0
  5  6  1  0
  6  7  2  0
  7  8  1  0
  8  9  1  0
  9 10  2  0
 10 11  1  0
 11 12  2  0
 12 13  1  0
 13 14  1  0
 13 15  2  0
  7 16  1  0
 16 17  2  0
  2 18  1  0
 18 19  1  0
 19 20  2  0
 20 21  1  0
 21 22  2  0
 22 23  1  0
 23 24  1  0
 24 25  2  0
 25 26  1  0
 26 27  2  0
 27 28  1  0
 28 29  2  0
 22 30  1  0
 30 31  2  0
 17  4  1  0
 31 19  1  0
 15  9  1  0
 29 24  1  0
  5 32  1  0
  6 33  1  0
 10 34  1  0
 12 35  1  0
 15 36  1  0
 16 37  1  0
 17 38  1  0
 18 39  1  0
 20 40  1  0
 21 41  1  0
 25 42  1  0
 26 43  1  0
 27 44  1  0
 28 45  1  0
 29 46  1  0
 30 47  1  0
 31 48  1  0
M  CHG  1   3  -1
M  END
>  <UniqueID>  (69) 
57

>  <SMILES>  (69) 
O=C([N-]c1ccc(Oc2cncc(Cl)c2)cc1)Nc1ccc(Oc2ccccc2)cc1

>  <Energy>  (69) 
73.56855289474956

>  <Genealogy>  (69) 
O=C([N-]c1ccc(Oc2cncc(Cl)c2)cc1)Nc1ccc(Oc2ccccc2)cc1 (protonated)
O=C([N-]c1ccc(Oc2cncc(Cl)c2)cc1)Nc1ccc(Oc2ccccc2)cc1 (3D coordinates assigned)
O=C([N-]c1ccc(Oc2cncc(Cl)c2)cc1)Nc1ccc(Oc2ccccc2)cc1 (optimized conformer: 73.56855289474956 kcal/mol)

>  <smiles>  (69) 
O=C(Nc1ccc(Oc2ccccc2)cc1)Nc1ccc(Oc2cncc(Cl)c2)cc1

>  <score_type>  (69) 
oracle

>  <origin>  (69) 
adg

>  <m_score__min__energy>  (69) 
-10.550000000000001

>  <m_primary>  (69) 
energy

$$$$
69:0
     RDKit          3D

 46 49  0  0  0  0  0  0  0  0999 V2000
   56.6420   30.3150   43.4400 C   0  0  0  0  0  0  0  0  0  0  0  0
   56.4960   30.9450   44.7090 O   0  0  0  0  0  0  0  0  0  0  0  0
   57.4080   31.8650   45.2460 C   0  0  0  0  0  0  0  0  0  0  0  0
   57.6030   33.1410   44.6950 C   0  0  0  0  0  0  0  0  0  0  0  0
   58.5410   34.0100   45.2500 C   0  0  0  0  0  0  0  0  0  0  0  0
   59.2960   33.6290   46.3680 C   0  0  0  0  0  0  0  0  0  0  0  0
   59.0690   32.3660   46.9790 C   0  0  0  0  0  0  0  0  0  0  0  0
   58.1460   31.4870   46.3720 C   0  0  0  0  0  0  0  0  0  0  0  0
   59.8630   31.9030   48.2240 C   0  0  2  0  0  0  0  0  0  0  0  0
   58.8690   31.2390   49.2500 C   0  0  0  0  0  0  0  0  0  0  0  0
   59.1820   31.5760   50.7150 C   0  0  0  0  0  0  0  0  0  0  0  0
   59.1400   33.1000   50.9660 C   0  0  0  0  0  0  0  0  0  0  0  0
   59.6470   33.9330   49.7670 C   0  0  0  0  0  0  0  0  0  0  0  0
   60.6000   33.0960   48.8920 C   0  0  2  0  0  0  0  0  0  0  0  0
   61.3600   33.8600   47.7850 C   0  0  2  0  0  0  0  0  0  0  0  0
   60.3400   34.5880   46.8910 C   0  0  0  0  0  0  0  0  0  0  0  0
   62.2140   32.9380   46.9470 N   0  0  1  0  0  0  0  0  0  0  0  0
   63.5570   33.5150   46.7510 C   0  0  0  0  0  0  0  0  0  0  0  0
   62.3390   31.5570   47.4810 C   0  0  0  0  0  0  0  0  0  0  0  0
   60.9640   30.8930   47.7680 C   0  0  0  0  0  0  0  0  0  0  0  0
   56.8882   29.2526   43.5842 H   0  0  0  0  0  0  0  0  0  0  0  0
   55.7003   30.4001   42.8779 H   0  0  0  0  0  0  0  0  0  0  0  0
   57.4502   30.8057   42.8779 H   0  0  0  0  0  0  0  0  0  0  0  0
   57.0133   33.4566   43.8217 H   0  0  0  0  0  0  0  0  0  0  0  0
   58.6903   35.0053   44.8060 H   0  0  0  0  0  0  0  0  0  0  0  0
   58.0041   30.4814   46.7946 H   0  0  0  0  0  0  0  0  0  0  0  0
   57.8507   31.5875   49.0229 H   0  0  0  0  0  0  0  0  0  0  0  0
   58.9725   30.1494   49.1404 H   0  0  0  0  0  0  0  0  0  0  0  0
   58.4385   31.0865   51.3612 H   0  0  0  0  0  0  0  0  0  0  0  0
   60.1961   31.2161   50.9433 H   0  0  0  0  0  0  0  0  0  0  0  0
   58.1003   33.3901   51.1775 H   0  0  0  0  0  0  0  0  0  0  0  0
   59.8100   33.3085   51.8131 H   0  0  0  0  0  0  0  0  0  0  0  0
   58.7875   34.2546   49.1605 H   0  0  0  0  0  0  0  0  0  0  0  0
   60.1918   34.8094   50.1480 H   0  0  0  0  0  0  0  0  0  0  0  0
   61.3539   32.7577   49.6180 H   0  0  0  0  0  0  0  0  0  0  0  0
   62.0349   34.5840   48.2650 H   0  0  0  0  0  0  0  0  0  0  0  0
   59.8437   35.3745   47.4785 H   0  0  0  0  0  0  0  0  0  0  0  0
   60.8742   35.0254   46.0346 H   0  0  0  0  0  0  0  0  0  0  0  0
   61.8070   32.8330   45.9870 H   0  0  0  0  0  0  0  0  0  0  0  0
   64.0175   33.7129   47.7302 H   0  0  0  0  0  0  0  0  0  0  0  0
   64.1821   32.8060   46.1883 H   0  0  0  0  0  0  0  0  0  0  0  0
   63.4730   34.4565   46.1883 H   0  0  0  0  0  0  0  0  0  0  0  0
   62.8782   30.9433   46.7443 H   0  0  0  0  0  0  0  0  0  0  0  0
   62.8808   31.6202   48.4362 H   0  0  0  0  0  0  0  0  0  0  0  0
   60.6200   30.3953   46.8493 H   0  0  0  0  0  0  0  0  0  0  0  0
   61.1149   30.1855   48.5967 H   0  0  0  0  0  0  0  0  0  0  0  0
  1  2  1  0
  2  3  1  0
  3  4  2  0
  4  5  1  0
  5  6  2  0
  6  7  1  0
  7  8  2  0
  7  9  1  0
  9 10  1  1
 10 11  1  0
 11 12  1  0
 12 13  1  0
 13 14  1  0
 14 15  1  0
 15 16  1  0
 15 17  1  0
 17 18  1  0
 17 19  1  0
 19 20  1  0
  8  3  1  0
 14  9  1  0
 16  6  1  0
 20  9  1  0
  1 21  1  0
  1 22  1  0
  1 23  1  0
  4 24  1  0
  5 25  1  0
  8 26  1  0
 10 27  1  0
 10 28  1  0
 11 29  1  0
 11 30  1  0
 12 31  1  0
 12 32  1  0
 13 33  1  0
 13 34  1  0
 14 35  1  1
 15 36  1  1
 16 37  1  0
 16 38  1  0
 17 39  1  6
 18 40  1  0
 18 41  1  0
 18 42  1  0
 19 43  1  0
 19 44  1  0
 20 45  1  0
 20 46  1  0
M  CHG  1  17   1
M  END
>  <UniqueID>  (70) 
58

>  <SMILES>  (70) 
COc1ccc2c(c1)[C@]13CCCC[C@@H]1C(C2)[NH+](C)CC3

>  <Energy>  (70) 
75.50434435364178

>  <Genealogy>  (70) 
COc1ccc2c(c1)C13CCCCC1C(C2)[NH+](C)CC3 (protonated)
COc1ccc2c(c1)[C@]13CCCC[C@@H]1C(C2)[NH+](C)CC3 (chirality)
COc1ccc2c(c1)[C@]13CCCC[C@@H]1C(C2)[NH+](C)CC3 (3D coordinates assigned)
COc1ccc2c(c1)[C@]13CCCC[C@@H]1C(C2)[NH+](C)CC3 (nonaromatic ring conformer: 75.50434435364178 kcal/mol)

>  <smiles>  (70) 
COc1ccc2c(c1)C13CCCCC1C(C2)N(C)CC3

>  <score_type>  (70) 
oracle

>  <origin>  (70) 
adg

>  <m_score__min__energy>  (70) 
-6.5

>  <m_primary>  (70) 
energy

$$$$
70:0
     RDKit          3D

 30 31  0  0  0  0  0  0  0  0999 V2000
   54.7220   27.0850   46.6970 H   0  0  0  0  0  0  0  0  0  0  0  0
   54.7620   26.3250   45.9810 N   0  0  0  0  0  0  0  0  0  0  0  0
   56.2210   25.4420   46.2650 S   0  0  0  0  0  0  0  0  0  0  0  0
   56.0980   24.6660   47.5470 O   0  0  0  0  0  0  0  0  0  0  0  0
   56.4530   24.4780   45.1360 O   0  0  0  0  0  0  0  0  0  0  0  0
   57.5700   26.5670   46.3740 C   0  0  0  0  0  0  0  0  0  0  0  0
   58.4950   26.4620   47.4230 C   0  0  0  0  0  0  0  0  0  0  0  0
   58.3845   25.6666   48.1748 H   0  0  0  0  0  0  0  0  0  0  0  0
   59.5570   27.3660   47.5150 C   0  0  0  0  0  0  0  0  0  0  0  0
   60.2836   27.2771   48.3360 H   0  0  0  0  0  0  0  0  0  0  0  0
   59.6980   28.3830   46.5660 C   0  0  0  0  0  0  0  0  0  0  0  0
   60.5364   29.0914   46.6387 H   0  0  0  0  0  0  0  0  0  0  0  0
   58.7710   28.4990   45.5230 C   0  0  0  0  0  0  0  0  0  0  0  0
   58.9400   29.8140   44.3160 S   0  0  0  0  0  0  0  0  0  0  0  0
   57.2590   30.3690   44.5680 C   0  0  0  0  0  0  0  0  0  0  0  0
   56.0150   29.7800   43.4690 Cl  0  0  0  0  0  0  0  0  0  0  0  0
   57.0210   31.2460   45.4990 N   0  0  0  0  0  0  0  0  0  0  0  0
   57.7630   32.4490   45.7410 C   0  0  0  0  0  0  0  0  0  0  0  0
   57.9210   33.3720   44.6980 C   0  0  0  0  0  0  0  0  0  0  0  0
   57.4471   33.1829   43.7235 H   0  0  0  0  0  0  0  0  0  0  0  0
   58.6780   34.5320   44.8900 C   0  0  0  0  0  0  0  0  0  0  0  0
   58.7832   35.2610   44.0730 H   0  0  0  0  0  0  0  0  0  0  0  0
   59.3010   34.7660   46.1190 C   0  0  0  0  0  0  0  0  0  0  0  0
   59.8883   35.6834   46.2720 H   0  0  0  0  0  0  0  0  0  0  0  0
   59.1780   33.8350   47.1530 C   0  0  0  0  0  0  0  0  0  0  0  0
   59.6766   34.0152   48.1168 H   0  0  0  0  0  0  0  0  0  0  0  0
   58.4210   32.6730   46.9640 C   0  0  0  0  0  0  0  0  0  0  0  0
   58.3404   31.9330   47.7739 H   0  0  0  0  0  0  0  0  0  0  0  0
   57.7100   27.5910   45.4260 C   0  0  0  0  0  0  0  0  0  0  0  0
   56.9843   27.6809   44.6042 H   0  0  0  0  0  0  0  0  0  0  0  0
  1  2  1  0
  2  3  1  0
  3  4  2  0
  3  5  2  0
  3  6  1  0
  6  7  2  0
  7  8  1  0
  7  9  1  0
  9 10  1  0
  9 11  2  0
 11 12  1  0
 11 13  1  0
 13 14  1  0
 14 15  1  0
 15 16  1  0
 15 17  2  0
 17 18  1  0
 18 19  2  0
 19 20  1  0
 19 21  1  0
 21 22  1  0
 21 23  2  0
 23 24  1  0
 23 25  1  0
 25 26  1  0
 25 27  2  0
 27 28  1  0
 13 29  2  0
 29 30  1  0
 29  6  1  0
 27 18  1  0
M  CHG  1   2  -1
M  END
>  <UniqueID>  (71) 
59

>  <SMILES>  (71) 
[NH-]S(=O)(=O)c1cccc(S/C(Cl)=N/c2ccccc2)c1

>  <Energy>  (71) 
32.65905322176315

>  <Genealogy>  (71) 
[NH-]S(=O)(=O)c1cccc(SC(Cl)=Nc2ccccc2)c1 (protonated)
[NH-]S(=O)(=O)c1cccc(S/C(Cl)=N/c2ccccc2)c1 (cis-trans isomerization)
[NH-]S(=O)(=O)c1cccc(S/C(Cl)=N/c2ccccc2)c1 (3D coordinates assigned)
[NH-]S(=O)(=O)c1cccc(S/C(Cl)=N/c2ccccc2)c1 (optimized conformer: 32.65905322176315 kcal/mol)

>  <smiles>  (71) 
NS(=O)(=O)c1cccc(SC(Cl)=Nc2ccccc2)c1

>  <score_type>  (71) 
oracle

>  <origin>  (71) 
adg

>  <m_score__min__energy>  (71) 
-11.75

>  <m_primary>  (71) 
energy

$$$$
71:0
     RDKit          3D

 24 24  0  0  0  0  0  0  0  0999 V2000
   57.4990   31.9540   42.2730 C   0  0  0  0  0  0  0  0  0  0  0  0
   57.7090   32.0260   43.7150 N   0  0  0  0  0  0  0  0  0  0  0  0
   57.6640   30.8750   44.5770 C   0  0  0  0  0  0  0  0  0  0  0  0
   57.3800   29.3770   43.9590 S   0  0  0  0  0  0  0  0  0  0  0  0
   57.8200   31.0430   46.0010 N   0  0  0  0  0  0  0  0  0  0  0  0
   59.0990   31.6510   46.2990 C   0  0  0  0  0  0  0  0  0  0  0  0
   60.1500   30.8330   46.7630 C   0  0  0  0  0  0  0  0  0  0  0  0
   61.3800   31.3820   47.1240 C   0  0  0  0  0  0  0  0  0  0  0  0
   61.5820   32.7580   47.0430 C   0  0  0  0  0  0  0  0  0  0  0  0
   63.2650   33.5070   47.5470 Br  0  0  0  0  0  0  0  0  0  0  0  0
   60.5540   33.5890   46.5960 C   0  0  0  0  0  0  0  0  0  0  0  0
   59.3130   33.0560   46.2110 C   0  0  0  0  0  0  0  0  0  0  0  0
   58.2890   33.9580   45.7610 N   0  0  0  0  0  0  0  0  0  0  0  0
   57.0910   33.7310   46.0190 O   0  0  0  0  0  0  0  0  0  0  0  0
   58.5950   34.9200   44.8260 O   0  0  0  0  0  0  0  0  0  0  0  0
   56.4766   31.6035   42.0684 H   0  0  0  0  0  0  0  0  0  0  0  0
   57.6397   32.9517   41.8317 H   0  0  0  0  0  0  0  0  0  0  0  0
   58.2223   31.2525   41.8317 H   0  0  0  0  0  0  0  0  0  0  0  0
   57.9000   32.9640   44.1350 H   0  0  0  0  0  0  0  0  0  0  0  0
   57.0180   31.5910   46.3810 H   0  0  0  0  0  0  0  0  0  0  0  0
   57.7770   30.1080   46.4680 H   0  0  0  0  0  0  0  0  0  0  0  0
   59.9973   29.7465   46.8413 H   0  0  0  0  0  0  0  0  0  0  0  0
   62.1921   30.7275   47.4733 H   0  0  0  0  0  0  0  0  0  0  0  0
   60.7177   34.6755   46.5445 H   0  0  0  0  0  0  0  0  0  0  0  0
  1  2  1  0
  2  3  1  0
  3  4  2  0
  3  5  1  0
  5  6  1  0
  6  7  2  0
  7  8  1  0
  8  9  2  0
  9 10  1  0
  9 11  1  0
 11 12  2  0
 12 13  1  0
 13 14  2  0
 13 15  1  0
 12  6  1  0
  1 16  1  0
  1 17  1  0
  1 18  1  0
  2 19  1  0
  5 20  1  0
  5 21  1  0
  7 22  1  0
  8 23  1  0
 11 24  1  0
M  CHG  3   5   1  13   1  15  -1
M  END
>  <UniqueID>  (72) 
60

>  <SMILES>  (72) 
CNC(=S)[NH2+]c1ccc(Br)cc1[N+](=O)[O-]

>  <Energy>  (72) 
28.828319701424338

>  <Genealogy>  (72) 
CNC(=S)[NH2+]c1ccc(Br)cc1[N+](=O)[O-] (protonated)
CNC(=S)[NH2+]c1ccc(Br)cc1[N+](=O)[O-] (3D coordinates assigned)
CNC(=S)[NH2+]c1ccc(Br)cc1[N+](=O)[O-] (optimized conformer: 28.828319701424338 kcal/mol)

>  <smiles>  (72) 
CNC(=S)Nc1ccc(Br)cc1[N+](=O)[O-]

>  <score_type>  (72) 
oracle

>  <origin>  (72) 
adg

>  <m_score__min__energy>  (72) 
-4.3799999999999999

>  <m_primary>  (72) 
energy

$$$$
72:0
     RDKit          3D

 64 67  0  0  0  0  0  0  0  0999 V2000
   57.4740   31.9260   51.7820 C   0  0  0  0  0  0  0  0  0  0  0  0
   57.2190   30.4750   51.5660 C   0  0  0  0  0  0  0  0  0  0  0  0
   56.1790   29.9450   52.0440 O   0  0  0  0  0  0  0  0  0  0  0  0
   58.1270   29.7230   50.8120 O   0  0  0  0  0  0  0  0  0  0  0  0
   59.5450   29.7820   50.9970 C   0  0  1  0  0  0  0  0  0  0  0  0
   60.0070   28.5750   51.8290 C   0  0  0  0  0  0  0  0  0  0  0  0
   61.0350   27.9580   50.9710 C   0  0  0  0  0  0  0  0  0  0  0  0
   61.6930   26.9350   51.2890 O   0  0  0  0  0  0  0  0  0  0  0  0
   61.2050   28.6050   49.7710 O   0  0  0  0  0  0  0  0  0  0  0  0
   60.3390   29.7180   49.6550 C   0  0  1  0  0  0  0  0  0  0  0  0
   59.4700   29.5440   48.4440 C   0  0  0  0  0  0  0  0  0  0  0  0
   58.5300   30.3560   48.2290 O   0  0  0  0  0  0  0  0  0  0  0  0
   59.6820   28.4510   47.5940 O   0  0  0  0  0  0  0  0  0  0  0  0
   59.2100   27.1360   47.8760 C   0  0  0  0  0  0  0  0  0  0  0  0
   57.9840   26.7790   47.0180 C   0  0  0  0  0  0  0  0  0  0  0  0
   58.2480   25.6520   46.0020 C   0  0  0  0  0  0  0  0  0  0  0  0
   57.4110   25.7360   44.7070 C   0  0  0  0  0  0  0  0  0  0  0  0
   58.0800   26.5470   43.5840 C   0  0  0  0  0  0  0  0  0  0  0  0
   58.6220   27.8130   44.0800 N   0  0  0  0  0  0  0  0  0  0  0  0
   59.8960   28.0120   44.4990 C   0  0  0  0  0  0  0  0  0  0  0  0
   60.0710   29.3200   44.9360 C   0  0  0  0  0  0  0  0  0  0  0  0
   58.8450   29.9240   44.7660 C   0  0  0  0  0  0  0  0  0  0  0  0
   58.4350   31.2210   45.0650 C   0  0  0  0  0  0  0  0  0  0  0  0
   57.0930   31.5710   44.8210 C   0  0  0  0  0  0  0  0  0  0  0  0
   56.6830   32.8740   45.1460 O   0  0  0  0  0  0  0  0  0  0  0  0
   57.5260   34.0270   45.1340 C   0  0  0  0  0  0  0  0  0  0  0  0
   58.5690   33.9330   46.2170 C   0  0  0  0  0  0  0  0  0  0  0  0
   58.2260   33.4830   47.5040 C   0  0  0  0  0  0  0  0  0  0  0  0
   59.2040   33.3890   48.4990 C   0  0  0  0  0  0  0  0  0  0  0  0
   60.5270   33.7550   48.2190 C   0  0  0  0  0  0  0  0  0  0  0  0
   60.8740   34.2140   46.9450 C   0  0  0  0  0  0  0  0  0  0  0  0
   59.8990   34.3060   45.9470 C   0  0  0  0  0  0  0  0  0  0  0  0
   56.2080   30.6060   44.2670 C   0  0  0  0  0  0  0  0  0  0  0  0
   56.6510   29.3040   43.9780 C   0  0  0  0  0  0  0  0  0  0  0  0
   57.9870   28.9920   44.2410 C   0  0  0  0  0  0  0  0  0  0  0  0
   57.5108   32.1351   52.8613 H   0  0  0  0  0  0  0  0  0  0  0  0
   58.4344   32.2019   51.3221 H   0  0  0  0  0  0  0  0  0  0  0  0
   56.6652   32.5129   51.3221 H   0  0  0  0  0  0  0  0  0  0  0  0
   59.7459   30.7430   51.4931 H   0  0  0  0  0  0  0  0  0  0  0  0
   60.4347   28.8971   52.7899 H   0  0  0  0  0  0  0  0  0  0  0  0
   59.1885   27.8877   52.0892 H   0  0  0  0  0  0  0  0  0  0  0  0
   60.8659   30.6720   49.5056 H   0  0  0  0  0  0  0  0  0  0  0  0
   60.0143   26.4154   47.6668 H   0  0  0  0  0  0  0  0  0  0  0  0
   58.9129   27.0963   48.9344 H   0  0  0  0  0  0  0  0  0  0  0  0
   57.1720   26.4598   47.6879 H   0  0  0  0  0  0  0  0  0  0  0  0
   57.7220   27.6780   46.4409 H   0  0  0  0  0  0  0  0  0  0  0  0
   59.3118   25.6845   45.7242 H   0  0  0  0  0  0  0  0  0  0  0  0
   57.9564   24.7145   46.4980 H   0  0  0  0  0  0  0  0  0  0  0  0
   57.2375   24.7137   44.3398 H   0  0  0  0  0  0  0  0  0  0  0  0
   56.4767   26.2567   44.9639 H   0  0  0  0  0  0  0  0  0  0  0  0
   58.8995   25.9523   43.1543 H   0  0  0  0  0  0  0  0  0  0  0  0
   57.3178   26.7744   42.8242 H   0  0  0  0  0  0  0  0  0  0  0  0
   60.6832   27.2437   44.4939 H   0  0  0  0  0  0  0  0  0  0  0  0
   60.9908   29.7748   45.3323 H   0  0  0  0  0  0  0  0  0  0  0  0
   59.1419   31.9538   45.4814 H   0  0  0  0  0  0  0  0  0  0  0  0
   58.0254   34.0995   44.1566 H   0  0  0  0  0  0  0  0  0  0  0  0
   56.9085   34.9195   45.3131 H   0  0  0  0  0  0  0  0  0  0  0  0
   57.1859   33.2042   47.7288 H   0  0  0  0  0  0  0  0  0  0  0  0
   58.9344   33.0274   49.5023 H   0  0  0  0  0  0  0  0  0  0  0  0
   61.2945   33.6810   49.0035 H   0  0  0  0  0  0  0  0  0  0  0  0
   61.9130   34.5025   46.7278 H   0  0  0  0  0  0  0  0  0  0  0  0
   60.1727   34.6716   44.9463 H   0  0  0  0  0  0  0  0  0  0  0  0
   55.1631   30.8820   44.0619 H   0  0  0  0  0  0  0  0  0  0  0  0
   55.9662   28.5530   43.5573 H   0  0  0  0  0  0  0  0  0  0  0  0
  1  2  1  0
  2  3  2  0
  2  4  1  0
  4  5  1  0
  5  6  1  0
  6  7  1  0
  7  8  2  0
  7  9  1  0
  9 10  1  0
 10 11  1  0
 11 12  2  0
 11 13  1  0
 13 14  1  0
 14 15  1  0
 15 16  1  0
 16 17  1  0
 17 18  1  0
 18 19  1  0
 19 20  1  0
 20 21  2  0
 21 22  1  0
 22 23  2  0
 23 24  1  0
 24 25  1  0
 25 26  1  0
 26 27  1  0
 27 28  2  0
 28 29  1  0
 29 30  2  0
 30 31  1  0
 31 32  2  0
 24 33  2  0
 33 34  1  0
 34 35  2  0
 10  5  1  0
 35 19  1  0
 35 22  1  0
 32 27  1  0
  1 36  1  0
  1 37  1  0
  1 38  1  0
  5 39  1  1
  6 40  1  0
  6 41  1  0
 10 42  1  6
 14 43  1  0
 14 44  1  0
 15 45  1  0
 15 46  1  0
 16 47  1  0
 16 48  1  0
 17 49  1  0
 17 50  1  0
 18 51  1  0
 18 52  1  0
 20 53  1  0
 21 54  1  0
 23 55  1  0
 26 56  1  0
 26 57  1  0
 28 58  1  0
 29 59  1  0
 30 60  1  0
 31 61  1  0
 32 62  1  0
 33 63  1  0
 34 64  1  0
M  END
>  <UniqueID>  (73) 
61

>  <SMILES>  (73) 
CC(=O)O[C@H]1CC(=O)O[C@H]1C(=O)OCCCCCn1ccc2cc(OCc3ccccc3)ccc21

>  <Energy>  (73) 
96.63545034806407

>  <Genealogy>  (73) 
CC(=O)O[C@H]1CC(=O)O[C@H]1C(=O)OCCCCCn1ccc2cc(OCc3ccccc3)ccc21 (chirality)
CC(=O)O[C@H]1CC(=O)O[C@H]1C(=O)OCCCCCn1ccc2cc(OCc3ccccc3)ccc21 (3D coordinates assigned)
CC(=O)O[C@H]1CC(=O)O[C@H]1C(=O)OCCCCCn1ccc2cc(OCc3ccccc3)ccc21 (nonaromatic ring conformer: 96.63545034806407 kcal/mol)

>  <smiles>  (73) 
CC(=O)OC1CC(=O)OC1C(=O)OCCCCCn1ccc2cc(OCc3ccccc3)ccc21

>  <score_type>  (73) 
oracle

>  <origin>  (73) 
adg

>  <m_score__min__energy>  (73) 
-9.6999999999999993

>  <m_primary>  (73) 
energy

$$$$
73:0
     RDKit          3D

 47 51  0  0  0  0  0  0  0  0999 V2000
   56.1459   30.7671   42.2359 H   0  0  0  0  0  0  0  0  0  0  0  0
   56.6490   30.5470   43.1890 C   0  0  0  0  0  0  0  0  0  0  0  0
   56.7470   29.2590   43.5480 C   0  0  0  0  0  0  0  0  0  0  0  0
   56.5697   28.5043   42.7676 H   0  0  0  0  0  0  0  0  0  0  0  0
   57.0720   28.7680   44.8990 C   0  0  0  0  0  0  0  0  0  0  0  0
   56.4420   27.7170   45.4760 N   0  0  0  0  0  0  0  0  0  0  0  0
   57.0160   27.4500   46.6450 N   0  0  0  0  0  0  0  0  0  0  0  0
   58.0310   28.3170   46.7990 C   0  0  0  0  0  0  0  0  0  0  0  0
   58.9410   28.3810   47.8510 C   0  0  0  0  0  0  0  0  0  0  0  0
   58.8648   27.6984   48.7102 H   0  0  0  0  0  0  0  0  0  0  0  0
   59.9630   29.3490   47.7790 C   0  0  0  0  0  0  0  0  0  0  0  0
   61.1490   29.4810   49.1190 S   0  0  0  0  0  0  0  0  0  0  0  0
   61.4900   31.2210   48.7890 C   0  0  0  0  0  0  0  0  0  0  0  0
   62.7850   31.5410   48.3540 C   0  0  0  0  0  0  0  0  0  0  0  0
   63.5391   30.7456   48.2606 H   0  0  0  0  0  0  0  0  0  0  0  0
   63.1270   32.8540   48.0390 C   0  0  0  0  0  0  0  0  0  0  0  0
   64.1436   33.0888   47.6905 H   0  0  0  0  0  0  0  0  0  0  0  0
   62.1830   33.8690   48.1650 C   0  0  0  0  0  0  0  0  0  0  0  0
   62.4523   34.9046   47.9099 H   0  0  0  0  0  0  0  0  0  0  0  0
   60.8940   33.5740   48.6150 C   0  0  0  0  0  0  0  0  0  0  0  0
   60.1574   34.3848   48.7154 H   0  0  0  0  0  0  0  0  0  0  0  0
   60.5210   32.2530   48.9430 C   0  0  0  0  0  0  0  0  0  0  0  0
   59.1360   32.0110   49.4510 C   0  0  0  0  0  0  0  0  0  0  0  0
   58.1510   32.5950   48.9290 O   0  0  0  0  0  0  0  0  0  0  0  0
   58.9230   31.0470   50.5000 N   0  0  0  0  0  0  0  0  0  0  0  0
   57.8790   30.9350   51.2680 C   0  0  0  0  0  0  0  0  0  0  0  0
   57.3390   29.7340   51.5720 N   0  0  0  0  0  0  0  0  0  0  0  0
   56.2580   29.8590   52.3860 C   0  0  0  0  0  0  0  0  0  0  0  0
   55.6787   28.9908   52.7333 H   0  0  0  0  0  0  0  0  0  0  0  0
   55.9360   31.1630   52.7490 C   0  0  0  0  0  0  0  0  0  0  0  0
   55.1036   31.4646   53.4018 H   0  0  0  0  0  0  0  0  0  0  0  0
   57.0410   32.1980   52.0160 S   0  0  0  0  0  0  0  0  0  0  0  0
   60.0480   30.2140   46.6610 C   0  0  0  0  0  0  0  0  0  0  0  0
   60.8414   30.9748   46.6188 H   0  0  0  0  0  0  0  0  0  0  0  0
   59.1250   30.1080   45.6030 C   0  0  0  0  0  0  0  0  0  0  0  0
   59.1995   30.7528   44.7149 H   0  0  0  0  0  0  0  0  0  0  0  0
   58.1120   29.1550   45.7220 C   0  0  0  0  0  0  0  0  0  0  0  0
   57.1600   31.6970   43.9660 C   0  0  0  0  0  0  0  0  0  0  0  0
   56.6590   31.9880   45.2000 N   0  0  0  0  0  0  0  0  0  0  0  0
   57.1050   33.0440   45.9280 C   0  0  0  0  0  0  0  0  0  0  0  0
   56.6859   33.2404   46.9259 H   0  0  0  0  0  0  0  0  0  0  0  0
   58.0950   33.8800   45.4100 C   0  0  0  0  0  0  0  0  0  0  0  0
   58.4650   34.7336   45.9969 H   0  0  0  0  0  0  0  0  0  0  0  0
   58.6110   33.6210   44.1380 C   0  0  0  0  0  0  0  0  0  0  0  0
   59.3883   34.2742   43.7147 H   0  0  0  0  0  0  0  0  0  0  0  0
   58.1380   32.5320   43.4060 C   0  0  0  0  0  0  0  0  0  0  0  0
   58.5288   32.3297   42.3978 H   0  0  0  0  0  0  0  0  0  0  0  0
  1  2  1  0
  2  3  2  0
  3  4  1  0
  3  5  1  0
  5  6  1  0
  6  7  1  0
  7  8  2  0
  8  9  1  0
  9 10  1  0
  9 11  2  0
 11 12  1  0
 12 13  1  0
 13 14  2  0
 14 15  1  0
 14 16  1  0
 16 17  1  0
 16 18  2  0
 18 19  1  0
 18 20  1  0
 20 21  1  0
 20 22  2  0
 22 23  1  0
 23 24  2  0
 23 25  1  0
 25 26  2  3
 26 27  1  0
 27 28  1  0
 28 29  1  0
 28 30  2  0
 30 31  1  0
 30 32  1  0
 11 33  1  0
 33 34  1  0
 33 35  2  0
 35 36  1  0
 35 37  1  0
  2 38  1  0
 38 39  2  0
 39 40  1  0
 40 41  1  0
 40 42  2  0
 42 43  1  0
 42 44  1  0
 44 45  1  0
 44 46  2  0
 46 47  1  0
 37  5  2  0
 46 38  1  0
 37  8  1  0
 22 13  1  0
 32 26  1  0
M  CHG  2   6  -1  27  -1
M  END
>  <UniqueID>  (74) 
62

>  <SMILES>  (74) 
O=C(N=c1[n-]ccs1)c1ccccc1Sc1ccc2c(/C=C\c3ccccn3)[n-]nc2c1

>  <Energy>  (74) 
134.22402626385227

>  <Genealogy>  (74) 
O=C(N=c1[n-]ccs1)c1ccccc1Sc1ccc2c(C=Cc3ccccn3)[n-]nc2c1 (protonated)
O=C(N=c1[n-]ccs1)c1ccccc1Sc1ccc2c(/C=C\c3ccccn3)[n-]nc2c1 (cis-trans isomerization)
O=C(N=c1[n-]ccs1)c1ccccc1Sc1ccc2c(/C=C\c3ccccn3)[n-]nc2c1 (3D coordinates assigned)
O=C(N=c1[n-]ccs1)c1ccccc1Sc1ccc2c(/C=C\c3ccccn3)[n-]nc2c1 (optimized conformer: 134.22402626385227 kcal/mol)

>  <smiles>  (74) 
O=C(N=c1[nH]ccs1)c1ccccc1Sc1ccc2c(C=Cc3ccccn3)[nH]nc2c1

>  <score_type>  (74) 
oracle

>  <origin>  (74) 
adg

>  <m_score__min__energy>  (74) 
-13.18

>  <m_primary>  (74) 
energy

$$$$
74:0
     RDKit          3D

 28 29  0  0  0  0  0  0  0  0999 V2000
   64.8940   32.7060   49.3810 C   0  0  0  0  0  0  0  0  0  0  0  0
   63.7410   33.1830   48.5570 C   0  0  0  0  0  0  0  0  0  0  0  0
   63.6910   33.1430   46.8780 S   0  0  0  0  0  0  0  0  0  0  0  0
   62.1470   33.7950   46.7880 C   0  0  0  0  0  0  0  0  0  0  0  0
   61.6550   34.0520   48.0240 N   0  0  0  0  0  0  0  0  0  0  0  0
   60.2980   34.5780   48.2300 C   0  0  0  0  0  0  0  0  0  0  0  0
   59.4000   34.1840   47.0870 C   0  0  0  0  0  0  0  0  0  0  0  0
   58.6120   33.0250   47.1780 C   0  0  0  0  0  0  0  0  0  0  0  0
   57.7700   32.6600   46.1220 C   0  0  0  0  0  0  0  0  0  0  0  0
   57.7120   33.4480   44.9680 C   0  0  0  0  0  0  0  0  0  0  0  0
   58.4970   34.6000   44.8690 C   0  0  0  0  0  0  0  0  0  0  0  0
   59.3400   34.9680   45.9210 C   0  0  0  0  0  0  0  0  0  0  0  0
   62.5380   33.7260   49.0220 C   0  0  0  0  0  0  0  0  0  0  0  0
   62.2130   33.8560   50.4860 C   0  0  0  0  0  0  0  0  0  0  0  0
   64.6486   32.8075   50.4485 H   0  0  0  0  0  0  0  0  0  0  0  0
   65.0974   31.6499   49.1504 H   0  0  0  0  0  0  0  0  0  0  0  0
   65.7841   33.3097   49.1504 H   0  0  0  0  0  0  0  0  0  0  0  0
   61.6062   33.9881   45.8498 H   0  0  0  0  0  0  0  0  0  0  0  0
   59.8905   34.1711   49.1672 H   0  0  0  0  0  0  0  0  0  0  0  0
   60.3463   35.6757   48.2822 H   0  0  0  0  0  0  0  0  0  0  0  0
   58.6570   32.4017   48.0832 H   0  0  0  0  0  0  0  0  0  0  0  0
   57.1531   31.7525   46.1994 H   0  0  0  0  0  0  0  0  0  0  0  0
   57.0488   33.1612   44.1386 H   0  0  0  0  0  0  0  0  0  0  0  0
   58.4512   35.2187   43.9606 H   0  0  0  0  0  0  0  0  0  0  0  0
   59.9586   35.8737   45.8368 H   0  0  0  0  0  0  0  0  0  0  0  0
   63.0704   33.5131   51.0838 H   0  0  0  0  0  0  0  0  0  0  0  0
   61.9991   34.9089   50.7220 H   0  0  0  0  0  0  0  0  0  0  0  0
   61.3320   33.2411   50.7220 H   0  0  0  0  0  0  0  0  0  0  0  0
  1  2  1  0
  2  3  1  0
  3  4  1  0
  4  5  2  0
  5  6  1  0
  6  7  1  0
  7  8  2  0
  8  9  1  0
  9 10  2  0
 10 11  1  0
 11 12  2  0
  5 13  1  0
 13 14  1  0
 13  2  2  0
 12  7  1  0
  1 15  1  0
  1 16  1  0
  1 17  1  0
  4 18  1  0
  6 19  1  0
  6 20  1  0
  8 21  1  0
  9 22  1  0
 10 23  1  0
 11 24  1  0
 12 25  1  0
 14 26  1  0
 14 27  1  0
 14 28  1  0
M  CHG  1   5   1
M  END
>  <UniqueID>  (75) 
63

>  <SMILES>  (75) 
Cc1sc[n+](Cc2ccccc2)c1C

>  <Energy>  (75) 
55.3628513282303

>  <Genealogy>  (75) 
Cc1sc[n+](Cc2ccccc2)c1C (3D coordinates assigned)
Cc1sc[n+](Cc2ccccc2)c1C (optimized conformer: 55.3628513282303 kcal/mol)

>  <smiles>  (75) 
Cc1sc[n+](Cc2ccccc2)c1C

>  <score_type>  (75) 
oracle

>  <origin>  (75) 
adg

>  <m_score__min__energy>  (75) 
-4.6299999999999999

>  <m_primary>  (75) 
energy

$$$$
75:0
     RDKit          3D

 35 36  0  0  0  0  0  0  0  0999 V2000
   58.0770   27.7060   43.6470 C   0  0  0  0  0  0  0  0  0  0  0  0
   57.0980   28.6380   43.2020 O   0  0  0  0  0  0  0  0  0  0  0  0
   56.5250   29.5910   44.0490 C   0  0  0  0  0  0  0  0  0  0  0  0
   55.3550   29.4230   44.4910 O   0  0  0  0  0  0  0  0  0  0  0  0
   57.2850   30.8120   44.3950 C   0  0  0  0  0  0  0  0  0  0  0  0
   57.4640   31.7920   43.4030 C   0  0  0  0  0  0  0  0  0  0  0  0
   58.0760   33.0090   43.7080 C   0  0  0  0  0  0  0  0  0  0  0  0
   58.5090   33.2690   45.0080 C   0  0  0  0  0  0  0  0  0  0  0  0
   59.2700   34.8030   45.3900 Cl  0  0  0  0  0  0  0  0  0  0  0  0
   58.3560   32.3000   46.0010 C   0  0  0  0  0  0  0  0  0  0  0  0
   57.7860   31.0550   45.7000 C   0  0  0  0  0  0  0  0  0  0  0  0
   57.7790   30.0560   46.7330 N   0  0  0  0  0  0  0  0  0  0  0  0
   58.9050   29.6610   47.5330 C   0  0  0  0  0  0  0  0  0  0  0  0
   58.9140   28.5060   48.0330 O   0  0  0  0  0  0  0  0  0  0  0  0
   60.0580   30.5590   47.7730 C   0  0  0  0  0  0  0  0  0  0  0  0
   61.2150   30.4010   46.9940 C   0  0  0  0  0  0  0  0  0  0  0  0
   62.2990   31.2660   47.1490 C   0  0  0  0  0  0  0  0  0  0  0  0
   62.2460   32.2900   48.0960 C   0  0  0  0  0  0  0  0  0  0  0  0
   63.7270   33.4790   48.2980 Br  0  0  0  0  0  0  0  0  0  0  0  0
   61.1150   32.4390   48.9020 C   0  0  0  0  0  0  0  0  0  0  0  0
   60.0160   31.5680   48.7610 C   0  0  0  0  0  0  0  0  0  0  0  0
   58.8880   31.6650   49.5930 O   0  0  0  0  0  0  0  0  0  0  0  0
   58.7560   31.0230   50.8560 C   0  0  0  0  0  0  0  0  0  0  0  0
   58.0944   27.6895   44.7467 H   0  0  0  0  0  0  0  0  0  0  0  0
   57.8274   26.7035   43.2691 H   0  0  0  0  0  0  0  0  0  0  0  0
   59.0660   28.0046   43.2691 H   0  0  0  0  0  0  0  0  0  0  0  0
   57.1186   31.5980   42.3768 H   0  0  0  0  0  0  0  0  0  0  0  0
   58.2171   33.7647   42.9212 H   0  0  0  0  0  0  0  0  0  0  0  0
   58.6854   32.5150   47.0283 H   0  0  0  0  0  0  0  0  0  0  0  0
   61.2676   29.5881   46.2548 H   0  0  0  0  0  0  0  0  0  0  0  0
   63.1958   31.1408   46.5245 H   0  0  0  0  0  0  0  0  0  0  0  0
   61.0818   33.2424   49.6526 H   0  0  0  0  0  0  0  0  0  0  0  0
   58.9074   31.7592   51.6591 H   0  0  0  0  0  0  0  0  0  0  0  0
   57.7496   30.5876   50.9426 H   0  0  0  0  0  0  0  0  0  0  0  0
   59.5090   30.2259   50.9426 H   0  0  0  0  0  0  0  0  0  0  0  0
  1  2  1  0
  2  3  1  0
  3  4  2  0
  3  5  1  0
  5  6  2  0
  6  7  1  0
  7  8  2  0
  8  9  1  0
  8 10  1  0
 10 11  2  0
 11 12  1  0
 12 13  1  0
 13 14  2  0
 13 15  1  0
 15 16  2  0
 16 17  1  0
 17 18  2  0
 18 19  1  0
 18 20  1  0
 20 21  2  0
 21 22  1  0
 22 23  1  0
 11  5  1  0
 21 15  1  0
  1 24  1  0
  1 25  1  0
  1 26  1  0
  6 27  1  0
  7 28  1  0
 10 29  1  0
 16 30  1  0
 17 31  1  0
 20 32  1  0
 23 33  1  0
 23 34  1  0
 23 35  1  0
M  CHG  1  12  -1
M  END
>  <UniqueID>  (76) 
64

>  <SMILES>  (76) 
COC(=O)c1ccc(Cl)cc1[N-]C(=O)c1ccc(Br)cc1OC

>  <Energy>  (76) 
44.68849146207012

>  <Genealogy>  (76) 
COC(=O)c1ccc(Cl)cc1[N-]C(=O)c1ccc(Br)cc1OC (protonated)
COC(=O)c1ccc(Cl)cc1[N-]C(=O)c1ccc(Br)cc1OC (3D coordinates assigned)
COC(=O)c1ccc(Cl)cc1[N-]C(=O)c1ccc(Br)cc1OC (optimized conformer: 44.68849146207012 kcal/mol)

>  <smiles>  (76) 
COC(=O)c1ccc(Cl)cc1NC(=O)c1ccc(Br)cc1OC

>  <score_type>  (76) 
oracle

>  <origin>  (76) 
adg

>  <m_score__min__energy>  (76) 
-8.8900000000000006

>  <m_primary>  (76) 
energy

$$$$
76:0
     RDKit          3D

 74 78  0  0  0  0  0  0  0  0999 V2000
   56.8430   24.1450   43.5220 C   0  0  0  0  0  0  0  0  0  0  0  0
   56.5430   23.9890   45.0090 C   0  0  0  0  0  0  0  0  0  0  0  0
   57.1400   25.0450   45.7590 O   0  0  0  0  0  0  0  0  0  0  0  0
   56.5350   26.2920   45.9580 C   0  0  0  0  0  0  0  0  0  0  0  0
   55.2770   26.3830   46.0080 O   0  0  0  0  0  0  0  0  0  0  0  0
   57.3760   27.4980   46.1360 C   0  0  0  0  0  0  0  0  0  0  0  0
   58.5430   27.4410   46.9160 C   0  0  0  0  0  0  0  0  0  0  0  0
   59.3150   28.5970   47.1280 C   0  0  0  0  0  0  0  0  0  0  0  0
   60.5380   28.5590   47.8790 N   0  0  0  0  0  0  0  0  0  0  0  0
   60.6500   28.5890   49.3090 C   0  0  0  0  0  0  0  0  0  0  0  0
   61.1300   27.5820   49.8990 O   0  0  0  0  0  0  0  0  0  0  0  0
   60.2550   29.7780   50.1000 C   0  0  0  0  0  0  0  0  0  0  0  0
   61.2210   30.4970   50.8250 C   0  0  0  0  0  0  0  0  0  0  0  0
   60.8540   31.6270   51.5610 C   0  0  0  0  0  0  0  0  0  0  0  0
   59.5230   32.0530   51.5760 C   0  0  0  0  0  0  0  0  0  0  0  0
   58.5560   31.3510   50.8530 C   0  0  0  0  0  0  0  0  0  0  0  0
   58.9200   30.2180   50.1180 C   0  0  0  0  0  0  0  0  0  0  0  0
   58.9170   29.8090   46.5560 C   0  0  0  0  0  0  0  0  0  0  0  0
   57.7460   29.8900   45.7940 C   0  0  0  0  0  0  0  0  0  0  0  0
   57.3640   31.1680   45.2590 N   0  0  0  0  0  0  0  0  0  0  0  0
   57.5590   32.4690   45.8410 C   0  0  0  0  0  0  0  0  0  0  0  0
   56.6470   33.3300   45.7160 O   0  0  0  0  0  0  0  0  0  0  0  0
   58.7960   32.8370   46.5660 C   0  0  0  0  0  0  0  0  0  0  0  0
   60.0580   32.6080   45.9950 C   0  0  0  0  0  0  0  0  0  0  0  0
   61.2170   32.7890   46.7520 C   0  0  0  0  0  0  0  0  0  0  0  0
   61.1330   33.2270   48.0880 C   0  0  0  0  0  0  0  0  0  0  0  0
   62.3500   33.2890   48.9370 C   0  0  0  0  0  0  0  0  0  0  0  0
   63.4800   32.5170   48.6090 C   0  0  0  0  0  0  0  0  0  0  0  0
   64.6430   32.6010   49.3760 C   0  0  0  0  0  0  0  0  0  0  0  0
   64.7080   33.4700   50.4770 C   0  0  0  0  0  0  0  0  0  0  0  0
   65.9540   33.5680   51.2700 C   0  0  0  0  0  0  0  0  0  0  0  0
   66.7550   34.5120   51.0490 O   0  0  0  0  0  0  0  0  0  0  0  0
   66.2980   32.5930   52.2610 N   0  0  0  0  0  0  0  0  0  0  0  0
   66.3100   31.1690   52.0800 C   0  0  0  0  0  0  0  0  0  0  0  0
   67.4580   30.4820   51.6450 C   0  0  0  0  0  0  0  0  0  0  0  0
   67.4090   29.1070   51.4100 C   0  0  0  0  0  0  0  0  0  0  0  0
   66.2140   28.3990   51.5790 C   0  0  0  0  0  0  0  0  0  0  0  0
   66.2100   27.0250   51.2980 O   0  0  0  0  0  0  0  0  0  0  0  0
   67.1870   26.3650   50.4960 C   0  0  0  0  0  0  0  0  0  0  0  0
   65.0630   29.0870   52.0100 C   0  0  0  0  0  0  0  0  0  0  0  0
   65.1160   30.4610   52.2540 C   0  0  0  0  0  0  0  0  0  0  0  0
   63.5780   34.2330   50.8150 C   0  0  0  0  0  0  0  0  0  0  0  0
   62.4090   34.1430   50.0530 C   0  0  0  0  0  0  0  0  0  0  0  0
   59.8710   33.5460   48.6230 C   0  0  0  0  0  0  0  0  0  0  0  0
   58.7140   33.3570   47.8650 C   0  0  0  0  0  0  0  0  0  0  0  0
   57.0100   28.7180   45.5400 C   0  0  0  0  0  0  0  0  0  0  0  0
   57.8124   24.6491   43.3944 H   0  0  0  0  0  0  0  0  0  0  0  0
   56.8809   23.1524   43.0495 H   0  0  0  0  0  0  0  0  0  0  0  0
   56.0522   24.7461   43.0495 H   0  0  0  0  0  0  0  0  0  0  0  0
   55.4538   24.0094   45.1613 H   0  0  0  0  0  0  0  0  0  0  0  0
   56.9598   23.0314   45.3545 H   0  0  0  0  0  0  0  0  0  0  0  0
   58.8549   26.4859   47.3638 H   0  0  0  0  0  0  0  0  0  0  0  0
   62.2708   30.1687   50.8130 H   0  0  0  0  0  0  0  0  0  0  0  0
   61.6144   32.1823   52.1297 H   0  0  0  0  0  0  0  0  0  0  0  0
   59.2368   32.9417   52.1576 H   0  0  0  0  0  0  0  0  0  0  0  0
   57.5092   31.6888   50.8616 H   0  0  0  0  0  0  0  0  0  0  0  0
   58.1559   29.6672   49.5498 H   0  0  0  0  0  0  0  0  0  0  0  0
   59.5312   30.7091   46.7066 H   0  0  0  0  0  0  0  0  0  0  0  0
   60.1339   32.2845   44.9464 H   0  0  0  0  0  0  0  0  0  0  0  0
   62.2009   32.5885   46.3027 H   0  0  0  0  0  0  0  0  0  0  0  0
   63.4464   31.8419   47.7411 H   0  0  0  0  0  0  0  0  0  0  0  0
   65.5146   31.9822   49.1162 H   0  0  0  0  0  0  0  0  0  0  0  0
   68.3985   31.0309   51.4894 H   0  0  0  0  0  0  0  0  0  0  0  0
   68.3172   28.5757   51.0893 H   0  0  0  0  0  0  0  0  0  0  0  0
   67.9216   25.8688   51.1473 H   0  0  0  0  0  0  0  0  0  0  0  0
   66.6938   25.6143   49.8610 H   0  0  0  0  0  0  0  0  0  0  0  0
   67.6993   27.1028   49.8610 H   0  0  0  0  0  0  0  0  0  0  0  0
   64.1195   28.5404   52.1548 H   0  0  0  0  0  0  0  0  0  0  0  0
   64.2111   30.9912   52.5859 H   0  0  0  0  0  0  0  0  0  0  0  0
   63.6130   34.9056   51.6847 H   0  0  0  0  0  0  0  0  0  0  0  0
   61.5298   34.7440   50.3282 H   0  0  0  0  0  0  0  0  0  0  0  0
   59.7958   33.9467   49.6447 H   0  0  0  0  0  0  0  0  0  0  0  0
   57.7331   33.6175   48.2893 H   0  0  0  0  0  0  0  0  0  0  0  0
   56.1396   28.7564   44.8685 H   0  0  0  0  0  0  0  0  0  0  0  0
  1  2  1  0
  2  3  1  0
  3  4  1  0
  4  5  2  0
  4  6  1  0
  6  7  2  0
  7  8  1  0
  8  9  1  0
  9 10  1  0
 10 11  2  0
 10 12  1  0
 12 13  2  0
 13 14  1  0
 14 15  2  0
 15 16  1  0
 16 17  2  0
  8 18  2  0
 18 19  1  0
 19 20  1  0
 20 21  1  0
 21 22  2  0
 21 23  1  0
 23 24  2  0
 24 25  1  0
 25 26  2  0
 26 27  1  0
 27 28  2  0
 28 29  1  0
 29 30  2  0
 30 31  1  0
 31 32  2  0
 31 33  1  0
 33 34  1  0
 34 35  2  0
 35 36  1  0
 36 37  2  0
 37 38  1  0
 38 39  1  0
 37 40  1  0
 40 41  2  0
 30 42  1  0
 42 43  2  0
 26 44  1  0
 44 45  2  0
 19 46  2  0
 46  6  1  0
 17 12  1  0
 45 23  1  0
 43 27  1  0
 41 34  1  0
  1 47  1  0
  1 48  1  0
  1 49  1  0
  2 50  1  0
  2 51  1  0
  7 52  1  0
 13 53  1  0
 14 54  1  0
 15 55  1  0
 16 56  1  0
 17 57  1  0
 18 58  1  0
 24 59  1  0
 25 60  1  0
 28 61  1  0
 29 62  1  0
 35 63  1  0
 36 64  1  0
 39 65  1  0
 39 66  1  0
 39 67  1  0
 40 68  1  0
 41 69  1  0
 42 70  1  0
 43 71  1  0
 44 72  1  0
 45 73  1  0
 46 74  1  0
M  CHG  3   9  -1  20  -1  33  -1
M  END
>  <UniqueID>  (77) 
65

>  <SMILES>  (77) 
CCOC(=O)c1cc([N-]C(=O)c2ccccc2)cc([N-]C(=O)c2ccc(-c3ccc(C(=O)[N-]c4ccc(OC)cc4)cc3)cc2)c1

>  <Energy>  (77) 
102.13019088226359

>  <Genealogy>  (77) 
CCOC(=O)c1cc([N-]C(=O)c2ccccc2)cc([N-]C(=O)c2ccc(-c3ccc(C(=O)[N-]c4ccc(OC)cc4)cc3)cc2)c1 (protonated)
CCOC(=O)c1cc([N-]C(=O)c2ccccc2)cc([N-]C(=O)c2ccc(-c3ccc(C(=O)[N-]c4ccc(OC)cc4)cc3)cc2)c1 (3D coordinates assigned)
CCOC(=O)c1cc([N-]C(=O)c2ccccc2)cc([N-]C(=O)c2ccc(-c3ccc(C(=O)[N-]c4ccc(OC)cc4)cc3)cc2)c1 (optimized conformer: 102.13019088226359 kcal/mol)

>  <smiles>  (77) 
CCOC(=O)c1cc(NC(=O)c2ccccc2)cc(NC(=O)c2ccc(-c3ccc(C(=O)Nc4ccc(OC)cc4)cc3)cc2)c1

>  <score_type>  (77) 
oracle

>  <origin>  (77) 
adg

>  <m_score__min__energy>  (77) 
-13.210000000000001

>  <m_primary>  (77) 
energy

$$$$
77:0
     RDKit          3D

 30 31  0  0  0  0  0  0  0  0999 V2000
   58.5046   34.6067   46.5491 H   0  0  0  0  0  0  0  0  0  0  0  0
   58.2640   33.6570   46.0490 C   0  0  0  0  0  0  0  0  0  0  0  0
   57.7720   33.6620   44.7420 C   0  0  0  0  0  0  0  0  0  0  0  0
   57.6187   34.6159   44.2162 H   0  0  0  0  0  0  0  0  0  0  0  0
   57.4740   32.4550   44.1010 C   0  0  0  0  0  0  0  0  0  0  0  0
   57.0790   32.4633   43.0744 H   0  0  0  0  0  0  0  0  0  0  0  0
   57.6770   31.2310   44.7630 C   0  0  0  0  0  0  0  0  0  0  0  0
   57.3520   29.9290   44.0720 C   0  0  0  0  0  0  0  0  0  0  0  0
   58.2853   29.3722   43.9021 H   0  0  0  0  0  0  0  0  0  0  0  0
   56.8537   30.1600   43.1189 H   0  0  0  0  0  0  0  0  0  0  0  0
   56.4190   29.0800   44.8990 C   0  0  0  0  0  0  0  0  0  0  0  0
   55.1860   29.3320   44.8630 O   0  0  0  0  0  0  0  0  0  0  0  0
   56.8590   27.9420   45.6620 N   0  0  0  0  0  0  0  0  0  0  0  0
   56.3740   26.7360   45.6420 C   0  0  0  0  0  0  0  0  0  0  0  0
   55.1410   26.3960   46.0760 N   0  0  0  0  0  0  0  0  0  0  0  0
   54.8810   25.0980   45.9400 N   0  0  0  0  0  0  0  0  0  0  0  0
   55.9050   24.4080   45.3940 C   0  0  0  0  0  0  0  0  0  0  0  0
   55.8620   22.6440   45.0950 S   0  0  0  0  0  0  0  0  0  0  0  0
   56.6270   22.7480   43.4370 C   0  0  0  0  0  0  0  0  0  0  0  0
   57.4688   23.4551   43.4739 H   0  0  0  0  0  0  0  0  0  0  0  0
   55.8642   23.0902   42.7222 H   0  0  0  0  0  0  0  0  0  0  0  0
   57.1400   21.3880   42.9810 C   0  0  0  0  0  0  0  0  0  0  0  0
   57.3730   20.7702   43.8608 H   0  0  0  0  0  0  0  0  0  0  0  0
   56.3683   20.8889   42.3765 H   0  0  0  0  0  0  0  0  0  0  0  0
   58.0490   21.5229   42.3765 H   0  0  0  0  0  0  0  0  0  0  0  0
   57.2100   25.4090   45.0320 S   0  0  0  0  0  0  0  0  0  0  0  0
   58.1520   31.2380   46.0860 C   0  0  0  0  0  0  0  0  0  0  0  0
   58.2891   30.2881   46.6235 H   0  0  0  0  0  0  0  0  0  0  0  0
   58.4510   32.4470   46.7220 C   0  0  0  0  0  0  0  0  0  0  0  0
   58.8338   32.4453   47.7532 H   0  0  0  0  0  0  0  0  0  0  0  0
  1  2  1  0
  2  3  2  0
  3  4  1  0
  3  5  1  0
  5  6  1  0
  5  7  2  0
  7  8  1  0
  8  9  1  0
  8 10  1  0
  8 11  1  0
 11 12  2  0
 11 13  1  0
 13 14  2  0
 14 15  1  0
 15 16  1  0
 16 17  2  0
 17 18  1  0
 18 19  1  0
 19 20  1  0
 19 21  1  0
 19 22  1  0
 22 23  1  0
 22 24  1  0
 22 25  1  0
 17 26  1  0
  7 27  1  0
 27 28  1  0
 27 29  2  0
 29 30  1  0
 29  2  1  0
 26 14  1  0
M  CHG  1  15  -1
M  END
>  <UniqueID>  (78) 
66

>  <SMILES>  (78) 
CCSc1n[n-]/c(=N\C(=O)Cc2ccccc2)s1

>  <Energy>  (78) 
61.47062245448233

>  <Genealogy>  (78) 
CCSc1n[n-]c(=NC(=O)Cc2ccccc2)s1 (protonated)
CCSc1n[n-]/c(=N\C(=O)Cc2ccccc2)s1 (cis-trans isomerization)
CCSc1n[n-]/c(=N\C(=O)Cc2ccccc2)s1 (3D coordinates assigned)
CCSc1n[n-]/c(=N\C(=O)Cc2ccccc2)s1 (optimized conformer: 61.47062245448233 kcal/mol)

>  <smiles>  (78) 
CCSc1n[nH]c(=NC(=O)Cc2ccccc2)s1

>  <score_type>  (78) 
oracle

>  <origin>  (78) 
adg

>  <m_score__min__energy>  (78) 
-9.5800000000000001

>  <m_primary>  (78) 
energy

$$$$
78:0
     RDKit          3D

 16 16  0  0  0  0  0  0  0  0999 V2000
   56.7040   31.6250   45.2120 O   0  0  0  0  0  0  0  0  0  0  0  0
   57.4560   31.5370   44.2050 C   0  0  0  0  0  0  0  0  0  0  0  0
   57.9460   30.2700   43.7500 N   0  0  0  0  0  0  0  0  0  0  0  0
   57.8040   29.0390   44.4830 C   0  0  0  0  0  0  0  0  0  0  0  0
   58.9110   28.2130   44.7410 C   0  0  0  0  0  0  0  0  0  0  0  0
   58.7420   27.0140   45.4280 C   0  0  0  0  0  0  0  0  0  0  0  0
   57.4660   26.6350   45.8450 C   0  0  0  0  0  0  0  0  0  0  0  0
   56.3930   27.4270   45.5760 N   0  0  0  0  0  0  0  0  0  0  0  0
   55.1450   27.0210   45.9930 O   0  0  0  0  0  0  0  0  0  0  0  0
   56.5320   28.6080   44.9050 C   0  0  0  0  0  0  0  0  0  0  0  0
   55.5160   29.3190   44.6710 O   0  0  0  0  0  0  0  0  0  0  0  0
   57.7421   32.4513   43.6644 H   0  0  0  0  0  0  0  0  0  0  0  0
   58.3640   30.2400   42.7930 H   0  0  0  0  0  0  0  0  0  0  0  0
   59.9124   28.5141   44.3997 H   0  0  0  0  0  0  0  0  0  0  0  0
   59.6083   26.3703   45.6404 H   0  0  0  0  0  0  0  0  0  0  0  0
   57.3267   25.6918   46.3936 H   0  0  0  0  0  0  0  0  0  0  0  0
  1  2  2  0
  2  3  1  0
  3  4  1  0
  4  5  2  0
  5  6  1  0
  6  7  2  0
  7  8  1  0
  8  9  1  0
  8 10  1  0
 10 11  2  0
 10  4  1  0
  2 12  1  0
  3 13  1  0
  5 14  1  0
  6 15  1  0
  7 16  1  0
M  CHG  1   9  -1
M  END
>  <UniqueID>  (79) 
67

>  <SMILES>  (79) 
O=CNc1cccn([O-])c1=O

>  <Energy>  (79) 
19.286503910605695

>  <Genealogy>  (79) 
O=CNc1cccn([O-])c1=O (protonated)
O=CNc1cccn([O-])c1=O (3D coordinates assigned)
O=CNc1cccn([O-])c1=O (optimized conformer: 19.286503910605695 kcal/mol)

>  <smiles>  (79) 
O=CNc1cccn(O)c1=O

>  <score_type>  (79) 
oracle

>  <origin>  (79) 
adg

>  <m_score__min__energy>  (79) 
-9.75

>  <m_primary>  (79) 
energy

$$$$
79:0
     RDKit          3D

 34 36  0  0  0  0  0  0  0  0999 V2000
   57.4000   30.3080   43.0240 O   0  0  0  0  0  0  0  0  0  0  0  0
   57.2400   30.3010   44.5200 S   0  0  0  0  0  0  0  0  0  0  0  0
   55.7920   30.0710   44.8500 O   0  0  0  0  0  0  0  0  0  0  0  0
   58.2360   29.0030   45.2280 C   0  0  0  0  0  0  0  0  0  0  0  0
   58.0900   27.7490   44.4300 C   0  0  0  0  0  0  0  0  0  0  0  0
   57.9120   26.5270   44.9760 N   0  0  0  0  0  0  0  0  0  0  0  0
   57.7670   25.7540   43.8750 C   0  0  0  0  0  0  0  0  0  0  0  0
   57.5440   24.2930   43.9000 C   0  0  0  0  0  0  0  0  0  0  0  0
   56.6310   23.7160   42.9990 C   0  0  0  0  0  0  0  0  0  0  0  0
   56.4040   22.3360   43.0040 C   0  0  0  0  0  0  0  0  0  0  0  0
   57.0860   21.5180   43.9070 C   0  0  0  0  0  0  0  0  0  0  0  0
   57.9960   22.0770   44.8060 C   0  0  0  0  0  0  0  0  0  0  0  0
   58.2290   23.4580   44.8080 C   0  0  0  0  0  0  0  0  0  0  0  0
   59.1190   23.9670   45.6960 F   0  0  0  0  0  0  0  0  0  0  0  0
   57.8430   26.4680   42.7740 O   0  0  0  0  0  0  0  0  0  0  0  0
   58.0380   27.7100   43.0890 N   0  0  0  0  0  0  0  0  0  0  0  0
   57.7590   31.8480   45.1780 C   0  0  0  0  0  0  0  0  0  0  0  0
   58.1520   31.9470   46.5220 C   0  0  0  0  0  0  0  0  0  0  0  0
   58.5500   33.1800   47.0480 C   0  0  0  0  0  0  0  0  0  0  0  0
   58.5500   34.3200   46.2390 C   0  0  0  0  0  0  0  0  0  0  0  0
   58.1510   34.2280   44.9020 C   0  0  0  0  0  0  0  0  0  0  0  0
   57.7530   32.9960   44.3730 C   0  0  0  0  0  0  0  0  0  0  0  0
   59.2913   29.3133   45.2278 H   0  0  0  0  0  0  0  0  0  0  0  0
   57.9009   28.8143   46.2586 H   0  0  0  0  0  0  0  0  0  0  0  0
   56.0913   24.3552   42.2848 H   0  0  0  0  0  0  0  0  0  0  0  0
   55.6874   21.8945   42.2958 H   0  0  0  0  0  0  0  0  0  0  0  0
   56.9062   20.4328   43.9100 H   0  0  0  0  0  0  0  0  0  0  0  0
   58.5323   21.4301   45.5158 H   0  0  0  0  0  0  0  0  0  0  0  0
   58.1230   28.5050   42.4170 H   0  0  0  0  0  0  0  0  0  0  0  0
   58.1469   31.0528   47.1627 H   0  0  0  0  0  0  0  0  0  0  0  0
   58.8635   33.2530   48.0998 H   0  0  0  0  0  0  0  0  0  0  0  0
   58.8638   35.2892   46.6541 H   0  0  0  0  0  0  0  0  0  0  0  0
   58.1501   35.1253   44.2658 H   0  0  0  0  0  0  0  0  0  0  0  0
   57.4344   32.9275   43.3224 H   0  0  0  0  0  0  0  0  0  0  0  0
  1  2  2  0
  2  3  2  0
  2  4  1  0
  4  5  1  0
  5  6  1  0
  6  7  2  0
  7  8  1  0
  8  9  2  0
  9 10  1  0
 10 11  2  0
 11 12  1  0
 12 13  2  0
 13 14  1  0
  7 15  1  0
 15 16  1  0
  2 17  1  0
 17 18  2  0
 18 19  1  0
 19 20  2  0
 20 21  1  0
 21 22  2  0
 16  5  2  0
 22 17  1  0
 13  8  1  0
  4 23  1  0
  4 24  1  0
  9 25  1  0
 10 26  1  0
 11 27  1  0
 12 28  1  0
 16 29  1  0
 18 30  1  0
 19 31  1  0
 20 32  1  0
 21 33  1  0
 22 34  1  0
M  CHG  1  16   1
M  END
>  <UniqueID>  (80) 
68

>  <SMILES>  (80) 
O=S(=O)(Cc1nc(-c2ccccc2F)o[nH+]1)c1ccccc1

>  <Energy>  (80) 
67.96495479515436

>  <Genealogy>  (80) 
O=S(=O)(Cc1nc(-c2ccccc2F)o[nH+]1)c1ccccc1 (protonated)
O=S(=O)(Cc1nc(-c2ccccc2F)o[nH+]1)c1ccccc1 (3D coordinates assigned)
O=S(=O)(Cc1nc(-c2ccccc2F)o[nH+]1)c1ccccc1 (optimized conformer: 67.96495479515436 kcal/mol)

>  <smiles>  (80) 
O=S(=O)(Cc1noc(-c2ccccc2F)n1)c1ccccc1

>  <score_type>  (80) 
oracle

>  <origin>  (80) 
adg

>  <m_score__min__energy>  (80) 
-7.2400000000000002

>  <m_primary>  (80) 
energy

$$$$
80:0
     RDKit          3D

 55 58  0  0  0  0  0  0  0  0999 V2000
   62.0110   32.7950   49.3230 C   0  0  0  0  0  0  0  0  0  0  0  0
   60.7580   32.6850   48.5280 N   0  0  0  0  0  0  0  0  0  0  0  0
   60.1570   34.0480   48.3510 C   0  0  0  0  0  0  0  0  0  0  0  0
   59.2580   34.1990   47.1330 C   0  0  0  0  0  0  0  0  0  0  0  0
   57.9710   33.6330   47.1260 C   0  0  0  0  0  0  0  0  0  0  0  0
   57.1450   33.7620   46.0040 C   0  0  0  0  0  0  0  0  0  0  0  0
   57.6030   34.4440   44.8750 C   0  0  0  0  0  0  0  0  0  0  0  0
   58.8880   34.9900   44.8610 C   0  0  0  0  0  0  0  0  0  0  0  0
   59.7160   34.8630   45.9810 C   0  0  0  0  0  0  0  0  0  0  0  0
   61.0780   32.0880   47.1860 C   0  0  0  0  0  0  0  0  0  0  0  0
   61.0790   30.5520   47.1880 C   0  0  0  0  0  0  0  0  0  0  0  0
   59.7830   30.0550   47.6530 N   0  0  0  0  0  0  0  0  0  0  0  0
   59.4450   28.6720   47.4790 C   0  0  0  0  0  0  0  0  0  0  0  0
   59.9990   27.7170   48.3410 C   0  0  0  0  0  0  0  0  0  0  0  0
   59.6770   26.3680   48.1970 C   0  0  0  0  0  0  0  0  0  0  0  0
   58.8000   25.9610   47.1920 C   0  0  0  0  0  0  0  0  0  0  0  0
   58.2270   26.9030   46.3210 C   0  0  0  0  0  0  0  0  0  0  0  0
   57.3580   26.4700   45.2610 N   0  0  0  0  0  0  0  0  0  0  0  0
   57.3660   25.1450   44.7130 C   0  0  0  0  0  0  0  0  0  0  0  0
   57.8350   24.1160   45.3330 N   0  0  0  0  0  0  0  0  0  0  0  0
   57.6350   22.9130   44.5340 C   0  0  0  0  0  0  0  0  0  0  0  0
   56.9140   23.4030   43.2650 C   0  0  0  0  0  0  0  0  0  0  0  0
   56.7750   24.8330   43.4690 N   0  0  0  0  0  0  0  0  0  0  0  0
   58.5650   28.2660   46.4550 C   0  0  0  0  0  0  0  0  0  0  0  0
   57.8330   29.5710   45.2470 Br  0  0  0  0  0  0  0  0  0  0  0  0
   58.9130   30.9380   48.4310 C   0  0  0  0  0  0  0  0  0  0  0  0
   59.7830   31.8420   49.3130 C   0  0  0  0  0  0  0  0  0  0  0  0
   61.7678   32.7736   50.3956 H   0  0  0  0  0  0  0  0  0  0  0  0
   62.6743   31.9516   49.0806 H   0  0  0  0  0  0  0  0  0  0  0  0
   62.5172   33.7410   49.0806 H   0  0  0  0  0  0  0  0  0  0  0  0
   59.5605   34.2772   49.2464 H   0  0  0  0  0  0  0  0  0  0  0  0
   60.9994   34.7391   48.2000 H   0  0  0  0  0  0  0  0  0  0  0  0
   57.6108   33.0848   48.0090 H   0  0  0  0  0  0  0  0  0  0  0  0
   56.1350   33.3262   46.0114 H   0  0  0  0  0  0  0  0  0  0  0  0
   56.9508   34.5512   43.9957 H   0  0  0  0  0  0  0  0  0  0  0  0
   59.2496   35.5207   43.9679 H   0  0  0  0  0  0  0  0  0  0  0  0
   60.7316   35.2850   45.9607 H   0  0  0  0  0  0  0  0  0  0  0  0
   60.3269   32.4355   46.4614 H   0  0  0  0  0  0  0  0  0  0  0  0
   62.0941   32.4137   46.9189 H   0  0  0  0  0  0  0  0  0  0  0  0
   61.2656   30.1858   46.1677 H   0  0  0  0  0  0  0  0  0  0  0  0
   61.8693   30.1906   47.8624 H   0  0  0  0  0  0  0  0  0  0  0  0
   60.6914   28.0327   49.1353 H   0  0  0  0  0  0  0  0  0  0  0  0
   60.1156   25.6233   48.8775 H   0  0  0  0  0  0  0  0  0  0  0  0
   58.5550   24.8945   47.0803 H   0  0  0  0  0  0  0  0  0  0  0  0
   56.6870   27.1570   44.8500 H   0  0  0  0  0  0  0  0  0  0  0  0
   58.2610   24.1260   46.2860 H   0  0  0  0  0  0  0  0  0  0  0  0
   58.6005   22.4521   44.2783 H   0  0  0  0  0  0  0  0  0  0  0  0
   57.0571   22.1471   45.0719 H   0  0  0  0  0  0  0  0  0  0  0  0
   57.5152   23.1928   42.3681 H   0  0  0  0  0  0  0  0  0  0  0  0
   55.9473   22.9023   43.1078 H   0  0  0  0  0  0  0  0  0  0  0  0
   56.3210   25.5080   42.8140 H   0  0  0  0  0  0  0  0  0  0  0  0
   58.3103   31.5565   47.7496 H   0  0  0  0  0  0  0  0  0  0  0  0
   58.2408   30.3376   49.0616 H   0  0  0  0  0  0  0  0  0  0  0  0
   59.1232   32.5121   49.8836 H   0  0  0  0  0  0  0  0  0  0  0  0
   60.3747   31.1853   49.9677 H   0  0  0  0  0  0  0  0  0  0  0  0
  1  2  1  0
  2  3  1  0
  3  4  1  0
  4  5  2  0
  5  6  1  0
  6  7  2  0
  7  8  1  0
  8  9  2  0
  2 10  1  0
 10 11  1  0
 11 12  1  0
 12 13  1  0
 13 14  2  0
 14 15  1  0
 15 16  2  0
 16 17  1  0
 17 18  1  0
 18 19  1  0
 19 20  2  0
 20 21  1  0
 21 22  1  0
 22 23  1  0
 17 24  2  0
 24 25  1  0
 12 26  1  0
 26 27  1  0
 27  2  1  0
  9  4  1  0
 24 13  1  0
 23 19  1  0
  1 28  1  0
  1 29  1  0
  1 30  1  0
  3 31  1  0
  3 32  1  0
  5 33  1  0
  6 34  1  0
  7 35  1  0
  8 36  1  0
  9 37  1  0
 10 38  1  0
 10 39  1  0
 11 40  1  0
 11 41  1  0
 14 42  1  0
 15 43  1  0
 16 44  1  0
 18 45  1  0
 20 46  1  0
 21 47  1  0
 21 48  1  0
 22 49  1  0
 22 50  1  0
 23 51  1  0
 26 52  1  0
 26 53  1  0
 27 54  1  0
 27 55  1  0
M  CHG  2   2   1  20   1
M  END
>  <UniqueID>  (81) 
69

>  <SMILES>  (81) 
C[N+]1(Cc2ccccc2)CCN(c2cccc(NC3=[NH+]CCN3)c2Br)CC1

>  <Energy>  (81) 
95.55416576720891

>  <Genealogy>  (81) 
C[N+]1(Cc2ccccc2)CCN(c2cccc(NC3=[NH+]CCN3)c2Br)CC1 (protonated)
C[N+]1(Cc2ccccc2)CCN(c2cccc(NC3=[NH+]CCN3)c2Br)CC1 (3D coordinates assigned)
C[N+]1(Cc2ccccc2)CCN(c2cccc(NC3=[NH+]CCN3)c2Br)CC1 (nonaromatic ring conformer: 95.55416576720891 kcal/mol)

>  <smiles>  (81) 
C[N+]1(Cc2ccccc2)CCN(c2cccc(NC3=NCCN3)c2Br)CC1

>  <score_type>  (81) 
oracle

>  <origin>  (81) 
adg

>  <m_score__min__energy>  (81) 
-5.8399999999999999

>  <m_primary>  (81) 
energy

$$$$
81:0
     RDKit          3D

 45 48  0  0  0  0  0  0  0  0999 V2000
   54.5260   27.1010   46.6950 H   0  0  0  0  0  0  0  0  0  0  0  0
   54.5550   26.3400   45.9800 N   0  0  0  0  0  0  0  0  0  0  0  0
   55.7620   25.6280   45.7130 C   0  0  0  0  0  0  0  0  0  0  0  0
   55.7100   24.5900   44.9980 O   0  0  0  0  0  0  0  0  0  0  0  0
   57.0620   26.1170   46.2530 C   0  0  0  0  0  0  0  0  0  0  0  0
   58.0100   25.1750   46.6830 C   0  0  0  0  0  0  0  0  0  0  0  0
   57.7764   24.1018   46.6218 H   0  0  0  0  0  0  0  0  0  0  0  0
   59.2080   25.5720   47.1720 N   0  0  0  0  0  0  0  0  0  0  0  0
   59.5280   26.8800   47.3230 C   0  0  0  0  0  0  0  0  0  0  0  0
   60.7530   27.2160   47.9060 C   0  0  0  0  0  0  0  0  0  0  0  0
   61.4813   26.4258   48.1408 H   0  0  0  0  0  0  0  0  0  0  0  0
   61.0580   28.5460   48.1920 C   0  0  0  0  0  0  0  0  0  0  0  0
   62.0389   28.8039   48.6177 H   0  0  0  0  0  0  0  0  0  0  0  0
   60.1190   29.5560   47.9390 C   0  0  0  0  0  0  0  0  0  0  0  0
   60.4080   30.9670   48.3070 C   0  0  0  0  0  0  0  0  0  0  0  0
   59.7970   32.0210   47.6080 C   0  0  0  0  0  0  0  0  0  0  0  0
   59.1060   31.7987   46.7815 H   0  0  0  0  0  0  0  0  0  0  0  0
   60.0590   33.3490   47.9530 C   0  0  0  0  0  0  0  0  0  0  0  0
   59.2750   34.6410   47.0550 Cl  0  0  0  0  0  0  0  0  0  0  0  0
   60.9390   33.6410   49.0020 C   0  0  0  0  0  0  0  0  0  0  0  0
   61.2000   34.9640   49.3420 O   0  0  0  0  0  0  0  0  0  0  0  0
   61.5610   32.6050   49.7120 C   0  0  0  0  0  0  0  0  0  0  0  0
   62.4350   32.9420   50.7580 O   0  0  0  0  0  0  0  0  0  0  0  0
   63.6100   33.7320   50.6040 C   0  0  0  0  0  0  0  0  0  0  0  0
   64.0056   33.9979   51.5954 H   0  0  0  0  0  0  0  0  0  0  0  0
   64.3671   33.1588   50.0488 H   0  0  0  0  0  0  0  0  0  0  0  0
   63.3649   34.6494   50.0488 H   0  0  0  0  0  0  0  0  0  0  0  0
   61.2900   31.2680   49.3600 C   0  0  0  0  0  0  0  0  0  0  0  0
   61.7737   30.4506   49.9150 H   0  0  0  0  0  0  0  0  0  0  0  0
   58.8890   29.2160   47.3450 C   0  0  0  0  0  0  0  0  0  0  0  0
   58.1313   29.9980   47.1888 H   0  0  0  0  0  0  0  0  0  0  0  0
   58.6080   27.8890   46.9450 C   0  0  0  0  0  0  0  0  0  0  0  0
   57.4020   27.4960   46.2840 C   0  0  0  0  0  0  0  0  0  0  0  0
   56.6180   28.3270   45.6400 N   0  0  0  0  0  0  0  0  0  0  0  0
   56.9440   29.4200   44.7700 C   0  0  0  0  0  0  0  0  0  0  0  0
   57.4810   30.5960   45.3130 C   0  0  0  0  0  0  0  0  0  0  0  0
   57.6784   30.6618   46.3931 H   0  0  0  0  0  0  0  0  0  0  0  0
   57.7660   31.6850   44.4840 C   0  0  0  0  0  0  0  0  0  0  0  0
   58.2085   32.5976   44.9098 H   0  0  0  0  0  0  0  0  0  0  0  0
   57.4900   31.6170   43.1150 C   0  0  0  0  0  0  0  0  0  0  0  0
   57.7690   32.6740   42.3130 F   0  0  0  0  0  0  0  0  0  0  0  0
   56.9150   30.4630   42.5750 C   0  0  0  0  0  0  0  0  0  0  0  0
   56.6834   30.4152   41.5007 H   0  0  0  0  0  0  0  0  0  0  0  0
   56.6340   29.3690   43.4000 C   0  0  0  0  0  0  0  0  0  0  0  0
   56.1694   28.4667   42.9757 H   0  0  0  0  0  0  0  0  0  0  0  0
  1  2  1  0
  2  3  1  0
  3  4  2  0
  3  5  1  0
  5  6  2  0
  6  7  1  0
  6  8  1  0
  8  9  1  0
  9 10  2  0
 10 11  1  0
 10 12  1  0
 12 13  1  0
 12 14  2  0
 14 15  1  0
 15 16  2  0
 16 17  1  0
 16 18  1  0
 18 19  1  0
 18 20  2  0
 20 21  1  0
 20 22  1  0
 22 23  1  0
 23 24  1  0
 24 25  1  0
 24 26  1  0
 24 27  1  0
 22 28  2  0
 28 29  1  0
 14 30  1  0
 30 31  1  0
 30 32  2  0
 32 33  1  0
 33 34  2  0
 34 35  1  0
 35 36  2  0
 36 37  1  0
 36 38  1  0
 38 39  1  0
 38 40  2  0
 40 41  1  0
 40 42  1  0
 42 43  1  0
 42 44  2  0
 44 45  1  0
 33  5  1  0
 44 35  1  0
 32  9  1  0
 28 15  1  0
M  CHG  3   2  -1   8  -1  21  -1
M  END
>  <UniqueID>  (82) 
70

>  <SMILES>  (82) 
COc1cc(-c2ccc3[n-]cc(C([NH-])=O)/c(=N/c4ccc(F)cc4)c3c2)cc(Cl)c1[O-]

>  <Energy>  (82) 
80.81097637174354

>  <Genealogy>  (82) 
COc1cc(-c2ccc3[n-]cc(C([NH-])=O)c(=Nc4ccc(F)cc4)c3c2)cc(Cl)c1[O-] (protonated)
COc1cc(-c2ccc3[n-]cc(C([NH-])=O)/c(=N/c4ccc(F)cc4)c3c2)cc(Cl)c1[O-] (cis-trans isomerization)
COc1cc(-c2ccc3[n-]cc(C([NH-])=O)/c(=N/c4ccc(F)cc4)c3c2)cc(Cl)c1[O-] (3D coordinates assigned)
COc1cc(-c2ccc3[n-]cc(C([NH-])=O)/c(=N/c4ccc(F)cc4)c3c2)cc(Cl)c1[O-] (optimized conformer: 80.81097637174354 kcal/mol)

>  <smiles>  (82) 
COc1cc(-c2ccc3[nH]cc(C(N)=O)c(=Nc4ccc(F)cc4)c3c2)cc(Cl)c1O

>  <score_type>  (82) 
oracle

>  <origin>  (82) 
adg

>  <m_score__min__energy>  (82) 
-12.880000000000001

>  <m_primary>  (82) 
energy

$$$$
82:0
     RDKit          3D

 35 36  0  0  0  0  0  0  0  0999 V2000
   57.4140   34.2330   44.8980 C   0  0  0  0  0  0  0  0  0  0  0  0
   57.2380   33.0890   45.8900 C   0  0  0  0  0  0  0  0  0  0  0  0
   58.5060   32.3670   46.0690 N   0  0  0  0  0  0  0  0  0  0  0  0
   58.7430   31.0960   45.3720 C   0  0  0  0  0  0  0  0  0  0  0  0
   57.4490   30.3690   45.1840 C   0  0  0  0  0  0  0  0  0  0  0  0
   57.1630   29.1030   45.6290 C   0  0  0  0  0  0  0  0  0  0  0  0
   55.9380   28.7580   45.1980 N   0  0  0  0  0  0  0  0  0  0  0  0
   55.5220   29.8310   44.4930 C   0  0  0  0  0  0  0  0  0  0  0  0
   56.4230   30.8360   44.4520 N   0  0  0  0  0  0  0  0  0  0  0  0
   59.5000   32.8710   46.9810 C   0  0  0  0  0  0  0  0  0  0  0  0
   59.1330   33.2960   48.2630 C   0  0  0  0  0  0  0  0  0  0  0  0
   60.0980   33.7740   49.1510 C   0  0  0  0  0  0  0  0  0  0  0  0
   61.4490   33.8350   48.7750 C   0  0  0  0  0  0  0  0  0  0  0  0
   62.4650   34.3590   49.7550 C   0  0  0  0  0  0  0  0  0  0  0  0
   61.8280   33.4140   47.4780 C   0  0  0  0  0  0  0  0  0  0  0  0
   63.2640   33.4640   47.0290 C   0  0  0  0  0  0  0  0  0  0  0  0
   60.8470   32.9310   46.5950 C   0  0  0  0  0  0  0  0  0  0  0  0
   57.5590   35.1752   45.4468 H   0  0  0  0  0  0  0  0  0  0  0  0
   58.2927   34.0381   44.2657 H   0  0  0  0  0  0  0  0  0  0  0  0
   56.5173   34.3112   44.2657 H   0  0  0  0  0  0  0  0  0  0  0  0
   56.9127   33.4960   46.8588 H   0  0  0  0  0  0  0  0  0  0  0  0
   56.4819   32.3916   45.5002 H   0  0  0  0  0  0  0  0  0  0  0  0
   59.1941   31.2976   44.3892 H   0  0  0  0  0  0  0  0  0  0  0  0
   59.4232   30.4748   45.9732 H   0  0  0  0  0  0  0  0  0  0  0  0
   57.8278   28.4735   46.2388 H   0  0  0  0  0  0  0  0  0  0  0  0
   54.5409   29.8821   43.9982 H   0  0  0  0  0  0  0  0  0  0  0  0
   58.0783   33.2531   48.5725 H   0  0  0  0  0  0  0  0  0  0  0  0
   59.7968   34.1062   50.1554 H   0  0  0  0  0  0  0  0  0  0  0  0
   62.1125   34.1772   50.7810 H   0  0  0  0  0  0  0  0  0  0  0  0
   63.4241   33.8431   49.6000 H   0  0  0  0  0  0  0  0  0  0  0  0
   62.6007   35.4395   49.6000 H   0  0  0  0  0  0  0  0  0  0  0  0
   63.9229   33.4869   47.9095 H   0  0  0  0  0  0  0  0  0  0  0  0
   63.4905   32.5732   46.4247 H   0  0  0  0  0  0  0  0  0  0  0  0
   63.4279   34.3684   46.4247 H   0  0  0  0  0  0  0  0  0  0  0  0
   61.1393   32.5959   45.5889 H   0  0  0  0  0  0  0  0  0  0  0  0
  1  2  1  0
  2  3  1  0
  3  4  1  0
  4  5  1  0
  5  6  2  0
  6  7  1  0
  7  8  1  0
  8  9  2  0
  3 10  1  0
 10 11  2  0
 11 12  1  0
 12 13  2  0
 13 14  1  0
 13 15  1  0
 15 16  1  0
 15 17  2  0
  9  5  1  0
 17 10  1  0
  1 18  1  0
  1 19  1  0
  1 20  1  0
  2 21  1  0
  2 22  1  0
  4 23  1  0
  4 24  1  0
  6 25  1  0
  8 26  1  0
 11 27  1  0
 12 28  1  0
 14 29  1  0
 14 30  1  0
 14 31  1  0
 16 32  1  0
 16 33  1  0
 16 34  1  0
 17 35  1  0
M  CHG  1   7  -1
M  END
>  <UniqueID>  (83) 
71

>  <SMILES>  (83) 
CCN(Cc1c[n-]cn1)c1ccc(C)c(C)c1

>  <Energy>  (83) 
61.069112947146074

>  <Genealogy>  (83) 
CCN(Cc1c[n-]cn1)c1ccc(C)c(C)c1 (protonated)
CCN(Cc1c[n-]cn1)c1ccc(C)c(C)c1 (3D coordinates assigned)
CCN(Cc1c[n-]cn1)c1ccc(C)c(C)c1 (optimized conformer: 61.069112947146074 kcal/mol)

>  <smiles>  (83) 
CCN(Cc1c[nH]cn1)c1ccc(C)c(C)c1

>  <score_type>  (83) 
oracle

>  <origin>  (83) 
adg

>  <m_score__min__energy>  (83) 
-8.0199999999999996

>  <m_primary>  (83) 
energy

$$$$
83:0
     RDKit          3D

 31 33  0  0  0  0  0  0  0  0999 V2000
   55.5150   28.9980   44.8730 O   0  0  0  0  0  0  0  0  0  0  0  0
   56.6360   29.5470   44.6980 C   0  0  0  0  0  0  0  0  0  0  0  0
   56.6880   30.9490   44.1610 C   0  0  0  0  0  0  0  0  0  0  0  0
   56.7350   31.8980   45.2270 O   0  0  0  0  0  0  0  0  0  0  0  0
   57.7830   32.8020   45.4740 C   0  0  0  0  0  0  0  0  0  0  0  0
   57.8270   34.0740   44.8700 C   0  0  0  0  0  0  0  0  0  0  0  0
   58.8830   34.9490   45.1330 C   0  0  0  0  0  0  0  0  0  0  0  0
   59.9090   34.5750   46.0000 C   0  0  0  0  0  0  0  0  0  0  0  0
   59.8850   33.3160   46.6130 C   0  0  0  0  0  0  0  0  0  0  0  0
   60.9090   32.9250   47.4840 C   0  0  0  0  0  0  0  0  0  0  0  0
   60.8700   31.6660   48.0810 C   0  0  0  0  0  0  0  0  0  0  0  0
   59.8060   30.8070   47.8020 C   0  0  0  0  0  0  0  0  0  0  0  0
   58.8120   31.1920   46.9550 N   0  0  0  0  0  0  0  0  0  0  0  0
   58.8190   32.4200   46.3530 C   0  0  0  0  0  0  0  0  0  0  0  0
   57.8680   28.8100   45.0330 C   0  0  0  0  0  0  0  0  0  0  0  0
   59.1370   29.0840   44.5350 C   0  0  0  0  0  0  0  0  0  0  0  0
   60.1250   28.2220   45.0310 C   0  0  0  0  0  0  0  0  0  0  0  0
   59.6400   27.2690   45.9160 C   0  0  0  0  0  0  0  0  0  0  0  0
   57.9840   27.4990   46.0830 S   0  0  0  0  0  0  0  0  0  0  0  0
   57.5863   31.0631   43.5365 H   0  0  0  0  0  0  0  0  0  0  0  0
   55.7820   31.1324   43.5648 H   0  0  0  0  0  0  0  0  0  0  0  0
   57.0225   34.3806   44.1853 H   0  0  0  0  0  0  0  0  0  0  0  0
   58.9056   35.9388   44.6536 H   0  0  0  0  0  0  0  0  0  0  0  0
   60.7378   35.2693   46.2026 H   0  0  0  0  0  0  0  0  0  0  0  0
   61.7429   33.6101   47.6968 H   0  0  0  0  0  0  0  0  0  0  0  0
   61.6711   31.3521   48.7663 H   0  0  0  0  0  0  0  0  0  0  0  0
   59.7702   29.8120   48.2697 H   0  0  0  0  0  0  0  0  0  0  0  0
   58.0390   30.5140   46.7760 H   0  0  0  0  0  0  0  0  0  0  0  0
   59.3449   29.8962   43.8228 H   0  0  0  0  0  0  0  0  0  0  0  0
   61.1849   28.2941   44.7457 H   0  0  0  0  0  0  0  0  0  0  0  0
   60.2373   26.4958   46.4213 H   0  0  0  0  0  0  0  0  0  0  0  0
  1  2  2  0
  2  3  1  0
  3  4  1  0
  4  5  1  0
  5  6  2  0
  6  7  1  0
  7  8  2  0
  8  9  1  0
  9 10  2  0
 10 11  1  0
 11 12  2  0
 12 13  1  0
 13 14  2  0
  2 15  1  0
 15 16  2  0
 16 17  1  0
 17 18  2  0
 18 19  1  0
 14  5  1  0
 19 15  1  0
 14  9  1  0
  3 20  1  0
  3 21  1  0
  6 22  1  0
  7 23  1  0
  8 24  1  0
 10 25  1  0
 11 26  1  0
 12 27  1  0
 13 28  1  0
 16 29  1  0
 17 30  1  0
 18 31  1  0
M  CHG  1  13   1
M  END
>  <UniqueID>  (84) 
72

>  <SMILES>  (84) 
O=C(COc1cccc2ccc[nH+]c12)c1cccs1

>  <Energy>  (84) 
61.87128285353761

>  <Genealogy>  (84) 
O=C(COc1cccc2ccc[nH+]c12)c1cccs1 (protonated)
O=C(COc1cccc2ccc[nH+]c12)c1cccs1 (3D coordinates assigned)
O=C(COc1cccc2ccc[nH+]c12)c1cccs1 (optimized conformer: 61.87128285353761 kcal/mol)

>  <smiles>  (84) 
O=C(COc1cccc2cccnc12)c1cccs1

>  <score_type>  (84) 
oracle

>  <origin>  (84) 
adg

>  <m_score__min__energy>  (84) 
-5.6299999999999999

>  <m_primary>  (84) 
energy

$$$$
84:0
     RDKit          3D

 56 58  0  0  1  0  0  0  0  0999 V2000
   57.0090   21.1060   43.0340 C   0  0  0  0  0  0  0  0  0  0  0  0
   56.0950   22.1890   43.3340 N   0  0  0  0  0  0  0  0  0  0  0  0
   56.6380   23.3780   42.6830 C   0  0  0  0  0  0  0  0  0  0  0  0
   56.0170   22.4900   44.7290 C   0  0  0  0  0  0  0  0  0  0  0  0
   54.6710   22.9500   45.1850 C   0  0  0  0  0  0  0  0  0  0  0  0
   54.4350   24.4250   45.0030 C   0  0  0  0  0  0  0  0  0  0  0  0
   55.0490   25.2380   46.0160 N   0  0  0  0  0  0  0  0  0  0  0  0
   56.3120   25.3820   45.9870 C   0  0  0  0  0  0  0  0  0  0  0  0
   56.8740   26.3420   45.2310 N   0  0  0  0  0  0  0  0  0  0  0  0
   58.2220   26.5200   45.1800 C   0  0  0  0  0  0  0  0  0  0  0  0
   58.6670   27.4560   44.4370 N   0  0  0  0  0  0  0  0  0  0  0  0
   58.6440   28.8280   44.8060 C   0  0  0  0  0  0  0  0  0  0  0  0
   59.4980   29.3360   45.7610 C   0  0  0  0  0  0  0  0  0  0  0  0
   59.4530   30.6810   46.1020 C   0  0  0  0  0  0  0  0  0  0  0  0
   58.5760   31.5720   45.5280 C   0  0  0  0  0  0  0  0  0  0  0  0
   58.4980   32.9440   45.8510 N   0  0  0  0  0  0  0  0  0  0  0  0
   58.1390   33.9980   44.9350 C   0  0  0  0  0  0  0  0  0  0  0  0
   59.2680   35.0130   44.8890 C   0  0  0  0  0  0  0  0  0  0  0  0
   59.8590   35.1910   46.1350 O   0  0  0  0  0  0  0  0  0  0  0  0
   58.9420   34.8920   47.1260 C   0  0  0  0  0  0  0  0  0  0  0  0
   58.8010   33.3640   47.2250 C   0  0  0  0  0  0  0  0  0  0  0  0
   57.7170   31.0420   44.5640 C   0  0  0  0  0  0  0  0  0  0  0  0
   57.7550   29.7020   44.2160 C   0  0  0  0  0  0  0  0  0  0  0  0
   59.0800   25.7650   45.8670 N   0  0  0  0  0  0  0  0  0  0  0  0
   58.5650   24.7770   46.6490 C   0  0  0  0  0  0  0  0  0  0  0  0
   57.1890   24.5830   46.7100 C   0  0  0  0  0  0  0  0  0  0  0  0
   56.6690   23.5390   47.5380 N   0  0  0  0  0  0  0  0  0  0  0  0
   55.6650   23.7490   48.2280 O   0  0  0  0  0  0  0  0  0  0  0  0
   57.3400   22.3420   47.5090 O   0  0  0  0  0  0  0  0  0  0  0  0
   57.3789   20.6677   43.9727 H   0  0  0  0  0  0  0  0  0  0  0  0
   56.4847   20.3347   42.4508 H   0  0  0  0  0  0  0  0  0  0  0  0
   57.8575   21.4932   42.4508 H   0  0  0  0  0  0  0  0  0  0  0  0
   56.9664   24.0971   43.4479 H   0  0  0  0  0  0  0  0  0  0  0  0
   57.4953   23.0932   42.0554 H   0  0  0  0  0  0  0  0  0  0  0  0
   55.8613   23.8394   42.0554 H   0  0  0  0  0  0  0  0  0  0  0  0
   56.2798   21.5825   45.2923 H   0  0  0  0  0  0  0  0  0  0  0  0
   56.7123   23.3228   44.9106 H   0  0  0  0  0  0  0  0  0  0  0  0
   53.9065   22.4040   44.6127 H   0  0  0  0  0  0  0  0  0  0  0  0
   54.6148   22.7493   46.2651 H   0  0  0  0  0  0  0  0  0  0  0  0
   54.8408   24.7234   44.0251 H   0  0  0  0  0  0  0  0  0  0  0  0
   53.3495   24.5879   45.0747 H   0  0  0  0  0  0  0  0  0  0  0  0
   56.2580   26.9750   44.6630 H   0  0  0  0  0  0  0  0  0  0  0  0
   60.2205   28.6709   46.2566 H   0  0  0  0  0  0  0  0  0  0  0  0
   60.1512   31.0516   46.8669 H   0  0  0  0  0  0  0  0  0  0  0  0
   57.9794   33.5770   43.9314 H   0  0  0  0  0  0  0  0  0  0  0  0
   57.2120   34.4854   45.2713 H   0  0  0  0  0  0  0  0  0  0  0  0
   60.0324   34.6621   44.1801 H   0  0  0  0  0  0  0  0  0  0  0  0
   58.8450   35.9778   44.5724 H   0  0  0  0  0  0  0  0  0  0  0  0
   59.2927   35.2941   48.0879 H   0  0  0  0  0  0  0  0  0  0  0  0
   57.9684   35.3425   46.8829 H   0  0  0  0  0  0  0  0  0  0  0  0
   59.7381   32.9070   47.5756 H   0  0  0  0  0  0  0  0  0  0  0  0
   58.0253   33.0566   47.9418 H   0  0  0  0  0  0  0  0  0  0  0  0
   56.9922   31.7047   44.0686 H   0  0  0  0  0  0  0  0  0  0  0  0
   57.0598   29.3259   43.4510 H   0  0  0  0  0  0  0  0  0  0  0  0
   60.1250   25.9160   45.8170 H   0  0  0  0  0  0  0  0  0  0  0  0
   59.2375   24.1316   47.2331 H   0  0  0  0  0  0  0  0  0  0  0  0
  1  2  1  0
  2  3  1  0
  2  4  1  0
  4  5  1  0
  5  6  1  0
  6  7  1  0
  7  8  2  0
  8  9  1  0
  9 10  1  0
 10 11  2  0
 11 12  1  0
 12 13  2  0
 13 14  1  0
 14 15  2  0
 15 16  1  0
 16 17  1  0
 17 18  1  0
 18 19  1  0
 19 20  1  0
 20 21  1  0
 15 22  1  0
 22 23  2  0
 10 24  1  0
 24 25  1  0
 25 26  2  0
 26 27  1  0
 27 28  2  0
 27 29  1  0
 26  8  1  0
 23 12  1  0
 21 16  1  0
  1 30  1  0
  1 31  1  0
  1 32  1  0
  3 33  1  0
  3 34  1  0
  3 35  1  0
  4 36  1  0
  4 37  1  0
  5 38  1  0
  5 39  1  0
  6 40  1  0
  6 41  1  0
  9 42  1  0
 13 43  1  0
 14 44  1  0
 17 45  1  0
 17 46  1  0
 18 47  1  0
 18 48  1  0
 20 49  1  0
 20 50  1  0
 21 51  1  0
 21 52  1  0
 22 53  1  0
 23 54  1  0
 24 55  1  0
 25 56  1  0
M  CHG  2  27   1  29  -1
M  END
>  <smiles>  (85) 
CN(C)CCCN=c1[nH]c(=Nc2ccc(N3CCOCC3)cc2)[nH]cc1[N+](=O)[O-]

>  <score_type>  (85) 
oracle

>  <origin>  (85) 
adg

>  <m_score__min__energy>  (85) 
-7.5300000000000002

>  <m_primary>  (85) 
energy

$$$$
85:0
     RDKit          3D

 44 45  0  0  0  0  0  0  0  0999 V2000
   61.2890   34.1280   46.7450 C   0  0  0  0  0  0  0  0  0  0  0  0
   59.8290   33.9130   46.4330 C   0  0  0  0  0  0  0  0  0  0  0  0
   59.3710   34.2160   45.1350 C   0  0  0  0  0  0  0  0  0  0  0  0
   58.0120   34.1670   44.8260 C   0  0  0  0  0  0  0  0  0  0  0  0
   57.0860   33.8140   45.8070 C   0  0  0  0  0  0  0  0  0  0  0  0
   57.5230   33.4550   47.0840 C   0  0  0  0  0  0  0  0  0  0  0  0
   58.8960   33.4840   47.4180 C   0  0  0  0  0  0  0  0  0  0  0  0
   59.3150   33.0570   48.8110 C   0  0  0  0  0  0  0  0  0  0  0  0
   58.8700   31.6130   49.1650 C   0  0  2  0  0  0  0  0  0  0  0  0
   58.7700   31.4300   50.6950 C   0  0  0  0  0  0  0  0  0  0  0  0
   59.7030   30.5610   48.5260 N   0  0  0  0  0  0  0  0  0  0  0  0
   58.9580   29.5790   47.7100 C   0  0  0  0  0  0  0  0  0  0  0  0
   59.4460   29.5670   46.2480 C   0  0  2  0  0  0  0  0  0  0  0  0
   60.4710   30.5160   46.1000 O   0  0  0  0  0  0  0  0  0  0  0  0
   58.3160   29.8670   45.2840 C   0  0  0  0  0  0  0  0  0  0  0  0
   57.0710   29.2210   45.4030 C   0  0  0  0  0  0  0  0  0  0  0  0
   56.0450   29.4870   44.4840 C   0  0  0  0  0  0  0  0  0  0  0  0
   56.2550   30.3850   43.4320 C   0  0  0  0  0  0  0  0  0  0  0  0
   57.4930   31.0270   43.3030 C   0  0  0  0  0  0  0  0  0  0  0  0
   57.7620   32.1570   41.9870 Cl  0  0  0  0  0  0  0  0  0  0  0  0
   58.5190   30.7720   44.2230 C   0  0  0  0  0  0  0  0  0  0  0  0
   61.4317   34.1490   47.8355 H   0  0  0  0  0  0  0  0  0  0  0  0
   61.8809   33.3073   46.3135 H   0  0  0  0  0  0  0  0  0  0  0  0
   61.6192   35.0845   46.3135 H   0  0  0  0  0  0  0  0  0  0  0  0
   60.0951   34.4948   44.3553 H   0  0  0  0  0  0  0  0  0  0  0  0
   57.6705   34.4069   43.8082 H   0  0  0  0  0  0  0  0  0  0  0  0
   56.0108   33.8183   45.5750 H   0  0  0  0  0  0  0  0  0  0  0  0
   56.7876   33.1451   47.8411 H   0  0  0  0  0  0  0  0  0  0  0  0
   60.4115   33.1120   48.8790 H   0  0  0  0  0  0  0  0  0  0  0  0
   58.8235   33.7356   49.5237 H   0  0  0  0  0  0  0  0  0  0  0  0
   57.8653   31.4793   48.7377 H   0  0  0  0  0  0  0  0  0  0  0  0
   59.2390   32.2883   51.1984 H   0  0  0  0  0  0  0  0  0  0  0  0
   57.7117   31.3663   50.9883 H   0  0  0  0  0  0  0  0  0  0  0  0
   59.2880   30.5050   50.9883 H   0  0  0  0  0  0  0  0  0  0  0  0
   60.4140   31.0300   47.9160 H   0  0  0  0  0  0  0  0  0  0  0  0
   60.2340   30.0640   49.2780 H   0  0  0  0  0  0  0  0  0  0  0  0
   59.0988   28.5769   48.1413 H   0  0  0  0  0  0  0  0  0  0  0  0
   57.8956   29.8640   47.7150 H   0  0  0  0  0  0  0  0  0  0  0  0
   59.8253   28.5618   46.0119 H   0  0  0  0  0  0  0  0  0  0  0  0
   61.1520   30.1140   45.5020 H   0  0  0  0  0  0  0  0  0  0  0  0
   56.9019   28.5044   46.2202 H   0  0  0  0  0  0  0  0  0  0  0  0
   55.0709   28.9872   44.5910 H   0  0  0  0  0  0  0  0  0  0  0  0
   55.4508   30.5861   42.7089 H   0  0  0  0  0  0  0  0  0  0  0  0
   59.4882   31.2811   44.1163 H   0  0  0  0  0  0  0  0  0  0  0  0
  1  2  1  0
  2  3  2  0
  3  4  1  0
  4  5  2  0
  5  6  1  0
  6  7  2  0
  7  8  1  0
  8  9  1  0
  9 10  1  0
  9 11  1  0
 11 12  1  0
 12 13  1  0
 13 14  1  0
 13 15  1  0
 15 16  2  0
 16 17  1  0
 17 18  2  0
 18 19  1  0
 19 20  1  0
 19 21  2  0
  7  2  1  0
 21 15  1  0
  1 22  1  0
  1 23  1  0
  1 24  1  0
  3 25  1  0
  4 26  1  0
  5 27  1  0
  6 28  1  0
  8 29  1  0
  8 30  1  0
  9 31  1  6
 10 32  1  0
 10 33  1  0
 10 34  1  0
 11 35  1  0
 11 36  1  0
 12 37  1  0
 12 38  1  0
 13 39  1  6
 14 40  1  0
 16 41  1  0
 17 42  1  0
 18 43  1  0
 21 44  1  0
M  CHG  1  11   1
M  END
>  <UniqueID>  (86) 
73

>  <SMILES>  (86) 
Cc1ccccc1C[C@H](C)[NH2+]C[C@H](O)c1cccc(Cl)c1

>  <Energy>  (86) 
43.41457834771317

>  <Genealogy>  (86) 
Cc1ccccc1CC(C)[NH2+]CC(O)c1cccc(Cl)c1 (protonated)
Cc1ccccc1C[C@H](C)[NH2+]C[C@H](O)c1cccc(Cl)c1 (chirality)
Cc1ccccc1C[C@H](C)[NH2+]C[C@H](O)c1cccc(Cl)c1 (3D coordinates assigned)
Cc1ccccc1C[C@H](C)[NH2+]C[C@H](O)c1cccc(Cl)c1 (optimized conformer: 43.41457834771317 kcal/mol)

>  <smiles>  (86) 
Cc1ccccc1CC(C)NCC(O)c1cccc(Cl)c1

>  <score_type>  (86) 
oracle

>  <origin>  (86) 
adg

>  <m_score__min__energy>  (86) 
-6.6900000000000004

>  <m_primary>  (86) 
energy

$$$$
86:0
     RDKit          3D

 36 38  0  0  0  0  0  0  0  0999 V2000
   60.1475   33.2875   50.0232 H   0  0  0  0  0  0  0  0  0  0  0  0
   60.1140   33.0310   48.9540 C   0  0  0  0  0  0  0  0  0  0  0  0
   58.9460   32.8470   48.4090 N   0  0  0  0  0  0  0  0  0  0  0  0
   58.6710   32.3550   47.0880 C   0  0  0  0  0  0  0  0  0  0  0  0
   58.1480   30.7950   46.7100 S   0  0  0  0  0  0  0  0  0  0  0  0
   57.8910   31.1070   45.0810 C   0  0  0  0  0  0  0  0  0  0  0  0
   58.2170   32.4320   44.7980 C   0  0  0  0  0  0  0  0  0  0  0  0
   58.6270   33.1500   45.9430 C   0  0  0  0  0  0  0  0  0  0  0  0
   58.9470   34.5910   45.9630 C   0  0  0  0  0  0  0  0  0  0  0  0
   59.1990   35.1860   44.8820 O   0  0  0  0  0  0  0  0  0  0  0  0
   58.9240   35.3290   47.1840 N   0  0  0  0  0  0  0  0  0  0  0  0
   58.5440   34.9040   48.0580 H   0  0  0  0  0  0  0  0  0  0  0  0
   59.1990   36.3360   47.1930 H   0  0  0  0  0  0  0  0  0  0  0  0
   57.9180   33.0380   43.4470 C   0  0  0  0  0  0  0  0  0  0  0  0
   56.9816   33.6114   43.5123 H   0  0  0  0  0  0  0  0  0  0  0  0
   58.7592   33.6898   43.1685 H   0  0  0  0  0  0  0  0  0  0  0  0
   57.7670   31.9570   42.3620 C   0  0  0  0  0  0  0  0  0  0  0  0
   57.3353   32.4141   41.4594 H   0  0  0  0  0  0  0  0  0  0  0  0
   58.7619   31.5382   42.1506 H   0  0  0  0  0  0  0  0  0  0  0  0
   56.8520   30.8150   42.8300 C   0  0  0  0  0  0  0  0  0  0  0  0
   55.8654   31.2276   43.0876 H   0  0  0  0  0  0  0  0  0  0  0  0
   56.7632   30.0817   42.0149 H   0  0  0  0  0  0  0  0  0  0  0  0
   57.4370   30.1080   44.0610 C   0  0  0  0  0  0  0  0  0  0  0  0
   56.6660   29.4622   44.5066 H   0  0  0  0  0  0  0  0  0  0  0  0
   58.3028   29.5075   43.7451 H   0  0  0  0  0  0  0  0  0  0  0  0
   61.3970   32.9180   48.2310 C   0  0  0  0  0  0  0  0  0  0  0  0
   61.7960   33.9520   47.3710 C   0  0  0  0  0  0  0  0  0  0  0  0
   61.1688   34.8494   47.2651 H   0  0  0  0  0  0  0  0  0  0  0  0
   62.9880   33.8460   46.6480 C   0  0  0  0  0  0  0  0  0  0  0  0
   63.3048   34.6668   45.9878 H   0  0  0  0  0  0  0  0  0  0  0  0
   63.7780   32.6980   46.7630 C   0  0  0  0  0  0  0  0  0  0  0  0
   64.7198   32.6198   46.2001 H   0  0  0  0  0  0  0  0  0  0  0  0
   63.3710   31.6500   47.5930 C   0  0  0  0  0  0  0  0  0  0  0  0
   63.9886   30.7436   47.6769 H   0  0  0  0  0  0  0  0  0  0  0  0
   62.1790   31.7530   48.3170 C   0  0  0  0  0  0  0  0  0  0  0  0
   61.8521   30.9195   48.9560 H   0  0  0  0  0  0  0  0  0  0  0  0
  1  2  1  0
  2  3  2  0
  3  4  1  0
  4  5  1  0
  5  6  1  0
  6  7  2  0
  7  8  1  0
  8  9  1  0
  9 10  2  0
  9 11  1  0
 11 12  1  0
 11 13  1  0
  7 14  1  0
 14 15  1  0
 14 16  1  0
 14 17  1  0
 17 18  1  0
 17 19  1  0
 17 20  1  0
 20 21  1  0
 20 22  1  0
 20 23  1  0
 23 24  1  0
 23 25  1  0
  2 26  1  0
 26 27  2  0
 27 28  1  0
 27 29  1  0
 29 30  1  0
 29 31  2  0
 31 32  1  0
 31 33  1  0
 33 34  1  0
 33 35  2  0
 35 36  1  0
  8  4  2  0
 35 26  1  0
 23  6  1  0
M  END
>  <UniqueID>  (87) 
74

>  <SMILES>  (87) 
NC(=O)c1c(/N=C\c2ccccc2)sc2c1CCCC2

>  <Energy>  (87) 
77.20660655950023

>  <Genealogy>  (87) 
NC(=O)c1c(/N=C\c2ccccc2)sc2c1CCCC2 (cis-trans isomerization)
NC(=O)c1c(/N=C\c2ccccc2)sc2c1CCCC2 (3D coordinates assigned)
NC(=O)c1c(/N=C\c2ccccc2)sc2c1CCCC2 (nonaromatic ring conformer: 77.20660655950023 kcal/mol)

>  <smiles>  (87) 
NC(=O)c1c(N=Cc2ccccc2)sc2c1CCCC2

>  <score_type>  (87) 
oracle

>  <origin>  (87) 
adg

>  <m_score__min__energy>  (87) 
-8.5399999999999991

>  <m_primary>  (87) 
energy

$$$$
87:0
     RDKit          3D

 55 58  0  0  0  0  0  0  0  0999 V2000
   65.4310   32.3520   50.2250 C   0  0  0  0  0  0  0  0  0  0  0  0
   65.0580   32.9840   49.0030 O   0  0  0  0  0  0  0  0  0  0  0  0
   63.7580   33.4160   48.7050 C   0  0  0  0  0  0  0  0  0  0  0  0
   62.8510   33.8410   49.6970 C   0  0  0  0  0  0  0  0  0  0  0  0
   61.5580   34.2360   49.3440 C   0  0  0  0  0  0  0  0  0  0  0  0
   61.1490   34.2170   47.9990 C   0  0  0  0  0  0  0  0  0  0  0  0
   59.7470   34.6360   47.6340 C   0  0  0  0  0  0  0  0  0  0  0  0
   58.8160   33.5590   47.7280 O   0  0  0  0  0  0  0  0  0  0  0  0
   58.9320   32.3230   47.0660 C   0  0  0  0  0  0  0  0  0  0  0  0
   59.8770   31.3550   47.4570 C   0  0  0  0  0  0  0  0  0  0  0  0
   59.9640   30.1330   46.7890 C   0  0  0  0  0  0  0  0  0  0  0  0
   59.0700   29.8290   45.7490 C   0  0  0  0  0  0  0  0  0  0  0  0
   59.0790   28.5790   45.1010 C   0  0  0  0  0  0  0  0  0  0  0  0
   59.9350   27.7000   45.3990 O   0  0  0  0  0  0  0  0  0  0  0  0
   58.1030   28.3050   44.1340 C   0  0  0  0  0  0  0  0  0  0  0  0
   58.0230   27.0510   43.5190 O   0  0  0  0  0  0  0  0  0  0  0  0
   57.6060   25.8800   44.1680 C   0  0  0  0  0  0  0  0  0  0  0  0
   57.5050   25.7960   45.5700 C   0  0  0  0  0  0  0  0  0  0  0  0
   57.1590   24.5830   46.1860 C   0  0  0  0  0  0  0  0  0  0  0  0
   57.0550   24.4970   47.6820 C   0  0  0  0  0  0  0  0  0  0  0  0
   56.8600   23.4640   45.3950 C   0  0  0  0  0  0  0  0  0  0  0  0
   56.9280   23.5460   43.9950 C   0  0  0  0  0  0  0  0  0  0  0  0
   56.6470   22.3390   43.1490 C   0  0  0  0  0  0  0  0  0  0  0  0
   57.3230   24.7500   43.3910 C   0  0  0  0  0  0  0  0  0  0  0  0
   57.1650   29.2930   43.8190 C   0  0  0  0  0  0  0  0  0  0  0  0
   57.2040   30.4770   44.4230 O   0  0  0  0  0  0  0  0  0  0  0  0
   58.0980   30.7840   45.3620 C   0  0  0  0  0  0  0  0  0  0  0  0
   58.0670   32.0500   45.9830 C   0  0  0  0  0  0  0  0  0  0  0  0
   57.0270   33.0680   45.5850 C   0  0  0  0  0  0  0  0  0  0  0  0
   62.0700   33.8390   47.0080 C   0  0  0  0  0  0  0  0  0  0  0  0
   63.3550   33.4230   47.3610 C   0  0  0  0  0  0  0  0  0  0  0  0
   65.0751   32.9551   51.0733 H   0  0  0  0  0  0  0  0  0  0  0  0
   64.9794   31.3501   50.2724 H   0  0  0  0  0  0  0  0  0  0  0  0
   66.5264   32.2631   50.2724 H   0  0  0  0  0  0  0  0  0  0  0  0
   63.1620   33.8617   50.7519 H   0  0  0  0  0  0  0  0  0  0  0  0
   60.8551   34.5641   50.1240 H   0  0  0  0  0  0  0  0  0  0  0  0
   59.4292   35.4384   48.3161 H   0  0  0  0  0  0  0  0  0  0  0  0
   59.7604   34.9777   46.5885 H   0  0  0  0  0  0  0  0  0  0  0  0
   60.5540   31.5645   48.2983 H   0  0  0  0  0  0  0  0  0  0  0  0
   60.7360   29.4046   47.0780 H   0  0  0  0  0  0  0  0  0  0  0  0
   57.6984   26.6864   46.1863 H   0  0  0  0  0  0  0  0  0  0  0  0
   57.8256   25.1342   48.1404 H   0  0  0  0  0  0  0  0  0  0  0  0
   56.0593   24.8390   48.0006 H   0  0  0  0  0  0  0  0  0  0  0  0
   57.2040   23.4547   48.0006 H   0  0  0  0  0  0  0  0  0  0  0  0
   56.5707   22.5170   45.8741 H   0  0  0  0  0  0  0  0  0  0  0  0
   56.4458   21.4746   43.7988 H   0  0  0  0  0  0  0  0  0  0  0  0
   55.7699   22.5325   42.5140 H   0  0  0  0  0  0  0  0  0  0  0  0
   57.5194   22.1251   42.5140 H   0  0  0  0  0  0  0  0  0  0  0  0
   57.4111   24.8064   42.2960 H   0  0  0  0  0  0  0  0  0  0  0  0
   56.3893   29.0893   43.0662 H   0  0  0  0  0  0  0  0  0  0  0  0
   56.5787   33.5068   46.4886 H   0  0  0  0  0  0  0  0  0  0  0  0
   57.5003   33.8616   44.9881 H   0  0  0  0  0  0  0  0  0  0  0  0
   56.2437   32.5779   44.9881 H   0  0  0  0  0  0  0  0  0  0  0  0
   61.7771   33.8710   45.9482 H   0  0  0  0  0  0  0  0  0  0  0  0
   64.0573   33.0981   46.5792 H   0  0  0  0  0  0  0  0  0  0  0  0
  1  2  1  0
  2  3  1  0
  3  4  2  0
  4  5  1  0
  5  6  2  0
  6  7  1  0
  7  8  1  0
  8  9  1  0
  9 10  2  0
 10 11  1  0
 11 12  2  0
 12 13  1  0
 13 14  2  0
 13 15  1  0
 15 16  1  0
 16 17  1  0
 17 18  2  0
 18 19  1  0
 19 20  1  0
 19 21  2  0
 21 22  1  0
 22 23  1  0
 22 24  2  0
 15 25  2  0
 25 26  1  0
 26 27  1  0
 27 28  2  0
 28 29  1  0
  6 30  1  0
 30 31  2  0
 31  3  1  0
 28  9  1  0
 27 12  1  0
 24 17  1  0
  1 32  1  0
  1 33  1  0
  1 34  1  0
  4 35  1  0
  5 36  1  0
  7 37  1  0
  7 38  1  0
 10 39  1  0
 11 40  1  0
 18 41  1  0
 20 42  1  0
 20 43  1  0
 20 44  1  0
 21 45  1  0
 23 46  1  0
 23 47  1  0
 23 48  1  0
 24 49  1  0
 25 50  1  0
 29 51  1  0
 29 52  1  0
 29 53  1  0
 30 54  1  0
 31 55  1  0
M  END
>  <UniqueID>  (88) 
75

>  <SMILES>  (88) 
COc1ccc(COc2ccc3c(=O)c(Oc4cc(C)cc(C)c4)coc3c2C)cc1

>  <Energy>  (88) 
74.59894438535045

>  <Genealogy>  (88) 
COc1ccc(COc2ccc3c(=O)c(Oc4cc(C)cc(C)c4)coc3c2C)cc1 (3D coordinates assigned)
COc1ccc(COc2ccc3c(=O)c(Oc4cc(C)cc(C)c4)coc3c2C)cc1 (optimized conformer: 74.59894438535045 kcal/mol)

>  <smiles>  (88) 
COc1ccc(COc2ccc3c(=O)c(Oc4cc(C)cc(C)c4)coc3c2C)cc1

>  <score_type>  (88) 
oracle

>  <origin>  (88) 
adg

>  <m_score__min__energy>  (88) 
-7.96

>  <m_primary>  (88) 
energy

$$$$
88:0
     RDKit          3D

 40 42  0  0  0  0  0  0  0  0999 V2000
   55.5210   27.6440   45.6250 O   0  0  0  0  0  0  0  0  0  0  0  0
   56.5310   26.7200   45.8680 C   0  0  0  0  0  0  0  0  0  0  0  0
   56.1940   25.4540   46.3590 C   0  0  0  0  0  0  0  0  0  0  0  0
   57.1950   24.5160   46.6320 C   0  0  0  0  0  0  0  0  0  0  0  0
   58.5350   24.8420   46.4130 C   0  0  0  0  0  0  0  0  0  0  0  0
   58.8780   26.1040   45.9200 C   0  0  0  0  0  0  0  0  0  0  0  0
   57.8810   27.0540   45.6410 C   0  0  0  0  0  0  0  0  0  0  0  0
   58.2460   28.3430   45.1150 N   0  0  0  0  0  0  0  0  0  0  0  0
   58.9800   29.3030   45.9480 C   0  0  0  0  0  0  0  0  0  0  0  0
   58.6560   30.7430   45.5240 C   0  0  0  0  0  0  0  0  0  0  0  0
   57.2420   30.8450   45.0950 N   0  0  0  0  0  0  0  0  0  0  0  0
   56.8400   32.2590   44.8950 C   0  0  0  0  0  0  0  0  0  0  0  0
   57.8180   33.2230   45.5270 C   0  0  0  0  0  0  0  0  0  0  0  0
   57.8930   33.3380   46.9250 C   0  0  0  0  0  0  0  0  0  0  0  0
   58.8060   34.2190   47.5130 C   0  0  0  0  0  0  0  0  0  0  0  0
   59.6520   34.9900   46.7100 C   0  0  0  0  0  0  0  0  0  0  0  0
   59.5840   34.8810   45.3180 C   0  0  0  0  0  0  0  0  0  0  0  0
   58.6710   34.0020   44.7270 C   0  0  0  0  0  0  0  0  0  0  0  0
   57.0080   30.0740   43.8450 C   0  0  0  0  0  0  0  0  0  0  0  0
   57.8100   28.7570   43.7780 C   0  0  0  0  0  0  0  0  0  0  0  0
   55.1387   25.1955   46.5309 H   0  0  0  0  0  0  0  0  0  0  0  0
   56.9267   23.5219   47.0191 H   0  0  0  0  0  0  0  0  0  0  0  0
   59.3219   24.1043   46.6288 H   0  0  0  0  0  0  0  0  0  0  0  0
   59.9352   26.3552   45.7493 H   0  0  0  0  0  0  0  0  0  0  0  0
   58.6927   29.1625   47.0005 H   0  0  0  0  0  0  0  0  0  0  0  0
   60.0590   29.1300   45.8224 H   0  0  0  0  0  0  0  0  0  0  0  0
   58.8272   31.4193   46.3745 H   0  0  0  0  0  0  0  0  0  0  0  0
   59.3070   31.0242   44.6831 H   0  0  0  0  0  0  0  0  0  0  0  0
   56.6340   30.4310   45.8430 H   0  0  0  0  0  0  0  0  0  0  0  0
   56.7877   32.4636   43.8155 H   0  0  0  0  0  0  0  0  0  0  0  0
   55.8618   32.4044   45.3766 H   0  0  0  0  0  0  0  0  0  0  0  0
   57.2303   32.7321   47.5603 H   0  0  0  0  0  0  0  0  0  0  0  0
   58.8587   34.3055   48.6083 H   0  0  0  0  0  0  0  0  0  0  0  0
   60.3707   35.6820   47.1733 H   0  0  0  0  0  0  0  0  0  0  0  0
   60.2497   35.4876   44.6865 H   0  0  0  0  0  0  0  0  0  0  0  0
   58.6204   33.9200   43.6312 H   0  0  0  0  0  0  0  0  0  0  0  0
   55.9366   29.8336   43.7790 H   0  0  0  0  0  0  0  0  0  0  0  0
   57.3454   30.7026   43.0077 H   0  0  0  0  0  0  0  0  0  0  0  0
   57.1746   27.9697   43.3462 H   0  0  0  0  0  0  0  0  0  0  0  0
   58.6998   28.9182   43.1517 H   0  0  0  0  0  0  0  0  0  0  0  0
  1  2  1  0
  2  3  2  0
  3  4  1  0
  4  5  2  0
  5  6  1  0
  6  7  2  0
  7  8  1  0
  8  9  1  0
  9 10  1  0
 10 11  1  0
 11 12  1  0
 12 13  1  0
 13 14  2  0
 14 15  1  0
 15 16  2  0
 16 17  1  0
 17 18  2  0
 11 19  1  0
 19 20  1  0
  7  2  1  0
 20  8  1  0
 18 13  1  0
  3 21  1  0
  4 22  1  0
  5 23  1  0
  6 24  1  0
  9 25  1  0
  9 26  1  0
 10 27  1  0
 10 28  1  0
 11 29  1  0
 12 30  1  0
 12 31  1  0
 14 32  1  0
 15 33  1  0
 16 34  1  0
 17 35  1  0
 18 36  1  0
 19 37  1  0
 19 38  1  0
 20 39  1  0
 20 40  1  0
M  CHG  2   1  -1  11   1
M  END
>  <UniqueID>  (89) 
76

>  <SMILES>  (89) 
[O-]c1ccccc1N1CC[NH+](Cc2ccccc2)CC1

>  <Energy>  (89) 
53.97783874845225

>  <Genealogy>  (89) 
[O-]c1ccccc1N1CC[NH+](Cc2ccccc2)CC1 (protonated)
[O-]c1ccccc1N1CC[NH+](Cc2ccccc2)CC1 (3D coordinates assigned)
[O-]c1ccccc1N1CC[NH+](Cc2ccccc2)CC1 (nonaromatic ring conformer: 53.97783874845225 kcal/mol)

>  <smiles>  (89) 
Oc1ccccc1N1CCN(Cc2ccccc2)CC1

>  <score_type>  (89) 
oracle

>  <origin>  (89) 
adg

>  <m_score__min__energy>  (89) 
-9.2100000000000009

>  <m_primary>  (89) 
energy

$$$$
89:0
     RDKit          3D

 46 48  0  0  1  0  0  0  0  0999 V2000
   60.1080   34.1970   48.6670 C   0  0  0  0  0  0  0  0  0  0  0  0
   58.8760   33.5600   48.3340 O   0  0  0  0  0  0  0  0  0  0  0  0
   58.4920   33.4090   47.0160 C   0  0  0  0  0  0  0  0  0  0  0  0
   58.6400   34.4400   46.1110 C   0  0  0  0  0  0  0  0  0  0  0  0
   58.2590   34.3130   44.7750 C   0  0  0  0  0  0  0  0  0  0  0  0
   57.7110   33.0970   44.3560 C   0  0  0  0  0  0  0  0  0  0  0  0
   57.5580   32.0570   45.2550 C   0  0  0  0  0  0  0  0  0  0  0  0
   57.0080   30.7940   44.8900 N   0  0  0  0  0  0  0  0  0  0  0  0
   57.6290   29.6900   45.1450 C   0  0  0  0  0  0  0  0  0  0  0  0
   58.9900   29.5730   44.9090 C   0  0  0  0  0  0  0  0  0  0  0  0
   59.5930   28.3630   45.2030 C   0  0  0  0  0  0  0  0  0  0  0  0
   58.9070   27.3180   45.7030 N   0  0  0  0  0  0  0  0  0  0  0  0
   57.5870   27.4530   45.9240 C   0  0  0  0  0  0  0  0  0  0  0  0
   56.8750   26.5030   46.3950 N   0  0  0  0  0  0  0  0  0  0  0  0
   56.5800   25.3410   45.6250 C   0  0  0  0  0  0  0  0  0  0  0  0
   57.6410   24.6860   45.0070 C   0  0  0  0  0  0  0  0  0  0  0  0
   57.4470   23.5460   44.2380 C   0  0  0  0  0  0  0  0  0  0  0  0
   56.1430   23.0790   44.1050 C   0  0  0  0  0  0  0  0  0  0  0  0
   55.9070   21.9420   43.3430 O   0  0  0  0  0  0  0  0  0  0  0  0
   57.0050   21.1120   42.9640 C   0  0  0  0  0  0  0  0  0  0  0  0
   55.0780   23.7140   44.7100 C   0  0  0  0  0  0  0  0  0  0  0  0
   53.8080   23.1810   44.5260 O   0  0  0  0  0  0  0  0  0  0  0  0
   52.8510   23.3880   45.5540 C   0  0  0  0  0  0  0  0  0  0  0  0
   55.3040   24.8460   45.4680 C   0  0  0  0  0  0  0  0  0  0  0  0
   56.9920   28.6230   45.6420 N   0  0  0  0  0  0  0  0  0  0  0  0
   57.9450   32.2010   46.5910 C   0  0  0  0  0  0  0  0  0  0  0  0
   60.2096   34.2495   49.7610 H   0  0  0  0  0  0  0  0  0  0  0  0
   60.9447   33.6185   48.2484 H   0  0  0  0  0  0  0  0  0  0  0  0
   60.1197   35.2142   48.2484 H   0  0  0  0  0  0  0  0  0  0  0  0
   59.0719   35.3918   46.4537 H   0  0  0  0  0  0  0  0  0  0  0  0
   58.3864   35.1476   44.0699 H   0  0  0  0  0  0  0  0  0  0  0  0
   57.4007   32.9670   43.3087 H   0  0  0  0  0  0  0  0  0  0  0  0
   59.5709   30.4137   44.5018 H   0  0  0  0  0  0  0  0  0  0  0  0
   60.6721   28.2507   45.0216 H   0  0  0  0  0  0  0  0  0  0  0  0
   59.3570   26.4190   45.9210 H   0  0  0  0  0  0  0  0  0  0  0  0
   58.6599   25.0816   45.1309 H   0  0  0  0  0  0  0  0  0  0  0  0
   58.2906   23.0327   43.7533 H   0  0  0  0  0  0  0  0  0  0  0  0
   57.5066   20.7328   43.8665 H   0  0  0  0  0  0  0  0  0  0  0  0
   56.6356   20.2654   42.3667 H   0  0  0  0  0  0  0  0  0  0  0  0
   57.7188   21.6983   42.3667 H   0  0  0  0  0  0  0  0  0  0  0  0
   53.3378   23.2827   46.5348 H   0  0  0  0  0  0  0  0  0  0  0  0
   52.4267   24.3987   45.4619 H   0  0  0  0  0  0  0  0  0  0  0  0
   52.0470   22.6430   45.4619 H   0  0  0  0  0  0  0  0  0  0  0  0
   54.4578   25.3569   45.9506 H   0  0  0  0  0  0  0  0  0  0  0  0
   55.9640   28.7290   45.8140 H   0  0  0  0  0  0  0  0  0  0  0  0
   57.8186   31.3686   47.2989 H   0  0  0  0  0  0  0  0  0  0  0  0
  1  2  1  0
  2  3  1  0
  3  4  2  0
  4  5  1  0
  5  6  2  0
  6  7  1  0
  7  8  1  0
  8  9  2  0
  9 10  1  0
 10 11  2  0
 11 12  1  0
 12 13  1  0
 13 14  2  0
 14 15  1  0
 15 16  2  0
 16 17  1  0
 17 18  2  0
 18 19  1  0
 19 20  1  0
 18 21  1  0
 21 22  1  0
 22 23  1  0
 21 24  2  0
 13 25  1  0
  7 26  2  0
 26  3  1  0
 25  9  1  0
 24 15  1  0
  1 27  1  0
  1 28  1  0
  1 29  1  0
  4 30  1  0
  5 31  1  0
  6 32  1  0
 10 33  1  0
 11 34  1  0
 12 35  1  0
 16 36  1  0
 17 37  1  0
 20 38  1  0
 20 39  1  0
 20 40  1  0
 23 41  1  0
 23 42  1  0
 23 43  1  0
 24 44  1  0
 25 45  1  0
 26 46  1  0
M  END
>  <smiles>  (90) 
COc1cccc(N=c2cc[nH]c(=Nc3ccc(OC)c(OC)c3)[nH]2)c1

>  <score_type>  (90) 
oracle

>  <origin>  (90) 
adg

>  <m_score__min__energy>  (90) 
-7.75

>  <m_primary>  (90) 
energy

$$$$
