0:0
     RDKit          3D

 46 48  0  0  0  0  0  0  0  0999 V2000
   54.7304   28.1719   54.8348 H   0  0  0  0  0  0  0  0  0  0  0  0
   54.0470   28.7300   54.1780 C   0  0  0  0  0  0  0  0  0  0  0  0
   52.9589   28.6140   54.2904 H   0  0  0  0  0  0  0  0  0  0  0  0
   54.5410   29.5530   53.2390 C   0  0  0  0  0  0  0  0  0  0  0  0
   53.7940   30.3210   52.3390 C   0  0  0  0  0  0  0  0  0  0  0  0
   52.4510   30.3970   52.2450 C   0  0  0  0  0  0  0  0  0  0  0  0
   51.8547   30.1338   53.1311 H   0  0  0  0  0  0  0  0  0  0  0  0
   51.7340   30.8120   51.0250 C   0  0  0  0  0  0  0  0  0  0  0  0
   51.6930   30.0680   49.9050 N   0  0  0  0  0  0  0  0  0  0  0  0
   51.0140   30.8480   49.0370 C   0  0  0  0  0  0  0  0  0  0  0  0
   50.7520   30.4830   47.8610 O   0  0  0  0  0  0  0  0  0  0  0  0
   50.6440   32.0500   49.5240 N   0  0  0  0  0  0  0  0  0  0  0  0
   51.1180   32.0190   50.7800 C   0  0  0  0  0  0  0  0  0  0  0  0
   51.0320   33.0910   51.6580 O   0  0  0  0  0  0  0  0  0  0  0  0
   54.7100   31.0450   51.5910 C   0  0  0  0  0  0  0  0  0  0  0  0
   54.4811   31.7703   50.7963 H   0  0  0  0  0  0  0  0  0  0  0  0
   55.9640   30.6800   52.0360 C   0  0  0  0  0  0  0  0  0  0  0  0
   57.2380   31.3010   51.5540 C   0  0  0  0  0  0  0  0  0  0  0  0
   57.8502   31.5994   52.4178 H   0  0  0  0  0  0  0  0  0  0  0  0
   57.7935   30.5726   50.9450 H   0  0  0  0  0  0  0  0  0  0  0  0
   57.0064   32.1873   50.9450 H   0  0  0  0  0  0  0  0  0  0  0  0
   55.8690   29.7690   53.0350 N   0  0  0  0  0  0  0  0  0  0  0  0
   56.9970   29.0920   53.6960 C   0  0  0  0  0  0  0  0  0  0  0  0
   56.6223   28.5533   54.5788 H   0  0  0  0  0  0  0  0  0  0  0  0
   57.4512   28.3964   52.9750 H   0  0  0  0  0  0  0  0  0  0  0  0
   58.0730   30.0920   54.1420 C   0  0  0  0  0  0  0  0  0  0  0  0
   57.6794   31.1122   54.0226 H   0  0  0  0  0  0  0  0  0  0  0  0
   58.3182   29.8772   55.1926 H   0  0  0  0  0  0  0  0  0  0  0  0
   59.3360   29.9640   53.3390 C   0  0  0  0  0  0  0  0  0  0  0  0
   60.1690   30.9090   53.3470 O   0  0  0  0  0  0  0  0  0  0  0  0
   59.6010   28.7720   52.5860 N   0  0  0  0  0  0  0  0  0  0  0  0
   58.8990   27.9960   52.5980 H   0  0  0  0  0  0  0  0  0  0  0  0
   60.7950   28.6200   51.7570 C   0  0  0  0  0  0  0  0  0  0  0  0
   61.6901   28.7182   52.3888 H   0  0  0  0  0  0  0  0  0  0  0  0
   60.7758   27.6284   51.2813 H   0  0  0  0  0  0  0  0  0  0  0  0
   60.8260   29.6770   50.6840 C   0  0  0  0  0  0  0  0  0  0  0  0
   61.9540   30.5030   50.5380 C   0  0  0  0  0  0  0  0  0  0  0  0
   62.8046   30.3955   51.2271 H   0  0  0  0  0  0  0  0  0  0  0  0
   61.9990   31.4600   49.5210 C   0  0  0  0  0  0  0  0  0  0  0  0
   62.8846   32.1034   49.4120 H   0  0  0  0  0  0  0  0  0  0  0  0
   60.9220   31.6020   48.6420 C   0  0  0  0  0  0  0  0  0  0  0  0
   60.9578   32.3596   47.8453 H   0  0  0  0  0  0  0  0  0  0  0  0
   59.8000   30.7810   48.7760 C   0  0  0  0  0  0  0  0  0  0  0  0
   58.9537   30.8918   48.0821 H   0  0  0  0  0  0  0  0  0  0  0  0
   59.7490   29.8190   49.7890 C   0  0  0  0  0  0  0  0  0  0  0  0
   58.6570   29.0190   49.8890 F   0  0  0  0  0  0  0  0  0  0  0  0
  1  2  1  0
  2  3  1  0
  2  4  2  0
  4  5  1  0
  5  6  2  0
  6  7  1  0
  6  8  1  0
  8  9  1  0
  9 10  1  0
 10 11  2  0
 10 12  1  0
 12 13  1  0
 13 14  1  0
  5 15  1  0
 15 16  1  0
 15 17  2  0
 17 18  1  0
 18 19  1  0
 18 20  1  0
 18 21  1  0
 17 22  1  0
 22 23  1  0
 23 24  1  0
 23 25  1  0
 23 26  1  0
 26 27  1  0
 26 28  1  0
 26 29  1  0
 29 30  2  0
 29 31  1  0
 31 32  1  0
 31 33  1  0
 33 34  1  0
 33 35  1  0
 33 36  1  0
 36 37  2  0
 37 38  1  0
 37 39  1  0
 39 40  1  0
 39 41  2  0
 41 42  1  0
 41 43  1  0
 43 44  1  0
 43 45  2  0
 45 46  1  0
 22  4  1  0
 45 36  1  0
 13  8  2  0
M  CHG  3   9  -1  12  -1  14  -1
M  END
>  <UniqueID>  (1) 
1

>  <SMILES>  (1) 
C=c1/c(=C/c2[n-]c(=O)[n-]c2[O-])cc(C)n1CCC(=O)NCc1ccccc1F

>  <Energy>  (1) 
103.74664887307972

>  <Genealogy>  (1) 
C=c1c(=Cc2[n-]c(=O)[n-]c2[O-])cc(C)n1CCC(=O)NCc1ccccc1F (protonated)
C=c1/c(=C/c2[n-]c(=O)[n-]c2[O-])cc(C)n1CCC(=O)NCc1ccccc1F (cis-trans isomerization)
C=c1/c(=C/c2[n-]c(=O)[n-]c2[O-])cc(C)n1CCC(=O)NCc1ccccc1F (3D coordinates assigned)
C=c1/c(=C/c2[n-]c(=O)[n-]c2[O-])cc(C)n1CCC(=O)NCc1ccccc1F (optimized conformer: 103.74664887307972 kcal/mol)

>  <smiles>  (1) 
C=c1c(=Cc2[nH]c(=O)[nH]c2O)cc(C)n1CCC(=O)NCc1ccccc1F

>  <score_type>  (1) 
oracle

>  <origin>  (1) 
adg

>  <m_score__min__energy>  (1) 
-15.970000000000001

>  <m_primary>  (1) 
energy

$$$$
1:0
     RDKit          3D

 59 62  0  0  1  0  0  0  0  0999 V2000
   56.5180   23.7680   47.1830 C   0  0  0  0  0  0  0  0  0  0  0  0
   56.2650   25.1580   47.1980 O   0  0  0  0  0  0  0  0  0  0  0  0
   56.1530   25.9430   46.0580 C   0  0  0  0  0  0  0  0  0  0  0  0
   55.1710   26.7060   45.9840 O   0  0  0  0  0  0  0  0  0  0  0  0
   57.2140   25.7970   45.0360 C   0  0  0  0  0  0  0  0  0  0  0  0
   58.1210   26.8960   44.8180 C   0  0  0  0  0  0  0  0  0  0  0  0
   58.3840   27.9580   45.7600 C   0  0  0  0  0  0  0  0  0  0  0  0
   59.0370   27.5840   46.9560 C   0  0  0  0  0  0  0  0  0  0  0  0
   59.4410   26.2020   47.2250 C   0  0  0  0  0  0  0  0  0  0  0  0
   59.3110   28.5170   47.8880 N   0  0  0  0  0  0  0  0  0  0  0  0
   58.9900   29.8060   47.7370 C   0  0  0  0  0  0  0  0  0  0  0  0
   59.3140   30.6500   48.7290 N   0  0  0  0  0  0  0  0  0  0  0  0
   59.0190   31.9420   48.6290 C   0  0  0  0  0  0  0  0  0  0  0  0
   59.3370   32.7480   49.5860 N   0  0  0  0  0  0  0  0  0  0  0  0
   60.6390   33.2730   49.7360 C   0  0  0  0  0  0  0  0  0  0  0  0
   60.9260   33.8650   50.8310 O   0  0  0  0  0  0  0  0  0  0  0  0
   61.6770   33.1890   48.7340 C   0  0  0  0  0  0  0  0  0  0  0  0
   62.7280   32.3210   48.9760 C   0  0  0  0  0  0  0  0  0  0  0  0
   63.7500   32.1960   48.0550 C   0  0  0  0  0  0  0  0  0  0  0  0
   63.6630   32.9660   46.9130 C   0  0  0  0  0  0  0  0  0  0  0  0
   62.6240   33.8280   46.6670 C   0  0  0  0  0  0  0  0  0  0  0  0
   61.6010   33.9530   47.5890 C   0  0  0  0  0  0  0  0  0  0  0  0
   58.3900   32.3790   47.5100 N   0  0  0  0  0  0  0  0  0  0  0  0
   58.0530   31.5600   46.4980 C   0  0  0  0  0  0  0  0  0  0  0  0
   57.4590   32.0390   45.4720 N   0  0  0  0  0  0  0  0  0  0  0  0
   56.9720   33.3990   45.4980 C   0  0  0  0  0  0  0  0  0  0  0  0
   57.8990   34.3960   44.8700 C   0  0  0  0  0  0  0  0  0  0  0  0
   59.2920   33.8860   44.6100 C   0  0  0  0  0  0  0  0  0  0  0  0
   59.0550   34.8890   45.6770 C   0  0  0  0  0  0  0  0  0  0  0  0
   58.3510   30.1950   46.5770 C   0  0  0  0  0  0  0  0  0  0  0  0
   58.0350   29.3040   45.5750 C   0  0  0  0  0  0  0  0  0  0  0  0
   57.3530   29.8000   44.3750 C   0  0  0  0  0  0  0  0  0  0  0  0
   56.5856   23.3964   48.2161 H   0  0  0  0  0  0  0  0  0  0  0  0
   55.6990   23.2519   46.6606 H   0  0  0  0  0  0  0  0  0  0  0  0
   57.4663   23.5735   46.6606 H   0  0  0  0  0  0  0  0  0  0  0  0
   57.8227   24.9269   45.3232 H   0  0  0  0  0  0  0  0  0  0  0  0
   56.6622   25.7140   44.0881 H   0  0  0  0  0  0  0  0  0  0  0  0
   59.0988   26.4329   44.6194 H   0  0  0  0  0  0  0  0  0  0  0  0
   57.5721   27.4523   44.0439 H   0  0  0  0  0  0  0  0  0  0  0  0
   59.4887   26.0389   48.3118 H   0  0  0  0  0  0  0  0  0  0  0  0
   58.7068   25.5126   46.7826 H   0  0  0  0  0  0  0  0  0  0  0  0
   60.4309   26.0167   46.7826 H   0  0  0  0  0  0  0  0  0  0  0  0
   59.7950   30.2820   49.5760 H   0  0  0  0  0  0  0  0  0  0  0  0
   62.7493   31.7298   49.9034 H   0  0  0  0  0  0  0  0  0  0  0  0
   64.5956   31.5131   48.2243 H   0  0  0  0  0  0  0  0  0  0  0  0
   64.4647   32.8849   46.1643 H   0  0  0  0  0  0  0  0  0  0  0  0
   62.6049   34.4180   45.7388 H   0  0  0  0  0  0  0  0  0  0  0  0
   60.7573   34.6371   47.4151 H   0  0  0  0  0  0  0  0  0  0  0  0
   58.1870   33.4100   47.4950 H   0  0  0  0  0  0  0  0  0  0  0  0
   56.0134   33.4325   44.9596 H   0  0  0  0  0  0  0  0  0  0  0  0
   56.8761   33.6801   46.5571 H   0  0  0  0  0  0  0  0  0  0  0  0
   57.1048   34.8910   44.2919 H   0  0  0  0  0  0  0  0  0  0  0  0
   59.5580   32.8523   44.8759 H   0  0  0  0  0  0  0  0  0  0  0  0
   59.9474   33.8277   43.7285 H   0  0  0  0  0  0  0  0  0  0  0  0
   59.1495   34.5977   46.7335 H   0  0  0  0  0  0  0  0  0  0  0  0
   59.4676   35.8816   45.9106 H   0  0  0  0  0  0  0  0  0  0  0  0
   56.4963   30.4231   44.6713 H   0  0  0  0  0  0  0  0  0  0  0  0
   58.0539   30.4008   43.7769 H   0  0  0  0  0  0  0  0  0  0  0  0
   56.9974   28.9481   43.7769 H   0  0  0  0  0  0  0  0  0  0  0  0
  1  2  1  0
  2  3  1  0
  3  4  2  0
  3  5  1  0
  5  6  1  0
  6  7  1  0
  7  8  2  0
  8  9  1  0
  8 10  1  0
 10 11  2  0
 11 12  1  0
 12 13  1  0
 13 14  2  0
 14 15  1  0
 15 16  2  0
 15 17  1  0
 17 18  2  0
 18 19  1  0
 19 20  2  0
 20 21  1  0
 21 22  2  0
 13 23  1  0
 23 24  1  0
 24 25  2  0
 25 26  1  0
 26 27  1  0
 27 28  1  0
 28 29  1  0
 24 30  1  0
 30 31  2  0
 31 32  1  0
 31  7  1  0
 30 11  1  0
 22 17  1  0
 29 27  1  0
  1 33  1  0
  1 34  1  0
  1 35  1  0
  5 36  1  0
  5 37  1  0
  6 38  1  0
  6 39  1  0
  9 40  1  0
  9 41  1  0
  9 42  1  0
 12 43  1  0
 18 44  1  0
 19 45  1  0
 20 46  1  0
 21 47  1  0
 22 48  1  0
 23 49  1  0
 26 50  1  0
 26 51  1  0
 27 52  1  0
 28 53  1  0
 28 54  1  0
 29 55  1  0
 29 56  1  0
 32 57  1  0
 32 58  1  0
 32 59  1  0
M  END
>  <smiles>  (2) 
COC(=O)CCc1c(C)nc2[nH]c(=NC(=O)c3ccccc3)[nH]c(=NCC3CC3)c2c1C

>  <score_type>  (2) 
oracle

>  <origin>  (2) 
adg

>  <m_score__min__energy>  (2) 
-9.3300000000000001

>  <m_primary>  (2) 
energy

$$$$
2:0
     RDKit          3D

 65 68  0  0  0  0  0  0  0  0999 V2000
   57.0790   21.0740   42.8650 C   0  0  0  0  0  0  0  0  0  0  0  0
   55.9850   21.9180   43.2080 O   0  0  0  0  0  0  0  0  0  0  0  0
   55.9730   22.8020   44.2960 C   0  0  0  0  0  0  0  0  0  0  0  0
   55.4870   22.3380   45.5240 C   0  0  0  0  0  0  0  0  0  0  0  0
   55.4560   23.1780   46.6370 C   0  0  0  0  0  0  0  0  0  0  0  0
   55.9150   24.4920   46.5340 C   0  0  0  0  0  0  0  0  0  0  0  0
   56.3950   24.9830   45.3130 C   0  0  0  0  0  0  0  0  0  0  0  0
   56.8890   26.3300   45.2490 N   0  0  0  0  0  0  0  0  0  0  0  0
   58.1890   26.7330   45.7150 C   0  0  0  0  0  0  0  0  0  0  0  0
   58.9640   25.9070   46.2660 O   0  0  0  0  0  0  0  0  0  0  0  0
   58.6640   28.1360   45.4700 C   0  0  0  0  0  0  0  0  0  0  0  0
   57.5930   29.1710   45.8330 C   0  0  0  0  0  0  0  0  0  0  0  0
   57.8110   30.4910   45.1420 C   0  0  0  0  0  0  0  0  0  0  0  0
   57.8210   30.6750   43.4660 S   0  0  0  0  0  0  0  0  0  0  0  0
   58.1370   32.3160   43.5520 C   0  0  0  0  0  0  0  0  0  0  0  0
   58.2750   33.0560   42.5410 O   0  0  0  0  0  0  0  0  0  0  0  0
   58.2360   32.7580   44.8320 N   0  0  0  0  0  0  0  0  0  0  0  0
   58.5770   34.1450   45.1840 C   0  0  0  0  0  0  0  0  0  0  0  0
   59.6460   34.2110   46.2500 C   0  0  0  0  0  0  0  0  0  0  0  0
   59.3080   34.6300   47.5480 C   0  0  0  0  0  0  0  0  0  0  0  0
   60.2480   34.5690   48.5790 C   0  0  0  0  0  0  0  0  0  0  0  0
   61.5480   34.1030   48.3310 C   0  0  0  0  0  0  0  0  0  0  0  0
   62.5260   33.9650   49.4310 C   0  0  0  0  0  0  0  0  0  0  0  0
   63.0160   35.0040   49.9460 O   0  0  0  0  0  0  0  0  0  0  0  0
   62.9420   32.6860   49.9340 N   0  0  0  0  0  0  0  0  0  0  0  0
   62.8700   31.4200   49.2090 C   0  0  0  0  0  0  0  0  0  0  0  0
   61.4820   30.8440   49.2890 C   0  0  0  0  0  0  0  0  0  0  0  0
   61.1440   29.7180   48.5210 C   0  0  0  0  0  0  0  0  0  0  0  0
   59.8590   29.1700   48.5990 C   0  0  0  0  0  0  0  0  0  0  0  0
   58.9040   29.7430   49.4420 C   0  0  0  0  0  0  0  0  0  0  0  0
   59.2330   30.8640   50.2120 C   0  0  0  0  0  0  0  0  0  0  0  0
   58.0360   31.5880   51.2650 Cl  0  0  0  0  0  0  0  0  0  0  0  0
   60.5190   31.4120   50.1390 C   0  0  0  0  0  0  0  0  0  0  0  0
   61.8830   33.6720   47.0380 C   0  0  0  0  0  0  0  0  0  0  0  0
   60.9400   33.7180   46.0080 C   0  0  0  0  0  0  0  0  0  0  0  0
   58.0260   31.7450   45.7350 C   0  0  0  0  0  0  0  0  0  0  0  0
   58.1400   31.9380   47.2240 C   0  0  0  0  0  0  0  0  0  0  0  0
   56.4350   24.1300   44.1960 C   0  0  0  0  0  0  0  0  0  0  0  0
   57.5586   20.7040   43.7832 H   0  0  0  0  0  0  0  0  0  0  0  0
   56.7132   20.2218   42.2734 H   0  0  0  0  0  0  0  0  0  0  0  0
   57.8105   21.6441   42.2734 H   0  0  0  0  0  0  0  0  0  0  0  0
   55.1266   21.3024   45.6119 H   0  0  0  0  0  0  0  0  0  0  0  0
   55.0695   22.8045   47.5968 H   0  0  0  0  0  0  0  0  0  0  0  0
   55.8997   25.1467   47.4178 H   0  0  0  0  0  0  0  0  0  0  0  0
   56.3540   27.0110   44.6610 H   0  0  0  0  0  0  0  0  0  0  0  0
   59.5595   28.3207   46.0816 H   0  0  0  0  0  0  0  0  0  0  0  0
   58.8893   28.2385   44.3982 H   0  0  0  0  0  0  0  0  0  0  0  0
   56.6083   28.7776   45.5402 H   0  0  0  0  0  0  0  0  0  0  0  0
   57.6513   29.3470   46.9173 H   0  0  0  0  0  0  0  0  0  0  0  0
   58.9411   34.6609   44.2833 H   0  0  0  0  0  0  0  0  0  0  0  0
   57.6715   34.6279   45.5799 H   0  0  0  0  0  0  0  0  0  0  0  0
   58.2959   35.0087   47.7534 H   0  0  0  0  0  0  0  0  0  0  0  0
   59.9671   34.8887   49.5933 H   0  0  0  0  0  0  0  0  0  0  0  0
   63.1302   31.5918   48.1541 H   0  0  0  0  0  0  0  0  0  0  0  0
   63.5763   30.7096   49.6634 H   0  0  0  0  0  0  0  0  0  0  0  0
   61.8930   29.2647   47.8550 H   0  0  0  0  0  0  0  0  0  0  0  0
   59.6006   28.2871   47.9959 H   0  0  0  0  0  0  0  0  0  0  0  0
   57.8932   29.3130   49.5005 H   0  0  0  0  0  0  0  0  0  0  0  0
   60.7762   32.2903   50.7493 H   0  0  0  0  0  0  0  0  0  0  0  0
   62.8960   33.2950   46.8339 H   0  0  0  0  0  0  0  0  0  0  0  0
   61.2118   33.3663   45.0018 H   0  0  0  0  0  0  0  0  0  0  0  0
   57.6462   31.1020   47.7410 H   0  0  0  0  0  0  0  0  0  0  0  0
   59.2019   31.9697   47.5094 H   0  0  0  0  0  0  0  0  0  0  0  0
   57.6552   32.8833   47.5094 H   0  0  0  0  0  0  0  0  0  0  0  0
   56.8291   24.5011   43.2384 H   0  0  0  0  0  0  0  0  0  0  0  0
  1  2  1  0
  2  3  1  0
  3  4  2  0
  4  5  1  0
  5  6  2  0
  6  7  1  0
  7  8  1  0
  8  9  1  0
  9 10  2  0
  9 11  1  0
 11 12  1  0
 12 13  1  0
 13 14  1  0
 14 15  1  0
 15 16  2  0
 15 17  1  0
 17 18  1  0
 18 19  1  0
 19 20  2  0
 20 21  1  0
 21 22  2  0
 22 23  1  0
 23 24  2  0
 23 25  1  0
 25 26  1  0
 26 27  1  0
 27 28  2  0
 28 29  1  0
 29 30  2  0
 30 31  1  0
 31 32  1  0
 31 33  2  0
 22 34  1  0
 34 35  2  0
 17 36  1  0
 36 37  1  0
  7 38  2  0
 38  3  1  0
 36 13  2  0
 35 19  1  0
 33 27  1  0
  1 39  1  0
  1 40  1  0
  1 41  1  0
  4 42  1  0
  5 43  1  0
  6 44  1  0
  8 45  1  0
 11 46  1  0
 11 47  1  0
 12 48  1  0
 12 49  1  0
 18 50  1  0
 18 51  1  0
 20 52  1  0
 21 53  1  0
 26 54  1  0
 26 55  1  0
 28 56  1  0
 29 57  1  0
 30 58  1  0
 33 59  1  0
 34 60  1  0
 35 61  1  0
 37 62  1  0
 37 63  1  0
 37 64  1  0
 38 65  1  0
M  CHG  1  25  -1
M  END
>  <UniqueID>  (3) 
2

>  <SMILES>  (3) 
COc1cccc(NC(=O)CCc2sc(=O)n(Cc3ccc(C(=O)[N-]Cc4cccc(Cl)c4)cc3)c2C)c1

>  <Energy>  (3) 
96.86914854070662

>  <Genealogy>  (3) 
COc1cccc(NC(=O)CCc2sc(=O)n(Cc3ccc(C(=O)[N-]Cc4cccc(Cl)c4)cc3)c2C)c1 (protonated)
COc1cccc(NC(=O)CCc2sc(=O)n(Cc3ccc(C(=O)[N-]Cc4cccc(Cl)c4)cc3)c2C)c1 (3D coordinates assigned)
COc1cccc(NC(=O)CCc2sc(=O)n(Cc3ccc(C(=O)[N-]Cc4cccc(Cl)c4)cc3)c2C)c1 (optimized conformer: 96.86914854070662 kcal/mol)

>  <smiles>  (3) 
COc1cccc(NC(=O)CCc2sc(=O)n(Cc3ccc(C(=O)NCc4cccc(Cl)c4)cc3)c2C)c1

>  <score_type>  (3) 
oracle

>  <origin>  (3) 
adg

>  <m_score__min__energy>  (3) 
-11.59

>  <m_primary>  (3) 
energy

$$$$
3:0
     RDKit          3D

 49 52  0  0  0  0  0  0  0  0999 V2000
   60.7550   27.1090   48.5250 C   0  0  0  0  0  0  0  0  0  0  0  0
   59.6430   26.9880   47.5390 C   0  0  0  0  0  0  0  0  0  0  0  0
   59.6620   26.2090   46.3900 C   0  0  0  0  0  0  0  0  0  0  0  0
   58.5170   26.3620   45.6030 C   0  0  0  0  0  0  0  0  0  0  0  0
   57.6110   27.2800   46.1250 C   0  0  0  0  0  0  0  0  0  0  0  0
   56.2740   27.6200   45.5520 C   0  0  0  0  0  0  0  0  0  0  0  0
   56.2820   28.9870   45.0460 N   0  0  0  0  0  0  0  0  0  0  0  0
   57.0080   29.3930   43.8800 C   0  0  0  0  0  0  0  0  0  0  0  0
   56.7280   28.8890   42.7560 O   0  0  0  0  0  0  0  0  0  0  0  0
   58.0550   30.3780   44.0000 N   0  0  1  0  0  0  0  0  0  0  0  0
   57.5110   31.7310   44.2210 C   0  0  0  0  0  0  0  0  0  0  0  0
   57.6260   32.0500   45.7320 C   0  0  2  0  0  0  0  0  0  0  0  0
   58.1710   33.4500   46.0520 C   0  0  0  0  0  0  0  0  0  0  0  0
   59.3810   33.2730   46.8680 N   0  0  0  0  0  0  0  0  0  0  0  0
   60.3830   34.3210   46.6010 C   0  0  0  0  0  0  0  0  0  0  0  0
   61.6540   34.0400   47.3610 C   0  0  0  0  0  0  0  0  0  0  0  0
   62.7970   33.5880   46.6830 C   0  0  0  0  0  0  0  0  0  0  0  0
   63.9690   33.3020   47.3890 C   0  0  0  0  0  0  0  0  0  0  0  0
   64.0060   33.4570   48.7780 C   0  0  0  0  0  0  0  0  0  0  0  0
   62.8690   33.8930   49.4610 C   0  0  0  0  0  0  0  0  0  0  0  0
   61.6940   34.1810   48.7590 C   0  0  0  0  0  0  0  0  0  0  0  0
   60.5970   34.5940   49.4420 F   0  0  0  0  0  0  0  0  0  0  0  0
   59.8800   31.9270   46.5630 C   0  0  0  0  0  0  0  0  0  0  0  0
   58.6490   31.0810   46.2800 C   0  0  2  0  0  0  0  0  0  0  0  0
   58.8330   30.1150   45.1710 C   0  0  0  0  0  0  0  0  0  0  0  0
   59.5930   29.1600   45.2470 O   0  0  0  0  0  0  0  0  0  0  0  0
   58.2230   27.8890   47.5660 S   0  0  0  0  0  0  0  0  0  0  0  0
   60.3467   27.0646   49.5454 H   0  0  0  0  0  0  0  0  0  0  0  0
   61.4665   26.2830   48.3785 H   0  0  0  0  0  0  0  0  0  0  0  0
   61.2722   28.0687   48.3785 H   0  0  0  0  0  0  0  0  0  0  0  0
   60.4937   25.5393   46.1258 H   0  0  0  0  0  0  0  0  0  0  0  0
   58.3491   25.8120   44.6653 H   0  0  0  0  0  0  0  0  0  0  0  0
   56.0439   26.9280   44.7285 H   0  0  0  0  0  0  0  0  0  0  0  0
   55.5104   27.5304   46.3387 H   0  0  0  0  0  0  0  0  0  0  0  0
   58.6740   30.3650   43.1550 H   0  0  0  0  0  0  0  0  0  0  0  0
   58.0876   32.4652   43.6392 H   0  0  0  0  0  0  0  0  0  0  0  0
   56.4604   31.7787   43.8985 H   0  0  0  0  0  0  0  0  0  0  0  0
   56.6149   31.9818   46.1598 H   0  0  0  0  0  0  0  0  0  0  0  0
   58.4196   33.9790   45.1202 H   0  0  0  0  0  0  0  0  0  0  0  0
   57.4206   34.0454   46.5928 H   0  0  0  0  0  0  0  0  0  0  0  0
   60.6031   34.3457   45.5235 H   0  0  0  0  0  0  0  0  0  0  0  0
   59.9797   35.2910   46.9272 H   0  0  0  0  0  0  0  0  0  0  0  0
   62.7703   33.4583   45.5910 H   0  0  0  0  0  0  0  0  0  0  0  0
   64.8634   32.9545   46.8511 H   0  0  0  0  0  0  0  0  0  0  0  0
   64.9300   33.2357   49.3322 H   0  0  0  0  0  0  0  0  0  0  0  0
   62.8974   34.0104   50.5544 H   0  0  0  0  0  0  0  0  0  0  0  0
   60.5373   31.9532   45.6814 H   0  0  0  0  0  0  0  0  0  0  0  0
   60.4697   31.5164   47.3958 H   0  0  0  0  0  0  0  0  0  0  0  0
   58.3927   30.5373   47.2012 H   0  0  0  0  0  0  0  0  0  0  0  0
  1  2  1  0
  2  3  2  0
  3  4  1  0
  4  5  2  0
  5  6  1  0
  6  7  1  0
  7  8  1  0
  8  9  2  0
  8 10  1  0
 10 11  1  0
 11 12  1  0
 12 13  1  0
 13 14  1  0
 14 15  1  0
 15 16  1  0
 16 17  2  0
 17 18  1  0
 18 19  2  0
 19 20  1  0
 20 21  2  0
 21 22  1  0
 14 23  1  0
 23 24  1  0
 24 25  1  0
 25 26  2  0
  5 27  1  0
 27  2  1  0
 25 10  1  0
 24 12  1  0
 21 16  1  0
  1 28  1  0
  1 29  1  0
  1 30  1  0
  3 31  1  0
  4 32  1  0
  6 33  1  0
  6 34  1  0
 10 35  1  6
 11 36  1  0
 11 37  1  0
 12 38  1  1
 13 39  1  0
 13 40  1  0
 15 41  1  0
 15 42  1  0
 17 43  1  0
 18 44  1  0
 19 45  1  0
 20 46  1  0
 23 47  1  0
 23 48  1  0
 24 49  1  1
M  CHG  2   7  -1  10   1
M  END
>  <UniqueID>  (4) 
3

>  <SMILES>  (4) 
Cc1ccc(C[N-]C(=O)[N@H+]2C[C@@H]3CN(Cc4ccccc4F)CC3C2=O)s1

>  <Energy>  (4) 
82.91175448333351

>  <Genealogy>  (4) 
Cc1ccc(C[N-]C(=O)[NH+]2CC3CN(Cc4ccccc4F)CC3C2=O)s1 (protonated)
Cc1ccc(C[N-]C(=O)[N@H+]2C[C@@H]3CN(Cc4ccccc4F)CC3C2=O)s1 (chirality)
Cc1ccc(C[N-]C(=O)[N@H+]2C[C@@H]3CN(Cc4ccccc4F)CC3C2=O)s1 (3D coordinates assigned)
Cc1ccc(C[N-]C(=O)[N@H+]2C[C@@H]3CN(Cc4ccccc4F)CC3C2=O)s1 (nonaromatic ring conformer: 82.91175448333351 kcal/mol)

>  <smiles>  (4) 
Cc1ccc(CNC(=O)N2CC3CN(Cc4ccccc4F)CC3C2=O)s1

>  <score_type>  (4) 
oracle

>  <origin>  (4) 
adg

>  <m_score__min__energy>  (4) 
-8.5399999999999991

>  <m_primary>  (4) 
energy

$$$$
4:0
     RDKit          3D

 39 41  0  0  0  0  0  0  0  0999 V2000
   54.7022   24.6693   46.4679 H   0  0  0  0  0  0  0  0  0  0  0  0
   55.5950   25.2360   46.1650 C   0  0  0  0  0  0  0  0  0  0  0  0
   55.5170   26.5810   45.9870 N   0  0  0  0  0  0  0  0  0  0  0  0
   56.5920   27.3290   45.6140 C   0  0  0  0  0  0  0  0  0  0  0  0
   56.4300   28.6140   45.4620 N   0  0  0  0  0  0  0  0  0  0  0  0
   57.3940   29.6740   45.7660 C   0  0  0  0  0  0  0  0  0  0  0  0
   58.3739   29.2198   45.9744 H   0  0  0  0  0  0  0  0  0  0  0  0
   57.0338   30.2338   46.6417 H   0  0  0  0  0  0  0  0  0  0  0  0
   57.5310   30.6340   44.6040 C   0  0  0  0  0  0  0  0  0  0  0  0
   56.9360   30.3230   43.3740 C   0  0  0  0  0  0  0  0  0  0  0  0
   56.3688   29.3872   43.2616 H   0  0  0  0  0  0  0  0  0  0  0  0
   57.0590   31.1920   42.2940 C   0  0  0  0  0  0  0  0  0  0  0  0
   56.5857   30.9513   41.3306 H   0  0  0  0  0  0  0  0  0  0  0  0
   57.7870   32.3690   42.4450 C   0  0  0  0  0  0  0  0  0  0  0  0
   57.8849   33.0638   41.5978 H   0  0  0  0  0  0  0  0  0  0  0  0
   58.3780   32.6650   43.6340 N   0  0  0  0  0  0  0  0  0  0  0  0
   58.9110   33.5590   43.6820 H   0  0  0  0  0  0  0  0  0  0  0  0
   58.2790   31.8290   44.7170 C   0  0  0  0  0  0  0  0  0  0  0  0
   58.8650   32.1080   45.8480 N   0  0  0  0  0  0  0  0  0  0  0  0
   59.1740   33.6890   46.4950 S   0  0  0  0  0  0  0  0  0  0  0  0
   58.1500   33.9930   47.5520 O   0  0  0  0  0  0  0  0  0  0  0  0
   59.0550   34.7050   45.3930 O   0  0  0  0  0  0  0  0  0  0  0  0
   60.7770   33.7460   47.2240 C   0  0  0  0  0  0  0  0  0  0  0  0
   60.9160   34.0460   48.5870 C   0  0  0  0  0  0  0  0  0  0  0  0
   60.0245   34.2501   49.1983 H   0  0  0  0  0  0  0  0  0  0  0  0
   62.1870   34.0860   49.1700 C   0  0  0  0  0  0  0  0  0  0  0  0
   62.2938   34.3190   50.2397 H   0  0  0  0  0  0  0  0  0  0  0  0
   63.3220   33.8300   48.3940 C   0  0  0  0  0  0  0  0  0  0  0  0
   64.3209   33.8600   48.8538 H   0  0  0  0  0  0  0  0  0  0  0  0
   63.1870   33.5360   47.0340 C   0  0  0  0  0  0  0  0  0  0  0  0
   64.0801   33.3359   46.4239 H   0  0  0  0  0  0  0  0  0  0  0  0
   61.9170   33.4960   46.4480 C   0  0  0  0  0  0  0  0  0  0  0  0
   61.8132   33.2680   45.3769 H   0  0  0  0  0  0  0  0  0  0  0  0
   57.8320   26.6890   45.4080 C   0  0  0  0  0  0  0  0  0  0  0  0
   58.7153   27.2736   45.1112 H   0  0  0  0  0  0  0  0  0  0  0  0
   57.9290   25.3070   45.5840 C   0  0  0  0  0  0  0  0  0  0  0  0
   58.8907   24.7978   45.4230 H   0  0  0  0  0  0  0  0  0  0  0  0
   56.8060   24.5730   45.9640 C   0  0  0  0  0  0  0  0  0  0  0  0
   56.8741   23.4840   46.1037 H   0  0  0  0  0  0  0  0  0  0  0  0
  1  2  1  0
  2  3  1  0
  3  4  1  0
  4  5  2  0
  5  6  1  0
  6  7  1  0
  6  8  1  0
  6  9  1  0
  9 10  2  0
 10 11  1  0
 10 12  1  0
 12 13  1  0
 12 14  2  0
 14 15  1  0
 14 16  1  0
 16 17  1  0
 16 18  1  0
 18 19  2  0
 19 20  1  0
 20 21  2  0
 20 22  2  0
 20 23  1  0
 23 24  2  0
 24 25  1  0
 24 26  1  0
 26 27  1  0
 26 28  2  0
 28 29  1  0
 28 30  1  0
 30 31  1  0
 30 32  2  0
 32 33  1  0
  4 34  1  0
 34 35  1  0
 34 36  2  0
 36 37  1  0
 36 38  1  0
 38 39  1  0
 38  2  2  0
 18  9  1  0
 32 23  1  0
M  CHG  1   3  -1
M  END
>  <UniqueID>  (5) 
4

>  <SMILES>  (5) 
O=S(=O)(/N=c1\[nH]cccc1C/N=c1\cccc[n-]1)c1ccccc1

>  <Energy>  (5) 
50.23427540494148

>  <Genealogy>  (5) 
O=S(=O)(N=c1[nH]cccc1CN=c1cccc[n-]1)c1ccccc1 (protonated)
O=S(=O)(/N=c1\[nH]cccc1C/N=c1\cccc[n-]1)c1ccccc1 (cis-trans isomerization)
O=S(=O)(/N=c1\[nH]cccc1C/N=c1\cccc[n-]1)c1ccccc1 (3D coordinates assigned)
O=S(=O)(/N=c1\[nH]cccc1C/N=c1\cccc[n-]1)c1ccccc1 (optimized conformer: 50.23427540494148 kcal/mol)

>  <smiles>  (5) 
O=S(=O)(N=c1[nH]cccc1CN=c1cccc[nH]1)c1ccccc1

>  <score_type>  (5) 
oracle

>  <origin>  (5) 
adg

>  <m_score__min__energy>  (5) 
-10.25

>  <m_primary>  (5) 
energy

$$$$
5:0
     RDKit          3D

 55 58  0  0  0  0  0  0  0  0999 V2000
   52.4560   23.7067   44.5907 H   0  0  0  0  0  0  0  0  0  0  0  0
   53.5050   24.0000   44.7440 C   0  0  0  0  0  0  0  0  0  0  0  0
   53.8700   24.9730   45.6250 N   0  0  0  0  0  0  0  0  0  0  0  0
   55.2110   25.1480   45.6350 C   0  0  0  0  0  0  0  0  0  0  0  0
   55.8320   26.0240   46.3660 N   0  0  0  0  0  0  0  0  0  0  0  0
   57.1820   26.4890   46.1830 C   0  0  0  0  0  0  0  0  0  0  0  0
   58.0020   26.4890   47.1400 O   0  0  0  0  0  0  0  0  0  0  0  0
   57.5920   27.0320   44.9220 N   0  0  0  0  0  0  0  0  0  0  0  0
   57.6020   28.4260   44.5840 C   0  0  0  0  0  0  0  0  0  0  0  0
   58.8290   29.0670   44.3820 C   0  0  0  0  0  0  0  0  0  0  0  0
   59.7647   28.4943   44.4619 H   0  0  0  0  0  0  0  0  0  0  0  0
   58.8730   30.4320   44.0790 C   0  0  0  0  0  0  0  0  0  0  0  0
   59.8436   30.9320   43.9451 H   0  0  0  0  0  0  0  0  0  0  0  0
   57.6840   31.1670   43.9450 C   0  0  0  0  0  0  0  0  0  0  0  0
   57.7260   32.6570   43.7330 C   0  0  0  0  0  0  0  0  0  0  0  0
   56.7321   33.0107   43.4216 H   0  0  0  0  0  0  0  0  0  0  0  0
   58.4626   32.8944   42.9513 H   0  0  0  0  0  0  0  0  0  0  0  0
   58.1210   33.3380   45.0160 C   0  0  0  0  0  0  0  0  0  0  0  0
   59.0770   34.3680   45.0040 C   0  0  0  0  0  0  0  0  0  0  0  0
   59.4637   34.7449   44.0457 H   0  0  0  0  0  0  0  0  0  0  0  0
   59.5390   34.9160   46.2050 C   0  0  0  0  0  0  0  0  0  0  0  0
   60.2893   35.7202   46.1849 H   0  0  0  0  0  0  0  0  0  0  0  0
   59.0540   34.4490   47.4330 C   0  0  0  0  0  0  0  0  0  0  0  0
   59.6370   34.9620   48.6410 N   0  0  0  0  0  0  0  0  0  0  0  0
   60.3760   34.2140   49.6180 C   0  0  0  0  0  0  0  0  0  0  0  0
   59.9810   34.1780   50.8160 O   0  0  0  0  0  0  0  0  0  0  0  0
   61.5910   33.5350   49.2430 N   0  0  0  0  0  0  0  0  0  0  0  0
   62.1910   32.5510   50.1550 C   0  0  0  0  0  0  0  0  0  0  0  0
   61.4000   31.8957   50.5486 H   0  0  0  0  0  0  0  0  0  0  0  0
   62.6877   33.0896   50.9755 H   0  0  0  0  0  0  0  0  0  0  0  0
   63.2390   31.6930   49.4250 C   0  0  0  0  0  0  0  0  0  0  0  0
   63.3949   30.7629   49.9913 H   0  0  0  0  0  0  0  0  0  0  0  0
   64.1701   32.2747   49.3567 H   0  0  0  0  0  0  0  0  0  0  0  0
   62.8080   31.3510   48.0510 N   0  0  0  0  0  0  0  0  0  0  0  0
   61.6510   30.4360   48.0490 C   0  0  0  0  0  0  0  0  0  0  0  0
   61.3623   30.2077   49.0856 H   0  0  0  0  0  0  0  0  0  0  0  0
   60.8068   30.9135   47.5300 H   0  0  0  0  0  0  0  0  0  0  0  0
   61.9211   29.5045   47.5300 H   0  0  0  0  0  0  0  0  0  0  0  0
   62.5710   32.5460   47.1960 C   0  0  0  0  0  0  0  0  0  0  0  0
   61.7090   32.3389   46.5448 H   0  0  0  0  0  0  0  0  0  0  0  0
   63.4990   32.7202   46.6317 H   0  0  0  0  0  0  0  0  0  0  0  0
   62.2820   33.8390   47.9840 C   0  0  0  0  0  0  0  0  0  0  0  0
   61.6480   34.4995   47.3743 H   0  0  0  0  0  0  0  0  0  0  0  0
   63.2369   34.3338   48.2148 H   0  0  0  0  0  0  0  0  0  0  0  0
   58.1030   33.4130   47.4450 C   0  0  0  0  0  0  0  0  0  0  0  0
   57.7251   33.0291   48.4041 H   0  0  0  0  0  0  0  0  0  0  0  0
   57.6350   32.8680   46.2460 C   0  0  0  0  0  0  0  0  0  0  0  0
   56.8818   32.0665   46.2665 H   0  0  0  0  0  0  0  0  0  0  0  0
   56.4500   30.5160   44.1100 C   0  0  0  0  0  0  0  0  0  0  0  0
   55.5128   31.0802   43.9942 H   0  0  0  0  0  0  0  0  0  0  0  0
   56.4090   29.1530   44.4210 C   0  0  0  0  0  0  0  0  0  0  0  0
   55.4393   28.6472   44.5387 H   0  0  0  0  0  0  0  0  0  0  0  0
   55.9920   24.1190   44.5620 S   0  0  0  0  0  0  0  0  0  0  0  0
   54.5550   23.4040   44.0520 C   0  0  0  0  0  0  0  0  0  0  0  0
   54.4625   22.6046   43.3020 H   0  0  0  0  0  0  0  0  0  0  0  0
  1  2  1  0
  2  3  1  0
  3  4  1  0
  4  5  2  0
  5  6  1  0
  6  7  2  0
  6  8  1  0
  8  9  1  0
  9 10  2  0
 10 11  1  0
 10 12  1  0
 12 13  1  0
 12 14  2  0
 14 15  1  0
 15 16  1  0
 15 17  1  0
 15 18  1  0
 18 19  2  0
 19 20  1  0
 19 21  1  0
 21 22  1  0
 21 23  2  0
 23 24  1  0
 24 25  1  0
 25 26  2  0
 25 27  1  0
 27 28  1  0
 28 29  1  0
 28 30  1  0
 28 31  1  0
 31 32  1  0
 31 33  1  0
 31 34  1  0
 34 35  1  0
 35 36  1  0
 35 37  1  0
 35 38  1  0
 34 39  1  0
 39 40  1  0
 39 41  1  0
 39 42  1  0
 42 43  1  0
 42 44  1  0
 23 45  1  0
 45 46  1  0
 45 47  2  0
 47 48  1  0
 14 49  1  0
 49 50  1  0
 49 51  2  0
 51 52  1  0
  4 53  1  0
 53 54  1  0
 54 55  1  0
 54  2  2  0
 51  9  1  0
 47 18  1  0
 42 27  1  0
M  CHG  3   3  -1   8  -1  24  -1
M  END
>  <UniqueID>  (6) 
5

>  <SMILES>  (6) 
CN1CCN(C(=O)[N-]c2ccc(Cc3ccc([N-]C(=O)/N=c4\[n-]ccs4)cc3)cc2)CC1

>  <Energy>  (6) 
104.0479892987964

>  <Genealogy>  (6) 
CN1CCN(C(=O)[N-]c2ccc(Cc3ccc([N-]C(=O)N=c4[n-]ccs4)cc3)cc2)CC1 (protonated)
CN1CCN(C(=O)[N-]c2ccc(Cc3ccc([N-]C(=O)/N=c4\[n-]ccs4)cc3)cc2)CC1 (cis-trans isomerization)
CN1CCN(C(=O)[N-]c2ccc(Cc3ccc([N-]C(=O)/N=c4\[n-]ccs4)cc3)cc2)CC1 (3D coordinates assigned)
CN1CCN(C(=O)[N-]c2ccc(Cc3ccc([N-]C(=O)/N=c4\[n-]ccs4)cc3)cc2)CC1 (nonaromatic ring conformer: 104.0479892987964 kcal/mol)

>  <smiles>  (6) 
CN1CCN(C(=O)Nc2ccc(Cc3ccc(NC(=O)N=c4[nH]ccs4)cc3)cc2)CC1

>  <score_type>  (6) 
oracle

>  <origin>  (6) 
adg

>  <m_score__min__energy>  (6) 
-12.880000000000001

>  <m_primary>  (6) 
energy

$$$$
6:0
     RDKit          3D

 58 61  0  0  0  0  0  0  0  0999 V2000
   58.2047   29.7314   44.8707 H   0  0  0  0  0  0  0  0  0  0  0  0
   57.9370   28.6760   44.7140 C   0  0  0  0  0  0  0  0  0  0  0  0
   57.3488   28.3829   43.8319 H   0  0  0  0  0  0  0  0  0  0  0  0
   58.3280   27.7460   45.5990 C   0  0  0  0  0  0  0  0  0  0  0  0
   58.0650   26.3740   45.5340 C   0  0  0  0  0  0  0  0  0  0  0  0
   57.3800   25.7150   44.5780 C   0  0  0  0  0  0  0  0  0  0  0  0
   57.7137   25.8160   43.5347 H   0  0  0  0  0  0  0  0  0  0  0  0
   56.2030   24.8630   44.8580 C   0  0  0  0  0  0  0  0  0  0  0  0
   55.1140   25.3820   45.5740 C   0  0  0  0  0  0  0  0  0  0  0  0
   55.1120   26.7070   45.9970 O   0  0  0  0  0  0  0  0  0  0  0  0
   54.0450   24.5920   45.8510 N   0  0  0  0  0  0  0  0  0  0  0  0
   54.0120   23.2940   45.4580 C   0  0  0  0  0  0  0  0  0  0  0  0
   53.0080   22.5830   45.7210 O   0  0  0  0  0  0  0  0  0  0  0  0
   55.0640   22.7590   44.7880 N   0  0  0  0  0  0  0  0  0  0  0  0
   56.1580   23.5050   44.4880 C   0  0  0  0  0  0  0  0  0  0  0  0
   57.1300   22.9660   43.8960 O   0  0  0  0  0  0  0  0  0  0  0  0
   58.6960   25.8010   46.6310 C   0  0  0  0  0  0  0  0  0  0  0  0
   58.7147   24.7335   46.8956 H   0  0  0  0  0  0  0  0  0  0  0  0
   59.2950   26.8340   47.3240 C   0  0  0  0  0  0  0  0  0  0  0  0
   60.1060   26.6600   48.5720 C   0  0  0  0  0  0  0  0  0  0  0  0
   59.4599   26.7986   49.4514 H   0  0  0  0  0  0  0  0  0  0  0  0
   60.5383   25.6487   48.5903 H   0  0  0  0  0  0  0  0  0  0  0  0
   60.9151   27.4050   48.5903 H   0  0  0  0  0  0  0  0  0  0  0  0
   59.0800   28.0120   46.6970 N   0  0  0  0  0  0  0  0  0  0  0  0
   59.5570   29.2970   47.1360 C   0  0  0  0  0  0  0  0  0  0  0  0
   59.1970   29.7900   48.3970 C   0  0  0  0  0  0  0  0  0  0  0  0
   58.5378   29.1975   49.0485 H   0  0  0  0  0  0  0  0  0  0  0  0
   59.6710   31.0300   48.8310 C   0  0  0  0  0  0  0  0  0  0  0  0
   59.3861   31.4058   49.8248 H   0  0  0  0  0  0  0  0  0  0  0  0
   60.5100   31.8020   48.0070 C   0  0  0  0  0  0  0  0  0  0  0  0
   61.0170   33.1120   48.4810 C   0  0  0  0  0  0  0  0  0  0  0  0
   60.3850   34.1650   48.1920 O   0  0  0  0  0  0  0  0  0  0  0  0
   62.2230   33.1990   49.2560 N   0  0  0  0  0  0  0  0  0  0  0  0
   62.9120   32.4140   49.2030 H   0  0  0  0  0  0  0  0  0  0  0  0
   62.6360   34.4380   49.9150 C   0  0  0  0  0  0  0  0  0  0  0  0
   62.8873   35.1853   49.1479 H   0  0  0  0  0  0  0  0  0  0  0  0
   61.8052   34.7901   50.5441 H   0  0  0  0  0  0  0  0  0  0  0  0
   63.8630   34.2110   50.8140 C   0  0  0  0  0  0  0  0  0  0  0  0
   64.7005   34.8127   50.4313 H   0  0  0  0  0  0  0  0  0  0  0  0
   63.5955   34.5102   51.8382 H   0  0  0  0  0  0  0  0  0  0  0  0
   64.2710   32.7840   50.8430 N   0  0  0  0  0  0  0  0  0  0  0  0
   64.7510   32.3650   52.1820 C   0  0  0  0  0  0  0  0  0  0  0  0
   64.2461   32.9770   52.9439 H   0  0  0  0  0  0  0  0  0  0  0  0
   64.5185   31.2961   52.2981 H   0  0  0  0  0  0  0  0  0  0  0  0
   66.2760   32.5300   52.3480 C   0  0  0  0  0  0  0  0  0  0  0  0
   66.4951   32.8346   53.3820 H   0  0  0  0  0  0  0  0  0  0  0  0
   66.7608   31.5692   52.1202 H   0  0  0  0  0  0  0  0  0  0  0  0
   66.7750   33.5090   51.4620 O   0  0  0  0  0  0  0  0  0  0  0  0
   66.6580   33.0600   50.1230 C   0  0  0  0  0  0  0  0  0  0  0  0
   66.8177   33.9161   49.4510 H   0  0  0  0  0  0  0  0  0  0  0  0
   67.4123   32.2737   49.9724 H   0  0  0  0  0  0  0  0  0  0  0  0
   65.2740   32.4400   49.8120 C   0  0  0  0  0  0  0  0  0  0  0  0
   64.9266   32.8161   48.8384 H   0  0  0  0  0  0  0  0  0  0  0  0
   65.3863   31.3458   49.7975 H   0  0  0  0  0  0  0  0  0  0  0  0
   60.8790   31.2950   46.7470 C   0  0  0  0  0  0  0  0  0  0  0  0
   61.5461   31.8797   46.0966 H   0  0  0  0  0  0  0  0  0  0  0  0
   60.4030   30.0530   46.3170 C   0  0  0  0  0  0  0  0  0  0  0  0
   60.6952   29.6677   45.3290 H   0  0  0  0  0  0  0  0  0  0  0  0
  1  2  1  0
  2  3  1  0
  2  4  2  0
  4  5  1  0
  5  6  2  0
  6  7  1  0
  6  8  1  0
  8  9  2  0
  9 10  1  0
  9 11  1  0
 11 12  1  0
 12 13  2  0
 12 14  1  0
 14 15  1  0
 15 16  2  0
  5 17  1  0
 17 18  1  0
 17 19  2  0
 19 20  1  0
 20 21  1  0
 20 22  1  0
 20 23  1  0
 19 24  1  0
 24 25  1  0
 25 26  2  0
 26 27  1  0
 26 28  1  0
 28 29  1  0
 28 30  2  0
 30 31  1  0
 31 32  2  0
 31 33  1  0
 33 34  1  0
 33 35  1  0
 35 36  1  0
 35 37  1  0
 35 38  1  0
 38 39  1  0
 38 40  1  0
 38 41  1  0
 41 42  1  0
 42 43  1  0
 42 44  1  0
 42 45  1  0
 45 46  1  0
 45 47  1  0
 45 48  1  0
 48 49  1  0
 49 50  1  0
 49 51  1  0
 49 52  1  0
 52 53  1  0
 52 54  1  0
 30 55  1  0
 55 56  1  0
 55 57  2  0
 57 58  1  0
 24  4  1  0
 57 25  1  0
 15  8  1  0
 52 41  1  0
M  CHG  3  10  -1  11  -1  14  -1
M  END
>  <UniqueID>  (7) 
6

>  <SMILES>  (7) 
C=c1/c(=C/c2c([O-])[n-]c(=O)[n-]c2=O)cc(C)n1-c1ccc(C(=O)NCCN2CCOCC2)cc1

>  <Energy>  (7) 
119.73929422844519

>  <Genealogy>  (7) 
C=c1c(=Cc2c([O-])[n-]c(=O)[n-]c2=O)cc(C)n1-c1ccc(C(=O)NCCN2CCOCC2)cc1 (protonated)
C=c1/c(=C/c2c([O-])[n-]c(=O)[n-]c2=O)cc(C)n1-c1ccc(C(=O)NCCN2CCOCC2)cc1 (cis-trans isomerization)
C=c1/c(=C/c2c([O-])[n-]c(=O)[n-]c2=O)cc(C)n1-c1ccc(C(=O)NCCN2CCOCC2)cc1 (3D coordinates assigned)
C=c1/c(=C/c2c([O-])[n-]c(=O)[n-]c2=O)cc(C)n1-c1ccc(C(=O)NCCN2CCOCC2)cc1 (nonaromatic ring conformer: 119.73929422844519 kcal/mol)

>  <smiles>  (7) 
C=c1c(=Cc2c(O)[nH]c(=O)[nH]c2=O)cc(C)n1-c1ccc(C(=O)NCCN2CCOCC2)cc1

>  <score_type>  (7) 
oracle

>  <origin>  (7) 
adg

>  <m_score__min__energy>  (7) 
-15.76

>  <m_primary>  (7) 
energy

$$$$
7:0
     RDKit          3D

 49 51  0  0  0  0  0  0  0  0999 V2000
   51.3550   32.8280   48.9450 H   0  0  0  0  0  0  0  0  0  0  0  0
   50.9970   32.3410   49.7980 N   0  0  0  0  0  0  0  0  0  0  0  0
   51.4670   31.0400   50.1470 C   0  0  0  0  0  0  0  0  0  0  0  0
   51.4290   30.1210   49.2860 O   0  0  0  0  0  0  0  0  0  0  0  0
   51.9670   30.7900   51.5160 C   0  0  0  0  0  0  0  0  0  0  0  0
   51.1660   30.9340   52.4790 O   0  0  0  0  0  0  0  0  0  0  0  0
   53.3550   30.3660   51.8130 C   0  0  0  0  0  0  0  0  0  0  0  0
   54.5330   31.0700   51.6130 C   0  0  0  0  0  0  0  0  0  0  0  0
   54.6346   32.0778   51.1841 H   0  0  0  0  0  0  0  0  0  0  0  0
   55.5560   30.2510   52.0610 C   0  0  0  0  0  0  0  0  0  0  0  0
   56.9940   30.5930   52.0110 C   0  0  0  0  0  0  0  0  0  0  0  0
   57.7660   30.0610   51.0260 N   0  0  0  0  0  0  0  0  0  0  0  0
   59.0990   30.3260   50.9410 C   0  0  0  0  0  0  0  0  0  0  0  0
   59.8320   29.7870   50.0120 N   0  0  0  0  0  0  0  0  0  0  0  0
   59.3240   29.2620   48.7420 C   0  0  0  0  0  0  0  0  0  0  0  0
   60.0878   28.6132   48.2886 H   0  0  0  0  0  0  0  0  0  0  0  0
   58.4047   28.6910   48.9388 H   0  0  0  0  0  0  0  0  0  0  0  0
   59.0010   30.3850   47.7900 C   0  0  0  0  0  0  0  0  0  0  0  0
   59.6440   31.6230   47.9130 C   0  0  0  0  0  0  0  0  0  0  0  0
   60.3630   31.7947   48.7276 H   0  0  0  0  0  0  0  0  0  0  0  0
   59.3670   32.6370   46.9960 C   0  0  0  0  0  0  0  0  0  0  0  0
   59.8647   33.6135   47.0898 H   0  0  0  0  0  0  0  0  0  0  0  0
   58.4830   32.4200   45.9870 N   0  0  0  0  0  0  0  0  0  0  0  0
   57.8370   31.2290   45.8370 C   0  0  0  0  0  0  0  0  0  0  0  0
   57.0100   31.0250   44.8530 N   0  0  0  0  0  0  0  0  0  0  0  0
   56.4510   29.7680   44.4390 C   0  0  0  0  0  0  0  0  0  0  0  0
   55.3320   29.3750   44.8670 O   0  0  0  0  0  0  0  0  0  0  0  0
   57.2270   28.9020   43.5050 C   0  0  0  0  0  0  0  0  0  0  0  0
   57.8512   28.2054   44.0839 H   0  0  0  0  0  0  0  0  0  0  0  0
   56.5322   28.3316   42.8711 H   0  0  0  0  0  0  0  0  0  0  0  0
   57.8700   29.5303   42.8711 H   0  0  0  0  0  0  0  0  0  0  0  0
   58.0790   30.1960   46.7500 C   0  0  0  0  0  0  0  0  0  0  0  0
   57.5473   29.2380   46.6521 H   0  0  0  0  0  0  0  0  0  0  0  0
   59.6770   31.1510   51.8500 N   0  0  0  0  0  0  0  0  0  0  0  0
   58.9510   31.7160   52.8530 C   0  0  0  0  0  0  0  0  0  0  0  0
   59.5540   32.5680   53.7860 O   0  0  0  0  0  0  0  0  0  0  0  0
   59.3420   33.9780   53.8190 C   0  0  0  0  0  0  0  0  0  0  0  0
   60.3159   34.4891   53.8377 H   0  0  0  0  0  0  0  0  0  0  0  0
   58.7624   34.2271   54.7201 H   0  0  0  0  0  0  0  0  0  0  0  0
   58.5610   34.4350   52.5930 C   0  0  0  0  0  0  0  0  0  0  0  0
   57.6529   34.9664   52.9139 H   0  0  0  0  0  0  0  0  0  0  0  0
   59.1868   35.1094   51.9900 H   0  0  0  0  0  0  0  0  0  0  0  0
   58.2796   33.5591   51.9900 H   0  0  0  0  0  0  0  0  0  0  0  0
   57.5860   31.4460   52.9540 C   0  0  0  0  0  0  0  0  0  0  0  0
   56.9847   31.8941   53.7588 H   0  0  0  0  0  0  0  0  0  0  0  0
   55.0500   29.0900   52.5230 N   0  0  0  0  0  0  0  0  0  0  0  0
   55.5740   28.2730   52.9060 H   0  0  0  0  0  0  0  0  0  0  0  0
   53.7140   29.1560   52.3790 C   0  0  0  0  0  0  0  0  0  0  0  0
   53.0093   28.3628   52.6693 H   0  0  0  0  0  0  0  0  0  0  0  0
  1  2  1  0
  2  3  1  0
  3  4  2  0
  3  5  1  0
  5  6  2  0
  5  7  1  0
  7  8  1  0
  8  9  1  0
  8 10  2  0
 10 11  1  0
 11 12  2  0
 12 13  1  0
 13 14  2  0
 14 15  1  0
 15 16  1  0
 15 17  1  0
 15 18  1  0
 18 19  1  0
 19 20  1  0
 19 21  2  0
 21 22  1  0
 21 23  1  0
 23 24  1  0
 24 25  2  3
 25 26  1  0
 26 27  2  0
 26 28  1  0
 28 29  1  0
 28 30  1  0
 28 31  1  0
 24 32  1  0
 32 33  1  0
 13 34  1  0
 34 35  1  0
 35 36  1  0
 36 37  1  0
 37 38  1  0
 37 39  1  0
 37 40  1  0
 40 41  1  0
 40 42  1  0
 40 43  1  0
 35 44  2  0
 44 45  1  0
 10 46  1  0
 46 47  1  0
 46 48  1  0
 48 49  1  0
 48  7  2  0
 44 11  1  0
 32 18  2  0
M  CHG  3   2  -1  23  -1  34  -1
M  END
>  <UniqueID>  (8) 
7

>  <SMILES>  (8) 
CCOc1cc(-c2cc(C(=O)C([NH-])=O)c[nH]2)n/c(=N\Cc2cc[n-]c(=NC(C)=O)c2)[n-]1

>  <Energy>  (8) 
72.5115949539921

>  <Genealogy>  (8) 
CCOc1cc(-c2cc(C(=O)C([NH-])=O)c[nH]2)nc(=NCc2cc[n-]c(=NC(C)=O)c2)[n-]1 (protonated)
CCOc1cc(-c2cc(C(=O)C([NH-])=O)c[nH]2)n/c(=N\Cc2cc[n-]c(=NC(C)=O)c2)[n-]1 (cis-trans isomerization)
CCOc1cc(-c2cc(C(=O)C([NH-])=O)c[nH]2)n/c(=N\Cc2cc[n-]c(=NC(C)=O)c2)[n-]1 (3D coordinates assigned)
CCOc1cc(-c2cc(C(=O)C([NH-])=O)c[nH]2)n/c(=N\Cc2cc[n-]c(=NC(C)=O)c2)[n-]1 (optimized conformer: 72.5115949539921 kcal/mol)

>  <smiles>  (8) 
CCOc1cc(-c2cc(C(=O)C(N)=O)c[nH]2)nc(=NCc2cc[nH]c(=NC(C)=O)c2)[nH]1

>  <score_type>  (8) 
oracle

>  <origin>  (8) 
adg

>  <m_score__min__energy>  (8) 
-14.25

>  <m_primary>  (8) 
energy

$$$$
8:0
     RDKit          3D

 43 45  0  0  0  0  0  0  0  0999 V2000
   54.7700   28.9700   45.5630 H   0  0  0  0  0  0  0  0  0  0  0  0
   55.6860   28.7210   45.2100 O   0  0  0  0  0  0  0  0  0  0  0  0
   56.3090   27.5400   45.6060 C   0  0  0  0  0  0  0  0  0  0  0  0
   55.5550   26.4930   46.0320 N   0  0  0  0  0  0  0  0  0  0  0  0
   56.1320   25.3290   46.4290 C   0  0  0  0  0  0  0  0  0  0  0  0
   55.4130   24.3710   46.8130 O   0  0  0  0  0  0  0  0  0  0  0  0
   57.4820   25.2010   46.4160 N   0  0  0  0  0  0  0  0  0  0  0  0
   58.2810   26.2180   46.0010 C   0  0  0  0  0  0  0  0  0  0  0  0
   59.5330   26.0740   46.0370 O   0  0  0  0  0  0  0  0  0  0  0  0
   57.7060   27.4240   45.5570 C   0  0  0  0  0  0  0  0  0  0  0  0
   58.5310   28.5730   45.1190 C   0  0  0  0  0  0  0  0  0  0  0  0
   59.3045   28.3979   44.3567 H   0  0  0  0  0  0  0  0  0  0  0  0
   58.3850   29.8210   45.6040 C   0  0  0  0  0  0  0  0  0  0  0  0
   58.4890   30.1970   46.9350 C   0  0  0  0  0  0  0  0  0  0  0  0
   58.6781   29.5340   47.7921 H   0  0  0  0  0  0  0  0  0  0  0  0
   58.3090   31.5650   46.9750 C   0  0  0  0  0  0  0  0  0  0  0  0
   58.3340   32.3840   48.2310 C   0  0  0  0  0  0  0  0  0  0  0  0
   58.3136   31.7160   49.1047 H   0  0  0  0  0  0  0  0  0  0  0  0
   59.2511   32.9909   48.2548 H   0  0  0  0  0  0  0  0  0  0  0  0
   57.4556   33.0458   48.2548 H   0  0  0  0  0  0  0  0  0  0  0  0
   58.0900   32.0530   45.7300 N   0  0  0  0  0  0  0  0  0  0  0  0
   57.9050   33.4710   45.3800 C   0  0  0  0  0  0  0  0  0  0  0  0
   57.4377   33.5390   44.3865 H   0  0  0  0  0  0  0  0  0  0  0  0
   57.2619   33.9400   46.1393 H   0  0  0  0  0  0  0  0  0  0  0  0
   59.2450   34.2040   45.3540 C   0  0  0  0  0  0  0  0  0  0  0  0
   60.0004   33.5671   44.8707 H   0  0  0  0  0  0  0  0  0  0  0  0
   59.1354   35.1418   44.7897 H   0  0  0  0  0  0  0  0  0  0  0  0
   59.6580   34.5010   46.6850 O   0  0  0  0  0  0  0  0  0  0  0  0
   60.8990   34.1450   47.2310 C   0  0  0  0  0  0  0  0  0  0  0  0
   61.9220   33.7550   46.3560 C   0  0  0  0  0  0  0  0  0  0  0  0
   61.7360   33.7343   45.2720 H   0  0  0  0  0  0  0  0  0  0  0  0
   63.1780   33.3920   46.8530 C   0  0  0  0  0  0  0  0  0  0  0  0
   63.9757   33.0871   46.1597 H   0  0  0  0  0  0  0  0  0  0  0  0
   63.4210   33.4160   48.2280 C   0  0  0  0  0  0  0  0  0  0  0  0
   64.4092   33.1297   48.6173 H   0  0  0  0  0  0  0  0  0  0  0  0
   62.4080   33.8040   49.1090 C   0  0  0  0  0  0  0  0  0  0  0  0
   62.6004   33.8240   50.1919 H   0  0  0  0  0  0  0  0  0  0  0  0
   61.1500   34.1670   48.6170 C   0  0  0  0  0  0  0  0  0  0  0  0
   60.3548   34.4703   49.3139 H   0  0  0  0  0  0  0  0  0  0  0  0
   58.1450   30.9930   44.8810 C   0  0  0  0  0  0  0  0  0  0  0  0
   57.9820   31.0830   43.5510 C   0  0  0  0  0  0  0  0  0  0  0  0
   57.7971   32.0619   43.0845 H   0  0  0  0  0  0  0  0  0  0  0  0
   58.0334   30.1778   42.9281 H   0  0  0  0  0  0  0  0  0  0  0  0
  1  2  1  0
  2  3  1  0
  3  4  1  0
  4  5  1  0
  5  6  2  0
  5  7  1  0
  7  8  1  0
  8  9  2  0
  8 10  1  0
 10 11  1  0
 11 12  1  0
 11 13  2  0
 13 14  1  0
 14 15  1  0
 14 16  2  0
 16 17  1  0
 17 18  1  0
 17 19  1  0
 17 20  1  0
 16 21  1  0
 21 22  1  0
 22 23  1  0
 22 24  1  0
 22 25  1  0
 25 26  1  0
 25 27  1  0
 25 28  1  0
 28 29  1  0
 29 30  2  0
 30 31  1  0
 30 32  1  0
 32 33  1  0
 32 34  2  0
 34 35  1  0
 34 36  1  0
 36 37  1  0
 36 38  2  0
 38 39  1  0
 21 40  1  0
 40 41  2  0
 41 42  1  0
 41 43  1  0
 10  3  2  0
 40 13  1  0
 38 29  1  0
M  CHG  2   4  -1   7  -1
M  END
>  <UniqueID>  (9) 
8

>  <SMILES>  (9) 
C=c1/c(=C/c2c(O)[n-]c(=O)[n-]c2=O)cc(C)n1CCOc1ccccc1

>  <Energy>  (9) 
79.93202769175612

>  <Genealogy>  (9) 
C=c1c(=Cc2c(O)[n-]c(=O)[n-]c2=O)cc(C)n1CCOc1ccccc1 (protonated)
C=c1/c(=C/c2c(O)[n-]c(=O)[n-]c2=O)cc(C)n1CCOc1ccccc1 (cis-trans isomerization)
C=c1/c(=C/c2c(O)[n-]c(=O)[n-]c2=O)cc(C)n1CCOc1ccccc1 (3D coordinates assigned)
C=c1/c(=C/c2c(O)[n-]c(=O)[n-]c2=O)cc(C)n1CCOc1ccccc1 (optimized conformer: 79.93202769175612 kcal/mol)

>  <smiles>  (9) 
C=c1c(=Cc2c(O)[nH]c(=O)[nH]c2=O)cc(C)n1CCOc1ccccc1

>  <score_type>  (9) 
oracle

>  <origin>  (9) 
adg

>  <m_score__min__energy>  (9) 
-12.94

>  <m_primary>  (9) 
energy

$$$$
9:0
     RDKit          3D

 32 33  0  0  0  0  0  0  0  0999 V2000
   58.4250   25.8300   45.8630 O   0  0  0  0  0  0  0  0  0  0  0  0
   57.8790   25.6970   44.7610 C   0  0  0  0  0  0  0  0  0  0  0  0
   57.6410   26.8070   43.8950 N   0  0  0  0  0  0  0  0  0  0  0  0
   58.0190   28.1530   44.2460 C   0  0  0  0  0  0  0  0  0  0  0  0
   56.8960   28.9990   44.7770 C   0  0  0  0  0  0  0  0  0  0  0  0
   56.8490   30.5460   43.8220 S   0  0  0  0  0  0  0  0  0  0  0  0
   57.6340   31.8850   44.7050 C   0  0  0  0  0  0  0  0  0  0  0  0
   58.1200   31.6000   45.9860 C   0  0  0  0  0  0  0  0  0  0  0  0
   58.7410   32.6060   46.7130 C   0  0  0  0  0  0  0  0  0  0  0  0
   58.8620   33.8630   46.1520 C   0  0  0  0  0  0  0  0  0  0  0  0
   59.6630   35.0890   47.1420 Cl  0  0  0  0  0  0  0  0  0  0  0  0
   58.3870   34.1560   44.8910 C   0  0  0  0  0  0  0  0  0  0  0  0
   57.7650   33.1460   44.1620 C   0  0  0  0  0  0  0  0  0  0  0  0
   57.4680   24.3660   44.3340 C   0  0  0  0  0  0  0  0  0  0  0  0
   57.5900   23.2640   45.1520 C   0  0  0  0  0  0  0  0  0  0  0  0
   57.1790   22.0080   44.6920 C   0  0  0  0  0  0  0  0  0  0  0  0
   56.6500   21.8620   43.4200 C   0  0  0  0  0  0  0  0  0  0  0  0
   56.2690   20.7260   42.9830 O   0  0  0  0  0  0  0  0  0  0  0  0
   56.5560   22.9740   42.6700 N   0  0  0  0  0  0  0  0  0  0  0  0
   56.9450   24.1610   43.1080 N   0  0  0  0  0  0  0  0  0  0  0  0
   57.1660   26.5890   42.9670 H   0  0  0  0  0  0  0  0  0  0  0  0
   58.8025   28.0997   45.0163 H   0  0  0  0  0  0  0  0  0  0  0  0
   58.3598   28.6338   43.3172 H   0  0  0  0  0  0  0  0  0  0  0  0
   55.9416   28.4635   44.6656 H   0  0  0  0  0  0  0  0  0  0  0  0
   57.0552   29.2157   45.8436 H   0  0  0  0  0  0  0  0  0  0  0  0
   58.0112   30.5914   46.4113 H   0  0  0  0  0  0  0  0  0  0  0  0
   59.1314   32.4055   47.7217 H   0  0  0  0  0  0  0  0  0  0  0  0
   58.4972   35.1663   44.4700 H   0  0  0  0  0  0  0  0  0  0  0  0
   57.3782   33.3537   43.1534 H   0  0  0  0  0  0  0  0  0  0  0  0
   58.0091   23.3712   46.1634 H   0  0  0  0  0  0  0  0  0  0  0  0
   57.2768   21.1290   45.3461 H   0  0  0  0  0  0  0  0  0  0  0  0
   56.1640   22.9400   41.6950 H   0  0  0  0  0  0  0  0  0  0  0  0
  1  2  2  0
  2  3  1  0
  3  4  1  0
  4  5  1  0
  5  6  1  0
  6  7  1  0
  7  8  2  0
  8  9  1  0
  9 10  2  0
 10 11  1  0
 10 12  1  0
 12 13  2  0
  2 14  1  0
 14 15  1  0
 15 16  2  0
 16 17  1  0
 17 18  2  0
 17 19  1  0
 19 20  1  0
 13  7  1  0
 20 14  2  0
  3 21  1  0
  4 22  1  0
  4 23  1  0
  5 24  1  0
  5 25  1  0
  8 26  1  0
  9 27  1  0
 12 28  1  0
 13 29  1  0
 15 30  1  0
 16 31  1  0
 19 32  1  0
M  END
>  <smiles>  (10) 
O=C(NCCSc1ccc(Cl)cc1)c1ccc(=O)[nH]n1

>  <score_type>  (10) 
oracle

>  <origin>  (10) 
adg

>  <m_score__min__energy>  (10) 
-7.6299999999999999

>  <m_primary>  (10) 
energy

$$$$
10:0
     RDKit          3D

 52 54  0  0  0  0  0  0  0  0999 V2000
   57.5090   32.3590   40.9530 C   0  0  0  0  0  0  0  0  0  0  0  0
   57.3410   31.5930   42.2320 C   0  0  0  0  0  0  0  0  0  0  0  0
   56.6060   30.4000   42.2490 C   0  0  0  0  0  0  0  0  0  0  0  0
   56.4660   29.6780   43.4370 C   0  0  0  0  0  0  0  0  0  0  0  0
   57.0750   30.1310   44.6090 C   0  0  0  0  0  0  0  0  0  0  0  0
   57.8470   31.3020   44.6030 C   0  0  0  0  0  0  0  0  0  0  0  0
   58.4530   31.7560   45.8260 N   0  0  0  0  0  0  0  0  0  0  0  0
   58.2810   33.0790   46.3620 C   0  0  0  0  0  0  0  0  0  0  0  0
   57.9590   34.0270   45.5950 O   0  0  0  0  0  0  0  0  0  0  0  0
   58.6300   33.4010   47.8020 C   0  0  2  0  0  0  0  0  0  0  0  0
   59.3010   34.7510   48.0390 C   0  0  0  0  0  0  0  0  0  0  0  0
   60.0510   34.5710   49.3470 C   0  0  0  0  0  0  0  0  0  0  0  0
   59.9490   33.0830   49.6760 C   0  0  0  0  0  0  0  0  0  0  0  0
   59.4570   32.3830   48.4810 N   0  0  0  0  0  0  0  0  0  0  0  0
   60.8180   31.8090   47.5190 S   0  0  0  0  0  0  0  0  0  0  0  0
   60.8440   32.5120   46.1910 O   0  0  0  0  0  0  0  0  0  0  0  0
   60.6670   30.3400   47.2450 O   0  0  0  0  0  0  0  0  0  0  0  0
   62.3470   32.0200   48.4300 C   0  0  0  0  0  0  0  0  0  0  0  0
   63.3420   32.9650   48.0500 C   0  0  0  0  0  0  0  0  0  0  0  0
   63.1870   33.8840   46.8670 C   0  0  0  0  0  0  0  0  0  0  0  0
   64.5260   33.0570   48.7970 C   0  0  0  0  0  0  0  0  0  0  0  0
   64.7160   32.2420   49.9120 C   0  0  0  0  0  0  0  0  0  0  0  0
   65.9680   32.3480   50.7230 C   0  0  0  0  0  0  0  0  0  0  0  0
   63.7440   31.3740   50.2800 N   0  0  0  0  0  0  0  0  0  0  0  0
   62.5790   31.2410   49.5950 C   0  0  0  0  0  0  0  0  0  0  0  0
   61.5870   30.2360   50.1080 C   0  0  0  0  0  0  0  0  0  0  0  0
   57.9680   32.0360   43.4080 C   0  0  0  0  0  0  0  0  0  0  0  0
   57.7395   33.4098   41.1825 H   0  0  0  0  0  0  0  0  0  0  0  0
   58.3326   31.9220   40.3694 H   0  0  0  0  0  0  0  0  0  0  0  0
   56.5781   32.3068   40.3694 H   0  0  0  0  0  0  0  0  0  0  0  0
   56.1380   30.0309   41.3245 H   0  0  0  0  0  0  0  0  0  0  0  0
   55.8746   28.7506   43.4490 H   0  0  0  0  0  0  0  0  0  0  0  0
   56.9484   29.5653   45.5439 H   0  0  0  0  0  0  0  0  0  0  0  0
   59.1490   31.1240   46.2820 H   0  0  0  0  0  0  0  0  0  0  0  0
   57.6215   33.4233   48.2406 H   0  0  0  0  0  0  0  0  0  0  0  0
   59.9961   34.9900   47.2206 H   0  0  0  0  0  0  0  0  0  0  0  0
   58.5780   35.5791   48.0789 H   0  0  0  0  0  0  0  0  0  0  0  0
   61.1039   34.8673   49.2301 H   0  0  0  0  0  0  0  0  0  0  0  0
   59.6288   35.1954   50.1482 H   0  0  0  0  0  0  0  0  0  0  0  0
   60.9396   32.6941   49.9544 H   0  0  0  0  0  0  0  0  0  0  0  0
   59.2608   32.9259   50.5196 H   0  0  0  0  0  0  0  0  0  0  0  0
   63.0138   34.9111   47.2208 H   0  0  0  0  0  0  0  0  0  0  0  0
   64.1026   33.8555   46.2581 H   0  0  0  0  0  0  0  0  0  0  0  0
   62.3314   33.5567   46.2581 H   0  0  0  0  0  0  0  0  0  0  0  0
   65.3064   33.7740   48.5022 H   0  0  0  0  0  0  0  0  0  0  0  0
   65.7146   32.3265   51.7932 H   0  0  0  0  0  0  0  0  0  0  0  0
   66.6309   31.5028   50.4862 H   0  0  0  0  0  0  0  0  0  0  0  0
   66.4794   33.2927   50.4862 H   0  0  0  0  0  0  0  0  0  0  0  0
   61.5937   30.2428   51.2080 H   0  0  0  0  0  0  0  0  0  0  0  0
   60.5813   30.4957   49.7458 H   0  0  0  0  0  0  0  0  0  0  0  0
   61.8597   29.2338   49.7458 H   0  0  0  0  0  0  0  0  0  0  0  0
   58.5584   32.9640   43.3952 H   0  0  0  0  0  0  0  0  0  0  0  0
  1  2  1  0
  2  3  2  0
  3  4  1  0
  4  5  2  0
  5  6  1  0
  6  7  1  0
  7  8  1  0
  8  9  2  0
  8 10  1  0
 10 11  1  0
 11 12  1  0
 12 13  1  0
 13 14  1  0
 14 15  1  0
 15 16  2  0
 15 17  2  0
 15 18  1  0
 18 19  2  0
 19 20  1  0
 19 21  1  0
 21 22  2  0
 22 23  1  0
 22 24  1  0
 24 25  2  0
 25 26  1  0
  6 27  2  0
 27  2  1  0
 14 10  1  0
 25 18  1  0
  1 28  1  0
  1 29  1  0
  1 30  1  0
  3 31  1  0
  4 32  1  0
  5 33  1  0
  7 34  1  0
 10 35  1  1
 11 36  1  0
 11 37  1  0
 12 38  1  0
 12 39  1  0
 13 40  1  0
 13 41  1  0
 20 42  1  0
 20 43  1  0
 20 44  1  0
 21 45  1  0
 23 46  1  0
 23 47  1  0
 23 48  1  0
 26 49  1  0
 26 50  1  0
 26 51  1  0
 27 52  1  0
M  END
>  <UniqueID>  (11) 
9

>  <SMILES>  (11) 
Cc1cccc(NC(=O)[C@@H]2CCCN2S(=O)(=O)c2c(C)cc(C)nc2C)c1

>  <Energy>  (11) 
67.33575812025995

>  <Genealogy>  (11) 
Cc1cccc(NC(=O)[C@@H]2CCCN2S(=O)(=O)c2c(C)cc(C)nc2C)c1 (chirality)
Cc1cccc(NC(=O)[C@@H]2CCCN2S(=O)(=O)c2c(C)cc(C)nc2C)c1 (3D coordinates assigned)
Cc1cccc(NC(=O)[C@@H]2CCCN2S(=O)(=O)c2c(C)cc(C)nc2C)c1 (nonaromatic ring conformer: 67.33575812025995 kcal/mol)

>  <smiles>  (11) 
Cc1cccc(NC(=O)C2CCCN2S(=O)(=O)c2c(C)cc(C)nc2C)c1

>  <score_type>  (11) 
oracle

>  <origin>  (11) 
adg

>  <m_score__min__energy>  (11) 
-8.5099999999999998

>  <m_primary>  (11) 
energy

$$$$
11:0
     RDKit          3D

 64 67  0  0  0  0  0  0  0  0999 V2000
   56.6700   34.4810   44.5600 O   0  0  0  0  0  0  0  0  0  0  0  0
   57.6390   33.6990   44.7060 C   0  0  0  0  0  0  0  0  0  0  0  0
   57.9530   32.7840   43.6490 N   0  0  0  0  0  0  0  0  0  0  0  0
   57.1300   31.6250   43.2870 C   0  0  0  0  0  0  0  0  0  0  0  0
   57.4570   30.4530   44.1950 C   0  0  0  0  0  0  0  0  0  0  0  0
   56.5750   30.1110   44.9760 O   0  0  0  0  0  0  0  0  0  0  0  0
   58.7660   29.7860   44.2550 N   0  0  0  0  0  0  0  0  0  0  0  0
   58.7220   28.3170   44.4480 C   0  0  0  0  0  0  0  0  0  0  0  0
   58.2480   27.9430   45.8610 C   0  0  0  0  0  0  0  0  0  0  0  0
   59.1620   28.5100   46.8780 N   0  0  0  0  0  0  0  0  0  0  0  0
   58.7210   28.1930   48.2540 C   0  0  0  0  0  0  0  0  0  0  0  0
   59.4380   29.0070   49.3080 C   0  0  0  0  0  0  0  0  0  0  0  0
   60.7620   28.7040   49.7000 C   0  0  0  0  0  0  0  0  0  0  0  0
   61.3720   29.4240   50.7400 C   0  0  0  0  0  0  0  0  0  0  0  0
   60.6530   30.4320   51.4030 C   0  0  0  0  0  0  0  0  0  0  0  0
   59.3430   30.7370   51.0170 C   0  0  0  0  0  0  0  0  0  0  0  0
   58.7370   30.0300   49.9740 C   0  0  0  0  0  0  0  0  0  0  0  0
   59.2170   29.9810   46.7170 C   0  0  0  0  0  0  0  0  0  0  0  0
   59.6510   30.3740   45.2890 C   0  0  0  0  0  0  0  0  0  0  0  0
   58.4560   33.7780   45.9320 C   0  0  0  0  0  0  0  0  0  0  0  0
   59.6910   34.4540   45.9190 C   0  0  0  0  0  0  0  0  0  0  0  0
   60.5270   34.4140   47.0350 C   0  0  0  0  0  0  0  0  0  0  0  0
   60.1330   33.7210   48.1860 C   0  0  0  0  0  0  0  0  0  0  0  0
   61.2840   33.5160   49.5040 S   0  0  0  0  0  0  0  0  0  0  0  0
   60.5570   33.4940   50.8220 O   0  0  0  0  0  0  0  0  0  0  0  0
   62.2260   34.6920   49.4910 O   0  0  0  0  0  0  0  0  0  0  0  0
   62.2120   32.0440   49.2770 N   0  0  0  0  0  0  0  0  0  0  0  0
   63.5710   32.1450   49.8390 C   0  0  0  0  0  0  0  0  0  0  0  0
   64.5130   33.0170   48.9650 C   0  0  0  0  0  0  0  0  0  0  0  0
   63.9990   33.2600   47.6640 O   0  0  0  0  0  0  0  0  0  0  0  0
   63.4940   32.0620   47.1150 C   0  0  0  0  0  0  0  0  0  0  0  0
   62.2220   31.6170   47.8610 C   0  0  0  0  0  0  0  0  0  0  0  0
   58.8820   33.0910   48.2230 C   0  0  0  0  0  0  0  0  0  0  0  0
   58.0410   33.1320   47.1040 C   0  0  0  0  0  0  0  0  0  0  0  0
   56.0667   31.8848   43.3960 H   0  0  0  0  0  0  0  0  0  0  0  0
   57.3401   31.3441   42.2444 H   0  0  0  0  0  0  0  0  0  0  0  0
   59.2310   29.9720   43.3280 H   0  0  0  0  0  0  0  0  0  0  0  0
   58.0293   27.8815   43.7128 H   0  0  0  0  0  0  0  0  0  0  0  0
   59.7400   27.9229   44.3124 H   0  0  0  0  0  0  0  0  0  0  0  0
   57.2353   28.3416   46.0211 H   0  0  0  0  0  0  0  0  0  0  0  0
   58.2421   26.8472   45.9574 H   0  0  0  0  0  0  0  0  0  0  0  0
   57.6421   28.3930   48.3309 H   0  0  0  0  0  0  0  0  0  0  0  0
   58.9574   27.1348   48.4391 H   0  0  0  0  0  0  0  0  0  0  0  0
   61.3157   27.9024   49.1892 H   0  0  0  0  0  0  0  0  0  0  0  0
   62.4080   29.1996   51.0340 H   0  0  0  0  0  0  0  0  0  0  0  0
   61.1222   30.9847   52.2302 H   0  0  0  0  0  0  0  0  0  0  0  0
   58.7893   31.5340   51.5348 H   0  0  0  0  0  0  0  0  0  0  0  0
   57.7077   30.2743   49.6725 H   0  0  0  0  0  0  0  0  0  0  0  0
   58.2200   30.4006   46.9165 H   0  0  0  0  0  0  0  0  0  0  0  0
   59.9569   30.3801   47.4265 H   0  0  0  0  0  0  0  0  0  0  0  0
   59.6225   31.4699   45.1987 H   0  0  0  0  0  0  0  0  0  0  0  0
   60.6672   29.9861   45.1252 H   0  0  0  0  0  0  0  0  0  0  0  0
   59.9980   35.0162   45.0248 H   0  0  0  0  0  0  0  0  0  0  0  0
   61.4989   34.9286   47.0106 H   0  0  0  0  0  0  0  0  0  0  0  0
   63.5056   32.5925   50.8417 H   0  0  0  0  0  0  0  0  0  0  0  0
   63.9937   31.1301   49.8756 H   0  0  0  0  0  0  0  0  0  0  0  0
   64.6626   33.9835   49.4685 H   0  0  0  0  0  0  0  0  0  0  0  0
   65.4564   32.4638   48.8469 H   0  0  0  0  0  0  0  0  0  0  0  0
   63.2527   32.2241   46.0541 H   0  0  0  0  0  0  0  0  0  0  0  0
   64.2573   31.2764   47.2162 H   0  0  0  0  0  0  0  0  0  0  0  0
   61.3472   32.0525   47.3559 H   0  0  0  0  0  0  0  0  0  0  0  0
   62.1951   30.5174   47.8453 H   0  0  0  0  0  0  0  0  0  0  0  0
   58.5599   32.5632   49.1328 H   0  0  0  0  0  0  0  0  0  0  0  0
   57.0506   32.6551   47.1453 H   0  0  0  0  0  0  0  0  0  0  0  0
  1  2  2  0
  2  3  1  0
  3  4  1  0
  4  5  1  0
  5  6  2  0
  5  7  1  0
  7  8  1  0
  8  9  1  0
  9 10  1  0
 10 11  1  0
 11 12  1  0
 12 13  2  0
 13 14  1  0
 14 15  2  0
 15 16  1  0
 16 17  2  0
 10 18  1  0
 18 19  1  0
  2 20  1  0
 20 21  2  0
 21 22  1  0
 22 23  2  0
 23 24  1  0
 24 25  2  0
 24 26  2  0
 24 27  1  0
 27 28  1  0
 28 29  1  0
 29 30  1  0
 30 31  1  0
 31 32  1  0
 23 33  1  0
 33 34  2  0
 19  7  1  0
 34 20  1  0
 17 12  1  0
 32 27  1  0
  4 35  1  0
  4 36  1  0
  7 37  1  0
  8 38  1  0
  8 39  1  0
  9 40  1  0
  9 41  1  0
 11 42  1  0
 11 43  1  0
 13 44  1  0
 14 45  1  0
 15 46  1  0
 16 47  1  0
 17 48  1  0
 18 49  1  0
 18 50  1  0
 19 51  1  0
 19 52  1  0
 21 53  1  0
 22 54  1  0
 28 55  1  0
 28 56  1  0
 29 57  1  0
 29 58  1  0
 31 59  1  0
 31 60  1  0
 32 61  1  0
 32 62  1  0
 33 63  1  0
 34 64  1  0
M  CHG  2   3  -1   7   1
M  END
>  <UniqueID>  (12) 
10

>  <SMILES>  (12) 
O=C([N-]CC(=O)[NH+]1CCN(Cc2ccccc2)CC1)c1ccc(S(=O)(=O)N2CCOCC2)cc1

>  <Energy>  (12) 
90.93046750534401

>  <Genealogy>  (12) 
O=C([N-]CC(=O)[NH+]1CCN(Cc2ccccc2)CC1)c1ccc(S(=O)(=O)N2CCOCC2)cc1 (protonated)
O=C([N-]CC(=O)[NH+]1CCN(Cc2ccccc2)CC1)c1ccc(S(=O)(=O)N2CCOCC2)cc1 (3D coordinates assigned)
O=C([N-]CC(=O)[NH+]1CCN(Cc2ccccc2)CC1)c1ccc(S(=O)(=O)N2CCOCC2)cc1 (nonaromatic ring conformer: 90.93046750534401 kcal/mol)

>  <smiles>  (12) 
O=C(NCC(=O)N1CCN(Cc2ccccc2)CC1)c1ccc(S(=O)(=O)N2CCOCC2)cc1

>  <score_type>  (12) 
oracle

>  <origin>  (12) 
adg

>  <m_score__min__energy>  (12) 
-9.4100000000000001

>  <m_primary>  (12) 
energy

$$$$
12:0
     RDKit          3D

 54 57  0  0  0  0  0  0  0  0999 V2000
   59.8720   35.2184   44.8479 H   0  0  0  0  0  0  0  0  0  0  0  0
   59.6620   34.6600   45.7720 C   0  0  0  0  0  0  0  0  0  0  0  0
   58.5260   33.8810   45.9540 C   0  0  0  0  0  0  0  0  0  0  0  0
   57.4890   33.5960   44.9160 C   0  0  0  0  0  0  0  0  0  0  0  0
   57.8069   34.0249   43.9542 H   0  0  0  0  0  0  0  0  0  0  0  0
   56.5331   34.0455   45.2231 H   0  0  0  0  0  0  0  0  0  0  0  0
   57.3160   32.1150   44.7680 C   0  0  0  0  0  0  0  0  0  0  0  0
   56.1490   31.6280   44.7150 O   0  0  0  0  0  0  0  0  0  0  0  0
   58.4680   31.2620   44.7200 N   0  0  0  0  0  0  0  0  0  0  0  0
   59.3880   31.6850   44.4530 H   0  0  0  0  0  0  0  0  0  0  0  0
   58.4090   29.8370   44.8960 C   0  0  0  0  0  0  0  0  0  0  0  0
   59.5990   29.0900   44.9290 C   0  0  0  0  0  0  0  0  0  0  0  0
   60.5669   29.6001   44.8154 H   0  0  0  0  0  0  0  0  0  0  0  0
   59.5620   27.7040   45.1050 C   0  0  0  0  0  0  0  0  0  0  0  0
   60.4983   27.1268   45.1132 H   0  0  0  0  0  0  0  0  0  0  0  0
   58.3350   27.0480   45.2710 C   0  0  0  0  0  0  0  0  0  0  0  0
   58.3030   25.3000   45.4800 S   0  0  0  0  0  0  0  0  0  0  0  0
   59.6000   24.8610   46.0990 O   0  0  0  0  0  0  0  0  0  0  0  0
   58.1230   24.6220   44.1500 O   0  0  0  0  0  0  0  0  0  0  0  0
   56.9780   24.8880   46.5210 N   0  0  0  0  0  0  0  0  0  0  0  0
   55.7270   24.9730   46.1810 C   0  0  0  0  0  0  0  0  0  0  0  0
   55.0720   26.1450   46.0920 N   0  0  0  0  0  0  0  0  0  0  0  0
   53.8550   25.8600   45.7260 O   0  0  0  0  0  0  0  0  0  0  0  0
   53.6950   24.5640   45.5750 C   0  0  0  0  0  0  0  0  0  0  0  0
   52.4270   23.9110   45.1420 C   0  0  0  0  0  0  0  0  0  0  0  0
   51.8472   23.6124   46.0279 H   0  0  0  0  0  0  0  0  0  0  0  0
   51.8378   24.6178   44.5393 H   0  0  0  0  0  0  0  0  0  0  0  0
   52.6602   23.0208   44.5393 H   0  0  0  0  0  0  0  0  0  0  0  0
   54.8840   23.9240   45.8540 C   0  0  0  0  0  0  0  0  0  0  0  0
   55.1075   22.8474   45.8242 H   0  0  0  0  0  0  0  0  0  0  0  0
   57.1440   27.7920   45.2650 C   0  0  0  0  0  0  0  0  0  0  0  0
   56.1788   27.2826   45.4023 H   0  0  0  0  0  0  0  0  0  0  0  0
   57.1810   29.1790   45.0850 C   0  0  0  0  0  0  0  0  0  0  0  0
   56.2452   29.7572   45.0914 H   0  0  0  0  0  0  0  0  0  0  0  0
   58.5860   33.1700   47.4800 S   0  0  0  0  0  0  0  0  0  0  0  0
   60.0450   33.8750   47.9250 C   0  0  0  0  0  0  0  0  0  0  0  0
   60.8710   33.6080   49.4500 S   0  0  0  0  0  0  0  0  0  0  0  0
   59.8740   33.6860   50.5760 O   0  0  0  0  0  0  0  0  0  0  0  0
   61.8930   34.6940   49.6300 O   0  0  0  0  0  0  0  0  0  0  0  0
   61.6640   32.0460   49.4400 N   0  0  0  0  0  0  0  0  0  0  0  0
   63.0080   32.1520   48.8590 C   0  0  0  0  0  0  0  0  0  0  0  0
   63.4056   33.1647   49.0213 H   0  0  0  0  0  0  0  0  0  0  0  0
   63.6870   31.4289   49.3344 H   0  0  0  0  0  0  0  0  0  0  0  0
   62.9010   31.8730   47.3680 C   0  0  0  0  0  0  0  0  0  0  0  0
   62.9077   32.8143   46.7989 H   0  0  0  0  0  0  0  0  0  0  0  0
   63.7472   31.2727   47.0024 H   0  0  0  0  0  0  0  0  0  0  0  0
   61.5790   31.1530   47.1870 C   0  0  0  0  0  0  0  0  0  0  0  0
   60.9352   31.7033   46.4851 H   0  0  0  0  0  0  0  0  0  0  0  0
   61.7189   30.1439   46.7721 H   0  0  0  0  0  0  0  0  0  0  0  0
   60.9420   31.1100   48.5710 C   0  0  0  0  0  0  0  0  0  0  0  0
   59.8847   31.4057   48.5031 H   0  0  0  0  0  0  0  0  0  0  0  0
   60.9978   30.0913   48.9823 H   0  0  0  0  0  0  0  0  0  0  0  0
   60.5120   34.6620   46.8840 C   0  0  0  0  0  0  0  0  0  0  0  0
   61.4533   35.2295   46.9273 H   0  0  0  0  0  0  0  0  0  0  0  0
  1  2  1  0
  2  3  2  0
  3  4  1  0
  4  5  1  0
  4  6  1  0
  4  7  1  0
  7  8  2  0
  7  9  1  0
  9 10  1  0
  9 11  1  0
 11 12  2  0
 12 13  1  0
 12 14  1  0
 14 15  1  0
 14 16  2  0
 16 17  1  0
 17 18  2  0
 17 19  2  0
 17 20  1  0
 20 21  2  0
 21 22  1  0
 22 23  1  0
 23 24  1  0
 24 25  1  0
 25 26  1  0
 25 27  1  0
 25 28  1  0
 24 29  2  0
 29 30  1  0
 16 31  1  0
 31 32  1  0
 31 33  2  0
 33 34  1  0
  3 35  1  0
 35 36  1  0
 36 37  1  0
 37 38  2  0
 37 39  2  0
 37 40  1  0
 40 41  1  0
 41 42  1  0
 41 43  1  0
 41 44  1  0
 44 45  1  0
 44 46  1  0
 44 47  1  0
 47 48  1  0
 47 49  1  0
 47 50  1  0
 50 51  1  0
 50 52  1  0
 36 53  2  0
 53 54  1  0
 53  2  1  0
 33 11  1  0
 50 40  1  0
 29 21  1  0
M  CHG  1  22  -1
M  END
>  <UniqueID>  (13) 
11

>  <SMILES>  (13) 
Cc1c/c(=N\S(=O)(=O)c2ccc(NC(=O)Cc3ccc(S(=O)(=O)N4CCCC4)s3)cc2)[n-]o1

>  <Energy>  (13) 
118.79293342085745

>  <Genealogy>  (13) 
Cc1cc(=NS(=O)(=O)c2ccc(NC(=O)Cc3ccc(S(=O)(=O)N4CCCC4)s3)cc2)[n-]o1 (protonated)
Cc1c/c(=N\S(=O)(=O)c2ccc(NC(=O)Cc3ccc(S(=O)(=O)N4CCCC4)s3)cc2)[n-]o1 (cis-trans isomerization)
Cc1c/c(=N\S(=O)(=O)c2ccc(NC(=O)Cc3ccc(S(=O)(=O)N4CCCC4)s3)cc2)[n-]o1 (3D coordinates assigned)
Cc1c/c(=N\S(=O)(=O)c2ccc(NC(=O)Cc3ccc(S(=O)(=O)N4CCCC4)s3)cc2)[n-]o1 (nonaromatic ring conformer: 118.79293342085745 kcal/mol)

>  <smiles>  (13) 
Cc1cc(=NS(=O)(=O)c2ccc(NC(=O)Cc3ccc(S(=O)(=O)N4CCCC4)s3)cc2)[nH]o1

>  <score_type>  (13) 
oracle

>  <origin>  (13) 
adg

>  <m_score__min__energy>  (13) 
-13.52

>  <m_primary>  (13) 
energy

$$$$
13:0
     RDKit          3D

 44 46  0  0  0  0  0  0  0  0999 V2000
   55.1390   26.3620   46.9310 H   0  0  0  0  0  0  0  0  0  0  0  0
   55.0710   26.1070   45.9530 O   0  0  0  0  0  0  0  0  0  0  0  0
   54.8450   24.7870   45.5720 C   0  0  0  0  0  0  0  0  0  0  0  0
   53.7250   24.1440   45.9960 N   0  0  0  0  0  0  0  0  0  0  0  0
   53.4840   22.8540   45.6490 C   0  0  0  0  0  0  0  0  0  0  0  0
   52.4400   22.2800   46.0520 O   0  0  0  0  0  0  0  0  0  0  0  0
   54.3710   22.1800   44.8720 N   0  0  0  0  0  0  0  0  0  0  0  0
   55.5040   22.7790   44.4230 C   0  0  0  0  0  0  0  0  0  0  0  0
   56.3100   22.1240   43.7080 O   0  0  0  0  0  0  0  0  0  0  0  0
   55.7640   24.1180   44.7510 C   0  0  0  0  0  0  0  0  0  0  0  0
   57.0030   24.7820   44.3080 C   0  0  0  0  0  0  0  0  0  0  0  0
   57.4520   24.4527   43.3593 H   0  0  0  0  0  0  0  0  0  0  0  0
   57.6220   25.7670   44.9900 C   0  0  0  0  0  0  0  0  0  0  0  0
   57.9400   25.8390   46.3510 C   0  0  0  0  0  0  0  0  0  0  0  0
   57.6670   24.8330   47.4260 C   0  0  0  0  0  0  0  0  0  0  0  0
   57.7951   25.3052   48.4112 H   0  0  0  0  0  0  0  0  0  0  0  0
   56.6359   24.4626   47.3283 H   0  0  0  0  0  0  0  0  0  0  0  0
   58.3694   23.9922   47.3283 H   0  0  0  0  0  0  0  0  0  0  0  0
   58.5580   27.0080   46.6100 N   0  0  0  0  0  0  0  0  0  0  0  0
   58.6410   27.6920   45.4810 N   0  0  0  0  0  0  0  0  0  0  0  0
   59.2850   29.0060   45.4020 C   0  0  0  0  0  0  0  0  0  0  0  0
   60.2462   28.9708   45.9357 H   0  0  0  0  0  0  0  0  0  0  0  0
   59.4479   29.2595   44.3441 H   0  0  0  0  0  0  0  0  0  0  0  0
   58.4090   30.0610   46.0270 C   0  0  0  0  0  0  0  0  0  0  0  0
   58.7740   30.6020   47.1040 O   0  0  0  0  0  0  0  0  0  0  0  0
   57.1430   30.4290   45.4660 N   0  0  0  0  0  0  0  0  0  0  0  0
   56.9330   31.5320   44.5380 C   0  0  0  0  0  0  0  0  0  0  0  0
   57.2766   31.2389   43.5350 H   0  0  0  0  0  0  0  0  0  0  0  0
   55.8624   31.7814   44.4981 H   0  0  0  0  0  0  0  0  0  0  0  0
   57.7110   32.7280   45.0050 C   0  0  0  0  0  0  0  0  0  0  0  0
   58.5860   33.3900   44.1280 C   0  0  0  0  0  0  0  0  0  0  0  0
   58.6816   33.0473   43.0871 H   0  0  0  0  0  0  0  0  0  0  0  0
   59.3360   34.4830   44.5730 C   0  0  0  0  0  0  0  0  0  0  0  0
   60.0122   35.0038   43.8791 H   0  0  0  0  0  0  0  0  0  0  0  0
   59.2280   34.9150   45.8980 C   0  0  0  0  0  0  0  0  0  0  0  0
   59.9570   35.9740   46.3280 F   0  0  0  0  0  0  0  0  0  0  0  0
   58.3710   34.2500   46.7820 C   0  0  0  0  0  0  0  0  0  0  0  0
   58.2887   34.5870   47.8259 H   0  0  0  0  0  0  0  0  0  0  0  0
   57.6190   33.1570   46.3390 C   0  0  0  0  0  0  0  0  0  0  0  0
   56.9526   32.6312   47.0386 H   0  0  0  0  0  0  0  0  0  0  0  0
   58.0890   26.9770   44.4710 C   0  0  0  0  0  0  0  0  0  0  0  0
   58.0320   27.3880   43.1950 C   0  0  0  0  0  0  0  0  0  0  0  0
   58.4391   28.3708   42.9150 H   0  0  0  0  0  0  0  0  0  0  0  0
   57.5782   26.7421   42.4289 H   0  0  0  0  0  0  0  0  0  0  0  0
  1  2  1  0
  2  3  1  0
  3  4  1  0
  4  5  1  0
  5  6  2  0
  5  7  1  0
  7  8  1  0
  8  9  2  0
  8 10  1  0
 10 11  1  0
 11 12  1  0
 11 13  2  0
 13 14  1  0
 14 15  1  0
 15 16  1  0
 15 17  1  0
 15 18  1  0
 14 19  2  0
 19 20  1  0
 20 21  1  0
 21 22  1  0
 21 23  1  0
 21 24  1  0
 24 25  2  0
 24 26  1  0
 26 27  1  0
 27 28  1  0
 27 29  1  0
 27 30  1  0
 30 31  2  0
 31 32  1  0
 31 33  1  0
 33 34  1  0
 33 35  2  0
 35 36  1  0
 35 37  1  0
 37 38  1  0
 37 39  2  0
 39 40  1  0
 20 41  1  0
 41 42  2  0
 42 43  1  0
 42 44  1  0
 10  3  2  0
 41 13  1  0
 39 30  1  0
M  CHG  3   4  -1   7  -1  26  -1
M  END
>  <UniqueID>  (14) 
12

>  <SMILES>  (14) 
C=c1/c(=C/c2c(O)[n-]c(=O)[n-]c2=O)c(C)nn1CC(=O)[N-]Cc1ccc(F)cc1

>  <Energy>  (14) 
87.54579449553862

>  <Genealogy>  (14) 
C=c1c(=Cc2c(O)[n-]c(=O)[n-]c2=O)c(C)nn1CC(=O)[N-]Cc1ccc(F)cc1 (protonated)
C=c1/c(=C/c2c(O)[n-]c(=O)[n-]c2=O)c(C)nn1CC(=O)[N-]Cc1ccc(F)cc1 (cis-trans isomerization)
C=c1/c(=C/c2c(O)[n-]c(=O)[n-]c2=O)c(C)nn1CC(=O)[N-]Cc1ccc(F)cc1 (3D coordinates assigned)
C=c1/c(=C/c2c(O)[n-]c(=O)[n-]c2=O)c(C)nn1CC(=O)[N-]Cc1ccc(F)cc1 (optimized conformer: 87.54579449553862 kcal/mol)

>  <smiles>  (14) 
C=c1c(=Cc2c(O)[nH]c(=O)[nH]c2=O)c(C)nn1CC(=O)NCc1ccc(F)cc1

>  <score_type>  (14) 
oracle

>  <origin>  (14) 
adg

>  <m_score__min__energy>  (14) 
-14.289999999999999

>  <m_primary>  (14) 
energy

$$$$
14:0
     RDKit          3D

 47 49  0  0  0  0  0  0  0  0999 V2000
   56.4960   22.8100   43.0040 C   0  0  0  0  0  0  0  0  0  0  0  0
   56.3040   24.1020   43.7990 C   0  0  0  0  0  0  0  0  0  0  0  0
   55.4890   23.8460   45.0770 C   0  0  0  0  0  0  0  0  0  0  0  0
   55.3020   25.0880   45.9180 C   0  0  0  0  0  0  0  0  0  0  0  0
   54.4010   25.9240   45.6330 O   0  0  0  0  0  0  0  0  0  0  0  0
   56.1560   25.3540   47.0360 N   0  0  0  0  0  0  0  0  0  0  0  0
   57.4530   26.0200   46.9340 C   0  0  0  0  0  0  0  0  0  0  0  0
   57.4670   26.9780   45.7410 C   0  0  0  0  0  0  0  0  0  0  0  0
   58.0860   28.2930   46.1080 C   0  0  0  0  0  0  0  0  0  0  0  0
   59.0830   28.4110   47.0090 N   0  0  0  0  0  0  0  0  0  0  0  0
   59.3650   29.7270   47.0170 C   0  0  0  0  0  0  0  0  0  0  0  0
   60.4630   30.2940   47.8190 C   0  0  0  0  0  0  0  0  0  0  0  0
   60.6700   29.9170   49.1560 C   0  0  0  0  0  0  0  0  0  0  0  0
   61.7100   30.5040   49.8810 C   0  0  0  0  0  0  0  0  0  0  0  0
   62.5220   31.4680   49.2800 C   0  0  0  0  0  0  0  0  0  0  0  0
   62.2700   31.8440   47.9590 C   0  0  0  0  0  0  0  0  0  0  0  0
   63.3440   33.1770   47.1140 Br  0  0  0  0  0  0  0  0  0  0  0  0
   61.2540   31.2570   47.2660 N   0  0  0  0  0  0  0  0  0  0  0  0
   58.5180   30.3720   46.1240 C   0  0  0  0  0  0  0  0  0  0  0  0
   58.3980   31.8150   45.8510 C   0  0  0  0  0  0  0  0  0  0  0  0
   57.8200   32.2920   44.6650 C   0  0  0  0  0  0  0  0  0  0  0  0
   57.7590   33.6680   44.4360 C   0  0  0  0  0  0  0  0  0  0  0  0
   58.2850   34.5540   45.3770 C   0  0  0  0  0  0  0  0  0  0  0  0
   58.8710   34.0470   46.5450 C   0  0  0  0  0  0  0  0  0  0  0  0
   59.4690   34.9720   47.5610 C   0  0  0  0  0  0  0  0  0  0  0  0
   58.9230   32.7010   46.7420 N   0  0  0  0  0  0  0  0  0  0  0  0
   57.7190   29.4610   45.5420 N   0  0  0  0  0  0  0  0  0  0  0  0
   56.6213   21.9669   43.6993 H   0  0  0  0  0  0  0  0  0  0  0  0
   55.6140   22.6348   42.3704 H   0  0  0  0  0  0  0  0  0  0  0  0
   57.3908   22.8989   42.3704 H   0  0  0  0  0  0  0  0  0  0  0  0
   57.2898   24.5042   44.0755 H   0  0  0  0  0  0  0  0  0  0  0  0
   55.7565   24.8213   43.1722 H   0  0  0  0  0  0  0  0  0  0  0  0
   54.4979   23.4647   44.7900 H   0  0  0  0  0  0  0  0  0  0  0  0
   56.0491   23.1194   45.6839 H   0  0  0  0  0  0  0  0  0  0  0  0
   57.6429   26.5874   47.8570 H   0  0  0  0  0  0  0  0  0  0  0  0
   58.2348   25.2596   46.7908 H   0  0  0  0  0  0  0  0  0  0  0  0
   58.0467   26.5244   44.9236 H   0  0  0  0  0  0  0  0  0  0  0  0
   56.4282   27.1579   45.4270 H   0  0  0  0  0  0  0  0  0  0  0  0
   60.0191   29.1663   49.6281 H   0  0  0  0  0  0  0  0  0  0  0  0
   61.8891   30.2069   50.9249 H   0  0  0  0  0  0  0  0  0  0  0  0
   63.3504   31.9258   49.8405 H   0  0  0  0  0  0  0  0  0  0  0  0
   57.4182   31.5878   43.9216 H   0  0  0  0  0  0  0  0  0  0  0  0
   57.2969   34.0531   43.5150 H   0  0  0  0  0  0  0  0  0  0  0  0
   58.2402   35.6394   45.2039 H   0  0  0  0  0  0  0  0  0  0  0  0
   59.2336   34.6078   48.5719 H   0  0  0  0  0  0  0  0  0  0  0  0
   60.5605   35.0060   47.4285 H   0  0  0  0  0  0  0  0  0  0  0  0
   59.0520   35.9812   47.4285 H   0  0  0  0  0  0  0  0  0  0  0  0
  1  2  1  0
  2  3  1  0
  3  4  1  0
  4  5  2  0
  4  6  1  0
  6  7  1  0
  7  8  1  0
  8  9  1  0
  9 10  2  0
 10 11  1  0
 11 12  1  0
 12 13  2  0
 13 14  1  0
 14 15  2  0
 15 16  1  0
 16 17  1  0
 16 18  2  0
 11 19  2  0
 19 20  1  0
 20 21  2  0
 21 22  1  0
 22 23  2  0
 23 24  1  0
 24 25  1  0
 24 26  2  0
 19 27  1  0
 27  9  1  0
 18 12  1  0
 26 20  1  0
  1 28  1  0
  1 29  1  0
  1 30  1  0
  2 31  1  0
  2 32  1  0
  3 33  1  0
  3 34  1  0
  7 35  1  0
  7 36  1  0
  8 37  1  0
  8 38  1  0
 13 39  1  0
 14 40  1  0
 15 41  1  0
 21 42  1  0
 22 43  1  0
 23 44  1  0
 25 45  1  0
 25 46  1  0
 25 47  1  0
M  CHG  2   6  -1  27  -1
M  END
>  <UniqueID>  (15) 
13

>  <SMILES>  (15) 
CCCC(=O)[N-]CCc1nc(-c2cccc(Br)n2)c(-c2cccc(C)n2)[n-]1

>  <Energy>  (15) 
73.6997997826045

>  <Genealogy>  (15) 
CCCC(=O)[N-]CCc1nc(-c2cccc(Br)n2)c(-c2cccc(C)n2)[n-]1 (protonated)
CCCC(=O)[N-]CCc1nc(-c2cccc(Br)n2)c(-c2cccc(C)n2)[n-]1 (3D coordinates assigned)
CCCC(=O)[N-]CCc1nc(-c2cccc(Br)n2)c(-c2cccc(C)n2)[n-]1 (optimized conformer: 73.6997997826045 kcal/mol)

>  <smiles>  (15) 
CCCC(=O)NCCc1nc(-c2cccc(Br)n2)c(-c2cccc(C)n2)[nH]1

>  <score_type>  (15) 
oracle

>  <origin>  (15) 
adg

>  <m_score__min__energy>  (15) 
-11.710000000000001

>  <m_primary>  (15) 
energy

$$$$
15:0
     RDKit          3D

 43 45  0  0  0  0  0  0  0  0999 V2000
   55.2330   30.0920   45.6290 H   0  0  0  0  0  0  0  0  0  0  0  0
   55.3230   29.3070   44.9960 O   0  0  0  0  0  0  0  0  0  0  0  0
   56.1410   28.2080   45.2610 C   0  0  0  0  0  0  0  0  0  0  0  0
   55.5620   27.0610   45.7000 N   0  0  0  0  0  0  0  0  0  0  0  0
   56.3040   25.9700   46.0160 C   0  0  0  0  0  0  0  0  0  0  0  0
   55.7390   24.9200   46.4170 O   0  0  0  0  0  0  0  0  0  0  0  0
   57.6550   26.0120   45.9050 N   0  0  0  0  0  0  0  0  0  0  0  0
   58.2890   27.1300   45.4660 C   0  0  0  0  0  0  0  0  0  0  0  0
   59.5460   27.1310   45.3750 O   0  0  0  0  0  0  0  0  0  0  0  0
   57.5430   28.2650   45.1070 C   0  0  0  0  0  0  0  0  0  0  0  0
   58.2350   29.4780   44.6190 C   0  0  0  0  0  0  0  0  0  0  0  0
   58.6995   29.4525   43.6222 H   0  0  0  0  0  0  0  0  0  0  0  0
   58.3220   30.6120   45.3400 C   0  0  0  0  0  0  0  0  0  0  0  0
   57.9220   31.8770   44.9240 C   0  0  0  0  0  0  0  0  0  0  0  0
   57.4674   32.1381   43.9570 H   0  0  0  0  0  0  0  0  0  0  0  0
   58.2070   32.7410   45.9620 C   0  0  0  0  0  0  0  0  0  0  0  0
   57.9630   34.2180   45.9320 C   0  0  0  0  0  0  0  0  0  0  0  0
   57.8999   34.6002   46.9615 H   0  0  0  0  0  0  0  0  0  0  0  0
   58.7911   34.7158   45.4062 H   0  0  0  0  0  0  0  0  0  0  0  0
   57.0188   34.4231   45.4062 H   0  0  0  0  0  0  0  0  0  0  0  0
   58.7810   32.0720   46.9870 N   0  0  0  0  0  0  0  0  0  0  0  0
   59.2210   32.6520   48.2270 C   0  0  0  0  0  0  0  0  0  0  0  0
   58.5570   32.3260   49.4180 C   0  0  0  0  0  0  0  0  0  0  0  0
   57.7101   31.6244   49.3983 H   0  0  0  0  0  0  0  0  0  0  0  0
   58.9660   32.8880   50.6290 C   0  0  0  0  0  0  0  0  0  0  0  0
   58.4413   32.6295   51.5606 H   0  0  0  0  0  0  0  0  0  0  0  0
   60.0410   33.7780   50.6570 C   0  0  0  0  0  0  0  0  0  0  0  0
   60.3605   34.2225   51.6111 H   0  0  0  0  0  0  0  0  0  0  0  0
   60.7130   34.1060   49.4750 C   0  0  0  0  0  0  0  0  0  0  0  0
   61.5589   34.8086   49.5034 H   0  0  0  0  0  0  0  0  0  0  0  0
   60.3120   33.5410   48.2480 C   0  0  0  0  0  0  0  0  0  0  0  0
   60.9620   33.8290   47.0350 O   0  0  0  0  0  0  0  0  0  0  0  0
   62.3710   33.7820   46.8130 C   0  0  0  0  0  0  0  0  0  0  0  0
   62.5634   33.6803   45.7347 H   0  0  0  0  0  0  0  0  0  0  0  0
   62.8203   34.7105   47.1951 H   0  0  0  0  0  0  0  0  0  0  0  0
   62.9930   32.5990   47.5460 C   0  0  0  0  0  0  0  0  0  0  0  0
   62.9105   32.7558   48.6316 H   0  0  0  0  0  0  0  0  0  0  0  0
   62.4637   31.6758   47.2677 H   0  0  0  0  0  0  0  0  0  0  0  0
   64.0536   32.5117   47.2677 H   0  0  0  0  0  0  0  0  0  0  0  0
   58.8540   30.7680   46.6230 C   0  0  0  0  0  0  0  0  0  0  0  0
   59.3800   29.8030   47.3920 C   0  0  0  0  0  0  0  0  0  0  0  0
   59.7702   30.0473   48.3910 H   0  0  0  0  0  0  0  0  0  0  0  0
   59.4211   28.7673   47.0236 H   0  0  0  0  0  0  0  0  0  0  0  0
  1  2  1  0
  2  3  1  0
  3  4  1  0
  4  5  1  0
  5  6  2  0
  5  7  1  0
  7  8  1  0
  8  9  2  0
  8 10  1  0
 10 11  1  0
 11 12  1  0
 11 13  2  0
 13 14  1  0
 14 15  1  0
 14 16  2  0
 16 17  1  0
 17 18  1  0
 17 19  1  0
 17 20  1  0
 16 21  1  0
 21 22  1  0
 22 23  2  0
 23 24  1  0
 23 25  1  0
 25 26  1  0
 25 27  2  0
 27 28  1  0
 27 29  1  0
 29 30  1  0
 29 31  2  0
 31 32  1  0
 32 33  1  0
 33 34  1  0
 33 35  1  0
 33 36  1  0
 36 37  1  0
 36 38  1  0
 36 39  1  0
 21 40  1  0
 40 41  2  0
 41 42  1  0
 41 43  1  0
 10  3  2  0
 40 13  1  0
 31 22  1  0
M  CHG  2   4  -1   7  -1
M  END
>  <UniqueID>  (16) 
14

>  <SMILES>  (16) 
C=c1/c(=C/c2c(O)[n-]c(=O)[n-]c2=O)cc(C)n1-c1ccccc1OCC

>  <Energy>  (16) 
88.66086795376016

>  <Genealogy>  (16) 
C=c1c(=Cc2c(O)[n-]c(=O)[n-]c2=O)cc(C)n1-c1ccccc1OCC (protonated)
C=c1/c(=C/c2c(O)[n-]c(=O)[n-]c2=O)cc(C)n1-c1ccccc1OCC (cis-trans isomerization)
C=c1/c(=C/c2c(O)[n-]c(=O)[n-]c2=O)cc(C)n1-c1ccccc1OCC (3D coordinates assigned)
C=c1/c(=C/c2c(O)[n-]c(=O)[n-]c2=O)cc(C)n1-c1ccccc1OCC (optimized conformer: 88.66086795376016 kcal/mol)

>  <smiles>  (16) 
C=c1c(=Cc2c(O)[nH]c(=O)[nH]c2=O)cc(C)n1-c1ccccc1OCC

>  <score_type>  (16) 
oracle

>  <origin>  (16) 
adg

>  <m_score__min__energy>  (16) 
-12.94

>  <m_primary>  (16) 
energy

$$$$
16:0
     RDKit          3D

 70 75  0  0  0  0  0  0  0  0999 V2000
   57.6940   23.5120   46.7360 O   0  0  0  0  0  0  0  0  0  0  0  0
   57.9610   24.5660   46.0970 C   0  0  0  0  0  0  0  0  0  0  0  0
   57.1020   24.9740   44.9380 C   0  0  0  0  0  0  0  0  0  0  0  0
   55.6800   24.5380   45.1310 C   0  0  0  0  0  0  0  0  0  0  0  0
   55.0740   23.0080   44.7630 S   0  0  0  0  0  0  0  0  0  0  0  0
   53.5180   23.4200   45.2510 C   0  0  0  0  0  0  0  0  0  0  0  0
   52.5350   22.6350   45.2190 O   0  0  0  0  0  0  0  0  0  0  0  0
   53.4270   24.6960   45.6860 N   0  0  0  0  0  0  0  0  0  0  0  0
   54.6320   25.3200   45.6150 C   0  0  0  0  0  0  0  0  0  0  0  0
   54.7910   26.6460   45.9980 O   0  0  0  0  0  0  0  0  0  0  0  0
   58.9780   25.4670   46.5590 N   0  0  0  0  0  0  0  0  0  0  0  0
   58.8690   26.7350   46.8460 C   0  0  0  0  0  0  0  0  0  0  0  0
   59.5850   27.3490   47.8950 C   0  0  0  0  0  0  0  0  0  0  0  0
   59.4360   28.7190   48.1270 C   0  0  0  0  0  0  0  0  0  0  0  0
   60.1570   29.3090   49.1760 O   0  0  0  0  0  0  0  0  0  0  0  0
   59.5950   29.8560   50.3390 C   0  0  0  0  0  0  0  0  0  0  0  0
   60.0880   29.5510   51.6190 C   0  0  0  0  0  0  0  0  0  0  0  0
   59.4900   30.1010   52.7560 C   0  0  0  0  0  0  0  0  0  0  0  0
   58.3790   30.9550   52.6370 C   0  0  0  0  0  0  0  0  0  0  0  0
   57.7550   31.5510   53.8420 C   0  0  0  0  0  0  0  0  0  0  0  0
   56.6360   31.1250   54.2370 O   0  0  0  0  0  0  0  0  0  0  0  0
   58.4370   32.6000   54.5550 N   0  0  0  0  0  0  0  0  0  0  0  0
   58.9790   33.8880   54.0970 C   0  0  0  0  0  0  0  0  0  0  0  0
   58.5510   34.3430   52.7110 C   0  0  0  0  0  0  0  0  0  0  0  0
   59.9710   33.8330   52.9480 C   0  0  0  0  0  0  0  0  0  0  0  0
   57.8780   31.2400   51.3530 C   0  0  0  0  0  0  0  0  0  0  0  0
   58.4790   30.6880   50.2180 C   0  0  0  0  0  0  0  0  0  0  0  0
   58.5460   29.4590   47.3350 C   0  0  0  0  0  0  0  0  0  0  0  0
   57.8680   28.8320   46.2900 C   0  0  0  0  0  0  0  0  0  0  0  0
   56.9760   29.5750   45.5060 O   0  0  0  0  0  0  0  0  0  0  0  0
   57.3420   30.6280   44.6530 C   0  0  0  0  0  0  0  0  0  0  0  0
   57.0020   30.6290   43.2890 C   0  0  0  0  0  0  0  0  0  0  0  0
   57.4010   31.6840   42.4680 C   0  0  0  0  0  0  0  0  0  0  0  0
   58.1380   32.7460   42.9980 C   0  0  0  0  0  0  0  0  0  0  0  0
   58.4930   32.7610   44.3560 C   0  0  0  0  0  0  0  0  0  0  0  0
   59.2390   33.8800   44.8770 N   0  0  0  0  0  0  0  0  0  0  0  0
   58.9040   34.5550   46.1320 C   0  0  0  0  0  0  0  0  0  0  0  0
   59.7920   34.0710   47.2510 C   0  0  0  0  0  0  0  0  0  0  0  0
   59.2860   33.9760   48.5590 C   0  0  0  0  0  0  0  0  0  0  0  0
   60.1100   33.5560   49.6070 C   0  0  0  0  0  0  0  0  0  0  0  0
   61.4460   33.2360   49.3600 C   0  0  0  0  0  0  0  0  0  0  0  0
   61.9650   33.3410   48.0670 C   0  0  0  0  0  0  0  0  0  0  0  0
   61.1460   33.7600   47.0120 C   0  0  0  0  0  0  0  0  0  0  0  0
   61.6850   33.8750   45.7340 O   0  0  0  0  0  0  0  0  0  0  0  0
   58.1010   31.6830   45.1760 C   0  0  0  0  0  0  0  0  0  0  0  0
   58.0480   27.4990   46.0750 N   0  0  0  0  0  0  0  0  0  0  0  0
   57.1304   26.0692   44.8395 H   0  0  0  0  0  0  0  0  0  0  0  0
   57.4924   24.4904   44.0304 H   0  0  0  0  0  0  0  0  0  0  0  0
   60.2579   26.7518   48.5278 H   0  0  0  0  0  0  0  0  0  0  0  0
   60.9495   28.8755   51.7266 H   0  0  0  0  0  0  0  0  0  0  0  0
   59.8916   29.8640   53.7523 H   0  0  0  0  0  0  0  0  0  0  0  0
   58.9768   34.3408   55.0995 H   0  0  0  0  0  0  0  0  0  0  0  0
   57.8392   33.7394   52.1287 H   0  0  0  0  0  0  0  0  0  0  0  0
   58.1126   35.2614   52.2933 H   0  0  0  0  0  0  0  0  0  0  0  0
   60.2829   32.8618   52.5362 H   0  0  0  0  0  0  0  0  0  0  0  0
   60.9810   34.2316   52.7716 H   0  0  0  0  0  0  0  0  0  0  0  0
   57.0068   31.9022   51.2417 H   0  0  0  0  0  0  0  0  0  0  0  0
   58.0700   30.9105   49.2214 H   0  0  0  0  0  0  0  0  0  0  0  0
   58.3836   30.5280   47.5370 H   0  0  0  0  0  0  0  0  0  0  0  0
   56.4200   29.7959   42.8680 H   0  0  0  0  0  0  0  0  0  0  0  0
   57.1347   31.6797   41.4007 H   0  0  0  0  0  0  0  0  0  0  0  0
   58.4427   33.5775   42.3455 H   0  0  0  0  0  0  0  0  0  0  0  0
   60.0530   34.2290   44.3200 H   0  0  0  0  0  0  0  0  0  0  0  0
   59.0400   35.6393   46.0063 H   0  0  0  0  0  0  0  0  0  0  0  0
   57.8582   34.3286   46.3872 H   0  0  0  0  0  0  0  0  0  0  0  0
   58.2355   34.2337   48.7590 H   0  0  0  0  0  0  0  0  0  0  0  0
   59.7054   33.4776   50.6269 H   0  0  0  0  0  0  0  0  0  0  0  0
   62.0916   32.9005   50.1850 H   0  0  0  0  0  0  0  0  0  0  0  0
   63.0200   33.0937   47.8776 H   0  0  0  0  0  0  0  0  0  0  0  0
   58.3939   31.6703   46.2362 H   0  0  0  0  0  0  0  0  0  0  0  0
  1  2  2  0
  2  3  1  0
  3  4  1  0
  4  5  1  0
  5  6  1  0
  6  7  2  0
  6  8  1  0
  8  9  1  0
  9 10  1  0
  2 11  1  0
 11 12  2  3
 12 13  1  0
 13 14  2  0
 14 15  1  0
 15 16  1  0
 16 17  2  0
 17 18  1  0
 18 19  2  0
 19 20  1  0
 20 21  2  0
 20 22  1  0
 22 23  1  0
 23 24  1  0
 24 25  1  0
 19 26  1  0
 26 27  2  0
 14 28  1  0
 28 29  2  0
 29 30  1  0
 30 31  1  0
 31 32  2  0
 32 33  1  0
 33 34  2  0
 34 35  1  0
 35 36  1  0
 36 37  1  0
 37 38  1  0
 38 39  2  0
 39 40  1  0
 40 41  2  0
 41 42  1  0
 42 43  2  0
 43 44  1  0
 35 45  2  0
 29 46  1  0
  9  4  2  0
 46 12  1  0
 27 16  1  0
 45 31  1  0
 25 23  1  0
 43 38  1  0
  3 47  1  0
  3 48  1  0
 13 49  1  0
 17 50  1  0
 18 51  1  0
 23 52  1  0
 24 53  1  0
 24 54  1  0
 25 55  1  0
 25 56  1  0
 26 57  1  0
 27 58  1  0
 28 59  1  0
 32 60  1  0
 33 61  1  0
 34 62  1  0
 36 63  1  0
 37 64  1  0
 37 65  1  0
 39 66  1  0
 40 67  1  0
 41 68  1  0
 42 69  1  0
 45 70  1  0
M  CHG  5   8  -1  10  -1  22  -1  44  -1  46  -1
M  END
>  <UniqueID>  (17) 
15

>  <SMILES>  (17) 
O=C(Cc1sc(=O)[n-]c1[O-])N=c1cc(Oc2ccc(C(=O)[N-]C3CC3)cc2)cc(Oc2cccc(NCc3ccccc3[O-])c2)[n-]1

>  <Energy>  (17) 
398.10487969107305

>  <Genealogy>  (17) 
O=C(Cc1sc(=O)[n-]c1[O-])N=c1cc(Oc2ccc(C(=O)[N-]C3CC3)cc2)cc(Oc2cccc(NCc3ccccc3[O-])c2)[n-]1 (protonated)
O=C(Cc1sc(=O)[n-]c1[O-])N=c1cc(Oc2ccc(C(=O)[N-]C3CC3)cc2)cc(Oc2cccc(NCc3ccccc3[O-])c2)[n-]1 (3D coordinates assigned)
O=C(Cc1sc(=O)[n-]c1[O-])N=c1cc(Oc2ccc(C(=O)[N-]C3CC3)cc2)cc(Oc2cccc(NCc3ccccc3[O-])c2)[n-]1 (nonaromatic ring conformer: 398.10487969107305 kcal/mol)

>  <smiles>  (17) 
O=C(Cc1sc(=O)[nH]c1O)N=c1cc(Oc2ccc(C(=O)NC3CC3)cc2)cc(Oc2cccc(NCc3ccccc3O)c2)[nH]1

>  <score_type>  (17) 
oracle

>  <origin>  (17) 
adg

>  <m_score__min__energy>  (17) 
-22.449999999999999

>  <m_primary>  (17) 
energy

$$$$
17:0
     RDKit          3D

 37 39  0  0  0  0  0  0  0  0999 V2000
   62.3140   33.7620   46.7760 C   0  0  0  0  0  0  0  0  0  0  0  0
   60.9900   34.2070   47.3870 C   0  0  0  0  0  0  0  0  0  0  0  0
   59.8870   33.9270   46.4660 N   0  0  0  0  0  0  0  0  0  0  0  0
   59.3340   34.7590   45.5490 C   0  0  0  0  0  0  0  0  0  0  0  0
   59.6780   35.9620   45.3990 O   0  0  0  0  0  0  0  0  0  0  0  0
   58.4000   34.1760   44.8170 O   0  0  0  0  0  0  0  0  0  0  0  0
   58.3400   32.9360   45.2460 C   0  0  0  0  0  0  0  0  0  0  0  0
   57.5250   31.9030   44.7980 C   0  0  0  0  0  0  0  0  0  0  0  0
   57.6680   30.6400   45.4120 C   0  0  0  0  0  0  0  0  0  0  0  0
   56.6760   29.2900   44.8720 S   0  0  0  0  0  0  0  0  0  0  0  0
   55.2220   29.6740   44.8510 O   0  0  0  0  0  0  0  0  0  0  0  0
   57.0980   28.9060   43.4820 O   0  0  0  0  0  0  0  0  0  0  0  0
   56.8910   27.9250   45.9260 N   0  0  0  0  0  0  0  0  0  0  0  0
   56.6310   26.6800   45.6460 C   0  0  0  0  0  0  0  0  0  0  0  0
   57.5520   25.8410   44.9860 C   0  0  0  0  0  0  0  0  0  0  0  0
   57.2010   24.5180   44.7110 C   0  0  0  0  0  0  0  0  0  0  0  0
   55.9510   24.0250   45.1040 C   0  0  0  0  0  0  0  0  0  0  0  0
   55.5490   22.6180   44.7780 C   0  0  0  0  0  0  0  0  0  0  0  0
   55.0580   24.8920   45.7450 C   0  0  0  0  0  0  0  0  0  0  0  0
   55.4180   26.1780   46.0000 N   0  0  0  0  0  0  0  0  0  0  0  0
   58.6110   30.4600   46.4540 C   0  0  0  0  0  0  0  0  0  0  0  0
   59.4180   31.5300   46.8850 C   0  0  0  0  0  0  0  0  0  0  0  0
   59.2480   32.7610   46.2530 C   0  0  0  0  0  0  0  0  0  0  0  0
   63.0264   33.5226   47.5792 H   0  0  0  0  0  0  0  0  0  0  0  0
   62.1493   32.8698   46.1540 H   0  0  0  0  0  0  0  0  0  0  0  0
   62.7216   34.5725   46.1540 H   0  0  0  0  0  0  0  0  0  0  0  0
   60.8237   33.6632   48.3286 H   0  0  0  0  0  0  0  0  0  0  0  0
   61.0300   35.2893   47.5795 H   0  0  0  0  0  0  0  0  0  0  0  0
   56.7935   32.0642   43.9924 H   0  0  0  0  0  0  0  0  0  0  0  0
   58.5392   26.2257   44.6901 H   0  0  0  0  0  0  0  0  0  0  0  0
   57.9086   23.8611   44.1840 H   0  0  0  0  0  0  0  0  0  0  0  0
   55.3887   22.0570   45.7105 H   0  0  0  0  0  0  0  0  0  0  0  0
   54.6181   22.6290   44.1921 H   0  0  0  0  0  0  0  0  0  0  0  0
   56.3452   22.1356   44.1921 H   0  0  0  0  0  0  0  0  0  0  0  0
   54.0623   24.5317   46.0431 H   0  0  0  0  0  0  0  0  0  0  0  0
   58.7136   29.4742   46.9311 H   0  0  0  0  0  0  0  0  0  0  0  0
   60.1555   31.3996   47.6907 H   0  0  0  0  0  0  0  0  0  0  0  0
  1  2  1  0
  2  3  1  0
  3  4  1  0
  4  5  2  0
  4  6  1  0
  6  7  1  0
  7  8  2  0
  8  9  1  0
  9 10  1  0
 10 11  2  0
 10 12  2  0
 10 13  1  0
 13 14  2  3
 14 15  1  0
 15 16  2  0
 16 17  1  0
 17 18  1  0
 17 19  2  0
 19 20  1  0
  9 21  2  0
 21 22  1  0
 22 23  2  0
 23  3  1  0
 23  7  1  0
 20 14  1  0
  1 24  1  0
  1 25  1  0
  1 26  1  0
  2 27  1  0
  2 28  1  0
  8 29  1  0
 15 30  1  0
 16 31  1  0
 18 32  1  0
 18 33  1  0
 18 34  1  0
 19 35  1  0
 21 36  1  0
 22 37  1  0
M  CHG  1  20  -1
M  END
>  <UniqueID>  (18) 
16

>  <SMILES>  (18) 
CCn1c(=O)oc2cc(S(=O)(=O)N=c3ccc(C)c[n-]3)ccc21

>  <Energy>  (18) 
82.33424807308856

>  <Genealogy>  (18) 
CCn1c(=O)oc2cc(S(=O)(=O)N=c3ccc(C)c[n-]3)ccc21 (protonated)
CCn1c(=O)oc2cc(S(=O)(=O)N=c3ccc(C)c[n-]3)ccc21 (3D coordinates assigned)
CCn1c(=O)oc2cc(S(=O)(=O)N=c3ccc(C)c[n-]3)ccc21 (optimized conformer: 82.33424807308856 kcal/mol)

>  <smiles>  (18) 
CCn1c(=O)oc2cc(S(=O)(=O)N=c3ccc(C)c[nH]3)ccc21

>  <score_type>  (18) 
oracle

>  <origin>  (18) 
adg

>  <m_score__min__energy>  (18) 
-9.8800000000000008

>  <m_primary>  (18) 
energy

$$$$
18:0
     RDKit          3D

 61 64  0  0  0  0  0  0  0  0999 V2000
   59.7180   22.1180   44.8660 C   0  0  0  0  0  0  0  0  0  0  0  0
   58.4030   22.8280   44.6640 C   0  0  0  0  0  0  0  0  0  0  0  0
   57.4650   22.3480   43.8100 C   0  0  0  0  0  0  0  0  0  0  0  0
   57.7100   21.0890   43.0110 C   0  0  0  0  0  0  0  0  0  0  0  0
   56.2060   23.1010   43.6150 C   0  0  0  0  0  0  0  0  0  0  0  0
   55.3170   22.6780   42.8290 O   0  0  0  0  0  0  0  0  0  0  0  0
   55.9800   24.3630   44.3240 C   0  0  0  0  0  0  0  0  0  0  0  0
   56.8880   24.8420   45.1870 C   0  0  0  0  0  0  0  0  0  0  0  0
   56.6530   26.1320   45.8810 C   0  0  0  0  0  0  0  0  0  0  0  0
   55.4780   26.5180   46.1300 O   0  0  0  0  0  0  0  0  0  0  0  0
   57.7700   26.9160   46.3170 N   0  0  0  0  0  0  0  0  0  0  0  0
   57.8590   28.3470   46.2830 C   0  0  0  0  0  0  0  0  0  0  0  0
   57.4950   29.0850   45.1470 C   0  0  0  0  0  0  0  0  0  0  0  0
   57.6420   30.4730   45.1350 C   0  0  0  0  0  0  0  0  0  0  0  0
   58.1590   31.1460   46.2490 C   0  0  0  0  0  0  0  0  0  0  0  0
   58.3420   32.5670   46.1690 N   0  0  0  0  0  0  0  0  0  0  0  0
   57.1730   33.4520   46.1170 C   0  0  0  0  0  0  0  0  0  0  0  0
   57.3370   34.5420   45.0290 C   0  0  0  0  0  0  0  0  0  0  0  0
   58.6390   34.6180   44.4670 O   0  0  0  0  0  0  0  0  0  0  0  0
   59.6180   34.5460   45.4830 C   0  0  0  0  0  0  0  0  0  0  0  0
   59.6910   33.1130   46.0070 C   0  0  0  0  0  0  0  0  0  0  0  0
   58.5200   30.4120   47.4010 C   0  0  0  0  0  0  0  0  0  0  0  0
   59.1380   31.1790   48.8710 S   0  0  0  0  0  0  0  0  0  0  0  0
   58.8660   30.3320   50.0830 O   0  0  0  0  0  0  0  0  0  0  0  0
   58.4630   32.5100   49.0360 O   0  0  0  0  0  0  0  0  0  0  0  0
   60.8610   31.4060   48.7050 N   0  0  0  0  0  0  0  0  0  0  0  0
   61.1950   32.8350   48.8030 C   0  0  0  0  0  0  0  0  0  0  0  0
   62.7250   33.0170   48.7000 C   0  0  0  0  0  0  0  0  0  0  0  0
   63.3870   31.8320   48.2910 O   0  0  0  0  0  0  0  0  0  0  0  0
   62.7740   31.3150   47.1260 C   0  0  0  0  0  0  0  0  0  0  0  0
   61.3270   30.8650   47.4160 C   0  0  0  0  0  0  0  0  0  0  0  0
   58.3860   29.0150   47.3930 C   0  0  0  0  0  0  0  0  0  0  0  0
   58.1690   24.0860   45.4810 C   0  0  0  0  0  0  0  0  0  0  0  0
   59.9155   22.0114   45.9429 H   0  0  0  0  0  0  0  0  0  0  0  0
   59.6721   21.1221   44.4012 H   0  0  0  0  0  0  0  0  0  0  0  0
   60.5256   22.7027   44.4012 H   0  0  0  0  0  0  0  0  0  0  0  0
   57.8742   20.2453   43.6974 H   0  0  0  0  0  0  0  0  0  0  0  0
   56.8355   20.8811   42.3770 H   0  0  0  0  0  0  0  0  0  0  0  0
   58.5987   21.2242   42.3770 H   0  0  0  0  0  0  0  0  0  0  0  0
   55.0519   24.9260   44.1459 H   0  0  0  0  0  0  0  0  0  0  0  0
   57.0926   28.5684   44.2631 H   0  0  0  0  0  0  0  0  0  0  0  0
   57.3488   31.0439   44.2416 H   0  0  0  0  0  0  0  0  0  0  0  0
   56.2795   32.8517   45.8903 H   0  0  0  0  0  0  0  0  0  0  0  0
   57.0719   33.9495   47.0928 H   0  0  0  0  0  0  0  0  0  0  0  0
   56.6242   34.3293   44.2186 H   0  0  0  0  0  0  0  0  0  0  0  0
   57.1504   35.5078   45.5213 H   0  0  0  0  0  0  0  0  0  0  0  0
   60.5961   34.8386   45.0733 H   0  0  0  0  0  0  0  0  0  0  0  0
   59.3504   35.2274   46.3041 H   0  0  0  0  0  0  0  0  0  0  0  0
   60.2513   32.4924   45.2922 H   0  0  0  0  0  0  0  0  0  0  0  0
   60.1993   33.1119   46.9825 H   0  0  0  0  0  0  0  0  0  0  0  0
   60.7052   33.3825   47.9843 H   0  0  0  0  0  0  0  0  0  0  0  0
   60.8445   33.2269   49.7692 H   0  0  0  0  0  0  0  0  0  0  0  0
   62.9373   33.8101   47.9680 H   0  0  0  0  0  0  0  0  0  0  0  0
   63.0982   33.2795   49.7009 H   0  0  0  0  0  0  0  0  0  0  0  0
   62.7596   32.0952   46.3507 H   0  0  0  0  0  0  0  0  0  0  0  0
   63.3505   30.4427   46.7842 H   0  0  0  0  0  0  0  0  0  0  0  0
   60.6684   31.2277   46.6131 H   0  0  0  0  0  0  0  0  0  0  0  0
   61.3015   29.7663   47.4640 H   0  0  0  0  0  0  0  0  0  0  0  0
   58.7005   28.4361   48.2739 H   0  0  0  0  0  0  0  0  0  0  0  0
   59.0120   24.7683   45.2969 H   0  0  0  0  0  0  0  0  0  0  0  0
   58.0812   23.7493   46.5245 H   0  0  0  0  0  0  0  0  0  0  0  0
  1  2  1  0
  2  3  2  0
  3  4  1  0
  3  5  1  0
  5  6  2  0
  5  7  1  0
  7  8  2  0
  8  9  1  0
  9 10  2  0
  9 11  1  0
 11 12  1  0
 12 13  2  0
 13 14  1  0
 14 15  2  0
 15 16  1  0
 16 17  1  0
 17 18  1  0
 18 19  1  0
 19 20  1  0
 20 21  1  0
 15 22  1  0
 22 23  1  0
 23 24  2  0
 23 25  2  0
 23 26  1  0
 26 27  1  0
 27 28  1  0
 28 29  1  0
 29 30  1  0
 30 31  1  0
 22 32  2  0
  8 33  1  0
 33  2  1  0
 32 12  1  0
 21 16  1  0
 31 26  1  0
  1 34  1  0
  1 35  1  0
  1 36  1  0
  4 37  1  0
  4 38  1  0
  4 39  1  0
  7 40  1  0
 13 41  1  0
 14 42  1  0
 17 43  1  0
 17 44  1  0
 18 45  1  0
 18 46  1  0
 20 47  1  0
 20 48  1  0
 21 49  1  0
 21 50  1  0
 27 51  1  0
 27 52  1  0
 28 53  1  0
 28 54  1  0
 30 55  1  0
 30 56  1  0
 31 57  1  0
 31 58  1  0
 32 59  1  0
 33 60  1  0
 33 61  1  0
M  CHG  1  11  -1
M  END
>  <UniqueID>  (19) 
17

>  <SMILES>  (19) 
CC1=C(C)C(=O)C=C(C(=O)[N-]c2ccc(N3CCOCC3)c(S(=O)(=O)N3CCOCC3)c2)C1

>  <Energy>  (19) 
87.78894012613817

>  <Genealogy>  (19) 
CC1=C(C)C(=O)C=C(C(=O)[N-]c2ccc(N3CCOCC3)c(S(=O)(=O)N3CCOCC3)c2)C1 (protonated)
CC1=C(C)C(=O)C=C(C(=O)[N-]c2ccc(N3CCOCC3)c(S(=O)(=O)N3CCOCC3)c2)C1 (3D coordinates assigned)
CC1=C(C)C(=O)C=C(C(=O)[N-]c2ccc(N3CCOCC3)c(S(=O)(=O)N3CCOCC3)c2)C1 (nonaromatic ring conformer: 87.78894012613817 kcal/mol)

>  <smiles>  (19) 
CC1=C(C)C(=O)C=C(C(=O)Nc2ccc(N3CCOCC3)c(S(=O)(=O)N3CCOCC3)c2)C1

>  <score_type>  (19) 
oracle

>  <origin>  (19) 
adg

>  <m_score__min__energy>  (19) 
-11.359999999999999

>  <m_primary>  (19) 
energy

$$$$
19:0
     RDKit          3D

 35 37  0  0  0  0  0  0  0  0999 V2000
   60.9472   29.9620   46.0704 H   0  0  0  0  0  0  0  0  0  0  0  0
   60.2750   29.1020   45.9340 C   0  0  0  0  0  0  0  0  0  0  0  0
   60.7210   27.4790   46.0020 S   0  0  0  0  0  0  0  0  0  0  0  0
   59.1690   26.9360   45.6830 C   0  0  0  0  0  0  0  0  0  0  0  0
   58.8430   25.6780   45.6370 N   0  0  0  0  0  0  0  0  0  0  0  0
   57.5180   25.1410   45.4880 C   0  0  0  0  0  0  0  0  0  0  0  0
   57.2880   23.8030   45.1230 C   0  0  0  0  0  0  0  0  0  0  0  0
   58.1395   23.1373   44.9184 H   0  0  0  0  0  0  0  0  0  0  0  0
   55.9840   23.3150   45.0190 C   0  0  0  0  0  0  0  0  0  0  0  0
   55.8171   22.2694   44.7209 H   0  0  0  0  0  0  0  0  0  0  0  0
   54.8810   24.1450   45.2910 C   0  0  0  0  0  0  0  0  0  0  0  0
   53.5020   23.6080   45.1860 C   0  0  0  0  0  0  0  0  0  0  0  0
   53.2940   22.3790   45.3870 O   0  0  0  0  0  0  0  0  0  0  0  0
   52.3990   24.4680   44.8640 N   0  0  0  0  0  0  0  0  0  0  0  0
   52.5360   25.5030   44.8260 H   0  0  0  0  0  0  0  0  0  0  0  0
   51.0590   23.9410   44.6390 C   0  0  0  0  0  0  0  0  0  0  0  0
   50.5729   23.7498   45.6070 H   0  0  0  0  0  0  0  0  0  0  0  0
   50.4676   24.6735   44.0701 H   0  0  0  0  0  0  0  0  0  0  0  0
   51.1251   23.0019   44.0701 H   0  0  0  0  0  0  0  0  0  0  0  0
   55.1170   25.4770   45.6910 C   0  0  0  0  0  0  0  0  0  0  0  0
   54.0600   26.3360   45.9740 O   0  0  0  0  0  0  0  0  0  0  0  0
   56.4260   25.9600   45.7970 C   0  0  0  0  0  0  0  0  0  0  0  0
   56.5987   26.9951   46.1269 H   0  0  0  0  0  0  0  0  0  0  0  0
   58.2970   27.9560   45.5330 N   0  0  0  0  0  0  0  0  0  0  0  0
   58.9020   29.1670   45.6740 C   0  0  0  0  0  0  0  0  0  0  0  0
   58.1280   30.4140   45.5110 C   0  0  0  0  0  0  0  0  0  0  0  0
   58.4550   31.5490   46.1560 N   0  0  0  0  0  0  0  0  0  0  0  0
   57.5330   32.4350   45.7360 C   0  0  0  0  0  0  0  0  0  0  0  0
   57.5070   33.6300   46.1320 O   0  0  0  0  0  0  0  0  0  0  0  0
   56.6410   31.9420   44.8560 N   0  0  0  0  0  0  0  0  0  0  0  0
   57.0240   30.6600   44.7050 C   0  0  0  0  0  0  0  0  0  0  0  0
   56.3320   29.7170   43.7750 C   0  0  0  0  0  0  0  0  0  0  0  0
   55.7804   28.9653   44.3586 H   0  0  0  0  0  0  0  0  0  0  0  0
   55.6290   30.2772   43.1409 H   0  0  0  0  0  0  0  0  0  0  0  0
   57.0772   29.2144   43.1409 H   0  0  0  0  0  0  0  0  0  0  0  0
  1  2  1  0
  2  3  1  0
  3  4  1  0
  4  5  2  0
  5  6  1  0
  6  7  2  0
  7  8  1  0
  7  9  1  0
  9 10  1  0
  9 11  2  0
 11 12  1  0
 12 13  2  0
 12 14  1  0
 14 15  1  0
 14 16  1  0
 16 17  1  0
 16 18  1  0
 16 19  1  0
 11 20  1  0
 20 21  1  0
 20 22  2  0
 22 23  1  0
  4 24  1  0
 24 25  1  0
 25 26  1  0
 26 27  1  0
 27 28  1  0
 28 29  2  0
 28 30  1  0
 30 31  1  0
 31 32  1  0
 32 33  1  0
 32 34  1  0
 32 35  1  0
 25  2  2  0
 31 26  2  0
 22  6  1  0
M  CHG  4  21  -1  24  -1  27  -1  30  -1
M  END
>  <UniqueID>  (20) 
18

>  <SMILES>  (20) 
CNC(=O)c1ccc(/N=c2\[n-]c(-c3[n-]c(=O)[n-]c3C)cs2)cc1[O-]

>  <Energy>  (20) 
103.63684017860612

>  <Genealogy>  (20) 
CNC(=O)c1ccc(N=c2[n-]c(-c3[n-]c(=O)[n-]c3C)cs2)cc1[O-] (protonated)
CNC(=O)c1ccc(/N=c2\[n-]c(-c3[n-]c(=O)[n-]c3C)cs2)cc1[O-] (cis-trans isomerization)
CNC(=O)c1ccc(/N=c2\[n-]c(-c3[n-]c(=O)[n-]c3C)cs2)cc1[O-] (3D coordinates assigned)
CNC(=O)c1ccc(/N=c2\[n-]c(-c3[n-]c(=O)[n-]c3C)cs2)cc1[O-] (optimized conformer: 103.63684017860612 kcal/mol)

>  <smiles>  (20) 
CNC(=O)c1ccc(N=c2[nH]c(-c3[nH]c(=O)[nH]c3C)cs2)cc1O

>  <score_type>  (20) 
oracle

>  <origin>  (20) 
adg

>  <m_score__min__energy>  (20) 
-15.43

>  <m_primary>  (20) 
energy

$$$$
20:0
     RDKit          3D

 33 35  0  0  0  0  0  0  0  0999 V2000
   54.3890   29.3690   43.4590 O   0  0  0  0  0  0  0  0  0  0  0  0
   55.4730   29.4050   44.0990 C   0  0  0  0  0  0  0  0  0  0  0  0
   55.6180   28.6280   45.2410 O   0  0  0  0  0  0  0  0  0  0  0  0
   56.5790   30.2630   43.6470 C   0  0  0  0  0  0  0  0  0  0  0  0
   56.7430   30.4690   42.4160 O   0  0  0  0  0  0  0  0  0  0  0  0
   57.5560   30.8040   44.6020 C   0  0  0  0  0  0  0  0  0  0  0  0
   57.4250   32.1480   45.0130 C   0  0  0  0  0  0  0  0  0  0  0  0
   58.3590   32.7320   45.8910 C   0  0  0  0  0  0  0  0  0  0  0  0
   59.4430   31.9860   46.3780 C   0  0  0  0  0  0  0  0  0  0  0  0
   59.5500   30.6590   45.9710 C   0  0  0  0  0  0  0  0  0  0  0  0
   60.4800   29.7680   46.3500 N   0  0  0  0  0  0  0  0  0  0  0  0
   60.1120   28.6300   45.7230 C   0  0  0  0  0  0  0  0  0  0  0  0
   60.7380   27.5450   45.8560 O   0  0  0  0  0  0  0  0  0  0  0  0
   58.9960   28.7660   44.9580 N   0  0  0  0  0  0  0  0  0  0  0  0
   58.3140   27.6830   44.2380 C   0  0  0  0  0  0  0  0  0  0  0  0
   58.0350   26.5020   45.1330 C   0  0  0  0  0  0  0  0  0  0  0  0
   57.8940   26.6630   46.5240 C   0  0  0  0  0  0  0  0  0  0  0  0
   57.6710   25.5540   47.3450 C   0  0  0  0  0  0  0  0  0  0  0  0
   57.6080   24.2730   46.7900 C   0  0  0  0  0  0  0  0  0  0  0  0
   57.3840   23.1710   47.6070 O   0  0  0  0  0  0  0  0  0  0  0  0
   57.7750   24.1000   45.4130 C   0  0  0  0  0  0  0  0  0  0  0  0
   57.9980   25.2060   44.5890 C   0  0  0  0  0  0  0  0  0  0  0  0
   58.6460   30.0690   45.1180 C   0  0  0  0  0  0  0  0  0  0  0  0
   56.5811   32.7482   44.6422 H   0  0  0  0  0  0  0  0  0  0  0  0
   58.2375   33.7815   46.1973 H   0  0  0  0  0  0  0  0  0  0  0  0
   60.1826   32.4342   47.0578 H   0  0  0  0  0  0  0  0  0  0  0  0
   61.2850   29.9130   46.9980 H   0  0  0  0  0  0  0  0  0  0  0  0
   57.3603   28.0635   43.8435 H   0  0  0  0  0  0  0  0  0  0  0  0
   58.9732   27.3462   43.4244 H   0  0  0  0  0  0  0  0  0  0  0  0
   57.9597   27.6674   46.9677 H   0  0  0  0  0  0  0  0  0  0  0  0
   57.5449   25.6897   48.4293 H   0  0  0  0  0  0  0  0  0  0  0  0
   57.7308   23.0910   44.9772 H   0  0  0  0  0  0  0  0  0  0  0  0
   58.1455   25.0621   43.5085 H   0  0  0  0  0  0  0  0  0  0  0  0
  1  2  2  0
  2  3  1  0
  2  4  1  0
  4  5  2  0
  4  6  1  0
  6  7  2  0
  7  8  1  0
  8  9  2  0
  9 10  1  0
 10 11  1  0
 11 12  1  0
 12 13  2  0
 12 14  1  0
 14 15  1  0
 15 16  1  0
 16 17  2  0
 17 18  1  0
 18 19  2  0
 19 20  1  0
 19 21  1  0
 21 22  2  0
 14 23  1  0
 23  6  1  0
 23 10  2  0
 22 16  1  0
  7 24  1  0
  8 25  1  0
  9 26  1  0
 11 27  1  0
 15 28  1  0
 15 29  1  0
 17 30  1  0
 18 31  1  0
 21 32  1  0
 22 33  1  0
M  CHG  2   3  -1  20  -1
M  END
>  <UniqueID>  (21) 
19

>  <SMILES>  (21) 
O=C([O-])C(=O)c1cccc2[nH]c(=O)n(Cc3ccc([O-])cc3)c12

>  <Energy>  (21) 
83.67488869489172

>  <Genealogy>  (21) 
O=C([O-])C(=O)c1cccc2[nH]c(=O)n(Cc3ccc([O-])cc3)c12 (protonated)
O=C([O-])C(=O)c1cccc2[nH]c(=O)n(Cc3ccc([O-])cc3)c12 (3D coordinates assigned)
O=C([O-])C(=O)c1cccc2[nH]c(=O)n(Cc3ccc([O-])cc3)c12 (optimized conformer: 83.67488869489172 kcal/mol)

>  <smiles>  (21) 
O=C(O)C(=O)c1cccc2[nH]c(=O)n(Cc3ccc(O)cc3)c12

>  <score_type>  (21) 
oracle

>  <origin>  (21) 
adg

>  <m_score__min__energy>  (21) 
-10.880000000000001

>  <m_primary>  (21) 
energy

$$$$
21:0
     RDKit          3D

 61 65  0  0  0  0  0  0  0  0999 V2000
   62.6490   23.6480   53.1670 N   0  0  0  0  0  0  0  0  0  0  0  0
   63.4640   24.2270   54.1810 C   0  0  0  0  0  0  0  0  0  0  0  0
   63.9090   23.5020   55.1120 O   0  0  0  0  0  0  0  0  0  0  0  0
   63.7690   25.6980   54.1420 C   0  0  2  0  0  0  0  0  0  0  0  0
   62.5140   26.5390   53.8860 C   0  0  0  0  0  0  0  0  0  0  0  0
   62.5780   26.9320   52.4050 C   0  0  2  0  0  0  0  0  0  0  0  0
   61.9210   28.2960   52.0920 C   0  0  0  0  0  0  0  0  0  0  0  0
   61.0030   27.9310   50.9750 C   0  0  0  0  0  0  0  0  0  0  0  0
   60.2170   28.9030   50.2060 C   0  0  0  0  0  0  0  0  0  0  0  0
   59.5730   29.9610   50.8620 C   0  0  0  0  0  0  0  0  0  0  0  0
   58.7880   30.8580   50.1370 C   0  0  0  0  0  0  0  0  0  0  0  0
   58.6590   30.7190   48.7530 C   0  0  0  0  0  0  0  0  0  0  0  0
   59.3030   29.6750   48.0810 C   0  0  0  0  0  0  0  0  0  0  0  0
   59.2060   29.6210   46.6480 N   0  0  0  0  0  0  0  0  0  0  0  0
   59.1890   28.4490   45.8220 C   0  0  0  0  0  0  0  0  0  0  0  0
   59.9690   27.4990   46.1100 O   0  0  0  0  0  0  0  0  0  0  0  0
   58.3390   28.3680   44.6170 C   0  0  0  0  0  0  0  0  0  0  0  0
   57.5030   27.3400   44.4110 C   0  0  0  0  0  0  0  0  0  0  0  0
   57.3690   26.1660   45.3120 C   0  0  0  0  0  0  0  0  0  0  0  0
   58.4860   25.3210   45.4510 C   0  0  0  0  0  0  0  0  0  0  0  0
   58.4410   24.2070   46.2950 C   0  0  0  0  0  0  0  0  0  0  0  0
   57.2830   23.9260   47.0200 C   0  0  0  0  0  0  0  0  0  0  0  0
   57.2380   22.8150   47.8540 O   0  0  0  0  0  0  0  0  0  0  0  0
   56.1710   24.7640   46.9080 C   0  0  0  0  0  0  0  0  0  0  0  0
   56.2070   25.8850   46.0690 C   0  0  0  0  0  0  0  0  0  0  0  0
   55.0940   26.7150   46.0270 O   0  0  0  0  0  0  0  0  0  0  0  0
   60.0870   28.7640   48.8160 C   0  0  0  0  0  0  0  0  0  0  0  0
   60.9790   26.6660   50.7390 N   0  0  0  0  0  0  0  0  0  0  0  0
   61.8300   26.0280   51.6030 O   0  0  0  0  0  0  0  0  0  0  0  0
   64.0590   26.8420   52.0230 C   0  0  0  0  0  0  0  0  0  0  0  0
   64.6730   26.0080   53.0400 N   0  0  0  0  0  0  0  0  0  0  0  0
   66.0980   25.9110   53.1670 C   0  0  0  0  0  0  0  0  0  0  0  0
   66.5880   25.3810   54.2000 O   0  0  0  0  0  0  0  0  0  0  0  0
   66.9930   26.4650   52.1320 C   0  0  0  0  0  0  0  0  0  0  0  0
   68.0820   27.2820   52.4900 C   0  0  0  0  0  0  0  0  0  0  0  0
   68.9190   27.8190   51.5070 C   0  0  0  0  0  0  0  0  0  0  0  0
   68.6850   27.5400   50.1590 C   0  0  0  0  0  0  0  0  0  0  0  0
   67.6180   26.7160   49.7910 C   0  0  0  0  0  0  0  0  0  0  0  0
   66.7740   26.1810   50.7710 C   0  0  0  0  0  0  0  0  0  0  0  0
   61.9060   24.2080   52.6940 H   0  0  0  0  0  0  0  0  0  0  0  0
   64.2086   25.9357   55.1219 H   0  0  0  0  0  0  0  0  0  0  0  0
   61.6081   25.9487   54.0881 H   0  0  0  0  0  0  0  0  0  0  0  0
   62.4744   27.4220   54.5408 H   0  0  0  0  0  0  0  0  0  0  0  0
   61.3657   28.6835   52.9589 H   0  0  0  0  0  0  0  0  0  0  0  0
   62.6368   29.0934   51.8435 H   0  0  0  0  0  0  0  0  0  0  0  0
   59.6866   30.0842   51.9492 H   0  0  0  0  0  0  0  0  0  0  0  0
   58.2692   31.6770   50.6567 H   0  0  0  0  0  0  0  0  0  0  0  0
   58.0462   31.4362   48.1873 H   0  0  0  0  0  0  0  0  0  0  0  0
   58.3931   29.1723   43.8686 H   0  0  0  0  0  0  0  0  0  0  0  0
   56.8714   27.3678   43.5108 H   0  0  0  0  0  0  0  0  0  0  0  0
   59.4058   25.5396   44.8887 H   0  0  0  0  0  0  0  0  0  0  0  0
   59.3197   23.5517   46.3873 H   0  0  0  0  0  0  0  0  0  0  0  0
   55.2600   24.5418   47.4831 H   0  0  0  0  0  0  0  0  0  0  0  0
   60.5995   27.9401   48.2978 H   0  0  0  0  0  0  0  0  0  0  0  0
   64.1724   26.3830   51.0298 H   0  0  0  0  0  0  0  0  0  0  0  0
   64.5281   27.8357   51.9729 H   0  0  0  0  0  0  0  0  0  0  0  0
   68.2759   27.4995   53.5507 H   0  0  0  0  0  0  0  0  0  0  0  0
   69.7632   28.4623   51.7961 H   0  0  0  0  0  0  0  0  0  0  0  0
   69.3405   27.9688   49.3867 H   0  0  0  0  0  0  0  0  0  0  0  0
   67.4412   26.4875   48.7296 H   0  0  0  0  0  0  0  0  0  0  0  0
   65.9344   25.5346   50.4757 H   0  0  0  0  0  0  0  0  0  0  0  0
  1  2  1  0
  2  3  2  0
  2  4  1  0
  4  5  1  0
  5  6  1  0
  6  7  1  0
  7  8  1  0
  8  9  1  0
  9 10  2  0
 10 11  1  0
 11 12  2  0
 12 13  1  0
 13 14  1  0
 14 15  1  0
 15 16  2  0
 15 17  1  0
 17 18  2  3
 18 19  1  0
 19 20  2  0
 20 21  1  0
 21 22  2  0
 22 23  1  0
 22 24  1  0
 24 25  2  0
 25 26  1  0
 13 27  2  0
  8 28  2  0
 28 29  1  0
  6 30  1  0
 30 31  1  0
 31 32  1  0
 32 33  2  0
 32 34  1  0
 34 35  2  0
 35 36  1  0
 36 37  2  0
 37 38  1  0
 38 39  2  0
 31  4  1  0
 39 34  1  0
  6 29  1  6
 27  9  1  0
 25 19  1  0
  1 40  1  0
  4 41  1  1
  5 42  1  0
  5 43  1  0
  7 44  1  0
  7 45  1  0
 10 46  1  0
 11 47  1  0
 12 48  1  0
 17 49  1  0
 18 50  1  0
 20 51  1  0
 21 52  1  0
 24 53  1  0
 27 54  1  0
 30 55  1  0
 30 56  1  0
 35 57  1  0
 36 58  1  0
 37 59  1  0
 38 60  1  0
 39 61  1  0
M  CHG  4   1  -1  14  -1  23  -1  26  -1
M  END
>  <UniqueID>  (22) 
20

>  <SMILES>  (22) 
[NH-]C(=O)[C@@H]1C[C@@]2(CC(c3cccc([N-]C(=O)C=Cc4ccc([O-])cc4[O-])c3)=NO2)CN1C(=O)c1ccccc1

>  <Energy>  (22) 
104.23448910987075

>  <Genealogy>  (22) 
[NH-]C(=O)C1CC2(CC(c3cccc([N-]C(=O)C=Cc4ccc([O-])cc4[O-])c3)=NO2)CN1C(=O)c1ccccc1 (protonated)
[NH-]C(=O)[C@@H]1C[C@@]2(CC(c3cccc([N-]C(=O)C=Cc4ccc([O-])cc4[O-])c3)=NO2)CN1C(=O)c1ccccc1 (chirality)
[NH-]C(=O)[C@@H]1C[C@@]2(CC(c3cccc([N-]C(=O)C=Cc4ccc([O-])cc4[O-])c3)=NO2)CN1C(=O)c1ccccc1 (3D coordinates assigned)
[NH-]C(=O)[C@@H]1C[C@@]2(CC(c3cccc([N-]C(=O)C=Cc4ccc([O-])cc4[O-])c3)=NO2)CN1C(=O)c1ccccc1 (nonaromatic ring conformer: 104.23448910987075 kcal/mol)

>  <smiles>  (22) 
NC(=O)C1CC2(CC(c3cccc(NC(=O)C=Cc4ccc(O)cc4O)c3)=NO2)CN1C(=O)c1ccccc1

>  <score_type>  (22) 
oracle

>  <origin>  (22) 
adg

>  <m_score__min__energy>  (22) 
-16.82

>  <m_primary>  (22) 
energy

$$$$
22:0
     RDKit          3D

 44 46  0  0  0  0  0  0  0  0999 V2000
   55.3730   29.9460   42.5580 H   0  0  0  0  0  0  0  0  0  0  0  0
   56.2130   30.4630   42.7930 O   0  0  0  0  0  0  0  0  0  0  0  0
   57.0210   30.0900   43.8650 C   0  0  0  0  0  0  0  0  0  0  0  0
   58.3700   30.4660   43.9020 C   0  0  0  0  0  0  0  0  0  0  0  0
   58.7983   31.0541   43.0770 H   0  0  0  0  0  0  0  0  0  0  0  0
   59.1730   30.0960   44.9840 C   0  0  0  0  0  0  0  0  0  0  0  0
   60.2300   30.3995   45.0103 H   0  0  0  0  0  0  0  0  0  0  0  0
   58.6380   29.3400   46.0360 C   0  0  0  0  0  0  0  0  0  0  0  0
   59.4790   28.9810   47.1960 C   0  0  0  0  0  0  0  0  0  0  0  0
   59.6280   29.7210   48.3640 C   0  0  0  0  0  0  0  0  0  0  0  0
   59.0540   31.0310   48.7340 C   0  0  0  0  0  0  0  0  0  0  0  0
   58.1829   31.0313   49.4057 H   0  0  0  0  0  0  0  0  0  0  0  0
   59.5120   32.2200   48.3150 C   0  0  0  0  0  0  0  0  0  0  0  0
   60.3312   32.6766   48.8898 H   0  0  0  0  0  0  0  0  0  0  0  0
   59.0060   32.9670   47.1440 C   0  0  0  0  0  0  0  0  0  0  0  0
   59.7890   33.9410   46.4960 C   0  0  0  0  0  0  0  0  0  0  0  0
   60.8069   34.1536   46.8546 H   0  0  0  0  0  0  0  0  0  0  0  0
   59.2770   34.6390   45.3980 C   0  0  0  0  0  0  0  0  0  0  0  0
   59.8981   35.3885   44.8857 H   0  0  0  0  0  0  0  0  0  0  0  0
   57.9770   34.3860   44.9500 C   0  0  0  0  0  0  0  0  0  0  0  0
   57.5793   34.9286   44.0797 H   0  0  0  0  0  0  0  0  0  0  0  0
   57.1830   33.4430   45.6090 C   0  0  0  0  0  0  0  0  0  0  0  0
   56.1569   33.2512   45.2621 H   0  0  0  0  0  0  0  0  0  0  0  0
   57.6900   32.7430   46.7080 C   0  0  0  0  0  0  0  0  0  0  0  0
   57.0555   32.0139   47.2332 H   0  0  0  0  0  0  0  0  0  0  0  0
   60.3580   28.8960   49.1920 C   0  0  0  0  0  0  0  0  0  0  0  0
   60.7430   29.1920   50.4940 O   0  0  0  0  0  0  0  0  0  0  0  0
   60.6520   27.7410   48.5720 N   0  0  0  0  0  0  0  0  0  0  0  0
   60.1170   27.7950   47.3600 N   0  0  0  0  0  0  0  0  0  0  0  0
   60.1550   26.6630   46.4300 C   0  0  0  0  0  0  0  0  0  0  0  0
   60.8549   25.9065   46.8146 H   0  0  0  0  0  0  0  0  0  0  0  0
   60.4827   27.0320   45.4469 H   0  0  0  0  0  0  0  0  0  0  0  0
   58.7880   26.0350   46.2730 C   0  0  0  0  0  0  0  0  0  0  0  0
   58.0950   25.6400   47.3510 C   0  0  0  0  0  0  0  0  0  0  0  0
   58.5450   25.7149   48.3519 H   0  0  0  0  0  0  0  0  0  0  0  0
   57.0765   25.2411   47.2343 H   0  0  0  0  0  0  0  0  0  0  0  0
   58.1510   25.9230   44.9120 C   0  0  0  0  0  0  0  0  0  0  0  0
   57.0734   25.7335   45.0260 H   0  0  0  0  0  0  0  0  0  0  0  0
   58.3017   26.8614   44.3583 H   0  0  0  0  0  0  0  0  0  0  0  0
   58.6128   25.0923   44.3583 H   0  0  0  0  0  0  0  0  0  0  0  0
   57.2860   28.9670   45.9990 C   0  0  0  0  0  0  0  0  0  0  0  0
   56.8571   28.3790   46.8238 H   0  0  0  0  0  0  0  0  0  0  0  0
   56.4810   29.3400   44.9170 C   0  0  0  0  0  0  0  0  0  0  0  0
   55.1420   28.9660   44.8910 O   0  0  0  0  0  0  0  0  0  0  0  0
  1  2  1  0
  2  3  1  0
  3  4  2  0
  4  5  1  0
  4  6  1  0
  6  7  1  0
  6  8  2  0
  8  9  1  0
  9 10  2  0
 10 11  1  0
 11 12  1  0
 11 13  2  0
 13 14  1  0
 13 15  1  0
 15 16  2  0
 16 17  1  0
 16 18  1  0
 18 19  1  0
 18 20  2  0
 20 21  1  0
 20 22  1  0
 22 23  1  0
 22 24  2  0
 24 25  1  0
 10 26  1  0
 26 27  1  0
 26 28  2  0
 28 29  1  0
 29 30  1  0
 30 31  1  0
 30 32  1  0
 30 33  1  0
 33 34  2  0
 34 35  1  0
 34 36  1  0
 33 37  1  0
 37 38  1  0
 37 39  1  0
 37 40  1  0
  8 41  1  0
 41 42  1  0
 41 43  2  0
 43 44  1  0
 43  3  1  0
 29  9  1  0
 24 15  1  0
M  CHG  2  27  -1  44  -1
M  END
>  <UniqueID>  (23) 
21

>  <SMILES>  (23) 
C=C(C)Cn1nc([O-])c(/C=C\c2ccccc2)c1-c1ccc(O)c([O-])c1

>  <Energy>  (23) 
84.40066442208393

>  <Genealogy>  (23) 
C=C(C)Cn1nc([O-])c(C=Cc2ccccc2)c1-c1ccc(O)c([O-])c1 (protonated)
C=C(C)Cn1nc([O-])c(/C=C\c2ccccc2)c1-c1ccc(O)c([O-])c1 (cis-trans isomerization)
C=C(C)Cn1nc([O-])c(/C=C\c2ccccc2)c1-c1ccc(O)c([O-])c1 (3D coordinates assigned)
C=C(C)Cn1nc([O-])c(/C=C\c2ccccc2)c1-c1ccc(O)c([O-])c1 (optimized conformer: 84.40066442208393 kcal/mol)

>  <smiles>  (23) 
C=C(C)Cn1nc(O)c(C=Cc2ccccc2)c1-c1ccc(O)c(O)c1

>  <score_type>  (23) 
oracle

>  <origin>  (23) 
adg

>  <m_score__min__energy>  (23) 
-11.98

>  <m_primary>  (23) 
energy

$$$$
23:0
     RDKit          3D

 55 58  0  0  0  0  0  0  0  0999 V2000
   57.4110   32.1890   41.3810 C   0  0  0  0  0  0  0  0  0  0  0  0
   57.5520   32.0150   42.8680 C   0  0  0  0  0  0  0  0  0  0  0  0
   58.2540   32.9580   43.6240 C   0  0  0  0  0  0  0  0  0  0  0  0
   58.3620   32.8410   44.9870 N   0  0  0  0  0  0  0  0  0  0  0  0
   59.0830   33.8810   45.7680 C   0  0  0  0  0  0  0  0  0  0  0  0
   60.5680   33.4940   46.0000 C   0  0  0  0  0  0  0  0  0  0  0  0
   60.8380   32.9650   47.4170 C   0  0  0  0  0  0  0  0  0  0  0  0
   60.3890   33.9000   48.4800 N   0  0  0  0  0  0  0  0  0  0  0  0
   60.2090   33.2500   49.8010 C   0  0  0  0  0  0  0  0  0  0  0  0
   60.1100   31.7380   49.7250 C   0  0  0  0  0  0  0  0  0  0  0  0
   58.8740   31.1190   49.4770 C   0  0  0  0  0  0  0  0  0  0  0  0
   58.8070   29.7410   49.2550 C   0  0  0  0  0  0  0  0  0  0  0  0
   59.9740   28.9570   49.3000 C   0  0  0  0  0  0  0  0  0  0  0  0
   59.9730   27.5890   48.9800 O   0  0  0  0  0  0  0  0  0  0  0  0
   60.6330   27.0260   47.8440 C   0  0  0  0  0  0  0  0  0  0  0  0
   59.8890   27.3810   46.5880 C   0  0  0  0  0  0  0  0  0  0  0  0
   60.3690   28.3870   45.7350 C   0  0  0  0  0  0  0  0  0  0  0  0
   59.6210   28.7430   44.6100 C   0  0  0  0  0  0  0  0  0  0  0  0
   58.3990   28.1140   44.3600 C   0  0  0  0  0  0  0  0  0  0  0  0
   57.9470   27.1230   45.2350 C   0  0  0  0  0  0  0  0  0  0  0  0
   58.6950   26.7810   46.3180 N   0  0  0  0  0  0  0  0  0  0  0  0
   61.1840   29.5570   49.6620 C   0  0  0  0  0  0  0  0  0  0  0  0
   61.2540   30.9360   49.8750 C   0  0  0  0  0  0  0  0  0  0  0  0
   59.3050   34.8370   48.1000 C   0  0  0  0  0  0  0  0  0  0  0  0
   58.3400   34.2250   47.0760 C   0  0  0  0  0  0  0  0  0  0  0  0
   57.7640   31.7710   45.6110 C   0  0  0  0  0  0  0  0  0  0  0  0
   57.8500   31.6150   46.8580 O   0  0  0  0  0  0  0  0  0  0  0  0
   57.0620   30.8580   44.8910 N   0  0  0  0  0  0  0  0  0  0  0  0
   56.9340   30.9590   43.5460 C   0  0  0  0  0  0  0  0  0  0  0  0
   56.2560   30.1000   42.9230 O   0  0  0  0  0  0  0  0  0  0  0  0
   56.7310   33.0282   41.1729 H   0  0  0  0  0  0  0  0  0  0  0  0
   58.3972   32.3985   40.9412 H   0  0  0  0  0  0  0  0  0  0  0  0
   57.0016   31.2676   40.9412 H   0  0  0  0  0  0  0  0  0  0  0  0
   58.7291   33.8105   43.1165 H   0  0  0  0  0  0  0  0  0  0  0  0
   59.0951   34.8031   45.1684 H   0  0  0  0  0  0  0  0  0  0  0  0
   60.8435   32.7129   45.2762 H   0  0  0  0  0  0  0  0  0  0  0  0
   61.1691   34.4060   45.8700 H   0  0  0  0  0  0  0  0  0  0  0  0
   60.3062   32.0103   47.5422 H   0  0  0  0  0  0  0  0  0  0  0  0
   61.9264   32.8451   47.5220 H   0  0  0  0  0  0  0  0  0  0  0  0
   61.0678   33.5108   50.4369 H   0  0  0  0  0  0  0  0  0  0  0  0
   59.2570   33.6155   50.2135 H   0  0  0  0  0  0  0  0  0  0  0  0
   57.9541   31.7219   49.4574 H   0  0  0  0  0  0  0  0  0  0  0  0
   57.8370   29.2671   49.0440 H   0  0  0  0  0  0  0  0  0  0  0  0
   61.6574   27.4223   47.7847 H   0  0  0  0  0  0  0  0  0  0  0  0
   60.6614   25.9314   47.9492 H   0  0  0  0  0  0  0  0  0  0  0  0
   61.3236   28.8896   45.9499 H   0  0  0  0  0  0  0  0  0  0  0  0
   59.9935   29.5168   43.9227 H   0  0  0  0  0  0  0  0  0  0  0  0
   57.7984   28.3962   43.4827 H   0  0  0  0  0  0  0  0  0  0  0  0
   56.9869   26.6198   45.0480 H   0  0  0  0  0  0  0  0  0  0  0  0
   62.0865   28.9393   49.7798 H   0  0  0  0  0  0  0  0  0  0  0  0
   62.2107   31.3968   50.1619 H   0  0  0  0  0  0  0  0  0  0  0  0
   58.7381   35.1073   49.0031 H   0  0  0  0  0  0  0  0  0  0  0  0
   59.7699   35.7208   47.6386 H   0  0  0  0  0  0  0  0  0  0  0  0
   57.9023   33.3071   47.4953 H   0  0  0  0  0  0  0  0  0  0  0  0
   57.5490   34.9561   46.8529 H   0  0  0  0  0  0  0  0  0  0  0  0
  1  2  1  0
  2  3  2  0
  3  4  1  0
  4  5  1  0
  5  6  1  0
  6  7  1  0
  7  8  1  0
  8  9  1  0
  9 10  1  0
 10 11  2  0
 11 12  1  0
 12 13  2  0
 13 14  1  0
 14 15  1  0
 15 16  1  0
 16 17  2  0
 17 18  1  0
 18 19  2  0
 19 20  1  0
 20 21  2  0
 13 22  1  0
 22 23  2  0
  8 24  1  0
 24 25  1  0
  4 26  1  0
 26 27  2  0
 26 28  1  0
 28 29  1  0
 29 30  2  0
 29  2  1  0
 25  5  1  0
 23 10  1  0
 21 16  1  0
  1 31  1  0
  1 32  1  0
  1 33  1  0
  3 34  1  0
  5 35  1  0
  6 36  1  0
  6 37  1  0
  7 38  1  0
  7 39  1  0
  9 40  1  0
  9 41  1  0
 11 42  1  0
 12 43  1  0
 15 44  1  0
 15 45  1  0
 17 46  1  0
 18 47  1  0
 19 48  1  0
 20 49  1  0
 22 50  1  0
 23 51  1  0
 24 52  1  0
 24 53  1  0
 25 54  1  0
 25 55  1  0
M  CHG  1  28  -1
M  END
>  <UniqueID>  (24) 
22

>  <SMILES>  (24) 
Cc1cn(C2CCN(Cc3ccc(OCc4ccccn4)cc3)CC2)c(=O)[n-]c1=O

>  <Energy>  (24) 
70.0824055811944

>  <Genealogy>  (24) 
Cc1cn(C2CCN(Cc3ccc(OCc4ccccn4)cc3)CC2)c(=O)[n-]c1=O (protonated)
Cc1cn(C2CCN(Cc3ccc(OCc4ccccn4)cc3)CC2)c(=O)[n-]c1=O (3D coordinates assigned)
Cc1cn(C2CCN(Cc3ccc(OCc4ccccn4)cc3)CC2)c(=O)[n-]c1=O (nonaromatic ring conformer: 70.0824055811944 kcal/mol)

>  <smiles>  (24) 
Cc1cn(C2CCN(Cc3ccc(OCc4ccccn4)cc3)CC2)c(=O)[nH]c1=O

>  <score_type>  (24) 
oracle

>  <origin>  (24) 
adg

>  <m_score__min__energy>  (24) 
-10.82

>  <m_primary>  (24) 
energy

$$$$
24:0
     RDKit          3D

 58 61  0  0  0  0  0  0  0  0999 V2000
   63.8530   32.4600   49.9790 C   0  0  0  0  0  0  0  0  0  0  0  0
   63.1770   32.9750   48.7380 C   0  0  0  0  0  0  0  0  0  0  0  0
   63.9680   33.4380   47.6710 C   0  0  0  0  0  0  0  0  0  0  0  0
   63.3740   33.8880   46.4910 C   0  0  0  0  0  0  0  0  0  0  0  0
   61.9860   33.8820   46.3620 C   0  0  0  0  0  0  0  0  0  0  0  0
   61.1850   33.4450   47.4180 C   0  0  0  0  0  0  0  0  0  0  0  0
   61.7650   33.0200   48.6230 C   0  0  0  0  0  0  0  0  0  0  0  0
   60.9000   32.5900   49.6850 N   0  0  0  0  0  0  0  0  0  0  0  0
   59.7980   31.6810   49.5210 C   0  0  0  0  0  0  0  0  0  0  0  0
   58.3600   32.0970   50.1970 S   0  0  0  0  0  0  0  0  0  0  0  0
   60.0170   30.3260   49.0590 N   0  0  0  0  0  0  0  0  0  0  0  0
   59.2780   29.2110   49.6790 C   0  0  0  0  0  0  0  0  0  0  0  0
   60.0780   27.9090   49.5900 C   0  0  0  0  0  0  0  0  0  0  0  0
   60.4510   27.5460   48.1370 C   0  0  0  0  0  0  0  0  0  0  0  0
   59.4170   26.6870   47.5630 N   0  0  0  0  0  0  0  0  0  0  0  0
   59.0700   26.6080   46.1770 C   0  0  0  0  0  0  0  0  0  0  0  0
   59.3520   25.5530   45.5490 O   0  0  0  0  0  0  0  0  0  0  0  0
   58.3360   27.6920   45.4840 C   0  0  0  0  0  0  0  0  0  0  0  0
   59.0560   28.6630   44.7680 C   0  0  0  0  0  0  0  0  0  0  0  0
   58.3940   29.7060   44.1170 C   0  0  0  0  0  0  0  0  0  0  0  0
   57.0070   29.8170   44.2060 C   0  0  0  0  0  0  0  0  0  0  0  0
   56.2780   28.8830   44.9430 C   0  0  0  0  0  0  0  0  0  0  0  0
   56.9280   27.7970   45.5700 C   0  0  0  0  0  0  0  0  0  0  0  0
   56.1930   26.8220   46.3330 N   0  0  0  0  0  0  0  0  0  0  0  0
   55.5360   25.6410   45.8580 C   0  0  0  0  0  0  0  0  0  0  0  0
   54.2990   25.6460   45.6220 O   0  0  0  0  0  0  0  0  0  0  0  0
   56.3320   24.4250   45.6120 C   0  0  0  0  0  0  0  0  0  0  0  0
   56.8980   23.6880   46.6700 C   0  0  0  0  0  0  0  0  0  0  0  0
   57.6380   22.5810   46.3930 N   0  0  0  0  0  0  0  0  0  0  0  0
   57.8380   22.1690   45.1120 C   0  0  0  0  0  0  0  0  0  0  0  0
   57.2690   22.8930   44.0590 C   0  0  0  0  0  0  0  0  0  0  0  0
   56.5350   24.0030   44.3310 N   0  0  0  0  0  0  0  0  0  0  0  0
   60.6290   28.7830   47.2320 C   0  0  0  0  0  0  0  0  0  0  0  0
   61.0160   30.0370   48.0180 C   0  0  0  0  0  0  0  0  0  0  0  0
   63.3371   32.8530   50.8675 H   0  0  0  0  0  0  0  0  0  0  0  0
   63.8138   31.3607   49.9885 H   0  0  0  0  0  0  0  0  0  0  0  0
   64.9024   32.7896   49.9885 H   0  0  0  0  0  0  0  0  0  0  0  0
   65.0637   33.4455   47.7674 H   0  0  0  0  0  0  0  0  0  0  0  0
   64.0015   34.2477   45.6622 H   0  0  0  0  0  0  0  0  0  0  0  0
   61.5208   34.2227   45.4252 H   0  0  0  0  0  0  0  0  0  0  0  0
   60.0909   33.4336   47.3049 H   0  0  0  0  0  0  0  0  0  0  0  0
   61.0930   32.9550   50.6460 H   0  0  0  0  0  0  0  0  0  0  0  0
   59.0908   29.4471   50.7369 H   0  0  0  0  0  0  0  0  0  0  0  0
   58.3278   29.0771   49.1413 H   0  0  0  0  0  0  0  0  0  0  0  0
   61.0030   28.0220   50.1745 H   0  0  0  0  0  0  0  0  0  0  0  0
   59.4471   27.0998   49.9865 H   0  0  0  0  0  0  0  0  0  0  0  0
   61.4186   27.0247   48.1809 H   0  0  0  0  0  0  0  0  0  0  0  0
   60.1532   28.6009   44.7197 H   0  0  0  0  0  0  0  0  0  0  0  0
   58.9675   30.4410   43.5332 H   0  0  0  0  0  0  0  0  0  0  0  0
   56.4874   30.6410   43.6951 H   0  0  0  0  0  0  0  0  0  0  0  0
   55.1876   28.9934   45.0365 H   0  0  0  0  0  0  0  0  0  0  0  0
   56.7429   24.0050   47.7119 H   0  0  0  0  0  0  0  0  0  0  0  0
   58.4425   21.2734   44.9058 H   0  0  0  0  0  0  0  0  0  0  0  0
   57.4148   22.5660   43.0189 H   0  0  0  0  0  0  0  0  0  0  0  0
   61.4189   28.5706   46.4966 H   0  0  0  0  0  0  0  0  0  0  0  0
   59.6629   28.9806   46.7446 H   0  0  0  0  0  0  0  0  0  0  0  0
   61.9960   29.8783   48.4918 H   0  0  0  0  0  0  0  0  0  0  0  0
   61.0616   30.8896   47.3245 H   0  0  0  0  0  0  0  0  0  0  0  0
  1  2  1  0
  2  3  2  0
  3  4  1  0
  4  5  2  0
  5  6  1  0
  6  7  2  0
  7  8  1  0
  8  9  1  0
  9 10  2  0
  9 11  1  0
 11 12  1  0
 12 13  1  0
 13 14  1  0
 14 15  1  0
 15 16  1  0
 16 17  2  0
 16 18  1  0
 18 19  2  0
 19 20  1  0
 20 21  2  0
 21 22  1  0
 22 23  2  0
 23 24  1  0
 24 25  1  0
 25 26  2  0
 25 27  1  0
 27 28  2  0
 28 29  1  0
 29 30  2  0
 30 31  1  0
 31 32  2  0
 14 33  1  0
 33 34  1  0
  7  2  1  0
 34 11  1  0
 23 18  1  0
 32 27  1  0
  1 35  1  0
  1 36  1  0
  1 37  1  0
  3 38  1  0
  4 39  1  0
  5 40  1  0
  6 41  1  0
  8 42  1  0
 12 43  1  0
 12 44  1  0
 13 45  1  0
 13 46  1  0
 14 47  1  0
 19 48  1  0
 20 49  1  0
 21 50  1  0
 22 51  1  0
 28 52  1  0
 30 53  1  0
 31 54  1  0
 33 55  1  0
 33 56  1  0
 34 57  1  0
 34 58  1  0
M  CHG  2  15  -1  24  -1
M  END
>  <UniqueID>  (25) 
23

>  <SMILES>  (25) 
Cc1ccccc1NC(=S)N1CCC([N-]C(=O)c2ccccc2[N-]C(=O)c2cnccn2)CC1

>  <Energy>  (25) 
89.05288281207979

>  <Genealogy>  (25) 
Cc1ccccc1NC(=S)N1CCC([N-]C(=O)c2ccccc2[N-]C(=O)c2cnccn2)CC1 (protonated)
Cc1ccccc1NC(=S)N1CCC([N-]C(=O)c2ccccc2[N-]C(=O)c2cnccn2)CC1 (3D coordinates assigned)
Cc1ccccc1NC(=S)N1CCC([N-]C(=O)c2ccccc2[N-]C(=O)c2cnccn2)CC1 (nonaromatic ring conformer: 89.05288281207979 kcal/mol)

>  <smiles>  (25) 
Cc1ccccc1NC(=S)N1CCC(NC(=O)c2ccccc2NC(=O)c2cnccn2)CC1

>  <score_type>  (25) 
oracle

>  <origin>  (25) 
adg

>  <m_score__min__energy>  (25) 
-12.23

>  <m_primary>  (25) 
energy

$$$$
25:0
     RDKit          3D

 53 55  0  0  0  0  0  0  0  0999 V2000
   58.2200   32.7150   42.8460 N   0  0  0  0  0  0  0  0  0  0  0  0
   58.2070   33.1750   44.2030 C   0  0  0  0  0  0  0  0  0  0  0  0
   59.1160   34.1730   44.5890 C   0  0  0  0  0  0  0  0  0  0  0  0
   59.2020   34.5810   45.9220 C   0  0  0  0  0  0  0  0  0  0  0  0
   58.3910   33.9860   46.8870 C   0  0  0  0  0  0  0  0  0  0  0  0
   57.4790   32.9940   46.5190 C   0  0  0  0  0  0  0  0  0  0  0  0
   57.3560   32.5980   45.1790 C   0  0  0  0  0  0  0  0  0  0  0  0
   56.3940   31.5820   44.8590 N   0  0  0  0  0  0  0  0  0  0  0  0
   56.6130   30.4580   43.9970 C   0  0  0  0  0  0  0  0  0  0  0  0
   56.3130   30.5640   42.7770 O   0  0  0  0  0  0  0  0  0  0  0  0
   57.2090   29.1960   44.4910 C   0  0  0  0  0  0  0  0  0  0  0  0
   57.4380   29.0000   45.8640 C   0  0  0  0  0  0  0  0  0  0  0  0
   58.0800   27.8420   46.3170 C   0  0  0  0  0  0  0  0  0  0  0  0
   58.4960   26.8590   45.4050 C   0  0  0  0  0  0  0  0  0  0  0  0
   59.2070   25.6290   45.8950 C   0  0  0  0  0  0  0  0  0  0  0  0
   58.2850   24.7900   46.6500 N   0  0  0  0  0  0  0  0  0  0  0  0
   56.8810   25.0650   46.7210 C   0  0  0  0  0  0  0  0  0  0  0  0
   56.3090   25.1850   47.8380 O   0  0  0  0  0  0  0  0  0  0  0  0
   56.0960   25.2570   45.4660 C   0  0  0  0  0  0  0  0  0  0  0  0
   54.6900   24.9520   45.7230 N   0  0  0  0  0  0  0  0  0  0  0  0
   54.0700   23.6590   45.6720 C   0  0  0  0  0  0  0  0  0  0  0  0
   52.8950   23.5730   45.2310 O   0  0  0  0  0  0  0  0  0  0  0  0
   54.7790   22.4020   46.0960 C   0  0  0  0  0  0  0  0  0  0  0  0
   56.0270   22.1800   45.2800 C   0  0  0  0  0  0  0  0  0  0  0  0
   55.9860   22.2680   43.8750 C   0  0  0  0  0  0  0  0  0  0  0  0
   57.1470   22.0680   43.1250 C   0  0  0  0  0  0  0  0  0  0  0  0
   58.3610   21.8060   43.7670 C   0  0  0  0  0  0  0  0  0  0  0  0
   58.4180   21.7180   45.1630 C   0  0  0  0  0  0  0  0  0  0  0  0
   59.6350   21.4440   45.7870 O   0  0  0  0  0  0  0  0  0  0  0  0
   57.2510   21.9050   45.9200 C   0  0  0  0  0  0  0  0  0  0  0  0
   58.2510   27.0450   44.0350 C   0  0  0  0  0  0  0  0  0  0  0  0
   57.6260   28.2120   43.5820 C   0  0  0  0  0  0  0  0  0  0  0  0
   58.7740   33.1990   42.1060 H   0  0  0  0  0  0  0  0  0  0  0  0
   57.5820   31.9460   42.5410 H   0  0  0  0  0  0  0  0  0  0  0  0
   59.7669   34.6382   43.8341 H   0  0  0  0  0  0  0  0  0  0  0  0
   59.9099   35.3720   46.2104 H   0  0  0  0  0  0  0  0  0  0  0  0
   58.4692   34.2978   47.9390 H   0  0  0  0  0  0  0  0  0  0  0  0
   56.8513   32.5189   47.2873 H   0  0  0  0  0  0  0  0  0  0  0  0
   57.1105   29.7617   46.5869 H   0  0  0  0  0  0  0  0  0  0  0  0
   58.2596   27.7012   47.3931 H   0  0  0  0  0  0  0  0  0  0  0  0
   59.5928   25.0635   45.0340 H   0  0  0  0  0  0  0  0  0  0  0  0
   60.0406   25.9285   46.5473 H   0  0  0  0  0  0  0  0  0  0  0  0
   56.1900   26.3002   45.1300 H   0  0  0  0  0  0  0  0  0  0  0  0
   56.4813   24.5856   44.6845 H   0  0  0  0  0  0  0  0  0  0  0  0
   55.0543   22.4858   47.1577 H   0  0  0  0  0  0  0  0  0  0  0  0
   54.1023   21.5494   45.9376 H   0  0  0  0  0  0  0  0  0  0  0  0
   55.0371   22.4949   43.3670 H   0  0  0  0  0  0  0  0  0  0  0  0
   57.1062   22.1167   42.0268 H   0  0  0  0  0  0  0  0  0  0  0  0
   59.2760   21.6683   43.1722 H   0  0  0  0  0  0  0  0  0  0  0  0
   60.1290   20.5690   45.6360 H   0  0  0  0  0  0  0  0  0  0  0  0
   57.2926   21.8365   47.0171 H   0  0  0  0  0  0  0  0  0  0  0  0
   58.5517   26.2699   43.3147 H   0  0  0  0  0  0  0  0  0  0  0  0
   57.4603   28.3592   42.5046 H   0  0  0  0  0  0  0  0  0  0  0  0
  1  2  1  0
  2  3  2  0
  3  4  1  0
  4  5  2  0
  5  6  1  0
  6  7  2  0
  7  8  1  0
  8  9  1  0
  9 10  2  0
  9 11  1  0
 11 12  2  0
 12 13  1  0
 13 14  2  0
 14 15  1  0
 15 16  1  0
 16 17  1  0
 17 18  2  0
 17 19  1  0
 19 20  1  0
 20 21  1  0
 21 22  2  0
 21 23  1  0
 23 24  1  0
 24 25  2  0
 25 26  1  0
 26 27  2  0
 27 28  1  0
 28 29  1  0
 28 30  2  0
 14 31  1  0
 31 32  2  0
  7  2  1  0
 32 11  1  0
 30 24  1  0
  1 33  1  0
  1 34  1  0
  3 35  1  0
  4 36  1  0
  5 37  1  0
  6 38  1  0
 12 39  1  0
 13 40  1  0
 15 41  1  0
 15 42  1  0
 19 43  1  0
 19 44  1  0
 23 45  1  0
 23 46  1  0
 25 47  1  0
 26 48  1  0
 27 49  1  0
 29 50  1  0
 30 51  1  0
 31 52  1  0
 32 53  1  0
M  CHG  3   8  -1  16  -1  20  -1
M  END
>  <UniqueID>  (26) 
24

>  <SMILES>  (26) 
Nc1ccccc1[N-]C(=O)c1ccc(C[N-]C(=O)C[N-]C(=O)Cc2cccc(O)c2)cc1

>  <Energy>  (26) 
55.16717514754745

>  <Genealogy>  (26) 
Nc1ccccc1[N-]C(=O)c1ccc(C[N-]C(=O)C[N-]C(=O)Cc2cccc(O)c2)cc1 (protonated)
Nc1ccccc1[N-]C(=O)c1ccc(C[N-]C(=O)C[N-]C(=O)Cc2cccc(O)c2)cc1 (3D coordinates assigned)
Nc1ccccc1[N-]C(=O)c1ccc(C[N-]C(=O)C[N-]C(=O)Cc2cccc(O)c2)cc1 (optimized conformer: 55.16717514754745 kcal/mol)

>  <smiles>  (26) 
Nc1ccccc1NC(=O)c1ccc(CNC(=O)CNC(=O)Cc2cccc(O)c2)cc1

>  <score_type>  (26) 
oracle

>  <origin>  (26) 
adg

>  <m_score__min__energy>  (26) 
-14.630000000000001

>  <m_primary>  (26) 
energy

$$$$
26:0
     RDKit          3D

 49 52  0  0  0  0  0  0  0  0999 V2000
   55.5630   24.9450   46.4500 O   0  0  0  0  0  0  0  0  0  0  0  0
   56.1700   25.7190   45.6590 C   0  0  0  0  0  0  0  0  0  0  0  0
   57.2910   25.1880   44.8220 C   0  0  0  0  0  0  0  0  0  0  0  0
   56.9420   23.8350   44.2860 C   0  0  0  0  0  0  0  0  0  0  0  0
   55.9150   23.5480   43.4170 C   0  0  0  0  0  0  0  0  0  0  0  0
   55.9510   22.2360   43.1230 N   0  0  0  0  0  0  0  0  0  0  0  0
   57.0120   21.7700   43.8190 C   0  0  0  0  0  0  0  0  0  0  0  0
   57.6510   22.7190   44.5350 N   0  0  0  0  0  0  0  0  0  0  0  0
   55.8300   27.1100   45.5900 N   0  0  0  0  0  0  0  0  0  0  0  0
   56.7500   28.2060   45.6880 C   0  0  0  0  0  0  0  0  0  0  0  0
   56.6590   29.3230   44.8440 C   0  0  0  0  0  0  0  0  0  0  0  0
   57.5770   30.3670   44.9580 C   0  0  0  0  0  0  0  0  0  0  0  0
   58.6040   30.3200   45.9160 C   0  0  0  0  0  0  0  0  0  0  0  0
   59.5710   31.3840   45.9870 N   0  0  0  0  0  0  0  0  0  0  0  0
   59.2290   32.7480   46.2780 C   0  0  0  0  0  0  0  0  0  0  0  0
   58.0590   33.0530   46.6370 O   0  0  0  0  0  0  0  0  0  0  0  0
   60.2830   33.8120   46.2400 C   0  0  0  0  0  0  0  0  0  0  0  0
   61.5930   33.2490   46.7010 C   0  0  0  0  0  0  0  0  0  0  0  0
   62.8300   33.8280   46.5350 C   0  0  0  0  0  0  0  0  0  0  0  0
   63.7530   33.0590   47.1390 N   0  0  0  0  0  0  0  0  0  0  0  0
   63.0420   32.0360   47.6630 C   0  0  0  0  0  0  0  0  0  0  0  0
   61.7160   32.1200   47.4240 N   0  0  0  0  0  0  0  0  0  0  0  0
   58.7280   29.1760   46.7400 C   0  0  0  0  0  0  0  0  0  0  0  0
   59.7790   29.0870   47.7840 C   0  0  0  0  0  0  0  0  0  0  0  0
   60.6120   28.1400   47.7250 O   0  0  0  0  0  0  0  0  0  0  0  0
   59.8860   30.0810   48.8820 C   0  0  0  0  0  0  0  0  0  0  0  0
   61.0390   30.1460   49.6900 C   0  0  0  0  0  0  0  0  0  0  0  0
   61.1420   31.1090   50.6990 C   0  0  0  0  0  0  0  0  0  0  0  0
   60.1010   32.0170   50.9100 C   0  0  0  0  0  0  0  0  0  0  0  0
   58.9580   31.9680   50.1100 C   0  0  0  0  0  0  0  0  0  0  0  0
   58.8500   31.0080   49.0980 C   0  0  0  0  0  0  0  0  0  0  0  0
   57.7960   28.1300   46.6130 C   0  0  0  0  0  0  0  0  0  0  0  0
   57.4742   25.8749   43.9826 H   0  0  0  0  0  0  0  0  0  0  0  0
   58.1943   25.1047   45.4442 H   0  0  0  0  0  0  0  0  0  0  0  0
   55.1847   24.2722   43.0268 H   0  0  0  0  0  0  0  0  0  0  0  0
   57.3254   20.7157   43.8033 H   0  0  0  0  0  0  0  0  0  0  0  0
   55.8605   29.3757   44.0893 H   0  0  0  0  0  0  0  0  0  0  0  0
   57.4961   31.2373   44.2902 H   0  0  0  0  0  0  0  0  0  0  0  0
   60.5830   31.1460   45.8740 H   0  0  0  0  0  0  0  0  0  0  0  0
   60.3882   34.1845   45.2104 H   0  0  0  0  0  0  0  0  0  0  0  0
   59.9890   34.6369   46.9057 H   0  0  0  0  0  0  0  0  0  0  0  0
   63.0309   34.7660   45.9966 H   0  0  0  0  0  0  0  0  0  0  0  0
   63.5004   31.2128   48.2306 H   0  0  0  0  0  0  0  0  0  0  0  0
   61.8625   29.4353   49.5261 H   0  0  0  0  0  0  0  0  0  0  0  0
   62.0438   31.1517   51.3274 H   0  0  0  0  0  0  0  0  0  0  0  0
   60.1822   32.7708   51.7070 H   0  0  0  0  0  0  0  0  0  0  0  0
   58.1408   32.6855   50.2756 H   0  0  0  0  0  0  0  0  0  0  0  0
   57.9493   30.9778   48.4672 H   0  0  0  0  0  0  0  0  0  0  0  0
   57.8914   27.2389   47.2509 H   0  0  0  0  0  0  0  0  0  0  0  0
  1  2  2  0
  2  3  1  0
  3  4  1  0
  4  5  2  0
  5  6  1  0
  6  7  1  0
  7  8  2  0
  2  9  1  0
  9 10  1  0
 10 11  2  0
 11 12  1  0
 12 13  2  0
 13 14  1  0
 14 15  1  0
 15 16  2  0
 15 17  1  0
 17 18  1  0
 18 19  2  0
 19 20  1  0
 20 21  1  0
 21 22  2  0
 13 23  1  0
 23 24  1  0
 24 25  2  0
 24 26  1  0
 26 27  2  0
 27 28  1  0
 28 29  2  0
 29 30  1  0
 30 31  2  0
 23 32  2  0
  8  4  1  0
 32 10  1  0
 22 18  1  0
 31 26  1  0
  3 33  1  0
  3 34  1  0
  5 35  1  0
  7 36  1  0
 11 37  1  0
 12 38  1  0
 14 39  1  0
 17 40  1  0
 17 41  1  0
 19 42  1  0
 21 43  1  0
 27 44  1  0
 28 45  1  0
 29 46  1  0
 30 47  1  0
 31 48  1  0
 32 49  1  0
M  CHG  3   6  -1   9  -1  20  -1
M  END
>  <UniqueID>  (27) 
25

>  <SMILES>  (27) 
O=C(Cc1c[n-]cn1)[N-]c1ccc(NC(=O)Cc2c[n-]cn2)c(C(=O)c2ccccc2)c1

>  <Energy>  (27) 
118.31252099176433

>  <Genealogy>  (27) 
O=C(Cc1c[n-]cn1)[N-]c1ccc(NC(=O)Cc2c[n-]cn2)c(C(=O)c2ccccc2)c1 (protonated)
O=C(Cc1c[n-]cn1)[N-]c1ccc(NC(=O)Cc2c[n-]cn2)c(C(=O)c2ccccc2)c1 (3D coordinates assigned)
O=C(Cc1c[n-]cn1)[N-]c1ccc(NC(=O)Cc2c[n-]cn2)c(C(=O)c2ccccc2)c1 (optimized conformer: 118.31252099176433 kcal/mol)

>  <smiles>  (27) 
O=C(Cc1c[nH]cn1)Nc1ccc(NC(=O)Cc2c[nH]cn2)c(C(=O)c2ccccc2)c1

>  <score_type>  (27) 
oracle

>  <origin>  (27) 
adg

>  <m_score__min__energy>  (27) 
-13.06

>  <m_primary>  (27) 
energy

$$$$
27:0
     RDKit          3D

 57 61  0  0  0  0  0  0  0  0999 V2000
   58.8120   25.2240   47.3840 O   0  0  0  0  0  0  0  0  0  0  0  0
   57.8000   25.6470   46.7660 C   0  0  0  0  0  0  0  0  0  0  0  0
   57.2450   26.9280   47.0930 N   0  0  0  0  0  0  0  0  0  0  0  0
   57.3970   28.1310   46.3280 C   0  0  0  0  0  0  0  0  0  0  0  0
   56.2850   28.6070   45.1620 S   0  0  0  0  0  0  0  0  0  0  0  0
   57.0870   30.0200   44.7470 C   0  0  0  0  0  0  0  0  0  0  0  0
   58.2280   30.1570   45.5250 C   0  0  0  0  0  0  0  0  0  0  0  0
   58.4360   29.0690   46.4020 C   0  0  0  0  0  0  0  0  0  0  0  0
   59.6710   28.8890   47.1850 C   0  0  0  0  0  0  0  0  0  0  0  0
   60.4590   27.9480   46.8990 O   0  0  0  0  0  0  0  0  0  0  0  0
   59.9870   29.8060   48.2410 N   0  0  0  0  0  0  0  0  0  0  0  0
   61.1400   30.6640   48.2960 C   0  0  0  0  0  0  0  0  0  0  0  0
   61.6840   31.2420   47.1310 C   0  0  0  0  0  0  0  0  0  0  0  0
   62.8150   32.0570   47.2100 C   0  0  0  0  0  0  0  0  0  0  0  0
   63.4270   32.2920   48.4430 C   0  0  0  0  0  0  0  0  0  0  0  0
   62.9140   31.7000   49.5990 C   0  0  0  0  0  0  0  0  0  0  0  0
   61.7820   30.8810   49.5290 C   0  0  0  0  0  0  0  0  0  0  0  0
   61.1790   30.1420   51.0030 Cl  0  0  0  0  0  0  0  0  0  0  0  0
   59.2040   31.2770   45.2560 C   0  0  0  0  0  0  0  0  0  0  0  0
   58.5610   32.4240   44.5740 N   0  0  0  0  0  0  0  0  0  0  0  0
   57.7750   33.2530   45.5170 C   0  0  0  0  0  0  0  0  0  0  0  0
   58.5200   33.4540   46.8110 C   0  0  0  0  0  0  0  0  0  0  0  0
   59.5360   34.4210   46.8930 C   0  0  0  0  0  0  0  0  0  0  0  0
   60.2160   34.6260   48.0970 C   0  0  0  0  0  0  0  0  0  0  0  0
   59.8840   33.8720   49.2270 C   0  0  0  0  0  0  0  0  0  0  0  0
   58.8720   32.9120   49.1540 C   0  0  0  0  0  0  0  0  0  0  0  0
   58.1890   32.7030   47.9510 C   0  0  0  0  0  0  0  0  0  0  0  0
   57.7880   31.9870   43.3840 C   0  0  0  0  0  0  0  0  0  0  0  0
   56.6390   31.0210   43.7330 C   0  0  0  0  0  0  0  0  0  0  0  0
   57.1730   24.8330   45.6950 C   0  0  0  0  0  0  0  0  0  0  0  0
   57.9820   23.9470   44.9610 C   0  0  0  0  0  0  0  0  0  0  0  0
   57.4210   23.0960   44.0110 C   0  0  0  0  0  0  0  0  0  0  0  0
   56.0460   23.1360   43.7860 C   0  0  0  0  0  0  0  0  0  0  0  0
   55.5190   22.3630   42.9430 O   0  0  0  0  0  0  0  0  0  0  0  0
   55.2740   24.0170   44.4710 N   0  0  0  0  0  0  0  0  0  0  0  0
   55.7860   24.8740   45.3950 C   0  0  0  0  0  0  0  0  0  0  0  0
   54.9120   25.7890   45.9840 O   0  0  0  0  0  0  0  0  0  0  0  0
   61.2151   31.0500   46.1547 H   0  0  0  0  0  0  0  0  0  0  0  0
   63.2252   32.5154   46.2981 H   0  0  0  0  0  0  0  0  0  0  0  0
   64.3119   32.9425   48.5035 H   0  0  0  0  0  0  0  0  0  0  0  0
   63.4020   31.8784   50.5686 H   0  0  0  0  0  0  0  0  0  0  0  0
   59.6209   31.6220   46.2137 H   0  0  0  0  0  0  0  0  0  0  0  0
   59.9924   30.8881   44.5948 H   0  0  0  0  0  0  0  0  0  0  0  0
   57.5808   34.2336   45.0579 H   0  0  0  0  0  0  0  0  0  0  0  0
   56.8295   32.7346   45.7344 H   0  0  0  0  0  0  0  0  0  0  0  0
   59.7971   35.0185   46.0071 H   0  0  0  0  0  0  0  0  0  0  0  0
   61.0134   35.3815   48.1557 H   0  0  0  0  0  0  0  0  0  0  0  0
   60.4200   34.0350   50.1737 H   0  0  0  0  0  0  0  0  0  0  0  0
   58.6117   32.3195   50.0435 H   0  0  0  0  0  0  0  0  0  0  0  0
   57.3904   31.9484   47.8977 H   0  0  0  0  0  0  0  0  0  0  0  0
   57.3622   32.8765   42.8967 H   0  0  0  0  0  0  0  0  0  0  0  0
   58.4811   31.4478   42.7216 H   0  0  0  0  0  0  0  0  0  0  0  0
   55.7941   31.5956   44.1403 H   0  0  0  0  0  0  0  0  0  0  0  0
   56.3313   30.4896   42.8203 H   0  0  0  0  0  0  0  0  0  0  0  0
   59.0674   23.9257   45.1385 H   0  0  0  0  0  0  0  0  0  0  0  0
   58.0567   22.3997   43.4444 H   0  0  0  0  0  0  0  0  0  0  0  0
   55.1410   26.3420   46.7980 H   0  0  0  0  0  0  0  0  0  0  0  0
  1  2  2  0
  2  3  1  0
  3  4  1  0
  4  5  1  0
  5  6  1  0
  6  7  2  0
  7  8  1  0
  8  9  1  0
  9 10  2  0
  9 11  1  0
 11 12  1  0
 12 13  2  0
 13 14  1  0
 14 15  2  0
 15 16  1  0
 16 17  2  0
 17 18  1  0
  7 19  1  0
 19 20  1  0
 20 21  1  0
 21 22  1  0
 22 23  2  0
 23 24  1  0
 24 25  2  0
 25 26  1  0
 26 27  2  0
 20 28  1  0
 28 29  1  0
  2 30  1  0
 30 31  1  0
 31 32  2  0
 32 33  1  0
 33 34  2  0
 33 35  1  0
 35 36  1  0
 36 37  1  0
  8  4  2  0
 17 12  1  0
 27 22  1  0
 36 30  2  0
 29  6  1  0
 13 38  1  0
 14 39  1  0
 15 40  1  0
 16 41  1  0
 19 42  1  0
 19 43  1  0
 21 44  1  0
 21 45  1  0
 23 46  1  0
 24 47  1  0
 25 48  1  0
 26 49  1  0
 27 50  1  0
 28 51  1  0
 28 52  1  0
 29 53  1  0
 29 54  1  0
 31 55  1  0
 32 56  1  0
 37 57  1  0
M  CHG  3   3  -1  11  -1  35  -1
M  END
>  <UniqueID>  (28) 
26

>  <SMILES>  (28) 
O=C([N-]c1sc2c(c1C(=O)[N-]c1ccccc1Cl)CN(Cc1ccccc1)CC2)c1ccc(=O)[n-]c1O

>  <Energy>  (28) 
114.32753210477856

>  <Genealogy>  (28) 
O=C([N-]c1sc2c(c1C(=O)[N-]c1ccccc1Cl)CN(Cc1ccccc1)CC2)c1ccc(=O)[n-]c1O (protonated)
O=C([N-]c1sc2c(c1C(=O)[N-]c1ccccc1Cl)CN(Cc1ccccc1)CC2)c1ccc(=O)[n-]c1O (3D coordinates assigned)
O=C([N-]c1sc2c(c1C(=O)[N-]c1ccccc1Cl)CN(Cc1ccccc1)CC2)c1ccc(=O)[n-]c1O (nonaromatic ring conformer: 114.32753210477856 kcal/mol)

>  <smiles>  (28) 
O=C(Nc1sc2c(c1C(=O)Nc1ccccc1Cl)CN(Cc1ccccc1)CC2)c1ccc(=O)[nH]c1O

>  <score_type>  (28) 
oracle

>  <origin>  (28) 
adg

>  <m_score__min__energy>  (28) 
-15.41

>  <m_primary>  (28) 
energy

$$$$
28:0
     RDKit          3D

 63 66  0  0  0  0  0  0  0  0999 V2000
   58.1430   27.8520   43.7420 C   0  0  0  0  0  0  0  0  0  0  0  0
   57.7240   27.4140   45.1370 C   0  0  0  0  0  0  0  0  0  0  0  0
   56.8600   28.3920   45.7040 O   0  0  0  0  0  0  0  0  0  0  0  0
   56.8080   29.7130   45.2450 C   0  0  0  0  0  0  0  0  0  0  0  0
   55.9240   30.0550   44.4120 O   0  0  0  0  0  0  0  0  0  0  0  0
   57.7680   30.6730   45.7250 N   0  0  0  0  0  0  0  0  0  0  0  0
   57.7550   32.0630   45.2390 C   0  0  0  0  0  0  0  0  0  0  0  0
   58.0400   33.0370   46.3900 C   0  0  0  0  0  0  0  0  0  0  0  0
   59.1360   32.5660   47.2490 N   0  0  0  0  0  0  0  0  0  0  0  0
   59.6280   33.4270   48.2920 C   0  0  0  0  0  0  0  0  0  0  0  0
   59.7860   34.6550   48.0570 O   0  0  0  0  0  0  0  0  0  0  0  0
   59.9410   32.8990   49.6380 C   0  0  0  0  0  0  0  0  0  0  0  0
   61.2000   33.1290   50.2210 C   0  0  0  0  0  0  0  0  0  0  0  0
   61.4950   32.6170   51.4860 C   0  0  0  0  0  0  0  0  0  0  0  0
   60.5420   31.8700   52.1820 C   0  0  0  0  0  0  0  0  0  0  0  0
   59.2840   31.6300   51.6130 C   0  0  0  0  0  0  0  0  0  0  0  0
   58.0800   30.6670   52.4680 S   0  0  0  0  0  0  0  0  0  0  0  0
   58.6540   29.3310   52.8490 O   0  0  0  0  0  0  0  0  0  0  0  0
   57.6800   31.3890   53.7230 O   0  0  0  0  0  0  0  0  0  0  0  0
   56.6770   30.4230   51.4730 N   0  0  0  0  0  0  0  0  0  0  0  0
   55.5580   31.2150   51.9890 C   0  0  0  0  0  0  0  0  0  0  0  0
   54.3470   30.3470   52.1500 C   0  0  0  0  0  0  0  0  0  0  0  0
   54.4810   29.1170   52.3820 O   0  0  0  0  0  0  0  0  0  0  0  0
   53.0340   30.9030   51.9950 N   0  0  0  0  0  0  0  0  0  0  0  0
   52.4820   30.9630   50.6330 C   0  0  0  0  0  0  0  0  0  0  0  0
   51.3740   31.9690   50.5180 C   0  0  0  0  0  0  0  0  0  0  0  0
   51.0540   32.4230   49.3870 O   0  0  0  0  0  0  0  0  0  0  0  0
   50.6360   32.3690   51.6700 N   0  0  0  0  0  0  0  0  0  0  0  0
   51.0360   31.9610   52.9770 C   0  0  0  0  0  0  0  0  0  0  0  0
   50.2500   32.3120   54.0810 C   0  0  0  0  0  0  0  0  0  0  0  0
   50.6440   31.9360   55.3680 C   0  0  0  0  0  0  0  0  0  0  0  0
   51.8300   31.2260   55.5560 C   0  0  0  0  0  0  0  0  0  0  0  0
   52.6250   30.8820   54.4580 C   0  0  0  0  0  0  0  0  0  0  0  0
   52.2300   31.2370   53.1510 C   0  0  0  0  0  0  0  0  0  0  0  0
   58.9910   32.1370   50.3400 C   0  0  0  0  0  0  0  0  0  0  0  0
   59.8490   31.3260   46.9180 C   0  0  0  0  0  0  0  0  0  0  0  0
   58.8450   30.2110   46.6140 C   0  0  0  0  0  0  0  0  0  0  0  0
   58.9015   28.6449   43.8190 H   0  0  0  0  0  0  0  0  0  0  0  0
   58.5643   26.9931   43.1991 H   0  0  0  0  0  0  0  0  0  0  0  0
   57.2663   28.2348   43.1991 H   0  0  0  0  0  0  0  0  0  0  0  0
   57.1964   26.4508   45.0754 H   0  0  0  0  0  0  0  0  0  0  0  0
   58.6172   27.3043   45.7696 H   0  0  0  0  0  0  0  0  0  0  0  0
   58.5263   32.1828   44.4639 H   0  0  0  0  0  0  0  0  0  0  0  0
   56.7614   32.2852   44.8225 H   0  0  0  0  0  0  0  0  0  0  0  0
   58.3142   34.0152   45.9682 H   0  0  0  0  0  0  0  0  0  0  0  0
   57.1319   33.1109   47.0064 H   0  0  0  0  0  0  0  0  0  0  0  0
   61.9559   33.7151   49.6778 H   0  0  0  0  0  0  0  0  0  0  0  0
   62.4814   32.8026   51.9360 H   0  0  0  0  0  0  0  0  0  0  0  0
   60.7793   31.4693   53.1786 H   0  0  0  0  0  0  0  0  0  0  0  0
   56.4260   29.4090   51.5560 H   0  0  0  0  0  0  0  0  0  0  0  0
   55.8330   31.6413   52.9650 H   0  0  0  0  0  0  0  0  0  0  0  0
   55.3306   32.0240   51.2792 H   0  0  0  0  0  0  0  0  0  0  0  0
   53.2865   31.2399   49.9358 H   0  0  0  0  0  0  0  0  0  0  0  0
   52.0680   29.9731   50.3908 H   0  0  0  0  0  0  0  0  0  0  0  0
   49.3218   32.8840   53.9354 H   0  0  0  0  0  0  0  0  0  0  0  0
   50.0185   32.2001   56.2334 H   0  0  0  0  0  0  0  0  0  0  0  0
   52.1407   30.9359   56.5705 H   0  0  0  0  0  0  0  0  0  0  0  0
   53.5642   30.3312   54.6145 H   0  0  0  0  0  0  0  0  0  0  0  0
   58.0092   31.9370   49.8861 H   0  0  0  0  0  0  0  0  0  0  0  0
   60.4840   31.4951   46.0359 H   0  0  0  0  0  0  0  0  0  0  0  0
   60.4721   31.0278   47.7740 H   0  0  0  0  0  0  0  0  0  0  0  0
   59.3744   29.3778   46.1287 H   0  0  0  0  0  0  0  0  0  0  0  0
   58.3910   29.8915   47.5636 H   0  0  0  0  0  0  0  0  0  0  0  0
  1  2  1  0
  2  3  1  0
  3  4  1  0
  4  5  2  0
  4  6  1  0
  6  7  1  0
  7  8  1  0
  8  9  1  0
  9 10  1  0
 10 11  2  0
 10 12  1  0
 12 13  2  0
 13 14  1  0
 14 15  2  0
 15 16  1  0
 16 17  1  0
 17 18  2  0
 17 19  2  0
 17 20  1  0
 20 21  1  0
 21 22  1  0
 22 23  2  0
 22 24  1  0
 24 25  1  0
 25 26  1  0
 26 27  2  0
 26 28  1  0
 28 29  1  0
 29 30  2  0
 30 31  1  0
 31 32  2  0
 32 33  1  0
 33 34  2  0
 16 35  2  0
  9 36  1  0
 36 37  1  0
 37  6  1  0
 35 12  1  0
 34 24  1  0
 34 29  1  0
  1 38  1  0
  1 39  1  0
  1 40  1  0
  2 41  1  0
  2 42  1  0
  7 43  1  0
  7 44  1  0
  8 45  1  0
  8 46  1  0
 13 47  1  0
 14 48  1  0
 15 49  1  0
 20 50  1  0
 21 51  1  0
 21 52  1  0
 25 53  1  0
 25 54  1  0
 30 55  1  0
 31 56  1  0
 32 57  1  0
 33 58  1  0
 35 59  1  0
 36 60  1  0
 36 61  1  0
 37 62  1  0
 37 63  1  0
M  CHG  1  28  -1
M  END
>  <UniqueID>  (29) 
27

>  <SMILES>  (29) 
CCOC(=O)N1CCN(C(=O)c2cccc(S(=O)(=O)NCC(=O)N3CC(=O)[N-]c4ccccc43)c2)CC1

>  <Energy>  (29) 
70.58660055898767

>  <Genealogy>  (29) 
CCOC(=O)N1CCN(C(=O)c2cccc(S(=O)(=O)NCC(=O)N3CC(=O)[N-]c4ccccc43)c2)CC1 (protonated)
CCOC(=O)N1CCN(C(=O)c2cccc(S(=O)(=O)NCC(=O)N3CC(=O)[N-]c4ccccc43)c2)CC1 (3D coordinates assigned)
CCOC(=O)N1CCN(C(=O)c2cccc(S(=O)(=O)NCC(=O)N3CC(=O)[N-]c4ccccc43)c2)CC1 (nonaromatic ring conformer: 70.58660055898767 kcal/mol)

>  <smiles>  (29) 
CCOC(=O)N1CCN(C(=O)c2cccc(S(=O)(=O)NCC(=O)N3CC(=O)Nc4ccccc43)c2)CC1

>  <score_type>  (29) 
oracle

>  <origin>  (29) 
adg

>  <m_score__min__energy>  (29) 
-13.039999999999999

>  <m_primary>  (29) 
energy

$$$$
29:0
     RDKit          3D

 59 63  0  0  0  0  0  0  0  0999 V2000
   61.1110   33.1580   48.4920 O   0  0  0  0  0  0  0  0  0  0  0  0
   61.0010   32.1400   49.5920 S   0  0  0  0  0  0  0  0  0  0  0  0
   62.3310   32.0210   50.2850 O   0  0  0  0  0  0  0  0  0  0  0  0
   59.7540   32.6500   50.7250 C   0  0  0  0  0  0  0  0  0  0  0  0
   59.9000   33.8320   51.4660 C   0  0  0  0  0  0  0  0  0  0  0  0
   58.9060   34.2190   52.3700 C   0  0  0  0  0  0  0  0  0  0  0  0
   57.7620   33.4290   52.5360 C   0  0  0  0  0  0  0  0  0  0  0  0
   57.6100   32.2510   51.7950 C   0  0  0  0  0  0  0  0  0  0  0  0
   56.1740   31.2610   51.9990 Cl  0  0  0  0  0  0  0  0  0  0  0  0
   58.6050   31.8620   50.8900 C   0  0  0  0  0  0  0  0  0  0  0  0
   60.5720   30.5970   48.9300 N   0  0  0  0  0  0  0  0  0  0  0  0
   59.9350   30.3850   47.7570 C   0  0  0  0  0  0  0  0  0  0  0  0
   59.7120   29.0230   47.5720 C   0  0  0  0  0  0  0  0  0  0  0  0
   59.0290   28.4060   46.4140 C   0  0  0  0  0  0  0  0  0  0  0  0
   59.5900   28.4530   45.1980 C   0  0  0  0  0  0  0  0  0  0  0  0
   58.9310   27.8210   44.0120 C   0  0  0  0  0  0  0  0  0  0  0  0
   57.4620   27.8730   44.1140 N   0  0  2  0  0  0  0  0  0  0  0  0
   56.8350   29.5080   43.9470 S   0  0  0  0  0  0  0  0  0  0  0  0
   55.9020   29.6150   42.7710 O   0  0  0  0  0  0  0  0  0  0  0  0
   56.0870   29.9120   45.1870 O   0  0  0  0  0  0  0  0  0  0  0  0
   58.1830   30.6630   43.7250 C   0  0  0  0  0  0  0  0  0  0  0  0
   58.0080   31.8710   44.6010 C   0  0  0  0  0  0  0  0  0  0  0  0
   57.7770   33.1360   44.0340 C   0  0  0  0  0  0  0  0  0  0  0  0
   57.5720   34.2500   44.8540 C   0  0  0  0  0  0  0  0  0  0  0  0
   57.5960   34.1100   46.2440 C   0  0  0  0  0  0  0  0  0  0  0  0
   57.8240   32.8570   46.8160 C   0  0  0  0  0  0  0  0  0  0  0  0
   58.0280   31.7390   46.0010 C   0  0  0  0  0  0  0  0  0  0  0  0
   57.0030   27.2100   45.3530 C   0  0  0  0  0  0  0  0  0  0  0  0
   57.6980   27.7250   46.6380 C   0  0  0  0  0  0  0  0  0  0  0  0
   60.2620   28.3970   48.6830 C   0  0  0  0  0  0  0  0  0  0  0  0
   60.3930   27.0460   49.0170 C   0  0  0  0  0  0  0  0  0  0  0  0
   61.0270   26.7250   50.2300 C   0  0  0  0  0  0  0  0  0  0  0  0
   61.5230   27.7440   51.0700 C   0  0  0  0  0  0  0  0  0  0  0  0
   61.4010   29.0940   50.7010 C   0  0  0  0  0  0  0  0  0  0  0  0
   60.7680   29.3880   49.4890 C   0  0  0  0  0  0  0  0  0  0  0  0
   60.7972   34.4550   51.3358 H   0  0  0  0  0  0  0  0  0  0  0  0
   59.0229   35.1454   52.9515 H   0  0  0  0  0  0  0  0  0  0  0  0
   56.9821   33.7342   53.2492 H   0  0  0  0  0  0  0  0  0  0  0  0
   58.4856   30.9367   50.3072 H   0  0  0  0  0  0  0  0  0  0  0  0
   59.6361   31.1738   47.0510 H   0  0  0  0  0  0  0  0  0  0  0  0
   60.5542   28.9664   45.0688 H   0  0  0  0  0  0  0  0  0  0  0  0
   59.2445   28.3552   43.1030 H   0  0  0  0  0  0  0  0  0  0  0  0
   59.2352   26.7646   43.9726 H   0  0  0  0  0  0  0  0  0  0  0  0
   57.0830   27.3250   43.3070 H   0  0  0  0  0  0  0  0  0  0  0  0
   59.1292   30.1653   43.9837 H   0  0  0  0  0  0  0  0  0  0  0  0
   58.1939   30.9906   42.6750 H   0  0  0  0  0  0  0  0  0  0  0  0
   57.7574   33.2503   42.9401 H   0  0  0  0  0  0  0  0  0  0  0  0
   57.3917   35.2375   44.4043 H   0  0  0  0  0  0  0  0  0  0  0  0
   57.4352   34.9873   46.8878 H   0  0  0  0  0  0  0  0  0  0  0  0
   57.8432   32.7489   47.9105 H   0  0  0  0  0  0  0  0  0  0  0  0
   58.2046   30.7534   46.4564 H   0  0  0  0  0  0  0  0  0  0  0  0
   55.9206   27.3776   45.4543 H   0  0  0  0  0  0  0  0  0  0  0  0
   57.2597   26.1446   45.2576 H   0  0  0  0  0  0  0  0  0  0  0  0
   57.0240   28.4447   47.1257 H   0  0  0  0  0  0  0  0  0  0  0  0
   57.9061   26.8368   47.2526 H   0  0  0  0  0  0  0  0  0  0  0  0
   60.0116   26.2580   48.3510 H   0  0  0  0  0  0  0  0  0  0  0  0
   61.1371   25.6714   50.5263 H   0  0  0  0  0  0  0  0  0  0  0  0
   62.0088   27.4796   52.0208 H   0  0  0  0  0  0  0  0  0  0  0  0
   61.7914   29.8953   51.3456 H   0  0  0  0  0  0  0  0  0  0  0  0
  1  2  2  0
  2  3  2  0
  2  4  1  0
  4  5  2  0
  5  6  1  0
  6  7  2  0
  7  8  1  0
  8  9  1  0
  8 10  2  0
  2 11  1  0
 11 12  1  0
 12 13  2  0
 13 14  1  0
 14 15  2  0
 15 16  1  0
 16 17  1  0
 17 18  1  0
 18 19  2  0
 18 20  2  0
 18 21  1  0
 21 22  1  0
 22 23  2  0
 23 24  1  0
 24 25  2  0
 25 26  1  0
 26 27  2  0
 17 28  1  0
 28 29  1  0
 13 30  1  0
 30 31  2  0
 31 32  1  0
 32 33  2  0
 33 34  1  0
 34 35  2  0
 10  4  1  0
 35 11  1  0
 29 14  1  0
 35 30  1  0
 27 22  1  0
  5 36  1  0
  6 37  1  0
  7 38  1  0
 10 39  1  0
 12 40  1  0
 15 41  1  0
 16 42  1  0
 16 43  1  0
 17 44  1  6
 21 45  1  0
 21 46  1  0
 23 47  1  0
 24 48  1  0
 25 49  1  0
 26 50  1  0
 27 51  1  0
 28 52  1  0
 28 53  1  0
 29 54  1  0
 29 55  1  0
 31 56  1  0
 32 57  1  0
 33 58  1  0
 34 59  1  0
M  CHG  1  17   1
M  END
>  <UniqueID>  (30) 
28

>  <SMILES>  (30) 
O=S(=O)(c1cccc(Cl)c1)n1cc(C2=CC[N@H+](S(=O)(=O)Cc3ccccc3)CC2)c2ccccc21

>  <Energy>  (30) 
103.43315479610382

>  <Genealogy>  (30) 
O=S(=O)(c1cccc(Cl)c1)n1cc(C2=CC[NH+](S(=O)(=O)Cc3ccccc3)CC2)c2ccccc21 (protonated)
O=S(=O)(c1cccc(Cl)c1)n1cc(C2=CC[N@H+](S(=O)(=O)Cc3ccccc3)CC2)c2ccccc21 (chirality)
O=S(=O)(c1cccc(Cl)c1)n1cc(C2=CC[N@H+](S(=O)(=O)Cc3ccccc3)CC2)c2ccccc21 (3D coordinates assigned)
O=S(=O)(c1cccc(Cl)c1)n1cc(C2=CC[N@H+](S(=O)(=O)Cc3ccccc3)CC2)c2ccccc21 (nonaromatic ring conformer: 103.43315479610382 kcal/mol)

>  <smiles>  (30) 
O=S(=O)(Cc1ccccc1)N1CC=C(c2cn(S(=O)(=O)c3cccc(Cl)c3)c3ccccc23)CC1

>  <score_type>  (30) 
oracle

>  <origin>  (30) 
adg

>  <m_score__min__energy>  (30) 
-10.27

>  <m_primary>  (30) 
energy

$$$$
30:0
     RDKit          3D

 37 39  0  0  0  0  0  0  0  0999 V2000
   58.6331   31.2528   44.0648 H   0  0  0  0  0  0  0  0  0  0  0  0
   58.3590   30.2120   44.2920 C   0  0  0  0  0  0  0  0  0  0  0  0
   58.0587   29.5327   43.4806 H   0  0  0  0  0  0  0  0  0  0  0  0
   58.3910   29.7710   45.5590 C   0  0  0  0  0  0  0  0  0  0  0  0
   58.0740   28.4810   46.0200 C   0  0  0  0  0  0  0  0  0  0  0  0
   57.5140   27.4280   45.3920 C   0  0  0  0  0  0  0  0  0  0  0  0
   57.2878   27.5433   44.3217 H   0  0  0  0  0  0  0  0  0  0  0  0
   57.1780   26.1330   46.0170 C   0  0  0  0  0  0  0  0  0  0  0  0
   55.8410   25.8000   46.2780 C   0  0  0  0  0  0  0  0  0  0  0  0
   54.8200   26.7030   46.0010 O   0  0  0  0  0  0  0  0  0  0  0  0
   55.5370   24.5910   46.8150 N   0  0  0  0  0  0  0  0  0  0  0  0
   56.5070   23.6820   47.0920 C   0  0  0  0  0  0  0  0  0  0  0  0
   56.2010   22.5700   47.5940 O   0  0  0  0  0  0  0  0  0  0  0  0
   57.8060   23.9700   46.8230 N   0  0  0  0  0  0  0  0  0  0  0  0
   58.1620   25.1660   46.2860 C   0  0  0  0  0  0  0  0  0  0  0  0
   59.3750   25.3900   46.0280 O   0  0  0  0  0  0  0  0  0  0  0  0
   58.4450   28.4450   47.3550 C   0  0  0  0  0  0  0  0  0  0  0  0
   58.3800   27.5786   48.0297 H   0  0  0  0  0  0  0  0  0  0  0  0
   58.9110   29.7020   47.6760 C   0  0  0  0  0  0  0  0  0  0  0  0
   59.4050   30.1040   49.0330 C   0  0  0  0  0  0  0  0  0  0  0  0
   58.7976   29.6098   49.8056 H   0  0  0  0  0  0  0  0  0  0  0  0
   60.4568   29.8020   49.1446 H   0  0  0  0  0  0  0  0  0  0  0  0
   59.3230   31.1952   49.1446 H   0  0  0  0  0  0  0  0  0  0  0  0
   58.8810   30.5060   46.5910 N   0  0  0  0  0  0  0  0  0  0  0  0
   59.3080   31.8800   46.5520 C   0  0  0  0  0  0  0  0  0  0  0  0
   58.3880   32.8990   46.2680 C   0  0  0  0  0  0  0  0  0  0  0  0
   57.3339   32.6481   46.0783 H   0  0  0  0  0  0  0  0  0  0  0  0
   58.8040   34.2300   46.2250 C   0  0  0  0  0  0  0  0  0  0  0  0
   58.0773   35.0252   46.0025 H   0  0  0  0  0  0  0  0  0  0  0  0
   60.1420   34.5550   46.4640 C   0  0  0  0  0  0  0  0  0  0  0  0
   60.4636   35.6063   46.4282 H   0  0  0  0  0  0  0  0  0  0  0  0
   61.0800   33.5470   46.7500 C   0  0  0  0  0  0  0  0  0  0  0  0
   62.4980   33.8840   47.0040 C   0  0  0  0  0  0  0  0  0  0  0  0
   62.8830   34.2010   48.1610 O   0  0  0  0  0  0  0  0  0  0  0  0
   63.4260   33.8560   45.9690 O   0  0  0  0  0  0  0  0  0  0  0  0
   60.6520   32.2070   46.7900 C   0  0  0  0  0  0  0  0  0  0  0  0
   61.3768   31.4092   47.0096 H   0  0  0  0  0  0  0  0  0  0  0  0
  1  2  1  0
  2  3  1  0
  2  4  2  0
  4  5  1  0
  5  6  2  0
  6  7  1  0
  6  8  1  0
  8  9  2  0
  9 10  1  0
  9 11  1  0
 11 12  1  0
 12 13  2  0
 12 14  1  0
 14 15  1  0
 15 16  2  0
  5 17  1  0
 17 18  1  0
 17 19  2  0
 19 20  1  0
 20 21  1  0
 20 22  1  0
 20 23  1  0
 19 24  1  0
 24 25  1  0
 25 26  2  0
 26 27  1  0
 26 28  1  0
 28 29  1  0
 28 30  2  0
 30 31  1  0
 30 32  1  0
 32 33  1  0
 33 34  2  0
 33 35  1  0
 32 36  2  0
 36 37  1  0
 24  4  1  0
 36 25  1  0
 15  8  1  0
M  CHG  4  10  -1  11  -1  14  -1  35  -1
M  END
>  <UniqueID>  (31) 
29

>  <SMILES>  (31) 
C=c1/c(=C\c2c([O-])[n-]c(=O)[n-]c2=O)cc(C)n1-c1cccc(C(=O)[O-])c1

>  <Energy>  (31) 
89.39782844604056

>  <Genealogy>  (31) 
C=c1c(=Cc2c([O-])[n-]c(=O)[n-]c2=O)cc(C)n1-c1cccc(C(=O)[O-])c1 (protonated)
C=c1/c(=C\c2c([O-])[n-]c(=O)[n-]c2=O)cc(C)n1-c1cccc(C(=O)[O-])c1 (cis-trans isomerization)
C=c1/c(=C\c2c([O-])[n-]c(=O)[n-]c2=O)cc(C)n1-c1cccc(C(=O)[O-])c1 (3D coordinates assigned)
C=c1/c(=C\c2c([O-])[n-]c(=O)[n-]c2=O)cc(C)n1-c1cccc(C(=O)[O-])c1 (optimized conformer: 89.39782844604056 kcal/mol)

>  <smiles>  (31) 
C=c1c(=Cc2c(O)[nH]c(=O)[nH]c2=O)cc(C)n1-c1cccc(C(=O)O)c1

>  <score_type>  (31) 
oracle

>  <origin>  (31) 
adg

>  <m_score__min__energy>  (31) 
-16.260000000000002

>  <m_primary>  (31) 
energy

$$$$
31:0
     RDKit          3D

 72 76  0  0  1  0  0  0  0  0999 V2000
   55.5740   29.7130   43.7290 C   0  0  0  0  0  0  0  0  0  0  0  0
   55.5210   28.9170   44.8570 O   0  0  0  0  0  0  0  0  0  0  0  0
   56.5570   28.4230   45.6090 C   0  0  0  0  0  0  0  0  0  0  0  0
   57.5780   29.2810   45.9550 C   0  0  0  0  0  0  0  0  0  0  0  0
   58.6580   28.8260   46.7210 C   0  0  0  0  0  0  0  0  0  0  0  0
   58.7440   27.5240   47.1570 C   0  0  0  0  0  0  0  0  0  0  0  0
   57.6930   26.6900   46.7870 C   0  0  0  0  0  0  0  0  0  0  0  0
   56.6280   27.0970   46.0420 C   0  0  0  0  0  0  0  0  0  0  0  0
   55.5700   26.2850   45.6630 O   0  0  0  0  0  0  0  0  0  0  0  0
   55.6980   24.8850   45.6190 C   0  0  0  0  0  0  0  0  0  0  0  0
   59.8790   27.0060   47.9870 C   0  0  0  0  0  0  0  0  0  0  0  0
   60.5750   28.1470   48.4850 N   0  0  0  0  0  0  0  0  0  0  0  0
   60.9240   28.4390   49.8120 C   0  0  0  0  0  0  0  0  0  0  0  0
   61.3790   29.6560   50.2330 N   0  0  0  0  0  0  0  0  0  0  0  0
   61.6680   29.8860   51.5070 C   0  0  0  0  0  0  0  0  0  0  0  0
   62.1010   31.0370   51.9710 N   0  0  0  0  0  0  0  0  0  0  0  0
   62.8350   31.8920   51.0540 C   0  0  0  0  0  0  0  0  0  0  0  0
   64.0590   32.3520   51.5010 C   0  0  0  0  0  0  0  0  0  0  0  0
   64.7820   33.1450   50.6000 C   0  0  0  0  0  0  0  0  0  0  0  0
   64.2820   33.4370   49.3430 C   0  0  0  0  0  0  0  0  0  0  0  0
   63.0610   32.9760   48.9070 C   0  0  0  0  0  0  0  0  0  0  0  0
   62.3830   33.2790   47.3470 S   0  0  0  0  0  0  0  0  0  0  0  0
   63.4450   33.7910   46.4360 O   0  0  0  0  0  0  0  0  0  0  0  0
   61.9970   31.9180   46.7520 O   0  0  0  0  0  0  0  0  0  0  0  0
   60.9660   34.2070   47.3390 N   0  0  0  0  0  0  0  0  0  0  0  0
   60.0680   33.7880   48.3630 C   0  0  0  0  0  0  0  0  0  0  0  0
   58.8630   33.0220   47.8920 C   0  0  0  0  0  0  0  0  0  0  0  0
   58.1150   33.6490   46.8510 N   0  0  0  0  0  0  0  0  0  0  0  0
   57.5170   32.7760   45.8920 C   0  0  0  0  0  0  0  0  0  0  0  0
   58.8930   34.6650   46.2220 C   0  0  0  0  0  0  0  0  0  0  0  0
   60.3500   34.3120   46.0360 C   0  0  0  0  0  0  0  0  0  0  0  0
   62.3460   32.1890   49.8040 C   0  0  0  0  0  0  0  0  0  0  0  0
   61.4980   28.8560   52.4070 C   0  0  0  0  0  0  0  0  0  0  0  0
   61.0370   27.5950   52.0220 C   0  0  0  0  0  0  0  0  0  0  0  0
   60.8690   26.5020   53.0220 C   0  0  0  0  0  0  0  0  0  0  0  0
   60.7620   27.4300   50.7190 N   0  0  0  0  0  0  0  0  0  0  0  0
   60.9650   29.1540   47.4770 C   0  0  0  0  0  0  0  0  0  0  0  0
   59.7010   29.8630   47.0060 C   0  0  0  0  0  0  0  0  0  0  0  0
   55.6443   30.7691   44.0285 H   0  0  0  0  0  0  0  0  0  0  0  0
   56.4561   29.4422   43.1302 H   0  0  0  0  0  0  0  0  0  0  0  0
   54.6638   29.5615   43.1302 H   0  0  0  0  0  0  0  0  0  0  0  0
   57.5444   30.3305   45.6272 H   0  0  0  0  0  0  0  0  0  0  0  0
   57.7243   25.6407   47.1155 H   0  0  0  0  0  0  0  0  0  0  0  0
   55.7343   24.4877   46.6441 H   0  0  0  0  0  0  0  0  0  0  0  0
   54.8355   24.4544   45.0892 H   0  0  0  0  0  0  0  0  0  0  0  0
   56.6243   24.6180   45.0892 H   0  0  0  0  0  0  0  0  0  0  0  0
   59.4937   26.4024   48.8220 H   0  0  0  0  0  0  0  0  0  0  0  0
   60.5450   26.3645   47.3912 H   0  0  0  0  0  0  0  0  0  0  0  0
   64.4425   32.1103   52.5033 H   0  0  0  0  0  0  0  0  0  0  0  0
   65.7639   33.5423   50.8969 H   0  0  0  0  0  0  0  0  0  0  0  0
   64.8838   34.0616   48.6664 H   0  0  0  0  0  0  0  0  0  0  0  0
   60.6256   33.1469   49.0616 H   0  0  0  0  0  0  0  0  0  0  0  0
   59.6804   34.7098   48.8212 H   0  0  0  0  0  0  0  0  0  0  0  0
   59.2041   32.0430   47.5242 H   0  0  0  0  0  0  0  0  0  0  0  0
   58.1864   32.9542   48.7567 H   0  0  0  0  0  0  0  0  0  0  0  0
   56.9699   31.9773   46.4142 H   0  0  0  0  0  0  0  0  0  0  0  0
   56.8193   33.3467   45.2615 H   0  0  0  0  0  0  0  0  0  0  0  0
   58.3012   32.3316   45.2615 H   0  0  0  0  0  0  0  0  0  0  0  0
   58.4590   34.8666   45.2315 H   0  0  0  0  0  0  0  0  0  0  0  0
   58.8651   35.5391   46.8892 H   0  0  0  0  0  0  0  0  0  0  0  0
   60.4345   33.3512   45.5071 H   0  0  0  0  0  0  0  0  0  0  0  0
   60.8535   35.0893   45.4425 H   0  0  0  0  0  0  0  0  0  0  0  0
   61.3638   31.7941   49.5053 H   0  0  0  0  0  0  0  0  0  0  0  0
   61.7339   29.0335   53.4666 H   0  0  0  0  0  0  0  0  0  0  0  0
   60.9334   26.9207   54.0371 H   0  0  0  0  0  0  0  0  0  0  0  0
   59.8871   26.0259   52.8833 H   0  0  0  0  0  0  0  0  0  0  0  0
   61.6626   25.7530   52.8833 H   0  0  0  0  0  0  0  0  0  0  0  0
   60.4180   26.4850   50.4340 H   0  0  0  0  0  0  0  0  0  0  0  0
   61.6566   29.8825   47.9253 H   0  0  0  0  0  0  0  0  0  0  0  0
   61.4701   28.6695   46.6284 H   0  0  0  0  0  0  0  0  0  0  0  0
   59.3426   30.5450   47.7912 H   0  0  0  0  0  0  0  0  0  0  0  0
   59.9108   30.4486   46.0988 H   0  0  0  0  0  0  0  0  0  0  0  0
  1  2  1  0
  2  3  1  0
  3  4  2  0
  4  5  1  0
  5  6  2  0
  6  7  1  0
  7  8  2  0
  8  9  1  0
  9 10  1  0
  6 11  1  0
 11 12  1  0
 12 13  1  0
 13 14  2  0
 14 15  1  0
 15 16  2  0
 16 17  1  0
 17 18  2  0
 18 19  1  0
 19 20  2  0
 20 21  1  0
 21 22  1  0
 22 23  2  0
 22 24  2  0
 22 25  1  0
 25 26  1  0
 26 27  1  0
 27 28  1  0
 28 29  1  0
 28 30  1  0
 30 31  1  0
 21 32  2  0
 15 33  1  0
 33 34  2  0
 34 35  1  0
 34 36  1  0
 12 37  1  0
 37 38  1  0
  8  3  1  0
 36 13  1  0
 38  5  1  0
 32 17  1  0
 31 25  1  0
  1 39  1  0
  1 40  1  0
  1 41  1  0
  4 42  1  0
  7 43  1  0
 10 44  1  0
 10 45  1  0
 10 46  1  0
 11 47  1  0
 11 48  1  0
 18 49  1  0
 19 50  1  0
 20 51  1  0
 26 52  1  0
 26 53  1  0
 27 54  1  0
 27 55  1  0
 29 56  1  0
 29 57  1  0
 29 58  1  0
 30 59  1  0
 30 60  1  0
 31 61  1  0
 31 62  1  0
 32 63  1  0
 33 64  1  0
 35 65  1  0
 35 66  1  0
 35 67  1  0
 36 68  1  0
 37 69  1  0
 37 70  1  0
 38 71  1  0
 38 72  1  0
M  END
>  <smiles>  (32) 
COc1cc2c(cc1OC)CN(c1nc(=Nc3cccc(S(=O)(=O)N4CCN(C)CC4)c3)cc(C)[nH]1)CC2

>  <score_type>  (32) 
oracle

>  <origin>  (32) 
adg

>  <m_score__min__energy>  (32) 
-11.49

>  <m_primary>  (32) 
energy

$$$$
32:0
     RDKit          3D

 63 66  0  0  0  0  0  0  0  0999 V2000
   59.1240   26.1350   45.7220 O   0  0  0  0  0  0  0  0  0  0  0  0
   58.0940   25.8470   45.0520 C   0  0  0  0  0  0  0  0  0  0  0  0
   57.1720   26.8870   44.6850 N   0  0  0  0  0  0  0  0  0  0  0  0
   57.5080   28.2830   44.7340 C   0  0  0  0  0  0  0  0  0  0  0  0
   58.8570   28.6630   44.7560 C   0  0  0  0  0  0  0  0  0  0  0  0
   59.2130   30.0130   44.8080 C   0  0  0  0  0  0  0  0  0  0  0  0
   58.2220   31.0050   44.8600 C   0  0  0  0  0  0  0  0  0  0  0  0
   58.5960   32.4630   44.9090 C   0  0  0  0  0  0  0  0  0  0  0  0
   59.0700   32.8270   46.2590 N   0  0  0  0  0  0  0  0  0  0  0  0
   58.2220   32.2230   47.3060 C   0  0  0  0  0  0  0  0  0  0  0  0
   58.8710   32.3950   48.6930 C   0  0  0  0  0  0  0  0  0  0  0  0
   59.8710   33.5740   48.7370 C   0  0  0  0  0  0  0  0  0  0  0  0
   60.1530   33.9950   50.1620 C   0  0  0  0  0  0  0  0  0  0  0  0
   59.2050   34.2110   50.9640 O   0  0  0  0  0  0  0  0  0  0  0  0
   61.5040   34.2220   50.5770 N   0  0  0  0  0  0  0  0  0  0  0  0
   62.5270   33.1780   50.6270 C   0  0  0  0  0  0  0  0  0  0  0  0
   63.8850   33.7510   50.1470 C   0  0  0  0  0  0  0  0  0  0  0  0
   64.7560   32.6790   49.4830 C   0  0  0  0  0  0  0  0  0  0  0  0
   64.0680   32.0860   48.2370 C   0  0  0  0  0  0  0  0  0  0  0  0
   62.5280   32.0590   48.3380 C   0  0  0  0  0  0  0  0  0  0  0  0
   62.0590   31.9630   49.7930 C   0  0  0  0  0  0  0  0  0  0  0  0
   59.3510   34.7390   47.8730 C   0  0  0  0  0  0  0  0  0  0  0  0
   59.1040   34.3000   46.4110 C   0  0  0  0  0  0  0  0  0  0  0  0
   56.8700   30.6270   44.8630 C   0  0  0  0  0  0  0  0  0  0  0  0
   56.5100   29.2760   44.8130 C   0  0  0  0  0  0  0  0  0  0  0  0
   55.1630   28.9310   44.8680 O   0  0  0  0  0  0  0  0  0  0  0  0
   57.8280   24.4330   44.6890 C   0  0  0  0  0  0  0  0  0  0  0  0
   58.5740   23.3970   45.2830 C   0  0  0  0  0  0  0  0  0  0  0  0
   58.3270   22.0610   44.9440 C   0  0  0  0  0  0  0  0  0  0  0  0
   57.3430   21.7460   44.0040 C   0  0  0  0  0  0  0  0  0  0  0  0
   56.6050   22.7660   43.3980 C   0  0  0  0  0  0  0  0  0  0  0  0
   56.8450   24.1030   43.7350 C   0  0  0  0  0  0  0  0  0  0  0  0
   56.1660   26.6320   44.5690 H   0  0  0  0  0  0  0  0  0  0  0  0
   59.6415   27.8923   44.7321 H   0  0  0  0  0  0  0  0  0  0  0  0
   60.2750   30.2995   44.8082 H   0  0  0  0  0  0  0  0  0  0  0  0
   59.3960   32.6568   44.1793 H   0  0  0  0  0  0  0  0  0  0  0  0
   57.7094   33.0674   44.6668 H   0  0  0  0  0  0  0  0  0  0  0  0
   57.2382   32.7150   47.3033 H   0  0  0  0  0  0  0  0  0  0  0  0
   58.1098   31.1489   47.0968 H   0  0  0  0  0  0  0  0  0  0  0  0
   58.0781   32.5772   49.4333 H   0  0  0  0  0  0  0  0  0  0  0  0
   59.4297   31.4743   48.9170 H   0  0  0  0  0  0  0  0  0  0  0  0
   60.8312   33.2464   48.3120 H   0  0  0  0  0  0  0  0  0  0  0  0
   62.6745   32.8298   51.6600 H   0  0  0  0  0  0  0  0  0  0  0  0
   63.6948   34.5547   49.4204 H   0  0  0  0  0  0  0  0  0  0  0  0
   64.4245   34.1309   51.0271 H   0  0  0  0  0  0  0  0  0  0  0  0
   65.7126   33.1312   49.1823 H   0  0  0  0  0  0  0  0  0  0  0  0
   64.9180   31.8674   50.2077 H   0  0  0  0  0  0  0  0  0  0  0  0
   64.3490   32.6916   47.3628 H   0  0  0  0  0  0  0  0  0  0  0  0
   64.4046   31.0426   48.1474 H   0  0  0  0  0  0  0  0  0  0  0  0
   62.1251   32.9809   47.8933 H   0  0  0  0  0  0  0  0  0  0  0  0
   62.1639   31.1712   47.8003 H   0  0  0  0  0  0  0  0  0  0  0  0
   60.9600   31.9205   49.8110 H   0  0  0  0  0  0  0  0  0  0  0  0
   62.4963   31.0555   50.2347 H   0  0  0  0  0  0  0  0  0  0  0  0
   58.4057   35.1053   48.2999 H   0  0  0  0  0  0  0  0  0  0  0  0
   60.1145   35.5309   47.8692 H   0  0  0  0  0  0  0  0  0  0  0  0
   58.1400   34.7114   46.0772 H   0  0  0  0  0  0  0  0  0  0  0  0
   59.9381   34.6796   45.8026 H   0  0  0  0  0  0  0  0  0  0  0  0
   56.0876   31.3991   44.9050 H   0  0  0  0  0  0  0  0  0  0  0  0
   59.3558   23.6387   46.0181 H   0  0  0  0  0  0  0  0  0  0  0  0
   58.9092   21.2577   45.4191 H   0  0  0  0  0  0  0  0  0  0  0  0
   57.1492   20.6956   43.7410 H   0  0  0  0  0  0  0  0  0  0  0  0
   55.8335   22.5176   42.6543 H   0  0  0  0  0  0  0  0  0  0  0  0
   56.2625   24.9013   43.2520 H   0  0  0  0  0  0  0  0  0  0  0  0
  1  2  2  0
  2  3  1  0
  3  4  1  0
  4  5  2  0
  5  6  1  0
  6  7  2  0
  7  8  1  0
  8  9  1  0
  9 10  1  0
 10 11  1  0
 11 12  1  0
 12 13  1  0
 13 14  2  0
 13 15  1  0
 15 16  1  0
 16 17  1  0
 17 18  1  0
 18 19  1  0
 19 20  1  0
 20 21  1  0
 12 22  1  0
 22 23  1  0
  7 24  1  0
 24 25  2  0
 25 26  1  0
  2 27  1  0
 27 28  2  0
 28 29  1  0
 29 30  2  0
 30 31  1  0
 31 32  2  0
 25  4  1  0
 32 27  1  0
 23  9  1  0
 21 16  1  0
  3 33  1  0
  5 34  1  0
  6 35  1  0
  8 36  1  0
  8 37  1  0
 10 38  1  0
 10 39  1  0
 11 40  1  0
 11 41  1  0
 12 42  1  0
 16 43  1  0
 17 44  1  0
 17 45  1  0
 18 46  1  0
 18 47  1  0
 19 48  1  0
 19 49  1  0
 20 50  1  0
 20 51  1  0
 21 52  1  0
 21 53  1  0
 22 54  1  0
 22 55  1  0
 23 56  1  0
 23 57  1  0
 24 58  1  0
 28 59  1  0
 29 60  1  0
 30 61  1  0
 31 62  1  0
 32 63  1  0
M  CHG  2  15  -1  26  -1
M  END
>  <UniqueID>  (33) 
30

>  <SMILES>  (33) 
O=C(Nc1ccc(CN2CCC(C(=O)[N-]C3CCCCC3)CC2)cc1[O-])c1ccccc1

>  <Energy>  (33) 
78.1041699135689

>  <Genealogy>  (33) 
O=C(Nc1ccc(CN2CCC(C(=O)[N-]C3CCCCC3)CC2)cc1[O-])c1ccccc1 (protonated)
O=C(Nc1ccc(CN2CCC(C(=O)[N-]C3CCCCC3)CC2)cc1[O-])c1ccccc1 (3D coordinates assigned)
O=C(Nc1ccc(CN2CCC(C(=O)[N-]C3CCCCC3)CC2)cc1[O-])c1ccccc1 (nonaromatic ring conformer: 78.1041699135689 kcal/mol)

>  <smiles>  (33) 
O=C(Nc1ccc(CN2CCC(C(=O)NC3CCCCC3)CC2)cc1O)c1ccccc1

>  <score_type>  (33) 
oracle

>  <origin>  (33) 
adg

>  <m_score__min__energy>  (33) 
-14.34

>  <m_primary>  (33) 
energy

$$$$
33:0
     RDKit          3D

 69 73  0  0  0  0  0  0  0  0999 V2000
   55.1650   29.4790   44.8750 O   0  0  0  0  0  0  0  0  0  0  0  0
   56.3970   29.2220   44.9390 C   0  0  0  0  0  0  0  0  0  0  0  0
   56.8280   27.8230   45.2740 C   0  0  0  0  0  0  0  0  0  0  0  0
   57.4380   27.8050   46.6000 N   0  0  0  0  0  0  0  0  0  0  0  0
   59.1370   27.4670   46.4560 S   0  0  0  0  0  0  0  0  0  0  0  0
   59.4370   26.1430   47.1050 O   0  0  0  0  0  0  0  0  0  0  0  0
   59.5310   27.4080   45.0050 O   0  0  0  0  0  0  0  0  0  0  0  0
   60.0480   28.7490   47.2440 C   0  0  0  0  0  0  0  0  0  0  0  0
   60.4930   29.8460   46.4920 C   0  0  0  0  0  0  0  0  0  0  0  0
   61.2340   30.8640   47.1050 C   0  0  0  0  0  0  0  0  0  0  0  0
   61.5300   30.7890   48.4710 C   0  0  0  0  0  0  0  0  0  0  0  0
   61.0910   29.6940   49.2230 C   0  0  0  0  0  0  0  0  0  0  0  0
   60.3530   28.6750   48.6110 C   0  0  0  0  0  0  0  0  0  0  0  0
   57.3360   30.2670   44.6330 N   0  0  0  0  0  0  0  0  0  0  0  0
   57.4290   31.4360   45.1980 C   0  0  0  0  0  0  0  0  0  0  0  0
   57.9480   31.5260   46.4510 N   0  0  0  0  0  0  0  0  0  0  0  0
   58.0760   32.7200   47.0950 C   0  0  0  0  0  0  0  0  0  0  0  0
   58.6020   32.7410   48.4870 C   0  0  0  0  0  0  0  0  0  0  0  0
   58.4660   31.6290   49.3410 C   0  0  0  0  0  0  0  0  0  0  0  0
   59.0120   31.6490   50.6270 C   0  0  0  0  0  0  0  0  0  0  0  0
   59.7230   32.7680   51.0810 C   0  0  0  0  0  0  0  0  0  0  0  0
   60.3370   32.7680   52.4250 C   0  0  0  0  0  0  0  0  0  0  0  0
   59.6670   33.1940   53.4060 O   0  0  0  0  0  0  0  0  0  0  0  0
   61.6820   32.3000   52.6350 N   0  0  0  0  0  0  0  0  0  0  0  0
   62.5130   32.9310   53.6640 C   0  0  0  0  0  0  0  0  0  0  0  0
   63.9090   32.2900   53.7110 C   0  0  0  0  0  0  0  0  0  0  0  0
   64.4590   32.0460   52.3570 N   0  0  0  0  0  0  0  0  0  0  0  0
   64.9050   33.2840   51.6800 C   0  0  0  0  0  0  0  0  0  0  0  0
   64.2330   33.4450   50.3410 C   0  0  0  0  0  0  0  0  0  0  0  0
   64.7330   32.7630   49.2180 C   0  0  0  0  0  0  0  0  0  0  0  0
   64.1120   32.9060   47.9740 C   0  0  0  0  0  0  0  0  0  0  0  0
   62.9890   33.7260   47.8420 C   0  0  0  0  0  0  0  0  0  0  0  0
   62.4900   34.4140   48.9520 C   0  0  0  0  0  0  0  0  0  0  0  0
   63.1080   34.2750   50.1980 C   0  0  0  0  0  0  0  0  0  0  0  0
   63.5720   31.2210   51.4870 C   0  0  0  0  0  0  0  0  0  0  0  0
   62.1430   31.0500   52.0230 C   0  0  0  0  0  0  0  0  0  0  0  0
   59.8520   33.8830   50.2390 C   0  0  0  0  0  0  0  0  0  0  0  0
   59.3000   33.8690   48.9550 C   0  0  0  0  0  0  0  0  0  0  0  0
   57.6890   33.8930   46.4240 C   0  0  0  0  0  0  0  0  0  0  0  0
   57.1650   33.7870   45.1360 C   0  0  0  0  0  0  0  0  0  0  0  0
   56.8040   34.8180   44.5110 O   0  0  0  0  0  0  0  0  0  0  0  0
   57.0440   32.5690   44.5530 N   0  0  0  0  0  0  0  0  0  0  0  0
   55.9522   27.1575   45.2645 H   0  0  0  0  0  0  0  0  0  0  0  0
   57.5601   27.4772   44.5294 H   0  0  0  0  0  0  0  0  0  0  0  0
   60.2596   29.9069   45.4188 H   0  0  0  0  0  0  0  0  0  0  0  0
   61.5835   31.7227   46.5129 H   0  0  0  0  0  0  0  0  0  0  0  0
   62.1079   31.5911   48.9533 H   0  0  0  0  0  0  0  0  0  0  0  0
   61.3262   29.6342   50.2959 H   0  0  0  0  0  0  0  0  0  0  0  0
   60.0111   27.8136   49.2035 H   0  0  0  0  0  0  0  0  0  0  0  0
   57.9251   30.7369   48.9923 H   0  0  0  0  0  0  0  0  0  0  0  0
   58.8827   30.7795   51.2883 H   0  0  0  0  0  0  0  0  0  0  0  0
   62.6161   34.0023   53.4366 H   0  0  0  0  0  0  0  0  0  0  0  0
   62.0288   32.7905   54.6416 H   0  0  0  0  0  0  0  0  0  0  0  0
   64.5895   32.9626   54.2538 H   0  0  0  0  0  0  0  0  0  0  0  0
   63.8174   31.3183   54.2183 H   0  0  0  0  0  0  0  0  0  0  0  0
   64.6560   34.1487   52.3127 H   0  0  0  0  0  0  0  0  0  0  0  0
   65.9914   33.2212   51.5193 H   0  0  0  0  0  0  0  0  0  0  0  0
   65.6159   32.1147   49.3186 H   0  0  0  0  0  0  0  0  0  0  0  0
   64.5082   32.3720   47.0977 H   0  0  0  0  0  0  0  0  0  0  0  0
   62.4968   33.8305   46.8638 H   0  0  0  0  0  0  0  0  0  0  0  0
   61.6101   35.0654   48.8447 H   0  0  0  0  0  0  0  0  0  0  0  0
   62.7124   34.8171   51.0696 H   0  0  0  0  0  0  0  0  0  0  0  0
   63.5143   31.7018   50.4993 H   0  0  0  0  0  0  0  0  0  0  0  0
   64.0162   30.2154   51.4476 H   0  0  0  0  0  0  0  0  0  0  0  0
   61.4726   30.7823   51.1930 H   0  0  0  0  0  0  0  0  0  0  0  0
   62.1357   30.2534   52.7815 H   0  0  0  0  0  0  0  0  0  0  0  0
   60.3914   34.7744   50.5919 H   0  0  0  0  0  0  0  0  0  0  0  0
   59.4125   34.7486   48.3042 H   0  0  0  0  0  0  0  0  0  0  0  0
   57.7974   34.8759   46.9058 H   0  0  0  0  0  0  0  0  0  0  0  0
  1  2  2  0
  2  3  1  0
  3  4  1  0
  4  5  1  0
  5  6  2  0
  5  7  2  0
  5  8  1  0
  8  9  2  0
  9 10  1  0
 10 11  2  0
 11 12  1  0
 12 13  2  0
  2 14  1  0
 14 15  2  3
 15 16  1  0
 16 17  1  0
 17 18  1  0
 18 19  2  0
 19 20  1  0
 20 21  2  0
 21 22  1  0
 22 23  2  0
 22 24  1  0
 24 25  1  0
 25 26  1  0
 26 27  1  0
 27 28  1  0
 28 29  1  0
 29 30  2  0
 30 31  1  0
 31 32  2  0
 32 33  1  0
 33 34  2  0
 27 35  1  0
 35 36  1  0
 21 37  1  0
 37 38  2  0
 17 39  2  0
 39 40  1  0
 40 41  2  0
 40 42  1  0
 13  8  1  0
 42 15  1  0
 38 18  1  0
 36 24  1  0
 34 29  1  0
  3 43  1  0
  3 44  1  0
  9 45  1  0
 10 46  1  0
 11 47  1  0
 12 48  1  0
 13 49  1  0
 19 50  1  0
 20 51  1  0
 25 52  1  0
 25 53  1  0
 26 54  1  0
 26 55  1  0
 28 56  1  0
 28 57  1  0
 30 58  1  0
 31 59  1  0
 32 60  1  0
 33 61  1  0
 34 62  1  0
 35 63  1  0
 35 64  1  0
 36 65  1  0
 36 66  1  0
 37 67  1  0
 38 68  1  0
 39 69  1  0
M  CHG  3   4  -1  16  -1  42  -1
M  END
>  <UniqueID>  (34) 
31

>  <SMILES>  (34) 
O=C(C[N-]S(=O)(=O)c1ccccc1)N=c1[n-]c(-c2ccc(C(=O)N3CCN(Cc4ccccc4)CC3)cc2)cc(=O)[n-]1

>  <Energy>  (34) 
94.86002911738383

>  <Genealogy>  (34) 
O=C(C[N-]S(=O)(=O)c1ccccc1)N=c1[n-]c(-c2ccc(C(=O)N3CCN(Cc4ccccc4)CC3)cc2)cc(=O)[n-]1 (protonated)
O=C(C[N-]S(=O)(=O)c1ccccc1)N=c1[n-]c(-c2ccc(C(=O)N3CCN(Cc4ccccc4)CC3)cc2)cc(=O)[n-]1 (3D coordinates assigned)
O=C(C[N-]S(=O)(=O)c1ccccc1)N=c1[n-]c(-c2ccc(C(=O)N3CCN(Cc4ccccc4)CC3)cc2)cc(=O)[n-]1 (nonaromatic ring conformer: 94.86002911738383 kcal/mol)

>  <smiles>  (34) 
O=C(CNS(=O)(=O)c1ccccc1)N=c1[nH]c(-c2ccc(C(=O)N3CCN(Cc4ccccc4)CC3)cc2)cc(=O)[nH]1

>  <score_type>  (34) 
oracle

>  <origin>  (34) 
adg

>  <m_score__min__energy>  (34) 
-15.75

>  <m_primary>  (34) 
energy

$$$$
34:0
     RDKit          3D

 49 51  0  0  0  0  0  0  0  0999 V2000
   57.5370   25.5100   46.7580 C   0  0  0  0  0  0  0  0  0  0  0  0
   58.6040   26.0860   46.2030 C   0  0  0  0  0  0  0  0  0  0  0  0
   59.0570   27.4660   46.5250 C   0  0  0  0  0  0  0  0  0  0  0  0
   60.2570   27.6900   47.2260 C   0  0  0  0  0  0  0  0  0  0  0  0
   60.6850   28.9860   47.5110 C   0  0  0  0  0  0  0  0  0  0  0  0
   59.9200   30.0880   47.1100 C   0  0  0  0  0  0  0  0  0  0  0  0
   60.3820   31.4720   47.3840 C   0  0  0  0  0  0  0  0  0  0  0  0
   59.6820   32.5590   46.9620 C   0  0  0  0  0  0  0  0  0  0  0  0
   60.2870   33.5830   46.0250 C   0  0  0  0  0  0  0  0  0  0  0  0
   59.6460   34.9580   46.2610 C   0  0  0  0  0  0  0  0  0  0  0  0
   58.1770   34.9580   46.1180 N   0  0  0  0  0  0  0  0  0  0  0  0
   57.5220   33.6570   46.3540 C   0  0  0  0  0  0  0  0  0  0  0  0
   58.2530   32.8040   47.3970 C   0  0  0  0  0  0  0  0  0  0  0  0
   61.6510   31.6100   48.1410 C   0  0  0  0  0  0  0  0  0  0  0  0
   61.7400   31.1780   49.4750 C   0  0  0  0  0  0  0  0  0  0  0  0
   62.9290   31.3440   50.1910 C   0  0  0  0  0  0  0  0  0  0  0  0
   64.0330   31.9520   49.5860 C   0  0  0  0  0  0  0  0  0  0  0  0
   65.6560   32.1800   50.5670 Br  0  0  0  0  0  0  0  0  0  0  0  0
   63.9460   32.4000   48.2640 C   0  0  0  0  0  0  0  0  0  0  0  0
   62.7580   32.2360   47.5450 C   0  0  0  0  0  0  0  0  0  0  0  0
   58.7390   29.8780   46.3860 C   0  0  0  0  0  0  0  0  0  0  0  0
   58.2990   28.5750   46.0860 C   0  0  0  0  0  0  0  0  0  0  0  0
   57.0830   28.3550   45.3540 N   0  0  0  0  0  0  0  0  0  0  0  0
   56.2650   29.5310   44.3770 S   0  0  0  0  0  0  0  0  0  0  0  0
   56.7610   29.3170   42.6830 C   0  0  0  0  0  0  0  0  0  0  0  0
   56.6370   30.9160   44.8260 O   0  0  0  0  0  0  0  0  0  0  0  0
   54.7780   29.3380   44.4820 O   0  0  0  0  0  0  0  0  0  0  0  0
   57.2560   24.4848   46.4752 H   0  0  0  0  0  0  0  0  0  0  0  0
   56.9379   26.0601   47.4986 H   0  0  0  0  0  0  0  0  0  0  0  0
   59.1814   25.5086   45.4660 H   0  0  0  0  0  0  0  0  0  0  0  0
   60.8640   26.8328   47.5527 H   0  0  0  0  0  0  0  0  0  0  0  0
   61.6287   29.1435   48.0538 H   0  0  0  0  0  0  0  0  0  0  0  0
   61.3694   33.6498   46.2090 H   0  0  0  0  0  0  0  0  0  0  0  0
   60.1024   33.2734   44.9857 H   0  0  0  0  0  0  0  0  0  0  0  0
   59.8961   35.2879   47.2801 H   0  0  0  0  0  0  0  0  0  0  0  0
   60.0448   35.6359   45.4919 H   0  0  0  0  0  0  0  0  0  0  0  0
   57.9360   35.2670   45.1460 H   0  0  0  0  0  0  0  0  0  0  0  0
   56.4957   33.8389   46.7056 H   0  0  0  0  0  0  0  0  0  0  0  0
   57.5358   33.1023   45.4042 H   0  0  0  0  0  0  0  0  0  0  0  0
   58.2522   33.3308   48.3627 H   0  0  0  0  0  0  0  0  0  0  0  0
   57.7370   31.8377   47.4965 H   0  0  0  0  0  0  0  0  0  0  0  0
   60.8708   30.7074   49.9577 H   0  0  0  0  0  0  0  0  0  0  0  0
   62.9961   30.9957   51.2322 H   0  0  0  0  0  0  0  0  0  0  0  0
   64.8133   32.8820   47.7892 H   0  0  0  0  0  0  0  0  0  0  0  0
   62.6902   32.5986   46.5087 H   0  0  0  0  0  0  0  0  0  0  0  0
   58.1483   30.7421   46.0478 H   0  0  0  0  0  0  0  0  0  0  0  0
   57.7705   28.8814   42.6488 H   0  0  0  0  0  0  0  0  0  0  0  0
   56.0539   28.6439   42.1761 H   0  0  0  0  0  0  0  0  0  0  0  0
   56.7655   30.2932   42.1761 H   0  0  0  0  0  0  0  0  0  0  0  0
  1  2  2  0
  2  3  1  0
  3  4  2  0
  4  5  1  0
  5  6  2  0
  6  7  1  0
  7  8  2  3
  8  9  1  0
  9 10  1  0
 10 11  1  0
 11 12  1  0
 12 13  1  0
  7 14  1  0
 14 15  2  0
 15 16  1  0
 16 17  2  0
 17 18  1  0
 17 19  1  0
 19 20  2  0
  6 21  1  0
 21 22  2  0
 22 23  1  0
 23 24  1  0
 24 25  1  0
 24 26  2  0
 24 27  2  0
 22  3  1  0
 13  8  1  0
 20 14  1  0
  1 28  1  0
  1 29  1  0
  2 30  1  0
  4 31  1  0
  5 32  1  0
  9 33  1  0
  9 34  1  0
 10 35  1  0
 10 36  1  0
 11 37  1  0
 12 38  1  0
 12 39  1  0
 13 40  1  0
 13 41  1  0
 15 42  1  0
 16 43  1  0
 19 44  1  0
 20 45  1  0
 21 46  1  0
 25 47  1  0
 25 48  1  0
 25 49  1  0
M  CHG  1  23  -1
M  END
>  <UniqueID>  (35) 
32

>  <SMILES>  (35) 
C=Cc1ccc(C(=C2CCNCC2)c2ccc(Br)cc2)cc1[N-]S(C)(=O)=O

>  <Energy>  (35) 
69.97244925706025

>  <Genealogy>  (35) 
C=Cc1ccc(C(=C2CCNCC2)c2ccc(Br)cc2)cc1[N-]S(C)(=O)=O (protonated)
C=Cc1ccc(C(=C2CCNCC2)c2ccc(Br)cc2)cc1[N-]S(C)(=O)=O (3D coordinates assigned)
C=Cc1ccc(C(=C2CCNCC2)c2ccc(Br)cc2)cc1[N-]S(C)(=O)=O (nonaromatic ring conformer: 69.97244925706025 kcal/mol)

>  <smiles>  (35) 
C=Cc1ccc(C(=C2CCNCC2)c2ccc(Br)cc2)cc1NS(C)(=O)=O

>  <score_type>  (35) 
oracle

>  <origin>  (35) 
adg

>  <m_score__min__energy>  (35) 
-11.09

>  <m_primary>  (35) 
energy

$$$$
35:0
     RDKit          3D

 52 55  0  0  0  0  0  0  0  0999 V2000
   64.5220   32.2970   47.5390 H   0  0  0  0  0  0  0  0  0  0  0  0
   64.0890   32.9580   48.1400 O   0  0  0  0  0  0  0  0  0  0  0  0
   62.9170   32.3710   48.6470 C   0  0  1  0  0  0  0  0  0  0  0  0
   62.1915   33.1728   48.8488 H   0  0  0  0  0  0  0  0  0  0  0  0
   62.2850   31.4240   47.6140 C   0  0  0  0  0  0  0  0  0  0  0  0
   62.0978   31.9795   46.6832 H   0  0  0  0  0  0  0  0  0  0  0  0
   62.9787   30.5902   47.4308 H   0  0  0  0  0  0  0  0  0  0  0  0
   60.9510   30.8500   48.1370 C   0  0  0  0  0  0  0  0  0  0  0  0
   60.1404   31.5396   47.8590 H   0  0  0  0  0  0  0  0  0  0  0  0
   60.8212   29.8566   47.6827 H   0  0  0  0  0  0  0  0  0  0  0  0
   60.9320   30.6680   49.6130 N   0  0  1  0  0  0  0  0  0  0  0  0
   60.5950   31.5710   50.0280 H   0  0  0  0  0  0  0  0  0  0  0  0
   59.9610   29.6610   50.0020 C   0  0  0  0  0  0  0  0  0  0  0  0
   59.6120   28.7980   49.1480 O   0  0  0  0  0  0  0  0  0  0  0  0
   59.3360   29.5880   51.3550 C   0  0  0  0  0  0  0  0  0  0  0  0
   60.0990   29.5110   52.5360 C   0  0  0  0  0  0  0  0  0  0  0  0
   61.1974   29.5194   52.4779 H   0  0  0  0  0  0  0  0  0  0  0  0
   59.4710   29.4240   53.7810 C   0  0  0  0  0  0  0  0  0  0  0  0
   60.0770   29.3710   54.6975 H   0  0  0  0  0  0  0  0  0  0  0  0
   58.0790   29.4040   53.8670 C   0  0  0  0  0  0  0  0  0  0  0  0
   57.5902   29.3355   54.8500 H   0  0  0  0  0  0  0  0  0  0  0  0
   57.3030   29.4710   52.7030 C   0  0  0  0  0  0  0  0  0  0  0  0
   55.8680   29.4310   52.7850 N   0  0  0  0  0  0  0  0  0  0  0  0
   55.1480   28.4210   53.3220 C   0  0  0  0  0  0  0  0  0  0  0  0
   55.7260   27.1470   53.8560 C   0  0  0  0  0  0  0  0  0  0  0  0
   55.7147   27.1718   54.9557 H   0  0  0  0  0  0  0  0  0  0  0  0
   55.1260   26.2956   53.5023 H   0  0  0  0  0  0  0  0  0  0  0  0
   56.7618   27.0377   53.5023 H   0  0  0  0  0  0  0  0  0  0  0  0
   53.8030   28.7280   53.2980 C   0  0  0  0  0  0  0  0  0  0  0  0
   52.9822   28.1048   53.6827 H   0  0  0  0  0  0  0  0  0  0  0  0
   53.6830   29.9710   52.6970 C   0  0  0  0  0  0  0  0  0  0  0  0
   52.4910   30.5440   52.4460 C   0  0  0  0  0  0  0  0  0  0  0  0
   51.8577   30.7865   53.3121 H   0  0  0  0  0  0  0  0  0  0  0  0
   51.9620   30.8740   51.1130 C   0  0  0  0  0  0  0  0  0  0  0  0
   51.9310   30.0230   50.0700 N   0  0  0  0  0  0  0  0  0  0  0  0
   51.2380   30.7060   49.1330 C   0  0  0  0  0  0  0  0  0  0  0  0
   51.0080   30.2400   47.9870 O   0  0  0  0  0  0  0  0  0  0  0  0
   50.8020   31.9230   49.5240 N   0  0  0  0  0  0  0  0  0  0  0  0
   51.2570   32.0050   50.7840 C   0  0  0  0  0  0  0  0  0  0  0  0
   51.0260   33.0900   51.6200 O   0  0  0  0  0  0  0  0  0  0  0  0
   54.9920   30.4050   52.4280 C   0  0  0  0  0  0  0  0  0  0  0  0
   55.3750   31.6150   51.9950 C   0  0  0  0  0  0  0  0  0  0  0  0
   56.4408   31.8255   51.8227 H   0  0  0  0  0  0  0  0  0  0  0  0
   54.6233   32.3970   51.8121 H   0  0  0  0  0  0  0  0  0  0  0  0
   57.9330   29.5520   51.4540 C   0  0  0  0  0  0  0  0  0  0  0  0
   57.3230   29.5879   50.5394 H   0  0  0  0  0  0  0  0  0  0  0  0
   62.2710   30.4310   50.1990 C   0  0  0  0  0  0  0  0  0  0  0  0
   62.1633   30.2482   51.2784 H   0  0  0  0  0  0  0  0  0  0  0  0
   62.7201   29.5588   49.7014 H   0  0  0  0  0  0  0  0  0  0  0  0
   63.1960   31.6470   49.9840 C   0  0  0  0  0  0  0  0  0  0  0  0
   63.0425   32.3578   50.8093 H   0  0  0  0  0  0  0  0  0  0  0  0
   64.2323   31.2791   49.9561 H   0  0  0  0  0  0  0  0  0  0  0  0
  1  2  1  0
  2  3  1  0
  3  4  1  1
  3  5  1  0
  5  6  1  0
  5  7  1  0
  5  8  1  0
  8  9  1  0
  8 10  1  0
  8 11  1  0
 11 12  1  1
 11 13  1  0
 13 14  2  0
 13 15  1  0
 15 16  2  0
 16 17  1  0
 16 18  1  0
 18 19  1  0
 18 20  2  0
 20 21  1  0
 20 22  1  0
 22 23  1  0
 23 24  1  0
 24 25  1  0
 25 26  1  0
 25 27  1  0
 25 28  1  0
 24 29  2  0
 29 30  1  0
 29 31  1  0
 31 32  2  0
 32 33  1  0
 32 34  1  0
 34 35  1  0
 35 36  1  0
 36 37  2  0
 36 38  1  0
 38 39  1  0
 39 40  1  0
 31 41  1  0
 41 42  2  0
 42 43  1  0
 42 44  1  0
 22 45  2  0
 45 46  1  0
 11 47  1  0
 47 48  1  0
 47 49  1  0
 47 50  1  0
 50 51  1  0
 50 52  1  0
 50  3  1  0
 45 15  1  0
 41 23  1  0
 39 34  2  0
M  CHG  4  11   1  35  -1  38  -1  40  -1
M  END
>  <UniqueID>  (36) 
33

>  <SMILES>  (36) 
C=c1/c(=C\c2[n-]c(=O)[n-]c2[O-])cc(C)n1-c1cccc(C(=O)[NH+]2CCC(O)CC2)c1

>  <Energy>  (36) 
145.31164429040794

>  <Genealogy>  (36) 
C=c1c(=Cc2[n-]c(=O)[n-]c2[O-])cc(C)n1-c1cccc(C(=O)[NH+]2CCC(O)CC2)c1 (protonated)
C=c1/c(=C\c2[n-]c(=O)[n-]c2[O-])cc(C)n1-c1cccc(C(=O)[NH+]2CCC(O)CC2)c1 (cis-trans isomerization)
C=c1/c(=C\c2[n-]c(=O)[n-]c2[O-])cc(C)n1-c1cccc(C(=O)[NH+]2CCC(O)CC2)c1 (3D coordinates assigned)
C=c1/c(=C\c2[n-]c(=O)[n-]c2[O-])cc(C)n1-c1cccc(C(=O)[NH+]2CCC(O)CC2)c1 (nonaromatic ring conformer: 145.31164429040794 kcal/mol)

>  <smiles>  (36) 
C=c1c(=Cc2[nH]c(=O)[nH]c2O)cc(C)n1-c1cccc(C(=O)N2CCC(O)CC2)c1

>  <score_type>  (36) 
oracle

>  <origin>  (36) 
adg

>  <m_score__min__energy>  (36) 
-15.859999999999999

>  <m_primary>  (36) 
energy

$$$$
36:0
     RDKit          3D

 39 41  0  0  1  0  0  0  0  0999 V2000
   60.7390   28.9810   45.4770 C   0  0  0  0  0  0  0  0  0  0  0  0
   59.5010   28.1990   45.6400 C   0  0  0  0  0  0  0  0  0  0  0  0
   59.2660   27.1770   46.4800 N   0  0  0  0  0  0  0  0  0  0  0  0
   58.0270   26.7180   46.3440 N   0  0  0  0  0  0  0  0  0  0  0  0
   57.4650   25.6200   47.1050 C   0  0  0  0  0  0  0  0  0  0  0  0
   57.4530   27.4690   45.3860 C   0  0  0  0  0  0  0  0  0  0  0  0
   58.3340   28.4160   44.9100 C   0  0  0  0  0  0  0  0  0  0  0  0
   58.1620   29.4020   43.9080 N   0  0  0  0  0  0  0  0  0  0  0  0
   57.1470   30.7770   44.0550 S   0  0  0  0  0  0  0  0  0  0  0  0
   56.6450   31.2200   42.7010 O   0  0  0  0  0  0  0  0  0  0  0  0
   55.9100   30.3100   44.8020 O   0  0  0  0  0  0  0  0  0  0  0  0
   57.9530   32.0550   44.8940 C   0  0  0  0  0  0  0  0  0  0  0  0
   57.6730   33.3660   44.4910 C   0  0  0  0  0  0  0  0  0  0  0  0
   58.2970   34.4290   45.1460 C   0  0  0  0  0  0  0  0  0  0  0  0
   59.1850   34.2430   46.1770 C   0  0  0  0  0  0  0  0  0  0  0  0
   59.4620   32.9430   46.5760 C   0  0  0  0  0  0  0  0  0  0  0  0
   60.3740   32.6710   47.6420 N   0  0  0  0  0  0  0  0  0  0  0  0
   61.6420   32.6890   47.3860 C   0  0  0  0  0  0  0  0  0  0  0  0
   62.3060   33.8220   46.9480 C   0  0  0  0  0  0  0  0  0  0  0  0
   63.6300   33.4400   46.7900 C   0  0  0  0  0  0  0  0  0  0  0  0
   63.7090   32.1430   47.1250 N   0  0  0  0  0  0  0  0  0  0  0  0
   62.5240   31.6830   47.4840 N   0  0  0  0  0  0  0  0  0  0  0  0
   58.8410   31.8910   45.9260 C   0  0  0  0  0  0  0  0  0  0  0  0
   61.1441   29.2369   46.4672 H   0  0  0  0  0  0  0  0  0  0  0  0
   61.4782   28.3856   44.9211 H   0  0  0  0  0  0  0  0  0  0  0  0
   60.5189   29.9043   44.9211 H   0  0  0  0  0  0  0  0  0  0  0  0
   57.5709   25.8270   48.1801 H   0  0  0  0  0  0  0  0  0  0  0  0
   56.3993   25.5091   46.8562 H   0  0  0  0  0  0  0  0  0  0  0  0
   57.9983   24.6906   46.8562 H   0  0  0  0  0  0  0  0  0  0  0  0
   56.4195   27.3438   45.0306 H   0  0  0  0  0  0  0  0  0  0  0  0
   58.6980   29.2870   42.9980 H   0  0  0  0  0  0  0  0  0  0  0  0
   56.9691   33.5564   43.6674 H   0  0  0  0  0  0  0  0  0  0  0  0
   58.0686   35.4557   44.8238 H   0  0  0  0  0  0  0  0  0  0  0  0
   59.6634   35.1006   46.6727 H   0  0  0  0  0  0  0  0  0  0  0  0
   61.8741   34.8168   46.7639 H   0  0  0  0  0  0  0  0  0  0  0  0
   64.4591   34.0798   46.4535 H   0  0  0  0  0  0  0  0  0  0  0  0
   64.5720   31.5910   47.1040 H   0  0  0  0  0  0  0  0  0  0  0  0
   62.2680   30.7120   47.7970 H   0  0  0  0  0  0  0  0  0  0  0  0
   59.0723   30.8672   46.2551 H   0  0  0  0  0  0  0  0  0  0  0  0
  1  2  1  0
  2  3  2  0
  3  4  1  0
  4  5  1  0
  4  6  1  0
  6  7  2  0
  7  8  1  0
  8  9  1  0
  9 10  2  0
  9 11  2  0
  9 12  1  0
 12 13  2  0
 13 14  1  0
 14 15  2  0
 15 16  1  0
 16 17  1  0
 17 18  2  0
 18 19  1  0
 19 20  2  0
 20 21  1  0
 21 22  1  0
 16 23  2  0
  7  2  1  0
 23 12  1  0
 22 18  1  0
  1 24  1  0
  1 25  1  0
  1 26  1  0
  5 27  1  0
  5 28  1  0
  5 29  1  0
  6 30  1  0
  8 31  1  0
 13 32  1  0
 14 33  1  0
 15 34  1  0
 19 35  1  0
 20 36  1  0
 21 37  1  0
 22 38  1  0
 23 39  1  0
M  END
>  <smiles>  (37) 
Cc1nn(C)cc1NS(=O)(=O)c1cccc(N=c2cc[nH][nH]2)c1

>  <score_type>  (37) 
oracle

>  <origin>  (37) 
adg

>  <m_score__min__energy>  (37) 
-8.3399999999999999

>  <m_primary>  (37) 
energy

$$$$
37:0
     RDKit          3D

 55 57  0  0  0  0  0  0  0  0999 V2000
   59.1030   27.9160   46.6440 C   0  0  0  0  0  0  0  0  0  0  0  0
   58.4450   28.3320   45.5510 C   0  0  0  0  0  0  0  0  0  0  0  0
   57.8450   27.5380   44.5580 C   0  0  0  0  0  0  0  0  0  0  0  0
   57.6440   26.2070   44.4890 C   0  0  0  0  0  0  0  0  0  0  0  0
   57.1540   25.3530   45.5800 C   0  0  0  0  0  0  0  0  0  0  0  0
   57.7990   24.2520   46.0050 N   0  0  0  0  0  0  0  0  0  0  0  0
   56.9550   23.7290   46.9200 C   0  0  0  0  0  0  0  0  0  0  0  0
   57.2170   22.6780   47.5600 O   0  0  0  0  0  0  0  0  0  0  0  0
   55.8020   24.4120   47.0840 N   0  0  0  0  0  0  0  0  0  0  0  0
   55.9330   25.4310   46.2190 C   0  0  0  0  0  0  0  0  0  0  0  0
   54.9420   26.3870   46.0060 O   0  0  0  0  0  0  0  0  0  0  0  0
   57.4240   28.4100   43.5670 C   0  0  0  0  0  0  0  0  0  0  0  0
   57.7220   29.6850   44.0000 C   0  0  0  0  0  0  0  0  0  0  0  0
   57.4470   30.9390   43.2270 C   0  0  0  0  0  0  0  0  0  0  0  0
   58.3380   29.6390   45.2010 N   0  0  0  0  0  0  0  0  0  0  0  0
   58.8270   30.7770   45.9290 C   0  0  0  0  0  0  0  0  0  0  0  0
   60.1480   30.8000   46.3970 C   0  0  0  0  0  0  0  0  0  0  0  0
   60.6090   31.8870   47.1450 C   0  0  0  0  0  0  0  0  0  0  0  0
   59.7460   32.9520   47.4480 C   0  0  0  0  0  0  0  0  0  0  0  0
   60.1950   34.0680   48.3000 C   0  0  0  0  0  0  0  0  0  0  0  0
   60.1520   35.2370   47.8270 O   0  0  0  0  0  0  0  0  0  0  0  0
   60.6270   33.8620   49.6670 N   0  0  0  0  0  0  0  0  0  0  0  0
   59.6060   33.7130   50.7090 C   0  0  0  0  0  0  0  0  0  0  0  0
   62.0550   33.7510   50.0170 C   0  0  0  0  0  0  0  0  0  0  0  0
   62.9630   34.2860   48.8890 C   0  0  0  0  0  0  0  0  0  0  0  0
   63.8280   33.2100   48.3530 N   0  0  0  0  0  0  0  0  0  0  0  0
   63.5040   31.9170   48.9800 C   0  0  0  0  0  0  0  0  0  0  0  0
   63.6680   33.1020   46.8950 C   0  0  0  0  0  0  0  0  0  0  0  0
   58.4400   32.9490   46.9350 C   0  0  0  0  0  0  0  0  0  0  0  0
   57.9810   31.8630   46.1840 C   0  0  0  0  0  0  0  0  0  0  0  0
   59.5264   28.6512   47.3442 H   0  0  0  0  0  0  0  0  0  0  0  0
   59.2190   26.8398   46.8398 H   0  0  0  0  0  0  0  0  0  0  0  0
   57.8667   25.7160   43.5302 H   0  0  0  0  0  0  0  0  0  0  0  0
   54.3190   26.6780   46.7490 H   0  0  0  0  0  0  0  0  0  0  0  0
   56.9435   28.1372   42.6158 H   0  0  0  0  0  0  0  0  0  0  0  0
   57.2651   31.7684   43.9263 H   0  0  0  0  0  0  0  0  0  0  0  0
   58.3143   31.1769   42.5936 H   0  0  0  0  0  0  0  0  0  0  0  0
   56.5597   30.7922   42.5936 H   0  0  0  0  0  0  0  0  0  0  0  0
   60.8235   29.9606   46.1751 H   0  0  0  0  0  0  0  0  0  0  0  0
   61.6509   31.9080   47.4972 H   0  0  0  0  0  0  0  0  0  0  0  0
   60.0799   33.7822   51.6993 H   0  0  0  0  0  0  0  0  0  0  0  0
   58.8564   34.5113   50.6047 H   0  0  0  0  0  0  0  0  0  0  0  0
   59.1158   32.7338   50.6047 H   0  0  0  0  0  0  0  0  0  0  0  0
   62.2438   34.3315   50.9321 H   0  0  0  0  0  0  0  0  0  0  0  0
   62.2888   32.6870   50.1696 H   0  0  0  0  0  0  0  0  0  0  0  0
   62.3345   34.6810   48.0773 H   0  0  0  0  0  0  0  0  0  0  0  0
   63.6034   35.0805   49.2998 H   0  0  0  0  0  0  0  0  0  0  0  0
   63.5307   32.0233   50.0745 H   0  0  0  0  0  0  0  0  0  0  0  0
   62.4985   31.5994   48.6668 H   0  0  0  0  0  0  0  0  0  0  0  0
   64.2409   31.1628   48.6668 H   0  0  0  0  0  0  0  0  0  0  0  0
   62.7759   32.4999   46.6676 H   0  0  0  0  0  0  0  0  0  0  0  0
   63.5517   34.1071   46.4634 H   0  0  0  0  0  0  0  0  0  0  0  0
   64.5567   32.6182   46.4634 H   0  0  0  0  0  0  0  0  0  0  0  0
   57.7749   33.8044   47.1245 H   0  0  0  0  0  0  0  0  0  0  0  0
   56.9530   31.8617   45.7926 H   0  0  0  0  0  0  0  0  0  0  0  0
  1  2  2  0
  2  3  1  0
  3  4  2  3
  4  5  1  0
  5  6  1  0
  6  7  1  0
  7  8  2  0
  7  9  1  0
  9 10  1  0
 10 11  1  0
  3 12  1  0
 12 13  2  0
 13 14  1  0
 13 15  1  0
 15 16  1  0
 16 17  2  0
 17 18  1  0
 18 19  2  0
 19 20  1  0
 20 21  2  0
 20 22  1  0
 22 23  1  0
 22 24  1  0
 24 25  1  0
 25 26  1  0
 26 27  1  0
 26 28  1  0
 19 29  1  0
 29 30  2  0
 15  2  1  0
 30 16  1  0
 10  5  2  0
  1 31  1  0
  1 32  1  0
  4 33  1  0
 11 34  1  0
 12 35  1  0
 14 36  1  0
 14 37  1  0
 14 38  1  0
 17 39  1  0
 18 40  1  0
 23 41  1  0
 23 42  1  0
 23 43  1  0
 24 44  1  0
 24 45  1  0
 25 46  1  0
 25 47  1  0
 27 48  1  0
 27 49  1  0
 27 50  1  0
 28 51  1  0
 28 52  1  0
 28 53  1  0
 29 54  1  0
 30 55  1  0
M  CHG  2   6  -1   9  -1
M  END
>  <UniqueID>  (38) 
34

>  <SMILES>  (38) 
C=c1c(=Cc2[n-]c(=O)[n-]c2O)cc(C)n1-c1ccc(C(=O)N(C)CCN(C)C)cc1

>  <Energy>  (38) 
134.59536434793014

>  <Genealogy>  (38) 
C=c1c(=Cc2[n-]c(=O)[n-]c2O)cc(C)n1-c1ccc(C(=O)N(C)CCN(C)C)cc1 (protonated)
C=c1c(=Cc2[n-]c(=O)[n-]c2O)cc(C)n1-c1ccc(C(=O)N(C)CCN(C)C)cc1 (3D coordinates assigned)
C=c1c(=Cc2[n-]c(=O)[n-]c2O)cc(C)n1-c1ccc(C(=O)N(C)CCN(C)C)cc1 (optimized conformer: 134.59536434793014 kcal/mol)

>  <smiles>  (38) 
C=c1c(=Cc2[nH]c(=O)[nH]c2O)cc(C)n1-c1ccc(C(=O)N(C)CCN(C)C)cc1

>  <score_type>  (38) 
oracle

>  <origin>  (38) 
adg

>  <m_score__min__energy>  (38) 
-13.07

>  <m_primary>  (38) 
energy

$$$$
38:0
     RDKit          3D

 45 48  0  0  1  0  0  0  0  0999 V2000
   59.8340   29.0350   48.7070 O   0  0  0  0  0  0  0  0  0  0  0  0
   59.9800   30.3670   48.8010 C   0  0  0  0  0  0  0  0  0  0  0  0
   61.1520   30.8430   48.5490 N   0  0  0  0  0  0  0  0  0  0  0  0
   62.0490   31.6090   48.3650 C   0  0  0  0  0  0  0  0  0  0  0  0
   62.7570   31.6660   47.2230 N   0  0  0  0  0  0  0  0  0  0  0  0
   63.7360   32.5590   47.1000 C   0  0  0  0  0  0  0  0  0  0  0  0
   64.0800   33.4470   48.0890 C   0  0  0  0  0  0  0  0  0  0  0  0
   63.3560   33.3890   49.2670 C   0  0  0  0  0  0  0  0  0  0  0  0
   62.3880   32.5020   49.3800 N   0  0  0  0  0  0  0  0  0  0  0  0
   58.6890   30.8790   49.1770 O   0  0  0  0  0  0  0  0  0  0  0  0
   58.8760   31.9560   50.1070 C   0  0  0  0  0  0  0  0  0  0  0  0
   58.6400   31.6110   51.4400 C   0  0  0  0  0  0  0  0  0  0  0  0
   58.7640   32.5540   52.4630 C   0  0  0  0  0  0  0  0  0  0  0  0
   59.1280   33.8110   52.0750 C   0  0  0  0  0  0  0  0  0  0  0  0
   59.3510   34.1200   50.7940 N   0  0  0  0  0  0  0  0  0  0  0  0
   59.2320   33.2010   49.7740 C   0  0  0  0  0  0  0  0  0  0  0  0
   59.7450   33.8070   48.1820 S   0  0  0  0  0  0  0  0  0  0  0  0
   58.6210   33.5890   46.9140 C   0  0  0  0  0  0  0  0  0  0  0  0
   57.7730   34.1770   46.0370 C   0  0  0  0  0  0  0  0  0  0  0  0
   57.0650   33.4760   45.1960 N   0  0  0  0  0  0  0  0  0  0  0  0
   57.1400   32.1470   45.1600 C   0  0  0  0  0  0  0  0  0  0  0  0
   56.6550   31.2560   44.4930 N   0  0  0  0  0  0  0  0  0  0  0  0
   56.6050   29.8980   44.8210 C   0  0  0  0  0  0  0  0  0  0  0  0
   55.4190   29.3760   44.8630 O   0  0  0  0  0  0  0  0  0  0  0  0
   57.6970   29.0010   45.1180 C   0  0  0  0  0  0  0  0  0  0  0  0
   58.9540   29.0870   44.5690 C   0  0  0  0  0  0  0  0  0  0  0  0
   59.9590   28.2030   44.8850 C   0  0  0  0  0  0  0  0  0  0  0  0
   59.7300   27.1880   45.7790 C   0  0  0  0  0  0  0  0  0  0  0  0
   58.4880   27.0600   46.3520 C   0  0  0  0  0  0  0  0  0  0  0  0
   57.4860   27.9630   46.0210 C   0  0  0  0  0  0  0  0  0  0  0  0
   58.3660   31.7360   46.4670 S   0  0  0  0  0  0  0  0  0  0  0  0
   64.2996   32.5872   46.1558 H   0  0  0  0  0  0  0  0  0  0  0  0
   64.8952   34.1726   47.9511 H   0  0  0  0  0  0  0  0  0  0  0  0
   63.5852   34.0735   50.0970 H   0  0  0  0  0  0  0  0  0  0  0  0
   61.8460   32.4600   50.2660 H   0  0  0  0  0  0  0  0  0  0  0  0
   58.3515   30.5789   51.6883 H   0  0  0  0  0  0  0  0  0  0  0  0
   58.5795   32.2991   53.5171 H   0  0  0  0  0  0  0  0  0  0  0  0
   59.2412   34.5934   52.8399 H   0  0  0  0  0  0  0  0  0  0  0  0
   57.6792   35.2730   46.0341 H   0  0  0  0  0  0  0  0  0  0  0  0
   56.3750   33.9430   44.4940 H   0  0  0  0  0  0  0  0  0  0  0  0
   59.1640   29.8928   43.8502 H   0  0  0  0  0  0  0  0  0  0  0  0
   60.9498   28.3102   44.4193 H   0  0  0  0  0  0  0  0  0  0  0  0
   60.5342   26.4825   46.0349 H   0  0  0  0  0  0  0  0  0  0  0  0
   58.2886   26.2486   47.0674 H   0  0  0  0  0  0  0  0  0  0  0  0
   56.4954   27.8545   46.4867 H   0  0  0  0  0  0  0  0  0  0  0  0
  1  2  2  0
  2  3  1  0
  3  4  2  3
  4  5  1  0
  5  6  2  0
  6  7  1  0
  7  8  2  0
  8  9  1  0
  2 10  1  0
 10 11  1  0
 11 12  2  0
 12 13  1  0
 13 14  2  0
 14 15  1  0
 15 16  2  0
 16 17  1  0
 17 18  1  0
 18 19  2  0
 19 20  1  0
 20 21  1  0
 21 22  2  0
 22 23  1  0
 23 24  2  0
 23 25  1  0
 25 26  2  0
 26 27  1  0
 27 28  2  0
 28 29  1  0
 29 30  2  0
 21 31  1  0
  9  4  1  0
 16 11  1  0
 31 18  1  0
 30 25  1  0
  6 32  1  0
  7 33  1  0
  8 34  1  0
  9 35  1  0
 12 36  1  0
 13 37  1  0
 14 38  1  0
 19 39  1  0
 20 40  1  0
 26 41  1  0
 27 42  1  0
 28 43  1  0
 29 44  1  0
 30 45  1  0
M  END
>  <smiles>  (39) 
O=C(N=c1nccc[nH]1)Oc1cccnc1Sc1c[nH]c(=NC(=O)c2ccccc2)s1

>  <score_type>  (39) 
oracle

>  <origin>  (39) 
adg

>  <m_score__min__energy>  (39) 
-9.5099999999999998

>  <m_primary>  (39) 
energy

$$$$
39:0
     RDKit          3D

 70 73  0  0  0  0  0  0  0  0999 V2000
   62.1000   32.0520   47.0950 C   0  0  0  0  0  0  0  0  0  0  0  0
   62.7970   33.2280   47.6400 N   0  0  2  0  0  0  0  0  0  0  0  0
   64.1350   32.9010   48.2000 C   0  0  0  0  0  0  0  0  0  0  0  0
   64.1210   32.4520   49.6520 C   0  0  0  0  0  0  0  0  0  0  0  0
   64.8040   33.1840   50.6400 C   0  0  0  0  0  0  0  0  0  0  0  0
   64.8760   32.7050   51.9560 C   0  0  0  0  0  0  0  0  0  0  0  0
   64.2500   31.4980   52.2980 C   0  0  0  0  0  0  0  0  0  0  0  0
   63.5260   30.7920   51.3350 C   0  0  0  0  0  0  0  0  0  0  0  0
   63.4450   31.2740   50.0260 C   0  0  0  0  0  0  0  0  0  0  0  0
   61.9420   33.9200   48.5900 C   0  0  0  0  0  0  0  0  0  0  0  0
   62.3210   34.9670   49.1030 O   0  0  0  0  0  0  0  0  0  0  0  0
   60.5780   33.3620   48.9850 C   0  0  2  0  0  0  0  0  0  0  0  0
   59.4950   34.4190   48.6500 C   0  0  0  0  0  0  0  0  0  0  0  0
   58.9070   34.2310   47.2720 C   0  0  0  0  0  0  0  0  0  0  0  0
   59.5310   34.8060   46.1500 C   0  0  0  0  0  0  0  0  0  0  0  0
   58.9850   34.6370   44.8760 C   0  0  0  0  0  0  0  0  0  0  0  0
   57.8210   33.8830   44.7060 C   0  0  0  0  0  0  0  0  0  0  0  0
   57.2040   33.2910   45.8120 C   0  0  0  0  0  0  0  0  0  0  0  0
   57.7510   33.4530   47.0880 C   0  0  0  0  0  0  0  0  0  0  0  0
   60.5070   32.8880   50.4530 C   0  0  0  0  0  0  0  0  0  0  0  0
   61.0590   33.6650   51.5060 C   0  0  0  0  0  0  0  0  0  0  0  0
   61.0610   33.2040   52.8250 C   0  0  0  0  0  0  0  0  0  0  0  0
   60.5270   31.9610   53.1350 C   0  0  0  0  0  0  0  0  0  0  0  0
   59.9730   31.1720   52.1290 C   0  0  0  0  0  0  0  0  0  0  0  0
   59.9330   31.6250   50.7990 C   0  0  0  0  0  0  0  0  0  0  0  0
   59.2990   30.7360   49.8070 C   0  0  0  0  0  0  0  0  0  0  0  0
   58.4810   31.2180   48.9820 O   0  0  0  0  0  0  0  0  0  0  0  0
   59.5780   29.3270   49.7600 N   0  0  0  0  0  0  0  0  0  0  0  0
   60.0900   28.5700   48.6130 C   0  0  0  0  0  0  0  0  0  0  0  0
   59.2280   28.7540   47.3910 C   0  0  0  0  0  0  0  0  0  0  0  0
   58.1840   27.8570   47.1110 C   0  0  0  0  0  0  0  0  0  0  0  0
   57.3130   28.0910   46.0460 C   0  0  0  0  0  0  0  0  0  0  0  0
   57.5060   29.1990   45.2100 C   0  0  0  0  0  0  0  0  0  0  0  0
   56.5590   29.4710   44.0730 C   0  0  0  0  0  0  0  0  0  0  0  0
   55.1860   29.5490   44.5610 N   0  0  0  0  0  0  0  0  0  0  0  0
   58.5940   30.0590   45.4430 C   0  0  0  0  0  0  0  0  0  0  0  0
   59.4410   29.8440   46.5340 C   0  0  0  0  0  0  0  0  0  0  0  0
   61.7305   31.4286   47.9226 H   0  0  0  0  0  0  0  0  0  0  0  0
   61.2516   32.3821   46.4775 H   0  0  0  0  0  0  0  0  0  0  0  0
   62.7969   31.4663   46.4775 H   0  0  0  0  0  0  0  0  0  0  0  0
   62.9770   33.8640   46.8270 H   0  0  0  0  0  0  0  0  0  0  0  0
   64.5718   32.0927   47.5952 H   0  0  0  0  0  0  0  0  0  0  0  0
   64.7223   33.8305   48.1669 H   0  0  0  0  0  0  0  0  0  0  0  0
   65.2847   34.1383   50.3787 H   0  0  0  0  0  0  0  0  0  0  0  0
   65.4236   33.2763   52.7200 H   0  0  0  0  0  0  0  0  0  0  0  0
   64.3291   31.1077   53.3234 H   0  0  0  0  0  0  0  0  0  0  0  0
   63.0186   29.8548   51.6074 H   0  0  0  0  0  0  0  0  0  0  0  0
   62.8478   30.7285   49.2805 H   0  0  0  0  0  0  0  0  0  0  0  0
   60.3941   32.4494   48.3991 H   0  0  0  0  0  0  0  0  0  0  0  0
   58.6863   34.3421   49.3917 H   0  0  0  0  0  0  0  0  0  0  0  0
   59.9757   35.4081   48.6751 H   0  0  0  0  0  0  0  0  0  0  0  0
   60.4535   35.3916   46.2769 H   0  0  0  0  0  0  0  0  0  0  0  0
   59.4723   35.0984   44.0044 H   0  0  0  0  0  0  0  0  0  0  0  0
   57.3901   33.7552   43.7020 H   0  0  0  0  0  0  0  0  0  0  0  0
   56.2876   32.6974   45.6780 H   0  0  0  0  0  0  0  0  0  0  0  0
   57.2741   32.9689   47.9530 H   0  0  0  0  0  0  0  0  0  0  0  0
   61.4937   34.6495   51.2786 H   0  0  0  0  0  0  0  0  0  0  0  0
   61.4883   33.8298   53.6223 H   0  0  0  0  0  0  0  0  0  0  0  0
   60.5411   31.5991   54.1737 H   0  0  0  0  0  0  0  0  0  0  0  0
   59.5620   30.1827   52.3787 H   0  0  0  0  0  0  0  0  0  0  0  0
   61.1092   28.9152   48.3850 H   0  0  0  0  0  0  0  0  0  0  0  0
   60.0840   27.5024   48.8779 H   0  0  0  0  0  0  0  0  0  0  0  0
   58.0517   26.9621   47.7368 H   0  0  0  0  0  0  0  0  0  0  0  0
   56.4734   27.4044   45.8624 H   0  0  0  0  0  0  0  0  0  0  0  0
   56.8290   30.4252   43.5970 H   0  0  0  0  0  0  0  0  0  0  0  0
   56.6321   28.6504   43.3441 H   0  0  0  0  0  0  0  0  0  0  0  0
   54.7630   28.5920   44.5000 H   0  0  0  0  0  0  0  0  0  0  0  0
   55.1990   29.8070   45.5790 H   0  0  0  0  0  0  0  0  0  0  0  0
   58.7793   30.9043   44.7639 H   0  0  0  0  0  0  0  0  0  0  0  0
   60.2782   30.5325   46.7214 H   0  0  0  0  0  0  0  0  0  0  0  0
  1  2  1  0
  2  3  1  0
  3  4  1  0
  4  5  2  0
  5  6  1  0
  6  7  2  0
  7  8  1  0
  8  9  2  0
  2 10  1  0
 10 11  2  0
 10 12  1  0
 12 13  1  0
 13 14  1  0
 14 15  2  0
 15 16  1  0
 16 17  2  0
 17 18  1  0
 18 19  2  0
 12 20  1  0
 20 21  2  0
 21 22  1  0
 22 23  2  0
 23 24  1  0
 24 25  2  0
 25 26  1  0
 26 27  2  0
 26 28  1  0
 28 29  1  0
 29 30  1  0
 30 31  2  0
 31 32  1  0
 32 33  2  0
 33 34  1  0
 34 35  1  0
 33 36  1  0
 36 37  2  0
  9  4  1  0
 19 14  1  0
 25 20  1  0
 37 30  1  0
  1 38  1  0
  1 39  1  0
  1 40  1  0
  2 41  1  6
  3 42  1  0
  3 43  1  0
  5 44  1  0
  6 45  1  0
  7 46  1  0
  8 47  1  0
  9 48  1  0
 12 49  1  6
 13 50  1  0
 13 51  1  0
 15 52  1  0
 16 53  1  0
 17 54  1  0
 18 55  1  0
 19 56  1  0
 21 57  1  0
 22 58  1  0
 23 59  1  0
 24 60  1  0
 29 61  1  0
 29 62  1  0
 31 63  1  0
 32 64  1  0
 34 65  1  0
 34 66  1  0
 35 67  1  0
 35 68  1  0
 36 69  1  0
 37 70  1  0
M  CHG  2   2   1  28  -1
M  END
>  <UniqueID>  (40) 
35

>  <SMILES>  (40) 
C[N@H+](Cc1ccccc1)C(=O)[C@H](Cc1ccccc1)c1ccccc1C(=O)[N-]Cc1ccc(CN)cc1

>  <Energy>  (40) 
81.05034714133474

>  <Genealogy>  (40) 
C[NH+](Cc1ccccc1)C(=O)C(Cc1ccccc1)c1ccccc1C(=O)[N-]Cc1ccc(CN)cc1 (protonated)
C[N@H+](Cc1ccccc1)C(=O)[C@H](Cc1ccccc1)c1ccccc1C(=O)[N-]Cc1ccc(CN)cc1 (chirality)
C[N@H+](Cc1ccccc1)C(=O)[C@H](Cc1ccccc1)c1ccccc1C(=O)[N-]Cc1ccc(CN)cc1 (3D coordinates assigned)
C[N@H+](Cc1ccccc1)C(=O)[C@H](Cc1ccccc1)c1ccccc1C(=O)[N-]Cc1ccc(CN)cc1 (optimized conformer: 81.05034714133474 kcal/mol)

>  <smiles>  (40) 
CN(Cc1ccccc1)C(=O)C(Cc1ccccc1)c1ccccc1C(=O)NCc1ccc(CN)cc1

>  <score_type>  (40) 
oracle

>  <origin>  (40) 
adg

>  <m_score__min__energy>  (40) 
-9.3800000000000008

>  <m_primary>  (40) 
energy

$$$$
40:0
     RDKit          3D

 66 69  0  0  0  0  0  0  0  0999 V2000
   60.1920   28.6860   50.9640 C   0  0  0  0  0  0  0  0  0  0  0  0
   59.3830   29.7590   50.2390 C   0  0  0  0  0  0  0  0  0  0  0  0
   59.4990   29.5860   48.7210 C   0  0  0  0  0  0  0  0  0  0  0  0
   57.9840   29.6670   50.6510 N   0  0  0  0  0  0  0  0  0  0  0  0
   57.5350   29.8850   51.9920 C   0  0  0  0  0  0  0  0  0  0  0  0
   56.7820   29.0420   52.5570 O   0  0  0  0  0  0  0  0  0  0  0  0
   57.9110   31.1240   52.6880 C   0  0  0  0  0  0  0  0  0  0  0  0
   58.1110   31.1930   54.0200 N   0  0  0  0  0  0  0  0  0  0  0  0
   58.5860   32.4010   54.2900 N   0  0  0  0  0  0  0  0  0  0  0  0
   58.8860   32.8730   55.6330 C   0  0  0  0  0  0  0  0  0  0  0  0
   58.6920   33.1280   53.1610 C   0  0  0  0  0  0  0  0  0  0  0  0
   58.2640   32.3400   52.1200 C   0  0  0  0  0  0  0  0  0  0  0  0
   58.1890   32.7380   50.7450 N   0  0  0  0  0  0  0  0  0  0  0  0
   59.2760   33.4050   50.0770 C   0  0  0  0  0  0  0  0  0  0  0  0
   60.2870   33.7650   50.7400 O   0  0  0  0  0  0  0  0  0  0  0  0
   59.2490   33.6620   48.6170 C   0  0  0  0  0  0  0  0  0  0  0  0
   60.0600   34.6720   48.0730 C   0  0  0  0  0  0  0  0  0  0  0  0
   60.0890   34.8950   46.6940 C   0  0  0  0  0  0  0  0  0  0  0  0
   59.3200   34.1060   45.8390 C   0  0  0  0  0  0  0  0  0  0  0  0
   58.5040   33.0910   46.3600 C   0  0  0  0  0  0  0  0  0  0  0  0
   57.7230   32.2280   45.4510 C   0  0  0  0  0  0  0  0  0  0  0  0
   56.5080   32.4990   45.2390 O   0  0  0  0  0  0  0  0  0  0  0  0
   58.3200   31.0770   44.8250 N   0  0  0  0  0  0  0  0  0  0  0  0
   59.2700   30.2430   45.5760 C   0  0  0  0  0  0  0  0  0  0  0  0
   59.1280   28.7570   45.1940 C   0  0  0  0  0  0  0  0  0  0  0  0
   57.6580   28.4260   44.8410 C   0  0  0  0  0  0  0  0  0  0  0  0
   56.8750   28.8500   45.9090 F   0  0  0  0  0  0  0  0  0  0  0  0
   57.4010   26.9370   44.6260 C   0  0  0  0  0  0  0  0  0  0  0  0
   57.7660   26.2740   43.4350 C   0  0  0  0  0  0  0  0  0  0  0  0
   57.4690   24.9190   43.2540 C   0  0  0  0  0  0  0  0  0  0  0  0
   56.7800   24.2100   44.2430 C   0  0  0  0  0  0  0  0  0  0  0  0
   56.4680   22.8170   44.0510 C   0  0  0  0  0  0  0  0  0  0  0  0
   56.2150   21.6970   43.8940 N   0  0  0  0  0  0  0  0  0  0  0  0
   56.3780   24.8640   45.4120 C   0  0  0  0  0  0  0  0  0  0  0  0
   56.6780   26.2150   45.5980 C   0  0  0  0  0  0  0  0  0  0  0  0
   57.2330   29.2190   43.5810 C   0  0  0  0  0  0  0  0  0  0  0  0
   57.8600   30.6260   43.5040 C   0  0  0  0  0  0  0  0  0  0  0  0
   58.4720   32.8720   47.7470 C   0  0  0  0  0  0  0  0  0  0  0  0
   60.0898   28.8215   52.0508 H   0  0  0  0  0  0  0  0  0  0  0  0
   59.8174   27.6910   50.6817 H   0  0  0  0  0  0  0  0  0  0  0  0
   61.2517   28.7724   50.6817 H   0  0  0  0  0  0  0  0  0  0  0  0
   59.7800   30.7503   50.5030 H   0  0  0  0  0  0  0  0  0  0  0  0
   60.0990   28.6912   48.4987 H   0  0  0  0  0  0  0  0  0  0  0  0
   58.4947   29.4711   48.2872 H   0  0  0  0  0  0  0  0  0  0  0  0
   59.9866   30.4715   48.2872 H   0  0  0  0  0  0  0  0  0  0  0  0
   58.4481   32.1840   56.3702 H   0  0  0  0  0  0  0  0  0  0  0  0
   59.9764   32.9142   55.7721 H   0  0  0  0  0  0  0  0  0  0  0  0
   58.4604   33.8777   55.7721 H   0  0  0  0  0  0  0  0  0  0  0  0
   59.0550   34.1637   53.0861 H   0  0  0  0  0  0  0  0  0  0  0  0
   57.3720   32.3940   50.1960 H   0  0  0  0  0  0  0  0  0  0  0  0
   60.6777   35.2928   48.7387 H   0  0  0  0  0  0  0  0  0  0  0  0
   60.7205   35.6956   46.2813 H   0  0  0  0  0  0  0  0  0  0  0  0
   59.3534   34.2801   44.7534 H   0  0  0  0  0  0  0  0  0  0  0  0
   60.2944   30.5750   45.3518 H   0  0  0  0  0  0  0  0  0  0  0  0
   59.0547   30.3493   46.6495 H   0  0  0  0  0  0  0  0  0  0  0  0
   59.7660   28.5445   44.3235 H   0  0  0  0  0  0  0  0  0  0  0  0
   59.4361   28.1387   46.0500 H   0  0  0  0  0  0  0  0  0  0  0  0
   58.2890   26.8279   42.6414 H   0  0  0  0  0  0  0  0  0  0  0  0
   57.7787   24.4091   42.3298 H   0  0  0  0  0  0  0  0  0  0  0  0
   55.8243   24.3130   46.1865 H   0  0  0  0  0  0  0  0  0  0  0  0
   56.3458   26.7231   46.5153 H   0  0  0  0  0  0  0  0  0  0  0  0
   57.5406   28.6507   42.6908 H   0  0  0  0  0  0  0  0  0  0  0  0
   56.1422   29.3513   43.6325 H   0  0  0  0  0  0  0  0  0  0  0  0
   58.7175   30.5993   42.8155 H   0  0  0  0  0  0  0  0  0  0  0  0
   57.0944   31.3288   43.1436 H   0  0  0  0  0  0  0  0  0  0  0  0
   57.8339   32.0758   48.1580 H   0  0  0  0  0  0  0  0  0  0  0  0
  1  2  1  0
  2  3  1  0
  2  4  1  0
  4  5  1  0
  5  6  2  0
  5  7  1  0
  7  8  2  0
  8  9  1  0
  9 10  1  0
  9 11  1  0
 11 12  2  0
 12 13  1  0
 13 14  1  0
 14 15  2  0
 14 16  1  0
 16 17  2  0
 17 18  1  0
 18 19  2  0
 19 20  1  0
 20 21  1  0
 21 22  2  0
 21 23  1  0
 23 24  1  0
 24 25  1  0
 25 26  1  0
 26 27  1  0
 26 28  1  0
 28 29  2  0
 29 30  1  0
 30 31  2  0
 31 32  1  0
 32 33  3  0
 31 34  1  0
 34 35  2  0
 26 36  1  0
 36 37  1  0
 20 38  2  0
 12  7  1  0
 38 16  1  0
 37 23  1  0
 35 28  1  0
  1 39  1  0
  1 40  1  0
  1 41  1  0
  2 42  1  0
  3 43  1  0
  3 44  1  0
  3 45  1  0
 10 46  1  0
 10 47  1  0
 10 48  1  0
 11 49  1  0
 13 50  1  0
 17 51  1  0
 18 52  1  0
 19 53  1  0
 24 54  1  0
 24 55  1  0
 25 56  1  0
 25 57  1  0
 29 58  1  0
 30 59  1  0
 34 60  1  0
 35 61  1  0
 36 62  1  0
 36 63  1  0
 37 64  1  0
 37 65  1  0
 38 66  1  0
M  CHG  1   4  -1
M  END
>  <UniqueID>  (41) 
36

>  <SMILES>  (41) 
CC(C)[N-]C(=O)c1nn(C)cc1NC(=O)c1cccc(C(=O)N2CCC(F)(c3ccc(C#N)cc3)CC2)c1

>  <Energy>  (41) 
112.65732301281685

>  <Genealogy>  (41) 
CC(C)[N-]C(=O)c1nn(C)cc1NC(=O)c1cccc(C(=O)N2CCC(F)(c3ccc(C#N)cc3)CC2)c1 (protonated)
CC(C)[N-]C(=O)c1nn(C)cc1NC(=O)c1cccc(C(=O)N2CCC(F)(c3ccc(C#N)cc3)CC2)c1 (3D coordinates assigned)
CC(C)[N-]C(=O)c1nn(C)cc1NC(=O)c1cccc(C(=O)N2CCC(F)(c3ccc(C#N)cc3)CC2)c1 (nonaromatic ring conformer: 112.65732301281685 kcal/mol)

>  <smiles>  (41) 
CC(C)NC(=O)c1nn(C)cc1NC(=O)c1cccc(C(=O)N2CCC(F)(c3ccc(C#N)cc3)CC2)c1

>  <score_type>  (41) 
oracle

>  <origin>  (41) 
adg

>  <m_score__min__energy>  (41) 
-10.800000000000001

>  <m_primary>  (41) 
energy

$$$$
41:0
     RDKit          3D

 50 53  0  0  0  0  0  0  0  0999 V2000
   60.6800   28.8510   45.9110 C   0  0  0  0  0  0  0  0  0  0  0  0
   59.6900   28.3590   46.9640 C   0  0  0  0  0  0  0  0  0  0  0  0
   58.5260   29.2410   47.0230 N   0  0  0  0  0  0  0  0  0  0  0  0
   58.1630   30.2030   46.0120 C   0  0  0  0  0  0  0  0  0  0  0  0
   57.7450   29.7430   44.7520 C   0  0  0  0  0  0  0  0  0  0  0  0
   57.3600   30.6430   43.7570 C   0  0  0  0  0  0  0  0  0  0  0  0
   57.3960   32.0200   44.0040 C   0  0  0  0  0  0  0  0  0  0  0  0
   57.8110   32.4970   45.2560 C   0  0  0  0  0  0  0  0  0  0  0  0
   57.8190   33.9410   45.5350 C   0  0  0  0  0  0  0  0  0  0  0  0
   56.8150   34.6290   45.2030 O   0  0  0  0  0  0  0  0  0  0  0  0
   58.9370   34.5600   46.2130 N   0  0  1  0  0  0  0  0  0  0  0  0
   58.8400   34.3210   47.6770 C   0  0  0  0  0  0  0  0  0  0  0  0
   60.2040   34.4420   48.3790 C   0  0  0  0  0  0  0  0  0  0  0  0
   61.2860   33.4610   47.8200 C   0  0  1  0  0  0  0  0  0  0  0  0
   60.8850   32.9840   46.3940 C   0  0  0  0  0  0  0  0  0  0  0  0
   60.2230   34.1190   45.6030 C   0  0  0  0  0  0  0  0  0  0  0  0
   62.5080   34.2140   47.7580 O   0  0  0  0  0  0  0  0  0  0  0  0
   63.6900   33.4270   47.6680 C   0  0  0  0  0  0  0  0  0  0  0  0
   63.9080   32.5850   48.9290 C   0  0  0  0  0  0  0  0  0  0  0  0
   62.6570   31.8440   49.2130 C   0  0  0  0  0  0  0  0  0  0  0  0
   62.4910   30.4820   50.1840 S   0  0  0  0  0  0  0  0  0  0  0  0
   60.8170   30.3890   50.0020 C   0  0  0  0  0  0  0  0  0  0  0  0
   60.0210   29.4390   50.5670 F   0  0  0  0  0  0  0  0  0  0  0  0
   60.3710   31.4230   49.1950 C   0  0  0  0  0  0  0  0  0  0  0  0
   61.4190   32.2580   48.7540 C   0  0  0  0  0  0  0  0  0  0  0  0
   58.1930   31.5920   46.2550 C   0  0  0  0  0  0  0  0  0  0  0  0
   61.5583   29.2875   46.4091 H   0  0  0  0  0  0  0  0  0  0  0  0
   60.9972   28.0057   45.2826 H   0  0  0  0  0  0  0  0  0  0  0  0
   60.1978   29.6143   45.2826 H   0  0  0  0  0  0  0  0  0  0  0  0
   59.3609   27.3420   46.7044 H   0  0  0  0  0  0  0  0  0  0  0  0
   60.1859   28.3577   47.9459 H   0  0  0  0  0  0  0  0  0  0  0  0
   57.9300   29.1800   47.8780 H   0  0  0  0  0  0  0  0  0  0  0  0
   57.7209   28.6624   44.5475 H   0  0  0  0  0  0  0  0  0  0  0  0
   57.0278   30.2693   42.7772 H   0  0  0  0  0  0  0  0  0  0  0  0
   57.0989   32.7281   43.2164 H   0  0  0  0  0  0  0  0  0  0  0  0
   58.8740   35.5950   46.0620 H   0  0  0  0  0  0  0  0  0  0  0  0
   58.1514   35.0606   48.1115 H   0  0  0  0  0  0  0  0  0  0  0  0
   58.4735   33.2948   47.8274 H   0  0  0  0  0  0  0  0  0  0  0  0
   60.5699   35.4716   48.2526 H   0  0  0  0  0  0  0  0  0  0  0  0
   60.0468   34.1801   49.4358 H   0  0  0  0  0  0  0  0  0  0  0  0
   61.7864   32.6504   45.8591 H   0  0  0  0  0  0  0  0  0  0  0  0
   60.1664   32.1566   46.4894 H   0  0  0  0  0  0  0  0  0  0  0  0
   60.9116   34.9762   45.5714 H   0  0  0  0  0  0  0  0  0  0  0  0
   60.0038   33.7414   44.5933 H   0  0  0  0  0  0  0  0  0  0  0  0
   63.6057   32.7552   46.8011 H   0  0  0  0  0  0  0  0  0  0  0  0
   64.5472   34.1075   47.5579 H   0  0  0  0  0  0  0  0  0  0  0  0
   64.7321   31.8752   48.7649 H   0  0  0  0  0  0  0  0  0  0  0  0
   64.1666   33.2337   49.7789 H   0  0  0  0  0  0  0  0  0  0  0  0
   59.3151   31.5761   48.9274 H   0  0  0  0  0  0  0  0  0  0  0  0
   58.5188   31.9676   47.2362 H   0  0  0  0  0  0  0  0  0  0  0  0
  1  2  1  0
  2  3  1  0
  3  4  1  0
  4  5  2  0
  5  6  1  0
  6  7  2  0
  7  8  1  0
  8  9  1  0
  9 10  2  0
  9 11  1  0
 11 12  1  0
 12 13  1  0
 13 14  1  0
 14 15  1  0
 15 16  1  0
 14 17  1  6
 17 18  1  0
 18 19  1  0
 19 20  1  0
 20 21  1  0
 21 22  1  0
 22 23  1  0
 22 24  2  0
 24 25  1  0
  8 26  2  0
 26  4  1  0
 16 11  1  0
 25 20  2  0
 25 14  1  0
  1 27  1  0
  1 28  1  0
  1 29  1  0
  2 30  1  0
  2 31  1  0
  3 32  1  0
  5 33  1  0
  6 34  1  0
  7 35  1  0
 11 36  1  1
 12 37  1  0
 12 38  1  0
 13 39  1  0
 13 40  1  0
 15 41  1  0
 15 42  1  0
 16 43  1  0
 16 44  1  0
 18 45  1  0
 18 46  1  0
 19 47  1  0
 19 48  1  0
 24 49  1  0
 26 50  1  0
M  CHG  1  11   1
M  END
>  <UniqueID>  (42) 
37

>  <SMILES>  (42) 
CCNc1cccc(C(=O)[NH+]2CCC3(CC2)OCCc2sc(F)cc23)c1

>  <Energy>  (42) 
104.44239095571474

>  <Genealogy>  (42) 
CCNc1cccc(C(=O)[NH+]2CCC3(CC2)OCCc2sc(F)cc23)c1 (protonated)
CCNc1cccc(C(=O)[NH+]2CCC3(CC2)OCCc2sc(F)cc23)c1 (3D coordinates assigned)
CCNc1cccc(C(=O)[NH+]2CCC3(CC2)OCCc2sc(F)cc23)c1 (nonaromatic ring conformer: 104.44239095571474 kcal/mol)

>  <smiles>  (42) 
CCNc1cccc(C(=O)N2CCC3(CC2)OCCc2sc(F)cc23)c1

>  <score_type>  (42) 
oracle

>  <origin>  (42) 
adg

>  <m_score__min__energy>  (42) 
-6.9000000000000004

>  <m_primary>  (42) 
energy

$$$$
42:0
     RDKit          3D

 54 57  0  0  0  0  0  0  0  0999 V2000
   60.6130   33.6120   50.2170 O   0  0  0  0  0  0  0  0  0  0  0  0
   59.8740   33.4650   49.2060 C   0  0  0  0  0  0  0  0  0  0  0  0
   60.2510   34.1390   47.9230 C   0  0  0  0  0  0  0  0  0  0  0  0
   59.3600   33.6610   46.8090 C   0  0  0  0  0  0  0  0  0  0  0  0
   58.4580   34.5440   46.1920 C   0  0  0  0  0  0  0  0  0  0  0  0
   57.6000   34.0870   45.1860 C   0  0  0  0  0  0  0  0  0  0  0  0
   57.6320   32.7460   44.7950 C   0  0  0  0  0  0  0  0  0  0  0  0
   58.5170   31.8580   45.4130 C   0  0  0  0  0  0  0  0  0  0  0  0
   59.3770   32.3100   46.4190 C   0  0  0  0  0  0  0  0  0  0  0  0
   58.6380   32.7370   49.2980 N   0  0  0  0  0  0  0  0  0  0  0  0
   58.2140   32.0120   50.4660 C   0  0  0  0  0  0  0  0  0  0  0  0
   58.1580   30.6080   50.4820 C   0  0  0  0  0  0  0  0  0  0  0  0
   57.7430   29.9300   51.6310 C   0  0  0  0  0  0  0  0  0  0  0  0
   57.3760   30.6410   52.7860 C   0  0  0  0  0  0  0  0  0  0  0  0
   56.9460   29.9070   54.0410 C   0  0  0  0  0  0  0  0  0  0  0  0
   55.5140   29.5300   54.0570 N   0  0  0  0  0  0  0  0  0  0  0  0
   54.5860   30.6060   53.6390 C   0  0  0  0  0  0  0  0  0  0  0  0
   53.9920   30.3460   52.2440 C   0  0  0  0  0  0  0  0  0  0  0  0
   53.2970   29.0340   52.1460 N   0  0  0  0  0  0  0  0  0  0  0  0
   51.8280   29.1760   52.1790 C   0  0  0  0  0  0  0  0  0  0  0  0
   51.4350   30.5810   51.8470 C   0  0  0  0  0  0  0  0  0  0  0  0
   51.4080   31.0690   50.5920 N   0  0  0  0  0  0  0  0  0  0  0  0
   51.0410   32.3350   50.6850 N   0  0  0  0  0  0  0  0  0  0  0  0
   50.8620   32.5740   51.9940 C   0  0  0  0  0  0  0  0  0  0  0  0
   50.5120   33.6940   52.4490 O   0  0  0  0  0  0  0  0  0  0  0  0
   51.1000   31.5040   52.7730 N   0  0  0  0  0  0  0  0  0  0  0  0
   53.7470   28.0460   53.1550 C   0  0  0  0  0  0  0  0  0  0  0  0
   55.2400   28.2090   53.4530 C   0  0  0  0  0  0  0  0  0  0  0  0
   57.3710   32.0460   52.7460 C   0  0  0  0  0  0  0  0  0  0  0  0
   57.7880   32.7230   51.5970 C   0  0  0  0  0  0  0  0  0  0  0  0
   60.1396   35.2274   48.0369 H   0  0  0  0  0  0  0  0  0  0  0  0
   61.2955   33.8941   47.6800 H   0  0  0  0  0  0  0  0  0  0  0  0
   58.4263   35.5992   46.5013 H   0  0  0  0  0  0  0  0  0  0  0  0
   56.8996   34.7839   44.7025 H   0  0  0  0  0  0  0  0  0  0  0  0
   56.9604   32.3889   44.0004 H   0  0  0  0  0  0  0  0  0  0  0  0
   58.5371   30.8015   45.1075 H   0  0  0  0  0  0  0  0  0  0  0  0
   60.0685   31.6070   46.9064 H   0  0  0  0  0  0  0  0  0  0  0  0
   57.9580   32.8340   48.5110 H   0  0  0  0  0  0  0  0  0  0  0  0
   58.4426   30.0393   49.5845 H   0  0  0  0  0  0  0  0  0  0  0  0
   57.7033   28.8307   51.6314 H   0  0  0  0  0  0  0  0  0  0  0  0
   57.5463   28.9894   54.1280 H   0  0  0  0  0  0  0  0  0  0  0  0
   57.1031   30.5971   54.8831 H   0  0  0  0  0  0  0  0  0  0  0  0
   53.7649   30.6698   54.3682 H   0  0  0  0  0  0  0  0  0  0  0  0
   55.1544   31.5468   53.5960 H   0  0  0  0  0  0  0  0  0  0  0  0
   53.2698   31.1437   52.0158 H   0  0  0  0  0  0  0  0  0  0  0  0
   54.8264   30.3319   51.5273 H   0  0  0  0  0  0  0  0  0  0  0  0
   51.3805   28.4906   51.4441 H   0  0  0  0  0  0  0  0  0  0  0  0
   51.4674   28.9326   53.1893 H   0  0  0  0  0  0  0  0  0  0  0  0
   53.1763   28.1944   54.0836 H   0  0  0  0  0  0  0  0  0  0  0  0
   53.5770   27.0350   52.7564 H   0  0  0  0  0  0  0  0  0  0  0  0
   55.5564   27.4205   54.1517 H   0  0  0  0  0  0  0  0  0  0  0  0
   55.7984   28.1307   52.5085 H   0  0  0  0  0  0  0  0  0  0  0  0
   57.0366   32.6164   53.6251 H   0  0  0  0  0  0  0  0  0  0  0  0
   57.7820   33.8228   51.5796 H   0  0  0  0  0  0  0  0  0  0  0  0
  1  2  2  0
  2  3  1  0
  3  4  1  0
  4  5  2  0
  5  6  1  0
  6  7  2  0
  7  8  1  0
  8  9  2  0
  2 10  1  0
 10 11  1  0
 11 12  2  0
 12 13  1  0
 13 14  2  0
 14 15  1  0
 15 16  1  0
 16 17  1  0
 17 18  1  0
 18 19  1  0
 19 20  1  0
 20 21  1  0
 21 22  2  0
 22 23  1  0
 23 24  1  0
 24 25  2  0
 24 26  1  0
 19 27  1  0
 27 28  1  0
 14 29  1  0
 29 30  2  0
  9  4  1  0
 30 11  1  0
 28 16  1  0
 26 21  1  0
  3 31  1  0
  3 32  1  0
  5 33  1  0
  6 34  1  0
  7 35  1  0
  8 36  1  0
  9 37  1  0
 10 38  1  0
 12 39  1  0
 13 40  1  0
 15 41  1  0
 15 42  1  0
 17 43  1  0
 17 44  1  0
 18 45  1  0
 18 46  1  0
 20 47  1  0
 20 48  1  0
 27 49  1  0
 27 50  1  0
 28 51  1  0
 28 52  1  0
 29 53  1  0
 30 54  1  0
M  CHG  2  23  -1  26  -1
M  END
>  <UniqueID>  (43) 
38

>  <SMILES>  (43) 
O=C(Cc1ccccc1)Nc1ccc(CN2CCN(Cc3n[n-]c(=O)[n-]3)CC2)cc1

>  <Energy>  (43) 
105.6343840988551

>  <Genealogy>  (43) 
O=C(Cc1ccccc1)Nc1ccc(CN2CCN(Cc3n[n-]c(=O)[n-]3)CC2)cc1 (protonated)
O=C(Cc1ccccc1)Nc1ccc(CN2CCN(Cc3n[n-]c(=O)[n-]3)CC2)cc1 (3D coordinates assigned)
O=C(Cc1ccccc1)Nc1ccc(CN2CCN(Cc3n[n-]c(=O)[n-]3)CC2)cc1 (nonaromatic ring conformer: 105.6343840988551 kcal/mol)

>  <smiles>  (43) 
O=C(Cc1ccccc1)Nc1ccc(CN2CCN(Cc3n[nH]c(=O)[nH]3)CC2)cc1

>  <score_type>  (43) 
oracle

>  <origin>  (43) 
adg

>  <m_score__min__energy>  (43) 
-13.859999999999999

>  <m_primary>  (43) 
energy

$$$$
43:0
     RDKit          3D

 56 59  0  0  0  0  0  0  0  0999 V2000
   59.4270   26.7310   48.2080 C   0  0  0  0  0  0  0  0  0  0  0  0
   59.7600   27.9340   47.7170 C   0  0  0  0  0  0  0  0  0  0  0  0
   59.5080   28.4160   46.4220 C   0  0  0  0  0  0  0  0  0  0  0  0
   58.7090   27.9460   45.4450 C   0  0  0  0  0  0  0  0  0  0  0  0
   57.4770   27.1670   45.6480 C   0  0  0  0  0  0  0  0  0  0  0  0
   57.4380   25.8930   46.0820 N   0  0  0  0  0  0  0  0  0  0  0  0
   56.1190   25.6630   46.2540 C   0  0  0  0  0  0  0  0  0  0  0  0
   55.6700   24.5540   46.6460 O   0  0  0  0  0  0  0  0  0  0  0  0
   55.3200   26.7170   45.9860 N   0  0  0  0  0  0  0  0  0  0  0  0
   56.1980   27.6640   45.6170 C   0  0  0  0  0  0  0  0  0  0  0  0
   55.8410   28.9620   45.2670 O   0  0  0  0  0  0  0  0  0  0  0  0
   60.2420   29.5820   46.2930 C   0  0  0  0  0  0  0  0  0  0  0  0
   60.8360   29.8150   47.5150 C   0  0  0  0  0  0  0  0  0  0  0  0
   61.6010   31.0340   47.8330 C   0  0  0  0  0  0  0  0  0  0  0  0
   62.6330   31.2890   47.1550 O   0  0  0  0  0  0  0  0  0  0  0  0
   61.1440   31.9650   48.8390 N   0  0  0  0  0  0  0  0  0  0  0  0
   59.7530   31.9360   49.3110 C   0  0  0  0  0  0  0  0  0  0  0  0
   59.2800   33.3510   49.6830 C   0  0  0  0  0  0  0  0  0  0  0  0
   59.8850   34.3800   48.8090 N   0  0  0  0  0  0  0  0  0  0  0  0
   59.5220   34.2540   47.3750 C   0  0  0  0  0  0  0  0  0  0  0  0
   58.1470   33.5860   47.1490 C   0  0  0  0  0  0  0  0  0  0  0  0
   58.0400   32.9200   45.7960 C   0  0  0  0  0  0  0  0  0  0  0  0
   57.7850   31.5400   45.7070 C   0  0  0  0  0  0  0  0  0  0  0  0
   57.6810   30.9200   44.4590 C   0  0  0  0  0  0  0  0  0  0  0  0
   57.8360   31.6680   43.2890 C   0  0  0  0  0  0  0  0  0  0  0  0
   58.1090   33.0360   43.3670 C   0  0  0  0  0  0  0  0  0  0  0  0
   58.2220   33.6600   44.6140 C   0  0  0  0  0  0  0  0  0  0  0  0
   61.3610   34.4330   48.9890 C   0  0  0  0  0  0  0  0  0  0  0  0
   62.0030   33.0610   49.3040 C   0  0  0  0  0  0  0  0  0  0  0  0
   60.5470   28.8180   48.3830 N   0  0  0  0  0  0  0  0  0  0  0  0
   61.1190   28.6380   49.7230 C   0  0  0  0  0  0  0  0  0  0  0  0
   59.6820   26.4708   49.2459 H   0  0  0  0  0  0  0  0  0  0  0  0
   58.8990   26.0046   47.5727 H   0  0  0  0  0  0  0  0  0  0  0  0
   59.0021   28.1628   44.4072 H   0  0  0  0  0  0  0  0  0  0  0  0
   55.7860   29.6890   45.9680 H   0  0  0  0  0  0  0  0  0  0  0  0
   60.3338   30.2030   45.3897 H   0  0  0  0  0  0  0  0  0  0  0  0
   59.1086   31.5370   48.5138 H   0  0  0  0  0  0  0  0  0  0  0  0
   59.6938   31.2954   50.2033 H   0  0  0  0  0  0  0  0  0  0  0  0
   58.1855   33.3982   49.5836 H   0  0  0  0  0  0  0  0  0  0  0  0
   59.5922   33.5549   50.7179 H   0  0  0  0  0  0  0  0  0  0  0  0
   59.4985   35.2602   46.9311 H   0  0  0  0  0  0  0  0  0  0  0  0
   60.2786   33.6101   46.9027 H   0  0  0  0  0  0  0  0  0  0  0  0
   57.9919   32.8261   47.9291 H   0  0  0  0  0  0  0  0  0  0  0  0
   57.3818   34.3749   47.1936 H   0  0  0  0  0  0  0  0  0  0  0  0
   57.6667   30.9453   46.6248 H   0  0  0  0  0  0  0  0  0  0  0  0
   57.4767   29.8409   44.3975 H   0  0  0  0  0  0  0  0  0  0  0  0
   57.7432   31.1803   42.3074 H   0  0  0  0  0  0  0  0  0  0  0  0
   58.2354   33.6237   42.4458 H   0  0  0  0  0  0  0  0  0  0  0  0
   58.4541   34.7338   44.6702 H   0  0  0  0  0  0  0  0  0  0  0  0
   61.8094   34.8208   48.0624 H   0  0  0  0  0  0  0  0  0  0  0  0
   61.5542   35.0828   49.8553 H   0  0  0  0  0  0  0  0  0  0  0  0
   62.9779   32.9944   48.7989 H   0  0  0  0  0  0  0  0  0  0  0  0
   62.1295   32.9724   50.3931 H   0  0  0  0  0  0  0  0  0  0  0  0
   60.3589   28.8772   50.4813 H   0  0  0  0  0  0  0  0  0  0  0  0
   61.4438   27.5942   49.8459 H   0  0  0  0  0  0  0  0  0  0  0  0
   61.9830   29.3077   49.8459 H   0  0  0  0  0  0  0  0  0  0  0  0
  1  2  2  0
  2  3  1  0
  3  4  2  3
  4  5  1  0
  5  6  1  0
  6  7  1  0
  7  8  2  0
  7  9  1  0
  9 10  1  0
 10 11  1  0
  3 12  1  0
 12 13  2  0
 13 14  1  0
 14 15  2  0
 14 16  1  0
 16 17  1  0
 17 18  1  0
 18 19  1  0
 19 20  1  0
 20 21  1  0
 21 22  1  0
 22 23  2  0
 23 24  1  0
 24 25  2  0
 25 26  1  0
 26 27  2  0
 19 28  1  0
 28 29  1  0
 13 30  1  0
 30 31  1  0
 30  2  1  0
 10  5  2  0
 29 16  1  0
 27 22  1  0
  1 32  1  0
  1 33  1  0
  4 34  1  0
 11 35  1  0
 12 36  1  0
 17 37  1  0
 17 38  1  0
 18 39  1  0
 18 40  1  0
 20 41  1  0
 20 42  1  0
 21 43  1  0
 21 44  1  0
 23 45  1  0
 24 46  1  0
 25 47  1  0
 26 48  1  0
 27 49  1  0
 28 50  1  0
 28 51  1  0
 29 52  1  0
 29 53  1  0
 31 54  1  0
 31 55  1  0
 31 56  1  0
M  CHG  2   6  -1   9  -1
M  END
>  <UniqueID>  (44) 
39

>  <SMILES>  (44) 
C=c1c(=Cc2[n-]c(=O)[n-]c2O)cc(C(=O)N2CCN(CCc3ccccc3)CC2)n1C

>  <Energy>  (44) 
139.54364827843094

>  <Genealogy>  (44) 
C=c1c(=Cc2[n-]c(=O)[n-]c2O)cc(C(=O)N2CCN(CCc3ccccc3)CC2)n1C (protonated)
C=c1c(=Cc2[n-]c(=O)[n-]c2O)cc(C(=O)N2CCN(CCc3ccccc3)CC2)n1C (3D coordinates assigned)
C=c1c(=Cc2[n-]c(=O)[n-]c2O)cc(C(=O)N2CCN(CCc3ccccc3)CC2)n1C (nonaromatic ring conformer: 139.54364827843094 kcal/mol)

>  <smiles>  (44) 
C=c1c(=Cc2[nH]c(=O)[nH]c2O)cc(C(=O)N2CCN(CCc3ccccc3)CC2)n1C

>  <score_type>  (44) 
oracle

>  <origin>  (44) 
adg

>  <m_score__min__energy>  (44) 
-13.92

>  <m_primary>  (44) 
energy

$$$$
44:0
     RDKit          3D

 47 49  0  0  0  0  0  0  0  0999 V2000
   50.5830   23.6090   45.2440 C   0  0  0  0  0  0  0  0  0  0  0  0
   51.8170   23.0560   44.7110 N   0  0  0  0  0  0  0  0  0  0  0  0
   53.1040   23.3970   45.2320 C   0  0  0  0  0  0  0  0  0  0  0  0
   53.3210   24.5860   45.5830 O   0  0  0  0  0  0  0  0  0  0  0  0
   54.1480   22.4100   45.2630 N   0  0  0  0  0  0  0  0  0  0  0  0
   55.4090   22.5280   44.9460 C   0  0  0  0  0  0  0  0  0  0  0  0
   56.2860   23.4290   45.5880 C   0  0  0  0  0  0  0  0  0  0  0  0
   57.6310   23.4840   45.2060 C   0  0  0  0  0  0  0  0  0  0  0  0
   58.4780   24.4010   45.8470 O   0  0  0  0  0  0  0  0  0  0  0  0
   58.3680   25.7970   45.7750 C   0  0  0  0  0  0  0  0  0  0  0  0
   57.1250   26.4510   45.8390 C   0  0  0  0  0  0  0  0  0  0  0  0
   57.0570   27.8430   45.7490 C   0  0  0  0  0  0  0  0  0  0  0  0
   58.2250   28.6060   45.6010 C   0  0  0  0  0  0  0  0  0  0  0  0
   58.1220   30.0340   45.4900 N   0  0  0  0  0  0  0  0  0  0  0  0
   57.0110   30.7180   44.8830 C   0  0  0  0  0  0  0  0  0  0  0  0
   56.0030   30.0760   44.4850 O   0  0  0  0  0  0  0  0  0  0  0  0
   57.0140   32.1440   44.7460 N   0  0  0  0  0  0  0  0  0  0  0  0
   57.8830   33.0520   45.4390 C   0  0  0  0  0  0  0  0  0  0  0  0
   58.4050   34.1490   44.7490 C   0  0  0  0  0  0  0  0  0  0  0  0
   59.2640   35.0430   45.3920 C   0  0  0  0  0  0  0  0  0  0  0  0
   59.6280   34.8320   46.7240 C   0  0  0  0  0  0  0  0  0  0  0  0
   59.1580   33.7030   47.4180 C   0  0  0  0  0  0  0  0  0  0  0  0
   59.5230   33.4860   48.8660 C   0  0  0  0  0  0  0  0  0  0  0  0
   58.5550   32.7030   49.4660 F   0  0  0  0  0  0  0  0  0  0  0  0
   60.7470   32.8480   48.9690 F   0  0  0  0  0  0  0  0  0  0  0  0
   59.6080   34.6940   49.5380 F   0  0  0  0  0  0  0  0  0  0  0  0
   58.2740   32.8220   46.7700 C   0  0  0  0  0  0  0  0  0  0  0  0
   59.4620   27.9470   45.4930 C   0  0  0  0  0  0  0  0  0  0  0  0
   59.5300   26.5530   45.5810 C   0  0  0  0  0  0  0  0  0  0  0  0
   58.0840   22.6550   44.1690 C   0  0  0  0  0  0  0  0  0  0  0  0
   57.1980   21.7610   43.5700 C   0  0  0  0  0  0  0  0  0  0  0  0
   55.9010   21.7170   43.9710 N   0  0  0  0  0  0  0  0  0  0  0  0
   50.6188   23.5930   46.3433 H   0  0  0  0  0  0  0  0  0  0  0  0
   50.4655   24.6459   44.8960 H   0  0  0  0  0  0  0  0  0  0  0  0
   49.7309   23.0067   44.8960 H   0  0  0  0  0  0  0  0  0  0  0  0
   55.9127   24.0865   46.3870 H   0  0  0  0  0  0  0  0  0  0  0  0
   56.2026   25.8641   45.9604 H   0  0  0  0  0  0  0  0  0  0  0  0
   56.0795   28.3454   45.7945 H   0  0  0  0  0  0  0  0  0  0  0  0
   58.9440   30.5990   45.8000 H   0  0  0  0  0  0  0  0  0  0  0  0
   58.1381   34.3094   43.6940 H   0  0  0  0  0  0  0  0  0  0  0  0
   59.6549   35.9155   44.8481 H   0  0  0  0  0  0  0  0  0  0  0  0
   60.2855   35.5525   47.2325 H   0  0  0  0  0  0  0  0  0  0  0  0
   57.8851   31.9455   47.3089 H   0  0  0  0  0  0  0  0  0  0  0  0
   60.3813   28.5309   45.3385 H   0  0  0  0  0  0  0  0  0  0  0  0
   60.5032   26.0472   45.4972 H   0  0  0  0  0  0  0  0  0  0  0  0
   59.1295   22.7100   43.8314 H   0  0  0  0  0  0  0  0  0  0  0  0
   57.5495   21.0906   42.7719 H   0  0  0  0  0  0  0  0  0  0  0  0
  1  2  1  0
  2  3  1  0
  3  4  2  0
  3  5  1  0
  5  6  2  3
  6  7  1  0
  7  8  2  0
  8  9  1  0
  9 10  1  0
 10 11  2  0
 11 12  1  0
 12 13  2  0
 13 14  1  0
 14 15  1  0
 15 16  2  0
 15 17  1  0
 17 18  1  0
 18 19  2  0
 19 20  1  0
 20 21  2  0
 21 22  1  0
 22 23  1  0
 23 24  1  0
 23 25  1  0
 23 26  1  0
 22 27  2  0
 13 28  1  0
 28 29  2  0
  8 30  1  0
 30 31  2  0
 31 32  1  0
 32  6  1  0
 29 10  1  0
 27 18  1  0
  1 33  1  0
  1 34  1  0
  1 35  1  0
  7 36  1  0
 11 37  1  0
 12 38  1  0
 14 39  1  0
 19 40  1  0
 20 41  1  0
 21 42  1  0
 27 43  1  0
 28 44  1  0
 29 45  1  0
 30 46  1  0
 31 47  1  0
M  CHG  3   2  -1  17  -1  32  -1
M  END
>  <UniqueID>  (45) 
40

>  <SMILES>  (45) 
C[N-]C(=O)N=c1cc(Oc2ccc(NC(=O)[N-]c3cccc(C(F)(F)F)c3)cc2)cc[n-]1

>  <Energy>  (45) 
70.02754561335006

>  <Genealogy>  (45) 
C[N-]C(=O)N=c1cc(Oc2ccc(NC(=O)[N-]c3cccc(C(F)(F)F)c3)cc2)cc[n-]1 (protonated)
C[N-]C(=O)N=c1cc(Oc2ccc(NC(=O)[N-]c3cccc(C(F)(F)F)c3)cc2)cc[n-]1 (3D coordinates assigned)
C[N-]C(=O)N=c1cc(Oc2ccc(NC(=O)[N-]c3cccc(C(F)(F)F)c3)cc2)cc[n-]1 (optimized conformer: 70.02754561335006 kcal/mol)

>  <smiles>  (45) 
CNC(=O)N=c1cc(Oc2ccc(NC(=O)Nc3cccc(C(F)(F)F)c3)cc2)cc[nH]1

>  <score_type>  (45) 
oracle

>  <origin>  (45) 
adg

>  <m_score__min__energy>  (45) 
-12.470000000000001

>  <m_primary>  (45) 
energy

$$$$
45:0
     RDKit          3D

 52 54  0  0  0  0  0  0  0  0999 V2000
   55.5330   29.1310   44.8590 O   0  0  0  0  0  0  0  0  0  0  0  0
   56.3590   29.8740   44.2600 C   0  0  0  0  0  0  0  0  0  0  0  0
   57.2810   29.3330   43.3600 O   0  0  0  0  0  0  0  0  0  0  0  0
   57.7630   27.9920   43.4180 C   0  0  0  0  0  0  0  0  0  0  0  0
   59.0470   27.9590   44.0360 O   0  0  0  0  0  0  0  0  0  0  0  0
   59.2720   27.5270   45.3480 C   0  0  0  0  0  0  0  0  0  0  0  0
   59.0440   26.3290   45.6700 O   0  0  0  0  0  0  0  0  0  0  0  0
   59.7640   28.4850   46.3620 C   0  0  0  0  0  0  0  0  0  0  0  0
   59.2980   28.4200   47.6850 C   0  0  0  0  0  0  0  0  0  0  0  0
   59.7570   29.3240   48.6470 C   0  0  0  0  0  0  0  0  0  0  0  0
   60.6960   30.3140   48.3050 C   0  0  0  0  0  0  0  0  0  0  0  0
   61.1850   31.2750   49.3270 C   0  0  0  0  0  0  0  0  0  0  0  0
   62.5030   31.1900   49.8180 C   0  0  0  0  0  0  0  0  0  0  0  0
   62.9600   32.0960   50.7790 C   0  0  0  0  0  0  0  0  0  0  0  0
   62.1130   33.0950   51.2610 C   0  0  0  0  0  0  0  0  0  0  0  0
   60.8040   33.1920   50.7820 C   0  0  0  0  0  0  0  0  0  0  0  0
   60.3400   32.2880   49.8200 C   0  0  0  0  0  0  0  0  0  0  0  0
   61.1630   30.3790   46.9810 C   0  0  0  0  0  0  0  0  0  0  0  0
   60.7020   29.4750   46.0200 C   0  0  0  0  0  0  0  0  0  0  0  0
   56.3470   31.2600   44.4580 O   0  0  0  0  0  0  0  0  0  0  0  0
   57.3880   32.0100   45.0260 C   0  0  0  0  0  0  0  0  0  0  0  0
   57.7880   31.7120   46.3330 C   0  0  0  0  0  0  0  0  0  0  0  0
   58.8150   32.4360   46.9460 C   0  0  0  0  0  0  0  0  0  0  0  0
   59.4530   33.4840   46.2620 C   0  0  0  0  0  0  0  0  0  0  0  0
   60.5390   34.2500   46.9140 C   0  0  0  0  0  0  0  0  0  0  0  0
   60.2920   34.9570   47.9290 O   0  0  0  0  0  0  0  0  0  0  0  0
   61.8380   34.1930   46.3940 O   0  0  0  0  0  0  0  0  0  0  0  0
   62.7930   33.1950   46.7550 C   0  0  0  0  0  0  0  0  0  0  0  0
   63.7370   33.7100   47.8430 C   0  0  0  0  0  0  0  0  0  0  0  0
   63.0410   34.4810   48.7840 O   0  0  0  0  0  0  0  0  0  0  0  0
   59.0370   33.7980   44.9560 C   0  0  0  0  0  0  0  0  0  0  0  0
   58.0100   33.0720   44.3440 C   0  0  0  0  0  0  0  0  0  0  0  0
   57.0619   27.3784   44.0028 H   0  0  0  0  0  0  0  0  0  0  0  0
   57.8454   27.5946   42.3956 H   0  0  0  0  0  0  0  0  0  0  0  0
   58.5646   27.6502   47.9670 H   0  0  0  0  0  0  0  0  0  0  0  0
   59.3813   29.2609   49.6789 H   0  0  0  0  0  0  0  0  0  0  0  0
   63.1765   30.4055   49.4425 H   0  0  0  0  0  0  0  0  0  0  0  0
   63.9905   32.0215   51.1566 H   0  0  0  0  0  0  0  0  0  0  0  0
   62.4759   33.8059   52.0179 H   0  0  0  0  0  0  0  0  0  0  0  0
   60.1372   33.9802   51.1617 H   0  0  0  0  0  0  0  0  0  0  0  0
   59.3086   32.3691   49.4464 H   0  0  0  0  0  0  0  0  0  0  0  0
   61.8974   31.1477   46.6988 H   0  0  0  0  0  0  0  0  0  0  0  0
   61.0761   29.5385   44.9875 H   0  0  0  0  0  0  0  0  0  0  0  0
   57.2898   30.9004   46.8836 H   0  0  0  0  0  0  0  0  0  0  0  0
   59.1254   32.1833   47.9706 H   0  0  0  0  0  0  0  0  0  0  0  0
   62.2621   32.3074   47.1296 H   0  0  0  0  0  0  0  0  0  0  0  0
   63.3880   32.9403   45.8656 H   0  0  0  0  0  0  0  0  0  0  0  0
   64.2015   32.8528   48.3523 H   0  0  0  0  0  0  0  0  0  0  0  0
   64.5063   34.3396   47.3721 H   0  0  0  0  0  0  0  0  0  0  0  0
   62.1880   34.7550   48.3560 H   0  0  0  0  0  0  0  0  0  0  0  0
   59.5230   34.6210   44.4114 H   0  0  0  0  0  0  0  0  0  0  0  0
   57.6872   33.3324   43.3252 H   0  0  0  0  0  0  0  0  0  0  0  0
  1  2  2  0
  2  3  1  0
  3  4  1  0
  4  5  1  0
  5  6  1  0
  6  7  2  0
  6  8  1  0
  8  9  2  0
  9 10  1  0
 10 11  2  0
 11 12  1  0
 12 13  2  0
 13 14  1  0
 14 15  2  0
 15 16  1  0
 16 17  2  0
 11 18  1  0
 18 19  2  0
  2 20  1  0
 20 21  1  0
 21 22  2  0
 22 23  1  0
 23 24  2  0
 24 25  1  0
 25 26  2  0
 25 27  1  0
 27 28  1  0
 28 29  1  0
 29 30  1  0
 24 31  1  0
 31 32  2  0
 19  8  1  0
 32 21  1  0
 17 12  1  0
  4 33  1  0
  4 34  1  0
  9 35  1  0
 10 36  1  0
 13 37  1  0
 14 38  1  0
 15 39  1  0
 16 40  1  0
 17 41  1  0
 18 42  1  0
 19 43  1  0
 22 44  1  0
 23 45  1  0
 28 46  1  0
 28 47  1  0
 29 48  1  0
 29 49  1  0
 30 50  1  0
 31 51  1  0
 32 52  1  0
M  END
>  <UniqueID>  (46) 
41

>  <SMILES>  (46) 
O=C(OCOC(=O)c1ccc(-c2ccccc2)cc1)Oc1ccc(C(=O)OCCO)cc1

>  <Energy>  (46) 
62.19703036915308

>  <Genealogy>  (46) 
O=C(OCOC(=O)c1ccc(-c2ccccc2)cc1)Oc1ccc(C(=O)OCCO)cc1 (3D coordinates assigned)
O=C(OCOC(=O)c1ccc(-c2ccccc2)cc1)Oc1ccc(C(=O)OCCO)cc1 (optimized conformer: 62.19703036915308 kcal/mol)

>  <smiles>  (46) 
O=C(OCOC(=O)c1ccc(-c2ccccc2)cc1)Oc1ccc(C(=O)OCCO)cc1

>  <score_type>  (46) 
oracle

>  <origin>  (46) 
adg

>  <m_score__min__energy>  (46) 
-8.4900000000000002

>  <m_primary>  (46) 
energy

$$$$
46:0
     RDKit          3D

 56 58  0  0  0  0  0  0  0  0999 V2000
   59.4796   33.4786   53.4108 H   0  0  0  0  0  0  0  0  0  0  0  0
   59.1190   32.9570   52.5120 C   0  0  0  0  0  0  0  0  0  0  0  0
   58.3090   31.8250   52.6410 C   0  0  0  0  0  0  0  0  0  0  0  0
   58.0282   31.4600   53.6400 H   0  0  0  0  0  0  0  0  0  0  0  0
   57.8560   31.1570   51.4990 C   0  0  0  0  0  0  0  0  0  0  0  0
   57.0550   30.0300   51.6270 O   0  0  0  0  0  0  0  0  0  0  0  0
   58.2090   31.6240   50.2280 C   0  0  0  0  0  0  0  0  0  0  0  0
   57.8574   31.0912   49.3322 H   0  0  0  0  0  0  0  0  0  0  0  0
   59.0110   32.7710   50.0900 C   0  0  0  0  0  0  0  0  0  0  0  0
   59.3880   33.2850   48.7200 C   0  0  0  0  0  0  0  0  0  0  0  0
   58.9748   34.2970   48.5971 H   0  0  0  0  0  0  0  0  0  0  0  0
   58.9764   32.5866   47.9765 H   0  0  0  0  0  0  0  0  0  0  0  0
   60.9260   33.3460   48.5090 C   0  0  1  0  0  0  0  0  0  0  0  0
   61.2622   34.0803   49.2558 H   0  0  0  0  0  0  0  0  0  0  0  0
   61.5900   32.0020   48.7490 C   0  0  0  0  0  0  0  0  0  0  0  0
   60.9870   31.0910   49.3000 O   0  0  0  0  0  0  0  0  0  0  0  0
   63.0240   31.7830   48.3350 C   0  0  0  0  0  0  0  0  0  0  0  0
   63.0528   31.0378   47.5264 H   0  0  0  0  0  0  0  0  0  0  0  0
   63.5866   31.4308   49.2122 H   0  0  0  0  0  0  0  0  0  0  0  0
   63.6710   33.0840   47.8380 C   0  0  0  0  0  0  0  0  0  0  0  0
   64.6617   32.8525   47.4198 H   0  0  0  0  0  0  0  0  0  0  0  0
   63.7549   33.7733   48.6912 H   0  0  0  0  0  0  0  0  0  0  0  0
   62.8190   33.7640   46.7540 C   0  0  0  0  0  0  0  0  0  0  0  0
   62.9135   33.1910   45.8198 H   0  0  0  0  0  0  0  0  0  0  0  0
   63.1877   34.7936   46.6354 H   0  0  0  0  0  0  0  0  0  0  0  0
   61.3490   33.8400   47.1330 C   0  0  0  0  0  0  0  0  0  0  0  0
   60.4450   34.1980   46.2650 N   0  0  0  0  0  0  0  0  0  0  0  0
   59.2960   33.4420   45.8630 C   0  0  0  0  0  0  0  0  0  0  0  0
   58.1700   34.1160   45.3810 C   0  0  0  0  0  0  0  0  0  0  0  0
   58.1625   35.2155   45.3487 H   0  0  0  0  0  0  0  0  0  0  0  0
   57.0540   33.4000   44.9400 C   0  0  0  0  0  0  0  0  0  0  0  0
   56.1696   33.9403   44.5712 H   0  0  0  0  0  0  0  0  0  0  0  0
   57.0530   32.0000   44.9640 C   0  0  0  0  0  0  0  0  0  0  0  0
   55.9120   31.3260   44.5040 O   0  0  0  0  0  0  0  0  0  0  0  0
   55.8880   30.0180   44.0010 C   0  0  0  0  0  0  0  0  0  0  0  0
   56.1630   29.7810   42.7950 O   0  0  0  0  0  0  0  0  0  0  0  0
   55.5990   28.9240   44.8750 N   0  0  0  0  0  0  0  0  0  0  0  0
   56.6300   28.0640   45.4440 C   0  0  0  0  0  0  0  0  0  0  0  0
   56.2311   27.0448   45.5539 H   0  0  0  0  0  0  0  0  0  0  0  0
   56.9249   28.4637   46.4255 H   0  0  0  0  0  0  0  0  0  0  0  0
   57.8620   28.0280   44.5330 C   0  0  0  0  0  0  0  0  0  0  0  0
   57.8497   28.9101   43.8759 H   0  0  0  0  0  0  0  0  0  0  0  0
   57.8310   27.1039   43.9371 H   0  0  0  0  0  0  0  0  0  0  0  0
   59.1540   28.0350   45.3580 C   0  0  0  0  0  0  0  0  0  0  0  0
   59.8415   28.7859   44.9415 H   0  0  0  0  0  0  0  0  0  0  0  0
   59.6017   27.0313   45.3123 H   0  0  0  0  0  0  0  0  0  0  0  0
   58.8740   28.3730   46.8200 C   0  0  0  0  0  0  0  0  0  0  0  0
   59.4404   27.6893   47.4694 H   0  0  0  0  0  0  0  0  0  0  0  0
   59.1816   29.4096   47.0221 H   0  0  0  0  0  0  0  0  0  0  0  0
   57.7983   28.2637   47.0221 H   0  0  0  0  0  0  0  0  0  0  0  0
   58.2070   31.3220   45.3980 C   0  0  0  0  0  0  0  0  0  0  0  0
   58.2311   30.2223   45.3902 H   0  0  0  0  0  0  0  0  0  0  0  0
   59.3230   32.0390   45.8390 C   0  0  0  0  0  0  0  0  0  0  0  0
   60.2249   31.5021   46.1681 H   0  0  0  0  0  0  0  0  0  0  0  0
   59.4720   33.4280   51.2440 C   0  0  0  0  0  0  0  0  0  0  0  0
   60.1133   34.3166   51.1489 H   0  0  0  0  0  0  0  0  0  0  0  0
  1  2  1  0
  2  3  2  0
  3  4  1  0
  3  5  1  0
  5  6  1  0
  5  7  2  0
  7  8  1  0
  7  9  1  0
  9 10  1  0
 10 11  1  0
 10 12  1  0
 10 13  1  0
 13 14  1  1
 13 15  1  0
 15 16  2  0
 15 17  1  0
 17 18  1  0
 17 19  1  0
 17 20  1  0
 20 21  1  0
 20 22  1  0
 20 23  1  0
 23 24  1  0
 23 25  1  0
 23 26  1  0
 26 27  2  0
 27 28  1  0
 28 29  2  0
 29 30  1  0
 29 31  1  0
 31 32  1  0
 31 33  2  0
 33 34  1  0
 34 35  1  0
 35 36  2  0
 35 37  1  0
 37 38  1  0
 38 39  1  0
 38 40  1  0
 38 41  1  0
 41 42  1  0
 41 43  1  0
 41 44  1  0
 44 45  1  0
 44 46  1  0
 44 47  1  0
 47 48  1  0
 47 49  1  0
 47 50  1  0
 33 51  1  0
 51 52  1  0
 51 53  2  0
 53 54  1  0
  9 55  2  0
 55 56  1  0
 55  2  1  0
 26 13  1  0
 53 28  1  0
M  CHG  2   6  -1  37  -1
M  END
>  <UniqueID>  (47) 
42

>  <SMILES>  (47) 
CCCC[N-]C(=O)Oc1ccc(/N=C2\CCCC(=O)[C@@H]2Cc2cccc([O-])c2)cc1

>  <Energy>  (47) 
59.80703764084311

>  <Genealogy>  (47) 
CCCC[N-]C(=O)Oc1ccc(N=C2CCCC(=O)C2Cc2cccc([O-])c2)cc1 (protonated)
CCCC[N-]C(=O)Oc1ccc(N=C2CCCC(=O)[C@@H]2Cc2cccc([O-])c2)cc1 (chirality)
CCCC[N-]C(=O)Oc1ccc(/N=C2\CCCC(=O)[C@@H]2Cc2cccc([O-])c2)cc1 (cis-trans isomerization)
CCCC[N-]C(=O)Oc1ccc(/N=C2\CCCC(=O)[C@@H]2Cc2cccc([O-])c2)cc1 (3D coordinates assigned)
CCCC[N-]C(=O)Oc1ccc(/N=C2\CCCC(=O)[C@@H]2Cc2cccc([O-])c2)cc1 (nonaromatic ring conformer: 59.80703764084311 kcal/mol)

>  <smiles>  (47) 
CCCCNC(=O)Oc1ccc(N=C2CCCC(=O)C2Cc2cccc(O)c2)cc1

>  <score_type>  (47) 
oracle

>  <origin>  (47) 
adg

>  <m_score__min__energy>  (47) 
-12.42

>  <m_primary>  (47) 
energy

$$$$
47:0
     RDKit          3D

 45 47  0  0  0  0  0  0  0  0999 V2000
   60.3450   29.7160   46.2700 C   0  0  0  0  0  0  0  0  0  0  0  0
   59.4480   30.6390   45.8880 C   0  0  0  0  0  0  0  0  0  0  0  0
   58.4160   30.4940   44.9460 C   0  0  0  0  0  0  0  0  0  0  0  0
   57.9440   29.4020   44.3120 C   0  0  0  0  0  0  0  0  0  0  0  0
   57.3940   28.2000   44.9680 C   0  0  0  0  0  0  0  0  0  0  0  0
   56.0240   28.1130   45.2520 C   0  0  0  0  0  0  0  0  0  0  0  0
   55.1560   29.1320   44.8730 O   0  0  0  0  0  0  0  0  0  0  0  0
   55.5320   27.0220   45.8940 N   0  0  0  0  0  0  0  0  0  0  0  0
   56.3490   26.0110   46.2850 C   0  0  0  0  0  0  0  0  0  0  0  0
   55.8700   25.0090   46.8750 O   0  0  0  0  0  0  0  0  0  0  0  0
   57.6830   26.0850   46.0480 N   0  0  0  0  0  0  0  0  0  0  0  0
   58.2250   27.1550   45.4100 C   0  0  0  0  0  0  0  0  0  0  0  0
   59.4710   27.1990   45.2260 O   0  0  0  0  0  0  0  0  0  0  0  0
   57.8870   31.7600   44.7520 C   0  0  0  0  0  0  0  0  0  0  0  0
   58.5570   32.6100   45.6060 C   0  0  0  0  0  0  0  0  0  0  0  0
   58.3070   34.0820   45.7250 C   0  0  0  0  0  0  0  0  0  0  0  0
   59.4980   31.9320   46.2960 N   0  0  0  0  0  0  0  0  0  0  0  0
   60.4110   32.5090   47.2460 C   0  0  0  0  0  0  0  0  0  0  0  0
   61.7050   32.8500   46.8340 C   0  0  0  0  0  0  0  0  0  0  0  0
   62.6140   33.3980   47.7380 C   0  0  0  0  0  0  0  0  0  0  0  0
   62.2430   33.6230   49.0730 C   0  0  0  0  0  0  0  0  0  0  0  0
   63.2230   34.1960   50.0230 C   0  0  0  0  0  0  0  0  0  0  0  0
   63.0300   35.3510   50.4890 O   0  0  0  0  0  0  0  0  0  0  0  0
   64.3760   33.4660   50.4540 N   0  0  0  0  0  0  0  0  0  0  0  0
   65.1330   32.7200   49.6060 O   0  0  0  0  0  0  0  0  0  0  0  0
   66.4360   32.7310   50.1270 C   0  0  0  0  0  0  0  0  0  0  0  0
   60.9480   33.2700   49.4910 C   0  0  0  0  0  0  0  0  0  0  0  0
   60.0210   32.7340   48.5830 C   0  0  0  0  0  0  0  0  0  0  0  0
   58.6420   32.3640   49.0570 C   0  0  0  0  0  0  0  0  0  0  0  0
   61.1054   29.9671   47.0241 H   0  0  0  0  0  0  0  0  0  0  0  0
   60.3195   28.7087   45.8288 H   0  0  0  0  0  0  0  0  0  0  0  0
   57.9711   29.4074   43.2123 H   0  0  0  0  0  0  0  0  0  0  0  0
   57.0854   32.0344   44.0505 H   0  0  0  0  0  0  0  0  0  0  0  0
   58.2596   34.3611   46.7879 H   0  0  0  0  0  0  0  0  0  0  0  0
   59.1244   34.6334   45.2372 H   0  0  0  0  0  0  0  0  0  0  0  0
   57.3534   34.3326   45.2372 H   0  0  0  0  0  0  0  0  0  0  0  0
   62.0067   32.6843   45.7892 H   0  0  0  0  0  0  0  0  0  0  0  0
   63.6294   33.6559   47.4026 H   0  0  0  0  0  0  0  0  0  0  0  0
   66.3914   32.7306   51.2261 H   0  0  0  0  0  0  0  0  0  0  0  0
   66.9765   31.8374   49.7816 H   0  0  0  0  0  0  0  0  0  0  0  0
   66.9614   33.6336   49.7816 H   0  0  0  0  0  0  0  0  0  0  0  0
   60.6576   33.4155   50.5420 H   0  0  0  0  0  0  0  0  0  0  0  0
   58.6215   32.3585   50.1568 H   0  0  0  0  0  0  0  0  0  0  0  0
   57.9153   33.0989   48.6804 H   0  0  0  0  0  0  0  0  0  0  0  0
   58.3808   31.3640   48.6804 H   0  0  0  0  0  0  0  0  0  0  0  0
  1  2  2  0
  2  3  1  0
  3  4  2  3
  4  5  1  0
  5  6  2  0
  6  7  1  0
  6  8  1  0
  8  9  1  0
  9 10  2  0
  9 11  1  0
 11 12  1  0
 12 13  2  0
  3 14  1  0
 14 15  2  0
 15 16  1  0
 15 17  1  0
 17 18  1  0
 18 19  2  0
 19 20  1  0
 20 21  2  0
 21 22  1  0
 22 23  2  0
 22 24  1  0
 24 25  1  0
 25 26  1  0
 21 27  1  0
 27 28  2  0
 28 29  1  0
 17  2  1  0
 28 18  1  0
 12  5  1  0
  1 30  1  0
  1 31  1  0
  4 32  1  0
 14 33  1  0
 16 34  1  0
 16 35  1  0
 16 36  1  0
 19 37  1  0
 20 38  1  0
 26 39  1  0
 26 40  1  0
 26 41  1  0
 27 42  1  0
 29 43  1  0
 29 44  1  0
 29 45  1  0
M  CHG  4   7  -1   8  -1  11  -1  24  -1
M  END
>  <UniqueID>  (48) 
43

>  <SMILES>  (48) 
C=c1c(=Cc2c([O-])[n-]c(=O)[n-]c2=O)cc(C)n1-c1ccc(C(=O)[N-]OC)cc1C

>  <Energy>  (48) 
97.52087798455157

>  <Genealogy>  (48) 
C=c1c(=Cc2c([O-])[n-]c(=O)[n-]c2=O)cc(C)n1-c1ccc(C(=O)[N-]OC)cc1C (protonated)
C=c1c(=Cc2c([O-])[n-]c(=O)[n-]c2=O)cc(C)n1-c1ccc(C(=O)[N-]OC)cc1C (3D coordinates assigned)
C=c1c(=Cc2c([O-])[n-]c(=O)[n-]c2=O)cc(C)n1-c1ccc(C(=O)[N-]OC)cc1C (optimized conformer: 97.52087798455157 kcal/mol)

>  <smiles>  (48) 
C=c1c(=Cc2c(O)[nH]c(=O)[nH]c2=O)cc(C)n1-c1ccc(C(=O)NOC)cc1C

>  <score_type>  (48) 
oracle

>  <origin>  (48) 
adg

>  <m_score__min__energy>  (48) 
-16.02

>  <m_primary>  (48) 
energy

$$$$
48:0
     RDKit          3D

 53 55  0  0  0  0  0  0  0  0999 V2000
   60.3880   33.4390   50.4660 C   0  0  0  0  0  0  0  0  0  0  0  0
   60.1440   32.4850   49.3680 N   0  0  0  0  0  0  0  0  0  0  0  0
   60.5040   31.1010   49.7460 C   0  0  0  0  0  0  0  0  0  0  0  0
   59.3890   30.1210   49.3680 C   0  0  0  0  0  0  0  0  0  0  0  0
   59.7450   29.4020   48.1470 N   0  0  0  0  0  0  0  0  0  0  0  0
   59.3160   28.0500   47.8280 C   0  0  0  0  0  0  0  0  0  0  0  0
   60.0830   27.7270   46.5410 C   0  0  1  0  0  0  0  0  0  0  0  0
   59.6110   26.5800   45.8490 O   0  0  0  0  0  0  0  0  0  0  0  0
   58.2220   26.5470   45.6440 C   0  0  0  0  0  0  0  0  0  0  0  0
   57.8190   27.5530   44.5580 C   0  0  0  0  0  0  0  0  0  0  0  0
   57.8570   28.9340   45.0520 N   0  0  0  0  0  0  0  0  0  0  0  0
   56.5230   29.8700   44.4140 S   0  0  0  0  0  0  0  0  0  0  0  0
   56.4370   29.8060   42.6360 C   0  0  0  0  0  0  0  0  0  0  0  0
   55.2290   29.3500   44.9750 O   0  0  0  0  0  0  0  0  0  0  0  0
   56.6830   31.3040   44.8350 O   0  0  0  0  0  0  0  0  0  0  0  0
   59.1530   29.6310   44.9210 C   0  0  0  0  0  0  0  0  0  0  0  0
   60.3060   29.0890   45.8080 C   0  0  1  0  0  0  0  0  0  0  0  0
   60.3650   29.9790   47.0040 C   0  0  0  0  0  0  0  0  0  0  0  0
   60.8520   31.1410   46.9960 O   0  0  0  0  0  0  0  0  0  0  0  0
   58.7590   32.5840   48.8510 C   0  0  0  0  0  0  0  0  0  0  0  0
   58.6710   33.2050   47.4720 C   0  0  0  0  0  0  0  0  0  0  0  0
   57.4210   33.4830   46.8970 C   0  0  0  0  0  0  0  0  0  0  0  0
   57.3610   34.0740   45.6350 C   0  0  0  0  0  0  0  0  0  0  0  0
   58.5400   34.3790   44.9550 C   0  0  0  0  0  0  0  0  0  0  0  0
   59.7680   34.0840   45.5500 C   0  0  0  0  0  0  0  0  0  0  0  0
   59.8120   33.5080   46.7820 N   0  0  0  0  0  0  0  0  0  0  0  0
   60.2573   32.9282   51.4314 H   0  0  0  0  0  0  0  0  0  0  0  0
   61.4145   33.8276   50.3928 H   0  0  0  0  0  0  0  0  0  0  0  0
   59.6742   34.2727   50.3928 H   0  0  0  0  0  0  0  0  0  0  0  0
   61.4279   30.8139   49.2226 H   0  0  0  0  0  0  0  0  0  0  0  0
   60.6503   31.0621   50.8355 H   0  0  0  0  0  0  0  0  0  0  0  0
   59.2456   29.3999   50.1862 H   0  0  0  0  0  0  0  0  0  0  0  0
   58.4588   30.6827   49.1968 H   0  0  0  0  0  0  0  0  0  0  0  0
   59.5866   27.3511   48.6332 H   0  0  0  0  0  0  0  0  0  0  0  0
   58.2258   27.9622   47.7111 H   0  0  0  0  0  0  0  0  0  0  0  0
   61.0926   27.3250   46.7115 H   0  0  0  0  0  0  0  0  0  0  0  0
   57.9258   25.5355   45.3293 H   0  0  0  0  0  0  0  0  0  0  0  0
   57.7156   26.8133   46.5835 H   0  0  0  0  0  0  0  0  0  0  0  0
   58.5138   27.4590   43.7104 H   0  0  0  0  0  0  0  0  0  0  0  0
   56.7869   27.3286   44.2507 H   0  0  0  0  0  0  0  0  0  0  0  0
   55.5888   29.1748   42.3324 H   0  0  0  0  0  0  0  0  0  0  0  0
   56.2983   30.8224   42.2388 H   0  0  0  0  0  0  0  0  0  0  0  0
   57.3707   29.3813   42.2388 H   0  0  0  0  0  0  0  0  0  0  0  0
   59.4716   29.5560   43.8708 H   0  0  0  0  0  0  0  0  0  0  0  0
   58.9733   30.6611   45.2624 H   0  0  0  0  0  0  0  0  0  0  0  0
   61.1519   29.0149   45.1087 H   0  0  0  0  0  0  0  0  0  0  0  0
   58.3316   31.5715   48.8047 H   0  0  0  0  0  0  0  0  0  0  0  0
   58.2039   33.2405   49.5372 H   0  0  0  0  0  0  0  0  0  0  0  0
   56.4954   33.2365   47.4378 H   0  0  0  0  0  0  0  0  0  0  0  0
   56.3864   34.2990   45.1772 H   0  0  0  0  0  0  0  0  0  0  0  0
   58.5026   34.8471   43.9603 H   0  0  0  0  0  0  0  0  0  0  0  0
   60.7035   34.3181   45.0209 H   0  0  0  0  0  0  0  0  0  0  0  0
   60.7450   33.2990   47.2000 H   0  0  0  0  0  0  0  0  0  0  0  0
  1  2  1  0
  2  3  1  0
  3  4  1  0
  4  5  1  0
  5  6  1  0
  6  7  1  0
  7  8  1  0
  8  9  1  0
  9 10  1  0
 10 11  1  0
 11 12  1  0
 12 13  1  0
 12 14  2  0
 12 15  2  0
 11 16  1  0
 16 17  1  0
 17 18  1  0
 18 19  2  0
  2 20  1  0
 20 21  1  0
 21 22  2  0
 22 23  1  0
 23 24  2  0
 24 25  1  0
 25 26  2  0
 18  5  1  0
 26 21  1  0
 17  7  1  0
  1 27  1  0
  1 28  1  0
  1 29  1  0
  3 30  1  0
  3 31  1  0
  4 32  1  0
  4 33  1  0
  6 34  1  0
  6 35  1  0
  7 36  1  1
  9 37  1  0
  9 38  1  0
 10 39  1  0
 10 40  1  0
 13 41  1  0
 13 42  1  0
 13 43  1  0
 16 44  1  0
 16 45  1  0
 17 46  1  6
 20 47  1  0
 20 48  1  0
 22 49  1  0
 23 50  1  0
 24 51  1  0
 25 52  1  0
 26 53  1  0
M  CHG  1  26   1
M  END
>  <UniqueID>  (49) 
44

>  <SMILES>  (49) 
CN(CCN1C[C@H]2OCCN(S(C)(=O)=O)C[C@H]2C1=O)Cc1cccc[nH+]1

>  <Energy>  (49) 
82.25222769200955

>  <Genealogy>  (49) 
CN(CCN1CC2OCCN(S(C)(=O)=O)CC2C1=O)Cc1cccc[nH+]1 (protonated)
CN(CCN1C[C@H]2OCCN(S(C)(=O)=O)C[C@H]2C1=O)Cc1cccc[nH+]1 (chirality)
CN(CCN1C[C@H]2OCCN(S(C)(=O)=O)C[C@H]2C1=O)Cc1cccc[nH+]1 (3D coordinates assigned)
CN(CCN1C[C@H]2OCCN(S(C)(=O)=O)C[C@H]2C1=O)Cc1cccc[nH+]1 (nonaromatic ring conformer: 82.25222769200955 kcal/mol)

>  <smiles>  (49) 
CN(CCN1CC2OCCN(S(C)(=O)=O)CC2C1=O)Cc1ccccn1

>  <score_type>  (49) 
oracle

>  <origin>  (49) 
adg

>  <m_score__min__energy>  (49) 
-5.0099999999999998

>  <m_primary>  (49) 
energy

$$$$
49:0
     RDKit          3D

 41 43  0  0  0  0  0  0  0  0999 V2000
   61.5140   30.2070   49.4390 C   0  0  0  0  0  0  0  0  0  0  0  0
   61.9670   31.4060   48.6770 C   0  0  0  0  0  0  0  0  0  0  0  0
   61.3040   31.9240   47.6190 N   0  0  0  0  0  0  0  0  0  0  0  0
   61.8820   33.0630   47.1490 C   0  0  0  0  0  0  0  0  0  0  0  0
   61.3160   33.8350   45.9940 C   0  0  0  0  0  0  0  0  0  0  0  0
   60.1630   34.6480   46.4390 N   0  0  0  0  0  0  0  0  0  0  0  0
   59.1040   34.7120   45.4090 C   0  0  0  0  0  0  0  0  0  0  0  0
   58.4550   33.3360   45.1830 C   0  0  0  0  0  0  0  0  0  0  0  0
   58.2950   32.6180   46.4540 N   0  0  0  0  0  0  0  0  0  0  0  0
   58.1890   31.1780   46.4890 C   0  0  0  0  0  0  0  0  0  0  0  0
   58.5530   30.5550   47.5230 O   0  0  0  0  0  0  0  0  0  0  0  0
   57.6560   30.4100   45.3410 C   0  0  0  0  0  0  0  0  0  0  0  0
   56.4520   30.5800   44.8410 O   0  0  0  0  0  0  0  0  0  0  0  0
   56.2770   29.7420   43.8440 C   0  0  0  0  0  0  0  0  0  0  0  0
   57.4110   28.9770   43.6710 C   0  0  0  0  0  0  0  0  0  0  0  0
   58.3030   29.4070   44.6320 C   0  0  0  0  0  0  0  0  0  0  0  0
   59.6820   28.8700   44.8490 C   0  0  0  0  0  0  0  0  0  0  0  0
   58.3450   33.3960   47.6980 C   0  0  0  0  0  0  0  0  0  0  0  0
   59.6460   34.2210   47.7670 C   0  0  0  0  0  0  0  0  0  0  0  0
   63.0130   33.4760   47.8510 C   0  0  0  0  0  0  0  0  0  0  0  0
   63.2820   32.3690   49.0920 S   0  0  0  0  0  0  0  0  0  0  0  0
   61.5899   30.4079   50.5178 H   0  0  0  0  0  0  0  0  0  0  0  0
   60.4688   29.9817   49.1807 H   0  0  0  0  0  0  0  0  0  0  0  0
   62.1491   29.3468   49.1807 H   0  0  0  0  0  0  0  0  0  0  0  0
   60.4380   31.5000   47.2160 H   0  0  0  0  0  0  0  0  0  0  0  0
   62.0923   34.4985   45.5852 H   0  0  0  0  0  0  0  0  0  0  0  0
   60.9801   33.1288   45.2204 H   0  0  0  0  0  0  0  0  0  0  0  0
   58.3306   35.4230   45.7350 H   0  0  0  0  0  0  0  0  0  0  0  0
   59.5612   35.0380   44.4631 H   0  0  0  0  0  0  0  0  0  0  0  0
   57.4665   33.4753   44.7210 H   0  0  0  0  0  0  0  0  0  0  0  0
   59.1066   32.7436   44.5238 H   0  0  0  0  0  0  0  0  0  0  0  0
   55.3624   29.6627   43.2380 H   0  0  0  0  0  0  0  0  0  0  0  0
   57.5714   28.1875   42.9221 H   0  0  0  0  0  0  0  0  0  0  0  0
   59.8798   28.7930   45.9283 H   0  0  0  0  0  0  0  0  0  0  0  0
   59.7643   27.8741   44.3891 H   0  0  0  0  0  0  0  0  0  0  0  0
   60.4161   29.5480   44.3891 H   0  0  0  0  0  0  0  0  0  0  0  0
   57.4820   34.0772   47.7339 H   0  0  0  0  0  0  0  0  0  0  0  0
   58.3172   32.7034   48.5522 H   0  0  0  0  0  0  0  0  0  0  0  0
   59.4531   35.1213   48.3689 H   0  0  0  0  0  0  0  0  0  0  0  0
   60.4125   33.5698   48.2125 H   0  0  0  0  0  0  0  0  0  0  0  0
   63.6215   34.3662   47.6335 H   0  0  0  0  0  0  0  0  0  0  0  0
  1  2  1  0
  2  3  2  0
  3  4  1  0
  4  5  1  0
  5  6  1  0
  6  7  1  0
  7  8  1  0
  8  9  1  0
  9 10  1  0
 10 11  2  0
 10 12  1  0
 12 13  1  0
 13 14  1  0
 14 15  2  0
 15 16  1  0
 16 17  1  0
  9 18  1  0
 18 19  1  0
  4 20  2  0
 20 21  1  0
 21  2  1  0
 19  6  1  0
 16 12  2  0
  1 22  1  0
  1 23  1  0
  1 24  1  0
  3 25  1  0
  5 26  1  0
  5 27  1  0
  7 28  1  0
  7 29  1  0
  8 30  1  0
  8 31  1  0
 14 32  1  0
 15 33  1  0
 17 34  1  0
 17 35  1  0
 17 36  1  0
 18 37  1  0
 18 38  1  0
 19 39  1  0
 19 40  1  0
 20 41  1  0
M  CHG  1   3   1
M  END
>  <UniqueID>  (50) 
45

>  <SMILES>  (50) 
Cc1[nH+]c(CN2CCN(C(=O)c3occc3C)CC2)cs1

>  <Energy>  (50) 
104.32246794049568

>  <Genealogy>  (50) 
Cc1[nH+]c(CN2CCN(C(=O)c3occc3C)CC2)cs1 (protonated)
Cc1[nH+]c(CN2CCN(C(=O)c3occc3C)CC2)cs1 (3D coordinates assigned)
Cc1[nH+]c(CN2CCN(C(=O)c3occc3C)CC2)cs1 (nonaromatic ring conformer: 104.32246794049568 kcal/mol)

>  <smiles>  (50) 
Cc1nc(CN2CCN(C(=O)c3occc3C)CC2)cs1

>  <score_type>  (50) 
oracle

>  <origin>  (50) 
adg

>  <m_score__min__energy>  (50) 
-5.6200000000000001

>  <m_primary>  (50) 
energy

$$$$
50:0
     RDKit          3D

 41 44  0  0  0  0  0  0  0  0999 V2000
   60.8757   30.0219   48.9168 H   0  0  0  0  0  0  0  0  0  0  0  0
   60.2610   29.8500   48.0210 C   0  0  0  0  0  0  0  0  0  0  0  0
   59.0530   29.1530   48.1250 C   0  0  0  0  0  0  0  0  0  0  0  0
   58.7181   28.7766   49.1028 H   0  0  0  0  0  0  0  0  0  0  0  0
   58.2700   28.9340   46.9860 C   0  0  0  0  0  0  0  0  0  0  0  0
   57.3254   28.3765   47.0698 H   0  0  0  0  0  0  0  0  0  0  0  0
   58.6850   29.4230   45.7360 C   0  0  0  0  0  0  0  0  0  0  0  0
   57.8660   29.1530   44.5050 C   0  0  0  0  0  0  0  0  0  0  0  0
   57.7756   28.0667   44.3577 H   0  0  0  0  0  0  0  0  0  0  0  0
   58.3612   29.6057   43.6333 H   0  0  0  0  0  0  0  0  0  0  0  0
   56.5020   29.7480   44.6620 C   0  0  0  0  0  0  0  0  0  0  0  0
   55.5250   28.9950   44.9170 O   0  0  0  0  0  0  0  0  0  0  0  0
   56.3340   31.1650   44.4960 N   0  0  0  0  0  0  0  0  0  0  0  0
   57.2250   32.1020   44.6390 C   0  0  0  0  0  0  0  0  0  0  0  0
   57.3920   33.0000   46.0520 S   0  0  0  0  0  0  0  0  0  0  0  0
   58.6290   33.9120   45.3580 C   0  0  0  0  0  0  0  0  0  0  0  0
   59.4150   34.9650   46.0680 C   0  0  0  0  0  0  0  0  0  0  0  0
   60.1760   35.3739   45.3871 H   0  0  0  0  0  0  0  0  0  0  0  0
   58.7365   35.7682   46.3913 H   0  0  0  0  0  0  0  0  0  0  0  0
   60.0880   34.3740   47.2680 C   0  0  0  0  0  0  0  0  0  0  0  0
   59.5030   34.1230   48.5060 C   0  0  0  0  0  0  0  0  0  0  0  0
   58.4728   34.3949   48.7796 H   0  0  0  0  0  0  0  0  0  0  0  0
   60.3790   33.4980   49.3250 N   0  0  0  0  0  0  0  0  0  0  0  0
   60.2050   33.1860   50.3070 H   0  0  0  0  0  0  0  0  0  0  0  0
   61.5070   33.3400   48.6110 C   0  0  0  0  0  0  0  0  0  0  0  0
   62.6880   32.7230   49.0210 C   0  0  0  0  0  0  0  0  0  0  0  0
   62.7905   32.3117   50.0360 H   0  0  0  0  0  0  0  0  0  0  0  0
   63.7450   32.6430   48.0950 C   0  0  0  0  0  0  0  0  0  0  0  0
   64.6921   32.1658   48.3870 H   0  0  0  0  0  0  0  0  0  0  0  0
   63.5980   33.1710   46.7940 C   0  0  0  0  0  0  0  0  0  0  0  0
   64.4313   33.1020   46.0793 H   0  0  0  0  0  0  0  0  0  0  0  0
   62.3930   33.7850   46.4050 C   0  0  0  0  0  0  0  0  0  0  0  0
   62.2653   34.1954   45.3924 H   0  0  0  0  0  0  0  0  0  0  0  0
   61.3650   33.8560   47.3470 C   0  0  0  0  0  0  0  0  0  0  0  0
   58.8860   33.5130   44.0920 N   0  0  0  0  0  0  0  0  0  0  0  0
   58.1020   32.5150   43.6900 N   0  0  0  0  0  0  0  0  0  0  0  0
   58.1700   32.1430   42.7190 H   0  0  0  0  0  0  0  0  0  0  0  0
   59.9060   30.1120   45.6380 C   0  0  0  0  0  0  0  0  0  0  0  0
   60.2490   30.4829   44.6609 H   0  0  0  0  0  0  0  0  0  0  0  0
   60.6870   30.3280   46.7790 C   0  0  0  0  0  0  0  0  0  0  0  0
   61.6379   30.8750   46.6980 H   0  0  0  0  0  0  0  0  0  0  0  0
  1  2  1  0
  2  3  2  0
  3  4  1  0
  3  5  1  0
  5  6  1  0
  5  7  2  0
  7  8  1  0
  8  9  1  0
  8 10  1  0
  8 11  1  0
 11 12  2  0
 11 13  1  0
 13 14  2  0
 14 15  1  0
 15 16  1  0
 16 17  1  0
 17 18  1  0
 17 19  1  0
 17 20  1  0
 20 21  2  0
 21 22  1  0
 21 23  1  0
 23 24  1  0
 23 25  1  0
 25 26  2  0
 26 27  1  0
 26 28  1  0
 28 29  1  0
 28 30  2  0
 30 31  1  0
 30 32  1  0
 32 33  1  0
 32 34  2  0
 16 35  2  0
 35 36  1  0
 36 37  1  0
  7 38  1  0
 38 39  1  0
 38 40  2  0
 40 41  1  0
 40  2  1  0
 36 14  1  0
 34 20  1  0
 34 25  1  0
M  END
>  <UniqueID>  (51) 
46

>  <SMILES>  (51) 
O=C(Cc1ccccc1)/N=c1\[nH]nc(Cc2c[nH]c3ccccc23)s1

>  <Energy>  (51) 
112.40153391909465

>  <Genealogy>  (51) 
O=C(Cc1ccccc1)/N=c1\[nH]nc(Cc2c[nH]c3ccccc23)s1 (cis-trans isomerization)
O=C(Cc1ccccc1)/N=c1\[nH]nc(Cc2c[nH]c3ccccc23)s1 (3D coordinates assigned)
O=C(Cc1ccccc1)/N=c1\[nH]nc(Cc2c[nH]c3ccccc23)s1 (optimized conformer: 112.40153391909465 kcal/mol)

>  <smiles>  (51) 
O=C(Cc1ccccc1)N=c1[nH]nc(Cc2c[nH]c3ccccc23)s1

>  <score_type>  (51) 
oracle

>  <origin>  (51) 
adg

>  <m_score__min__energy>  (51) 
-9.2699999999999996

>  <m_primary>  (51) 
energy

$$$$
51:0
     RDKit          3D

 42 45  0  0  0  0  0  0  0  0999 V2000
   58.7410   24.2080   46.0480 H   0  0  0  0  0  0  0  0  0  0  0  0
   59.2090   24.9380   46.5670 O   0  0  0  0  0  0  0  0  0  0  0  0
   58.7930   26.2690   46.5560 C   0  0  0  0  0  0  0  0  0  0  0  0
   59.1820   27.2050   47.4840 C   0  0  0  0  0  0  0  0  0  0  0  0
   60.0140   27.0940   48.5980 C   0  0  0  0  0  0  0  0  0  0  0  0
   60.4916   26.1376   48.8573 H   0  0  0  0  0  0  0  0  0  0  0  0
   60.2220   28.2440   49.3780 C   0  0  0  0  0  0  0  0  0  0  0  0
   60.8748   28.1939   50.2619 H   0  0  0  0  0  0  0  0  0  0  0  0
   59.5990   29.4630   49.0350 C   0  0  0  0  0  0  0  0  0  0  0  0
   59.7677   30.3557   49.6552 H   0  0  0  0  0  0  0  0  0  0  0  0
   58.7640   29.5450   47.9060 C   0  0  0  0  0  0  0  0  0  0  0  0
   58.2694   30.4892   47.6342 H   0  0  0  0  0  0  0  0  0  0  0  0
   58.5820   28.3900   47.1400 C   0  0  0  0  0  0  0  0  0  0  0  0
   57.8280   28.1480   46.0020 C   0  0  0  0  0  0  0  0  0  0  0  0
   57.0280   29.1530   45.2770 C   0  0  0  0  0  0  0  0  0  0  0  0
   55.7740   29.0290   45.2210 O   0  0  0  0  0  0  0  0  0  0  0  0
   57.6870   30.2680   44.6570 N   0  0  0  0  0  0  0  0  0  0  0  0
   57.8610   31.4550   45.1640 C   0  0  0  0  0  0  0  0  0  0  0  0
   56.8520   32.3710   45.1880 N   0  0  0  0  0  0  0  0  0  0  0  0
   57.0220   33.6170   45.7060 C   0  0  0  0  0  0  0  0  0  0  0  0
   56.1845   34.3301   45.7101 H   0  0  0  0  0  0  0  0  0  0  0  0
   58.2610   33.9910   46.2330 C   0  0  0  0  0  0  0  0  0  0  0  0
   58.4062   34.9972   46.6532 H   0  0  0  0  0  0  0  0  0  0  0  0
   59.3120   33.0730   46.2200 C   0  0  0  0  0  0  0  0  0  0  0  0
   60.2930   33.3526   46.6318 H   0  0  0  0  0  0  0  0  0  0  0  0
   59.1160   31.7980   45.6830 C   0  0  0  0  0  0  0  0  0  0  0  0
   59.9403   31.0698   45.6679 H   0  0  0  0  0  0  0  0  0  0  0  0
   57.9630   26.8390   45.6400 N   0  0  0  0  0  0  0  0  0  0  0  0
   57.4180   26.2100   44.4260 C   0  0  0  0  0  0  0  0  0  0  0  0
   56.9142   26.9758   43.8179 H   0  0  0  0  0  0  0  0  0  0  0  0
   58.2459   25.7569   43.8610 H   0  0  0  0  0  0  0  0  0  0  0  0
   56.4250   25.1280   44.7830 C   0  0  0  0  0  0  0  0  0  0  0  0
   56.6270   23.8110   44.3350 C   0  0  0  0  0  0  0  0  0  0  0  0
   57.4982   23.5759   43.7059 H   0  0  0  0  0  0  0  0  0  0  0  0
   55.7290   22.7980   44.6830 C   0  0  0  0  0  0  0  0  0  0  0  0
   55.8997   21.7690   44.3337 H   0  0  0  0  0  0  0  0  0  0  0  0
   54.6160   23.0900   45.4730 C   0  0  0  0  0  0  0  0  0  0  0  0
   53.7250   22.0810   45.8200 O   0  0  0  0  0  0  0  0  0  0  0  0
   54.3960   24.3980   45.9130 C   0  0  0  0  0  0  0  0  0  0  0  0
   53.5161   24.6273   46.5320 H   0  0  0  0  0  0  0  0  0  0  0  0
   55.2910   25.4170   45.5690 C   0  0  0  0  0  0  0  0  0  0  0  0
   55.0430   26.7120   46.0110 O   0  0  0  0  0  0  0  0  0  0  0  0
  1  2  1  0
  2  3  1  0
  3  4  2  0
  4  5  1  0
  5  6  1  0
  5  7  2  0
  7  8  1  0
  7  9  1  0
  9 10  1  0
  9 11  2  0
 11 12  1  0
 11 13  1  0
 13 14  2  0
 14 15  1  0
 15 16  2  0
 15 17  1  0
 17 18  2  0
 18 19  1  0
 19 20  1  0
 20 21  1  0
 20 22  2  0
 22 23  1  0
 22 24  1  0
 24 25  1  0
 24 26  2  0
 26 27  1  0
 14 28  1  0
 28 29  1  0
 29 30  1  0
 29 31  1  0
 29 32  1  0
 32 33  2  0
 33 34  1  0
 33 35  1  0
 35 36  1  0
 35 37  2  0
 37 38  1  0
 37 39  1  0
 39 40  1  0
 39 41  2  0
 41 42  1  0
 28  3  1  0
 41 32  1  0
 13  4  1  0
 26 18  1  0
M  CHG  3  19  -1  38  -1  42  -1
M  END
>  <UniqueID>  (52) 
47

>  <SMILES>  (52) 
O=C(/N=c1/cccc[n-]1)c1c2ccccc2c(O)n1Cc1ccc([O-])cc1[O-]

>  <Energy>  (52) 
89.61998882020991

>  <Genealogy>  (52) 
O=C(N=c1cccc[n-]1)c1c2ccccc2c(O)n1Cc1ccc([O-])cc1[O-] (protonated)
O=C(/N=c1/cccc[n-]1)c1c2ccccc2c(O)n1Cc1ccc([O-])cc1[O-] (cis-trans isomerization)
O=C(/N=c1/cccc[n-]1)c1c2ccccc2c(O)n1Cc1ccc([O-])cc1[O-] (3D coordinates assigned)
O=C(/N=c1/cccc[n-]1)c1c2ccccc2c(O)n1Cc1ccc([O-])cc1[O-] (optimized conformer: 89.61998882020991 kcal/mol)

>  <smiles>  (52) 
O=C(N=c1cccc[nH]1)c1c2ccccc2c(O)n1Cc1ccc(O)cc1O

>  <score_type>  (52) 
oracle

>  <origin>  (52) 
adg

>  <m_score__min__energy>  (52) 
-14.140000000000001

>  <m_primary>  (52) 
energy

$$$$
52:0
     RDKit          3D

 67 71  0  0  0  0  0  0  0  0999 V2000
   59.7600   26.5660   48.2510 O   0  0  0  0  0  0  0  0  0  0  0  0
   59.3120   27.7280   48.0490 C   0  0  0  0  0  0  0  0  0  0  0  0
   59.9220   28.8500   48.7050 N   0  0  0  0  0  0  0  0  0  0  0  0
   60.8390   28.6840   49.7940 C   0  0  0  0  0  0  0  0  0  0  0  0
   60.9120   27.4440   50.4430 C   0  0  0  0  0  0  0  0  0  0  0  0
   61.7770   27.2600   51.5300 C   0  0  0  0  0  0  0  0  0  0  0  0
   61.8530   25.7070   52.3580 S   0  0  0  0  0  0  0  0  0  0  0  0
   62.8420   24.8080   51.6680 O   0  0  0  0  0  0  0  0  0  0  0  0
   62.3190   25.9340   53.7700 O   0  0  0  0  0  0  0  0  0  0  0  0
   60.2700   24.9700   52.3730 N   0  0  0  0  0  0  0  0  0  0  0  0
   60.3960   23.5030   52.3030 C   0  0  0  0  0  0  0  0  0  0  0  0
   59.0560   22.8170   52.6340 C   0  0  0  0  0  0  0  0  0  0  0  0
   57.9900   23.7430   52.5850 O   0  0  0  0  0  0  0  0  0  0  0  0
   58.1480   24.7110   53.6070 C   0  0  0  0  0  0  0  0  0  0  0  0
   59.5470   25.3640   53.5900 C   0  0  0  0  0  0  0  0  0  0  0  0
   62.5700   28.3250   51.9710 C   0  0  0  0  0  0  0  0  0  0  0  0
   62.5280   29.5540   51.3110 C   0  0  0  0  0  0  0  0  0  0  0  0
   61.6750   29.7430   50.2140 C   0  0  0  0  0  0  0  0  0  0  0  0
   61.7340   30.9720   49.4690 N   0  0  0  0  0  0  0  0  0  0  0  0
   61.8960   30.9290   48.0150 C   0  0  0  0  0  0  0  0  0  0  0  0
   61.0610   32.0400   47.3660 C   0  0  0  0  0  0  0  0  0  0  0  0
   61.1960   33.3700   48.0250 N   0  0  0  0  0  0  0  0  0  0  0  0
   59.8810   33.9720   48.3360 C   0  0  0  0  0  0  0  0  0  0  0  0
   58.9920   33.9740   47.1210 C   0  0  0  0  0  0  0  0  0  0  0  0
   57.7690   33.2840   47.1270 C   0  0  0  0  0  0  0  0  0  0  0  0
   56.9440   33.3020   45.9970 C   0  0  0  0  0  0  0  0  0  0  0  0
   57.3360   34.0080   44.8560 C   0  0  0  0  0  0  0  0  0  0  0  0
   58.5520   34.6950   44.8420 C   0  0  0  0  0  0  0  0  0  0  0  0
   59.3800   34.6780   45.9700 C   0  0  0  0  0  0  0  0  0  0  0  0
   62.1250   33.3980   49.1800 C   0  0  0  0  0  0  0  0  0  0  0  0
   61.8670   32.2520   50.1710 C   0  0  0  0  0  0  0  0  0  0  0  0
   58.1720   27.9270   47.1310 C   0  0  0  0  0  0  0  0  0  0  0  0
   58.0130   29.1280   46.4210 C   0  0  0  0  0  0  0  0  0  0  0  0
   56.9400   29.2440   45.5360 C   0  0  0  0  0  0  0  0  0  0  0  0
   56.7730   30.3060   44.8820 O   0  0  0  0  0  0  0  0  0  0  0  0
   56.0750   28.2090   45.3790 N   0  0  0  0  0  0  0  0  0  0  0  0
   56.2380   27.0540   46.0740 C   0  0  0  0  0  0  0  0  0  0  0  0
   55.4270   26.1050   45.9150 O   0  0  0  0  0  0  0  0  0  0  0  0
   57.2780   26.9200   46.9370 N   0  0  0  0  0  0  0  0  0  0  0  0
   59.8190   29.8020   48.2870 H   0  0  0  0  0  0  0  0  0  0  0  0
   60.2855   26.6088   50.0965 H   0  0  0  0  0  0  0  0  0  0  0  0
   60.7054   23.2166   51.2870 H   0  0  0  0  0  0  0  0  0  0  0  0
   61.1463   23.1802   53.0398 H   0  0  0  0  0  0  0  0  0  0  0  0
   58.8712   22.0160   51.9030 H   0  0  0  0  0  0  0  0  0  0  0  0
   59.1151   22.4026   53.6512 H   0  0  0  0  0  0  0  0  0  0  0  0
   57.3902   25.4964   53.4695 H   0  0  0  0  0  0  0  0  0  0  0  0
   58.0289   24.1997   54.5737 H   0  0  0  0  0  0  0  0  0  0  0  0
   59.4386   26.4584   53.6112 H   0  0  0  0  0  0  0  0  0  0  0  0
   60.1132   25.0284   54.4713 H   0  0  0  0  0  0  0  0  0  0  0  0
   63.2293   28.1931   52.8416 H   0  0  0  0  0  0  0  0  0  0  0  0
   63.1684   30.3801   51.6536 H   0  0  0  0  0  0  0  0  0  0  0  0
   62.9565   31.0737   47.7613 H   0  0  0  0  0  0  0  0  0  0  0  0
   61.5551   29.9526   47.6403 H   0  0  0  0  0  0  0  0  0  0  0  0
   61.3769   32.1410   46.3172 H   0  0  0  0  0  0  0  0  0  0  0  0
   60.0067   31.7429   47.4668 H   0  0  0  0  0  0  0  0  0  0  0  0
   59.3981   33.3902   49.1350 H   0  0  0  0  0  0  0  0  0  0  0  0
   60.0373   35.0116   48.6596 H   0  0  0  0  0  0  0  0  0  0  0  0
   57.4584   32.7273   48.0234 H   0  0  0  0  0  0  0  0  0  0  0  0
   55.9866   32.7604   46.0065 H   0  0  0  0  0  0  0  0  0  0  0  0
   56.6863   34.0225   43.9685 H   0  0  0  0  0  0  0  0  0  0  0  0
   58.8591   35.2500   43.9433 H   0  0  0  0  0  0  0  0  0  0  0  0
   60.3382   35.2181   45.9548 H   0  0  0  0  0  0  0  0  0  0  0  0
   63.1560   33.3151   48.8055 H   0  0  0  0  0  0  0  0  0  0  0  0
   61.9640   34.3453   49.7154 H   0  0  0  0  0  0  0  0  0  0  0  0
   62.7087   32.1899   50.8765 H   0  0  0  0  0  0  0  0  0  0  0  0
   60.9291   32.4569   50.7081 H   0  0  0  0  0  0  0  0  0  0  0  0
   58.7193   29.9599   46.5594 H   0  0  0  0  0  0  0  0  0  0  0  0
  1  2  2  0
  2  3  1  0
  3  4  1  0
  4  5  2  0
  5  6  1  0
  6  7  1  0
  7  8  2  0
  7  9  2  0
  7 10  1  0
 10 11  1  0
 11 12  1  0
 12 13  1  0
 13 14  1  0
 14 15  1  0
  6 16  2  0
 16 17  1  0
 17 18  2  0
 18 19  1  0
 19 20  1  0
 20 21  1  0
 21 22  1  0
 22 23  1  0
 23 24  1  0
 24 25  2  0
 25 26  1  0
 26 27  2  0
 27 28  1  0
 28 29  2  0
 22 30  1  0
 30 31  1  0
  2 32  1  0
 32 33  2  0
 33 34  1  0
 34 35  2  0
 34 36  1  0
 36 37  1  0
 37 38  2  0
 37 39  1  0
 18  4  1  0
 31 19  1  0
 39 32  1  0
 15 10  1  0
 29 24  1  0
  3 40  1  0
  5 41  1  0
 11 42  1  0
 11 43  1  0
 12 44  1  0
 12 45  1  0
 14 46  1  0
 14 47  1  0
 15 48  1  0
 15 49  1  0
 16 50  1  0
 17 51  1  0
 20 52  1  0
 20 53  1  0
 21 54  1  0
 21 55  1  0
 23 56  1  0
 23 57  1  0
 25 58  1  0
 26 59  1  0
 27 60  1  0
 28 61  1  0
 29 62  1  0
 30 63  1  0
 30 64  1  0
 31 65  1  0
 31 66  1  0
 33 67  1  0
M  CHG  2  36  -1  39  -1
M  END
>  <UniqueID>  (53) 
48

>  <SMILES>  (53) 
O=C(Nc1cc(S(=O)(=O)N2CCOCC2)ccc1N1CCN(Cc2ccccc2)CC1)c1cc(=O)[n-]c(=O)[n-]1

>  <Energy>  (53) 
95.37924471793669

>  <Genealogy>  (53) 
O=C(Nc1cc(S(=O)(=O)N2CCOCC2)ccc1N1CCN(Cc2ccccc2)CC1)c1cc(=O)[n-]c(=O)[n-]1 (protonated)
O=C(Nc1cc(S(=O)(=O)N2CCOCC2)ccc1N1CCN(Cc2ccccc2)CC1)c1cc(=O)[n-]c(=O)[n-]1 (3D coordinates assigned)
O=C(Nc1cc(S(=O)(=O)N2CCOCC2)ccc1N1CCN(Cc2ccccc2)CC1)c1cc(=O)[n-]c(=O)[n-]1 (nonaromatic ring conformer: 95.37924471793669 kcal/mol)

>  <smiles>  (53) 
O=C(Nc1cc(S(=O)(=O)N2CCOCC2)ccc1N1CCN(Cc2ccccc2)CC1)c1cc(=O)[nH]c(=O)[nH]1

>  <score_type>  (53) 
oracle

>  <origin>  (53) 
adg

>  <m_score__min__energy>  (53) 
-12.630000000000001

>  <m_primary>  (53) 
energy

$$$$
53:0
     RDKit          3D

 51 54  0  0  0  0  0  0  0  0999 V2000
   50.2070   32.4110   53.8940 O   0  0  0  0  0  0  0  0  0  0  0  0
   50.9750   32.0280   52.9710 C   0  0  0  0  0  0  0  0  0  0  0  0
   52.1700   31.1750   53.3030 C   0  0  0  0  0  0  0  0  0  0  0  0
   53.0260   30.9390   52.1290 N   0  0  0  0  0  0  0  0  0  0  0  0
   54.4010   30.5670   52.3370 C   0  0  0  0  0  0  0  0  0  0  0  0
   54.7480   29.4950   53.1710 C   0  0  0  0  0  0  0  0  0  0  0  0
   56.0920   29.1750   53.3560 C   0  0  0  0  0  0  0  0  0  0  0  0
   57.0940   29.9260   52.7240 C   0  0  0  0  0  0  0  0  0  0  0  0
   58.5160   29.5870   52.9450 C   0  0  0  0  0  0  0  0  0  0  0  0
   58.8110   28.4850   53.4820 O   0  0  0  0  0  0  0  0  0  0  0  0
   59.5570   30.5090   52.5840 N   0  0  0  0  0  0  0  0  0  0  0  0
   60.9660   30.1270   52.5620 C   0  0  0  0  0  0  0  0  0  0  0  0
   61.7000   30.8950   51.5050 C   0  0  0  0  0  0  0  0  0  0  0  0
   62.3510   32.1140   51.7540 C   0  0  0  0  0  0  0  0  0  0  0  0
   62.9760   32.6470   50.6350 C   0  0  0  0  0  0  0  0  0  0  0  0
   62.7200   31.5980   49.3470 S   0  0  0  0  0  0  0  0  0  0  0  0
   61.8160   30.4580   50.1890 C   0  0  0  0  0  0  0  0  0  0  0  0
   56.7090   30.9830   51.8790 C   0  0  0  0  0  0  0  0  0  0  0  0
   57.6780   31.7170   51.1820 O   0  0  0  0  0  0  0  0  0  0  0  0
   58.3230   31.2490   49.9980 C   0  0  0  0  0  0  0  0  0  0  0  0
   58.8110   32.4050   49.1660 C   0  0  0  0  0  0  0  0  0  0  0  0
   59.6380   33.3850   49.7390 C   0  0  0  0  0  0  0  0  0  0  0  0
   60.0900   34.4620   48.9700 C   0  0  0  0  0  0  0  0  0  0  0  0
   59.7210   34.5670   47.6250 C   0  0  0  0  0  0  0  0  0  0  0  0
   58.9040   33.5920   47.0450 C   0  0  0  0  0  0  0  0  0  0  0  0
   58.4540   32.5110   47.8110 C   0  0  0  0  0  0  0  0  0  0  0  0
   55.3870   31.2720   51.7220 N   0  0  0  0  0  0  0  0  0  0  0  0
   52.4180   30.8580   50.7940 C   0  0  0  0  0  0  0  0  0  0  0  0
   51.6030   32.1210   50.5310 C   0  0  0  0  0  0  0  0  0  0  0  0
   50.6560   32.3450   51.6150 N   0  0  0  0  0  0  0  0  0  0  0  0
   52.7632   31.6821   54.0782 H   0  0  0  0  0  0  0  0  0  0  0  0
   51.8024   30.1999   53.6553 H   0  0  0  0  0  0  0  0  0  0  0  0
   53.9650   28.9103   53.6760 H   0  0  0  0  0  0  0  0  0  0  0  0
   56.3685   28.3284   54.0016 H   0  0  0  0  0  0  0  0  0  0  0  0
   59.3100   31.4980   52.3520 H   0  0  0  0  0  0  0  0  0  0  0  0
   61.4148   30.3414   53.5431 H   0  0  0  0  0  0  0  0  0  0  0  0
   61.0405   29.0525   52.3384 H   0  0  0  0  0  0  0  0  0  0  0  0
   62.3644   32.5998   52.7408 H   0  0  0  0  0  0  0  0  0  0  0  0
   63.5400   33.5906   50.5977 H   0  0  0  0  0  0  0  0  0  0  0  0
   61.3919   29.5319   49.7738 H   0  0  0  0  0  0  0  0  0  0  0  0
   59.1798   30.6188   50.2785 H   0  0  0  0  0  0  0  0  0  0  0  0
   57.5996   30.6682   49.4070 H   0  0  0  0  0  0  0  0  0  0  0  0
   59.9311   33.3051   50.7962 H   0  0  0  0  0  0  0  0  0  0  0  0
   60.7366   35.2276   49.4235 H   0  0  0  0  0  0  0  0  0  0  0  0
   60.0739   35.4174   47.0231 H   0  0  0  0  0  0  0  0  0  0  0  0
   58.6150   33.6747   45.9869 H   0  0  0  0  0  0  0  0  0  0  0  0
   57.8179   31.7407   47.3505 H   0  0  0  0  0  0  0  0  0  0  0  0
   53.2092   30.7671   50.0352 H   0  0  0  0  0  0  0  0  0  0  0  0
   51.7595   29.9784   50.7428 H   0  0  0  0  0  0  0  0  0  0  0  0
   52.2824   32.9830   50.4585 H   0  0  0  0  0  0  0  0  0  0  0  0
   51.0476   31.9995   49.5893 H   0  0  0  0  0  0  0  0  0  0  0  0
  1  2  2  0
  2  3  1  0
  3  4  1  0
  4  5  1  0
  5  6  2  0
  6  7  1  0
  7  8  2  0
  8  9  1  0
  9 10  2  0
  9 11  1  0
 11 12  1  0
 12 13  1  0
 13 14  1  0
 14 15  2  0
 15 16  1  0
 16 17  1  0
  8 18  1  0
 18 19  1  0
 19 20  1  0
 20 21  1  0
 21 22  2  0
 22 23  1  0
 23 24  2  0
 24 25  1  0
 25 26  2  0
 18 27  2  0
  4 28  1  0
 28 29  1  0
 29 30  1  0
 30  2  1  0
 27  5  1  0
 17 13  2  0
 26 21  1  0
  3 31  1  0
  3 32  1  0
  6 33  1  0
  7 34  1  0
 11 35  1  0
 12 36  1  0
 12 37  1  0
 14 38  1  0
 15 39  1  0
 17 40  1  0
 20 41  1  0
 20 42  1  0
 22 43  1  0
 23 44  1  0
 24 45  1  0
 25 46  1  0
 26 47  1  0
 28 48  1  0
 28 49  1  0
 29 50  1  0
 29 51  1  0
M  CHG  1  30  -1
M  END
>  <UniqueID>  (54) 
49

>  <SMILES>  (54) 
O=C1CN(c2ccc(C(=O)NCc3ccsc3)c(OCc3ccccc3)n2)CC[N-]1

>  <Energy>  (54) 
81.1845339647891

>  <Genealogy>  (54) 
O=C1CN(c2ccc(C(=O)NCc3ccsc3)c(OCc3ccccc3)n2)CC[N-]1 (protonated)
O=C1CN(c2ccc(C(=O)NCc3ccsc3)c(OCc3ccccc3)n2)CC[N-]1 (3D coordinates assigned)
O=C1CN(c2ccc(C(=O)NCc3ccsc3)c(OCc3ccccc3)n2)CC[N-]1 (nonaromatic ring conformer: 81.1845339647891 kcal/mol)

>  <smiles>  (54) 
O=C1CN(c2ccc(C(=O)NCc3ccsc3)c(OCc3ccccc3)n2)CCN1

>  <score_type>  (54) 
oracle

>  <origin>  (54) 
adg

>  <m_score__min__energy>  (54) 
-9.9299999999999997

>  <m_primary>  (54) 
energy

$$$$
54:0
     RDKit          3D

 53 56  0  0  0  0  0  0  0  0999 V2000
   58.3280   30.6880   46.3510 C   0  0  0  0  0  0  0  0  0  0  0  0
   58.8050   29.7280   47.1650 C   0  0  0  0  0  0  0  0  0  0  0  0
   58.4810   28.3690   47.1280 C   0  0  0  0  0  0  0  0  0  0  0  0
   57.6660   27.7620   46.2520 C   0  0  0  0  0  0  0  0  0  0  0  0
   57.2100   26.3650   46.3490 C   0  0  0  0  0  0  0  0  0  0  0  0
   57.9510   25.4140   46.9420 N   0  0  0  0  0  0  0  0  0  0  0  0
   57.0640   24.4320   47.2000 C   0  0  0  0  0  0  0  0  0  0  0  0
   57.3730   23.3940   47.8390 O   0  0  0  0  0  0  0  0  0  0  0  0
   55.7880   24.7110   46.8410 N   0  0  0  0  0  0  0  0  0  0  0  0
   55.8890   25.9470   46.3300 C   0  0  0  0  0  0  0  0  0  0  0  0
   54.7790   26.7120   45.9760 O   0  0  0  0  0  0  0  0  0  0  0  0
   59.2160   27.7630   48.1470 C   0  0  0  0  0  0  0  0  0  0  0  0
   59.9630   28.7670   48.7440 C   0  0  0  0  0  0  0  0  0  0  0  0
   61.0050   28.5510   49.8030 C   0  0  0  0  0  0  0  0  0  0  0  0
   59.7330   29.9520   48.1320 N   0  0  0  0  0  0  0  0  0  0  0  0
   60.5680   31.1220   48.2420 C   0  0  0  0  0  0  0  0  0  0  0  0
   61.6370   31.2650   47.3510 C   0  0  0  0  0  0  0  0  0  0  0  0
   62.5310   32.3260   47.4880 C   0  0  0  0  0  0  0  0  0  0  0  0
   62.3750   33.2450   48.5260 C   0  0  0  0  0  0  0  0  0  0  0  0
   61.3100   33.1210   49.4270 C   0  0  0  0  0  0  0  0  0  0  0  0
   60.3790   32.0680   49.2930 C   0  0  0  0  0  0  0  0  0  0  0  0
   59.1800   31.9850   50.1860 C   0  0  0  0  0  0  0  0  0  0  0  0
   58.0390   32.1360   49.6680 O   0  0  0  0  0  0  0  0  0  0  0  0
   59.2780   31.7100   51.6150 N   0  0  2  0  0  0  0  0  0  0  0  0
   59.4640   30.2440   51.8240 C   0  0  0  0  0  0  0  0  0  0  0  0
   58.1600   29.5030   52.2050 C   0  0  0  0  0  0  0  0  0  0  0  0
   57.0480   30.0750   51.5450 O   0  0  0  0  0  0  0  0  0  0  0  0
   56.7980   31.3980   51.9890 C   0  0  0  0  0  0  0  0  0  0  0  0
   58.0850   32.2020   52.3690 C   0  0  2  0  0  0  0  0  0  0  0  0
   57.8740   33.7350   52.3030 C   0  0  0  0  0  0  0  0  0  0  0  0
   59.0450   34.4210   51.9440 O   0  0  0  0  0  0  0  0  0  0  0  0
   58.6581   31.7297   46.4767 H   0  0  0  0  0  0  0  0  0  0  0  0
   57.6081   30.4308   45.5601 H   0  0  0  0  0  0  0  0  0  0  0  0
   57.3110   28.3534   45.3952 H   0  0  0  0  0  0  0  0  0  0  0  0
   59.2051   26.6982   48.4227 H   0  0  0  0  0  0  0  0  0  0  0  0
   60.5432   28.6467   50.7968 H   0  0  0  0  0  0  0  0  0  0  0  0
   61.4354   27.5446   49.6941 H   0  0  0  0  0  0  0  0  0  0  0  0
   61.8000   29.3035   49.6941 H   0  0  0  0  0  0  0  0  0  0  0  0
   61.7729   30.5365   46.5381 H   0  0  0  0  0  0  0  0  0  0  0  0
   63.3616   32.4388   46.7757 H   0  0  0  0  0  0  0  0  0  0  0  0
   63.0924   34.0714   48.6374 H   0  0  0  0  0  0  0  0  0  0  0  0
   61.1981   33.8486   50.2443 H   0  0  0  0  0  0  0  0  0  0  0  0
   60.1310   32.1810   52.0090 H   0  0  0  0  0  0  0  0  0  0  0  0
   59.8534   29.8065   50.8929 H   0  0  0  0  0  0  0  0  0  0  0  0
   60.1615   30.1238   52.6660 H   0  0  0  0  0  0  0  0  0  0  0  0
   58.2476   28.4457   51.9144 H   0  0  0  0  0  0  0  0  0  0  0  0
   58.0090   29.5895   53.2912 H   0  0  0  0  0  0  0  0  0  0  0  0
   56.2784   31.9392   51.1846 H   0  0  0  0  0  0  0  0  0  0  0  0
   56.1957   31.3148   52.9057 H   0  0  0  0  0  0  0  0  0  0  0  0
   58.3008   32.0052   53.4295 H   0  0  0  0  0  0  0  0  0  0  0  0
   57.0945   33.9526   51.5580 H   0  0  0  0  0  0  0  0  0  0  0  0
   57.5791   34.0766   53.3062 H   0  0  0  0  0  0  0  0  0  0  0  0
   58.7760   35.3580   51.7610 H   0  0  0  0  0  0  0  0  0  0  0  0
  1  2  2  0
  2  3  1  0
  3  4  2  3
  4  5  1  0
  5  6  1  0
  6  7  1  0
  7  8  2  0
  7  9  1  0
  9 10  1  0
 10 11  1  0
  3 12  1  0
 12 13  2  0
 13 14  1  0
 13 15  1  0
 15 16  1  0
 16 17  2  0
 17 18  1  0
 18 19  2  0
 19 20  1  0
 20 21  2  0
 21 22  1  0
 22 23  2  0
 22 24  1  0
 24 25  1  0
 25 26  1  0
 26 27  1  0
 27 28  1  0
 28 29  1  0
 29 30  1  0
 30 31  1  0
 15  2  1  0
 21 16  1  0
 29 24  1  0
 10  5  2  0
  1 32  1  0
  1 33  1  0
  4 34  1  0
 12 35  1  0
 14 36  1  0
 14 37  1  0
 14 38  1  0
 17 39  1  0
 18 40  1  0
 19 41  1  0
 20 42  1  0
 24 43  1  1
 25 44  1  0
 25 45  1  0
 26 46  1  0
 26 47  1  0
 28 48  1  0
 28 49  1  0
 29 50  1  1
 30 51  1  0
 30 52  1  0
 31 53  1  0
M  CHG  4   6  -1   9  -1  11  -1  24   1
M  END
>  <UniqueID>  (55) 
50

>  <SMILES>  (55) 
C=c1c(=Cc2[n-]c(=O)[n-]c2[O-])cc(C)n1-c1ccccc1C(=O)[N@@H+]1CCOC[C@@H]1CO

>  <Energy>  (55) 
155.41516336863427

>  <Genealogy>  (55) 
C=c1c(=Cc2[n-]c(=O)[n-]c2[O-])cc(C)n1-c1ccccc1C(=O)[NH+]1CCOCC1CO (protonated)
C=c1c(=Cc2[n-]c(=O)[n-]c2[O-])cc(C)n1-c1ccccc1C(=O)[N@@H+]1CCOC[C@@H]1CO (chirality)
C=c1c(=Cc2[n-]c(=O)[n-]c2[O-])cc(C)n1-c1ccccc1C(=O)[N@@H+]1CCOC[C@@H]1CO (3D coordinates assigned)
C=c1c(=Cc2[n-]c(=O)[n-]c2[O-])cc(C)n1-c1ccccc1C(=O)[N@@H+]1CCOC[C@@H]1CO (nonaromatic ring conformer: 155.41516336863427 kcal/mol)

>  <smiles>  (55) 
C=c1c(=Cc2[nH]c(=O)[nH]c2O)cc(C)n1-c1ccccc1C(=O)N1CCOCC1CO

>  <score_type>  (55) 
oracle

>  <origin>  (55) 
adg

>  <m_score__min__energy>  (55) 
-14.470000000000001

>  <m_primary>  (55) 
energy

$$$$
55:0
     RDKit          3D

 62 66  0  0  0  0  0  0  0  0999 V2000
   59.4030   30.7870   49.9890 O   0  0  0  0  0  0  0  0  0  0  0  0
   60.3520   30.5790   49.1870 C   0  0  0  0  0  0  0  0  0  0  0  0
   60.7960   29.1760   48.9020 C   0  0  0  0  0  0  0  0  0  0  0  0
   59.8580   28.5370   47.9060 C   0  0  0  0  0  0  0  0  0  0  0  0
   58.6530   29.1660   47.5510 C   0  0  0  0  0  0  0  0  0  0  0  0
   57.7420   28.5200   46.7060 C   0  0  0  0  0  0  0  0  0  0  0  0
   58.0090   27.2290   46.2380 C   0  0  0  0  0  0  0  0  0  0  0  0
   57.0380   26.5510   45.4350 N   0  0  0  0  0  0  0  0  0  0  0  0
   56.5320   25.2480   45.7450 C   0  0  0  0  0  0  0  0  0  0  0  0
   55.4020   25.1250   46.2950 O   0  0  0  0  0  0  0  0  0  0  0  0
   57.3070   24.0310   45.3200 C   0  0  2  0  0  0  0  0  0  0  0  0
   57.3960   23.9420   43.7970 C   0  0  0  0  0  0  0  0  0  0  0  0
   56.4110   22.8560   43.3800 C   0  0  0  0  0  0  0  0  0  0  0  0
   56.1890   21.9990   44.6170 C   0  0  0  0  0  0  0  0  0  0  0  0
   56.6490   22.7960   45.7430 N   0  0  0  0  0  0  0  0  0  0  0  0
   56.3720   22.4150   47.1080 C   0  0  0  0  0  0  0  0  0  0  0  0
   57.3220   22.0770   47.8660 O   0  0  0  0  0  0  0  0  0  0  0  0
   54.9960   22.3480   47.6320 C   0  0  0  0  0  0  0  0  0  0  0  0
   53.8950   22.3330   46.7630 C   0  0  0  0  0  0  0  0  0  0  0  0
   52.5970   22.2650   47.2780 C   0  0  0  0  0  0  0  0  0  0  0  0
   52.3920   22.2190   48.6610 C   0  0  0  0  0  0  0  0  0  0  0  0
   53.4840   22.2550   49.5320 C   0  0  0  0  0  0  0  0  0  0  0  0
   54.7830   22.3260   49.0210 C   0  0  0  0  0  0  0  0  0  0  0  0
   59.2340   26.6200   46.5470 C   0  0  0  0  0  0  0  0  0  0  0  0
   60.1620   27.2790   47.3550 C   0  0  0  0  0  0  0  0  0  0  0  0
   60.9210   31.6540   48.4360 N   0  0  0  0  0  0  0  0  0  0  0  0
   60.1580   32.4170   47.4990 C   0  0  0  0  0  0  0  0  0  0  0  0
   59.3710   31.7310   46.5670 C   0  0  0  0  0  0  0  0  0  0  0  0
   58.5120   32.4250   45.6990 C   0  0  0  0  0  0  0  0  0  0  0  0
   57.6720   31.6710   44.7390 C   0  0  0  0  0  0  0  0  0  0  0  0
   57.8000   31.7620   43.3500 C   0  0  0  0  0  0  0  0  0  0  0  0
   56.6570   30.7460   42.6450 S   0  0  0  0  0  0  0  0  0  0  0  0
   56.0590   30.2400   44.1260 C   0  0  0  0  0  0  0  0  0  0  0  0
   55.1320   29.4010   44.2700 O   0  0  0  0  0  0  0  0  0  0  0  0
   56.6940   30.8220   45.1620 N   0  0  0  0  0  0  0  0  0  0  0  0
   58.4820   33.8290   45.7530 C   0  0  0  0  0  0  0  0  0  0  0  0
   59.2930   34.5200   46.6610 C   0  0  0  0  0  0  0  0  0  0  0  0
   60.1320   33.8240   47.5360 C   0  0  0  0  0  0  0  0  0  0  0  0
   60.9400   34.5470   48.4130 O   0  0  0  0  0  0  0  0  0  0  0  0
   61.8144   29.1922   48.4867 H   0  0  0  0  0  0  0  0  0  0  0  0
   60.7867   28.5945   49.8357 H   0  0  0  0  0  0  0  0  0  0  0  0
   58.4242   30.1698   47.9383 H   0  0  0  0  0  0  0  0  0  0  0  0
   56.8133   29.0295   46.4093 H   0  0  0  0  0  0  0  0  0  0  0  0
   58.2989   24.1337   45.7844 H   0  0  0  0  0  0  0  0  0  0  0  0
   57.1192   24.9042   43.3413 H   0  0  0  0  0  0  0  0  0  0  0  0
   58.4184   23.7062   43.4668 H   0  0  0  0  0  0  0  0  0  0  0  0
   55.4626   23.3054   43.0504 H   0  0  0  0  0  0  0  0  0  0  0  0
   56.7974   22.2606   42.5396 H   0  0  0  0  0  0  0  0  0  0  0  0
   55.1214   21.7588   44.7293 H   0  0  0  0  0  0  0  0  0  0  0  0
   56.7321   21.0448   44.5495 H   0  0  0  0  0  0  0  0  0  0  0  0
   54.0530   22.3748   45.6752 H   0  0  0  0  0  0  0  0  0  0  0  0
   51.7354   22.2476   46.5944 H   0  0  0  0  0  0  0  0  0  0  0  0
   51.3702   22.1544   49.0632 H   0  0  0  0  0  0  0  0  0  0  0  0
   53.3214   22.2275   50.6196 H   0  0  0  0  0  0  0  0  0  0  0  0
   55.6412   22.3648   49.7080 H   0  0  0  0  0  0  0  0  0  0  0  0
   59.4642   25.6198   46.1513 H   0  0  0  0  0  0  0  0  0  0  0  0
   61.1362   26.8121   47.5620 H   0  0  0  0  0  0  0  0  0  0  0  0
   59.4259   30.6337   46.5135 H   0  0  0  0  0  0  0  0  0  0  0  0
   58.5237   32.3900   42.8098 H   0  0  0  0  0  0  0  0  0  0  0  0
   57.8175   34.3882   45.0779 H   0  0  0  0  0  0  0  0  0  0  0  0
   59.2698   35.6195   46.6861 H   0  0  0  0  0  0  0  0  0  0  0  0
   61.5380   34.0990   49.0950 H   0  0  0  0  0  0  0  0  0  0  0  0
  1  2  2  0
  2  3  1  0
  3  4  1  0
  4  5  2  0
  5  6  1  0
  6  7  2  0
  7  8  1  0
  8  9  1  0
  9 10  2  0
  9 11  1  0
 11 12  1  0
 12 13  1  0
 13 14  1  0
 14 15  1  0
 15 16  1  0
 16 17  2  0
 16 18  1  0
 18 19  2  0
 19 20  1  0
 20 21  2  0
 21 22  1  0
 22 23  2  0
  7 24  1  0
 24 25  2  0
  2 26  1  0
 26 27  1  0
 27 28  2  0
 28 29  1  0
 29 30  1  0
 30 31  2  0
 31 32  1  0
 32 33  1  0
 33 34  2  0
 33 35  1  0
 29 36  2  0
 36 37  1  0
 37 38  2  0
 38 39  1  0
 25  4  1  0
 38 27  1  0
 15 11  1  0
 23 18  1  0
 35 30  1  0
  3 40  1  0
  3 41  1  0
  5 42  1  0
  6 43  1  0
 11 44  1  1
 12 45  1  0
 12 46  1  0
 13 47  1  0
 13 48  1  0
 14 49  1  0
 14 50  1  0
 19 51  1  0
 20 52  1  0
 21 53  1  0
 22 54  1  0
 23 55  1  0
 24 56  1  0
 25 57  1  0
 28 58  1  0
 31 59  1  0
 36 60  1  0
 37 61  1  0
 39 62  1  0
M  CHG  3   8  -1  26  -1  35  -1
M  END
>  <UniqueID>  (56) 
51

>  <SMILES>  (56) 
O=C(Cc1ccc([N-]C(=O)[C@@H]2CCCN2C(=O)c2ccccc2)cc1)[N-]c1cc(-c2csc(=O)[n-]2)ccc1O

>  <Energy>  (56) 
114.89410311881605

>  <Genealogy>  (56) 
O=C(Cc1ccc([N-]C(=O)C2CCCN2C(=O)c2ccccc2)cc1)[N-]c1cc(-c2csc(=O)[n-]2)ccc1O (protonated)
O=C(Cc1ccc([N-]C(=O)[C@@H]2CCCN2C(=O)c2ccccc2)cc1)[N-]c1cc(-c2csc(=O)[n-]2)ccc1O (chirality)
O=C(Cc1ccc([N-]C(=O)[C@@H]2CCCN2C(=O)c2ccccc2)cc1)[N-]c1cc(-c2csc(=O)[n-]2)ccc1O (3D coordinates assigned)
O=C(Cc1ccc([N-]C(=O)[C@@H]2CCCN2C(=O)c2ccccc2)cc1)[N-]c1cc(-c2csc(=O)[n-]2)ccc1O (nonaromatic ring conformer: 114.89410311881605 kcal/mol)

>  <smiles>  (56) 
O=C(Cc1ccc(NC(=O)C2CCCN2C(=O)c2ccccc2)cc1)Nc1cc(-c2csc(=O)[nH]2)ccc1O

>  <score_type>  (56) 
oracle

>  <origin>  (56) 
adg

>  <m_score__min__energy>  (56) 
-13.81

>  <m_primary>  (56) 
energy

$$$$
56:0
     RDKit          3D

 43 44  0  0  0  0  0  0  0  0999 V2000
   58.3064   35.5876   44.3254 H   0  0  0  0  0  0  0  0  0  0  0  0
   58.4520   34.6390   44.8630 C   0  0  0  0  0  0  0  0  0  0  0  0
   57.5160   33.6640   44.7800 N   0  0  0  0  0  0  0  0  0  0  0  0
   57.6190   32.4770   45.4360 C   0  0  0  0  0  0  0  0  0  0  0  0
   56.6530   31.6190   45.2420 N   0  0  0  0  0  0  0  0  0  0  0  0
   56.6490   30.0440   44.5020 S   0  0  0  0  0  0  0  0  0  0  0  0
   55.3520   29.3470   44.8120 O   0  0  0  0  0  0  0  0  0  0  0  0
   56.7580   30.2160   43.0150 O   0  0  0  0  0  0  0  0  0  0  0  0
   58.0280   29.0920   45.0450 C   0  0  0  0  0  0  0  0  0  0  0  0
   57.8570   28.0810   46.0020 C   0  0  0  0  0  0  0  0  0  0  0  0
   56.8566   27.8752   46.4104 H   0  0  0  0  0  0  0  0  0  0  0  0
   58.9560   27.3340   46.4380 C   0  0  0  0  0  0  0  0  0  0  0  0
   58.8191   26.5444   47.1915 H   0  0  0  0  0  0  0  0  0  0  0  0
   60.2280   27.5890   45.9180 C   0  0  0  0  0  0  0  0  0  0  0  0
   61.0916   27.0013   46.2627 H   0  0  0  0  0  0  0  0  0  0  0  0
   60.4020   28.5920   44.9590 C   0  0  0  0  0  0  0  0  0  0  0  0
   61.4028   28.7921   44.5487 H   0  0  0  0  0  0  0  0  0  0  0  0
   59.3050   29.3410   44.5210 C   0  0  0  0  0  0  0  0  0  0  0  0
   59.4440   30.1269   43.7640 H   0  0  0  0  0  0  0  0  0  0  0  0
   58.7520   32.2510   46.2740 C   0  0  0  0  0  0  0  0  0  0  0  0
   58.8320   31.0750   47.0910 N   0  0  0  0  0  0  0  0  0  0  0  0
   59.3440   31.0650   48.2290 O   0  0  0  0  0  0  0  0  0  0  0  0
   59.7640   33.2460   46.3310 C   0  0  0  0  0  0  0  0  0  0  0  0
   61.0000   33.0050   47.0300 N   0  0  0  0  0  0  0  0  0  0  0  0
   61.0530   32.2040   47.6990 H   0  0  0  0  0  0  0  0  0  0  0  0
   62.2200   33.7750   46.7950 C   0  0  0  0  0  0  0  0  0  0  0  0
   62.2233   34.6592   47.4493 H   0  0  0  0  0  0  0  0  0  0  0  0
   62.2496   34.0878   45.7408 H   0  0  0  0  0  0  0  0  0  0  0  0
   63.4540   32.9170   47.0970 C   0  0  0  0  0  0  0  0  0  0  0  0
   64.3497   33.5525   47.0346 H   0  0  0  0  0  0  0  0  0  0  0  0
   63.4845   32.1026   46.3582 H   0  0  0  0  0  0  0  0  0  0  0  0
   63.3980   32.2770   48.4990 C   0  0  0  0  0  0  0  0  0  0  0  0
   64.0861   31.4189   48.5167 H   0  0  0  0  0  0  0  0  0  0  0  0
   62.3533   31.9813   48.6757 H   0  0  0  0  0  0  0  0  0  0  0  0
   63.7910   33.2380   49.6340 C   0  0  0  0  0  0  0  0  0  0  0  0
   64.6309   33.8600   49.2908 H   0  0  0  0  0  0  0  0  0  0  0  0
   64.0622   32.6230   50.5048 H   0  0  0  0  0  0  0  0  0  0  0  0
   62.6500   34.1570   50.0640 C   0  0  0  0  0  0  0  0  0  0  0  0
   62.6035   34.1945   51.1624 H   0  0  0  0  0  0  0  0  0  0  0  0
   62.8257   35.1688   49.6697 H   0  0  0  0  0  0  0  0  0  0  0  0
   61.6989   33.7698   49.6697 H   0  0  0  0  0  0  0  0  0  0  0  0
   59.5940   34.4430   45.6250 C   0  0  0  0  0  0  0  0  0  0  0  0
   60.3646   35.2264   45.6746 H   0  0  0  0  0  0  0  0  0  0  0  0
  1  2  1  0
  2  3  1  0
  3  4  1  0
  4  5  2  0
  5  6  1  0
  6  7  2  0
  6  8  2  0
  6  9  1  0
  9 10  2  0
 10 11  1  0
 10 12  1  0
 12 13  1  0
 12 14  2  0
 14 15  1  0
 14 16  1  0
 16 17  1  0
 16 18  2  0
 18 19  1  0
  4 20  1  0
 20 21  1  0
 21 22  2  0
 20 23  2  0
 23 24  1  0
 24 25  1  0
 24 26  1  0
 26 27  1  0
 26 28  1  0
 26 29  1  0
 29 30  1  0
 29 31  1  0
 29 32  1  0
 32 33  1  0
 32 34  1  0
 32 35  1  0
 35 36  1  0
 35 37  1  0
 35 38  1  0
 38 39  1  0
 38 40  1  0
 38 41  1  0
 23 42  1  0
 42 43  1  0
 42  2  2  0
 18  9  1  0
M  CHG  1   3  -1
M  END
>  <UniqueID>  (57) 
52

>  <SMILES>  (57) 
CCCCCNc1cc[n-]/c(=N/S(=O)(=O)c2ccccc2)c1N=O

>  <Energy>  (57) 
56.600380119939665

>  <Genealogy>  (57) 
CCCCCNc1cc[n-]c(=NS(=O)(=O)c2ccccc2)c1N=O (protonated)
CCCCCNc1cc[n-]/c(=N/S(=O)(=O)c2ccccc2)c1N=O (cis-trans isomerization)
CCCCCNc1cc[n-]/c(=N/S(=O)(=O)c2ccccc2)c1N=O (3D coordinates assigned)
CCCCCNc1cc[n-]/c(=N/S(=O)(=O)c2ccccc2)c1N=O (optimized conformer: 56.600380119939665 kcal/mol)

>  <smiles>  (57) 
CCCCCNc1cc[nH]c(=NS(=O)(=O)c2ccccc2)c1N=O

>  <score_type>  (57) 
oracle

>  <origin>  (57) 
adg

>  <m_score__min__energy>  (57) 
-9.5199999999999996

>  <m_primary>  (57) 
energy

$$$$
57:0
     RDKit          3D

 77 81  0  0  0  0  0  0  0  0999 V2000
   60.2583   26.4105   48.9313 H   0  0  0  0  0  0  0  0  0  0  0  0
   60.0670   26.8450   47.9390 C   0  0  0  0  0  0  0  0  0  0  0  0
   60.4600   26.0680   46.7460 C   0  0  0  0  0  0  0  0  0  0  0  0
   61.5200   26.3860   46.1350 O   0  0  0  0  0  0  0  0  0  0  0  0
   59.7310   24.9200   46.2950 N   0  0  0  0  0  0  0  0  0  0  0  0
   58.7460   24.7740   45.2530 C   0  0  0  0  0  0  0  0  0  0  0  0
   58.3310   25.8390   44.4260 C   0  0  0  0  0  0  0  0  0  0  0  0
   58.7440   26.8466   44.5813 H   0  0  0  0  0  0  0  0  0  0  0  0
   57.3960   25.6180   43.4090 C   0  0  0  0  0  0  0  0  0  0  0  0
   57.0522   26.4595   42.7897 H   0  0  0  0  0  0  0  0  0  0  0  0
   56.8970   24.3350   43.1760 C   0  0  0  0  0  0  0  0  0  0  0  0
   56.1593   24.1699   42.3769 H   0  0  0  0  0  0  0  0  0  0  0  0
   57.3350   23.2540   43.9600 C   0  0  0  0  0  0  0  0  0  0  0  0
   56.8340   21.8630   43.6820 C   0  0  0  0  0  0  0  0  0  0  0  0
   57.5712   21.1326   44.0467 H   0  0  0  0  0  0  0  0  0  0  0  0
   56.6901   21.7457   42.5978 H   0  0  0  0  0  0  0  0  0  0  0  0
   55.5590   21.6370   44.3560 N   0  0  0  0  0  0  0  0  0  0  0  0
   55.4210   21.4660   45.7710 C   0  0  0  0  0  0  0  0  0  0  0  0
   56.1260   20.6230   46.3820 O   0  0  0  0  0  0  0  0  0  0  0  0
   54.4670   22.3280   46.5440 C   0  0  0  0  0  0  0  0  0  0  0  0
   54.5081   22.0450   47.6062 H   0  0  0  0  0  0  0  0  0  0  0  0
   53.4552   22.1756   46.1402 H   0  0  0  0  0  0  0  0  0  0  0  0
   54.8170   23.7810   46.4110 C   0  0  0  0  0  0  0  0  0  0  0  0
   56.1950   24.5040   47.0540 S   0  0  0  0  0  0  0  0  0  0  0  0
   55.8570   25.9940   46.3400 C   0  0  0  0  0  0  0  0  0  0  0  0
   56.5740   27.0740   46.4430 N   0  0  0  0  0  0  0  0  0  0  0  0
   56.5990   28.1830   45.5300 C   0  0  0  0  0  0  0  0  0  0  0  0
   55.5250   28.7220   45.1460 O   0  0  0  0  0  0  0  0  0  0  0  0
   57.8340   28.8190   45.2080 N   0  0  0  0  0  0  0  0  0  0  0  0
   58.0250   30.2230   44.9810 C   0  0  0  0  0  0  0  0  0  0  0  0
   57.6490   30.8390   43.7720 C   0  0  0  0  0  0  0  0  0  0  0  0
   57.2402   30.2310   42.9515 H   0  0  0  0  0  0  0  0  0  0  0  0
   57.7930   32.2200   43.6100 C   0  0  0  0  0  0  0  0  0  0  0  0
   57.4937   32.6976   42.6654 H   0  0  0  0  0  0  0  0  0  0  0  0
   58.3180   32.9940   44.6500 C   0  0  0  0  0  0  0  0  0  0  0  0
   58.4242   34.0814   44.5225 H   0  0  0  0  0  0  0  0  0  0  0  0
   58.7110   32.3900   45.8580 C   0  0  0  0  0  0  0  0  0  0  0  0
   59.2950   33.1950   46.9560 C   0  0  0  0  0  0  0  0  0  0  0  0
   58.5550   34.0270   47.5540 O   0  0  0  0  0  0  0  0  0  0  0  0
   60.6670   33.0230   47.3800 N   0  0  0  0  0  0  0  0  0  0  0  0
   61.3620   31.7510   47.1370 C   0  0  0  0  0  0  0  0  0  0  0  0
   61.8082   31.7692   46.1317 H   0  0  0  0  0  0  0  0  0  0  0  0
   60.6352   30.9291   47.2160 H   0  0  0  0  0  0  0  0  0  0  0  0
   62.4670   31.5340   48.1740 C   0  0  0  0  0  0  0  0  0  0  0  0
   63.0019   30.6018   47.9398 H   0  0  0  0  0  0  0  0  0  0  0  0
   62.0051   31.4738   49.1705 H   0  0  0  0  0  0  0  0  0  0  0  0
   63.4280   32.6570   48.1680 N   0  0  0  0  0  0  0  0  0  0  0  0
   64.3600   32.5280   49.2970 C   0  0  0  0  0  0  0  0  0  0  0  0
   63.8033   32.6050   50.2426 H   0  0  0  0  0  0  0  0  0  0  0  0
   64.8640   31.5515   49.2467 H   0  0  0  0  0  0  0  0  0  0  0  0
   65.1103   33.3309   49.2467 H   0  0  0  0  0  0  0  0  0  0  0  0
   62.8070   34.0080   48.1250 C   0  0  0  0  0  0  0  0  0  0  0  0
   63.0467   34.4678   47.1549 H   0  0  0  0  0  0  0  0  0  0  0  0
   63.2166   34.5730   48.9753 H   0  0  0  0  0  0  0  0  0  0  0  0
   61.2760   34.0010   48.2920 C   0  0  0  0  0  0  0  0  0  0  0  0
   60.8819   35.0027   48.0654 H   0  0  0  0  0  0  0  0  0  0  0  0
   61.0308   33.7245   49.3281 H   0  0  0  0  0  0  0  0  0  0  0  0
   58.5330   31.0070   46.0210 C   0  0  0  0  0  0  0  0  0  0  0  0
   58.7965   30.5345   46.9788 H   0  0  0  0  0  0  0  0  0  0  0  0
   54.7170   25.9540   45.6170 N   0  0  0  0  0  0  0  0  0  0  0  0
   54.1400   24.7230   45.6450 C   0  0  0  0  0  0  0  0  0  0  0  0
   53.2107   24.4909   45.1041 H   0  0  0  0  0  0  0  0  0  0  0  0
   58.2490   23.4860   45.0030 C   0  0  0  0  0  0  0  0  0  0  0  0
   58.5790   22.6459   45.6318 H   0  0  0  0  0  0  0  0  0  0  0  0
   59.4880   28.0550   47.8740 C   0  0  0  0  0  0  0  0  0  0  0  0
   58.8256   28.2618   47.0205 H   0  0  0  0  0  0  0  0  0  0  0  0
   59.6820   29.1310   48.8760 C   0  0  0  0  0  0  0  0  0  0  0  0
   58.7400   30.1690   49.0240 C   0  0  0  0  0  0  0  0  0  0  0  0
   57.8521   30.1991   48.3753 H   0  0  0  0  0  0  0  0  0  0  0  0
   58.9290   31.1610   49.9920 C   0  0  0  0  0  0  0  0  0  0  0  0
   58.2030   31.9818   50.0875 H   0  0  0  0  0  0  0  0  0  0  0  0
   60.0420   31.1090   50.8390 C   0  0  0  0  0  0  0  0  0  0  0  0
   60.1871   31.8861   51.6039 H   0  0  0  0  0  0  0  0  0  0  0  0
   60.9690   30.0710   50.7140 C   0  0  0  0  0  0  0  0  0  0  0  0
   61.8446   30.0343   51.3789 H   0  0  0  0  0  0  0  0  0  0  0  0
   60.7860   29.0770   49.7440 C   0  0  0  0  0  0  0  0  0  0  0  0
   61.5086   28.2517   49.6615 H   0  0  0  0  0  0  0  0  0  0  0  0
  1  2  1  0
  2  3  1  0
  3  4  2  0
  3  5  1  0
  5  6  1  0
  6  7  2  0
  7  8  1  0
  7  9  1  0
  9 10  1  0
  9 11  2  0
 11 12  1  0
 11 13  1  0
 13 14  1  0
 14 15  1  0
 14 16  1  0
 14 17  1  0
 17 18  1  0
 18 19  2  0
 18 20  1  0
 20 21  1  0
 20 22  1  0
 20 23  1  0
 23 24  1  0
 24 25  1  0
 25 26  2  0
 26 27  1  0
 27 28  2  0
 27 29  1  0
 29 30  1  0
 30 31  2  0
 31 32  1  0
 31 33  1  0
 33 34  1  0
 33 35  2  0
 35 36  1  0
 35 37  1  0
 37 38  1  0
 38 39  2  0
 38 40  1  0
 40 41  1  0
 41 42  1  0
 41 43  1  0
 41 44  1  0
 44 45  1  0
 44 46  1  0
 44 47  1  0
 47 48  1  0
 48 49  1  0
 48 50  1  0
 48 51  1  0
 47 52  1  0
 52 53  1  0
 52 54  1  0
 52 55  1  0
 55 56  1  0
 55 57  1  0
 37 58  2  0
 58 59  1  0
 25 60  1  0
 60 61  1  0
 61 62  1  0
 13 63  2  0
 63 64  1  0
  2 65  2  3
 65 66  1  0
 65 67  1  0
 67 68  2  0
 68 69  1  0
 68 70  1  0
 70 71  1  0
 70 72  2  0
 72 73  1  0
 72 74  1  0
 74 75  1  0
 74 76  2  0
 76 77  1  0
 63  6  1  0
 76 67  1  0
 61 23  2  0
 58 30  1  0
 55 40  1  0
M  CHG  4   5  -1  17  -1  29  -1  60  -1
M  END
>  <UniqueID>  (58) 
53

>  <SMILES>  (58) 
CN1CCN(C(=O)c2cccc([N-]C(=O)/N=c3/[n-]cc(CC(=O)[N-]Cc4cccc([N-]C(=O)C=Cc5ccccc5)c4)s3)c2)CC1

>  <Energy>  (58) 
143.19809940181617

>  <Genealogy>  (58) 
CN1CCN(C(=O)c2cccc([N-]C(=O)N=c3[n-]cc(CC(=O)[N-]Cc4cccc([N-]C(=O)C=Cc5ccccc5)c4)s3)c2)CC1 (protonated)
CN1CCN(C(=O)c2cccc([N-]C(=O)/N=c3/[n-]cc(CC(=O)[N-]Cc4cccc([N-]C(=O)C=Cc5ccccc5)c4)s3)c2)CC1 (cis-trans isomerization)
CN1CCN(C(=O)c2cccc([N-]C(=O)/N=c3/[n-]cc(CC(=O)[N-]Cc4cccc([N-]C(=O)C=Cc5ccccc5)c4)s3)c2)CC1 (3D coordinates assigned)
CN1CCN(C(=O)c2cccc([N-]C(=O)/N=c3/[n-]cc(CC(=O)[N-]Cc4cccc([N-]C(=O)C=Cc5ccccc5)c4)s3)c2)CC1 (nonaromatic ring conformer: 143.19809940181617 kcal/mol)

>  <smiles>  (58) 
CN1CCN(C(=O)c2cccc(NC(=O)N=c3[nH]cc(CC(=O)NCc4cccc(NC(=O)C=Cc5ccccc5)c4)s3)c2)CC1

>  <score_type>  (58) 
oracle

>  <origin>  (58) 
adg

>  <m_score__min__energy>  (58) 
-14.43

>  <m_primary>  (58) 
energy

$$$$
58:0
     RDKit          3D

 60 63  0  0  0  0  0  0  0  0999 V2000
   66.0530   32.1670   50.4360 C   0  0  0  0  0  0  0  0  0  0  0  0
   65.1760   33.0070   49.5080 C   0  0  0  0  0  0  0  0  0  0  0  0
   63.8100   33.2900   50.0900 C   0  0  0  0  0  0  0  0  0  0  0  0
   63.7230   33.8950   51.1940 O   0  0  0  0  0  0  0  0  0  0  0  0
   62.6030   32.8660   49.4190 N   0  0  0  0  0  0  0  0  0  0  0  0
   62.5980   31.7610   48.4470 C   0  0  0  0  0  0  0  0  0  0  0  0
   61.7880   32.1590   47.2110 C   0  0  0  0  0  0  0  0  0  0  0  0
   60.5120   32.7790   47.5880 N   0  0  0  0  0  0  0  0  0  0  0  0
   59.6170   33.2210   46.5580 C   0  0  0  0  0  0  0  0  0  0  0  0
   59.7390   34.5270   46.0610 C   0  0  0  0  0  0  0  0  0  0  0  0
   58.9060   34.9690   45.0310 C   0  0  0  0  0  0  0  0  0  0  0  0
   57.9420   34.1140   44.4960 C   0  0  0  0  0  0  0  0  0  0  0  0
   57.8070   32.8140   44.9900 C   0  0  0  0  0  0  0  0  0  0  0  0
   58.6470   32.3500   46.0200 C   0  0  0  0  0  0  0  0  0  0  0  0
   58.4720   31.0310   46.5670 N   0  0  0  0  0  0  0  0  0  0  0  0
   59.1670   29.8750   46.0710 C   0  0  0  0  0  0  0  0  0  0  0  0
   60.2220   30.0230   45.3940 O   0  0  0  0  0  0  0  0  0  0  0  0
   58.6830   28.5080   46.3780 C   0  0  0  0  0  0  0  0  0  0  0  0
   59.4310   27.6420   47.1950 C   0  0  0  0  0  0  0  0  0  0  0  0
   58.9610   26.3600   47.4890 C   0  0  0  0  0  0  0  0  0  0  0  0
   57.7290   25.9210   46.9810 C   0  0  0  0  0  0  0  0  0  0  0  0
   57.2420   24.5260   47.2740 C   0  0  0  0  0  0  0  0  0  0  0  0
   56.8790   23.8400   46.0240 N   0  0  0  0  0  0  0  0  0  0  0  0
   57.8040   23.0490   45.4020 C   0  0  0  0  0  0  0  0  0  0  0  0
   57.5000   22.4120   44.2010 C   0  0  0  0  0  0  0  0  0  0  0  0
   56.2380   22.6060   43.6460 C   0  0  0  0  0  0  0  0  0  0  0  0
   55.9300   22.0460   42.5630 O   0  0  0  0  0  0  0  0  0  0  0  0
   55.3410   23.4020   44.2770 N   0  0  0  0  0  0  0  0  0  0  0  0
   55.6450   24.0190   45.4490 C   0  0  0  0  0  0  0  0  0  0  0  0
   54.7800   24.7530   45.9950 O   0  0  0  0  0  0  0  0  0  0  0  0
   56.9800   26.7810   46.1630 C   0  0  0  0  0  0  0  0  0  0  0  0
   57.4490   28.0650   45.8710 C   0  0  0  0  0  0  0  0  0  0  0  0
   60.1450   32.9440   48.9960 C   0  0  0  0  0  0  0  0  0  0  0  0
   61.3300   33.5140   49.7850 C   0  0  0  0  0  0  0  0  0  0  0  0
   65.8086   32.4011   51.4827 H   0  0  0  0  0  0  0  0  0  0  0  0
   65.8695   31.0991   50.2466 H   0  0  0  0  0  0  0  0  0  0  0  0
   67.1120   32.3963   50.2466 H   0  0  0  0  0  0  0  0  0  0  0  0
   65.6823   33.9649   49.3178 H   0  0  0  0  0  0  0  0  0  0  0  0
   65.0286   32.4322   48.5817 H   0  0  0  0  0  0  0  0  0  0  0  0
   63.6318   31.5334   48.1480 H   0  0  0  0  0  0  0  0  0  0  0  0
   62.1411   30.8736   48.9094 H   0  0  0  0  0  0  0  0  0  0  0  0
   62.3723   32.8753   46.6147 H   0  0  0  0  0  0  0  0  0  0  0  0
   61.5746   31.2510   46.6279 H   0  0  0  0  0  0  0  0  0  0  0  0
   60.4940   35.2058   46.4843 H   0  0  0  0  0  0  0  0  0  0  0  0
   59.0100   35.9923   44.6411 H   0  0  0  0  0  0  0  0  0  0  0  0
   57.2874   34.4638   43.6842 H   0  0  0  0  0  0  0  0  0  0  0  0
   57.0384   32.1480   44.5709 H   0  0  0  0  0  0  0  0  0  0  0  0
   57.8930   30.9270   47.4300 H   0  0  0  0  0  0  0  0  0  0  0  0
   60.3947   27.9770   47.6062 H   0  0  0  0  0  0  0  0  0  0  0  0
   59.5606   25.6902   48.1229 H   0  0  0  0  0  0  0  0  0  0  0  0
   58.0395   23.9617   47.7795 H   0  0  0  0  0  0  0  0  0  0  0  0
   56.3545   24.5849   47.9212 H   0  0  0  0  0  0  0  0  0  0  0  0
   58.7977   22.9142   45.8540 H   0  0  0  0  0  0  0  0  0  0  0  0
   58.2408   21.7698   43.7021 H   0  0  0  0  0  0  0  0  0  0  0  0
   56.0185   26.4427   45.7494 H   0  0  0  0  0  0  0  0  0  0  0  0
   56.8472   28.7346   45.2390 H   0  0  0  0  0  0  0  0  0  0  0  0
   59.2918   33.6342   49.0713 H   0  0  0  0  0  0  0  0  0  0  0  0
   59.8712   31.9642   49.4144 H   0  0  0  0  0  0  0  0  0  0  0  0
   61.4082   34.5916   49.5784 H   0  0  0  0  0  0  0  0  0  0  0  0
   61.1483   33.3246   50.8532 H   0  0  0  0  0  0  0  0  0  0  0  0
  1  2  1  0
  2  3  1  0
  3  4  2  0
  3  5  1  0
  5  6  1  0
  6  7  1  0
  7  8  1  0
  8  9  1  0
  9 10  2  0
 10 11  1  0
 11 12  2  0
 12 13  1  0
 13 14  2  0
 14 15  1  0
 15 16  1  0
 16 17  2  0
 16 18  1  0
 18 19  2  0
 19 20  1  0
 20 21  2  0
 21 22  1  0
 22 23  1  0
 23 24  1  0
 24 25  2  0
 25 26  1  0
 26 27  2  0
 26 28  1  0
 28 29  1  0
 29 30  2  0
 21 31  1  0
 31 32  2  0
  8 33  1  0
 33 34  1  0
 34  5  1  0
 14  9  1  0
 32 18  1  0
 29 23  1  0
  1 35  1  0
  1 36  1  0
  1 37  1  0
  2 38  1  0
  2 39  1  0
  6 40  1  0
  6 41  1  0
  7 42  1  0
  7 43  1  0
 10 44  1  0
 11 45  1  0
 12 46  1  0
 13 47  1  0
 15 48  1  0
 19 49  1  0
 20 50  1  0
 22 51  1  0
 22 52  1  0
 24 53  1  0
 25 54  1  0
 31 55  1  0
 32 56  1  0
 33 57  1  0
 33 58  1  0
 34 59  1  0
 34 60  1  0
M  CHG  1  28  -1
M  END
>  <UniqueID>  (59) 
54

>  <SMILES>  (59) 
CCC(=O)N1CCN(c2ccccc2NC(=O)c2ccc(Cn3ccc(=O)[n-]c3=O)cc2)CC1

>  <Energy>  (59) 
75.4270001574634

>  <Genealogy>  (59) 
CCC(=O)N1CCN(c2ccccc2NC(=O)c2ccc(Cn3ccc(=O)[n-]c3=O)cc2)CC1 (protonated)
CCC(=O)N1CCN(c2ccccc2NC(=O)c2ccc(Cn3ccc(=O)[n-]c3=O)cc2)CC1 (3D coordinates assigned)
CCC(=O)N1CCN(c2ccccc2NC(=O)c2ccc(Cn3ccc(=O)[n-]c3=O)cc2)CC1 (nonaromatic ring conformer: 75.4270001574634 kcal/mol)

>  <smiles>  (59) 
CCC(=O)N1CCN(c2ccccc2NC(=O)c2ccc(Cn3ccc(=O)[nH]c3=O)cc2)CC1

>  <score_type>  (59) 
oracle

>  <origin>  (59) 
adg

>  <m_score__min__energy>  (59) 
-11.6

>  <m_primary>  (59) 
energy

$$$$
59:0
     RDKit          3D

 56 58  0  0  0  0  0  0  0  0999 V2000
   56.6310   22.8000   42.9720 C   0  0  0  0  0  0  0  0  0  0  0  0
   55.9200   23.0350   44.3000 C   0  0  0  0  0  0  0  0  0  0  0  0
   56.0630   24.4270   44.7220 N   0  0  0  0  0  0  0  0  0  0  0  0
   55.7460   24.8730   46.0460 C   0  0  0  0  0  0  0  0  0  0  0  0
   55.3330   24.0520   46.9090 O   0  0  0  0  0  0  0  0  0  0  0  0
   55.9490   26.2490   46.3870 N   0  0  0  0  0  0  0  0  0  0  0  0
   56.9620   27.1190   45.8600 C   0  0  0  0  0  0  0  0  0  0  0  0
   58.3220   26.7600   45.8490 C   0  0  0  0  0  0  0  0  0  0  0  0
   59.2780   27.6460   45.3460 C   0  0  0  0  0  0  0  0  0  0  0  0
   58.8920   28.8980   44.8620 C   0  0  0  0  0  0  0  0  0  0  0  0
   57.5410   29.2740   44.8870 C   0  0  0  0  0  0  0  0  0  0  0  0
   57.0350   30.8570   44.3040 S   0  0  0  0  0  0  0  0  0  0  0  0
   57.7010   31.1630   42.9900 O   0  0  0  0  0  0  0  0  0  0  0  0
   55.5470   30.8360   44.0950 O   0  0  0  0  0  0  0  0  0  0  0  0
   57.4570   32.0750   45.4820 N   0  0  0  0  0  0  0  0  0  0  0  0
   58.2560   31.4960   46.5910 C   0  0  0  0  0  0  0  0  0  0  0  0
   59.7640   31.7600   46.4490 C   0  0  0  0  0  0  0  0  0  0  0  0
   60.0790   33.2740   46.3550 C   0  0  0  0  0  0  0  0  0  0  0  0
   60.5010   33.8370   47.6860 C   0  0  0  0  0  0  0  0  0  0  0  0
   59.6550   33.9410   48.6150 O   0  0  0  0  0  0  0  0  0  0  0  0
   61.8640   34.2200   47.9040 N   0  0  0  0  0  0  0  0  0  0  0  0
   63.0050   33.4120   47.4890 C   0  0  0  0  0  0  0  0  0  0  0  0
   63.5480   32.6430   48.6620 C   0  0  0  0  0  0  0  0  0  0  0  0
   64.7570   33.0140   49.2700 C   0  0  0  0  0  0  0  0  0  0  0  0
   65.2280   32.3020   50.3750 C   0  0  0  0  0  0  0  0  0  0  0  0
   64.4840   31.2270   50.8660 C   0  0  0  0  0  0  0  0  0  0  0  0
   63.3110   30.8830   50.2700 N   0  0  0  0  0  0  0  0  0  0  0  0
   62.8300   31.5610   49.1930 C   0  0  0  0  0  0  0  0  0  0  0  0
   58.8940   34.0850   45.7880 C   0  0  0  0  0  0  0  0  0  0  0  0
   58.0860   33.2320   44.8060 C   0  0  0  0  0  0  0  0  0  0  0  0
   56.5840   28.3860   45.3980 C   0  0  0  0  0  0  0  0  0  0  0  0
   57.6597   22.4600   43.1620 H   0  0  0  0  0  0  0  0  0  0  0  0
   56.0913   22.0325   42.3979 H   0  0  0  0  0  0  0  0  0  0  0  0
   56.6550   23.7380   42.3979 H   0  0  0  0  0  0  0  0  0  0  0  0
   54.8515   22.8005   44.1842 H   0  0  0  0  0  0  0  0  0  0  0  0
   56.3722   22.3852   45.0637 H   0  0  0  0  0  0  0  0  0  0  0  0
   56.3550   25.1360   44.0120 H   0  0  0  0  0  0  0  0  0  0  0  0
   58.6336   25.7792   46.2374 H   0  0  0  0  0  0  0  0  0  0  0  0
   60.3391   27.3563   45.3311 H   0  0  0  0  0  0  0  0  0  0  0  0
   59.6478   29.5894   44.4611 H   0  0  0  0  0  0  0  0  0  0  0  0
   57.9111   31.9364   47.5381 H   0  0  0  0  0  0  0  0  0  0  0  0
   58.1099   30.4060   46.5665 H   0  0  0  0  0  0  0  0  0  0  0  0
   60.2822   31.3427   47.3250 H   0  0  0  0  0  0  0  0  0  0  0  0
   60.1078   31.2819   45.5199 H   0  0  0  0  0  0  0  0  0  0  0  0
   60.9197   33.3689   45.6520 H   0  0  0  0  0  0  0  0  0  0  0  0
   62.6862   32.7065   46.7076 H   0  0  0  0  0  0  0  0  0  0  0  0
   63.7914   34.0740   47.0974 H   0  0  0  0  0  0  0  0  0  0  0  0
   65.3330   33.8646   48.8767 H   0  0  0  0  0  0  0  0  0  0  0  0
   66.1766   32.5853   50.8545 H   0  0  0  0  0  0  0  0  0  0  0  0
   64.8468   30.6584   51.7350 H   0  0  0  0  0  0  0  0  0  0  0  0
   61.8752   31.2599   48.7372 H   0  0  0  0  0  0  0  0  0  0  0  0
   58.2419   34.4010   46.6156 H   0  0  0  0  0  0  0  0  0  0  0  0
   59.2851   34.9660   45.2580 H   0  0  0  0  0  0  0  0  0  0  0  0
   57.2985   33.8544   44.3560 H   0  0  0  0  0  0  0  0  0  0  0  0
   58.7719   32.8502   44.0354 H   0  0  0  0  0  0  0  0  0  0  0  0
   55.5267   28.6871   45.4364 H   0  0  0  0  0  0  0  0  0  0  0  0
  1  2  1  0
  2  3  1  0
  3  4  1  0
  4  5  2  0
  4  6  1  0
  6  7  1  0
  7  8  2  0
  8  9  1  0
  9 10  2  0
 10 11  1  0
 11 12  1  0
 12 13  2  0
 12 14  2  0
 12 15  1  0
 15 16  1  0
 16 17  1  0
 17 18  1  0
 18 19  1  0
 19 20  2  0
 19 21  1  0
 21 22  1  0
 22 23  1  0
 23 24  2  0
 24 25  1  0
 25 26  2  0
 26 27  1  0
 27 28  2  0
 18 29  1  0
 29 30  1  0
 11 31  2  0
 31  7  1  0
 30 15  1  0
 28 23  1  0
  1 32  1  0
  1 33  1  0
  1 34  1  0
  2 35  1  0
  2 36  1  0
  3 37  1  0
  8 38  1  0
  9 39  1  0
 10 40  1  0
 16 41  1  0
 16 42  1  0
 17 43  1  0
 17 44  1  0
 18 45  1  0
 22 46  1  0
 22 47  1  0
 24 48  1  0
 25 49  1  0
 26 50  1  0
 28 51  1  0
 29 52  1  0
 29 53  1  0
 30 54  1  0
 30 55  1  0
 31 56  1  0
M  CHG  2   6  -1  21  -1
M  END
>  <UniqueID>  (60) 
55

>  <SMILES>  (60) 
CCNC(=O)[N-]c1cccc(S(=O)(=O)N2CCC(C(=O)[N-]Cc3cccnc3)CC2)c1

>  <Energy>  (60) 
59.22540321466173

>  <Genealogy>  (60) 
CCNC(=O)[N-]c1cccc(S(=O)(=O)N2CCC(C(=O)[N-]Cc3cccnc3)CC2)c1 (protonated)
CCNC(=O)[N-]c1cccc(S(=O)(=O)N2CCC(C(=O)[N-]Cc3cccnc3)CC2)c1 (3D coordinates assigned)
CCNC(=O)[N-]c1cccc(S(=O)(=O)N2CCC(C(=O)[N-]Cc3cccnc3)CC2)c1 (nonaromatic ring conformer: 59.22540321466173 kcal/mol)

>  <smiles>  (60) 
CCNC(=O)Nc1cccc(S(=O)(=O)N2CCC(C(=O)NCc3cccnc3)CC2)c1

>  <score_type>  (60) 
oracle

>  <origin>  (60) 
adg

>  <m_score__min__energy>  (60) 
-12.4

>  <m_primary>  (60) 
energy

$$$$
60:0
     RDKit          3D

 42 44  0  0  0  0  0  0  0  0999 V2000
   61.8250   33.8020   46.5620 C   0  0  0  0  0  0  0  0  0  0  0  0
   60.6050   33.8350   45.6460 C   0  0  0  0  0  0  0  0  0  0  0  0
   59.3680   34.0190   46.4370 N   0  0  0  0  0  0  0  0  0  0  0  0
   59.0260   32.8230   47.2560 C   0  0  0  0  0  0  0  0  0  0  0  0
   57.7720   32.0630   46.7810 C   0  0  0  0  0  0  0  0  0  0  0  0
   57.6660   32.1000   45.3160 N   0  0  0  0  0  0  0  0  0  0  0  0
   57.2260   30.9480   44.5690 C   0  0  0  0  0  0  0  0  0  0  0  0
   56.5390   31.1090   43.5230 O   0  0  0  0  0  0  0  0  0  0  0  0
   57.5710   29.5690   44.9900 C   0  0  0  0  0  0  0  0  0  0  0  0
   56.5670   28.6230   45.2630 C   0  0  0  0  0  0  0  0  0  0  0  0
   55.2300   29.0030   45.1630 O   0  0  0  0  0  0  0  0  0  0  0  0
   56.8990   27.3470   45.6420 N   0  0  0  0  0  0  0  0  0  0  0  0
   55.9170   26.4240   45.8890 C   0  0  0  0  0  0  0  0  0  0  0  0
   56.2390   25.1250   46.2790 C   0  0  0  0  0  0  0  0  0  0  0  0
   57.5720   24.7590   46.4200 C   0  0  0  0  0  0  0  0  0  0  0  0
   58.5840   25.6910   46.1720 C   0  0  0  0  0  0  0  0  0  0  0  0
   60.0280   25.2990   46.3240 C   0  0  0  0  0  0  0  0  0  0  0  0
   58.2260   26.9970   45.7790 C   0  0  0  0  0  0  0  0  0  0  0  0
   59.1980   27.9150   45.5370 N   0  0  0  0  0  0  0  0  0  0  0  0
   58.9060   29.1800   45.1530 C   0  0  0  0  0  0  0  0  0  0  0  0
   59.8460   29.9890   44.9310 O   0  0  0  0  0  0  0  0  0  0  0  0
   57.7650   33.3970   44.6360 C   0  0  0  0  0  0  0  0  0  0  0  0
   58.2450   34.4910   45.6000 C   0  0  0  0  0  0  0  0  0  0  0  0
   61.4958   33.8109   47.6116 H   0  0  0  0  0  0  0  0  0  0  0  0
   62.4050   32.8878   46.3674 H   0  0  0  0  0  0  0  0  0  0  0  0
   62.4536   34.6835   46.3674 H   0  0  0  0  0  0  0  0  0  0  0  0
   60.7080   34.6687   44.9358 H   0  0  0  0  0  0  0  0  0  0  0  0
   60.5416   32.8803   45.1033 H   0  0  0  0  0  0  0  0  0  0  0  0
   59.8799   32.1302   47.2264 H   0  0  0  0  0  0  0  0  0  0  0  0
   58.8057   33.1893   48.2696 H   0  0  0  0  0  0  0  0  0  0  0  0
   57.8374   31.0160   47.1119 H   0  0  0  0  0  0  0  0  0  0  0  0
   56.8821   32.5448   47.2122 H   0  0  0  0  0  0  0  0  0  0  0  0
   54.8611   26.7117   45.7781 H   0  0  0  0  0  0  0  0  0  0  0  0
   55.4414   24.3930   46.4742 H   0  0  0  0  0  0  0  0  0  0  0  0
   57.8312   23.7350   46.7270 H   0  0  0  0  0  0  0  0  0  0  0  0
   60.2789   25.2309   47.3928 H   0  0  0  0  0  0  0  0  0  0  0  0
   60.1953   24.3229   45.8452 H   0  0  0  0  0  0  0  0  0  0  0  0
   60.6659   26.0565   45.8452 H   0  0  0  0  0  0  0  0  0  0  0  0
   58.4794   33.3127   43.8038 H   0  0  0  0  0  0  0  0  0  0  0  0
   56.7677   33.6730   44.2629 H   0  0  0  0  0  0  0  0  0  0  0  0
   58.5759   35.3624   45.0159 H   0  0  0  0  0  0  0  0  0  0  0  0
   57.4089   34.7591   46.2626 H   0  0  0  0  0  0  0  0  0  0  0  0
  1  2  1  0
  2  3  1  0
  3  4  1  0
  4  5  1  0
  5  6  1  0
  6  7  1  0
  7  8  2  0
  7  9  1  0
  9 10  2  0
 10 11  1  0
 10 12  1  0
 12 13  1  0
 13 14  2  0
 14 15  1  0
 15 16  2  0
 16 17  1  0
 16 18  1  0
 18 19  2  0
 19 20  1  0
 20 21  2  0
  6 22  1  0
 22 23  1  0
 23  3  1  0
 20  9  1  0
 18 12  1  0
  1 24  1  0
  1 25  1  0
  1 26  1  0
  2 27  1  0
  2 28  1  0
  4 29  1  0
  4 30  1  0
  5 31  1  0
  5 32  1  0
 13 33  1  0
 14 34  1  0
 15 35  1  0
 17 36  1  0
 17 37  1  0
 17 38  1  0
 22 39  1  0
 22 40  1  0
 23 41  1  0
 23 42  1  0
M  CHG  1  11  -1
M  END
>  <UniqueID>  (61) 
56

>  <SMILES>  (61) 
CCN1CCN(C(=O)c2c([O-])n3cccc(C)c3nc2=O)CC1

>  <Energy>  (61) 
61.53056112011501

>  <Genealogy>  (61) 
CCN1CCN(C(=O)c2c([O-])n3cccc(C)c3nc2=O)CC1 (protonated)
CCN1CCN(C(=O)c2c([O-])n3cccc(C)c3nc2=O)CC1 (3D coordinates assigned)
CCN1CCN(C(=O)c2c([O-])n3cccc(C)c3nc2=O)CC1 (nonaromatic ring conformer: 61.53056112011501 kcal/mol)

>  <smiles>  (61) 
CCN1CCN(C(=O)c2c(O)n3cccc(C)c3nc2=O)CC1

>  <score_type>  (61) 
oracle

>  <origin>  (61) 
adg

>  <m_score__min__energy>  (61) 
-10.529999999999999

>  <m_primary>  (61) 
energy

$$$$
61:0
     RDKit          3D

 46 48  0  0  0  0  0  0  0  0999 V2000
   61.1020   31.0680   47.6230 C   0  0  0  0  0  0  0  0  0  0  0  0
   59.6900   31.1620   47.4670 O   0  0  0  0  0  0  0  0  0  0  0  0
   59.0430   32.1050   46.6550 C   0  0  0  0  0  0  0  0  0  0  0  0
   58.5350   33.3160   47.1600 C   0  0  0  0  0  0  0  0  0  0  0  0
   57.8800   34.2130   46.3120 C   0  0  0  0  0  0  0  0  0  0  0  0
   57.7470   33.9250   44.9520 C   0  0  0  0  0  0  0  0  0  0  0  0
   58.2740   32.7350   44.4290 C   0  0  0  0  0  0  0  0  0  0  0  0
   58.1600   32.4220   42.9640 C   0  0  0  0  0  0  0  0  0  0  0  0
   57.0170   31.5500   42.7310 N   0  0  0  0  0  0  0  0  0  0  0  0
   56.4130   30.7500   43.7510 C   0  0  0  0  0  0  0  0  0  0  0  0
   55.4580   31.2020   44.4380 O   0  0  0  0  0  0  0  0  0  0  0  0
   56.9170   29.3570   43.9840 C   0  0  0  0  0  0  0  0  0  0  0  0
   56.9090   28.9650   45.4680 C   0  0  0  0  0  0  0  0  0  0  0  0
   57.7420   27.7390   45.7530 C   0  0  0  0  0  0  0  0  0  0  0  0
   59.1350   27.6550   45.8020 C   0  0  0  0  0  0  0  0  0  0  0  0
   60.0280   28.7060   45.5930 O   0  0  0  0  0  0  0  0  0  0  0  0
   59.5380   26.4000   46.1000 N   0  0  0  0  0  0  0  0  0  0  0  0
   60.9090   25.9800   46.3840 C   0  0  0  0  0  0  0  0  0  0  0  0
   58.4110   25.6750   46.2520 C   0  0  0  0  0  0  0  0  0  0  0  0
   58.3030   24.3240   46.6010 C   0  0  0  0  0  0  0  0  0  0  0  0
   57.0170   23.7700   46.7150 C   0  0  0  0  0  0  0  0  0  0  0  0
   55.8730   24.5660   46.5010 C   0  0  0  0  0  0  0  0  0  0  0  0
   56.0030   25.9260   46.1690 C   0  0  0  0  0  0  0  0  0  0  0  0
   54.8700   26.7100   45.9920 O   0  0  0  0  0  0  0  0  0  0  0  0
   57.2930   26.4550   46.0400 C   0  0  0  0  0  0  0  0  0  0  0  0
   58.9060   31.8230   45.2900 C   0  0  0  0  0  0  0  0  0  0  0  0
   61.3523   31.0513   48.6940 H   0  0  0  0  0  0  0  0  0  0  0  0
   61.4627   30.1439   47.1478 H   0  0  0  0  0  0  0  0  0  0  0  0
   61.5820   31.9362   47.1478 H   0  0  0  0  0  0  0  0  0  0  0  0
   58.6539   33.5576   48.2265 H   0  0  0  0  0  0  0  0  0  0  0  0
   57.4678   35.1490   46.7170 H   0  0  0  0  0  0  0  0  0  0  0  0
   57.2277   34.6330   44.2894 H   0  0  0  0  0  0  0  0  0  0  0  0
   58.0262   33.3572   42.4005 H   0  0  0  0  0  0  0  0  0  0  0  0
   59.0769   31.9145   42.6297 H   0  0  0  0  0  0  0  0  0  0  0  0
   56.2769   28.6540   43.4308 H   0  0  0  0  0  0  0  0  0  0  0  0
   57.9596   29.3181   43.6356 H   0  0  0  0  0  0  0  0  0  0  0  0
   57.3074   29.8052   46.0557 H   0  0  0  0  0  0  0  0  0  0  0  0
   55.8700   28.7312   45.7434 H   0  0  0  0  0  0  0  0  0  0  0  0
   59.9430   29.5920   46.0730 H   0  0  0  0  0  0  0  0  0  0  0  0
   61.0602   25.9337   47.4726 H   0  0  0  0  0  0  0  0  0  0  0  0
   61.0862   24.9864   45.9466 H   0  0  0  0  0  0  0  0  0  0  0  0
   61.6123   26.7039   45.9466 H   0  0  0  0  0  0  0  0  0  0  0  0
   59.1999   23.7131   46.7810 H   0  0  0  0  0  0  0  0  0  0  0  0
   56.9017   22.7070   46.9732 H   0  0  0  0  0  0  0  0  0  0  0  0
   54.8719   24.1199   46.5944 H   0  0  0  0  0  0  0  0  0  0  0  0
   59.2976   30.8770   44.8879 H   0  0  0  0  0  0  0  0  0  0  0  0
  1  2  1  0
  2  3  1  0
  3  4  2  0
  4  5  1  0
  5  6  2  0
  6  7  1  0
  7  8  1  0
  8  9  1  0
  9 10  1  0
 10 11  2  0
 10 12  1  0
 12 13  1  0
 13 14  1  0
 14 15  2  0
 15 16  1  0
 15 17  1  0
 17 18  1  0
 17 19  1  0
 19 20  2  0
 20 21  1  0
 21 22  2  0
 22 23  1  0
 23 24  1  0
 23 25  2  0
  7 26  2  0
 26  3  1  0
 25 14  1  0
 25 19  1  0
  1 27  1  0
  1 28  1  0
  1 29  1  0
  4 30  1  0
  5 31  1  0
  6 32  1  0
  8 33  1  0
  8 34  1  0
 12 35  1  0
 12 36  1  0
 13 37  1  0
 13 38  1  0
 16 39  1  0
 18 40  1  0
 18 41  1  0
 18 42  1  0
 20 43  1  0
 21 44  1  0
 22 45  1  0
 26 46  1  0
M  CHG  2   9  -1  24  -1
M  END
>  <UniqueID>  (62) 
57

>  <SMILES>  (62) 
COc1cccc(C[N-]C(=O)CCc2c(O)n(C)c3cccc([O-])c23)c1

>  <Energy>  (62) 
71.37349818596594

>  <Genealogy>  (62) 
COc1cccc(C[N-]C(=O)CCc2c(O)n(C)c3cccc([O-])c23)c1 (protonated)
COc1cccc(C[N-]C(=O)CCc2c(O)n(C)c3cccc([O-])c23)c1 (3D coordinates assigned)
COc1cccc(C[N-]C(=O)CCc2c(O)n(C)c3cccc([O-])c23)c1 (optimized conformer: 71.37349818596594 kcal/mol)

>  <smiles>  (62) 
COc1cccc(CNC(=O)CCc2c(O)n(C)c3cccc(O)c23)c1

>  <score_type>  (62) 
oracle

>  <origin>  (62) 
adg

>  <m_score__min__energy>  (62) 
-13.26

>  <m_primary>  (62) 
energy

$$$$
62:0
     RDKit          3D

 48 51  0  0  0  0  0  0  0  0999 V2000
   58.8940   27.8310   46.8420 C   0  0  0  0  0  0  0  0  0  0  0  0
   58.5330   28.3130   45.6420 C   0  0  0  0  0  0  0  0  0  0  0  0
   57.8640   27.6220   44.6190 C   0  0  0  0  0  0  0  0  0  0  0  0
   57.6110   26.3090   44.4570 C   0  0  0  0  0  0  0  0  0  0  0  0
   57.1410   25.3940   45.5110 C   0  0  0  0  0  0  0  0  0  0  0  0
   57.7770   24.2660   45.8800 N   0  0  0  0  0  0  0  0  0  0  0  0
   56.9220   23.6980   46.7580 C   0  0  0  0  0  0  0  0  0  0  0  0
   57.1750   22.6140   47.3440 O   0  0  0  0  0  0  0  0  0  0  0  0
   55.7740   24.3810   46.9520 N   0  0  0  0  0  0  0  0  0  0  0  0
   55.9190   25.4440   46.1460 C   0  0  0  0  0  0  0  0  0  0  0  0
   54.9520   26.4350   46.0010 O   0  0  0  0  0  0  0  0  0  0  0  0
   57.4700   28.5790   43.6980 C   0  0  0  0  0  0  0  0  0  0  0  0
   57.9690   29.7880   44.1390 C   0  0  0  0  0  0  0  0  0  0  0  0
   57.7840   31.0940   43.4300 C   0  0  0  0  0  0  0  0  0  0  0  0
   58.6140   29.6290   45.3160 N   0  0  0  0  0  0  0  0  0  0  0  0
   59.2170   30.6800   46.0920 C   0  0  0  0  0  0  0  0  0  0  0  0
   58.4410   31.7600   46.5380 C   0  0  0  0  0  0  0  0  0  0  0  0
   59.0220   32.7830   47.2910 C   0  0  0  0  0  0  0  0  0  0  0  0
   60.3860   32.7340   47.6190 C   0  0  0  0  0  0  0  0  0  0  0  0
   61.0130   33.8200   48.3980 C   0  0  0  0  0  0  0  0  0  0  0  0
   60.4710   34.9590   48.3970 O   0  0  0  0  0  0  0  0  0  0  0  0
   62.2250   33.6110   49.1450 N   0  0  0  0  0  0  0  0  0  0  0  0
   63.5490   33.5730   48.5430 C   0  0  0  0  0  0  0  0  0  0  0  0
   64.5240   33.4150   49.7030 C   0  0  0  0  0  0  0  0  0  0  0  0
   63.7490   33.8270   50.9530 C   0  0  0  0  0  0  0  0  0  0  0  0
   64.0320   35.1470   51.2650 F   0  0  0  0  0  0  0  0  0  0  0  0
   64.0810   33.0200   52.0290 F   0  0  0  0  0  0  0  0  0  0  0  0
   62.2730   33.6820   50.5960 C   0  0  0  0  0  0  0  0  0  0  0  0
   61.1670   31.6640   47.1520 C   0  0  0  0  0  0  0  0  0  0  0  0
   60.5850   30.6400   46.3990 C   0  0  0  0  0  0  0  0  0  0  0  0
   61.3560   29.6150   45.9560 F   0  0  0  0  0  0  0  0  0  0  0  0
   59.4172   28.4792   47.5603 H   0  0  0  0  0  0  0  0  0  0  0  0
   58.6665   26.7879   47.1068 H   0  0  0  0  0  0  0  0  0  0  0  0
   57.7685   25.8849   43.4543 H   0  0  0  0  0  0  0  0  0  0  0  0
   54.3650   26.7160   46.7760 H   0  0  0  0  0  0  0  0  0  0  0  0
   56.8738   28.4081   42.7895 H   0  0  0  0  0  0  0  0  0  0  0  0
   57.6698   31.8999   44.1699 H   0  0  0  0  0  0  0  0  0  0  0  0
   58.6624   31.2967   42.7997 H   0  0  0  0  0  0  0  0  0  0  0  0
   56.8839   31.0447   42.7997 H   0  0  0  0  0  0  0  0  0  0  0  0
   57.3693   31.8016   46.2935 H   0  0  0  0  0  0  0  0  0  0  0  0
   58.4079   33.6309   47.6285 H   0  0  0  0  0  0  0  0  0  0  0  0
   63.6324   32.7205   47.8529 H   0  0  0  0  0  0  0  0  0  0  0  0
   63.7561   34.4819   47.9591 H   0  0  0  0  0  0  0  0  0  0  0  0
   64.8565   32.3697   49.7850 H   0  0  0  0  0  0  0  0  0  0  0  0
   65.4251   34.0301   49.5627 H   0  0  0  0  0  0  0  0  0  0  0  0
   61.8596   32.7639   51.0389 H   0  0  0  0  0  0  0  0  0  0  0  0
   61.6773   34.5226   50.9815 H   0  0  0  0  0  0  0  0  0  0  0  0
   62.2426   31.6316   47.3801 H   0  0  0  0  0  0  0  0  0  0  0  0
  1  2  2  0
  2  3  1  0
  3  4  2  3
  4  5  1  0
  5  6  1  0
  6  7  1  0
  7  8  2  0
  7  9  1  0
  9 10  1  0
 10 11  1  0
  3 12  1  0
 12 13  2  0
 13 14  1  0
 13 15  1  0
 15 16  1  0
 16 17  2  0
 17 18  1  0
 18 19  2  0
 19 20  1  0
 20 21  2  0
 20 22  1  0
 22 23  1  0
 23 24  1  0
 24 25  1  0
 25 26  1  0
 25 27  1  0
 25 28  1  0
 19 29  1  0
 29 30  2  0
 30 31  1  0
 15  2  1  0
 30 16  1  0
 10  5  2  0
 28 22  1  0
  1 32  1  0
  1 33  1  0
  4 34  1  0
 11 35  1  0
 12 36  1  0
 14 37  1  0
 14 38  1  0
 14 39  1  0
 17 40  1  0
 18 41  1  0
 23 42  1  0
 23 43  1  0
 24 44  1  0
 24 45  1  0
 28 46  1  0
 28 47  1  0
 29 48  1  0
M  CHG  2   6  -1   9  -1
M  END
>  <UniqueID>  (63) 
58

>  <SMILES>  (63) 
C=c1c(=Cc2[n-]c(=O)[n-]c2O)cc(C)n1-c1ccc(C(=O)N2CCC(F)(F)C2)cc1F

>  <Energy>  (63) 
130.63606425326714

>  <Genealogy>  (63) 
C=c1c(=Cc2[n-]c(=O)[n-]c2O)cc(C)n1-c1ccc(C(=O)N2CCC(F)(F)C2)cc1F (protonated)
C=c1c(=Cc2[n-]c(=O)[n-]c2O)cc(C)n1-c1ccc(C(=O)N2CCC(F)(F)C2)cc1F (3D coordinates assigned)
C=c1c(=Cc2[n-]c(=O)[n-]c2O)cc(C)n1-c1ccc(C(=O)N2CCC(F)(F)C2)cc1F (nonaromatic ring conformer: 130.63606425326714 kcal/mol)

>  <smiles>  (63) 
C=c1c(=Cc2[nH]c(=O)[nH]c2O)cc(C)n1-c1ccc(C(=O)N2CCC(F)(F)C2)cc1F

>  <score_type>  (63) 
oracle

>  <origin>  (63) 
adg

>  <m_score__min__energy>  (63) 
-12.93

>  <m_primary>  (63) 
energy

$$$$
63:0
     RDKit          3D

 62 66  0  0  0  0  0  0  0  0999 V2000
   58.2924   25.2571   48.9550 H   0  0  0  0  0  0  0  0  0  0  0  0
   58.0050   25.2970   47.8940 C   0  0  0  0  0  0  0  0  0  0  0  0
   57.2359   24.6127   47.5064 H   0  0  0  0  0  0  0  0  0  0  0  0
   58.5930   26.1810   47.0720 C   0  0  0  0  0  0  0  0  0  0  0  0
   58.3450   26.3630   45.6990 C   0  0  0  0  0  0  0  0  0  0  0  0
   57.6330   25.6240   44.8240 C   0  0  0  0  0  0  0  0  0  0  0  0
   58.0832   25.4360   43.8381 H   0  0  0  0  0  0  0  0  0  0  0  0
   56.3040   25.0490   45.0800 C   0  0  0  0  0  0  0  0  0  0  0  0
   56.0160   23.7450   44.9310 N   0  0  0  0  0  0  0  0  0  0  0  0
   54.7390   23.6560   45.3650 C   0  0  0  0  0  0  0  0  0  0  0  0
   54.0970   22.5740   45.3640 O   0  0  0  0  0  0  0  0  0  0  0  0
   54.2100   24.8150   45.8100 N   0  0  0  0  0  0  0  0  0  0  0  0
   55.2180   25.6840   45.6360 C   0  0  0  0  0  0  0  0  0  0  0  0
   55.1520   27.0220   45.9980 O   0  0  0  0  0  0  0  0  0  0  0  0
   59.0570   27.5130   45.3730 C   0  0  0  0  0  0  0  0  0  0  0  0
   59.1710   28.1490   44.0210 C   0  0  0  0  0  0  0  0  0  0  0  0
   59.3640   29.2257   44.1374 H   0  0  0  0  0  0  0  0  0  0  0  0
   60.0004   27.6856   43.4666 H   0  0  0  0  0  0  0  0  0  0  0  0
   58.2323   28.0026   43.4666 H   0  0  0  0  0  0  0  0  0  0  0  0
   59.7350   27.9370   46.4530 N   0  0  0  0  0  0  0  0  0  0  0  0
   60.3870   28.7530   46.4910 H   0  0  0  0  0  0  0  0  0  0  0  0
   59.4620   27.1470   47.4780 N   0  0  0  0  0  0  0  0  0  0  0  0
   60.0800   27.3290   48.7970 C   0  0  0  0  0  0  0  0  0  0  0  0
   59.5714   26.6818   49.5267 H   0  0  0  0  0  0  0  0  0  0  0  0
   61.1451   27.0628   48.7288 H   0  0  0  0  0  0  0  0  0  0  0  0
   59.9660   28.7640   49.2440 C   0  0  0  0  0  0  0  0  0  0  0  0
   58.7120   29.3200   49.5480 C   0  0  0  0  0  0  0  0  0  0  0  0
   57.8070   28.6992   49.4735 H   0  0  0  0  0  0  0  0  0  0  0  0
   58.6060   30.6550   49.9440 C   0  0  0  0  0  0  0  0  0  0  0  0
   57.6218   31.0699   50.2070 H   0  0  0  0  0  0  0  0  0  0  0  0
   59.7470   31.4720   50.0090 C   0  0  0  0  0  0  0  0  0  0  0  0
   59.6430   32.8980   50.4110 C   0  0  0  0  0  0  0  0  0  0  0  0
   59.8340   33.2130   51.6150 O   0  0  0  0  0  0  0  0  0  0  0  0
   59.2740   33.9320   49.4830 N   0  0  0  0  0  0  0  0  0  0  0  0
   59.3590   33.8690   48.1860 C   0  0  0  0  0  0  0  0  0  0  0  0
   59.8360   34.9200   47.4580 N   0  0  0  0  0  0  0  0  0  0  0  0
   59.9320   34.8720   46.1050 C   0  0  0  0  0  0  0  0  0  0  0  0
   60.3225   35.7385   45.5512 H   0  0  0  0  0  0  0  0  0  0  0  0
   59.5360   33.7250   45.4150 C   0  0  0  0  0  0  0  0  0  0  0  0
   59.6126   33.6838   44.3184 H   0  0  0  0  0  0  0  0  0  0  0  0
   59.0400   32.6260   46.1300 C   0  0  0  0  0  0  0  0  0  0  0  0
   58.5830   31.4100   45.4270 C   0  0  0  0  0  0  0  0  0  0  0  0
   58.8400   30.2830   45.9300 O   0  0  0  0  0  0  0  0  0  0  0  0
   57.8660   31.4830   44.1820 N   0  0  0  0  0  0  0  0  0  0  0  0
   57.1720   30.3410   43.6120 C   0  0  0  0  0  0  0  0  0  0  0  0
   57.8692   29.5033   43.4632 H   0  0  0  0  0  0  0  0  0  0  0  0
   56.3713   29.9799   44.2741 H   0  0  0  0  0  0  0  0  0  0  0  0
   56.6240   30.8190   42.2760 C   0  0  0  0  0  0  0  0  0  0  0  0
   56.7557   30.0434   41.5072 H   0  0  0  0  0  0  0  0  0  0  0  0
   55.5472   31.0366   42.3320 H   0  0  0  0  0  0  0  0  0  0  0  0
   57.4340   32.0630   41.9220 C   0  0  0  0  0  0  0  0  0  0  0  0
   58.2614   31.8026   41.2455 H   0  0  0  0  0  0  0  0  0  0  0  0
   56.8196   32.8147   41.4048 H   0  0  0  0  0  0  0  0  0  0  0  0
   57.9750   32.5910   43.2450 C   0  0  0  0  0  0  0  0  0  0  0  0
   59.0253   32.8990   43.1349 H   0  0  0  0  0  0  0  0  0  0  0  0
   57.4159   33.4730   43.5906 H   0  0  0  0  0  0  0  0  0  0  0  0
   58.9320   32.7110   47.5270 C   0  0  0  0  0  0  0  0  0  0  0  0
   58.5136   31.8711   48.1010 H   0  0  0  0  0  0  0  0  0  0  0  0
   61.0020   30.9140   49.7150 C   0  0  0  0  0  0  0  0  0  0  0  0
   61.9064   31.5362   49.7857 H   0  0  0  0  0  0  0  0  0  0  0  0
   61.1100   29.5730   49.3330 C   0  0  0  0  0  0  0  0  0  0  0  0
   62.0981   29.1492   49.1007 H   0  0  0  0  0  0  0  0  0  0  0  0
  1  2  1  0
  2  3  1  0
  2  4  2  0
  4  5  1  0
  5  6  2  0
  6  7  1  0
  6  8  1  0
  8  9  1  0
  9 10  1  0
 10 11  2  0
 10 12  1  0
 12 13  1  0
 13 14  1  0
  5 15  1  0
 15 16  1  0
 16 17  1  0
 16 18  1  0
 16 19  1  0
 15 20  2  0
 20 21  1  0
 20 22  1  0
 22 23  1  0
 23 24  1  0
 23 25  1  0
 23 26  1  0
 26 27  2  0
 27 28  1  0
 27 29  1  0
 29 30  1  0
 29 31  2  0
 31 32  1  0
 32 33  2  0
 32 34  1  0
 34 35  2  3
 35 36  1  0
 36 37  1  0
 37 38  1  0
 37 39  2  0
 39 40  1  0
 39 41  1  0
 41 42  1  0
 42 43  2  0
 42 44  1  0
 44 45  1  0
 45 46  1  0
 45 47  1  0
 45 48  1  0
 48 49  1  0
 48 50  1  0
 48 51  1  0
 51 52  1  0
 51 53  1  0
 51 54  1  0
 54 55  1  0
 54 56  1  0
 41 57  2  0
 57 58  1  0
 31 59  1  0
 59 60  1  0
 59 61  2  0
 61 62  1  0
 22  4  1  0
 61 26  1  0
 13  8  2  0
 57 35  1  0
 54 44  1  0
M  CHG  5   9  -1  12  -1  14  -1  20   1  36  -1
M  END
>  <UniqueID>  (64) 
59

>  <SMILES>  (64) 
C=c1/c(=C\c2[n-]c(=O)[n-]c2[O-])c(C)[nH+]n1Cc1ccc(C(=O)N=c2cc(C(=O)N3CCCC3)cc[n-]2)cc1

>  <Energy>  (64) 
153.6972158248125

>  <Genealogy>  (64) 
C=c1c(=Cc2[n-]c(=O)[n-]c2[O-])c(C)[nH+]n1Cc1ccc(C(=O)N=c2cc(C(=O)N3CCCC3)cc[n-]2)cc1 (protonated)
C=c1/c(=C\c2[n-]c(=O)[n-]c2[O-])c(C)[nH+]n1Cc1ccc(C(=O)N=c2cc(C(=O)N3CCCC3)cc[n-]2)cc1 (cis-trans isomerization)
C=c1/c(=C\c2[n-]c(=O)[n-]c2[O-])c(C)[nH+]n1Cc1ccc(C(=O)N=c2cc(C(=O)N3CCCC3)cc[n-]2)cc1 (3D coordinates assigned)
C=c1/c(=C\c2[n-]c(=O)[n-]c2[O-])c(C)[nH+]n1Cc1ccc(C(=O)N=c2cc(C(=O)N3CCCC3)cc[n-]2)cc1 (nonaromatic ring conformer: 153.6972158248125 kcal/mol)

>  <smiles>  (64) 
C=c1c(=Cc2[nH]c(=O)[nH]c2O)c(C)nn1Cc1ccc(C(=O)N=c2cc(C(=O)N3CCCC3)cc[nH]2)cc1

>  <score_type>  (64) 
oracle

>  <origin>  (64) 
adg

>  <m_score__min__energy>  (64) 
-19.780000000000001

>  <m_primary>  (64) 
energy

$$$$
64:0
     RDKit          3D

 43 45  0  0  0  0  0  0  0  0999 V2000
   58.6560   29.0050   47.3090 C   0  0  0  0  0  0  0  0  0  0  0  0
   58.2740   29.6650   46.2040 C   0  0  0  0  0  0  0  0  0  0  0  0
   57.5220   29.1680   45.1250 C   0  0  0  0  0  0  0  0  0  0  0  0
   57.0800   27.9250   44.8460 C   0  0  0  0  0  0  0  0  0  0  0  0
   57.1800   26.7560   45.7410 C   0  0  0  0  0  0  0  0  0  0  0  0
   56.0230   26.1710   46.2730 C   0  0  0  0  0  0  0  0  0  0  0  0
   54.7700   26.7140   46.0090 O   0  0  0  0  0  0  0  0  0  0  0  0
   56.1210   25.0690   47.0620 N   0  0  0  0  0  0  0  0  0  0  0  0
   57.3260   24.5080   47.3340 C   0  0  0  0  0  0  0  0  0  0  0  0
   57.3940   23.4900   48.0710 O   0  0  0  0  0  0  0  0  0  0  0  0
   58.4600   25.0410   46.8090 N   0  0  0  0  0  0  0  0  0  0  0  0
   58.4140   26.1410   46.0140 C   0  0  0  0  0  0  0  0  0  0  0  0
   59.4830   26.5990   45.5280 O   0  0  0  0  0  0  0  0  0  0  0  0
   57.2890   30.2450   44.2860 C   0  0  0  0  0  0  0  0  0  0  0  0
   57.9210   31.3350   44.8460 C   0  0  0  0  0  0  0  0  0  0  0  0
   57.9460   32.7090   44.2470 C   0  0  0  0  0  0  0  0  0  0  0  0
   58.5260   30.9850   46.0010 N   0  0  0  0  0  0  0  0  0  0  0  0
   59.2420   31.8820   46.8690 C   0  0  0  0  0  0  0  0  0  0  0  0
   58.5560   32.5930   47.8590 C   0  0  0  0  0  0  0  0  0  0  0  0
   59.2510   33.4530   48.7100 C   0  0  0  0  0  0  0  0  0  0  0  0
   60.6330   33.6080   48.5780 C   0  0  0  0  0  0  0  0  0  0  0  0
   61.3490   32.8970   47.5920 C   0  0  0  0  0  0  0  0  0  0  0  0
   62.7860   33.0520   47.4550 N   0  0  0  0  0  0  0  0  0  0  0  0
   63.6990   32.4290   48.4220 C   0  0  0  0  0  0  0  0  0  0  0  0
   63.3520   33.8370   46.3510 C   0  0  0  0  0  0  0  0  0  0  0  0
   60.6310   32.0290   46.7410 C   0  0  0  0  0  0  0  0  0  0  0  0
   59.2468   29.5202   48.0807 H   0  0  0  0  0  0  0  0  0  0  0  0
   58.3781   27.9491   47.4426 H   0  0  0  0  0  0  0  0  0  0  0  0
   56.6038   27.7689   43.8668 H   0  0  0  0  0  0  0  0  0  0  0  0
   56.7099   30.2331   43.3508 H   0  0  0  0  0  0  0  0  0  0  0  0
   57.9597   33.4594   45.0512 H   0  0  0  0  0  0  0  0  0  0  0  0
   58.8463   32.8216   43.6251 H   0  0  0  0  0  0  0  0  0  0  0  0
   57.0503   32.8542   43.6251 H   0  0  0  0  0  0  0  0  0  0  0  0
   57.4678   32.4741   47.9668 H   0  0  0  0  0  0  0  0  0  0  0  0
   58.7087   34.0109   49.4876 H   0  0  0  0  0  0  0  0  0  0  0  0
   61.1696   34.2928   49.2511 H   0  0  0  0  0  0  0  0  0  0  0  0
   63.3629   32.6584   49.4440 H   0  0  0  0  0  0  0  0  0  0  0  0
   63.7028   31.3391   48.2732 H   0  0  0  0  0  0  0  0  0  0  0  0
   64.7152   32.8229   48.2732 H   0  0  0  0  0  0  0  0  0  0  0  0
   63.9495   34.6656   46.7589 H   0  0  0  0  0  0  0  0  0  0  0  0
   63.9938   33.1915   45.7335 H   0  0  0  0  0  0  0  0  0  0  0  0
   62.5368   34.2420   45.7335 H   0  0  0  0  0  0  0  0  0  0  0  0
   61.1680   31.4605   45.9674 H   0  0  0  0  0  0  0  0  0  0  0  0
  1  2  2  0
  2  3  1  0
  3  4  2  3
  4  5  1  0
  5  6  2  0
  6  7  1  0
  6  8  1  0
  8  9  1  0
  9 10  2  0
  9 11  1  0
 11 12  1  0
 12 13  2  0
  3 14  1  0
 14 15  2  0
 15 16  1  0
 15 17  1  0
 17 18  1  0
 18 19  2  0
 19 20  1  0
 20 21  2  0
 21 22  1  0
 22 23  1  0
 23 24  1  0
 23 25  1  0
 22 26  2  0
 17  2  1  0
 26 18  1  0
 12  5  1  0
  1 27  1  0
  1 28  1  0
  4 29  1  0
 14 30  1  0
 16 31  1  0
 16 32  1  0
 16 33  1  0
 19 34  1  0
 20 35  1  0
 21 36  1  0
 24 37  1  0
 24 38  1  0
 24 39  1  0
 25 40  1  0
 25 41  1  0
 25 42  1  0
 26 43  1  0
M  CHG  3   7  -1   8  -1  11  -1
M  END
>  <UniqueID>  (65) 
60

>  <SMILES>  (65) 
C=c1c(=Cc2c([O-])[n-]c(=O)[n-]c2=O)cc(C)n1-c1cccc(N(C)C)c1

>  <Energy>  (65) 
95.8992322127558

>  <Genealogy>  (65) 
C=c1c(=Cc2c([O-])[n-]c(=O)[n-]c2=O)cc(C)n1-c1cccc(N(C)C)c1 (protonated)
C=c1c(=Cc2c([O-])[n-]c(=O)[n-]c2=O)cc(C)n1-c1cccc(N(C)C)c1 (3D coordinates assigned)
C=c1c(=Cc2c([O-])[n-]c(=O)[n-]c2=O)cc(C)n1-c1cccc(N(C)C)c1 (optimized conformer: 95.8992322127558 kcal/mol)

>  <smiles>  (65) 
C=c1c(=Cc2c(O)[nH]c(=O)[nH]c2=O)cc(C)n1-c1cccc(N(C)C)c1

>  <score_type>  (65) 
oracle

>  <origin>  (65) 
adg

>  <m_score__min__energy>  (65) 
-15.76

>  <m_primary>  (65) 
energy

$$$$
65:0
     RDKit          3D

 55 58  0  0  0  0  0  0  0  0999 V2000
   54.0180   26.3370   46.4130 H   0  0  0  0  0  0  0  0  0  0  0  0
   54.1840   25.7270   45.6210 O   0  0  0  0  0  0  0  0  0  0  0  0
   53.8170   24.3840   45.6640 C   0  0  0  0  0  0  0  0  0  0  0  0
   52.5000   24.0460   45.6890 N   0  0  0  0  0  0  0  0  0  0  0  0
   52.1100   22.7470   45.7060 C   0  0  0  0  0  0  0  0  0  0  0  0
   50.8850   22.4590   45.7340 O   0  0  0  0  0  0  0  0  0  0  0  0
   53.0390   21.7570   45.6870 N   0  0  0  0  0  0  0  0  0  0  0  0
   54.3670   22.0410   45.6630 C   0  0  0  0  0  0  0  0  0  0  0  0
   55.2010   21.0980   45.6360 O   0  0  0  0  0  0  0  0  0  0  0  0
   54.7970   23.3770   45.6760 C   0  0  0  0  0  0  0  0  0  0  0  0
   56.2340   23.7060   45.6070 C   0  0  0  0  0  0  0  0  0  0  0  0
   56.9384   22.9737   46.0282 H   0  0  0  0  0  0  0  0  0  0  0  0
   56.7570   24.8270   45.0720 C   0  0  0  0  0  0  0  0  0  0  0  0
   57.2310   24.8840   43.7700 C   0  0  0  0  0  0  0  0  0  0  0  0
   57.2866   24.0489   43.0562 H   0  0  0  0  0  0  0  0  0  0  0  0
   57.6190   26.1860   43.5410 C   0  0  0  0  0  0  0  0  0  0  0  0
   58.1650   26.7020   42.2450 C   0  0  0  0  0  0  0  0  0  0  0  0
   58.9508   27.4446   42.4479 H   0  0  0  0  0  0  0  0  0  0  0  0
   58.5895   25.8674   41.6677 H   0  0  0  0  0  0  0  0  0  0  0  0
   57.3557   27.1729   41.6677 H   0  0  0  0  0  0  0  0  0  0  0  0
   57.4430   26.9310   44.6550 N   0  0  0  0  0  0  0  0  0  0  0  0
   57.7520   28.3280   44.7850 C   0  0  0  0  0  0  0  0  0  0  0  0
   59.0890   28.7470   44.8000 C   0  0  0  0  0  0  0  0  0  0  0  0
   59.8961   28.0054   44.7066 H   0  0  0  0  0  0  0  0  0  0  0  0
   59.4020   30.1020   44.9330 C   0  0  0  0  0  0  0  0  0  0  0  0
   60.4547   30.4204   44.9540 H   0  0  0  0  0  0  0  0  0  0  0  0
   58.3810   31.0600   45.0400 C   0  0  0  0  0  0  0  0  0  0  0  0
   58.7060   32.4950   45.1950 C   0  0  0  0  0  0  0  0  0  0  0  0
   58.8900   33.1960   44.1630 O   0  0  0  0  0  0  0  0  0  0  0  0
   58.8340   33.1000   46.4970 N   0  0  0  0  0  0  0  0  0  0  0  0
   59.5170   32.3840   47.5820 C   0  0  0  0  0  0  0  0  0  0  0  0
   58.7903   31.7471   48.1077 H   0  0  0  0  0  0  0  0  0  0  0  0
   60.3204   31.7699   47.1492 H   0  0  0  0  0  0  0  0  0  0  0  0
   60.1370   33.3750   48.5830 C   0  0  0  0  0  0  0  0  0  0  0  0
   59.3538   33.7185   49.2747 H   0  0  0  0  0  0  0  0  0  0  0  0
   60.9426   32.8554   49.1225 H   0  0  0  0  0  0  0  0  0  0  0  0
   60.7240   34.5500   47.9040 N   0  0  0  0  0  0  0  0  0  0  0  0
   61.9260   34.1910   47.1300 C   0  0  0  0  0  0  0  0  0  0  0  0
   62.7468   33.9459   47.8201 H   0  0  0  0  0  0  0  0  0  0  0  0
   61.7071   33.3190   46.4962 H   0  0  0  0  0  0  0  0  0  0  0  0
   62.2211   35.0402   46.4962 H   0  0  0  0  0  0  0  0  0  0  0  0
   59.7460   35.3130   47.0830 C   0  0  0  0  0  0  0  0  0  0  0  0
   59.4285   36.1969   47.6556 H   0  0  0  0  0  0  0  0  0  0  0  0
   60.2554   35.5774   46.1446 H   0  0  0  0  0  0  0  0  0  0  0  0
   58.4910   34.5090   46.6980 C   0  0  0  0  0  0  0  0  0  0  0  0
   57.7464   34.5902   47.5036 H   0  0  0  0  0  0  0  0  0  0  0  0
   58.0785   34.9145   45.7624 H   0  0  0  0  0  0  0  0  0  0  0  0
   57.0420   30.6370   45.0350 C   0  0  0  0  0  0  0  0  0  0  0  0
   56.2350   31.3772   45.1395 H   0  0  0  0  0  0  0  0  0  0  0  0
   56.7270   29.2800   44.8980 C   0  0  0  0  0  0  0  0  0  0  0  0
   55.3940   28.8850   44.8640 O   0  0  0  0  0  0  0  0  0  0  0  0
   56.9330   26.1140   45.6110 C   0  0  0  0  0  0  0  0  0  0  0  0
   56.7530   26.5000   46.8840 C   0  0  0  0  0  0  0  0  0  0  0  0
   56.9280   27.5474   47.1711 H   0  0  0  0  0  0  0  0  0  0  0  0
   56.4305   25.7690   47.6400 H   0  0  0  0  0  0  0  0  0  0  0  0
  1  2  1  0
  2  3  1  0
  3  4  1  0
  4  5  1  0
  5  6  2  0
  5  7  1  0
  7  8  1  0
  8  9  2  0
  8 10  1  0
 10 11  1  0
 11 12  1  0
 11 13  2  0
 13 14  1  0
 14 15  1  0
 14 16  2  0
 16 17  1  0
 17 18  1  0
 17 19  1  0
 17 20  1  0
 16 21  1  0
 21 22  1  0
 22 23  2  0
 23 24  1  0
 23 25  1  0
 25 26  1  0
 25 27  2  0
 27 28  1  0
 28 29  2  0
 28 30  1  0
 30 31  1  0
 31 32  1  0
 31 33  1  0
 31 34  1  0
 34 35  1  0
 34 36  1  0
 34 37  1  0
 37 38  1  0
 38 39  1  0
 38 40  1  0
 38 41  1  0
 37 42  1  0
 42 43  1  0
 42 44  1  0
 42 45  1  0
 45 46  1  0
 45 47  1  0
 27 48  1  0
 48 49  1  0
 48 50  2  0
 50 51  1  0
 21 52  1  0
 52 53  2  0
 53 54  1  0
 53 55  1  0
 10  3  2  0
 52 13  1  0
 50 22  1  0
 45 30  1  0
M  CHG  3   4  -1   7  -1  51  -1
M  END
>  <UniqueID>  (66) 
61

>  <SMILES>  (66) 
C=c1/c(=C\c2c(O)[n-]c(=O)[n-]c2=O)cc(C)n1-c1ccc(C(=O)N2CCN(C)CC2)cc1[O-]

>  <Energy>  (66) 
119.937144775813

>  <Genealogy>  (66) 
C=c1c(=Cc2c(O)[n-]c(=O)[n-]c2=O)cc(C)n1-c1ccc(C(=O)N2CCN(C)CC2)cc1[O-] (protonated)
C=c1/c(=C\c2c(O)[n-]c(=O)[n-]c2=O)cc(C)n1-c1ccc(C(=O)N2CCN(C)CC2)cc1[O-] (cis-trans isomerization)
C=c1/c(=C\c2c(O)[n-]c(=O)[n-]c2=O)cc(C)n1-c1ccc(C(=O)N2CCN(C)CC2)cc1[O-] (3D coordinates assigned)
C=c1/c(=C\c2c(O)[n-]c(=O)[n-]c2=O)cc(C)n1-c1ccc(C(=O)N2CCN(C)CC2)cc1[O-] (nonaromatic ring conformer: 119.937144775813 kcal/mol)

>  <smiles>  (66) 
C=c1c(=Cc2c(O)[nH]c(=O)[nH]c2=O)cc(C)n1-c1ccc(C(=O)N2CCN(C)CC2)cc1O

>  <score_type>  (66) 
oracle

>  <origin>  (66) 
adg

>  <m_score__min__energy>  (66) 
-15.94

>  <m_primary>  (66) 
energy

$$$$
66:0
     RDKit          3D

 39 41  0  0  0  0  0  0  0  0999 V2000
   59.1977   30.7322   49.0554 H   0  0  0  0  0  0  0  0  0  0  0  0
   58.9960   30.3920   48.0290 C   0  0  0  0  0  0  0  0  0  0  0  0
   58.0191   29.9537   47.7769 H   0  0  0  0  0  0  0  0  0  0  0  0
   59.9360   30.5110   47.0900 C   0  0  0  0  0  0  0  0  0  0  0  0
   60.9103   30.9504   47.3502 H   0  0  0  0  0  0  0  0  0  0  0  0
   59.6820   30.0530   45.6820 C   0  0  0  0  0  0  0  0  0  0  0  0
   60.3977   30.5441   45.0063 H   0  0  0  0  0  0  0  0  0  0  0  0
   59.8055   28.9610   45.6340 H   0  0  0  0  0  0  0  0  0  0  0  0
   58.3170   30.3960   45.2720 N   0  0  0  0  0  0  0  0  0  0  0  0
   57.8650   31.6000   44.8630 C   0  0  0  0  0  0  0  0  0  0  0  0
   58.8510   33.1040   44.8180 S   0  0  0  0  0  0  0  0  0  0  0  0
   58.4660   33.6220   46.5330 C   0  0  0  0  0  0  0  0  0  0  0  0
   57.4623   34.0716   46.5529 H   0  0  0  0  0  0  0  0  0  0  0  0
   58.5120   32.7326   47.1787 H   0  0  0  0  0  0  0  0  0  0  0  0
   59.4560   34.6220   47.0440 C   0  0  0  0  0  0  0  0  0  0  0  0
   59.5100   35.7710   46.5270 O   0  0  0  0  0  0  0  0  0  0  0  0
   60.3490   34.2460   48.1020 N   0  0  0  0  0  0  0  0  0  0  0  0
   61.5430   33.7620   47.9380 C   0  0  0  0  0  0  0  0  0  0  0  0
   62.2950   33.2440   48.9330 N   0  0  0  0  0  0  0  0  0  0  0  0
   63.5380   32.9100   48.4930 C   0  0  0  0  0  0  0  0  0  0  0  0
   64.5770   32.3530   49.4070 C   0  0  0  0  0  0  0  0  0  0  0  0
   64.2723   32.5163   50.4513 H   0  0  0  0  0  0  0  0  0  0  0  0
   64.6881   31.2744   49.2219 H   0  0  0  0  0  0  0  0  0  0  0  0
   65.5368   32.8575   49.2219 H   0  0  0  0  0  0  0  0  0  0  0  0
   63.7740   33.1560   47.1420 C   0  0  0  0  0  0  0  0  0  0  0  0
   64.7080   32.9467   46.6000 H   0  0  0  0  0  0  0  0  0  0  0  0
   62.3780   33.8300   46.4850 S   0  0  0  0  0  0  0  0  0  0  0  0
   56.5500   31.5690   44.5840 N   0  0  0  0  0  0  0  0  0  0  0  0
   56.1370   30.3320   44.8190 N   0  0  0  0  0  0  0  0  0  0  0  0
   57.2090   29.6210   45.2230 C   0  0  0  0  0  0  0  0  0  0  0  0
   57.1050   28.2180   45.6680 C   0  0  0  0  0  0  0  0  0  0  0  0
   55.8920   27.6040   45.6190 N   0  0  0  0  0  0  0  0  0  0  0  0
   55.7360   26.3160   46.0210 C   0  0  0  0  0  0  0  0  0  0  0  0
   54.6000   25.7780   45.9790 O   0  0  0  0  0  0  0  0  0  0  0  0
   56.8060   25.6080   46.4670 N   0  0  0  0  0  0  0  0  0  0  0  0
   58.0410   26.1700   46.5120 C   0  0  0  0  0  0  0  0  0  0  0  0
   59.0230   25.4920   46.9170 O   0  0  0  0  0  0  0  0  0  0  0  0
   58.2220   27.4930   46.1020 C   0  0  0  0  0  0  0  0  0  0  0  0
   59.2200   27.9553   46.1196 H   0  0  0  0  0  0  0  0  0  0  0  0
  1  2  1  0
  2  3  1  0
  2  4  2  0
  4  5  1  0
  4  6  1  0
  6  7  1  0
  6  8  1  0
  6  9  1  0
  9 10  1  0
 10 11  1  0
 11 12  1  0
 12 13  1  0
 12 14  1  0
 12 15  1  0
 15 16  2  0
 15 17  1  0
 17 18  2  0
 18 19  1  0
 19 20  1  0
 20 21  1  0
 21 22  1  0
 21 23  1  0
 21 24  1  0
 20 25  2  0
 25 26  1  0
 25 27  1  0
 10 28  2  0
 28 29  1  0
 29 30  2  0
 30 31  1  0
 31 32  1  0
 32 33  1  0
 33 34  2  0
 33 35  1  0
 35 36  1  0
 36 37  2  0
 36 38  1  0
 38 39  1  0
 30  9  1  0
 38 31  2  0
 27 18  1  0
M  CHG  3  19  -1  32  -1  35  -1
M  END
>  <UniqueID>  (67) 
62

>  <SMILES>  (67) 
C=CCn1c(SCC(=O)/N=c2\[n-]c(C)cs2)nnc1-c1cc(=O)[n-]c(=O)[n-]1

>  <Energy>  (67) 
100.28881797643182

>  <Genealogy>  (67) 
C=CCn1c(SCC(=O)N=c2[n-]c(C)cs2)nnc1-c1cc(=O)[n-]c(=O)[n-]1 (protonated)
C=CCn1c(SCC(=O)/N=c2\[n-]c(C)cs2)nnc1-c1cc(=O)[n-]c(=O)[n-]1 (cis-trans isomerization)
C=CCn1c(SCC(=O)/N=c2\[n-]c(C)cs2)nnc1-c1cc(=O)[n-]c(=O)[n-]1 (3D coordinates assigned)
C=CCn1c(SCC(=O)/N=c2\[n-]c(C)cs2)nnc1-c1cc(=O)[n-]c(=O)[n-]1 (optimized conformer: 100.28881797643182 kcal/mol)

>  <smiles>  (67) 
C=CCn1c(SCC(=O)N=c2[nH]c(C)cs2)nnc1-c1cc(=O)[nH]c(=O)[nH]1

>  <score_type>  (67) 
oracle

>  <origin>  (67) 
adg

>  <m_score__min__energy>  (67) 
-13.800000000000001

>  <m_primary>  (67) 
energy

$$$$
67:0
     RDKit          3D

 49 51  0  0  0  0  0  0  0  0999 V2000
   57.8990   33.0120   52.0870 C   0  0  0  0  0  0  0  0  0  0  0  0
   58.8480   33.0990   51.3490 C   0  0  0  0  0  0  0  0  0  0  0  0
   59.9830   33.1950   50.4670 C   0  0  0  0  0  0  0  0  0  0  0  0
   59.8030   32.9840   49.0970 C   0  0  0  0  0  0  0  0  0  0  0  0
   60.8780   33.0950   48.2100 C   0  0  0  0  0  0  0  0  0  0  0  0
   60.6240   32.9340   46.8420 O   0  0  0  0  0  0  0  0  0  0  0  0
   59.3410   32.9480   46.2690 C   0  0  0  0  0  0  0  0  0  0  0  0
   58.6450   34.1590   46.2220 C   0  0  0  0  0  0  0  0  0  0  0  0
   57.3800   34.2060   45.6400 C   0  0  0  0  0  0  0  0  0  0  0  0
   56.8240   33.0760   45.1290 N   0  0  0  0  0  0  0  0  0  0  0  0
   57.4540   31.8700   45.1690 C   0  0  0  0  0  0  0  0  0  0  0  0
   56.8510   30.8410   44.6420 N   0  0  0  0  0  0  0  0  0  0  0  0
   56.6710   29.5330   45.2070 C   0  0  0  0  0  0  0  0  0  0  0  0
   55.5290   28.9960   45.2070 O   0  0  0  0  0  0  0  0  0  0  0  0
   57.8250   28.7860   45.7680 C   0  0  0  0  0  0  0  0  0  0  0  0
   58.1910   29.0410   47.1030 C   0  0  0  0  0  0  0  0  0  0  0  0
   59.2910   28.4010   47.6780 C   0  0  0  0  0  0  0  0  0  0  0  0
   60.0380   27.4930   46.9340 C   0  0  0  0  0  0  0  0  0  0  0  0
   59.6850   27.2130   45.6140 C   0  0  0  0  0  0  0  0  0  0  0  0
   58.5740   27.8380   45.0180 C   0  0  0  0  0  0  0  0  0  0  0  0
   58.2180   27.4680   43.6010 C   0  0  0  0  0  0  0  0  0  0  0  0
   58.7460   31.7940   45.7280 C   0  0  0  0  0  0  0  0  0  0  0  0
   62.1740   33.3710   48.7020 C   0  0  0  0  0  0  0  0  0  0  0  0
   63.3550   33.3930   47.7970 C   0  0  0  0  0  0  0  0  0  0  0  0
   63.2410   33.8410   46.3740 C   0  0  0  0  0  0  0  0  0  0  0  0
   64.4930   33.0790   48.2400 O   0  0  0  0  0  0  0  0  0  0  0  0
   62.3450   33.5900   50.0830 C   0  0  0  0  0  0  0  0  0  0  0  0
   61.2530   33.5100   50.9710 C   0  0  0  0  0  0  0  0  0  0  0  0
   61.3990   33.7350   52.3500 O   0  0  0  0  0  0  0  0  0  0  0  0
   62.5620   33.4050   53.1010 C   0  0  0  0  0  0  0  0  0  0  0  0
   57.0329   32.9326   52.7605 H   0  0  0  0  0  0  0  0  0  0  0  0
   58.8047   32.7278   48.7126 H   0  0  0  0  0  0  0  0  0  0  0  0
   59.0939   35.0709   46.6426 H   0  0  0  0  0  0  0  0  0  0  0  0
   56.8310   35.1581   45.5941 H   0  0  0  0  0  0  0  0  0  0  0  0
   57.6033   29.7532   47.7008 H   0  0  0  0  0  0  0  0  0  0  0  0
   59.5674   28.6151   48.7210 H   0  0  0  0  0  0  0  0  0  0  0  0
   60.9080   26.9954   47.3874 H   0  0  0  0  0  0  0  0  0  0  0  0
   60.2820   26.4953   45.0321 H   0  0  0  0  0  0  0  0  0  0  0  0
   57.4553   26.6754   43.6096 H   0  0  0  0  0  0  0  0  0  0  0  0
   57.8222   28.3520   43.0796 H   0  0  0  0  0  0  0  0  0  0  0  0
   59.1166   27.1066   43.0796 H   0  0  0  0  0  0  0  0  0  0  0  0
   59.2866   30.8361   45.7410 H   0  0  0  0  0  0  0  0  0  0  0  0
   62.9698   34.9067   46.3457 H   0  0  0  0  0  0  0  0  0  0  0  0
   64.2051   33.6943   45.8651 H   0  0  0  0  0  0  0  0  0  0  0  0
   62.4643   33.2514   45.8651 H   0  0  0  0  0  0  0  0  0  0  0  0
   63.3454   33.8269   50.4743 H   0  0  0  0  0  0  0  0  0  0  0  0
   62.3352   33.4694   54.1754 H   0  0  0  0  0  0  0  0  0  0  0  0
   62.8797   32.3812   52.8540 H   0  0  0  0  0  0  0  0  0  0  0  0
   63.3700   34.1093   52.8540 H   0  0  0  0  0  0  0  0  0  0  0  0
  1  2  3  0
  2  3  1  0
  3  4  2  0
  4  5  1  0
  5  6  1  0
  6  7  1  0
  7  8  1  0
  8  9  2  0
  9 10  1  0
 10 11  1  0
 11 12  2  3
 12 13  1  0
 13 14  2  0
 13 15  1  0
 15 16  2  0
 16 17  1  0
 17 18  2  0
 18 19  1  0
 19 20  2  0
 20 21  1  0
 11 22  1  0
  5 23  2  0
 23 24  1  0
 24 25  1  0
 24 26  2  0
 23 27  1  0
 27 28  2  0
 28 29  1  0
 29 30  1  0
 28  3  1  0
 22  7  2  0
 20 15  1  0
  1 31  1  0
  4 32  1  0
  8 33  1  0
  9 34  1  0
 16 35  1  0
 17 36  1  0
 18 37  1  0
 19 38  1  0
 21 39  1  0
 21 40  1  0
 21 41  1  0
 22 42  1  0
 25 43  1  0
 25 44  1  0
 25 45  1  0
 27 46  1  0
 30 47  1  0
 30 48  1  0
 30 49  1  0
M  CHG  1  10  -1
M  END
>  <UniqueID>  (68) 
63

>  <SMILES>  (68) 
C#Cc1cc(Oc2cc[n-]c(=NC(=O)c3ccccc3C)c2)c(C(C)=O)cc1OC

>  <Energy>  (68) 
72.57550457113318

>  <Genealogy>  (68) 
C#Cc1cc(Oc2cc[n-]c(=NC(=O)c3ccccc3C)c2)c(C(C)=O)cc1OC (protonated)
C#Cc1cc(Oc2cc[n-]c(=NC(=O)c3ccccc3C)c2)c(C(C)=O)cc1OC (3D coordinates assigned)
C#Cc1cc(Oc2cc[n-]c(=NC(=O)c3ccccc3C)c2)c(C(C)=O)cc1OC (optimized conformer: 72.57550457113318 kcal/mol)

>  <smiles>  (68) 
C#Cc1cc(Oc2cc[nH]c(=NC(=O)c3ccccc3C)c2)c(C(C)=O)cc1OC

>  <score_type>  (68) 
oracle

>  <origin>  (68) 
adg

>  <m_score__min__energy>  (68) 
-10.58

>  <m_primary>  (68) 
energy

$$$$
68:0
     RDKit          3D

 63 67  0  0  0  0  0  0  0  0999 V2000
   55.0700   30.7860   52.3070 C   0  0  0  0  0  0  0  0  0  0  0  0
   56.1010   31.6010   52.8560 O   0  0  0  0  0  0  0  0  0  0  0  0
   57.2200   32.0550   52.1400 C   0  0  0  0  0  0  0  0  0  0  0  0
   57.8210   33.3030   52.3880 C   0  0  0  0  0  0  0  0  0  0  0  0
   58.9370   33.7070   51.6470 C   0  0  0  0  0  0  0  0  0  0  0  0
   59.4550   32.8830   50.6340 C   0  0  0  0  0  0  0  0  0  0  0  0
   60.7080   33.2790   49.8880 C   0  0  0  0  0  0  0  0  0  0  0  0
   60.5030   33.3460   48.4160 N   0  0  0  0  0  0  0  0  0  0  0  0
   59.0720   33.5650   48.0430 C   0  0  0  0  0  0  0  0  0  0  0  0
   58.7410   33.2520   46.5900 C   0  0  0  0  0  0  0  0  0  0  0  0
   57.9790   32.1130   46.2820 C   0  0  0  0  0  0  0  0  0  0  0  0
   57.6780   31.7970   44.9540 C   0  0  0  0  0  0  0  0  0  0  0  0
   56.9360   30.6510   44.6290 C   0  0  0  0  0  0  0  0  0  0  0  0
   56.6470   30.3640   43.2900 C   0  0  0  0  0  0  0  0  0  0  0  0
   57.0970   31.2150   42.2760 C   0  0  0  0  0  0  0  0  0  0  0  0
   57.8360   32.3610   42.5930 C   0  0  0  0  0  0  0  0  0  0  0  0
   58.1260   32.6570   43.9310 C   0  0  0  0  0  0  0  0  0  0  0  0
   58.8150   33.7830   44.2480 N   0  0  0  0  0  0  0  0  0  0  0  0
   59.1190   34.1060   45.5330 C   0  0  0  0  0  0  0  0  0  0  0  0
   59.7260   35.1840   45.7630 O   0  0  0  0  0  0  0  0  0  0  0  0
   61.1340   32.2300   47.6460 C   0  0  2  0  0  0  0  0  0  0  0  0
   61.3940   30.9550   48.4990 C   0  0  0  0  0  0  0  0  0  0  0  0
   60.4750   29.8150   48.1430 C   0  0  0  0  0  0  0  0  0  0  0  0
   59.6730   29.0950   49.0260 C   0  0  0  0  0  0  0  0  0  0  0  0
   58.9220   28.1930   48.3540 N   0  0  0  0  0  0  0  0  0  0  0  0
   59.2340   28.3430   47.0550 C   0  0  0  0  0  0  0  0  0  0  0  0
   58.6900   27.6560   45.9700 C   0  0  0  0  0  0  0  0  0  0  0  0
   59.1380   27.9990   44.6810 C   0  0  0  0  0  0  0  0  0  0  0  0
   60.1140   29.0050   44.5060 C   0  0  0  0  0  0  0  0  0  0  0  0
   60.6470   29.6810   45.6190 C   0  0  0  0  0  0  0  0  0  0  0  0
   60.1800   29.3220   46.8850 C   0  0  0  0  0  0  0  0  0  0  0  0
   62.4550   32.6970   47.0700 C   0  0  0  0  0  0  0  0  0  0  0  0
   62.5580   33.9680   46.4270 N   0  0  0  0  0  0  0  0  0  0  0  0
   63.4860   31.9820   47.2000 O   0  0  0  0  0  0  0  0  0  0  0  0
   58.8740   31.6250   50.4130 C   0  0  0  0  0  0  0  0  0  0  0  0
   57.7560   31.2240   51.1490 C   0  0  0  0  0  0  0  0  0  0  0  0
   54.4910   30.3283   53.1226 H   0  0  0  0  0  0  0  0  0  0  0  0
   54.4044   31.4047   51.6872 H   0  0  0  0  0  0  0  0  0  0  0  0
   55.5184   29.9955   51.6872 H   0  0  0  0  0  0  0  0  0  0  0  0
   57.4120   33.9632   53.1671 H   0  0  0  0  0  0  0  0  0  0  0  0
   59.4119   34.6763   51.8591 H   0  0  0  0  0  0  0  0  0  0  0  0
   61.0314   34.2684   50.2436 H   0  0  0  0  0  0  0  0  0  0  0  0
   61.4682   32.5082   50.0828 H   0  0  0  0  0  0  0  0  0  0  0  0
   58.4485   32.9233   48.6829 H   0  0  0  0  0  0  0  0  0  0  0  0
   58.8736   34.6377   48.1840 H   0  0  0  0  0  0  0  0  0  0  0  0
   57.6160   31.4641   47.0927 H   0  0  0  0  0  0  0  0  0  0  0  0
   56.5822   29.9795   45.4252 H   0  0  0  0  0  0  0  0  0  0  0  0
   56.0643   29.4666   43.0347 H   0  0  0  0  0  0  0  0  0  0  0  0
   56.8695   30.9832   41.2251 H   0  0  0  0  0  0  0  0  0  0  0  0
   58.1884   33.0280   41.7925 H   0  0  0  0  0  0  0  0  0  0  0  0
   60.4194   31.9578   46.8553 H   0  0  0  0  0  0  0  0  0  0  0  0
   62.4331   30.6314   48.3392 H   0  0  0  0  0  0  0  0  0  0  0  0
   61.2043   31.2165   49.5505 H   0  0  0  0  0  0  0  0  0  0  0  0
   59.6534   29.2398   50.1163 H   0  0  0  0  0  0  0  0  0  0  0  0
   58.2260   27.5290   48.7650 H   0  0  0  0  0  0  0  0  0  0  0  0
   57.9342   26.8705   46.1174 H   0  0  0  0  0  0  0  0  0  0  0  0
   58.7252   27.4800   43.8033 H   0  0  0  0  0  0  0  0  0  0  0  0
   60.4594   29.2615   43.4936 H   0  0  0  0  0  0  0  0  0  0  0  0
   61.4069   30.4667   45.4958 H   0  0  0  0  0  0  0  0  0  0  0  0
   61.7220   34.5880   46.3360 H   0  0  0  0  0  0  0  0  0  0  0  0
   63.4810   34.3120   46.0810 H   0  0  0  0  0  0  0  0  0  0  0  0
   59.3011   30.9507   49.6561 H   0  0  0  0  0  0  0  0  0  0  0  0
   57.2929   30.2467   50.9480 H   0  0  0  0  0  0  0  0  0  0  0  0
  1  2  1  0
  2  3  1  0
  3  4  2  0
  4  5  1  0
  5  6  2  0
  6  7  1  0
  7  8  1  0
  8  9  1  0
  9 10  1  0
 10 11  2  0
 11 12  1  0
 12 13  2  0
 13 14  1  0
 14 15  2  0
 15 16  1  0
 16 17  2  0
 17 18  1  0
 18 19  1  0
 19 20  2  0
  8 21  1  0
 21 22  1  0
 22 23  1  0
 23 24  2  0
 24 25  1  0
 25 26  1  0
 26 27  2  0
 27 28  1  0
 28 29  2  0
 29 30  1  0
 30 31  2  0
 21 32  1  0
 32 33  1  0
 32 34  2  0
  6 35  1  0
 35 36  2  0
 36  3  1  0
 19 10  1  0
 31 23  1  0
 17 12  1  0
 31 26  1  0
  1 37  1  0
  1 38  1  0
  1 39  1  0
  4 40  1  0
  5 41  1  0
  7 42  1  0
  7 43  1  0
  9 44  1  0
  9 45  1  0
 11 46  1  0
 13 47  1  0
 14 48  1  0
 15 49  1  0
 16 50  1  0
 21 51  1  6
 22 52  1  0
 22 53  1  0
 24 54  1  0
 25 55  1  0
 27 56  1  0
 28 57  1  0
 29 58  1  0
 30 59  1  0
 33 60  1  0
 33 61  1  0
 35 62  1  0
 36 63  1  0
M  CHG  1  18  -1
M  END
>  <UniqueID>  (69) 
64

>  <SMILES>  (69) 
COc1ccc(CN(Cc2cc3ccccc3[n-]c2=O)[C@H](Cc2c[nH]c3ccccc23)C(N)=O)cc1

>  <Energy>  (69) 
113.8614547904751

>  <Genealogy>  (69) 
COc1ccc(CN(Cc2cc3ccccc3[n-]c2=O)C(Cc2c[nH]c3ccccc23)C(N)=O)cc1 (protonated)
COc1ccc(CN(Cc2cc3ccccc3[n-]c2=O)[C@H](Cc2c[nH]c3ccccc23)C(N)=O)cc1 (chirality)
COc1ccc(CN(Cc2cc3ccccc3[n-]c2=O)[C@H](Cc2c[nH]c3ccccc23)C(N)=O)cc1 (3D coordinates assigned)
COc1ccc(CN(Cc2cc3ccccc3[n-]c2=O)[C@H](Cc2c[nH]c3ccccc23)C(N)=O)cc1 (optimized conformer: 113.8614547904751 kcal/mol)

>  <smiles>  (69) 
COc1ccc(CN(Cc2cc3ccccc3[nH]c2=O)C(Cc2c[nH]c3ccccc23)C(N)=O)cc1

>  <score_type>  (69) 
oracle

>  <origin>  (69) 
adg

>  <m_score__min__energy>  (69) 
-12.6

>  <m_primary>  (69) 
energy

$$$$
69:0
     RDKit          3D

 49 52  0  0  0  0  0  0  0  0999 V2000
   59.3580   29.4810   45.0230 C   0  0  0  0  0  0  0  0  0  0  0  0
   59.3850   28.9510   46.2560 C   0  0  0  0  0  0  0  0  0  0  0  0
   58.8250   27.7270   46.6510 C   0  0  0  0  0  0  0  0  0  0  0  0
   58.2000   26.8310   45.8560 C   0  0  0  0  0  0  0  0  0  0  0  0
   57.3740   25.6940   46.3190 C   0  0  0  0  0  0  0  0  0  0  0  0
   57.8340   24.5220   46.7960 N   0  0  0  0  0  0  0  0  0  0  0  0
   56.7100   23.8450   47.1120 C   0  0  0  0  0  0  0  0  0  0  0  0
   56.7320   22.6820   47.5930 O   0  0  0  0  0  0  0  0  0  0  0  0
   55.5610   24.5120   46.8760 N   0  0  0  0  0  0  0  0  0  0  0  0
   55.9990   25.6800   46.3790 C   0  0  0  0  0  0  0  0  0  0  0  0
   55.1590   26.7160   45.9890 O   0  0  0  0  0  0  0  0  0  0  0  0
   59.0580   27.6210   48.0170 C   0  0  0  0  0  0  0  0  0  0  0  0
   59.7470   28.7580   48.3940 C   0  0  0  0  0  0  0  0  0  0  0  0
   60.2030   29.0520   49.7910 C   0  0  0  0  0  0  0  0  0  0  0  0
   59.9400   29.5670   47.3300 N   0  0  0  0  0  0  0  0  0  0  0  0
   60.6300   30.8290   47.3510 C   0  0  0  0  0  0  0  0  0  0  0  0
   62.0110   30.8830   47.1120 C   0  0  0  0  0  0  0  0  0  0  0  0
   62.6840   32.1060   47.1540 C   0  0  0  0  0  0  0  0  0  0  0  0
   61.9840   33.2830   47.4310 C   0  0  0  0  0  0  0  0  0  0  0  0
   60.5990   33.2460   47.6560 C   0  0  0  0  0  0  0  0  0  0  0  0
   59.8500   34.4800   47.9640 C   0  0  0  0  0  0  0  0  0  0  0  0
   59.9300   34.9710   49.1210 O   0  0  0  0  0  0  0  0  0  0  0  0
   59.0020   35.1180   47.0000 N   0  0  0  0  0  0  0  0  0  0  0  0
   59.2100   35.0830   45.5580 C   0  0  0  0  0  0  0  0  0  0  0  0
   58.5100   33.8840   44.9850 C   0  0  0  0  0  0  0  0  0  0  0  0
   58.7790   33.4710   43.6690 C   0  0  0  0  0  0  0  0  0  0  0  0
   58.1520   32.3360   43.1470 C   0  0  0  0  0  0  0  0  0  0  0  0
   57.2630   31.5990   43.9350 C   0  0  0  0  0  0  0  0  0  0  0  0
   56.4790   30.1750   43.2770 Cl  0  0  0  0  0  0  0  0  0  0  0  0
   57.0040   31.9960   45.2510 C   0  0  0  0  0  0  0  0  0  0  0  0
   57.6300   33.1310   45.7780 C   0  0  0  0  0  0  0  0  0  0  0  0
   59.9300   32.0120   47.6330 C   0  0  0  0  0  0  0  0  0  0  0  0
   59.8343   30.4539   44.8320 H   0  0  0  0  0  0  0  0  0  0  0  0
   58.8595   28.9424   44.2036 H   0  0  0  0  0  0  0  0  0  0  0  0
   58.3153   26.9579   44.7694 H   0  0  0  0  0  0  0  0  0  0  0  0
   58.7527   26.7917   48.6720 H   0  0  0  0  0  0  0  0  0  0  0  0
   59.5021   28.6001   50.5082 H   0  0  0  0  0  0  0  0  0  0  0  0
   61.2075   28.6310   49.9451 H   0  0  0  0  0  0  0  0  0  0  0  0
   60.2341   30.1407   49.9451 H   0  0  0  0  0  0  0  0  0  0  0  0
   62.5657   29.9592   46.8908 H   0  0  0  0  0  0  0  0  0  0  0  0
   63.7676   32.1427   46.9686 H   0  0  0  0  0  0  0  0  0  0  0  0
   62.5204   34.2424   47.4729 H   0  0  0  0  0  0  0  0  0  0  0  0
   58.8012   35.9984   45.1054 H   0  0  0  0  0  0  0  0  0  0  0  0
   60.2867   35.0194   45.3422 H   0  0  0  0  0  0  0  0  0  0  0  0
   59.4847   34.0423   43.0481 H   0  0  0  0  0  0  0  0  0  0  0  0
   58.3587   32.0218   42.1133 H   0  0  0  0  0  0  0  0  0  0  0  0
   56.3070   31.4149   45.8727 H   0  0  0  0  0  0  0  0  0  0  0  0
   57.4319   33.4340   46.8167 H   0  0  0  0  0  0  0  0  0  0  0  0
   58.8499   31.9722   47.8374 H   0  0  0  0  0  0  0  0  0  0  0  0
  1  2  2  0
  2  3  1  0
  3  4  2  3
  4  5  1  0
  5  6  1  0
  6  7  1  0
  7  8  2  0
  7  9  1  0
  9 10  1  0
 10 11  1  0
  3 12  1  0
 12 13  2  0
 13 14  1  0
 13 15  1  0
 15 16  1  0
 16 17  2  0
 17 18  1  0
 18 19  2  0
 19 20  1  0
 20 21  1  0
 21 22  2  0
 21 23  1  0
 23 24  1  0
 24 25  1  0
 25 26  2  0
 26 27  1  0
 27 28  2  0
 28 29  1  0
 28 30  1  0
 30 31  2  0
 20 32  2  0
 15  2  1  0
 32 16  1  0
 10  5  2  0
 31 25  1  0
  1 33  1  0
  1 34  1  0
  4 35  1  0
 12 36  1  0
 14 37  1  0
 14 38  1  0
 14 39  1  0
 17 40  1  0
 18 41  1  0
 19 42  1  0
 24 43  1  0
 24 44  1  0
 26 45  1  0
 27 46  1  0
 30 47  1  0
 31 48  1  0
 32 49  1  0
M  CHG  4   6  -1   9  -1  11  -1  23  -1
M  END
>  <UniqueID>  (70) 
65

>  <SMILES>  (70) 
C=c1c(=Cc2[n-]c(=O)[n-]c2[O-])cc(C)n1-c1cccc(C(=O)[N-]Cc2ccc(Cl)cc2)c1

>  <Energy>  (70) 
124.84732345803948

>  <Genealogy>  (70) 
C=c1c(=Cc2[n-]c(=O)[n-]c2[O-])cc(C)n1-c1cccc(C(=O)[N-]Cc2ccc(Cl)cc2)c1 (protonated)
C=c1c(=Cc2[n-]c(=O)[n-]c2[O-])cc(C)n1-c1cccc(C(=O)[N-]Cc2ccc(Cl)cc2)c1 (3D coordinates assigned)
C=c1c(=Cc2[n-]c(=O)[n-]c2[O-])cc(C)n1-c1cccc(C(=O)[N-]Cc2ccc(Cl)cc2)c1 (optimized conformer: 124.84732345803948 kcal/mol)

>  <smiles>  (70) 
C=c1c(=Cc2[nH]c(=O)[nH]c2O)cc(C)n1-c1cccc(C(=O)NCc2ccc(Cl)cc2)c1

>  <score_type>  (70) 
oracle

>  <origin>  (70) 
adg

>  <m_score__min__energy>  (70) 
-18.420000000000002

>  <m_primary>  (70) 
energy

$$$$
70:0
     RDKit          3D

 37 39  0  0  0  0  0  0  0  0999 V2000
   56.6630   30.6770   44.0350 C   0  0  0  0  0  0  0  0  0  0  0  0
   56.9060   29.3320   44.6320 C   0  0  0  0  0  0  0  0  0  0  0  0
   58.1330   28.7070   44.7290 C   0  0  0  0  0  0  0  0  0  0  0  0
   57.8910   27.5170   45.3850 C   0  0  0  0  0  0  0  0  0  0  0  0
   58.9320   26.5460   45.7800 C   0  0  0  0  0  0  0  0  0  0  0  0
   58.8700   25.3740   45.3250 O   0  0  0  0  0  0  0  0  0  0  0  0
   59.9990   26.8810   46.6800 N   0  0  0  0  0  0  0  0  0  0  0  0
   60.0570   27.9230   47.4580 C   0  0  0  0  0  0  0  0  0  0  0  0
   60.0020   27.8230   48.8050 N   0  0  0  0  0  0  0  0  0  0  0  0
   60.0710   29.0330   49.4190 C   0  0  0  0  0  0  0  0  0  0  0  0
   60.2060   30.1120   48.5500 C   0  0  0  0  0  0  0  0  0  0  0  0
   60.2210   31.5580   48.9330 C   0  0  0  0  0  0  0  0  0  0  0  0
   61.3090   32.2810   48.1790 C   0  0  0  0  0  0  0  0  0  0  0  0
   62.6540   31.9580   48.4370 C   0  0  0  0  0  0  0  0  0  0  0  0
   63.6830   32.5710   47.7190 C   0  0  0  0  0  0  0  0  0  0  0  0
   63.3820   33.5090   46.7300 C   0  0  0  0  0  0  0  0  0  0  0  0
   62.0520   33.8330   46.4540 C   0  0  0  0  0  0  0  0  0  0  0  0
   61.0130   33.2230   47.1660 C   0  0  0  0  0  0  0  0  0  0  0  0
   59.3560   33.6570   46.7560 Cl  0  0  0  0  0  0  0  0  0  0  0  0
   60.2310   29.5300   46.9690 S   0  0  0  0  0  0  0  0  0  0  0  0
   56.5180   27.4820   45.6240 C   0  0  0  0  0  0  0  0  0  0  0  0
   55.7330   26.4020   46.2420 C   0  0  0  0  0  0  0  0  0  0  0  0
   54.5030   26.3070   45.9920 O   0  0  0  0  0  0  0  0  0  0  0  0
   56.3350   25.4570   47.0620 O   0  0  0  0  0  0  0  0  0  0  0  0
   55.9700   28.5870   45.1720 O   0  0  0  0  0  0  0  0  0  0  0  0
   56.5295   31.4162   44.8386 H   0  0  0  0  0  0  0  0  0  0  0  0
   57.5240   30.9631   43.4130 H   0  0  0  0  0  0  0  0  0  0  0  0
   55.7563   30.6437   43.4130 H   0  0  0  0  0  0  0  0  0  0  0  0
   59.1004   29.0792   44.3608 H   0  0  0  0  0  0  0  0  0  0  0  0
   59.8970   26.9200   49.3190 H   0  0  0  0  0  0  0  0  0  0  0  0
   60.0241   29.1502   50.5117 H   0  0  0  0  0  0  0  0  0  0  0  0
   59.2478   32.0092   48.6897 H   0  0  0  0  0  0  0  0  0  0  0  0
   60.4127   31.6432   50.0128 H   0  0  0  0  0  0  0  0  0  0  0  0
   62.8972   31.2157   49.2115 H   0  0  0  0  0  0  0  0  0  0  0  0
   64.7311   32.3146   47.9329 H   0  0  0  0  0  0  0  0  0  0  0  0
   64.1935   33.9936   46.1673 H   0  0  0  0  0  0  0  0  0  0  0  0
   61.8197   34.5717   45.6727 H   0  0  0  0  0  0  0  0  0  0  0  0
  1  2  1  0
  2  3  2  0
  3  4  1  0
  4  5  1  0
  5  6  2  0
  5  7  1  0
  7  8  2  3
  8  9  1  0
  9 10  1  0
 10 11  2  0
 11 12  1  0
 12 13  1  0
 13 14  2  0
 14 15  1  0
 15 16  2  0
 16 17  1  0
 17 18  2  0
 18 19  1  0
 11 20  1  0
  4 21  2  0
 21 22  1  0
 22 23  2  0
 22 24  1  0
 21 25  1  0
 25  2  1  0
 20  8  1  0
 18 13  1  0
  1 26  1  0
  1 27  1  0
  1 28  1  0
  3 29  1  0
  9 30  1  0
 10 31  1  0
 12 32  1  0
 12 33  1  0
 14 34  1  0
 15 35  1  0
 16 36  1  0
 17 37  1  0
M  CHG  1  24  -1
M  END
>  <UniqueID>  (71) 
66

>  <SMILES>  (71) 
Cc1cc(C(=O)N=c2[nH]cc(Cc3ccccc3Cl)s2)c(C(=O)[O-])o1

>  <Energy>  (71) 
102.4366744916375

>  <Genealogy>  (71) 
Cc1cc(C(=O)N=c2[nH]cc(Cc3ccccc3Cl)s2)c(C(=O)[O-])o1 (protonated)
Cc1cc(C(=O)N=c2[nH]cc(Cc3ccccc3Cl)s2)c(C(=O)[O-])o1 (3D coordinates assigned)
Cc1cc(C(=O)N=c2[nH]cc(Cc3ccccc3Cl)s2)c(C(=O)[O-])o1 (optimized conformer: 102.4366744916375 kcal/mol)

>  <smiles>  (71) 
Cc1cc(C(=O)N=c2[nH]cc(Cc3ccccc3Cl)s2)c(C(=O)O)o1

>  <score_type>  (71) 
oracle

>  <origin>  (71) 
adg

>  <m_score__min__energy>  (71) 
-11.529999999999999

>  <m_primary>  (71) 
energy

$$$$
71:0
     RDKit          3D

 56 59  0  0  1  0  0  0  0  0999 V2000
   57.8170   29.1300   43.8800 N   0  0  0  0  0  0  0  0  0  0  0  0
   56.7880   30.5130   43.9120 S   0  0  0  0  0  0  0  0  0  0  0  0
   55.4440   30.1400   44.4700 O   0  0  0  0  0  0  0  0  0  0  0  0
   56.5660   30.8970   42.4640 O   0  0  0  0  0  0  0  0  0  0  0  0
   57.5050   31.8230   44.8280 C   0  0  0  0  0  0  0  0  0  0  0  0
   56.7270   32.7980   45.4400 C   0  0  0  0  0  0  0  0  0  0  0  0
   57.3100   33.8360   46.1670 C   0  0  0  0  0  0  0  0  0  0  0  0
   58.6940   33.9070   46.2900 C   0  0  0  0  0  0  0  0  0  0  0  0
   59.3860   34.9650   47.0360 C   0  0  0  0  0  0  0  0  0  0  0  0
   60.4060   34.4580   48.0400 C   0  0  0  0  0  0  0  0  0  0  0  0
   60.0180   33.4510   48.9130 N   0  0  0  0  0  0  0  0  0  0  0  0
   60.5730   32.4210   49.2920 C   0  0  0  0  0  0  0  0  0  0  0  0
   61.5990   32.4990   50.1700 N   0  0  0  0  0  0  0  0  0  0  0  0
   62.2900   31.4320   50.6020 C   0  0  0  0  0  0  0  0  0  0  0  0
   61.9420   30.2200   50.1350 N   0  0  0  0  0  0  0  0  0  0  0  0
   60.9260   30.1190   49.2640 C   0  0  0  0  0  0  0  0  0  0  0  0
   60.5860   28.8770   48.8030 C   0  0  0  0  0  0  0  0  0  0  0  0
   59.5350   28.7820   47.9100 C   0  0  0  0  0  0  0  0  0  0  0  0
   59.2050   27.4520   47.4360 C   0  0  0  0  0  0  0  0  0  0  0  0
   59.4810   26.4670   48.2070 O   0  0  0  0  0  0  0  0  0  0  0  0
   58.6130   27.1180   46.2180 N   0  0  0  0  0  0  0  0  0  0  0  0
   58.3760   25.7190   45.9570 C   0  0  0  0  0  0  0  0  0  0  0  0
   59.4300   24.8330   45.9140 C   0  0  0  0  0  0  0  0  0  0  0  0
   59.2100   23.4930   45.6640 C   0  0  0  0  0  0  0  0  0  0  0  0
   57.9180   23.0820   45.4650 C   0  0  0  0  0  0  0  0  0  0  0  0
   56.8460   23.9480   45.5030 C   0  0  0  0  0  0  0  0  0  0  0  0
   57.0720   25.3020   45.7560 C   0  0  0  0  0  0  0  0  0  0  0  0
   55.9370   26.2150   45.7960 C   0  0  0  0  0  0  0  0  0  0  0  0
   54.7530   25.8380   45.9810 O   0  0  0  0  0  0  0  0  0  0  0  0
   56.1910   27.5600   45.6210 O   0  0  0  0  0  0  0  0  0  0  0  0
   58.8260   29.8410   47.4690 C   0  0  0  0  0  0  0  0  0  0  0  0
   57.8660   29.8130   46.6630 O   0  0  0  0  0  0  0  0  0  0  0  0
   59.1870   31.0890   47.9480 N   0  0  0  0  0  0  0  0  0  0  0  0
   60.1970   31.1950   48.8030 C   0  0  0  0  0  0  0  0  0  0  0  0
   59.4860   32.9350   45.6800 C   0  0  0  0  0  0  0  0  0  0  0  0
   58.8780   31.9200   44.9680 C   0  0  0  0  0  0  0  0  0  0  0  0
   57.9260   28.6610   44.7860 H   0  0  0  0  0  0  0  0  0  0  0  0
   58.6620   29.2570   43.3100 H   0  0  0  0  0  0  0  0  0  0  0  0
   55.6317   32.7505   45.3496 H   0  0  0  0  0  0  0  0  0  0  0  0
   56.6756   34.5982   46.6429 H   0  0  0  0  0  0  0  0  0  0  0  0
   59.9057   35.6119   46.3139 H   0  0  0  0  0  0  0  0  0  0  0  0
   58.6160   35.4990   47.6121 H   0  0  0  0  0  0  0  0  0  0  0  0
   61.2675   34.0815   47.4689 H   0  0  0  0  0  0  0  0  0  0  0  0
   60.6042   35.3230   48.6900 H   0  0  0  0  0  0  0  0  0  0  0  0
   61.8980   33.4270   50.5550 H   0  0  0  0  0  0  0  0  0  0  0  0
   63.1175   31.5461   51.3178 H   0  0  0  0  0  0  0  0  0  0  0  0
   61.1322   27.9810   49.1328 H   0  0  0  0  0  0  0  0  0  0  0  0
   58.3360   27.7740   45.5060 H   0  0  0  0  0  0  0  0  0  0  0  0
   60.4550   25.1959   46.0802 H   0  0  0  0  0  0  0  0  0  0  0  0
   60.0452   22.7782   45.6258 H   0  0  0  0  0  0  0  0  0  0  0  0
   57.7283   22.0168   45.2667 H   0  0  0  0  0  0  0  0  0  0  0  0
   55.8243   23.5762   45.3359 H   0  0  0  0  0  0  0  0  0  0  0  0
   56.2020   27.9140   44.6520 H   0  0  0  0  0  0  0  0  0  0  0  0
   58.5670   31.7950   47.5760 H   0  0  0  0  0  0  0  0  0  0  0  0
   60.5819   32.9762   45.7649 H   0  0  0  0  0  0  0  0  0  0  0  0
   59.5116   31.1569   44.4924 H   0  0  0  0  0  0  0  0  0  0  0  0
  1  2  1  0
  2  3  2  0
  2  4  2  0
  2  5  1  0
  5  6  2  0
  6  7  1  0
  7  8  2  0
  8  9  1  0
  9 10  1  0
 10 11  1  0
 11 12  2  0
 12 13  1  0
 13 14  1  0
 14 15  2  0
 15 16  1  0
 16 17  1  0
 17 18  2  0
 18 19  1  0
 19 20  2  0
 19 21  1  0
 21 22  1  0
 22 23  2  0
 23 24  1  0
 24 25  2  0
 25 26  1  0
 26 27  2  0
 27 28  1  0
 28 29  2  0
 28 30  1  0
 18 31  1  0
 31 32  2  0
 31 33  1  0
 33 34  1  0
  8 35  1  0
 35 36  2  0
 36  5  1  0
 34 12  1  0
 34 16  2  0
 27 22  1  0
  1 37  1  0
  1 38  1  0
  6 39  1  0
  7 40  1  0
  9 41  1  0
  9 42  1  0
 10 43  1  0
 10 44  1  0
 13 45  1  0
 14 46  1  0
 17 47  1  0
 21 48  1  0
 23 49  1  0
 24 50  1  0
 25 51  1  0
 26 52  1  0
 30 53  1  0
 33 54  1  0
 35 55  1  0
 36 56  1  0
M  END
>  <smiles>  (72) 
NS(=O)(=O)c1ccc(CCN=c2[nH]cnc3cc(C(=O)Nc4ccccc4C(=O)O)c(=O)[nH]c23)cc1

>  <score_type>  (72) 
oracle

>  <origin>  (72) 
adg

>  <m_score__min__energy>  (72) 
-10.01

>  <m_primary>  (72) 
energy

$$$$
72:0
     RDKit          3D

 56 58  0  0  0  0  0  0  0  0999 V2000
   55.1860   26.3910   45.9600 N   0  0  0  0  0  0  0  0  0  0  0  0
   56.2900   25.0640   46.0600 S   0  0  0  0  0  0  0  0  0  0  0  0
   56.0230   24.2760   47.3100 O   0  0  0  0  0  0  0  0  0  0  0  0
   56.0810   24.1640   44.8750 O   0  0  0  0  0  0  0  0  0  0  0  0
   57.9520   25.6700   46.0770 C   0  0  0  0  0  0  0  0  0  0  0  0
   59.0210   24.7630   45.9990 C   0  0  0  0  0  0  0  0  0  0  0  0
   60.3400   25.2220   46.0050 C   0  0  0  0  0  0  0  0  0  0  0  0
   60.6030   26.5910   46.0750 C   0  0  0  0  0  0  0  0  0  0  0  0
   59.5490   27.5030   46.1450 C   0  0  0  0  0  0  0  0  0  0  0  0
   58.2190   27.0520   46.1670 C   0  0  0  0  0  0  0  0  0  0  0  0
   57.1400   27.9920   46.2140 N   0  0  0  0  0  0  0  0  0  0  0  0
   56.7640   29.0650   44.9060 S   0  0  0  0  0  0  0  0  0  0  0  0
   57.3680   28.5210   43.6430 O   0  0  0  0  0  0  0  0  0  0  0  0
   55.2720   29.1250   44.7270 O   0  0  0  0  0  0  0  0  0  0  0  0
   57.4000   30.6810   45.1920 C   0  0  0  0  0  0  0  0  0  0  0  0
   57.0460   31.7360   44.3430 C   0  0  0  0  0  0  0  0  0  0  0  0
   57.5810   33.0130   44.5450 C   0  0  0  0  0  0  0  0  0  0  0  0
   58.4840   33.2510   45.5970 C   0  0  0  0  0  0  0  0  0  0  0  0
   59.0560   34.6020   45.8080 C   0  0  0  0  0  0  0  0  0  0  0  0
   59.6120   35.2100   44.8520 O   0  0  0  0  0  0  0  0  0  0  0  0
   58.9770   35.2250   47.0940 N   0  0  0  0  0  0  0  0  0  0  0  0
   59.4920   34.6030   48.3060 C   0  0  0  0  0  0  0  0  0  0  0  0
   60.9400   34.1660   48.0820 C   0  0  0  0  0  0  0  0  0  0  0  0
   61.4310   33.2330   49.1930 C   0  0  0  0  0  0  0  0  0  0  0  0
   62.1850   32.0990   48.6050 N   0  0  0  0  0  0  0  0  0  0  0  0
   62.5180   32.3070   47.1820 C   0  0  0  0  0  0  0  0  0  0  0  0
   63.7260   33.2570   47.0000 C   0  0  0  0  0  0  0  0  0  0  0  0
   64.1590   33.7990   48.2310 O   0  0  0  0  0  0  0  0  0  0  0  0
   64.5530   32.7550   49.1010 C   0  0  0  0  0  0  0  0  0  0  0  0
   63.4000   31.7630   49.3770 C   0  0  0  0  0  0  0  0  0  0  0  0
   58.8370   32.1830   46.4440 C   0  0  0  0  0  0  0  0  0  0  0  0
   58.2970   30.9100   46.2420 C   0  0  0  0  0  0  0  0  0  0  0  0
   55.2990   26.9540   46.8320 H   0  0  0  0  0  0  0  0  0  0  0  0
   55.5090   26.9940   45.1690 H   0  0  0  0  0  0  0  0  0  0  0  0
   58.8183   23.6839   45.9327 H   0  0  0  0  0  0  0  0  0  0  0  0
   61.1720   24.5043   45.9545 H   0  0  0  0  0  0  0  0  0  0  0  0
   61.6423   26.9515   46.0750 H   0  0  0  0  0  0  0  0  0  0  0  0
   59.7611   28.5817   46.1832 H   0  0  0  0  0  0  0  0  0  0  0  0
   56.3446   31.5605   43.5140 H   0  0  0  0  0  0  0  0  0  0  0  0
   57.2932   33.8373   43.8759 H   0  0  0  0  0  0  0  0  0  0  0  0
   59.4516   35.3258   49.1342 H   0  0  0  0  0  0  0  0  0  0  0  0
   58.8792   33.7240   48.5546 H   0  0  0  0  0  0  0  0  0  0  0  0
   61.0080   33.6392   47.1187 H   0  0  0  0  0  0  0  0  0  0  0  0
   61.5731   35.0655   48.0863 H   0  0  0  0  0  0  0  0  0  0  0  0
   62.0877   33.7927   49.8753 H   0  0  0  0  0  0  0  0  0  0  0  0
   60.5644   32.8427   49.7468 H   0  0  0  0  0  0  0  0  0  0  0  0
   62.7600   31.3345   46.7285 H   0  0  0  0  0  0  0  0  0  0  0  0
   61.6470   32.7690   46.6942 H   0  0  0  0  0  0  0  0  0  0  0  0
   64.5559   32.6946   46.5473 H   0  0  0  0  0  0  0  0  0  0  0  0
   63.4116   34.0888   46.3525 H   0  0  0  0  0  0  0  0  0  0  0  0
   65.3898   32.2078   48.6425 H   0  0  0  0  0  0  0  0  0  0  0  0
   64.8491   33.2060   50.0596 H   0  0  0  0  0  0  0  0  0  0  0  0
   63.7284   30.7504   49.0998 H   0  0  0  0  0  0  0  0  0  0  0  0
   63.1502   31.8208   50.4467 H   0  0  0  0  0  0  0  0  0  0  0  0
   59.5429   32.3519   47.2706 H   0  0  0  0  0  0  0  0  0  0  0  0
   58.5782   30.0837   46.9115 H   0  0  0  0  0  0  0  0  0  0  0  0
  1  2  1  0
  2  3  2  0
  2  4  2  0
  2  5  1  0
  5  6  2  0
  6  7  1  0
  7  8  2  0
  8  9  1  0
  9 10  2  0
 10 11  1  0
 11 12  1  0
 12 13  2  0
 12 14  2  0
 12 15  1  0
 15 16  2  0
 16 17  1  0
 17 18  2  0
 18 19  1  0
 19 20  2  0
 19 21  1  0
 21 22  1  0
 22 23  1  0
 23 24  1  0
 24 25  1  0
 25 26  1  0
 26 27  1  0
 27 28  1  0
 28 29  1  0
 29 30  1  0
 18 31  1  0
 31 32  2  0
 10  5  1  0
 32 15  1  0
 30 25  1  0
  1 33  1  0
  1 34  1  0
  6 35  1  0
  7 36  1  0
  8 37  1  0
  9 38  1  0
 16 39  1  0
 17 40  1  0
 22 41  1  0
 22 42  1  0
 23 43  1  0
 23 44  1  0
 24 45  1  0
 24 46  1  0
 26 47  1  0
 26 48  1  0
 27 49  1  0
 27 50  1  0
 29 51  1  0
 29 52  1  0
 30 53  1  0
 30 54  1  0
 31 55  1  0
 32 56  1  0
M  CHG  2  11  -1  21  -1
M  END
>  <UniqueID>  (73) 
67

>  <SMILES>  (73) 
NS(=O)(=O)c1ccccc1[N-]S(=O)(=O)c1ccc(C(=O)[N-]CCCN2CCOCC2)cc1

>  <Energy>  (73) 
72.7959437685339

>  <Genealogy>  (73) 
NS(=O)(=O)c1ccccc1[N-]S(=O)(=O)c1ccc(C(=O)[N-]CCCN2CCOCC2)cc1 (protonated)
NS(=O)(=O)c1ccccc1[N-]S(=O)(=O)c1ccc(C(=O)[N-]CCCN2CCOCC2)cc1 (3D coordinates assigned)
NS(=O)(=O)c1ccccc1[N-]S(=O)(=O)c1ccc(C(=O)[N-]CCCN2CCOCC2)cc1 (nonaromatic ring conformer: 72.7959437685339 kcal/mol)

>  <smiles>  (73) 
NS(=O)(=O)c1ccccc1NS(=O)(=O)c1ccc(C(=O)NCCCN2CCOCC2)cc1

>  <score_type>  (73) 
oracle

>  <origin>  (73) 
adg

>  <m_score__min__energy>  (73) 
-11.470000000000001

>  <m_primary>  (73) 
energy

$$$$
73:0
     RDKit          3D

 58 62  0  0  0  0  0  0  0  0999 V2000
   59.4019   30.8401   44.4776 H   0  0  0  0  0  0  0  0  0  0  0  0
   58.9710   29.8560   44.7140 C   0  0  0  0  0  0  0  0  0  0  0  0
   58.6056   29.2068   43.9046 H   0  0  0  0  0  0  0  0  0  0  0  0
   58.8910   29.4470   45.9910 C   0  0  0  0  0  0  0  0  0  0  0  0
   58.3690   28.2260   46.4350 C   0  0  0  0  0  0  0  0  0  0  0  0
   57.8090   27.2590   45.6780 C   0  0  0  0  0  0  0  0  0  0  0  0
   57.8182   27.4028   44.5875 H   0  0  0  0  0  0  0  0  0  0  0  0
   57.1840   26.0220   46.1940 C   0  0  0  0  0  0  0  0  0  0  0  0
   57.8360   24.9020   46.5550 N   0  0  0  0  0  0  0  0  0  0  0  0
   56.8420   24.0470   46.8800 C   0  0  0  0  0  0  0  0  0  0  0  0
   57.0610   22.8740   47.2800 O   0  0  0  0  0  0  0  0  0  0  0  0
   55.5970   24.5470   46.7380 N   0  0  0  0  0  0  0  0  0  0  0  0
   55.8320   25.7940   46.2970 C   0  0  0  0  0  0  0  0  0  0  0  0
   54.8290   26.7070   45.9940 O   0  0  0  0  0  0  0  0  0  0  0  0
   58.5180   28.2260   47.8160 C   0  0  0  0  0  0  0  0  0  0  0  0
   58.2260   27.4210   48.5064 H   0  0  0  0  0  0  0  0  0  0  0  0
   59.1020   29.4280   48.1560 C   0  0  0  0  0  0  0  0  0  0  0  0
   59.4140   29.8100   49.5480 C   0  0  0  0  0  0  0  0  0  0  0  0
   60.5890   29.6080   49.9650 O   0  0  0  0  0  0  0  0  0  0  0  0
   58.3600   30.2080   50.4670 N   0  0  1  0  0  0  0  0  0  0  0  0
   57.4660   29.7590   50.1480 H   0  0  0  0  0  0  0  0  0  0  0  0
   58.6160   29.7130   51.8250 C   0  0  0  0  0  0  0  0  0  0  0  0
   58.2755   28.6710   51.9168 H   0  0  0  0  0  0  0  0  0  0  0  0
   59.6915   29.7405   52.0544 H   0  0  0  0  0  0  0  0  0  0  0  0
   57.8360   30.6030   52.7830 C   0  0  0  0  0  0  0  0  0  0  0  0
   56.9133   30.0995   53.1072 H   0  0  0  0  0  0  0  0  0  0  0  0
   58.4188   30.8294   53.6881 H   0  0  0  0  0  0  0  0  0  0  0  0
   57.5030   31.8670   52.0030 C   0  0  0  0  0  0  0  0  0  0  0  0
   56.4132   32.0051   51.9456 H   0  0  0  0  0  0  0  0  0  0  0  0
   57.9193   32.7621   52.4883 H   0  0  0  0  0  0  0  0  0  0  0  0
   58.0900   31.6630   50.5990 C   0  0  1  0  0  0  0  0  0  0  0  0
   57.3857   31.9690   49.8114 H   0  0  0  0  0  0  0  0  0  0  0  0
   59.2960   32.5650   50.3440 C   0  0  0  0  0  0  0  0  0  0  0  0
   59.2510   33.4960   49.2900 C   0  0  0  0  0  0  0  0  0  0  0  0
   58.3379   33.5886   48.6837 H   0  0  0  0  0  0  0  0  0  0  0  0
   60.3550   34.3040   49.0060 C   0  0  0  0  0  0  0  0  0  0  0  0
   60.3094   35.0245   48.1760 H   0  0  0  0  0  0  0  0  0  0  0  0
   61.5170   34.1980   49.7750 C   0  0  0  0  0  0  0  0  0  0  0  0
   62.3847   34.8363   49.5520 H   0  0  0  0  0  0  0  0  0  0  0  0
   61.5760   33.2810   50.8270 C   0  0  0  0  0  0  0  0  0  0  0  0
   62.4900   33.2003   51.4337 H   0  0  0  0  0  0  0  0  0  0  0  0
   60.4760   32.4650   51.1110 C   0  0  0  0  0  0  0  0  0  0  0  0
   60.5312   31.7410   51.9373 H   0  0  0  0  0  0  0  0  0  0  0  0
   59.3380   30.1730   47.0500 N   0  0  0  0  0  0  0  0  0  0  0  0
   60.0820   31.4400   46.9980 C   0  0  0  0  0  0  0  0  0  0  0  0
   60.3387   31.7499   48.0217 H   0  0  0  0  0  0  0  0  0  0  0  0
   60.9953   31.2889   46.4038 H   0  0  0  0  0  0  0  0  0  0  0  0
   59.2540   32.5200   46.3470 C   0  0  0  0  0  0  0  0  0  0  0  0
   57.8510   32.4640   46.3880 C   0  0  0  0  0  0  0  0  0  0  0  0
   57.3509   31.6176   46.8815 H   0  0  0  0  0  0  0  0  0  0  0  0
   57.0870   33.4800   45.8040 C   0  0  0  0  0  0  0  0  0  0  0  0
   55.9886   33.4278   45.8337 H   0  0  0  0  0  0  0  0  0  0  0  0
   57.7180   34.5610   45.1830 C   0  0  0  0  0  0  0  0  0  0  0  0
   57.1165   35.3599   44.7249 H   0  0  0  0  0  0  0  0  0  0  0  0
   59.1120   34.6270   45.1440 C   0  0  0  0  0  0  0  0  0  0  0  0
   59.6080   35.4802   44.6582 H   0  0  0  0  0  0  0  0  0  0  0  0
   59.8780   33.6110   45.7210 C   0  0  0  0  0  0  0  0  0  0  0  0
   60.9760   33.6661   45.6847 H   0  0  0  0  0  0  0  0  0  0  0  0
  1  2  1  0
  2  3  1  0
  2  4  2  0
  4  5  1  0
  5  6  2  0
  6  7  1  0
  6  8  1  0
  8  9  1  0
  9 10  1  0
 10 11  2  0
 10 12  1  0
 12 13  1  0
 13 14  1  0
  5 15  1  0
 15 16  1  0
 15 17  2  0
 17 18  1  0
 18 19  2  0
 18 20  1  0
 20 21  1  6
 20 22  1  0
 22 23  1  0
 22 24  1  0
 22 25  1  0
 25 26  1  0
 25 27  1  0
 25 28  1  0
 28 29  1  0
 28 30  1  0
 28 31  1  0
 31 32  1  6
 31 33  1  0
 33 34  2  0
 34 35  1  0
 34 36  1  0
 36 37  1  0
 36 38  2  0
 38 39  1  0
 38 40  1  0
 40 41  1  0
 40 42  2  0
 42 43  1  0
 17 44  1  0
 44 45  1  0
 45 46  1  0
 45 47  1  0
 45 48  1  0
 48 49  2  0
 49 50  1  0
 49 51  1  0
 51 52  1  0
 51 53  2  0
 53 54  1  0
 53 55  1  0
 55 56  1  0
 55 57  2  0
 57 58  1  0
 44  4  1  0
 57 48  1  0
 13  8  2  0
 31 20  1  0
 42 33  1  0
M  CHG  4   9  -1  12  -1  14  -1  20   1
M  END
>  <UniqueID>  (74) 
68

>  <SMILES>  (74) 
C=c1/c(=C/c2[n-]c(=O)[n-]c2[O-])cc(C(=O)[N@H+]2CCC[C@H]2c2ccccc2)n1Cc1ccccc1

>  <Energy>  (74) 
142.21581889087153

>  <Genealogy>  (74) 
C=c1c(=Cc2[n-]c(=O)[n-]c2[O-])cc(C(=O)[NH+]2CCCC2c2ccccc2)n1Cc1ccccc1 (protonated)
C=c1c(=Cc2[n-]c(=O)[n-]c2[O-])cc(C(=O)[N@H+]2CCC[C@H]2c2ccccc2)n1Cc1ccccc1 (chirality)
C=c1/c(=C/c2[n-]c(=O)[n-]c2[O-])cc(C(=O)[N@H+]2CCC[C@H]2c2ccccc2)n1Cc1ccccc1 (cis-trans isomerization)
C=c1/c(=C/c2[n-]c(=O)[n-]c2[O-])cc(C(=O)[N@H+]2CCC[C@H]2c2ccccc2)n1Cc1ccccc1 (3D coordinates assigned)
C=c1/c(=C/c2[n-]c(=O)[n-]c2[O-])cc(C(=O)[N@H+]2CCC[C@H]2c2ccccc2)n1Cc1ccccc1 (nonaromatic ring conformer: 142.21581889087153 kcal/mol)

>  <smiles>  (74) 
C=c1c(=Cc2[nH]c(=O)[nH]c2O)cc(C(=O)N2CCCC2c2ccccc2)n1Cc1ccccc1

>  <score_type>  (74) 
oracle

>  <origin>  (74) 
adg

>  <m_score__min__energy>  (74) 
-16.219999999999999

>  <m_primary>  (74) 
energy

$$$$
74:0
     RDKit          3D

 57 61  0  0  0  0  0  0  0  0999 V2000
   58.9168   33.7157   53.1348 H   0  0  0  0  0  0  0  0  0  0  0  0
   58.8200   33.3000   52.1210 C   0  0  0  0  0  0  0  0  0  0  0  0
   59.2660   33.8880   50.9940 N   0  0  0  0  0  0  0  0  0  0  0  0
   58.9740   33.0900   49.9770 N   0  0  0  0  0  0  0  0  0  0  0  0
   59.2890   33.4010   48.6040 C   0  0  0  0  0  0  0  0  0  0  0  0
   60.5450   33.9430   48.2770 C   0  0  0  0  0  0  0  0  0  0  0  0
   61.2770   34.1432   49.0733 H   0  0  0  0  0  0  0  0  0  0  0  0
   60.8700   34.2290   46.9490 C   0  0  0  0  0  0  0  0  0  0  0  0
   61.8582   34.6455   46.7039 H   0  0  0  0  0  0  0  0  0  0  0  0
   59.9450   33.9880   45.9320 C   0  0  0  0  0  0  0  0  0  0  0  0
   60.2124   34.2040   44.8871 H   0  0  0  0  0  0  0  0  0  0  0  0
   58.6790   33.4730   46.2340 C   0  0  0  0  0  0  0  0  0  0  0  0
   57.7720   33.2030   45.1530 N   0  0  0  0  0  0  0  0  0  0  0  0
   57.5440   32.0500   44.5920 C   0  0  0  0  0  0  0  0  0  0  0  0
   57.8610   30.9130   45.2640 N   0  0  0  0  0  0  0  0  0  0  0  0
   57.6680   29.6800   44.7200 C   0  0  0  0  0  0  0  0  0  0  0  0
   58.0300   28.4710   45.5020 C   0  0  0  0  0  0  0  0  0  0  0  0
   59.3670   28.2250   45.8660 C   0  0  0  0  0  0  0  0  0  0  0  0
   60.1529   28.9346   45.5680 H   0  0  0  0  0  0  0  0  0  0  0  0
   59.7040   27.0880   46.6020 C   0  0  0  0  0  0  0  0  0  0  0  0
   60.7545   26.8973   46.8668 H   0  0  0  0  0  0  0  0  0  0  0  0
   58.7110   26.1920   47.0030 C   0  0  0  0  0  0  0  0  0  0  0  0
   58.9838   25.2897   47.5699 H   0  0  0  0  0  0  0  0  0  0  0  0
   57.3720   26.4370   46.6870 C   0  0  0  0  0  0  0  0  0  0  0  0
   56.3790   25.4890   47.1010 N   0  0  0  0  0  0  0  0  0  0  0  0
   55.4960   24.7550   46.2400 C   0  0  0  0  0  0  0  0  0  0  0  0
   54.4630   25.3350   45.8130 O   0  0  0  0  0  0  0  0  0  0  0  0
   55.8620   23.3730   45.7140 C   0  0  2  0  0  0  0  0  0  0  0  0
   55.5733   22.6693   46.5087 H   0  0  0  0  0  0  0  0  0  0  0  0
   57.3730   23.2970   45.4380 C   0  0  0  0  0  0  0  0  0  0  0  0
   57.6616   22.2404   45.3365 H   0  0  0  0  0  0  0  0  0  0  0  0
   57.8941   23.7758   46.2801 H   0  0  0  0  0  0  0  0  0  0  0  0
   57.7710   24.0490   44.1440 C   0  0  0  0  0  0  0  0  0  0  0  0
   58.4251   23.3951   43.5486 H   0  0  0  0  0  0  0  0  0  0  0  0
   58.2761   24.9766   44.4515 H   0  0  0  0  0  0  0  0  0  0  0  0
   56.6620   24.4240   43.3430 O   0  0  0  0  0  0  0  0  0  0  0  0
   55.8080   23.3180   43.1360 C   0  0  0  0  0  0  0  0  0  0  0  0
   56.4059   22.4611   42.7922 H   0  0  0  0  0  0  0  0  0  0  0  0
   55.0569   23.5913   42.3802 H   0  0  0  0  0  0  0  0  0  0  0  0
   55.0730   22.9310   44.4470 C   0  0  2  0  0  0  0  0  0  0  0  0
   55.0231   21.8324   44.4703 H   0  0  0  0  0  0  0  0  0  0  0  0
   53.6920   23.4280   44.4650 N   0  0  0  0  0  0  0  0  0  0  0  0
   53.6810   24.3880   44.0510 H   0  0  0  0  0  0  0  0  0  0  0  0
   53.3630   23.5240   45.4520 H   0  0  0  0  0  0  0  0  0  0  0  0
   57.0340   27.5590   45.9090 C   0  0  0  0  0  0  0  0  0  0  0  0
   55.7500   27.7280   45.5020 F   0  0  0  0  0  0  0  0  0  0  0  0
   57.1300   29.5860   43.4280 C   0  0  0  0  0  0  0  0  0  0  0  0
   56.9554   28.6042   42.9636 H   0  0  0  0  0  0  0  0  0  0  0  0
   56.8210   30.7600   42.7440 C   0  0  0  0  0  0  0  0  0  0  0  0
   56.4020   30.7106   41.7281 H   0  0  0  0  0  0  0  0  0  0  0  0
   57.0370   31.9640   43.3310 N   0  0  0  0  0  0  0  0  0  0  0  0
   58.3660   33.1520   47.5690 C   0  0  0  0  0  0  0  0  0  0  0  0
   57.3906   32.7021   47.8062 H   0  0  0  0  0  0  0  0  0  0  0  0
   58.3370   31.9930   50.4390 C   0  0  0  0  0  0  0  0  0  0  0  0
   57.9704   31.1570   49.8252 H   0  0  0  0  0  0  0  0  0  0  0  0
   58.2230   32.0960   51.8080 C   0  0  0  0  0  0  0  0  0  0  0  0
   57.7586   31.3771   52.4991 H   0  0  0  0  0  0  0  0  0  0  0  0
  1  2  1  0
  2  3  2  0
  3  4  1  0
  4  5  1  0
  5  6  2  0
  6  7  1  0
  6  8  1  0
  8  9  1  0
  8 10  2  0
 10 11  1  0
 10 12  1  0
 12 13  1  0
 13 14  2  0
 14 15  1  0
 15 16  2  0
 16 17  1  0
 17 18  2  0
 18 19  1  0
 18 20  1  0
 20 21  1  0
 20 22  2  0
 22 23  1  0
 22 24  1  0
 24 25  1  0
 25 26  1  0
 26 27  2  0
 26 28  1  0
 28 29  1  1
 28 30  1  0
 30 31  1  0
 30 32  1  0
 30 33  1  0
 33 34  1  0
 33 35  1  0
 33 36  1  0
 36 37  1  0
 37 38  1  0
 37 39  1  0
 37 40  1  0
 40 41  1  1
 40 42  1  0
 42 43  1  0
 42 44  1  0
 24 45  2  0
 45 46  1  0
 16 47  1  0
 47 48  1  0
 47 49  2  0
 49 50  1  0
 49 51  1  0
 12 52  2  0
 52 53  1  0
  4 54  1  0
 54 55  1  0
 54 56  2  0
 56 57  1  0
 56  2  1  0
 52  5  1  0
 51 14  1  0
 45 17  1  0
 40 28  1  0
M  CHG  2  25  -1  51  -1
M  END
>  <UniqueID>  (75) 
69

>  <SMILES>  (75) 
N[C@H]1COCC[C@H]1C(=O)[N-]c1cccc(-c2cc[n-]/c(=N\c3cccc(-n4cccn4)c3)n2)c1F

>  <Energy>  (75) 
123.58519755816559

>  <Genealogy>  (75) 
NC1COCCC1C(=O)[N-]c1cccc(-c2cc[n-]c(=Nc3cccc(-n4cccn4)c3)n2)c1F (protonated)
N[C@H]1COCC[C@H]1C(=O)[N-]c1cccc(-c2cc[n-]c(=Nc3cccc(-n4cccn4)c3)n2)c1F (chirality)
N[C@H]1COCC[C@H]1C(=O)[N-]c1cccc(-c2cc[n-]/c(=N\c3cccc(-n4cccn4)c3)n2)c1F (cis-trans isomerization)
N[C@H]1COCC[C@H]1C(=O)[N-]c1cccc(-c2cc[n-]/c(=N\c3cccc(-n4cccn4)c3)n2)c1F (3D coordinates assigned)
N[C@H]1COCC[C@H]1C(=O)[N-]c1cccc(-c2cc[n-]/c(=N\c3cccc(-n4cccn4)c3)n2)c1F (nonaromatic ring conformer: 123.58519755816559 kcal/mol)

>  <smiles>  (75) 
NC1COCCC1C(=O)Nc1cccc(-c2cc[nH]c(=Nc3cccc(-n4cccn4)c3)n2)c1F

>  <score_type>  (75) 
oracle

>  <origin>  (75) 
adg

>  <m_score__min__energy>  (75) 
-13.42

>  <m_primary>  (75) 
energy

$$$$
75:0
     RDKit          3D

 49 51  0  0  0  0  0  0  0  0999 V2000
   65.1657   32.9693   49.0145 H   0  0  0  0  0  0  0  0  0  0  0  0
   64.1210   33.2590   48.8280 C   0  0  0  0  0  0  0  0  0  0  0  0
   63.5750   33.1200   47.5490 C   0  0  0  0  0  0  0  0  0  0  0  0
   64.1888   32.7161   46.7304 H   0  0  0  0  0  0  0  0  0  0  0  0
   62.2490   33.4940   47.3090 C   0  0  0  0  0  0  0  0  0  0  0  0
   61.8212   33.3789   46.3021 H   0  0  0  0  0  0  0  0  0  0  0  0
   61.4610   34.0160   48.3480 C   0  0  0  0  0  0  0  0  0  0  0  0
   60.0220   34.3910   48.0930 C   0  0  0  0  0  0  0  0  0  0  0  0
   59.9552   35.4812   47.9627 H   0  0  0  0  0  0  0  0  0  0  0  0
   59.4231   34.0601   48.9543 H   0  0  0  0  0  0  0  0  0  0  0  0
   59.4690   33.7010   46.8280 C   0  0  0  0  0  0  0  0  0  0  0  0
   60.0764   32.8007   46.6534 H   0  0  0  0  0  0  0  0  0  0  0  0
   59.5920   34.6300   45.6060 C   0  0  0  0  0  0  0  0  0  0  0  0
   60.6413   34.9412   45.4956 H   0  0  0  0  0  0  0  0  0  0  0  0
   58.9439   35.5044   45.7655 H   0  0  0  0  0  0  0  0  0  0  0  0
   59.1400   33.9140   44.3150 C   0  0  0  0  0  0  0  0  0  0  0  0
   60.0233   33.4826   43.8214 H   0  0  0  0  0  0  0  0  0  0  0  0
   58.6451   34.6571   43.6725 H   0  0  0  0  0  0  0  0  0  0  0  0
   58.1690   32.8300   44.5870 N   0  0  0  0  0  0  0  0  0  0  0  0
   57.5290   32.2800   43.3720 C   0  0  0  0  0  0  0  0  0  0  0  0
   58.3051   32.1689   42.6004 H   0  0  0  0  0  0  0  0  0  0  0  0
   56.7339   32.9901   43.1006 H   0  0  0  0  0  0  0  0  0  0  0  0
   56.8460   30.9340   43.5470 C   0  0  0  0  0  0  0  0  0  0  0  0
   56.5590   30.2340   42.5400 O   0  0  0  0  0  0  0  0  0  0  0  0
   56.5210   30.3990   44.8430 N   0  0  0  0  0  0  0  0  0  0  0  0
   56.8790   29.2590   45.3620 C   0  0  0  0  0  0  0  0  0  0  0  0
   58.0600   29.0380   45.9840 N   0  0  0  0  0  0  0  0  0  0  0  0
   57.9950   27.7390   46.3400 C   0  0  0  0  0  0  0  0  0  0  0  0
   59.0920   27.0180   47.0530 C   0  0  0  0  0  0  0  0  0  0  0  0
   58.9476   27.1129   48.1393 H   0  0  0  0  0  0  0  0  0  0  0  0
   59.0748   25.9545   46.7723 H   0  0  0  0  0  0  0  0  0  0  0  0
   60.0614   27.4556   46.7723 H   0  0  0  0  0  0  0  0  0  0  0  0
   56.8010   27.1990   45.9040 C   0  0  0  0  0  0  0  0  0  0  0  0
   56.3080   25.8040   46.1260 C   0  0  0  0  0  0  0  0  0  0  0  0
   56.2385   25.6072   47.2060 H   0  0  0  0  0  0  0  0  0  0  0  0
   55.3147   25.6888   45.6676 H   0  0  0  0  0  0  0  0  0  0  0  0
   57.0084   25.0903   45.6676 H   0  0  0  0  0  0  0  0  0  0  0  0
   56.0930   28.1670   45.3000 N   0  0  0  0  0  0  0  0  0  0  0  0
   55.1410   28.0890   44.8740 H   0  0  0  0  0  0  0  0  0  0  0  0
   57.2340   33.1400   45.6830 C   0  0  0  0  0  0  0  0  0  0  0  0
   56.4815   32.3411   45.7564 H   0  0  0  0  0  0  0  0  0  0  0  0
   56.7402   34.1006   45.4747 H   0  0  0  0  0  0  0  0  0  0  0  0
   57.9980   33.2440   47.0150 C   0  0  0  0  0  0  0  0  0  0  0  0
   57.9953   32.2568   47.5002 H   0  0  0  0  0  0  0  0  0  0  0  0
   57.4907   34.0014   47.6305 H   0  0  0  0  0  0  0  0  0  0  0  0
   62.0140   34.1430   49.6340 C   0  0  0  0  0  0  0  0  0  0  0  0
   61.4020   34.5401   50.4573 H   0  0  0  0  0  0  0  0  0  0  0  0
   63.3400   33.7660   49.8700 C   0  0  0  0  0  0  0  0  0  0  0  0
   63.7689   33.8688   50.8777 H   0  0  0  0  0  0  0  0  0  0  0  0
  1  2  1  0
  2  3  2  0
  3  4  1  0
  3  5  1  0
  5  6  1  0
  5  7  2  0
  7  8  1  0
  8  9  1  0
  8 10  1  0
  8 11  1  0
 11 12  1  0
 11 13  1  0
 13 14  1  0
 13 15  1  0
 13 16  1  0
 16 17  1  0
 16 18  1  0
 16 19  1  0
 19 20  1  0
 20 21  1  0
 20 22  1  0
 20 23  1  0
 23 24  2  0
 23 25  1  0
 25 26  2  0
 26 27  1  0
 27 28  1  0
 28 29  1  0
 29 30  1  0
 29 31  1  0
 29 32  1  0
 28 33  2  0
 33 34  1  0
 34 35  1  0
 34 36  1  0
 34 37  1  0
 33 38  1  0
 38 39  1  0
 19 40  1  0
 40 41  1  0
 40 42  1  0
 40 43  1  0
 43 44  1  0
 43 45  1  0
  7 46  1  0
 46 47  1  0
 46 48  2  0
 48 49  1  0
 48  2  1  0
 43 11  1  0
 38 26  1  0
M  CHG  1  27  -1
M  END
>  <UniqueID>  (76) 
70

>  <SMILES>  (76) 
Cc1[n-]/c(=N\C(=O)CN2CCC(Cc3ccccc3)CC2)[nH]c1C

>  <Energy>  (76) 
89.17450412263659

>  <Genealogy>  (76) 
Cc1[n-]c(=NC(=O)CN2CCC(Cc3ccccc3)CC2)[nH]c1C (protonated)
Cc1[n-]/c(=N\C(=O)CN2CCC(Cc3ccccc3)CC2)[nH]c1C (cis-trans isomerization)
Cc1[n-]/c(=N\C(=O)CN2CCC(Cc3ccccc3)CC2)[nH]c1C (3D coordinates assigned)
Cc1[n-]/c(=N\C(=O)CN2CCC(Cc3ccccc3)CC2)[nH]c1C (nonaromatic ring conformer: 89.17450412263659 kcal/mol)

>  <smiles>  (76) 
Cc1[nH]c(=NC(=O)CN2CCC(Cc3ccccc3)CC2)[nH]c1C

>  <score_type>  (76) 
oracle

>  <origin>  (76) 
adg

>  <m_score__min__energy>  (76) 
-10.91

>  <m_primary>  (76) 
energy

$$$$
76:0
     RDKit          3D

 47 50  0  0  0  0  0  0  0  0999 V2000
   57.6810   24.1920   47.6460 H   0  0  0  0  0  0  0  0  0  0  0  0
   56.9900   24.3590   46.8840 N   0  0  0  0  0  0  0  0  0  0  0  0
   56.6890   25.5420   46.4500 C   0  0  0  0  0  0  0  0  0  0  0  0
   55.4430   25.8830   46.0850 N   0  0  0  0  0  0  0  0  0  0  0  0
   55.5130   27.0980   45.6230 O   0  0  0  0  0  0  0  0  0  0  0  0
   56.7400   27.5690   45.6750 C   0  0  0  0  0  0  0  0  0  0  0  0
   57.1030   28.9030   45.1540 C   0  0  0  0  0  0  0  0  0  0  0  0
   57.5730   29.9240   45.9970 C   0  0  0  0  0  0  0  0  0  0  0  0
   57.6971   29.7308   47.0728 H   0  0  0  0  0  0  0  0  0  0  0  0
   57.8840   31.1840   45.4770 C   0  0  0  0  0  0  0  0  0  0  0  0
   58.2631   31.9742   46.1418 H   0  0  0  0  0  0  0  0  0  0  0  0
   57.7140   31.4410   44.1140 C   0  0  0  0  0  0  0  0  0  0  0  0
   58.1030   33.0240   43.4630 Cl  0  0  0  0  0  0  0  0  0  0  0  0
   57.2240   30.4390   43.2710 C   0  0  0  0  0  0  0  0  0  0  0  0
   57.0839   30.6422   42.1990 H   0  0  0  0  0  0  0  0  0  0  0  0
   56.9120   29.1790   43.7900 C   0  0  0  0  0  0  0  0  0  0  0  0
   56.5140   28.3980   43.1254 H   0  0  0  0  0  0  0  0  0  0  0  0
   57.5660   26.5950   46.2340 C   0  0  0  0  0  0  0  0  0  0  0  0
   59.0720   26.5840   46.3270 C   0  0  0  0  0  0  0  0  0  0  0  0
   59.3800   25.7267   46.9435 H   0  0  0  0  0  0  0  0  0  0  0  0
   59.4671   26.5123   45.3029 H   0  0  0  0  0  0  0  0  0  0  0  0
   59.6270   27.8430   46.9410 C   0  0  0  0  0  0  0  0  0  0  0  0
   59.5270   28.1680   48.2810 C   0  0  0  0  0  0  0  0  0  0  0  0
   59.0023   27.5950   49.0597 H   0  0  0  0  0  0  0  0  0  0  0  0
   60.2150   29.3530   48.4500 C   0  0  0  0  0  0  0  0  0  0  0  0
   60.3510   30.0470   49.7400 C   0  0  0  0  0  0  0  0  0  0  0  0
   60.6020   29.3830   50.7800 O   0  0  0  0  0  0  0  0  0  0  0  0
   60.1300   31.4540   49.8400 N   0  0  0  0  0  0  0  0  0  0  0  0
   59.5690   32.5410   49.0160 C   0  0  0  0  0  0  0  0  0  0  0  0
   60.2008   32.7866   48.1497 H   0  0  0  0  0  0  0  0  0  0  0  0
   58.5952   32.3567   48.5389 H   0  0  0  0  0  0  0  0  0  0  0  0
   59.6180   33.5870   50.0800 C   0  0  0  0  0  0  0  0  0  0  0  0
   60.3001   34.4283   49.8876 H   0  0  0  0  0  0  0  0  0  0  0  0
   58.7538   34.1966   50.3824 H   0  0  0  0  0  0  0  0  0  0  0  0
   60.1820   32.4750   50.9010 C   0  0  0  0  0  0  0  0  0  0  0  0
   61.2071   32.6785   51.2443 H   0  0  0  0  0  0  0  0  0  0  0  0
   59.6702   32.2412   51.8462 H   0  0  0  0  0  0  0  0  0  0  0  0
   60.7670   29.7460   47.2790 N   0  0  0  0  0  0  0  0  0  0  0  0
   61.6960   30.8600   47.0670 C   0  0  0  0  0  0  0  0  0  0  0  0
   62.0244   31.2538   48.0402 H   0  0  0  0  0  0  0  0  0  0  0  0
   62.5701   30.5058   46.5009 H   0  0  0  0  0  0  0  0  0  0  0  0
   61.1906   31.6563   46.5009 H   0  0  0  0  0  0  0  0  0  0  0  0
   60.3960   28.8390   46.3450 C   0  0  0  0  0  0  0  0  0  0  0  0
   60.8770   28.8510   44.9230 C   0  0  0  0  0  0  0  0  0  0  0  0
   61.9766   28.8784   44.9081 H   0  0  0  0  0  0  0  0  0  0  0  0
   60.5258   27.9438   44.4095 H   0  0  0  0  0  0  0  0  0  0  0  0
   60.4810   29.7395   44.4095 H   0  0  0  0  0  0  0  0  0  0  0  0
  1  2  1  0
  2  3  2  0
  3  4  1  0
  4  5  1  0
  5  6  1  0
  6  7  1  0
  7  8  2  0
  8  9  1  0
  8 10  1  0
 10 11  1  0
 10 12  2  0
 12 13  1  0
 12 14  1  0
 14 15  1  0
 14 16  2  0
 16 17  1  0
  6 18  2  0
 18 19  1  0
 19 20  1  0
 19 21  1  0
 19 22  1  0
 22 23  1  0
 23 24  1  0
 23 25  2  0
 25 26  1  0
 26 27  2  0
 26 28  1  0
 28 29  1  0
 29 30  1  0
 29 31  1  0
 29 32  1  0
 32 33  1  0
 32 34  1  0
 32 35  1  0
 35 36  1  0
 35 37  1  0
 25 38  1  0
 38 39  1  0
 39 40  1  0
 39 41  1  0
 39 42  1  0
 38 43  1  0
 43 44  1  0
 44 45  1  0
 44 46  1  0
 44 47  1  0
 18  3  1  0
 43 22  2  0
 16  7  1  0
 35 28  1  0
M  CHG  1   4  -1
M  END
>  <UniqueID>  (77) 
71

>  <SMILES>  (77) 
[H]/N=c1/[n-]oc(-c2ccc(Cl)cc2)c1Cc1cc(C(=O)N2CCC2)n(C)c1C

>  <Energy>  (77) 
160.10490704276165

>  <Genealogy>  (77) 
Cc1c(Cc2c(-c3ccc(Cl)cc3)o[n-]c2=N)cc(C(=O)N2CCC2)n1C (protonated)
[H]/N=c1/[n-]oc(-c2ccc(Cl)cc2)c1Cc1cc(C(=O)N2CCC2)n(C)c1C (cis-trans isomerization)
[H]/N=c1/[n-]oc(-c2ccc(Cl)cc2)c1Cc1cc(C(=O)N2CCC2)n(C)c1C (3D coordinates assigned)
[H]/N=c1/[n-]oc(-c2ccc(Cl)cc2)c1Cc1cc(C(=O)N2CCC2)n(C)c1C (nonaromatic ring conformer: 160.10490704276165 kcal/mol)

>  <smiles>  (77) 
Cc1c(Cc2c(-c3ccc(Cl)cc3)o[nH]c2=N)cc(C(=O)N2CCC2)n1C

>  <score_type>  (77) 
oracle

>  <origin>  (77) 
adg

>  <m_score__min__energy>  (77) 
-10.449999999999999

>  <m_primary>  (77) 
energy

$$$$
77:0
     RDKit          3D

 48 51  0  0  0  0  0  0  0  0999 V2000
   57.3720   25.0320   44.2360 C   0  0  0  0  0  0  0  0  0  0  0  0
   57.6160   25.2410   45.5380 C   0  0  0  0  0  0  0  0  0  0  0  0
   56.8970   24.7560   46.6420 C   0  0  0  0  0  0  0  0  0  0  0  0
   55.9170   23.8360   46.7060 C   0  0  0  0  0  0  0  0  0  0  0  0
   54.6330   23.8930   45.9880 C   0  0  0  0  0  0  0  0  0  0  0  0
   53.8440   22.8370   45.7250 N   0  0  0  0  0  0  0  0  0  0  0  0
   52.7250   23.3720   45.2010 C   0  0  0  0  0  0  0  0  0  0  0  0
   51.7450   22.6780   44.8220 O   0  0  0  0  0  0  0  0  0  0  0  0
   52.7380   24.7200   45.1310 N   0  0  0  0  0  0  0  0  0  0  0  0
   53.9440   25.0330   45.6460 C   0  0  0  0  0  0  0  0  0  0  0  0
   54.3990   26.3350   45.8080 O   0  0  0  0  0  0  0  0  0  0  0  0
   57.3450   25.3670   47.7590 N   0  0  0  0  0  0  0  0  0  0  0  0
   58.3420   26.1620   47.3330 C   0  0  0  0  0  0  0  0  0  0  0  0
   59.0100   26.8930   48.1110 O   0  0  0  0  0  0  0  0  0  0  0  0
   58.5510   26.1050   46.0000 N   0  0  0  0  0  0  0  0  0  0  0  0
   59.5050   26.9210   45.2360 C   0  0  0  0  0  0  0  0  0  0  0  0
   59.2790   28.3890   45.4940 C   0  0  0  0  0  0  0  0  0  0  0  0
   60.2750   29.1590   46.1130 C   0  0  0  0  0  0  0  0  0  0  0  0
   60.0680   30.5180   46.3610 C   0  0  0  0  0  0  0  0  0  0  0  0
   58.8630   31.1340   45.9860 C   0  0  0  0  0  0  0  0  0  0  0  0
   58.6410   32.5330   46.2570 N   0  0  0  0  0  0  0  0  0  0  0  0
   59.1640   33.1300   47.4960 C   0  0  0  0  0  0  0  0  0  0  0  0
   59.1800   34.6640   47.4210 C   0  0  0  0  0  0  0  0  0  0  0  0
   59.6730   35.1230   46.0430 C   0  0  0  0  0  0  0  0  0  0  0  0
   59.7050   36.5070   46.0030 F   0  0  0  0  0  0  0  0  0  0  0  0
   58.7890   34.5870   44.8910 C   0  0  0  0  0  0  0  0  0  0  0  0
   57.9250   33.3820   45.2970 C   0  0  0  0  0  0  0  0  0  0  0  0
   57.8660   30.3630   45.3670 C   0  0  0  0  0  0  0  0  0  0  0  0
   58.0750   29.0040   45.1170 C   0  0  0  0  0  0  0  0  0  0  0  0
   58.0272   25.4805   43.4747 H   0  0  0  0  0  0  0  0  0  0  0  0
   56.5166   24.4121   43.9293 H   0  0  0  0  0  0  0  0  0  0  0  0
   56.0909   22.9633   47.3527 H   0  0  0  0  0  0  0  0  0  0  0  0
   54.0370   21.8280   45.9190 H   0  0  0  0  0  0  0  0  0  0  0  0
   60.5291   26.6552   45.5369 H   0  0  0  0  0  0  0  0  0  0  0  0
   59.3583   26.7243   44.1637 H   0  0  0  0  0  0  0  0  0  0  0  0
   61.2258   28.6892   46.4051 H   0  0  0  0  0  0  0  0  0  0  0  0
   60.8540   31.1095   46.8532 H   0  0  0  0  0  0  0  0  0  0  0  0
   58.5275   32.8203   48.3380 H   0  0  0  0  0  0  0  0  0  0  0  0
   60.1978   32.7814   47.6364 H   0  0  0  0  0  0  0  0  0  0  0  0
   58.1623   35.0464   47.5885 H   0  0  0  0  0  0  0  0  0  0  0  0
   59.8599   35.0535   48.1930 H   0  0  0  0  0  0  0  0  0  0  0  0
   60.6829   34.7121   45.8975 H   0  0  0  0  0  0  0  0  0  0  0  0
   58.1237   35.3964   44.5559 H   0  0  0  0  0  0  0  0  0  0  0  0
   59.4652   34.2484   44.0922 H   0  0  0  0  0  0  0  0  0  0  0  0
   56.9941   33.7436   45.7582 H   0  0  0  0  0  0  0  0  0  0  0  0
   57.6990   32.7888   44.3986 H   0  0  0  0  0  0  0  0  0  0  0  0
   56.9141   30.8318   45.0769 H   0  0  0  0  0  0  0  0  0  0  0  0
   57.2909   28.4126   44.6216 H   0  0  0  0  0  0  0  0  0  0  0  0
  1  2  2  0
  2  3  1  0
  3  4  2  3
  4  5  1  0
  5  6  1  0
  6  7  1  0
  7  8  2  0
  7  9  1  0
  9 10  1  0
 10 11  1  0
  3 12  1  0
 12 13  1  0
 13 14  2  0
 13 15  1  0
 15 16  1  0
 16 17  1  0
 17 18  2  0
 18 19  1  0
 19 20  2  0
 20 21  1  0
 21 22  1  0
 22 23  1  0
 23 24  1  0
 24 25  1  0
 24 26  1  0
 26 27  1  0
 20 28  1  0
 28 29  2  0
 15  2  1  0
 29 17  1  0
 10  5  2  0
 27 21  1  0
  1 30  1  0
  1 31  1  0
  4 32  1  0
  6 33  1  0
 16 34  1  0
 16 35  1  0
 18 36  1  0
 19 37  1  0
 22 38  1  0
 22 39  1  0
 23 40  1  0
 23 41  1  0
 24 42  1  0
 26 43  1  0
 26 44  1  0
 27 45  1  0
 27 46  1  0
 28 47  1  0
 29 48  1  0
M  CHG  3   9  -1  11  -1  12  -1
M  END
>  <UniqueID>  (78) 
72

>  <SMILES>  (78) 
C=c1c(=Cc2[nH]c(=O)[n-]c2[O-])[n-]c(=O)n1Cc1ccc(N2CCC(F)CC2)cc1

>  <Energy>  (78) 
130.37616515351917

>  <Genealogy>  (78) 
C=c1c(=Cc2[nH]c(=O)[n-]c2[O-])[n-]c(=O)n1Cc1ccc(N2CCC(F)CC2)cc1 (protonated)
C=c1c(=Cc2[nH]c(=O)[n-]c2[O-])[n-]c(=O)n1Cc1ccc(N2CCC(F)CC2)cc1 (3D coordinates assigned)
C=c1c(=Cc2[nH]c(=O)[n-]c2[O-])[n-]c(=O)n1Cc1ccc(N2CCC(F)CC2)cc1 (nonaromatic ring conformer: 130.37616515351917 kcal/mol)

>  <smiles>  (78) 
C=c1c(=Cc2[nH]c(=O)[nH]c2O)[nH]c(=O)n1Cc1ccc(N2CCC(F)CC2)cc1

>  <score_type>  (78) 
oracle

>  <origin>  (78) 
adg

>  <m_score__min__energy>  (78) 
-15.18

>  <m_primary>  (78) 
energy

$$$$
78:0
     RDKit          3D

 53 56  0  0  0  0  0  0  0  0999 V2000
   59.9580   32.0270   49.0090 N   0  0  0  0  0  0  0  0  0  0  0  0
   61.0510   31.4460   47.8010 S   0  0  0  0  0  0  0  0  0  0  0  0
   61.2150   32.4880   46.7310 O   0  0  0  0  0  0  0  0  0  0  0  0
   62.3910   31.1810   48.4240 O   0  0  0  0  0  0  0  0  0  0  0  0
   60.4160   29.9620   47.0950 C   0  0  0  0  0  0  0  0  0  0  0  0
   59.9150   28.9480   47.9210 C   0  0  0  0  0  0  0  0  0  0  0  0
   59.4000   27.7750   47.3610 C   0  0  0  0  0  0  0  0  0  0  0  0
   59.3790   27.6040   45.9670 C   0  0  0  0  0  0  0  0  0  0  0  0
   58.8290   26.3370   45.3680 C   0  0  0  0  0  0  0  0  0  0  0  0
   57.3570   26.2130   45.6410 C   0  0  0  0  0  0  0  0  0  0  0  0
   56.7300   25.0330   45.8000 N   0  0  0  0  0  0  0  0  0  0  0  0
   55.4430   25.3870   45.9910 C   0  0  0  0  0  0  0  0  0  0  0  0
   54.5290   24.5440   46.1850 O   0  0  0  0  0  0  0  0  0  0  0  0
   55.2120   26.7150   45.9570 N   0  0  0  0  0  0  0  0  0  0  0  0
   56.4290   27.2360   45.7200 C   0  0  0  0  0  0  0  0  0  0  0  0
   56.6950   28.7080   45.6330 C   0  0  0  0  0  0  0  0  0  0  0  0
   55.9980   29.3140   44.4120 C   0  0  0  0  0  0  0  0  0  0  0  0
   56.7550   30.5160   43.9190 C   0  0  0  0  0  0  0  0  0  0  0  0
   56.9060   30.7390   42.5420 C   0  0  0  0  0  0  0  0  0  0  0  0
   57.5860   31.8670   42.0830 C   0  0  0  0  0  0  0  0  0  0  0  0
   58.1070   32.7910   42.9910 C   0  0  0  0  0  0  0  0  0  0  0  0
   57.9400   32.6030   44.3750 C   0  0  0  0  0  0  0  0  0  0  0  0
   58.4780   33.5610   45.3080 N   0  0  0  0  0  0  0  0  0  0  0  0
   59.2890   34.7110   44.9390 C   0  0  0  0  0  0  0  0  0  0  0  0
   59.8230   35.2970   46.2590 C   0  0  0  0  0  0  0  0  0  0  0  0
   59.0370   34.6340   47.3980 C   0  0  0  0  0  0  0  0  0  0  0  0
   58.2970   33.5540   46.7150 C   0  0  0  0  0  0  0  0  0  0  0  0
   57.5280   32.7570   47.3140 O   0  0  0  0  0  0  0  0  0  0  0  0
   57.2660   31.4560   44.8290 C   0  0  0  0  0  0  0  0  0  0  0  0
   59.8670   28.6320   45.1420 C   0  0  0  0  0  0  0  0  0  0  0  0
   60.3820   29.8030   45.7040 C   0  0  0  0  0  0  0  0  0  0  0  0
   58.9950   31.9430   48.6140 H   0  0  0  0  0  0  0  0  0  0  0  0
   60.0130   31.3640   49.8140 H   0  0  0  0  0  0  0  0  0  0  0  0
   59.9267   29.0748   49.0136 H   0  0  0  0  0  0  0  0  0  0  0  0
   59.0092   26.9819   48.0155 H   0  0  0  0  0  0  0  0  0  0  0  0
   58.9942   26.3509   44.2806 H   0  0  0  0  0  0  0  0  0  0  0  0
   59.3454   25.4789   45.8228 H   0  0  0  0  0  0  0  0  0  0  0  0
   56.3182   29.1972   46.5433 H   0  0  0  0  0  0  0  0  0  0  0  0
   57.7792   28.8657   45.5351 H   0  0  0  0  0  0  0  0  0  0  0  0
   55.9511   28.5616   43.6109 H   0  0  0  0  0  0  0  0  0  0  0  0
   54.9825   29.6248   44.6986 H   0  0  0  0  0  0  0  0  0  0  0  0
   56.4864   30.0214   41.8216 H   0  0  0  0  0  0  0  0  0  0  0  0
   57.7122   32.0292   41.0024 H   0  0  0  0  0  0  0  0  0  0  0  0
   58.6519   33.6722   42.6214 H   0  0  0  0  0  0  0  0  0  0  0  0
   60.1238   34.3986   44.2945 H   0  0  0  0  0  0  0  0  0  0  0  0
   58.7026   35.4532   44.3775 H   0  0  0  0  0  0  0  0  0  0  0  0
   60.8957   35.0768   46.3629 H   0  0  0  0  0  0  0  0  0  0  0  0
   59.6977   36.3896   46.2812 H   0  0  0  0  0  0  0  0  0  0  0  0
   59.7167   34.2253   48.1602 H   0  0  0  0  0  0  0  0  0  0  0  0
   58.3796   35.3352   47.9330 H   0  0  0  0  0  0  0  0  0  0  0  0
   57.1373   31.2928   45.9092 H   0  0  0  0  0  0  0  0  0  0  0  0
   59.8434   28.5141   44.0486 H   0  0  0  0  0  0  0  0  0  0  0  0
   60.7621   30.6029   45.0515 H   0  0  0  0  0  0  0  0  0  0  0  0
  1  2  1  0
  2  3  2  0
  2  4  2  0
  2  5  1  0
  5  6  2  0
  6  7  1  0
  7  8  2  0
  8  9  1  0
  9 10  1  0
 10 11  1  0
 11 12  1  0
 12 13  2  0
 12 14  1  0
 14 15  1  0
 15 16  1  0
 16 17  1  0
 17 18  1  0
 18 19  2  0
 19 20  1  0
 20 21  2  0
 21 22  1  0
 22 23  1  0
 23 24  1  0
 24 25  1  0
 25 26  1  0
 26 27  1  0
 27 28  2  0
 22 29  2  0
  8 30  1  0
 30 31  2  0
 31  5  1  0
 15 10  2  0
 29 18  1  0
 27 23  1  0
  1 32  1  0
  1 33  1  0
  6 34  1  0
  7 35  1  0
  9 36  1  0
  9 37  1  0
 16 38  1  0
 16 39  1  0
 17 40  1  0
 17 41  1  0
 19 42  1  0
 20 43  1  0
 21 44  1  0
 24 45  1  0
 24 46  1  0
 25 47  1  0
 25 48  1  0
 26 49  1  0
 26 50  1  0
 29 51  1  0
 30 52  1  0
 31 53  1  0
M  CHG  2  11  -1  14  -1
M  END
>  <UniqueID>  (79) 
73

>  <SMILES>  (79) 
NS(=O)(=O)c1ccc(Cc2[n-]c(=O)[n-]c2CCc2cccc(N3CCCC3=O)c2)cc1

>  <Energy>  (79) 
87.13502401040736

>  <Genealogy>  (79) 
NS(=O)(=O)c1ccc(Cc2[n-]c(=O)[n-]c2CCc2cccc(N3CCCC3=O)c2)cc1 (protonated)
NS(=O)(=O)c1ccc(Cc2[n-]c(=O)[n-]c2CCc2cccc(N3CCCC3=O)c2)cc1 (3D coordinates assigned)
NS(=O)(=O)c1ccc(Cc2[n-]c(=O)[n-]c2CCc2cccc(N3CCCC3=O)c2)cc1 (nonaromatic ring conformer: 87.13502401040736 kcal/mol)

>  <smiles>  (79) 
NS(=O)(=O)c1ccc(Cc2[nH]c(=O)[nH]c2CCc2cccc(N3CCCC3=O)c2)cc1

>  <score_type>  (79) 
oracle

>  <origin>  (79) 
adg

>  <m_score__min__energy>  (79) 
-13.33

>  <m_primary>  (79) 
energy

$$$$
79:0
     RDKit          3D

 38 40  0  0  0  0  0  0  0  0999 V2000
   55.1570   28.2020   44.9860 H   0  0  0  0  0  0  0  0  0  0  0  0
   55.4750   29.0480   44.4690 N   0  0  0  0  0  0  0  0  0  0  0  0
   56.4470   29.8260   44.8390 C   0  0  0  0  0  0  0  0  0  0  0  0
   56.2620   31.1700   44.7590 N   0  0  0  0  0  0  0  0  0  0  0  0
   57.2000   32.0550   45.1850 C   0  0  0  0  0  0  0  0  0  0  0  0
   57.0205   33.1368   45.0985 H   0  0  0  0  0  0  0  0  0  0  0  0
   58.3990   31.5800   45.7360 C   0  0  0  0  0  0  0  0  0  0  0  0
   59.4540   32.4940   46.2440 C   0  0  0  0  0  0  0  0  0  0  0  0
   60.5550   31.9650   46.9470 C   0  0  0  0  0  0  0  0  0  0  0  0
   60.6226   30.8807   47.1194 H   0  0  0  0  0  0  0  0  0  0  0  0
   61.5620   32.8080   47.4270 C   0  0  0  0  0  0  0  0  0  0  0  0
   62.4132   32.3856   47.9811 H   0  0  0  0  0  0  0  0  0  0  0  0
   61.4900   34.1840   47.2050 C   0  0  0  0  0  0  0  0  0  0  0  0
   62.2824   34.8451   47.5857 H   0  0  0  0  0  0  0  0  0  0  0  0
   60.4110   34.7210   46.4990 C   0  0  0  0  0  0  0  0  0  0  0  0
   60.3564   35.8051   46.3210 H   0  0  0  0  0  0  0  0  0  0  0  0
   59.4000   33.8830   46.0180 C   0  0  0  0  0  0  0  0  0  0  0  0
   58.5557   34.3123   45.4586 H   0  0  0  0  0  0  0  0  0  0  0  0
   58.5860   30.2350   45.8110 N   0  0  0  0  0  0  0  0  0  0  0  0
   57.6650   29.3360   45.3710 C   0  0  0  0  0  0  0  0  0  0  0  0
   58.0140   27.9000   45.4570 C   0  0  0  0  0  0  0  0  0  0  0  0
   59.1840   27.5530   45.7740 O   0  0  0  0  0  0  0  0  0  0  0  0
   56.9920   26.9080   45.2640 N   0  0  0  0  0  0  0  0  0  0  0  0
   56.0330   27.2330   45.0060 H   0  0  0  0  0  0  0  0  0  0  0  0
   57.2250   25.4920   45.3540 C   0  0  0  0  0  0  0  0  0  0  0  0
   58.4030   25.0410   45.3210 O   0  0  0  0  0  0  0  0  0  0  0  0
   56.0900   24.5430   45.4340 C   0  0  0  0  0  0  0  0  0  0  0  0
   56.3340   23.1640   45.3240 C   0  0  0  0  0  0  0  0  0  0  0  0
   57.3645   22.8045   45.1873 H   0  0  0  0  0  0  0  0  0  0  0  0
   55.2840   22.2420   45.3860 C   0  0  0  0  0  0  0  0  0  0  0  0
   55.6540   20.5300   45.2250 Cl  0  0  0  0  0  0  0  0  0  0  0  0
   53.9650   22.6950   45.5700 C   0  0  0  0  0  0  0  0  0  0  0  0
   52.8860   21.8110   45.6340 O   0  0  0  0  0  0  0  0  0  0  0  0
   52.2280   21.6950   44.8750 H   0  0  0  0  0  0  0  0  0  0  0  0
   53.7180   24.0650   45.6980 C   0  0  0  0  0  0  0  0  0  0  0  0
   52.6875   24.4207   45.8443 H   0  0  0  0  0  0  0  0  0  0  0  0
   54.7670   24.9880   45.6420 C   0  0  0  0  0  0  0  0  0  0  0  0
   54.4840   26.3380   45.8240 O   0  0  0  0  0  0  0  0  0  0  0  0
  1  2  1  0
  2  3  2  0
  3  4  1  0
  4  5  1  0
  5  6  1  0
  5  7  2  0
  7  8  1  0
  8  9  2  0
  9 10  1  0
  9 11  1  0
 11 12  1  0
 11 13  2  0
 13 14  1  0
 13 15  1  0
 15 16  1  0
 15 17  2  0
 17 18  1  0
  7 19  1  0
 19 20  2  0
 20 21  1  0
 21 22  2  0
 21 23  1  0
 23 24  1  0
 23 25  1  0
 25 26  2  0
 25 27  1  0
 27 28  2  0
 28 29  1  0
 28 30  1  0
 30 31  1  0
 30 32  2  0
 32 33  1  0
 33 34  1  0
 32 35  1  0
 35 36  1  0
 35 37  2  0
 37 38  1  0
 20  3  1  0
 37 27  1  0
 17  8  1  0
M  CHG  2   4  -1  38  -1
M  END
>  <UniqueID>  (80) 
74

>  <SMILES>  (80) 
[H]/N=c1/[n-]cc(-c2ccccc2)nc1C(=O)NC(=O)c1cc(Cl)c(O)cc1[O-]

>  <Energy>  (80) 
58.49624707985777

>  <Genealogy>  (80) 
N=c1[n-]cc(-c2ccccc2)nc1C(=O)NC(=O)c1cc(Cl)c(O)cc1[O-] (protonated)
[H]/N=c1/[n-]cc(-c2ccccc2)nc1C(=O)NC(=O)c1cc(Cl)c(O)cc1[O-] (cis-trans isomerization)
[H]/N=c1/[n-]cc(-c2ccccc2)nc1C(=O)NC(=O)c1cc(Cl)c(O)cc1[O-] (3D coordinates assigned)
[H]/N=c1/[n-]cc(-c2ccccc2)nc1C(=O)NC(=O)c1cc(Cl)c(O)cc1[O-] (optimized conformer: 58.49624707985777 kcal/mol)

>  <smiles>  (80) 
N=c1[nH]cc(-c2ccccc2)nc1C(=O)NC(=O)c1cc(Cl)c(O)cc1O

>  <score_type>  (80) 
oracle

>  <origin>  (80) 
adg

>  <m_score__min__energy>  (80) 
-14.69

>  <m_primary>  (80) 
energy

$$$$
80:0
     RDKit          3D

 47 49  0  0  0  0  0  0  0  0999 V2000
   60.7960   26.6200   50.4060 C   0  0  0  0  0  0  0  0  0  0  0  0
   60.2000   26.9170   49.1480 O   0  0  0  0  0  0  0  0  0  0  0  0
   59.9340   28.2140   48.6770 C   0  0  0  0  0  0  0  0  0  0  0  0
   60.7010   29.3230   49.0900 C   0  0  0  0  0  0  0  0  0  0  0  0
   60.3720   30.6100   48.6590 C   0  0  0  0  0  0  0  0  0  0  0  0
   59.2760   30.8090   47.8200 C   0  0  0  0  0  0  0  0  0  0  0  0
   58.5140   29.7190   47.3960 C   0  0  0  0  0  0  0  0  0  0  0  0
   58.8510   28.4190   47.7920 C   0  0  0  0  0  0  0  0  0  0  0  0
   58.0360   27.3330   47.3300 N   0  0  0  0  0  0  0  0  0  0  0  0
   57.2950   27.3160   46.1050 C   0  0  0  0  0  0  0  0  0  0  0  0
   56.1190   26.8600   46.0730 O   0  0  0  0  0  0  0  0  0  0  0  0
   57.9580   27.7380   44.8350 C   0  0  0  0  0  0  0  0  0  0  0  0
   57.5570   29.1040   44.4930 N   0  0  0  0  0  0  0  0  0  0  0  0
   56.3220   29.6490   44.5430 C   0  0  0  0  0  0  0  0  0  0  0  0
   55.1530   28.9690   44.8760 O   0  0  0  0  0  0  0  0  0  0  0  0
   56.3950   30.9920   44.2350 C   0  0  0  0  0  0  0  0  0  0  0  0
   57.6890   31.2910   43.9970 N   0  0  0  0  0  0  0  0  0  0  0  0
   58.2450   32.6140   43.7160 C   0  0  0  0  0  0  0  0  0  0  0  0
   57.9870   33.5420   44.8720 C   0  0  0  0  0  0  0  0  0  0  0  0
   56.8700   33.5060   45.4520 O   0  0  0  0  0  0  0  0  0  0  0  0
   58.9930   34.4360   45.3640 N   0  0  0  0  0  0  0  0  0  0  0  0
   59.7950   34.2540   46.5390 C   0  0  0  0  0  0  0  0  0  0  0  0
   59.2650   34.4400   47.8290 C   0  0  0  0  0  0  0  0  0  0  0  0
   60.0660   34.2240   48.9540 C   0  0  0  0  0  0  0  0  0  0  0  0
   61.3920   33.8060   48.8040 C   0  0  0  0  0  0  0  0  0  0  0  0
   62.1590   33.5990   49.9040 F   0  0  0  0  0  0  0  0  0  0  0  0
   61.9170   33.5930   47.5240 C   0  0  0  0  0  0  0  0  0  0  0  0
   63.5740   33.0520   47.3230 Cl  0  0  0  0  0  0  0  0  0  0  0  0
   61.1140   33.8080   46.3960 C   0  0  0  0  0  0  0  0  0  0  0  0
   58.3660   30.1370   44.1780 C   0  0  0  0  0  0  0  0  0  0  0  0
   59.6200   30.0410   44.0830 O   0  0  0  0  0  0  0  0  0  0  0  0
   60.1292   26.9523   51.2152 H   0  0  0  0  0  0  0  0  0  0  0  0
   60.9591   25.5352   50.4875 H   0  0  0  0  0  0  0  0  0  0  0  0
   61.7603   27.1430   50.4875 H   0  0  0  0  0  0  0  0  0  0  0  0
   61.5638   29.1734   49.7558 H   0  0  0  0  0  0  0  0  0  0  0  0
   60.9788   31.4687   48.9821 H   0  0  0  0  0  0  0  0  0  0  0  0
   59.0119   31.8253   47.4922 H   0  0  0  0  0  0  0  0  0  0  0  0
   57.6420   29.8826   46.7457 H   0  0  0  0  0  0  0  0  0  0  0  0
   59.0498   27.6998   44.9635 H   0  0  0  0  0  0  0  0  0  0  0  0
   57.6547   27.0582   44.0251 H   0  0  0  0  0  0  0  0  0  0  0  0
   55.1240   27.9600   44.9480 H   0  0  0  0  0  0  0  0  0  0  0  0
   55.5491   31.6938   44.1913 H   0  0  0  0  0  0  0  0  0  0  0  0
   59.3297   32.5258   43.5559 H   0  0  0  0  0  0  0  0  0  0  0  0
   57.7643   33.0214   42.8143 H   0  0  0  0  0  0  0  0  0  0  0  0
   58.2186   34.7559   47.9524 H   0  0  0  0  0  0  0  0  0  0  0  0
   59.6519   34.3833   49.9606 H   0  0  0  0  0  0  0  0  0  0  0  0
   61.5229   33.6250   45.3914 H   0  0  0  0  0  0  0  0  0  0  0  0
  1  2  1  0
  2  3  1  0
  3  4  2  0
  4  5  1  0
  5  6  2  0
  6  7  1  0
  7  8  2  0
  8  9  1  0
  9 10  1  0
 10 11  2  0
 10 12  1  0
 12 13  1  0
 13 14  1  0
 14 15  1  0
 14 16  2  0
 16 17  1  0
 17 18  1  0
 18 19  1  0
 19 20  2  0
 19 21  1  0
 21 22  1  0
 22 23  2  0
 23 24  1  0
 24 25  2  0
 25 26  1  0
 25 27  1  0
 27 28  1  0
 27 29  2  0
 17 30  1  0
 30 31  2  0
  8  3  1  0
 30 13  1  0
 29 22  1  0
  1 32  1  0
  1 33  1  0
  1 34  1  0
  4 35  1  0
  5 36  1  0
  6 37  1  0
  7 38  1  0
 12 39  1  0
 12 40  1  0
 15 41  1  0
 16 42  1  0
 18 43  1  0
 18 44  1  0
 23 45  1  0
 24 46  1  0
 29 47  1  0
M  CHG  2   9  -1  21  -1
M  END
>  <UniqueID>  (81) 
75

>  <SMILES>  (81) 
COc1ccccc1[N-]C(=O)Cn1c(O)cn(CC(=O)[N-]c2ccc(F)c(Cl)c2)c1=O

>  <Energy>  (81) 
89.55741036556691

>  <Genealogy>  (81) 
COc1ccccc1[N-]C(=O)Cn1c(O)cn(CC(=O)[N-]c2ccc(F)c(Cl)c2)c1=O (protonated)
COc1ccccc1[N-]C(=O)Cn1c(O)cn(CC(=O)[N-]c2ccc(F)c(Cl)c2)c1=O (3D coordinates assigned)
COc1ccccc1[N-]C(=O)Cn1c(O)cn(CC(=O)[N-]c2ccc(F)c(Cl)c2)c1=O (optimized conformer: 89.55741036556691 kcal/mol)

>  <smiles>  (81) 
COc1ccccc1NC(=O)Cn1c(O)cn(CC(=O)Nc2ccc(F)c(Cl)c2)c1=O

>  <score_type>  (81) 
oracle

>  <origin>  (81) 
adg

>  <m_score__min__energy>  (81) 
-11.68

>  <m_primary>  (81) 
energy

$$$$
81:0
     RDKit          3D

 70 74  0  0  0  0  0  0  0  0999 V2000
   59.6680   34.8350   46.6560 C   0  0  0  0  0  0  0  0  0  0  0  0
   58.9580   34.2240   47.8570 C   0  0  0  0  0  0  0  0  0  0  0  0
   59.3520   32.7900   48.0650 C   0  0  0  0  0  0  0  0  0  0  0  0
   59.8490   32.0220   47.0660 N   0  0  0  0  0  0  0  0  0  0  0  0
   60.1030   30.8340   47.6550 C   0  0  0  0  0  0  0  0  0  0  0  0
   60.6360   29.6870   47.0320 C   0  0  0  0  0  0  0  0  0  0  0  0
   61.0440   29.6240   45.6890 O   0  0  0  0  0  0  0  0  0  0  0  0
   60.7610   28.5650   44.7760 C   0  0  0  0  0  0  0  0  0  0  0  0
   59.5040   27.8320   45.1780 C   0  0  0  0  0  0  0  0  0  0  0  0
   59.5430   26.4930   45.6100 C   0  0  0  0  0  0  0  0  0  0  0  0
   58.3670   25.8360   45.9840 C   0  0  0  0  0  0  0  0  0  0  0  0
   57.1410   26.5170   45.9730 C   0  0  0  0  0  0  0  0  0  0  0  0
   55.9070   25.8200   46.3770 C   0  0  0  0  0  0  0  0  0  0  0  0
   54.8000   26.2360   45.9490 O   0  0  0  0  0  0  0  0  0  0  0  0
   55.9320   24.6570   47.2170 N   0  0  0  0  0  0  0  0  0  0  0  0
   55.4780   23.3300   46.8050 C   0  0  0  0  0  0  0  0  0  0  0  0
   56.3720   22.7910   45.7210 C   0  0  0  0  0  0  0  0  0  0  0  0
   55.8810   22.6500   44.4130 C   0  0  0  0  0  0  0  0  0  0  0  0
   56.7250   22.2200   43.3860 C   0  0  0  0  0  0  0  0  0  0  0  0
   58.0690   21.9390   43.6520 C   0  0  0  0  0  0  0  0  0  0  0  0
   58.5740   22.0850   44.9500 C   0  0  0  0  0  0  0  0  0  0  0  0
   59.9560   21.8290   45.2160 N   0  0  0  0  0  0  0  0  0  0  0  0
   57.7230   22.5060   45.9840 C   0  0  0  0  0  0  0  0  0  0  0  0
   57.1010   27.8570   45.5570 C   0  0  0  0  0  0  0  0  0  0  0  0
   58.2730   28.5100   45.1670 C   0  0  0  0  0  0  0  0  0  0  0  0
   60.7760   28.5370   47.8270 C   0  0  0  0  0  0  0  0  0  0  0  0
   60.3860   28.5390   49.1760 C   0  0  0  0  0  0  0  0  0  0  0  0
   59.8740   29.7090   49.7440 C   0  0  0  0  0  0  0  0  0  0  0  0
   59.7880   30.8200   48.9670 N   0  0  0  0  0  0  0  0  0  0  0  0
   59.3330   32.0540   49.2490 C   0  0  0  0  0  0  0  0  0  0  0  0
   59.0100   32.5360   50.5680 N   0  0  0  0  0  0  0  0  0  0  0  0
   57.7400   32.1910   51.1470 C   0  0  0  0  0  0  0  0  0  0  0  0
   57.3400   30.9960   51.1710 O   0  0  0  0  0  0  0  0  0  0  0  0
   59.9210   33.4660   51.2570 C   0  0  0  0  0  0  0  0  0  0  0  0
   61.3130   33.3520   50.7060 C   0  0  0  0  0  0  0  0  0  0  0  0
   61.7740   34.2490   49.7270 C   0  0  0  0  0  0  0  0  0  0  0  0
   63.0690   34.1280   49.2130 C   0  0  0  0  0  0  0  0  0  0  0  0
   63.9090   33.1050   49.6650 C   0  0  0  0  0  0  0  0  0  0  0  0
   63.4560   32.2040   50.6330 C   0  0  0  0  0  0  0  0  0  0  0  0
   62.1620   32.3230   51.1510 C   0  0  0  0  0  0  0  0  0  0  0  0
   60.4588   35.5155   47.0047 H   0  0  0  0  0  0  0  0  0  0  0  0
   60.1148   34.0346   46.0480 H   0  0  0  0  0  0  0  0  0  0  0  0
   58.9432   35.3962   46.0480 H   0  0  0  0  0  0  0  0  0  0  0  0
   59.2201   34.7998   48.7569 H   0  0  0  0  0  0  0  0  0  0  0  0
   57.8748   34.2580   47.6687 H   0  0  0  0  0  0  0  0  0  0  0  0
   60.6272   28.9842   43.7678 H   0  0  0  0  0  0  0  0  0  0  0  0
   61.6017   27.8557   44.7874 H   0  0  0  0  0  0  0  0  0  0  0  0
   60.5044   25.9603   45.6536 H   0  0  0  0  0  0  0  0  0  0  0  0
   58.4035   24.7796   46.2884 H   0  0  0  0  0  0  0  0  0  0  0  0
   55.5054   22.6512   47.6702 H   0  0  0  0  0  0  0  0  0  0  0  0
   54.4502   23.4045   46.4201 H   0  0  0  0  0  0  0  0  0  0  0  0
   54.8272   22.8791   44.1960 H   0  0  0  0  0  0  0  0  0  0  0  0
   56.3314   22.1022   42.3656 H   0  0  0  0  0  0  0  0  0  0  0  0
   58.7306   21.6027   42.8401 H   0  0  0  0  0  0  0  0  0  0  0  0
   60.6860   22.5350   44.9720 H   0  0  0  0  0  0  0  0  0  0  0  0
   60.2610   20.9160   45.6240 H   0  0  0  0  0  0  0  0  0  0  0  0
   58.1157   22.6135   47.0059 H   0  0  0  0  0  0  0  0  0  0  0  0
   56.1421   28.3957   45.5379 H   0  0  0  0  0  0  0  0  0  0  0  0
   58.2319   29.5623   44.8491 H   0  0  0  0  0  0  0  0  0  0  0  0
   61.1974   27.6215   47.3861 H   0  0  0  0  0  0  0  0  0  0  0  0
   60.4828   27.6259   49.7817 H   0  0  0  0  0  0  0  0  0  0  0  0
   59.5486   29.7297   50.7946 H   0  0  0  0  0  0  0  0  0  0  0  0
   57.1076   32.9823   51.5757 H   0  0  0  0  0  0  0  0  0  0  0  0
   59.5602   34.4955   51.1161 H   0  0  0  0  0  0  0  0  0  0  0  0
   59.9425   33.2119   52.3270 H   0  0  0  0  0  0  0  0  0  0  0  0
   61.1132   35.0498   49.3635 H   0  0  0  0  0  0  0  0  0  0  0  0
   63.4272   34.8378   48.4528 H   0  0  0  0  0  0  0  0  0  0  0  0
   64.9267   33.0094   49.2585 H   0  0  0  0  0  0  0  0  0  0  0  0
   64.1179   31.4003   50.9879 H   0  0  0  0  0  0  0  0  0  0  0  0
   61.8073   31.6092   51.9091 H   0  0  0  0  0  0  0  0  0  0  0  0
  1  2  1  0
  2  3  1  0
  3  4  1  0
  4  5  2  0
  5  6  1  0
  6  7  1  0
  7  8  1  0
  8  9  1  0
  9 10  2  0
 10 11  1  0
 11 12  2  0
 12 13  1  0
 13 14  2  0
 13 15  1  0
 15 16  1  0
 16 17  1  0
 17 18  2  0
 18 19  1  0
 19 20  2  0
 20 21  1  0
 21 22  1  0
 21 23  2  0
 12 24  1  0
 24 25  2  0
  6 26  2  0
 26 27  1  0
 27 28  2  0
 28 29  1  0
 29 30  1  0
 30 31  1  0
 31 32  1  0
 32 33  2  0
 31 34  1  0
 34 35  1  0
 35 36  2  0
 36 37  1  0
 37 38  2  0
 38 39  1  0
 39 40  2  0
 30  3  2  0
 40 35  1  0
 29  5  1  0
 25  9  1  0
 23 17  1  0
  1 41  1  0
  1 42  1  0
  1 43  1  0
  2 44  1  0
  2 45  1  0
  8 46  1  0
  8 47  1  0
 10 48  1  0
 11 49  1  0
 16 50  1  0
 16 51  1  0
 18 52  1  0
 19 53  1  0
 20 54  1  0
 22 55  1  0
 22 56  1  0
 23 57  1  0
 24 58  1  0
 25 59  1  0
 26 60  1  0
 27 61  1  0
 28 62  1  0
 32 63  1  0
 34 64  1  0
 34 65  1  0
 36 66  1  0
 37 67  1  0
 38 68  1  0
 39 69  1  0
 40 70  1  0
M  CHG  1  15  -1
M  END
>  <UniqueID>  (82) 
76

>  <SMILES>  (82) 
CCc1nc2c(OCc3ccc(C(=O)[N-]Cc4cccc(N)c4)cc3)cccn2c1N(C=O)Cc1ccccc1

>  <Energy>  (82) 
114.94265647834378

>  <Genealogy>  (82) 
CCc1nc2c(OCc3ccc(C(=O)[N-]Cc4cccc(N)c4)cc3)cccn2c1N(C=O)Cc1ccccc1 (protonated)
CCc1nc2c(OCc3ccc(C(=O)[N-]Cc4cccc(N)c4)cc3)cccn2c1N(C=O)Cc1ccccc1 (3D coordinates assigned)
CCc1nc2c(OCc3ccc(C(=O)[N-]Cc4cccc(N)c4)cc3)cccn2c1N(C=O)Cc1ccccc1 (optimized conformer: 114.94265647834378 kcal/mol)

>  <smiles>  (82) 
CCc1nc2c(OCc3ccc(C(=O)NCc4cccc(N)c4)cc3)cccn2c1N(C=O)Cc1ccccc1

>  <score_type>  (82) 
oracle

>  <origin>  (82) 
adg

>  <m_score__min__energy>  (82) 
-12.16

>  <m_primary>  (82) 
energy

$$$$
82:0
     RDKit          3D

 50 53  0  0  0  0  0  0  0  0999 V2000
   55.5310   29.3840   44.4590 C   0  0  0  0  0  0  0  0  0  0  0  0
   56.4390   29.9120   43.6400 C   0  0  0  0  0  0  0  0  0  0  0  0
   57.0430   31.2390   43.8520 C   0  0  0  0  0  0  0  0  0  0  0  0
   57.9670   31.8860   43.0460 C   0  0  0  0  0  0  0  0  0  0  0  0
   58.2340   33.0860   43.6690 C   0  0  0  0  0  0  0  0  0  0  0  0
   57.4600   33.0970   44.8130 C   0  0  0  0  0  0  0  0  0  0  0  0
   57.4340   34.1900   45.8550 C   0  0  0  0  0  0  0  0  0  0  0  0
   58.0180   33.7800   47.1540 N   0  0  0  0  0  0  0  0  0  0  0  0
   59.2670   34.5130   47.4710 C   0  0  0  0  0  0  0  0  0  0  0  0
   60.3500   33.5140   47.3450 C   0  0  0  0  0  0  0  0  0  0  0  0
   61.7250   33.7360   47.4160 C   0  0  0  0  0  0  0  0  0  0  0  0
   62.5860   32.6370   47.3050 C   0  0  0  0  0  0  0  0  0  0  0  0
   62.0650   31.3410   47.1400 C   0  0  0  0  0  0  0  0  0  0  0  0
   60.6700   31.1300   47.0840 C   0  0  0  0  0  0  0  0  0  0  0  0
   60.1200   29.7660   46.9170 C   0  0  0  0  0  0  0  0  0  0  0  0
   60.6110   28.8160   47.5850 O   0  0  0  0  0  0  0  0  0  0  0  0
   59.0100   29.5260   46.0330 N   0  0  0  0  0  0  0  0  0  0  0  0
   58.5020   28.2180   45.7210 C   0  0  0  0  0  0  0  0  0  0  0  0
   58.6140   27.7320   44.4100 C   0  0  0  0  0  0  0  0  0  0  0  0
   58.1490   26.4550   44.0860 C   0  0  0  0  0  0  0  0  0  0  0  0
   57.5810   25.6330   45.0670 C   0  0  0  0  0  0  0  0  0  0  0  0
   57.1290   24.3590   44.6840 O   0  0  0  0  0  0  0  0  0  0  0  0
   57.8230   23.1350   44.9130 C   0  0  0  0  0  0  0  0  0  0  0  0
   59.1400   23.3900   45.2490 F   0  0  0  0  0  0  0  0  0  0  0  0
   57.7690   22.3370   43.7840 F   0  0  0  0  0  0  0  0  0  0  0  0
   57.2170   22.4660   45.9600 F   0  0  0  0  0  0  0  0  0  0  0  0
   57.4890   26.1080   46.3890 C   0  0  0  0  0  0  0  0  0  0  0  0
   57.9530   27.3860   46.7130 C   0  0  0  0  0  0  0  0  0  0  0  0
   59.8340   32.2590   47.1760 C   0  0  0  0  0  0  0  0  0  0  0  0
   58.3490   32.3330   47.1970 C   0  0  0  0  0  0  0  0  0  0  0  0
   56.7610   31.9890   44.8920 O   0  0  0  0  0  0  0  0  0  0  0  0
   55.1147   28.3876   44.2495 H   0  0  0  0  0  0  0  0  0  0  0  0
   55.1974   29.9443   45.3449 H   0  0  0  0  0  0  0  0  0  0  0  0
   56.7534   29.3286   42.7621 H   0  0  0  0  0  0  0  0  0  0  0  0
   58.3982   31.5175   42.1035 H   0  0  0  0  0  0  0  0  0  0  0  0
   58.9218   33.8729   43.3259 H   0  0  0  0  0  0  0  0  0  0  0  0
   58.0038   35.0497   45.4726 H   0  0  0  0  0  0  0  0  0  0  0  0
   56.3782   34.4386   46.0381 H   0  0  0  0  0  0  0  0  0  0  0  0
   59.4200   35.3385   46.7602 H   0  0  0  0  0  0  0  0  0  0  0  0
   59.2362   34.9591   48.4760 H   0  0  0  0  0  0  0  0  0  0  0  0
   62.1243   34.7514   47.5560 H   0  0  0  0  0  0  0  0  0  0  0  0
   63.6748   32.7881   47.3471 H   0  0  0  0  0  0  0  0  0  0  0  0
   62.7500   30.4847   47.0539 H   0  0  0  0  0  0  0  0  0  0  0  0
   58.5030   30.3450   45.6280 H   0  0  0  0  0  0  0  0  0  0  0  0
   59.0711   28.3606   43.6316 H   0  0  0  0  0  0  0  0  0  0  0  0
   58.2298   26.0920   43.0508 H   0  0  0  0  0  0  0  0  0  0  0  0
   57.0499   25.4705   47.1705 H   0  0  0  0  0  0  0  0  0  0  0  0
   57.8883   27.7435   47.7513 H   0  0  0  0  0  0  0  0  0  0  0  0
   57.9269   31.8169   46.3221 H   0  0  0  0  0  0  0  0  0  0  0  0
   57.9310   31.8473   48.0911 H   0  0  0  0  0  0  0  0  0  0  0  0
  1  2  2  0
  2  3  1  0
  3  4  2  0
  4  5  1  0
  5  6  2  0
  6  7  1  0
  7  8  1  0
  8  9  1  0
  9 10  1  0
 10 11  2  0
 11 12  1  0
 12 13  2  0
 13 14  1  0
 14 15  1  0
 15 16  2  0
 15 17  1  0
 17 18  1  0
 18 19  2  0
 19 20  1  0
 20 21  2  0
 21 22  1  0
 22 23  1  0
 23 24  1  0
 23 25  1  0
 23 26  1  0
 21 27  1  0
 27 28  2  0
 14 29  2  0
 29 30  1  0
  6 31  1  0
 31  3  1  0
 30  8  1  0
 29 10  1  0
 28 18  1  0
  1 32  1  0
  1 33  1  0
  2 34  1  0
  4 35  1  0
  5 36  1  0
  7 37  1  0
  7 38  1  0
  9 39  1  0
  9 40  1  0
 11 41  1  0
 12 42  1  0
 13 43  1  0
 17 44  1  0
 19 45  1  0
 20 46  1  0
 27 47  1  0
 28 48  1  0
 30 49  1  0
 30 50  1  0
M  END
>  <UniqueID>  (83) 
77

>  <SMILES>  (83) 
C=Cc1ccc(CN2Cc3cccc(C(=O)Nc4ccc(OC(F)(F)F)cc4)c3C2)o1

>  <Energy>  (83) 
99.53552646151307

>  <Genealogy>  (83) 
C=Cc1ccc(CN2Cc3cccc(C(=O)Nc4ccc(OC(F)(F)F)cc4)c3C2)o1 (3D coordinates assigned)
C=Cc1ccc(CN2Cc3cccc(C(=O)Nc4ccc(OC(F)(F)F)cc4)c3C2)o1 (nonaromatic ring conformer: 99.53552646151307 kcal/mol)

>  <smiles>  (83) 
C=Cc1ccc(CN2Cc3cccc(C(=O)Nc4ccc(OC(F)(F)F)cc4)c3C2)o1

>  <score_type>  (83) 
oracle

>  <origin>  (83) 
adg

>  <m_score__min__energy>  (83) 
-8.1199999999999992

>  <m_primary>  (83) 
energy

$$$$
83:0
     RDKit          3D

 57 60  0  0  0  0  0  0  0  0999 V2000
   60.6600   27.0950   48.2620 C   0  0  0  0  0  0  0  0  0  0  0  0
   59.8710   28.1680   48.0990 C   0  0  0  0  0  0  0  0  0  0  0  0
   58.7850   28.2960   47.2170 C   0  0  0  0  0  0  0  0  0  0  0  0
   58.3370   27.4910   46.2340 C   0  0  0  0  0  0  0  0  0  0  0  0
   57.1130   26.6750   46.2790 C   0  0  0  0  0  0  0  0  0  0  0  0
   57.0710   25.3790   46.6390 N   0  0  0  0  0  0  0  0  0  0  0  0
   55.7940   25.0240   46.3770 C   0  0  0  0  0  0  0  0  0  0  0  0
   55.3510   23.8670   46.6010 O   0  0  0  0  0  0  0  0  0  0  0  0
   55.0330   26.0030   45.8420 N   0  0  0  0  0  0  0  0  0  0  0  0
   55.8880   27.0350   45.7750 C   0  0  0  0  0  0  0  0  0  0  0  0
   55.5590   28.2800   45.2530 O   0  0  0  0  0  0  0  0  0  0  0  0
   58.2040   29.5230   47.4960 C   0  0  0  0  0  0  0  0  0  0  0  0
   58.9660   30.1150   48.4790 C   0  0  0  0  0  0  0  0  0  0  0  0
   58.7600   31.5140   48.9800 C   0  0  0  0  0  0  0  0  0  0  0  0
   59.9710   29.2920   48.8570 N   0  0  0  0  0  0  0  0  0  0  0  0
   60.9420   29.5790   49.8830 C   0  0  0  0  0  0  0  0  0  0  0  0
   60.8500   28.9020   51.1100 C   0  0  0  0  0  0  0  0  0  0  0  0
   61.7490   29.1790   52.1420 C   0  0  0  0  0  0  0  0  0  0  0  0
   62.7450   30.1380   51.9630 C   0  0  0  0  0  0  0  0  0  0  0  0
   62.8520   30.8190   50.7490 C   0  0  0  0  0  0  0  0  0  0  0  0
   61.9680   30.5380   49.6930 C   0  0  0  0  0  0  0  0  0  0  0  0
   62.1170   31.2860   48.4240 C   0  0  0  0  0  0  0  0  0  0  0  0
   62.2540   30.6430   47.3490 O   0  0  0  0  0  0  0  0  0  0  0  0
   62.0850   32.7230   48.3940 N   0  0  0  0  0  0  0  0  0  0  0  0
   61.0230   33.4460   49.1090 C   0  0  0  0  0  0  0  0  0  0  0  0
   60.4790   34.6110   48.2630 C   0  0  0  0  0  0  0  0  0  0  0  0
   60.5230   34.2730   46.7580 C   0  0  0  0  0  0  0  0  0  0  0  0
   59.7410   33.0650   46.4660 N   0  0  0  0  0  0  0  0  0  0  0  0
   58.1710   33.4180   45.7940 S   0  0  0  0  0  0  0  0  0  0  0  0
   57.6990   32.1110   44.6820 C   0  0  0  0  0  0  0  0  0  0  0  0
   58.2540   34.7030   45.0200 O   0  0  0  0  0  0  0  0  0  0  0  0
   57.1250   33.5620   46.8670 O   0  0  0  0  0  0  0  0  0  0  0  0
   61.9860   34.0450   46.3030 C   0  0  0  0  0  0  0  0  0  0  0  0
   62.8860   33.4540   47.4080 C   0  0  0  0  0  0  0  0  0  0  0  0
   61.4829   27.1231   48.9914 H   0  0  0  0  0  0  0  0  0  0  0  0
   60.4839   26.1872   47.6663 H   0  0  0  0  0  0  0  0  0  0  0  0
   58.9400   27.4389   45.3155 H   0  0  0  0  0  0  0  0  0  0  0  0
   57.3050   29.9442   47.0223 H   0  0  0  0  0  0  0  0  0  0  0  0
   58.7601   31.5133   50.0800 H   0  0  0  0  0  0  0  0  0  0  0  0
   59.5730   32.1581   48.6137 H   0  0  0  0  0  0  0  0  0  0  0  0
   57.7959   31.8964   48.6137 H   0  0  0  0  0  0  0  0  0  0  0  0
   60.0635   28.1476   51.2593 H   0  0  0  0  0  0  0  0  0  0  0  0
   61.6712   28.6398   53.0976 H   0  0  0  0  0  0  0  0  0  0  0  0
   63.4479   30.3585   52.7799 H   0  0  0  0  0  0  0  0  0  0  0  0
   63.6341   31.5813   50.6179 H   0  0  0  0  0  0  0  0  0  0  0  0
   60.2013   32.7494   49.3316 H   0  0  0  0  0  0  0  0  0  0  0  0
   61.4446   33.8564   50.0384 H   0  0  0  0  0  0  0  0  0  0  0  0
   59.4379   34.8120   48.5557 H   0  0  0  0  0  0  0  0  0  0  0  0
   61.1084   35.4954   48.4409 H   0  0  0  0  0  0  0  0  0  0  0  0
   60.0889   35.1232   46.2114 H   0  0  0  0  0  0  0  0  0  0  0  0
   57.3817   31.2323   45.2627 H   0  0  0  0  0  0  0  0  0  0  0  0
   56.8671   32.4515   44.0480 H   0  0  0  0  0  0  0  0  0  0  0  0
   58.5566   31.8414   44.0480 H   0  0  0  0  0  0  0  0  0  0  0  0
   61.9816   33.3518   45.4489 H   0  0  0  0  0  0  0  0  0  0  0  0
   62.4007   35.0287   46.0378 H   0  0  0  0  0  0  0  0  0  0  0  0
   63.6129   32.7659   46.9518 H   0  0  0  0  0  0  0  0  0  0  0  0
   63.4073   34.2779   47.9173 H   0  0  0  0  0  0  0  0  0  0  0  0
  1  2  2  0
  2  3  1  0
  3  4  2  3
  4  5  1  0
  5  6  1  0
  6  7  1  0
  7  8  2  0
  7  9  1  0
  9 10  1  0
 10 11  1  0
  3 12  1  0
 12 13  2  0
 13 14  1  0
 13 15  1  0
 15 16  1  0
 16 17  2  0
 17 18  1  0
 18 19  2  0
 19 20  1  0
 20 21  2  0
 21 22  1  0
 22 23  2  0
 22 24  1  0
 24 25  1  0
 25 26  1  0
 26 27  1  0
 27 28  1  0
 28 29  1  0
 29 30  1  0
 29 31  2  0
 29 32  2  0
 27 33  1  0
 33 34  1  0
 15  2  1  0
 21 16  1  0
 34 24  1  0
 10  5  2  0
  1 35  1  0
  1 36  1  0
  4 37  1  0
 12 38  1  0
 14 39  1  0
 14 40  1  0
 14 41  1  0
 17 42  1  0
 18 43  1  0
 19 44  1  0
 20 45  1  0
 25 46  1  0
 25 47  1  0
 26 48  1  0
 26 49  1  0
 27 50  1  0
 30 51  1  0
 30 52  1  0
 30 53  1  0
 33 54  1  0
 33 55  1  0
 34 56  1  0
 34 57  1  0
M  CHG  4   6  -1   9  -1  11  -1  28  -1
M  END
>  <UniqueID>  (84) 
78

>  <SMILES>  (84) 
C=c1c(=Cc2[n-]c(=O)[n-]c2[O-])cc(C)n1-c1ccccc1C(=O)N1CCC([N-]S(C)(=O)=O)CC1

>  <Energy>  (84) 
139.06933366854597

>  <Genealogy>  (84) 
C=c1c(=Cc2[n-]c(=O)[n-]c2[O-])cc(C)n1-c1ccccc1C(=O)N1CCC([N-]S(C)(=O)=O)CC1 (protonated)
C=c1c(=Cc2[n-]c(=O)[n-]c2[O-])cc(C)n1-c1ccccc1C(=O)N1CCC([N-]S(C)(=O)=O)CC1 (3D coordinates assigned)
C=c1c(=Cc2[n-]c(=O)[n-]c2[O-])cc(C)n1-c1ccccc1C(=O)N1CCC([N-]S(C)(=O)=O)CC1 (nonaromatic ring conformer: 139.06933366854597 kcal/mol)

>  <smiles>  (84) 
C=c1c(=Cc2[nH]c(=O)[nH]c2O)cc(C)n1-c1ccccc1C(=O)N1CCC(NS(C)(=O)=O)CC1

>  <score_type>  (84) 
oracle

>  <origin>  (84) 
adg

>  <m_score__min__energy>  (84) 
-17.699999999999999

>  <m_primary>  (84) 
energy

$$$$
84:0
     RDKit          3D

 30 31  0  0  0  0  0  0  0  0999 V2000
   55.1320   27.1420   45.1450 H   0  0  0  0  0  0  0  0  0  0  0  0
   55.1460   26.5560   46.0090 N   0  0  0  0  0  0  0  0  0  0  0  0
   56.3790   26.1300   46.5860 C   0  0  0  0  0  0  0  0  0  0  0  0
   56.4120   25.0510   47.2370 O   0  0  0  0  0  0  0  0  0  0  0  0
   57.6080   26.9420   46.4220 C   0  0  0  0  0  0  0  0  0  0  0  0
   58.8740   26.3290   46.4060 C   0  0  0  0  0  0  0  0  0  0  0  0
   58.9544   25.2385   46.5259 H   0  0  0  0  0  0  0  0  0  0  0  0
   60.0290   27.0950   46.2390 C   0  0  0  0  0  0  0  0  0  0  0  0
   61.0136   26.6049   46.2201 H   0  0  0  0  0  0  0  0  0  0  0  0
   59.9390   28.4800   46.0960 C   0  0  0  0  0  0  0  0  0  0  0  0
   60.8517   29.0760   45.9482 H   0  0  0  0  0  0  0  0  0  0  0  0
   58.6880   29.1160   46.1400 C   0  0  0  0  0  0  0  0  0  0  0  0
   58.5600   30.5790   45.9610 C   0  0  0  0  0  0  0  0  0  0  0  0
   59.4374   31.2046   46.1820 H   0  0  0  0  0  0  0  0  0  0  0  0
   57.4730   31.1720   45.5580 N   0  0  0  0  0  0  0  0  0  0  0  0
   56.7560   30.8280   44.3960 N   0  0  0  0  0  0  0  0  0  0  0  0
   57.1030   31.0990   43.1260 C   0  0  0  0  0  0  0  0  0  0  0  0
   58.1990   32.0350   42.7200 C   0  0  0  0  0  0  0  0  0  0  0  0
   59.1698   31.5376   42.8620 H   0  0  0  0  0  0  0  0  0  0  0  0
   58.1396   32.9403   43.3420 H   0  0  0  0  0  0  0  0  0  0  0  0
   58.0510   32.4350   41.2570 C   0  0  0  0  0  0  0  0  0  0  0  0
   57.6699   33.4650   41.1952 H   0  0  0  0  0  0  0  0  0  0  0  0
   59.0305   32.3760   40.7599 H   0  0  0  0  0  0  0  0  0  0  0  0
   57.3458   31.7527   40.7599 H   0  0  0  0  0  0  0  0  0  0  0  0
   56.2960   30.4570   42.2550 N   0  0  0  0  0  0  0  0  0  0  0  0
   55.4510   29.7220   42.9700 N   0  0  0  0  0  0  0  0  0  0  0  0
   55.7550   29.9400   44.2620 C   0  0  0  0  0  0  0  0  0  0  0  0
   55.1940   29.3470   45.2200 O   0  0  0  0  0  0  0  0  0  0  0  0
   57.5270   28.3400   46.2770 C   0  0  0  0  0  0  0  0  0  0  0  0
   56.5420   28.8297   46.2710 H   0  0  0  0  0  0  0  0  0  0  0  0
  1  2  1  0
  2  3  1  0
  3  4  2  0
  3  5  1  0
  5  6  2  0
  6  7  1  0
  6  8  1  0
  8  9  1  0
  8 10  2  0
 10 11  1  0
 10 12  1  0
 12 13  1  0
 13 14  1  0
 13 15  2  0
 15 16  1  0
 16 17  1  0
 17 18  1  0
 18 19  1  0
 18 20  1  0
 18 21  1  0
 21 22  1  0
 21 23  1  0
 21 24  1  0
 17 25  2  0
 25 26  1  0
 26 27  1  0
 27 28  2  0
 12 29  2  0
 29 30  1  0
 29  5  1  0
 27 16  1  0
M  CHG  2   2  -1  26  -1
M  END
>  <UniqueID>  (85) 
79

>  <SMILES>  (85) 
CCc1n[n-]c(=O)n1/N=C\c1cccc(C([NH-])=O)c1

>  <Energy>  (85) 
74.61622608289196

>  <Genealogy>  (85) 
CCc1n[n-]c(=O)n1N=Cc1cccc(C([NH-])=O)c1 (protonated)
CCc1n[n-]c(=O)n1/N=C\c1cccc(C([NH-])=O)c1 (cis-trans isomerization)
CCc1n[n-]c(=O)n1/N=C\c1cccc(C([NH-])=O)c1 (3D coordinates assigned)
CCc1n[n-]c(=O)n1/N=C\c1cccc(C([NH-])=O)c1 (optimized conformer: 74.61622608289196 kcal/mol)

>  <smiles>  (85) 
CCc1n[nH]c(=O)n1N=Cc1cccc(C(N)=O)c1

>  <score_type>  (85) 
oracle

>  <origin>  (85) 
adg

>  <m_score__min__energy>  (85) 
-11.82

>  <m_primary>  (85) 
energy

$$$$
85:0
     RDKit          3D

 51 54  0  0  0  0  0  0  0  0999 V2000
   51.7992   27.9826   52.3669 H   0  0  0  0  0  0  0  0  0  0  0  0
   52.6450   27.7600   53.0340 C   0  0  0  0  0  0  0  0  0  0  0  0
   52.6958   26.7916   53.5533 H   0  0  0  0  0  0  0  0  0  0  0  0
   53.6130   28.6680   53.2140 C   0  0  0  0  0  0  0  0  0  0  0  0
   54.6270   28.3210   54.0540 N   0  0  0  0  0  0  0  0  0  0  0  0
   55.7690   29.0420   54.1700 C   0  0  0  0  0  0  0  0  0  0  0  0
   56.5334   28.7454   54.9033 H   0  0  0  0  0  0  0  0  0  0  0  0
   55.9770   30.1610   53.3600 C   0  0  0  0  0  0  0  0  0  0  0  0
   57.2400   30.9280   53.4460 C   0  0  0  0  0  0  0  0  0  0  0  0
   57.6680   31.2980   54.5730 O   0  0  0  0  0  0  0  0  0  0  0  0
   57.9810   31.2710   52.2620 N   0  0  0  0  0  0  0  0  0  0  0  0
   58.6050   32.5930   52.1600 C   0  0  0  0  0  0  0  0  0  0  0  0
   58.0346   33.3070   52.7723 H   0  0  0  0  0  0  0  0  0  0  0  0
   59.6424   32.5165   52.5177 H   0  0  0  0  0  0  0  0  0  0  0  0
   58.6280   33.0900   50.6970 C   0  0  0  0  0  0  0  0  0  0  0  0
   57.8045   33.8067   50.5624 H   0  0  0  0  0  0  0  0  0  0  0  0
   59.6163   33.5435   50.5309 H   0  0  0  0  0  0  0  0  0  0  0  0
   58.4760   32.0070   49.6860 N   0  0  0  0  0  0  0  0  0  0  0  0
   58.9430   32.4270   48.3310 C   0  0  0  0  0  0  0  0  0  0  0  0
   59.4163   31.5438   47.8771 H   0  0  0  0  0  0  0  0  0  0  0  0
   59.9880   33.5720   48.4020 C   0  0  0  0  0  0  0  0  0  0  0  0
   59.5598   34.4092   48.9727 H   0  0  0  0  0  0  0  0  0  0  0  0
   60.8913   33.1789   48.8915 H   0  0  0  0  0  0  0  0  0  0  0  0
   60.3870   34.0780   46.9950 C   0  0  0  0  0  0  0  0  0  0  0  0
   60.4250   35.1771   47.0188 H   0  0  0  0  0  0  0  0  0  0  0  0
   61.3630   33.6302   46.7564 H   0  0  0  0  0  0  0  0  0  0  0  0
   59.4880   33.6830   45.9730 O   0  0  0  0  0  0  0  0  0  0  0  0
   58.1600   33.9210   46.3840 C   0  0  0  0  0  0  0  0  0  0  0  0
   58.0844   34.9370   46.7987 H   0  0  0  0  0  0  0  0  0  0  0  0
   57.4916   33.8193   45.5163 H   0  0  0  0  0  0  0  0  0  0  0  0
   57.7470   32.9020   47.4580 C   0  0  0  0  0  0  0  0  0  0  0  0
   56.9965   33.3675   48.1138 H   0  0  0  0  0  0  0  0  0  0  0  0
   57.3450   32.0192   46.9392 H   0  0  0  0  0  0  0  0  0  0  0  0
   59.1660   30.7850   50.1530 C   0  0  0  0  0  0  0  0  0  0  0  0
   59.1959   30.0449   49.3397 H   0  0  0  0  0  0  0  0  0  0  0  0
   60.1945   31.0319   50.4550 H   0  0  0  0  0  0  0  0  0  0  0  0
   58.4030   30.2060   51.3450 C   0  0  0  0  0  0  0  0  0  0  0  0
   57.5136   29.6723   50.9788 H   0  0  0  0  0  0  0  0  0  0  0  0
   59.0673   29.5171   51.8873 H   0  0  0  0  0  0  0  0  0  0  0  0
   54.9380   30.5770   52.5170 C   0  0  0  0  0  0  0  0  0  0  0  0
   55.0863   31.4555   51.8719 H   0  0  0  0  0  0  0  0  0  0  0  0
   53.7060   29.8920   52.4790 C   0  0  0  0  0  0  0  0  0  0  0  0
   52.7020   30.4670   51.7710 C   0  0  0  0  0  0  0  0  0  0  0  0
   52.6359   30.2115   50.7031 H   0  0  0  0  0  0  0  0  0  0  0  0
   51.6900   31.4030   52.2980 C   0  0  0  0  0  0  0  0  0  0  0  0
   51.4240   31.5930   53.6050 N   0  0  0  0  0  0  0  0  0  0  0  0
   50.5350   32.6100   53.5970 C   0  0  0  0  0  0  0  0  0  0  0  0
   50.0290   33.0760   54.6500 O   0  0  0  0  0  0  0  0  0  0  0  0
   50.2390   33.0950   52.3720 N   0  0  0  0  0  0  0  0  0  0  0  0
   50.9880   32.3270   51.5640 C   0  0  0  0  0  0  0  0  0  0  0  0
   51.0340   32.4730   50.1830 O   0  0  0  0  0  0  0  0  0  0  0  0
  1  2  1  0
  2  3  1  0
  2  4  2  0
  4  5  1  0
  5  6  2  0
  6  7  1  0
  6  8  1  0
  8  9  1  0
  9 10  2  0
  9 11  1  0
 11 12  1  0
 12 13  1  0
 12 14  1  0
 12 15  1  0
 15 16  1  0
 15 17  1  0
 15 18  1  0
 18 19  1  0
 19 20  1  0
 19 21  1  0
 21 22  1  0
 21 23  1  0
 21 24  1  0
 24 25  1  0
 24 26  1  0
 24 27  1  0
 27 28  1  0
 28 29  1  0
 28 30  1  0
 28 31  1  0
 31 32  1  0
 31 33  1  0
 18 34  1  0
 34 35  1  0
 34 36  1  0
 34 37  1  0
 37 38  1  0
 37 39  1  0
  8 40  2  0
 40 41  1  0
 40 42  1  0
 42 43  2  0
 43 44  1  0
 43 45  1  0
 45 46  1  0
 46 47  1  0
 47 48  2  0
 47 49  1  0
 49 50  1  0
 50 51  1  0
 42  4  1  0
 50 45  2  0
 37 11  1  0
 31 19  1  0
M  CHG  3  46  -1  49  -1  51  -1
M  END
>  <UniqueID>  (86) 
80

>  <SMILES>  (86) 
C=c1ncc(C(=O)N2CCN(C3CCOCC3)CC2)c/c1=C/c1[n-]c(=O)[n-]c1[O-]

>  <Energy>  (86) 
124.10096478701432

>  <Genealogy>  (86) 
C=c1ncc(C(=O)N2CCN(C3CCOCC3)CC2)cc1=Cc1[n-]c(=O)[n-]c1[O-] (protonated)
C=c1ncc(C(=O)N2CCN(C3CCOCC3)CC2)c/c1=C/c1[n-]c(=O)[n-]c1[O-] (cis-trans isomerization)
C=c1ncc(C(=O)N2CCN(C3CCOCC3)CC2)c/c1=C/c1[n-]c(=O)[n-]c1[O-] (3D coordinates assigned)
C=c1ncc(C(=O)N2CCN(C3CCOCC3)CC2)c/c1=C/c1[n-]c(=O)[n-]c1[O-] (nonaromatic ring conformer: 124.10096478701432 kcal/mol)

>  <smiles>  (86) 
C=c1ncc(C(=O)N2CCN(C3CCOCC3)CC2)cc1=Cc1[nH]c(=O)[nH]c1O

>  <score_type>  (86) 
oracle

>  <origin>  (86) 
adg

>  <m_score__min__energy>  (86) 
-18.260000000000002

>  <m_primary>  (86) 
energy

$$$$
86:0
     RDKit          3D

 41 43  0  0  0  0  0  0  0  0999 V2000
   58.3300   34.8890   44.9200 O   0  0  0  0  0  0  0  0  0  0  0  0
   58.3860   33.7480   45.4550 C   0  0  0  0  0  0  0  0  0  0  0  0
   57.6590   32.7080   44.8880 C   0  0  0  0  0  0  0  0  0  0  0  0
   57.7100   31.4510   45.4730 C   0  0  0  0  0  0  0  0  0  0  0  0
   56.9940   30.4100   44.8860 O   0  0  0  0  0  0  0  0  0  0  0  0
   58.4540   31.2430   46.6010 N   0  0  0  0  0  0  0  0  0  0  0  0
   58.5120   29.8970   47.2010 C   0  0  0  0  0  0  0  0  0  0  0  0
   59.2430   28.9300   46.2660 C   0  0  0  0  0  0  0  0  0  0  0  0
   58.4120   27.6980   46.0210 C   0  0  0  0  0  0  0  0  0  0  0  0
   59.0250   26.4990   45.6210 C   0  0  0  0  0  0  0  0  0  0  0  0
   58.2490   25.3640   45.3630 C   0  0  0  0  0  0  0  0  0  0  0  0
   56.8590   25.4220   45.4920 C   0  0  0  0  0  0  0  0  0  0  0  0
   56.2400   26.6160   45.8750 C   0  0  0  0  0  0  0  0  0  0  0  0
   54.8570   26.6730   45.9950 O   0  0  0  0  0  0  0  0  0  0  0  0
   57.0130   27.7530   46.1350 C   0  0  0  0  0  0  0  0  0  0  0  0
   59.1860   32.2760   47.1380 C   0  0  0  0  0  0  0  0  0  0  0  0
   59.9010   32.0700   48.1590 O   0  0  0  0  0  0  0  0  0  0  0  0
   59.1510   33.5290   46.5710 N   0  0  0  0  0  0  0  0  0  0  0  0
   59.9070   34.6400   47.1870 C   0  0  0  0  0  0  0  0  0  0  0  0
   61.3180   34.2120   47.4940 C   0  0  0  0  0  0  0  0  0  0  0  0
   62.1860   33.8340   46.4560 C   0  0  0  0  0  0  0  0  0  0  0  0
   63.5050   33.4670   46.7380 C   0  0  0  0  0  0  0  0  0  0  0  0
   63.9700   33.4790   48.0560 C   0  0  0  0  0  0  0  0  0  0  0  0
   63.1150   33.8580   49.0940 C   0  0  0  0  0  0  0  0  0  0  0  0
   61.7950   34.2250   48.8170 C   0  0  0  0  0  0  0  0  0  0  0  0
   57.0512   32.8792   43.9873 H   0  0  0  0  0  0  0  0  0  0  0  0
   59.0484   29.9499   48.1599 H   0  0  0  0  0  0  0  0  0  0  0  0
   57.4868   29.5326   47.3625 H   0  0  0  0  0  0  0  0  0  0  0  0
   59.4366   29.4320   45.3065 H   0  0  0  0  0  0  0  0  0  0  0  0
   60.1907   28.6301   46.7371 H   0  0  0  0  0  0  0  0  0  0  0  0
   60.1184   26.4525   45.5103 H   0  0  0  0  0  0  0  0  0  0  0  0
   58.7337   24.4248   45.0582 H   0  0  0  0  0  0  0  0  0  0  0  0
   56.2509   24.5274   45.2921 H   0  0  0  0  0  0  0  0  0  0  0  0
   56.5235   28.6930   46.4296 H   0  0  0  0  0  0  0  0  0  0  0  0
   59.9304   35.4915   46.4910 H   0  0  0  0  0  0  0  0  0  0  0  0
   59.4114   34.9303   48.1251 H   0  0  0  0  0  0  0  0  0  0  0  0
   61.8260   33.8268   45.4166 H   0  0  0  0  0  0  0  0  0  0  0  0
   64.1783   33.1682   45.9211 H   0  0  0  0  0  0  0  0  0  0  0  0
   65.0084   33.1903   48.2759 H   0  0  0  0  0  0  0  0  0  0  0  0
   63.4813   33.8676   50.1312 H   0  0  0  0  0  0  0  0  0  0  0  0
   61.1264   34.5253   49.6373 H   0  0  0  0  0  0  0  0  0  0  0  0
  1  2  2  0
  2  3  1  0
  3  4  2  0
  4  5  1  0
  4  6  1  0
  6  7  1  0
  7  8  1  0
  8  9  1  0
  9 10  2  0
 10 11  1  0
 11 12  2  0
 12 13  1  0
 13 14  1  0
 13 15  2  0
  6 16  1  0
 16 17  2  0
 16 18  1  0
 18 19  1  0
 19 20  1  0
 20 21  2  0
 21 22  1  0
 22 23  2  0
 23 24  1  0
 24 25  2  0
 18  2  1  0
 25 20  1  0
 15  9  1  0
  3 26  1  0
  7 27  1  0
  7 28  1  0
  8 29  1  0
  8 30  1  0
 10 31  1  0
 11 32  1  0
 12 33  1  0
 15 34  1  0
 19 35  1  0
 19 36  1  0
 21 37  1  0
 22 38  1  0
 23 39  1  0
 24 40  1  0
 25 41  1  0
M  CHG  2   5  -1  14  -1
M  END
>  <UniqueID>  (87) 
81

>  <SMILES>  (87) 
O=c1cc([O-])n(CCc2cccc([O-])c2)c(=O)n1Cc1ccccc1

>  <Energy>  (87) 
47.5991436551644

>  <Genealogy>  (87) 
O=c1cc([O-])n(CCc2cccc([O-])c2)c(=O)n1Cc1ccccc1 (protonated)
O=c1cc([O-])n(CCc2cccc([O-])c2)c(=O)n1Cc1ccccc1 (3D coordinates assigned)
O=c1cc([O-])n(CCc2cccc([O-])c2)c(=O)n1Cc1ccccc1 (optimized conformer: 47.5991436551644 kcal/mol)

>  <smiles>  (87) 
O=c1cc(O)n(CCc2cccc(O)c2)c(=O)n1Cc1ccccc1

>  <score_type>  (87) 
oracle

>  <origin>  (87) 
adg

>  <m_score__min__energy>  (87) 
-13.119999999999999

>  <m_primary>  (87) 
energy

$$$$
